
  -OEChem-04042321543D

 82 90  0     1  0  0  0  0  0999 V2000
  -16.7221  -30.7697   23.5743 C   0  0  0  0  0  0  0  0  0  0  0  0
  -17.9249  -31.4477   23.4039 C   0  0  0  0  0  0  0  0  0  0  0  0
  -30.7134  -27.1801   24.8338 C   0  0  0  0  0  0  0  0  0  0  0  0
  -25.8454  -14.2161   21.0883 C   0  0  0  0  0  0  0  0  0  0  0  0
  -25.8537  -14.4768   18.6864 C   0  0  0  0  0  0  0  0  0  0  0  0
  -30.5955  -25.8056   24.6283 C   0  0  0  0  0  0  0  0  0  0  0  0
  -16.7224  -29.3879   23.7602 C   0  0  0  0  0  0  0  0  0  0  0  0
  -19.1288  -30.7443   23.4203 C   0  0  0  0  0  0  0  0  0  0  0  0
  -25.6752  -30.8137   20.5122 C   0  0  0  0  0  0  0  0  0  0  0  0
  -30.8362  -28.0404   23.7427 C   0  0  0  0  0  0  0  0  0  0  0  0
  -24.8528  -13.2423   20.9793 C   0  0  0  0  0  0  0  0  0  0  0  0
  -24.8610  -13.5029   18.5774 C   0  0  0  0  0  0  0  0  0  0  0  0
  -27.0188  -30.7848   20.8830 C   0  0  0  0  0  0  0  0  0  0  0  0
  -24.6568   -9.9646   20.1723 C   0  0  0  0  0  0  0  0  0  0  0  0
  -24.8072   -8.7988   20.9232 C   0  0  0  0  0  0  0  0  0  0  0  0
  -26.8922  -28.3888   21.1326 C   0  0  0  0  0  0  0  0  0  0  0  0
  -22.7245   -9.2608   22.0573 C   0  0  0  0  0  0  0  0  0  0  0  0
  -26.3458  -14.8334   19.9419 C   0  0  0  0  0  0  0  0  0  0  0  0
  -30.6004  -25.2912   23.3317 C   0  0  0  0  0  0  0  0  0  0  0  0
  -28.7642  -15.6398   20.0368 C   0  0  0  0  0  0  0  0  0  0  0  0
  -17.9263  -28.6660   23.7692 C   0  0  0  0  0  0  0  0  0  0  0  0
  -24.9258  -29.6296   20.4592 C   0  0  0  0  0  0  0  0  0  0  0  0
  -19.1453  -29.3518   23.6078 C   0  0  0  0  0  0  0  0  0  0  0  0
  -25.5399  -28.4051   20.7583 C   0  0  0  0  0  0  0  0  0  0  0  0
  -30.8411  -27.5261   22.4461 C   0  0  0  0  0  0  0  0  0  0  0  0
  -30.7232  -26.1515   22.2406 C   0  0  0  0  0  0  0  0  0  0  0  0
  -24.3606  -12.8856   19.7238 C   0  0  0  0  0  0  0  0  0  0  0  0
  -27.6268  -29.5726   21.1961 C   0  0  0  0  0  0  0  0  0  0  0  0
  -23.5404  -10.7786   20.3639 C   0  0  0  0  0  0  0  0  0  0  0  0
  -23.8410   -8.4469   21.8657 C   0  0  0  0  0  0  0  0  0  0  0  0
  -22.5742  -10.4266   21.3064 C   0  0  0  0  0  0  0  0  0  0  0  0
  -27.3708  -15.8399   20.0539 C   0  0  0  0  0  0  0  0  0  0  0  0
  -29.2937  -16.8996   20.1745 C   0  0  0  0  0  0  0  0  0  0  0  0
  -30.4755  -23.8504   23.1535 C   0  0  0  0  0  0  0  0  0  0  0  0
  -29.3156  -23.1815   22.9928 C   0  0  0  0  0  0  0  0  0  0  0  0
  -29.5129  -14.4238   19.9079 C   0  0  0  0  0  0  0  0  0  0  0  0
  -29.3547  -21.7162   22.8130 C   0  0  0  0  0  0  0  0  0  0  0  0
  -22.3568  -28.5312   21.9750 C   0  0  0  0  0  0  0  0  0  0  0  0
  -22.6324  -26.0889   19.8580 C   0  0  0  0  0  0  0  0  0  0  0  0
  -24.6336  -24.2748   17.7722 C   0  0  0  0  0  0  0  0  0  0  0  0
  -17.8795  -27.1796   24.0207 C   0  0  0  0  0  0  0  0  0  0  0  0
  -23.4844  -29.6746   20.0315 C   0  0  0  0  0  0  0  0  0  0  0  0
  -24.7847  -27.1034   20.6971 C   0  0  0  0  0  0  0  0  0  0  0  0
  -19.1731  -26.4583   23.6508 C   0  0  0  0  0  0  0  0  0  0  0  0
  -27.1226  -21.4440   19.9189 C   0  0  0  0  0  0  0  0  0  0  0  0
  -20.3804  -27.2134   24.1975 C   0  0  0  0  0  0  0  0  0  0  0  0
  -27.0701  -19.9303   19.7300 C   0  0  0  0  0  0  0  0  0  0  0  0
  -27.2372  -21.8327   21.3922 C   0  0  0  0  0  0  0  0  0  0  0  0
  -28.3295  -19.6680   21.9037 C   0  0  0  0  0  0  0  0  0  0  0  0
  -20.4702  -28.6206   23.5947 C   0  0  1  0  0  0  0  0  0  0  0  0
  -22.6815  -28.4686   20.5092 C   0  0  1  0  0  0  0  0  0  0  0  0
  -28.2616  -19.2532   20.4257 C   0  0  1  0  0  0  0  0  0  0  0  0
  -32.0697  -24.9831   20.4775 C   0  0  0  0  0  0  0  0  0  0  0  0
  -24.5832  -22.3160   16.2043 C   0  0  0  0  0  0  0  0  0  0  0  0
  -22.6018  -24.1847   22.2419 C   0  0  0  0  0  0  0  0  0  0  0  0
  -23.4928  -22.3949   20.7350 C   0  0  0  0  0  0  0  0  0  0  0  0
  -21.2633  -23.4149   20.2746 C   0  0  0  0  0  0  0  0  0  0  0  0
  -25.4232  -25.9526   15.4655 C   0  0  0  0  0  0  0  0  0  0  0  0
  -30.7301  -25.6110   20.8441 C   0  0  0  0  0  0  0  0  0  0  0  0
  -30.9754  -28.4774   21.2868 C   0  0  0  0  0  0  0  0  0  0  0  0
  -23.3569  -24.7646   19.8421 C   0  0  1  0  0  0  0  0  0  0  0  0
  -24.4452  -23.8249   16.3346 C   0  0  2  0  0  0  0  0  0  0  0  0
  -22.6927  -23.7144   20.7765 C   0  0  0  0  0  0  0  0  0  0  0  0
  -27.0362  -17.1256   20.1918 N   0  0  0  0  0  0  0  0  0  0  0  0
  -28.2269  -17.7447   20.2626 N   0  0  0  0  0  0  0  0  0  0  0  0
  -28.3477  -21.1278   22.0500 N   0  0  0  0  0  0  0  0  0  0  0  0
  -23.3762  -27.2002   20.2796 N   0  0  0  0  0  0  0  0  0  0  0  0
  -30.5631  -17.3558   20.2276 N   0  0  0  0  0  0  0  0  0  0  0  0
  -28.8111  -13.2179   19.7754 N   0  0  0  0  0  0  0  0  0  0  0  0
  -21.0030  -28.5616   22.2505 N   0  0  0  0  0  0  0  0  0  0  0  0
  -23.4319  -24.3572   18.4432 N   0  0  0  0  0  0  0  0  0  0  0  0
  -29.6990  -28.7107   20.6265 N   0  0  0  0  0  0  0  0  0  1  0  0
  -25.4608  -24.4675   15.4534 N   0  3  0  0  0  0  0  0  0  0  0  0
  -30.7670  -14.4054   19.9266 O   0  0  0  0  0  0  0  0  0  0  0  0
  -30.2753  -21.1012   23.3542 O   0  0  0  0  0  0  0  0  0  0  0  0
  -23.2670  -28.5491   22.7952 O   0  0  0  0  0  0  0  0  0  0  0  0
  -21.4522  -26.1369   19.5025 O   0  0  0  0  0  0  0  0  0  0  0  0
  -25.7369  -24.5243   18.2528 O   0  0  0  0  0  0  0  0  0  0  0  0
  -23.3922  -11.9352   19.6170 O   0  0  0  0  0  0  0  0  0  0  0  0
  -28.9380  -29.5417   21.5590 O   0  0  0  0  0  0  0  0  0  1  0  0
  -23.9847   -7.3266   22.5857 F   0  0  0  0  0  0  0  0  0  0  0  0
  -21.4988  -11.2040   21.4941 F   0  0  0  0  0  0  0  0  0  0  0  0
  1  2  1  0  0  0  0
  1  7  2  0  0  0  0
  2  8  2  0  0  0  0
  3  6  1  0  0  0  0
  3 10  2  0  0  0  0
  4 11  2  0  0  0  0
  4 18  1  0  0  0  0
  5 12  1  0  0  0  0
  5 18  2  0  0  0  0
  6 19  2  0  0  0  0
  7 21  1  0  0  0  0
  8 23  1  0  0  0  0
  9 13  2  0  0  0  0
  9 22  1  0  0  0  0
 10 25  1  0  0  0  0
 11 27  1  0  0  0  0
 12 27  2  0  0  0  0
 13 28  1  0  0  0  0
 14 15  2  0  0  0  0
 14 29  1  0  0  0  0
 15 30  1  0  0  0  0
 16 24  1  0  0  0  0
 16 28  2  0  0  0  0
 17 30  2  0  0  0  0
 17 31  1  0  0  0  0
 18 32  1  0  0  0  0
 19 26  1  0  0  0  0
 19 34  1  0  0  0  0
 20 32  1  0  0  0  0
 20 33  2  0  0  0  0
 20 36  1  0  0  0  0
 21 23  2  0  0  0  0
 21 41  1  0  0  0  0
 22 24  2  0  0  0  0
 22 42  1  0  0  0  0
 23 50  1  0  0  0  0
 24 43  1  0  0  0  0
 25 26  2  0  0  0  0
 25 60  1  0  0  0  0
 26 59  1  0  0  0  0
 27 79  1  0  0  0  0
 28 80  1  0  0  0  0
 29 31  2  0  0  0  0
 29 79  1  0  0  0  0
 30 81  1  0  0  0  0
 31 82  1  0  0  0  0
 32 64  2  0  0  0  0
 33 65  1  0  0  0  0
 33 68  1  0  0  0  0
 34 35  2  0  0  0  0
 35 37  1  0  0  0  0
 36 69  1  0  0  0  0
 36 74  2  0  0  0  0
 37 66  1  0  0  0  0
 37 75  2  0  0  0  0
 38 51  1  0  0  0  0
 38 70  1  0  0  0  0
 38 76  2  0  0  0  0
 39 61  1  0  0  0  0
 39 67  1  0  0  0  0
 39 77  2  0  0  0  0
 40 62  1  0  0  0  0
 40 71  1  0  0  0  0
 40 78  2  0  0  0  0
 41 44  1  0  0  0  0
 42 51  1  0  0  0  0
 43 67  1  0  0  0  0
 44 46  1  0  0  0  0
 45 47  1  0  0  0  0
 45 48  1  0  0  0  0
 46 50  1  0  0  0  0
 47 52  1  0  0  0  0
 48 66  1  0  0  0  0
 49 52  1  0  0  0  0
 49 66  1  0  0  0  0
 50 70  1  0  0  0  0
 51 67  1  0  0  0  0
 52 65  1  0  0  0  0
 53 59  1  0  0  0  0
 54 62  1  0  0  0  0
 55 63  1  0  0  0  0
 56 63  1  0  0  0  0
 57 63  1  0  0  0  0
 58 73  1  0  0  0  0
 60 72  1  0  0  0  0
 61 63  1  0  0  0  0
 61 71  1  0  0  0  0
 62 73  1  0  0  0  0
 64 65  1  0  0  0  0
 72 80  1  0  0  0  0
M  CHG  1  73   1
M  ISO  4  35 100  37 100  72 101  80 101
M  END
> <Batch ID>
0036

> <Smiles>
CCc1c(C=[100CH:0][100C:0](=O)N2CCCC(n3nc(-c4ccc(Oc5ccc(F)cc5F)cc4)c(C(N)=O)c3N)C2)cccc1C[101NH:1][101O:1]c1ccc2c(c1)CN(C(=O)C(NC(=O)C(C)NC)C(C)(C)C)C(C(=O)NC1CCCc3ccccc31)C2

> <Shape>
0.255

> <Color>
0.084

> <Negative vol penalty>
0.000

$$$$

  -OEChem-04042321543D

 88 97  0     1  0  0  0  0  0999 V2000
  -16.8830  -30.7764   23.8520 C   0  0  0  0  0  0  0  0  0  0  0  0
  -18.0823  -30.3431   24.4082 C   0  0  0  0  0  0  0  0  0  0  0  0
  -22.5673  -10.4902   20.3014 C   0  0  0  0  0  0  0  0  0  0  0  0
  -24.1503   -9.6921   21.9428 C   0  0  0  0  0  0  0  0  0  0  0  0
  -16.1169  -29.9021   23.0821 C   0  0  0  0  0  0  0  0  0  0  0  0
  -18.5158  -29.0349   24.1956 C   0  0  0  0  0  0  0  0  0  0  0  0
  -24.3024  -27.1294   23.5715 C   0  0  0  0  0  0  0  0  0  0  0  0
  -21.7473   -9.3913   20.5578 C   0  0  0  0  0  0  0  0  0  0  0  0
  -23.3303   -8.5932   22.1993 C   0  0  0  0  0  0  0  0  0  0  0  0
  -25.2006  -26.5494   24.4662 C   0  0  0  0  0  0  0  0  0  0  0  0
  -20.5113   -7.9450   23.9468 C   0  0  0  0  0  0  0  0  0  0  0  0
  -20.2884   -7.6019   25.2802 C   0  0  0  0  0  0  0  0  0  0  0  0
  -24.5847  -24.3619   23.6570 C   0  0  0  0  0  0  0  0  0  0  0  0
  -30.8975  -17.7762   23.9965 C   0  0  0  0  0  0  0  0  0  0  0  0
  -21.2581   -5.4251   24.8821 C   0  0  0  0  0  0  0  0  0  0  0  0
  -23.7688  -10.6405   20.9938 C   0  0  0  0  0  0  0  0  0  0  0  0
  -24.2883  -13.1355   20.8814 C   0  0  0  0  0  0  0  0  0  0  0  0
  -16.5459  -28.5854   22.8520 C   0  0  0  0  0  0  0  0  0  0  0  0
  -23.5294  -26.3281   22.7189 C   0  0  0  0  0  0  0  0  0  0  0  0
  -17.7540  -28.1418   23.4231 C   0  0  0  0  0  0  0  0  0  0  0  0
  -23.6793  -24.9343   22.7506 C   0  0  0  0  0  0  0  0  0  0  0  0
  -30.4219  -17.4839   22.7182 C   0  0  0  0  0  0  0  0  0  0  0  0
  -29.2271  -18.0491   22.2725 C   0  0  0  0  0  0  0  0  0  0  0  0
  -28.5079  -18.9066   23.1050 C   0  0  0  0  0  0  0  0  0  0  0  0
  -28.9834  -19.1988   24.3834 C   0  0  0  0  0  0  0  0  0  0  0  0
  -22.1288   -8.4429   21.5068 C   0  0  0  0  0  0  0  0  0  0  0  0
  -25.3398  -25.1653   24.5111 C   0  0  0  0  0  0  0  0  0  0  0  0
  -21.1075   -7.0282   23.0809 C   0  0  0  0  0  0  0  0  0  0  0  0
  -20.6618   -6.3419   25.7479 C   0  0  0  0  0  0  0  0  0  0  0  0
  -21.4809   -5.7682   23.5486 C   0  0  0  0  0  0  0  0  0  0  0  0
  -30.1782  -18.6336   24.8291 C   0  0  0  0  0  0  0  0  0  0  0  0
  -24.6165  -11.7751   20.7289 C   0  0  0  0  0  0  0  0  0  0  0  0
  -25.4248  -13.8075   20.5029 C   0  0  0  0  0  0  0  0  0  0  0  0
  -23.0655  -13.7380   21.3257 C   0  0  0  0  0  0  0  0  0  0  0  0
  -20.4155  -25.8258   22.3250 C   0  0  0  0  0  0  0  0  0  0  0  0
  -21.4166  -24.0631   19.7926 C   0  0  0  0  0  0  0  0  0  0  0  0
  -23.9187  -22.2707   18.3182 C   0  0  0  0  0  0  0  0  0  0  0  0
  -30.9699  -14.4308   20.5991 C   0  0  0  0  0  0  0  0  0  0  0  0
  -15.6606  -27.6628   22.0523 C   0  0  0  0  0  0  0  0  0  0  0  0
  -22.5844  -26.9706   21.7408 C   0  0  0  0  0  0  0  0  0  0  0  0
  -22.8875  -24.0308   21.8421 C   0  0  0  0  0  0  0  0  0  0  0  0
  -16.3748  -26.4052   21.5639 C   0  0  0  0  0  0  0  0  0  0  0  0
  -29.6233  -12.1497   18.2201 C   0  0  0  0  0  0  0  0  0  0  0  0
  -29.7686  -23.5740   24.7633 C   0  0  0  0  0  0  0  0  0  0  0  0
  -17.1839  -25.7775   22.6945 C   0  0  0  0  0  0  0  0  0  0  0  0
  -28.1762  -11.9566   18.6769 C   0  0  0  0  0  0  0  0  0  0  0  0
  -28.5968  -24.4411   25.2044 C   0  0  0  0  0  0  0  0  0  0  0  0
  -30.5746  -12.2964   19.4056 C   0  0  0  0  0  0  0  0  0  0  0  0
  -28.7544  -13.1522   20.8298 C   0  0  0  0  0  0  0  0  0  0  0  0
  -29.6474  -22.1525   25.2938 C   0  0  0  0  0  0  0  0  0  0  0  0
  -27.1505  -22.3807   25.3561 C   0  0  0  0  0  0  0  0  0  0  0  0
  -18.2700  -26.7376   23.1946 C   0  0  1  0  0  0  0  0  0  0  0  0
  -21.4739  -26.0324   21.2786 C   0  0  1  0  0  0  0  0  0  0  0  0
  -27.7499  -13.0555   19.6688 C   0  0  2  0  0  0  0  0  0  0  0  0
  -27.2617  -23.8055   24.8294 C   0  0  1  0  0  0  0  0  0  1  0  0
  -28.7197  -17.7334   20.9009 C   0  0  0  0  0  0  0  0  0  0  0  0
  -27.2264  -19.5123   22.6250 C   0  0  0  0  0  0  0  0  0  0  0  0
  -24.4271  -20.9166   16.2675 C   0  0  0  0  0  0  0  0  0  0  0  0
  -19.7902  -21.7428   20.9245 C   0  0  0  0  0  0  0  0  0  0  0  0
  -21.0664  -20.2042   19.4171 C   0  0  0  0  0  0  0  0  0  0  0  0
  -19.6437  -22.0062   18.4419 C   0  0  0  0  0  0  0  0  0  0  0  0
  -26.0916  -24.1071   17.5028 C   0  0  0  0  0  0  0  0  0  0  0  0
  -31.2109  -16.5629   21.8464 C   0  0  0  0  0  0  0  0  0  0  0  0
  -28.1995  -20.1226   25.2682 C   0  0  0  0  0  0  0  0  0  0  0  0
  -21.8139  -22.6217   19.5835 C   0  0  1  0  0  0  0  0  0  0  0  0
  -24.4788  -22.2952   16.9075 C   0  0  2  0  0  0  0  0  0  0  0  0
  -20.5922  -21.6604   19.6104 C   0  0  0  0  0  0  0  0  0  0  0  0
  -25.8638  -11.5919   20.2876 N   0  0  0  0  0  0  0  0  0  0  0  0
  -26.3293  -12.8461   20.1596 N   0  0  0  0  0  0  0  0  0  0  0  0
  -21.9721  -24.7063   20.9077 N   0  0  0  0  0  0  0  0  0  0  0  0
  -30.1145  -13.3557   20.3068 N   0  0  0  0  0  0  0  0  0  0  0  0
  -25.7287  -15.1210   20.4334 N   0  0  0  0  0  0  0  0  0  0  0  0
  -22.9021  -13.9864   22.6953 N   0  0  0  0  0  0  0  0  0  0  0  0
  -19.3915  -26.7526   22.2800 N   0  0  0  0  0  0  0  0  0  0  0  0
  -22.5762  -22.5847   18.3402 N   0  0  0  0  0  0  0  0  0  0  0  0
  -30.4534  -15.3944   21.4568 N   0  0  0  0  0  0  0  0  0  0  0  0
  -28.3220  -21.5670   24.8678 N   0  3  2  0  0  0  0  0  0  0  0  0
  -25.8966  -22.7542   16.9210 N   0  3  0  0  0  0  0  0  0  0  0  0
  -22.1382  -14.0318   20.5336 O   0  0  0  0  0  0  0  0  0  0  0  0
  -20.5194  -24.8938   23.1137 O   0  0  0  0  0  0  0  0  0  0  0  0
  -20.6474  -24.6006   18.9919 O   0  0  0  0  0  0  0  0  0  0  0  0
  -24.6027  -21.9966   19.3018 O   0  0  0  0  0  0  0  0  0  0  0  0
  -32.1074  -14.5277   20.1263 O   0  0  0  0  0  0  0  0  0  0  0  0
  -21.3288   -7.3706   21.7575 O   0  0  0  0  0  0  0  0  0  0  0  0
  -26.2153  -24.5965   25.3839 O   0  0  0  0  0  0  0  0  0  1  0  0
  -20.4492   -6.0131   27.0289 F   0  0  0  0  0  0  0  0  0  0  0  0
  -22.0551   -4.8836   22.7218 F   0  0  0  0  0  0  0  0  0  0  0  0
  -30.8015  -18.9704   26.4038 Cl  0  0  0  0  0  0  0  0  0  0  0  0
  1  2  1  0  0  0  0
  1  5  2  0  0  0  0
  2  6  2  0  0  0  0
  3  8  2  0  0  0  0
  3 16  1  0  0  0  0
  4  9  1  0  0  0  0
  4 16  2  0  0  0  0
  5 18  1  0  0  0  0
  6 20  1  0  0  0  0
  7 10  2  0  0  0  0
  7 19  1  0  0  0  0
  8 26  1  0  0  0  0
  9 26  2  0  0  0  0
 10 27  1  0  0  0  0
 11 12  2  0  0  0  0
 11 28  1  0  0  0  0
 12 29  1  0  0  0  0
 13 21  1  0  0  0  0
 13 27  2  0  0  0  0
 14 22  1  0  0  0  0
 14 31  2  0  0  0  0
 15 29  2  0  0  0  0
 15 30  1  0  0  0  0
 16 32  1  0  0  0  0
 17 32  1  0  0  0  0
 17 33  2  0  0  0  0
 17 34  1  0  0  0  0
 18 20  2  0  0  0  0
 18 39  1  0  0  0  0
 19 21  2  0  0  0  0
 19 40  1  0  0  0  0
 20 52  1  0  0  0  0
 21 41  1  0  0  0  0
 22 23  2  0  0  0  0
 22 63  1  0  0  0  0
 23 24  1  0  0  0  0
 23 56  1  0  0  0  0
 24 25  2  0  0  0  0
 24 57  1  0  0  0  0
 25 31  1  0  0  0  0
 25 64  1  0  0  0  0
 26 84  1  0  0  0  0
 27 85  1  0  0  0  0
 28 30  2  0  0  0  0
 28 84  1  0  0  0  0
 29 86  1  0  0  0  0
 30 87  1  0  0  0  0
 31 88  1  0  0  0  0
 32 68  2  0  0  0  0
 33 69  1  0  0  0  0
 33 72  1  0  0  0  0
 34 73  1  0  0  0  0
 34 79  2  0  0  0  0
 35 53  1  0  0  0  0
 35 74  1  0  0  0  0
 35 80  2  0  0  0  0
 36 65  1  0  0  0  0
 36 70  1  0  0  0  0
 36 81  2  0  0  0  0
 37 66  1  0  0  0  0
 37 75  1  0  0  0  0
 37 82  2  0  0  0  0
 38 71  1  0  0  0  0
 38 76  1  0  0  0  0
 38 83  2  0  0  0  0
 39 42  1  0  0  0  0
 40 53  1  0  0  0  0
 41 70  1  0  0  0  0
 42 45  1  0  0  0  0
 43 46  1  0  0  0  0
 43 48  1  0  0  0  0
 44 47  1  0  0  0  0
 44 50  1  0  0  0  0
 45 52  1  0  0  0  0
 46 54  1  0  0  0  0
 47 55  1  0  0  0  0
 48 71  1  0  0  0  0
 49 54  1  0  0  0  0
 49 71  1  0  0  0  0
 50 77  1  0  0  0  0
 51 55  1  0  0  0  0
 51 77  1  0  0  0  0
 52 74  1  0  0  0  0
 53 70  1  0  0  0  0
 54 69  1  0  0  0  0
 55 85  1  0  0  0  0
 58 66  1  0  0  0  0
 59 67  1  0  0  0  0
 60 67  1  0  0  0  0
 61 67  1  0  0  0  0
 62 78  1  0  0  0  0
 63 76  1  0  0  0  0
 64 77  1  0  0  0  0
 65 67  1  0  0  0  0
 65 75  1  0  0  0  0
 66 78  1  0  0  0  0
 68 69  1  0  0  0  0
M  CHG  2  77   1  78   1
M  ISO  4  38 100  55 101  76 100  85 101
M  END
> <Batch ID>
0036

> <Smiles>
CNC(C)C(=O)NC(C(=O)N1Cc2cc([101O:1][101CH:1]3CCCN(Cc4c(Cl)cc(C[100NH:0][100C:0](=O)N5CCCC(n6nc(-c7ccc(Oc8ccc(F)cc8F)cc7)c(C(N)=O)c6N)C5)c(C)c4C)C3)ccc2CC1C(=O)NC1CCCc2ccccc21)C(C)(C)C

> <Shape>
0.258

> <Color>
0.177

> <Negative vol penalty>
0.000

$$$$

  -OEChem-04042321543D

 90 99  0     1  0  0  0  0  0999 V2000
  -26.3437  -31.6440   27.8769 C   0  0  0  0  0  0  0  0  0  0  0  0
  -26.2761  -30.5847   26.9776 C   0  0  0  0  0  0  0  0  0  0  0  0
  -22.7048   -9.9378   20.3407 C   0  0  0  0  0  0  0  0  0  0  0  0
  -24.5374   -8.7991   21.4279 C   0  0  0  0  0  0  0  0  0  0  0  0
  -25.4267  -32.6906   27.7895 C   0  0  0  0  0  0  0  0  0  0  0  0
  -25.2907  -30.5708   25.9911 C   0  0  0  0  0  0  0  0  0  0  0  0
  -27.1056  -29.2538   21.4506 C   0  0  0  0  0  0  0  0  0  0  0  0
  -21.8097   -9.3520   21.2359 C   0  0  0  0  0  0  0  0  0  0  0  0
  -23.6424   -8.2133   22.3231 C   0  0  0  0  0  0  0  0  0  0  0  0
  -27.3384  -27.8975   21.2269 C   0  0  0  0  0  0  0  0  0  0  0  0
  -21.4501   -5.6394   22.3289 C   0  0  0  0  0  0  0  0  0  0  0  0
  -21.5965   -4.2779   22.5942 C   0  0  0  0  0  0  0  0  0  0  0  0
  -25.2517  -27.7435   20.0265 C   0  0  0  0  0  0  0  0  0  0  0  0
  -25.4773  -19.1376   20.5213 C   0  0  0  0  0  0  0  0  0  0  0  0
  -28.0731  -18.2588   21.0428 C   0  0  0  0  0  0  0  0  0  0  0  0
  -21.9462   -4.7713   24.9333 C   0  0  0  0  0  0  0  0  0  0  0  0
  -24.0686   -9.6613   20.4366 C   0  0  0  0  0  0  0  0  0  0  0  0
  -25.0035  -10.1327   18.1104 C   0  0  0  0  0  0  0  0  0  0  0  0
  -24.4356  -32.6944   26.7954 C   0  0  0  0  0  0  0  0  0  0  0  0
  -25.9369  -29.8637   20.9725 C   0  0  0  0  0  0  0  0  0  0  0  0
  -24.3587  -31.6178   25.8912 C   0  0  0  0  0  0  0  0  0  0  0  0
  -25.0076  -29.1082   20.2433 C   0  0  0  0  0  0  0  0  0  0  0  0
  -26.3629  -19.9559   21.2223 C   0  0  0  0  0  0  0  0  0  0  0  0
  -25.8895  -17.8798   20.0810 C   0  0  0  0  0  0  0  0  0  0  0  0
  -27.6608  -19.5165   21.4831 C   0  0  0  0  0  0  0  0  0  0  0  0
  -27.1874  -17.4404   20.3417 C   0  0  0  0  0  0  0  0  0  0  0  0
  -22.2785   -8.4898   22.2271 C   0  0  0  0  0  0  0  0  0  0  0  0
  -26.4100  -27.1415   20.5173 C   0  0  0  0  0  0  0  0  0  0  0  0
  -21.5518   -6.5669   23.3658 C   0  0  0  0  0  0  0  0  0  0  0  0
  -21.8446   -3.8438   23.8964 C   0  0  0  0  0  0  0  0  0  0  0  0
  -21.7998   -6.1328   24.6680 C   0  0  0  0  0  0  0  0  0  0  0  0
  -24.9936  -10.2656   19.5118 C   0  0  0  0  0  0  0  0  0  0  0  0
  -26.0699  -10.8952   17.7007 C   0  0  0  0  0  0  0  0  0  0  0  0
  -24.9162  -23.3884   20.9313 C   0  0  0  0  0  0  0  0  0  0  0  0
  -23.6958  -23.4023   20.3741 C   0  0  0  0  0  0  0  0  0  0  0  0
  -23.2277  -22.3795   19.4717 C   0  0  0  0  0  0  0  0  0  0  0  0
  -22.0068  -22.3976   18.9171 C   0  0  0  0  0  0  0  0  0  0  0  0
  -24.1271   -9.3866   17.2554 C   0  0  0  0  0  0  0  0  0  0  0  0
  -23.4554  -31.3227   22.3205 C   0  0  0  0  0  0  0  0  0  0  0  0
  -22.6462  -31.9453   19.2416 C   0  0  0  0  0  0  0  0  0  0  0  0
  -22.6465  -30.1601   16.1062 C   0  0  0  0  0  0  0  0  0  0  0  0
  -28.8837  -15.5953   20.0875 C   0  0  0  0  0  0  0  0  0  0  0  0
  -23.4370  -33.8244   26.7701 C   0  0  0  0  0  0  0  0  0  0  0  0
  -25.7134  -31.3338   21.1991 C   0  0  0  0  0  0  0  0  0  0  0  0
  -23.7469  -29.7200   19.6913 C   0  0  0  0  0  0  0  0  0  0  0  0
  -25.4003  -24.4600   21.8739 C   0  0  0  0  0  0  0  0  0  0  0  0
  -22.6568  -33.9186   25.4615 C   0  0  0  0  0  0  0  0  0  0  0  0
  -30.3390  -12.4716   19.1921 C   0  0  0  0  0  0  0  0  0  0  0  0
  -22.1524  -32.5419   25.0404 C   0  0  0  0  0  0  0  0  0  0  0  0
  -29.1338  -11.5408   19.0390 C   0  0  0  0  0  0  0  0  0  0  0  0
  -27.7335  -23.8412   21.1168 C   0  0  0  0  0  0  0  0  0  0  0  0
  -30.1445  -13.4682   20.3336 C   0  0  0  0  0  0  0  0  0  0  0  0
  -27.6949  -13.3147   20.1207 C   0  0  0  0  0  0  0  0  0  0  0  0
  -27.1363  -22.8571   20.1119 C   0  0  0  0  0  0  0  0  0  0  0  0
  -23.3197  -31.5790   24.7917 C   0  0  1  0  0  0  0  0  0  0  0  0
  -24.2443  -31.7354   21.1101 C   0  0  1  0  0  0  0  0  0  0  0  0
  -27.8168  -12.3355   18.9417 C   0  0  2  0  0  0  0  0  0  0  0  0
  -26.7723  -24.9828   21.4477 C   0  0  1  0  0  0  0  0  0  1  0  0
  -24.9197  -17.0243   19.3322 C   0  0  0  0  0  0  0  0  0  0  0  0
  -28.6264  -20.3752   22.2320 C   0  0  0  0  0  0  0  0  0  0  0  0
  -21.5065  -21.3471   17.9807 C   0  0  0  0  0  0  0  0  0  0  0  0
  -22.8238  -31.0026   13.7491 C   0  0  0  0  0  0  0  0  0  0  0  0
  -19.5960  -31.8936   19.3010 C   0  0  0  0  0  0  0  0  0  0  0  0
  -19.6328  -31.0905   16.9299 C   0  0  0  0  0  0  0  0  0  0  0  0
  -20.5803  -33.3259   17.5026 C   0  0  0  0  0  0  0  0  0  0  0  0
  -24.9698  -28.4179   15.5352 C   0  0  0  0  0  0  0  0  0  0  0  0
  -25.8969  -21.3044   21.6863 C   0  0  0  0  0  0  0  0  0  0  0  0
  -21.8307  -31.2377   18.1865 C   0  0  1  0  0  0  0  0  0  0  0  0
  -23.5718  -30.3961   14.9262 C   0  0  2  0  0  0  0  0  0  0  0  0
  -20.4236  -31.8725   18.0004 C   0  0  0  0  0  0  0  0  0  0  0  0
  -25.9758  -11.0507   19.9623 N   0  0  0  0  0  0  0  0  0  0  0  0
  -26.6129  -11.4179   18.8374 N   0  0  0  0  0  0  0  0  0  0  0  0
  -23.5705  -31.1596   19.9446 N   0  0  0  0  0  0  0  0  0  0  0  0
  -28.8787  -14.1869   20.1725 N   0  0  0  0  0  0  0  0  0  0  0  0
  -26.5867  -11.1629   16.4826 N   0  0  0  0  0  0  0  0  0  0  0  0
  -24.4578   -8.0581   16.9552 N   0  0  0  0  0  0  0  0  0  0  0  0
  -27.6249  -16.1663   19.9026 N   0  0  0  0  0  0  0  0  0  0  0  0
  -23.9308  -31.8467   23.5075 N   0  0  0  0  0  0  0  0  0  0  0  0
  -22.6469  -31.2289   16.9774 N   0  0  0  0  0  0  0  0  0  0  0  0
  -25.8052  -22.3112   20.5731 N   0  3  1  0  0  0  0  0  0  0  0  0
  -24.1837  -29.1117   14.4827 N   0  3  0  0  0  0  0  0  0  0  0  0
  -23.0904   -9.8885   16.7587 O   0  0  0  0  0  0  0  0  0  0  0  0
  -22.4863  -30.5847   22.1873 O   0  0  0  0  0  0  0  0  0  0  0  0
  -22.4747  -33.1522   19.4300 O   0  0  0  0  0  0  0  0  0  0  0  0
  -21.9863  -29.1320   16.2398 O   0  0  0  0  0  0  0  0  0  0  0  0
  -29.9307  -16.2452   20.1453 O   0  0  0  0  0  0  0  0  0  0  0  0
  -21.4054   -7.9182   23.1009 O   0  0  0  0  0  0  0  0  0  0  0  0
  -26.6345  -25.8173   20.2981 O   0  0  0  0  0  0  0  0  0  1  0  0
  -21.9836   -2.5362   24.1513 F   0  0  0  0  0  0  0  0  0  0  0  0
  -21.8974   -7.0191   25.6685 F   0  0  0  0  0  0  0  0  0  0  0  0
  1  2  1  0  0  0  0
  1  5  2  0  0  0  0
  2  6  2  0  0  0  0
  3  8  2  0  0  0  0
  3 17  1  0  0  0  0
  4  9  1  0  0  0  0
  4 17  2  0  0  0  0
  5 19  1  0  0  0  0
  6 21  1  0  0  0  0
  7 10  2  0  0  0  0
  7 20  1  0  0  0  0
  8 27  1  0  0  0  0
  9 27  2  0  0  0  0
 10 28  1  0  0  0  0
 11 12  2  0  0  0  0
 11 29  1  0  0  0  0
 12 30  1  0  0  0  0
 13 22  1  0  0  0  0
 13 28  2  0  0  0  0
 14 23  1  0  0  0  0
 14 24  2  0  0  0  0
 15 25  1  0  0  0  0
 15 26  2  0  0  0  0
 16 30  2  0  0  0  0
 16 31  1  0  0  0  0
 17 32  1  0  0  0  0
 18 32  1  0  0  0  0
 18 33  2  0  0  0  0
 18 38  1  0  0  0  0
 19 21  2  0  0  0  0
 19 43  1  0  0  0  0
 20 22  2  0  0  0  0
 20 44  1  0  0  0  0
 21 55  1  0  0  0  0
 22 45  1  0  0  0  0
 23 25  2  0  0  0  0
 23 67  1  0  0  0  0
 24 26  1  0  0  0  0
 24 59  1  0  0  0  0
 25 60  1  0  0  0  0
 26 77  1  0  0  0  0
 27 87  1  0  0  0  0
 28 88  1  0  0  0  0
 29 31  2  0  0  0  0
 29 87  1  0  0  0  0
 30 89  1  0  0  0  0
 31 90  1  0  0  0  0
 32 71  2  0  0  0  0
 33 72  1  0  0  0  0
 33 75  1  0  0  0  0
 34 35  2  0  0  0  0
 34 46  1  0  0  0  0
 34 80  1  0  0  0  0
 35 36  1  0  0  0  0
 36 37  2  0  0  0  0
 37 61  1  0  0  0  0
 38 76  1  0  0  0  0
 38 82  2  0  0  0  0
 39 56  1  0  0  0  0
 39 78  1  0  0  0  0
 39 83  2  0  0  0  0
 40 68  1  0  0  0  0
 40 73  1  0  0  0  0
 40 84  2  0  0  0  0
 41 69  1  0  0  0  0
 41 79  1  0  0  0  0
 41 85  2  0  0  0  0
 42 74  1  0  0  0  0
 42 77  1  0  0  0  0
 42 86  2  0  0  0  0
 43 47  1  0  0  0  0
 44 56  1  0  0  0  0
 45 73  1  0  0  0  0
 46 58  1  0  0  0  0
 47 49  1  0  0  0  0
 48 50  1  0  0  0  0
 48 52  1  0  0  0  0
 49 55  1  0  0  0  0
 50 57  1  0  0  0  0
 51 54  1  0  0  0  0
 51 58  1  0  0  0  0
 52 74  1  0  0  0  0
 53 57  1  0  0  0  0
 53 74  1  0  0  0  0
 54 80  1  0  0  0  0
 55 78  1  0  0  0  0
 56 73  1  0  0  0  0
 57 72  1  0  0  0  0
 58 88  1  0  0  0  0
 62 69  1  0  0  0  0
 63 70  1  0  0  0  0
 64 70  1  0  0  0  0
 65 70  1  0  0  0  0
 66 81  1  0  0  0  0
 67 80  1  0  0  0  0
 68 70  1  0  0  0  0
 68 79  1  0  0  0  0
 69 81  1  0  0  0  0
 71 72  1  0  0  0  0
M  CHG  2  80   1  81   1
M  ISO  4  42 100  58 101  77 100  88 101
M  END
> <Batch ID>
0036

> <Smiles>
CC=CC=C1C[101CH:1]([101O:1]c2ccc3c(c2)CN(C(=O)C(NC(=O)C(C)NC)C(C)(C)C)C(C(=O)NC2CCCc4ccccc42)C3)CCN1Cc1cc(C)c([100NH:0][100C:0](=O)N2CCCC(n3nc(-c4ccc(Oc5ccc(F)cc5F)cc4)c(C(N)=O)c3N)C2)cc1C

> <Shape>
0.243

> <Color>
0.092

> <Negative vol penalty>
0.000

$$$$

  -OEChem-04042321543D

 84 92  0     1  0  0  0  0  0999 V2000
  -20.7614  -25.2921   27.5418 C   0  0  0  0  0  0  0  0  0  0  0  0
  -21.7920  -24.4219   27.8825 C   0  0  0  0  0  0  0  0  0  0  0  0
  -23.2885   -9.7996   19.9123 C   0  0  0  0  0  0  0  0  0  0  0  0
  -23.7384   -9.9398   22.2819 C   0  0  0  0  0  0  0  0  0  0  0  0
  -19.4350  -24.9134   27.7450 C   0  0  0  0  0  0  0  0  0  0  0  0
  -21.4967  -23.1729   28.4277 C   0  0  0  0  0  0  0  0  0  0  0  0
  -24.5768  -17.9525   27.5520 C   0  0  0  0  0  0  0  0  0  0  0  0
  -22.5620   -8.6271   20.1196 C   0  0  0  0  0  0  0  0  0  0  0  0
  -23.0119   -8.7673   22.4892 C   0  0  0  0  0  0  0  0  0  0  0  0
  -25.5382  -17.2914   28.3151 C   0  0  0  0  0  0  0  0  0  0  0  0
  -19.7647   -7.8564   22.7052 C   0  0  0  0  0  0  0  0  0  0  0  0
  -18.8619   -7.8346   23.7682 C   0  0  0  0  0  0  0  0  0  0  0  0
  -23.8143  -15.9013   29.2717 C   0  0  0  0  0  0  0  0  0  0  0  0
  -30.1149  -14.1876   27.0533 C   0  0  0  0  0  0  0  0  0  0  0  0
  -30.1077  -11.7740   26.9474 C   0  0  0  0  0  0  0  0  0  0  0  0
  -20.0672   -5.9872   24.7539 C   0  0  0  0  0  0  0  0  0  0  0  0
  -23.8768  -10.4559   20.9934 C   0  0  0  0  0  0  0  0  0  0  0  0
  -24.1364  -12.9859   20.7953 C   0  0  0  0  0  0  0  0  0  0  0  0
  -19.1231  -23.6553   28.2840 C   0  0  0  0  0  0  0  0  0  0  0  0
  -23.2232  -17.5997   27.6513 C   0  0  0  0  0  0  0  0  0  0  0  0
  -20.1650  -22.7776   28.6396 C   0  0  0  0  0  0  0  0  0  0  0  0
  -22.8380  -16.5578   28.5069 C   0  0  0  0  0  0  0  0  0  0  0  0
  -29.8084  -12.9542   27.6280 C   0  0  0  0  0  0  0  0  0  0  0  0
  -30.7207  -14.2409   25.7980 C   0  0  0  0  0  0  0  0  0  0  0  0
  -31.0200  -13.0607   25.1174 C   0  0  0  0  0  0  0  0  0  0  0  0
  -22.4236   -8.1109   21.4080 C   0  0  0  0  0  0  0  0  0  0  0  0
  -25.1567  -16.2675   29.1773 C   0  0  0  0  0  0  0  0  0  0  0  0
  -20.8187   -6.9435   22.6664 C   0  0  0  0  0  0  0  0  0  0  0  0
  -19.0131   -6.9000   24.7926 C   0  0  0  0  0  0  0  0  0  0  0  0
  -20.9699   -6.0090   23.6907 C   0  0  0  0  0  0  0  0  0  0  0  0
  -30.7136  -11.8273   25.6921 C   0  0  0  0  0  0  0  0  0  0  0  0
  -24.6279  -11.6668   20.7799 C   0  0  0  0  0  0  0  0  0  0  0  0
  -25.2381  -13.7658   20.5409 C   0  0  0  0  0  0  0  0  0  0  0  0
  -22.8033  -13.4636   21.0197 C   0  0  0  0  0  0  0  0  0  0  0  0
  -20.5727  -19.1062   28.5506 C   0  0  0  0  0  0  0  0  0  0  0  0
  -19.1429  -16.3769   27.5364 C   0  0  0  0  0  0  0  0  0  0  0  0
  -19.4055  -13.0362   26.8900 C   0  0  0  0  0  0  0  0  0  0  0  0
  -31.1087  -12.9222   21.3626 C   0  0  0  0  0  0  0  0  0  0  0  0
  -17.6758  -23.3092   28.5292 C   0  0  0  0  0  0  0  0  0  0  0  0
  -22.2018  -18.3046   26.8015 C   0  0  0  0  0  0  0  0  0  0  0  0
  -21.4004  -16.1273   28.6350 C   0  0  0  0  0  0  0  0  0  0  0  0
  -17.4369  -21.8198   28.7636 C   0  0  0  0  0  0  0  0  0  0  0  0
  -29.4610  -13.6623   18.2944 C   0  0  0  0  0  0  0  0  0  0  0  0
  -18.4568  -21.2648   29.7529 C   0  0  0  0  0  0  0  0  0  0  0  0
  -27.9912  -13.3538   18.5848 C   0  0  0  0  0  0  0  0  0  0  0  0
  -30.3939  -12.6827   19.0029 C   0  0  0  0  0  0  0  0  0  0  0  0
  -28.7066  -12.2531   20.7471 C   0  0  0  0  0  0  0  0  0  0  0  0
  -19.8842  -21.4044   29.2103 C   0  0  1  0  0  0  0  0  0  0  0  0
  -20.7872  -18.2088   27.3647 C   0  0  1  0  0  0  0  0  0  0  0  0
  -27.7290  -13.2485   20.0992 C   0  0  2  0  0  0  0  0  0  0  0  0
  -31.0363  -15.5759   25.2061 C   0  0  0  0  0  0  0  0  0  0  0  0
  -18.0579  -11.0694   26.1072 C   0  0  0  0  0  0  0  0  0  0  0  0
  -17.7961  -16.2150   30.2696 C   0  0  0  0  0  0  0  0  0  0  0  0
  -17.2533  -13.8199   29.7827 C   0  0  0  0  0  0  0  0  0  0  0  0
  -16.3164  -15.6272   28.3410 C   0  0  0  0  0  0  0  0  0  0  0  0
  -21.1542  -12.6267   24.5378 C   0  0  0  0  0  0  0  0  0  0  0  0
  -31.6697  -13.1355   23.7707 C   0  0  0  0  0  0  0  0  0  0  0  0
  -29.1577  -12.8977   28.9787 C   0  0  0  0  0  0  0  0  0  0  0  0
  -27.1425  -13.4955   30.3279 C   0  0  0  0  0  0  0  0  0  0  0  0
  -25.8337  -14.2565   30.2513 C   0  0  0  0  0  0  0  0  0  1  0  0
  -18.7750  -15.0607   28.1778 C   0  0  1  0  0  0  0  0  0  0  0  0
  -18.9801  -12.2054   25.6929 C   0  0  2  0  0  0  0  0  0  0  0  0
  -17.5621  -15.1898   29.1420 C   0  0  0  0  0  0  0  0  0  0  0  0
  -25.9396  -11.6081   20.5348 N   0  0  0  0  0  0  0  0  0  0  0  0
  -26.2817  -12.9001   20.3939 N   0  0  0  0  0  0  0  0  0  0  0  0
  -20.4381  -16.8512   27.7880 N   0  0  0  0  0  0  0  0  0  0  0  0
  -30.0941  -12.6311   20.4359 N   0  0  0  0  0  0  0  0  0  0  0  0
  -25.4061  -15.1007   20.4307 N   0  0  0  0  0  0  0  0  0  0  0  0
  -21.7906  -12.5267   21.2667 N   0  0  0  0  0  0  0  0  0  0  0  0
  -20.1519  -20.3809   28.2228 N   0  0  0  0  0  0  0  0  0  0  0  0
  -18.5712  -14.1167   27.0843 N   0  0  0  0  0  0  0  0  0  0  0  0
  -30.7385  -12.8565   22.7003 N   0  0  0  0  0  0  0  0  0  0  0  0
  -20.1731  -11.6200   25.0183 N   0  3  0  0  0  0  0  0  0  0  0  0
  -27.8390  -13.5856   29.0198 N   0  3  0  0  0  0  0  0  0  0  0  0
  -22.5156  -14.6841   20.9855 O   0  0  0  0  0  0  0  0  0  0  0  0
  -20.7726  -18.6737   29.6796 O   0  0  0  0  0  0  0  0  0  0  0  0
  -18.3141  -16.9590   26.8323 O   0  0  0  0  0  0  0  0  0  0  0  0
  -20.3783  -12.7528   27.5857 O   0  0  0  0  0  0  0  0  0  0  0  0
  -32.2578  -13.2240   21.0230 O   0  0  0  0  0  0  0  0  0  0  0  0
  -21.7146   -6.9670   21.6107 O   0  0  0  0  0  0  0  0  0  0  0  0
  -26.0930  -15.6210   29.9238 O   0  0  0  0  0  0  0  0  0  1  0  0
  -18.1470   -6.8802   25.8142 F   0  0  0  0  0  0  0  0  0  0  0  0
  -21.9812   -5.1302   23.6596 F   0  0  0  0  0  0  0  0  0  0  0  0
  -31.0697  -10.3443   24.8826 Cl  0  0  0  0  0  0  0  0  0  0  0  0
  1  2  1  0  0  0  0
  1  5  2  0  0  0  0
  2  6  2  0  0  0  0
  3  8  2  0  0  0  0
  3 17  1  0  0  0  0
  4  9  1  0  0  0  0
  4 17  2  0  0  0  0
  5 19  1  0  0  0  0
  6 21  1  0  0  0  0
  7 10  2  0  0  0  0
  7 20  1  0  0  0  0
  8 26  1  0  0  0  0
  9 26  2  0  0  0  0
 10 27  1  0  0  0  0
 11 12  2  0  0  0  0
 11 28  1  0  0  0  0
 12 29  1  0  0  0  0
 13 22  1  0  0  0  0
 13 27  2  0  0  0  0
 14 23  1  0  0  0  0
 14 24  2  0  0  0  0
 15 23  2  0  0  0  0
 15 31  1  0  0  0  0
 16 29  2  0  0  0  0
 16 30  1  0  0  0  0
 17 32  1  0  0  0  0
 18 32  1  0  0  0  0
 18 33  2  0  0  0  0
 18 34  1  0  0  0  0
 19 21  2  0  0  0  0
 19 39  1  0  0  0  0
 20 22  2  0  0  0  0
 20 40  1  0  0  0  0
 21 48  1  0  0  0  0
 22 41  1  0  0  0  0
 23 58  1  0  0  0  0
 24 25  1  0  0  0  0
 24 51  1  0  0  0  0
 25 31  2  0  0  0  0
 25 57  1  0  0  0  0
 26 80  1  0  0  0  0
 27 81  1  0  0  0  0
 28 30  2  0  0  0  0
 28 80  1  0  0  0  0
 29 82  1  0  0  0  0
 30 83  1  0  0  0  0
 31 84  1  0  0  0  0
 32 64  2  0  0  0  0
 33 65  1  0  0  0  0
 33 68  1  0  0  0  0
 34 69  1  0  0  0  0
 34 75  2  0  0  0  0
 35 49  1  0  0  0  0
 35 70  1  0  0  0  0
 35 76  2  0  0  0  0
 36 61  1  0  0  0  0
 36 66  1  0  0  0  0
 36 77  2  0  0  0  0
 37 62  1  0  0  0  0
 37 71  1  0  0  0  0
 37 78  2  0  0  0  0
 38 67  1  0  0  0  0
 38 72  1  0  0  0  0
 38 79  2  0  0  0  0
 39 42  1  0  0  0  0
 40 49  1  0  0  0  0
 41 66  1  0  0  0  0
 42 44  1  0  0  0  0
 43 45  1  0  0  0  0
 43 46  1  0  0  0  0
 44 48  1  0  0  0  0
 45 50  1  0  0  0  0
 46 67  1  0  0  0  0
 47 50  1  0  0  0  0
 47 67  1  0  0  0  0
 48 70  1  0  0  0  0
 49 66  1  0  0  0  0
 50 65  1  0  0  0  0
 52 62  1  0  0  0  0
 53 63  1  0  0  0  0
 54 63  1  0  0  0  0
 55 63  1  0  0  0  0
 56 73  1  0  0  0  0
 57 72  1  0  0  0  0
 58 74  1  0  0  0  0
 59 60  1  0  0  0  0
 59 74  1  0  0  0  0
 60 81  1  0  0  0  0
 61 63  1  0  0  0  0
 61 71  1  0  0  0  0
 62 73  1  0  0  0  0
 64 65  1  0  0  0  0
M  CHG  2  73   1  74   1
M  ISO  4  38 100  60 101  72 100  81 101
M  END
> <Batch ID>
0036

> <Smiles>
CNC(C)C(=O)NC(C(=O)N1Cc2cc([101O:1][101CH2:1]CNCc3cc(C)c(C[100NH:0][100C:0](=O)N4CCCC(n5nc(-c6ccc(Oc7ccc(F)cc7F)cc6)c(C(N)=O)c5N)C4)c(Cl)c3)ccc2CC1C(=O)NC1CCCc2ccccc21)C(C)(C)C

> <Shape>
0.134

> <Color>
0.174

> <Negative vol penalty>
0.000

$$$$

  -OEChem-04042321543D

 88 97  0     1  0  0  0  0  0999 V2000
  -21.8930   -8.2113   24.7363 C   0  0  0  0  0  0  0  0  0  0  0  0
  -23.1843   -8.6759   24.9645 C   0  0  0  0  0  0  0  0  0  0  0  0
  -26.3074  -30.6779   21.8446 C   0  0  0  0  0  0  0  0  0  0  0  0
  -23.9785  -30.3925   21.2685 C   0  0  0  0  0  0  0  0  0  0  0  0
  -21.3389   -8.2948   23.4596 C   0  0  0  0  0  0  0  0  0  0  0  0
  -23.9227   -9.2232   23.9159 C   0  0  0  0  0  0  0  0  0  0  0  0
  -28.8744  -14.2274   22.5909 C   0  0  0  0  0  0  0  0  0  0  0  0
  -26.0056  -31.8909   22.4636 C   0  0  0  0  0  0  0  0  0  0  0  0
  -23.6767  -31.6054   21.8875 C   0  0  0  0  0  0  0  0  0  0  0  0
  -30.1166  -14.3772   21.9759 C   0  0  0  0  0  0  0  0  0  0  0  0
  -25.3835  -35.0782   21.5263 C   0  0  0  0  0  0  0  0  0  0  0  0
  -26.2204  -36.1634   21.2665 C   0  0  0  0  0  0  0  0  0  0  0  0
  -29.0275  -14.5427   19.8298 C   0  0  0  0  0  0  0  0  0  0  0  0
  -31.1755  -20.9426   20.2280 C   0  0  0  0  0  0  0  0  0  0  0  0
  -28.7816  -20.1353   21.4114 C   0  0  0  0  0  0  0  0  0  0  0  0
  -26.7423  -36.3244   23.6200 C   0  0  0  0  0  0  0  0  0  0  0  0
  -25.2938  -29.9287   21.2470 C   0  0  0  0  0  0  0  0  0  0  0  0
  -26.4799  -28.4690   19.5235 C   0  0  0  0  0  0  0  0  0  0  0  0
  -22.0672   -8.8523   22.3969 C   0  0  0  0  0  0  0  0  0  0  0  0
  -27.6981  -14.2232   21.8274 C   0  0  0  0  0  0  0  0  0  0  0  0
  -23.3783   -9.3131   22.6235 C   0  0  0  0  0  0  0  0  0  0  0  0
  -27.7714  -14.3952   20.4378 C   0  0  0  0  0  0  0  0  0  0  0  0
  -30.0368  -21.7398   20.1125 C   0  0  0  0  0  0  0  0  0  0  0  0
  -31.1172  -19.7416   20.9351 C   0  0  0  0  0  0  0  0  0  0  0  0
  -28.8399  -21.3362   20.7042 C   0  0  0  0  0  0  0  0  0  0  0  0
  -24.6903  -32.3546   22.4851 C   0  0  0  0  0  0  0  0  0  0  0  0
  -30.1936  -14.5319   20.5949 C   0  0  0  0  0  0  0  0  0  0  0  0
  -25.2260  -34.6161   22.8330 C   0  0  0  0  0  0  0  0  0  0  0  0
  -26.8998  -36.7865   22.3133 C   0  0  0  0  0  0  0  0  0  0  0  0
  -25.9054  -35.2392   23.8798 C   0  0  0  0  0  0  0  0  0  0  0  0
  -29.9203  -19.3380   21.5268 C   0  0  0  0  0  0  0  0  0  0  0  0
  -25.6050  -28.6759   20.6069 C   0  0  0  0  0  0  0  0  0  0  0  0
  -26.4276  -27.1159   19.2935 C   0  0  0  0  0  0  0  0  0  0  0  0
  -34.0899  -17.8287   19.7233 C   0  0  0  0  0  0  0  0  0  0  0  0
  -34.9017  -18.5582   18.9431 C   0  0  0  0  0  0  0  0  0  0  0  0
  -27.2692  -29.4154   18.7906 C   0  0  0  0  0  0  0  0  0  0  0  0
  -25.3834  -12.1133   21.2852 C   0  0  0  0  0  0  0  0  0  0  0  0
  -24.0235  -14.5968   19.7025 C   0  0  0  0  0  0  0  0  0  0  0  0
  -25.1159  -17.2105   17.4681 C   0  0  0  0  0  0  0  0  0  0  0  0
  -26.4129  -21.8599   21.1310 C   0  0  0  0  0  0  0  0  0  0  0  0
  -21.4436   -8.8780   21.0240 C   0  0  0  0  0  0  0  0  0  0  0  0
  -26.3641  -14.0873   22.5088 C   0  0  0  0  0  0  0  0  0  0  0  0
  -26.5369  -14.4180   19.5753 C   0  0  0  0  0  0  0  0  0  0  0  0
  -34.5651  -16.6456   20.5220 C   0  0  0  0  0  0  0  0  0  0  0  0
  -22.1539   -9.8142   20.0497 C   0  0  0  0  0  0  0  0  0  0  0  0
  -33.6762  -15.4362   20.2584 C   0  0  0  0  0  0  0  0  0  0  0  0
  -23.2970  -23.5827   21.1203 C   0  0  0  0  0  0  0  0  0  0  0  0
  -23.6640   -9.6104   20.1184 C   0  0  0  0  0  0  0  0  0  0  0  0
  -23.6917  -25.0443   20.8967 C   0  0  0  0  0  0  0  0  0  0  0  0
  -24.3073  -22.8510   22.0022 C   0  0  0  0  0  0  0  0  0  0  0  0
  -26.0977  -24.4047   21.3314 C   0  0  0  0  0  0  0  0  0  0  0  0
  -31.8309  -16.9769   19.4929 C   0  0  0  0  0  0  0  0  0  0  0  0
  -24.2016   -9.9360   21.5171 C   0  0  1  0  0  0  0  0  0  0  0  0
  -25.2662  -13.5824   21.5777 C   0  0  1  0  0  0  0  0  0  0  0  0
  -25.1442  -25.1655   20.3956 C   0  0  2  0  0  0  0  0  0  0  0  0
  -32.1959  -15.7950   20.3876 C   0  0  1  0  0  0  0  0  0  1  0  0
  -30.1276  -23.0203   19.3473 C   0  0  0  0  0  0  0  0  0  0  0  0
  -34.4519  -19.7325   18.1447 C   0  0  0  0  0  0  0  0  0  0  0  0
  -24.1667  -19.4938   17.0404 C   0  0  0  0  0  0  0  0  0  0  0  0
  -22.5313  -13.2312   17.4181 C   0  0  0  0  0  0  0  0  0  0  0  0
  -22.9103  -15.2842   16.0360 C   0  0  0  0  0  0  0  0  0  0  0  0
  -21.5646  -15.4245   18.1318 C   0  0  0  0  0  0  0  0  0  0  0  0
  -27.6977  -18.5245   18.0739 C   0  0  0  0  0  0  0  0  0  0  0  0
  -32.3635  -18.9123   21.0354 C   0  0  0  0  0  0  0  0  0  0  0  0
  -24.0692  -15.1151   18.2854 C   0  0  1  0  0  0  0  0  0  0  0  0
  -25.2224  -18.6913   17.7849 C   0  0  2  0  0  0  0  0  0  0  0  0
  -22.7908  -14.7498   17.4792 C   0  0  0  0  0  0  0  0  0  0  0  0
  -25.0384  -27.5448   21.0353 N   0  0  0  0  0  0  0  0  0  0  0  0
  -25.5583  -26.6142   20.2169 N   0  0  0  0  0  0  0  0  0  0  0  0
  -25.2564  -14.2751   20.2876 N   0  0  0  0  0  0  0  0  0  0  0  0
  -25.6604  -23.0061   21.4637 N   0  0  0  0  0  0  0  0  0  0  0  0
  -27.0409  -26.3183   18.3934 N   0  0  0  0  0  0  0  0  0  0  0  0
  -26.7037  -30.0261   17.6630 N   0  0  0  0  0  0  0  0  0  0  0  0
  -27.6722  -22.1318   20.5973 N   0  0  0  0  0  0  0  0  0  0  0  0
  -24.2965  -11.3683   21.7013 N   0  0  0  0  0  0  0  0  0  0  0  0
  -24.3249  -16.5481   18.3828 N   0  0  0  0  0  0  0  0  0  0  0  0
  -32.6926  -18.1866   19.7603 N   0  3  1  0  0  0  0  0  0  0  0  0
  -26.5654  -19.2086   17.3980 N   0  3  0  0  0  0  0  0  0  0  0  0
  -28.4471  -29.6984   19.1162 O   0  0  0  0  0  0  0  0  0  0  0  0
  -26.3851  -11.6873   20.7223 O   0  0  0  0  0  0  0  0  0  0  0  0
  -22.9346  -14.4884   20.2720 O   0  0  0  0  0  0  0  0  0  0  0  0
  -25.6753  -16.6938   16.5034 O   0  0  0  0  0  0  0  0  0  0  0  0
  -25.9620  -20.7214   21.2812 O   0  0  0  0  0  0  0  0  0  0  0  0
  -24.3954  -33.5381   23.0893 O   0  0  0  0  0  0  0  0  0  0  0  0
  -31.4048  -14.6777   19.9921 O   0  0  0  0  0  0  0  0  0  1  0  0
  -27.7046  -37.8277   22.0634 F   0  0  0  0  0  0  0  0  0  0  0  0
  -25.7590  -34.7991   25.1370 F   0  0  0  0  0  0  0  0  0  0  0  0
  -29.8104  -17.8584   22.4091 Cl  0  0  0  0  0  0  0  0  0  0  0  0
  1  2  1  0  0  0  0
  1  5  2  0  0  0  0
  2  6  2  0  0  0  0
  3  8  2  0  0  0  0
  3 17  1  0  0  0  0
  4  9  1  0  0  0  0
  4 17  2  0  0  0  0
  5 19  1  0  0  0  0
  6 21  1  0  0  0  0
  7 10  2  0  0  0  0
  7 20  1  0  0  0  0
  8 26  1  0  0  0  0
  9 26  2  0  0  0  0
 10 27  1  0  0  0  0
 11 12  2  0  0  0  0
 11 28  1  0  0  0  0
 12 29  1  0  0  0  0
 13 22  1  0  0  0  0
 13 27  2  0  0  0  0
 14 23  2  0  0  0  0
 14 24  1  0  0  0  0
 15 25  2  0  0  0  0
 15 31  1  0  0  0  0
 16 29  2  0  0  0  0
 16 30  1  0  0  0  0
 17 32  1  0  0  0  0
 18 32  1  0  0  0  0
 18 33  2  0  0  0  0
 18 36  1  0  0  0  0
 19 21  2  0  0  0  0
 19 41  1  0  0  0  0
 20 22  2  0  0  0  0
 20 42  1  0  0  0  0
 21 53  1  0  0  0  0
 22 43  1  0  0  0  0
 23 25  1  0  0  0  0
 23 57  1  0  0  0  0
 24 31  2  0  0  0  0
 24 64  1  0  0  0  0
 25 74  1  0  0  0  0
 26 84  1  0  0  0  0
 27 85  1  0  0  0  0
 28 30  2  0  0  0  0
 28 84  1  0  0  0  0
 29 86  1  0  0  0  0
 30 87  1  0  0  0  0
 31 88  1  0  0  0  0
 32 68  2  0  0  0  0
 33 69  1  0  0  0  0
 33 72  1  0  0  0  0
 34 35  2  0  0  0  0
 34 44  1  0  0  0  0
 34 77  1  0  0  0  0
 35 58  1  0  0  0  0
 36 73  1  0  0  0  0
 36 79  2  0  0  0  0
 37 54  1  0  0  0  0
 37 75  1  0  0  0  0
 37 80  2  0  0  0  0
 38 65  1  0  0  0  0
 38 70  1  0  0  0  0
 38 81  2  0  0  0  0
 39 66  1  0  0  0  0
 39 76  1  0  0  0  0
 39 82  2  0  0  0  0
 40 71  1  0  0  0  0
 40 74  1  0  0  0  0
 40 83  2  0  0  0  0
 41 45  1  0  0  0  0
 42 54  1  0  0  0  0
 43 70  1  0  0  0  0
 44 46  1  0  0  0  0
 45 48  1  0  0  0  0
 46 56  1  0  0  0  0
 47 49  1  0  0  0  0
 47 50  1  0  0  0  0
 48 53  1  0  0  0  0
 49 55  1  0  0  0  0
 50 71  1  0  0  0  0
 51 55  1  0  0  0  0
 51 71  1  0  0  0  0
 52 56  1  0  0  0  0
 52 77  1  0  0  0  0
 53 75  1  0  0  0  0
 54 70  1  0  0  0  0
 55 69  1  0  0  0  0
 56 85  1  0  0  0  0
 59 66  1  0  0  0  0
 60 67  1  0  0  0  0
 61 67  1  0  0  0  0
 62 67  1  0  0  0  0
 63 78  1  0  0  0  0
 64 77  1  0  0  0  0
 65 67  1  0  0  0  0
 65 76  1  0  0  0  0
 66 78  1  0  0  0  0
 68 69  1  0  0  0  0
M  CHG  2  77   1  78   1
M  ISO  4  40 100  56 101  74 100  85 101
M  END
> <Batch ID>
0036

> <Smiles>
CC=C1CC[101CH:1]([101O:1]c2ccc3c(c2)CN(C(=O)C(NC(=O)C(C)NC)C(C)(C)C)C(C(=O)NC2CCCc4ccccc42)C3)CN1Cc1cc(C)c([100NH:0][100C:0](=O)N2CCCC(n3nc(-c4ccc(Oc5ccc(F)cc5F)cc4)c(C(N)=O)c3N)C2)cc1Cl

> <Shape>
0.243

> <Color>
0.075

> <Negative vol penalty>
0.000

$$$$

  -OEChem-04042321543D

 88 97  0     1  0  0  0  0  0999 V2000
  -30.6472  -22.0325   15.3153 C   0  0  0  0  0  0  0  0  0  0  0  0
  -29.7380  -21.8795   16.3570 C   0  0  0  0  0  0  0  0  0  0  0  0
  -22.6800  -10.4519   20.7445 C   0  0  0  0  0  0  0  0  0  0  0  0
  -24.5475   -9.0035   21.2461 C   0  0  0  0  0  0  0  0  0  0  0  0
  -31.3924  -23.2060   15.2087 C   0  0  0  0  0  0  0  0  0  0  0  0
  -29.5743  -22.8995   17.2936 C   0  0  0  0  0  0  0  0  0  0  0  0
  -24.7036  -23.8309   18.3203 C   0  0  0  0  0  0  0  0  0  0  0  0
  -27.4214  -20.4597   21.4614 C   0  0  0  0  0  0  0  0  0  0  0  0
  -28.0765  -20.0247   20.3094 C   0  0  0  0  0  0  0  0  0  0  0  0
  -21.8827   -9.7321   21.6343 C   0  0  0  0  0  0  0  0  0  0  0  0
  -23.7502   -8.2837   22.1360 C   0  0  0  0  0  0  0  0  0  0  0  0
  -24.0539  -22.9467   19.1805 C   0  0  0  0  0  0  0  0  0  0  0  0
  -19.2557   -8.0524   23.5055 C   0  0  0  0  0  0  0  0  0  0  0  0
  -17.9690   -7.7071   23.0922 C   0  0  0  0  0  0  0  0  0  0  0  0
  -24.3518  -24.5050   20.9976 C   0  0  0  0  0  0  0  0  0  0  0  0
  -18.8974   -6.4621   21.2415 C   0  0  0  0  0  0  0  0  0  0  0  0
  -24.0124  -10.0876   20.5503 C   0  0  0  0  0  0  0  0  0  0  0  0
  -24.6213  -11.0102   18.2513 C   0  0  0  0  0  0  0  0  0  0  0  0
  -31.2308  -24.2449   16.1389 C   0  0  0  0  0  0  0  0  0  0  0  0
  -25.1928  -25.0561   18.7956 C   0  0  0  0  0  0  0  0  0  0  0  0
  -30.3190  -24.0875   17.2001 C   0  0  0  0  0  0  0  0  0  0  0  0
  -25.0052  -25.4041   20.1409 C   0  0  0  0  0  0  0  0  0  0  0  0
  -26.9623  -19.5310   22.3955 C   0  0  0  0  0  0  0  0  0  0  0  0
  -28.2725  -18.6610   20.0914 C   0  0  0  0  0  0  0  0  0  0  0  0
  -27.1583  -18.1673   22.1776 C   0  0  0  0  0  0  0  0  0  0  0  0
  -27.8135  -17.7323   21.0255 C   0  0  0  0  0  0  0  0  0  0  0  0
  -22.4178   -8.6480   22.3301 C   0  0  0  0  0  0  0  0  0  0  0  0
  -23.8804  -23.2825   20.5200 C   0  0  0  0  0  0  0  0  0  0  0  0
  -20.3633   -7.6026   22.7867 C   0  0  0  0  0  0  0  0  0  0  0  0
  -17.7899   -6.9120   21.9603 C   0  0  0  0  0  0  0  0  0  0  0  0
  -20.1842   -6.8075   21.6547 C   0  0  0  0  0  0  0  0  0  0  0  0
  -24.8364  -10.8304   19.6308 C   0  0  0  0  0  0  0  0  0  0  0  0
  -25.6768  -11.7856   17.8374 C   0  0  0  0  0  0  0  0  0  0  0  0
  -24.1543  -20.2810   24.7981 C   0  0  0  0  0  0  0  0  0  0  0  0
  -23.7641  -19.3592   25.6914 C   0  0  0  0  0  0  0  0  0  0  0  0
  -23.5622  -10.5202   17.4183 C   0  0  0  0  0  0  0  0  0  0  0  0
  -28.0701  -26.3889   19.0164 C   0  0  0  0  0  0  0  0  0  0  0  0
  -26.3690  -28.9741   19.9887 C   0  0  0  0  0  0  0  0  0  0  0  0
  -23.5364  -29.6085   22.1314 C   0  0  0  0  0  0  0  0  0  0  0  0
  -29.2285  -15.6824   20.6490 C   0  0  0  0  0  0  0  0  0  0  0  0
  -32.0930  -25.4757   16.0097 C   0  0  0  0  0  0  0  0  0  0  0  0
  -25.8678  -26.0104   17.8490 C   0  0  0  0  0  0  0  0  0  0  0  0
  -25.4938  -26.7161   20.6962 C   0  0  0  0  0  0  0  0  0  0  0  0
  -23.9429  -21.7572   24.9972 C   0  0  0  0  0  0  0  0  0  0  0  0
  -31.5885  -26.6614   16.8281 C   0  0  0  0  0  0  0  0  0  0  0  0
  -23.2760  -22.3676   23.7705 C   0  0  0  0  0  0  0  0  0  0  0  0
  -30.2463  -12.7598   18.8885 C   0  0  0  0  0  0  0  0  0  0  0  0
  -31.2249  -26.2183   18.2417 C   0  0  0  0  0  0  0  0  0  0  0  0
  -28.9537  -11.9525   18.7481 C   0  0  0  0  0  0  0  0  0  0  0  0
  -30.3172  -13.4884   20.2293 C   0  0  0  0  0  0  0  0  0  0  0  0
  -27.8599  -13.5186   20.4028 C   0  0  0  0  0  0  0  0  0  0  0  0
  -24.0950  -20.4297   22.3782 C   0  0  0  0  0  0  0  0  0  0  0  0
  -30.0952  -25.1815   18.2215 C   0  0  1  0  0  0  0  0  0  0  0  0
  -26.7806  -27.0077   18.5558 C   0  0  1  0  0  0  0  0  0  0  0  0
  -27.7134  -12.8191   19.0416 C   0  0  2  0  0  0  0  0  0  0  0  0
  -23.9876  -21.9488   22.4841 C   0  0  1  0  0  0  0  0  0  1  0  0
  -28.9775  -18.2261   18.8473 C   0  0  0  0  0  0  0  0  0  0  0  0
  -26.6618  -17.1763   23.1835 C   0  0  0  0  0  0  0  0  0  0  0  0
  -23.9636  -17.8938   25.5140 C   0  0  0  0  0  0  0  0  0  0  0  0
  -21.8487  -31.4654   22.0977 C   0  0  0  0  0  0  0  0  0  0  0  0
  -28.2278  -30.3099   22.0063 C   0  0  0  0  0  0  0  0  0  0  0  0
  -26.2009  -31.1387   23.2200 C   0  0  0  0  0  0  0  0  0  0  0  0
  -26.6299  -31.8638   20.8721 C   0  0  0  0  0  0  0  0  0  0  0  0
  -21.2738  -27.7059   21.9908 C   0  0  0  0  0  0  0  0  0  0  0  0
  -26.2607  -20.0265   23.6257 C   0  0  0  0  0  0  0  0  0  0  0  0
  -25.8774  -29.4918   21.3189 C   0  0  1  0  0  0  0  0  0  0  0  0
  -22.1439  -30.0286   21.6964 C   0  0  2  0  0  0  0  0  0  0  0  0
  -26.7377  -30.6732   21.8496 C   0  0  0  0  0  0  0  0  0  0  0  0
  -25.9417  -11.4421   20.0645 N   0  0  0  0  0  0  0  0  0  0  0  0
  -26.4307  -12.0139   18.9509 N   0  0  0  0  0  0  0  0  0  0  0  0
  -26.1532  -27.6127   19.7325 N   0  0  0  0  0  0  0  0  0  0  0  0
  -29.1109  -14.2924   20.4369 N   0  0  0  0  0  0  0  0  0  0  0  0
  -26.0243  -12.2875   16.6334 N   0  0  0  0  0  0  0  0  0  0  0  0
  -23.7235   -9.2750   16.7956 N   0  0  0  0  0  0  0  0  0  0  0  0
  -28.0123  -16.3474   20.8015 N   0  0  0  0  0  0  0  0  0  0  0  0
  -28.8196  -25.8282   17.9999 N   0  0  0  0  0  0  0  0  0  0  0  0
  -24.4668  -29.8152   21.1350 N   0  0  0  0  0  0  0  0  0  0  0  0
  -24.7723  -19.8172   23.5797 N   0  3  1  0  0  0  0  0  0  0  0  0
  -21.1180  -29.1460   22.3205 N   0  3  0  0  0  0  0  0  0  0  0  0
  -22.5109  -11.1748   17.2187 O   0  0  0  0  0  0  0  0  0  0  0  0
  -28.3640  -26.4193   20.2057 O   0  0  0  0  0  0  0  0  0  0  0  0
  -26.9178  -29.7507   19.2030 O   0  0  0  0  0  0  0  0  0  0  0  0
  -23.7754  -29.1469   23.2450 O   0  0  0  0  0  0  0  0  0  0  0  0
  -30.3260  -16.2458   20.6652 O   0  0  0  0  0  0  0  0  0  0  0  0
  -21.6402   -7.9456   23.1986 O   0  0  0  0  0  0  0  0  0  0  0  0
  -23.2472  -22.4210   21.3618 O   0  0  0  0  0  0  0  0  0  1  0  0
  -16.5542   -6.5792   21.5645 F   0  0  0  0  0  0  0  0  0  0  0  0
  -21.2444   -6.3714   20.9608 F   0  0  0  0  0  0  0  0  0  0  0  0
  1  2  1  0  0  0  0
  1  5  2  0  0  0  0
  2  6  2  0  0  0  0
  3 10  2  0  0  0  0
  3 17  1  0  0  0  0
  4 11  1  0  0  0  0
  4 17  2  0  0  0  0
  5 19  1  0  0  0  0
  6 21  1  0  0  0  0
  7 12  2  0  0  0  0
  7 20  1  0  0  0  0
  8  9  2  0  0  0  0
  8 23  1  0  0  0  0
  9 24  1  0  0  0  0
 10 27  1  0  0  0  0
 11 27  2  0  0  0  0
 12 28  1  0  0  0  0
 13 14  2  0  0  0  0
 13 29  1  0  0  0  0
 14 30  1  0  0  0  0
 15 22  1  0  0  0  0
 15 28  2  0  0  0  0
 16 30  2  0  0  0  0
 16 31  1  0  0  0  0
 17 32  1  0  0  0  0
 18 32  1  0  0  0  0
 18 33  2  0  0  0  0
 18 36  1  0  0  0  0
 19 21  2  0  0  0  0
 19 41  1  0  0  0  0
 20 22  2  0  0  0  0
 20 42  1  0  0  0  0
 21 53  1  0  0  0  0
 22 43  1  0  0  0  0
 23 25  2  0  0  0  0
 23 65  1  0  0  0  0
 24 26  2  0  0  0  0
 24 57  1  0  0  0  0
 25 26  1  0  0  0  0
 25 58  1  0  0  0  0
 26 75  1  0  0  0  0
 27 85  1  0  0  0  0
 28 86  1  0  0  0  0
 29 31  2  0  0  0  0
 29 85  1  0  0  0  0
 30 87  1  0  0  0  0
 31 88  1  0  0  0  0
 32 69  2  0  0  0  0
 33 70  1  0  0  0  0
 33 73  1  0  0  0  0
 34 35  2  0  0  0  0
 34 44  1  0  0  0  0
 34 78  1  0  0  0  0
 35 59  1  0  0  0  0
 36 74  1  0  0  0  0
 36 80  2  0  0  0  0
 37 54  1  0  0  0  0
 37 76  1  0  0  0  0
 37 81  2  0  0  0  0
 38 66  1  0  0  0  0
 38 71  1  0  0  0  0
 38 82  2  0  0  0  0
 39 67  1  0  0  0  0
 39 77  1  0  0  0  0
 39 83  2  0  0  0  0
 40 72  1  0  0  0  0
 40 75  1  0  0  0  0
 40 84  2  0  0  0  0
 41 45  1  0  0  0  0
 42 54  1  0  0  0  0
 43 71  1  0  0  0  0
 44 46  1  0  0  0  0
 45 48  1  0  0  0  0
 46 56  1  0  0  0  0
 47 49  1  0  0  0  0
 47 50  1  0  0  0  0
 48 53  1  0  0  0  0
 49 55  1  0  0  0  0
 50 72  1  0  0  0  0
 51 55  1  0  0  0  0
 51 72  1  0  0  0  0
 52 56  1  0  0  0  0
 52 78  1  0  0  0  0
 53 76  1  0  0  0  0
 54 71  1  0  0  0  0
 55 70  1  0  0  0  0
 56 86  1  0  0  0  0
 60 67  1  0  0  0  0
 61 68  1  0  0  0  0
 62 68  1  0  0  0  0
 63 68  1  0  0  0  0
 64 79  1  0  0  0  0
 65 78  1  0  0  0  0
 66 68  1  0  0  0  0
 66 77  1  0  0  0  0
 67 79  1  0  0  0  0
 69 70  1  0  0  0  0
M  CHG  2  78   1  79   1
M  ISO  4  40 100  56 101  75 100  86 101
M  END
> <Batch ID>
0036

> <Smiles>
CC=C1CC[101CH:1]([101O:1]c2ccc3c(c2)CN(C(=O)C(NC(=O)C(C)NC)C(C)(C)C)C(C(=O)NC2CCCc4ccccc42)C3)CN1Cc1ccc(C)c([100NH:0][100C:0](=O)N2CCCC(n3nc(-c4ccc(Oc5ccc(F)cc5F)cc4)c(C(N)=O)c3N)C2)c1C

> <Shape>
0.251

> <Color>
0.098

> <Negative vol penalty>
0.000

$$$$

  -OEChem-04042321543D

 88 97  0     1  0  0  0  0  0999 V2000
  -28.1194  -32.1486   26.0572 C   0  0  0  0  0  0  0  0  0  0  0  0
  -28.0838  -31.4619   24.8489 C   0  0  0  0  0  0  0  0  0  0  0  0
  -30.4249  -20.2668   20.1349 C   0  0  0  0  0  0  0  0  0  0  0  0
  -28.0654  -19.9201   20.5216 C   0  0  0  0  0  0  0  0  0  0  0  0
  -27.8603  -31.4718   27.2471 C   0  0  0  0  0  0  0  0  0  0  0  0
  -27.7773  -30.1008   24.8289 C   0  0  0  0  0  0  0  0  0  0  0  0
  -25.1504  -22.4000   23.0402 C   0  0  0  0  0  0  0  0  0  0  0  0
  -30.1530  -21.5288   19.6068 C   0  0  0  0  0  0  0  0  0  0  0  0
  -27.7934  -21.1822   19.9935 C   0  0  0  0  0  0  0  0  0  0  0  0
  -24.6021  -21.3540   23.7812 C   0  0  0  0  0  0  0  0  0  0  0  0
  -29.4326  -24.6174   20.7793 C   0  0  0  0  0  0  0  0  0  0  0  0
  -30.2368  -25.6797   21.1918 C   0  0  0  0  0  0  0  0  0  0  0  0
  -23.2859  -22.9399   25.0348 C   0  0  0  0  0  0  0  0  0  0  0  0
  -22.2809  -15.2881   23.4871 C   0  0  0  0  0  0  0  0  0  0  0  0
  -23.8646  -13.1787   24.3954 C   0  0  0  0  0  0  0  0  0  0  0  0
  -30.9177  -26.0527   18.9039 C   0  0  0  0  0  0  0  0  0  0  0  0
  -29.3811  -19.4624   20.5923 C   0  0  0  0  0  0  0  0  0  0  0  0
  -30.4628  -17.8587   22.2553 C   0  0  0  0  0  0  0  0  0  0  0  0
  -27.5628  -30.0990   27.2420 C   0  0  0  0  0  0  0  0  0  0  0  0
  -24.7780  -23.7270   23.2988 C   0  0  0  0  0  0  0  0  0  0  0  0
  -27.4893  -29.4051   26.0170 C   0  0  0  0  0  0  0  0  0  0  0  0
  -23.8289  -24.0008   24.2940 C   0  0  0  0  0  0  0  0  0  0  0  0
  -22.9188  -14.4507   22.5721 C   0  0  0  0  0  0  0  0  0  0  0  0
  -23.2267  -14.0162   25.3105 C   0  0  0  0  0  0  0  0  0  0  0  0
  -22.4349  -15.0709   24.8564 C   0  0  0  0  0  0  0  0  0  0  0  0
  -23.7107  -13.3960   23.0262 C   0  0  0  0  0  0  0  0  0  0  0  0
  -28.8372  -21.9865   19.5361 C   0  0  0  0  0  0  0  0  0  0  0  0
  -23.6719  -21.6241   24.7806 C   0  0  0  0  0  0  0  0  0  0  0  0
  -29.3710  -24.2725   19.4291 C   0  0  0  0  0  0  0  0  0  0  0  0
  -30.9793  -26.3974   20.2542 C   0  0  0  0  0  0  0  0  0  0  0  0
  -30.1135  -24.9902   18.4914 C   0  0  0  0  0  0  0  0  0  0  0  0
  -29.6613  -18.1584   21.1375 C   0  0  0  0  0  0  0  0  0  0  0  0
  -30.4091  -16.4902   22.3593 C   0  0  0  0  0  0  0  0  0  0  0  0
  -22.6072  -18.2655   25.4736 C   0  0  0  0  0  0  0  0  0  0  0  0
  -31.1908  -18.7386   23.1222 C   0  0  0  0  0  0  0  0  0  0  0  0
  -26.3104  -26.3395   24.2634 C   0  0  0  0  0  0  0  0  0  0  0  0
  -23.4508  -27.7578   23.6854 C   0  0  0  0  0  0  0  0  0  0  0  0
  -19.9694  -26.9834   24.2306 C   0  0  0  0  0  0  0  0  0  0  0  0
  -26.3922  -12.4207   20.5829 C   0  0  0  0  0  0  0  0  0  0  0  0
  -27.2828  -29.4177   28.5583 C   0  0  0  0  0  0  0  0  0  0  0  0
  -25.3586  -24.8418   22.4726 C   0  0  0  0  0  0  0  0  0  0  0  0
  -23.3805  -25.4063   24.5970 C   0  0  0  0  0  0  0  0  0  0  0  0
  -27.4061  -27.8995   28.4799 C   0  0  0  0  0  0  0  0  0  0  0  0
  -20.1701  -18.9618   24.0029 C   0  0  0  0  0  0  0  0  0  0  0  0
  -29.8394  -12.5525   19.7019 C   0  0  0  0  0  0  0  0  0  0  0  0
  -26.6172  -27.3747   27.2896 C   0  0  0  0  0  0  0  0  0  0  0  0
  -20.9650  -20.0465   24.6991 C   0  0  0  0  0  0  0  0  0  0  0  0
  -30.2570  -13.9772   20.0708 C   0  0  0  0  0  0  0  0  0  0  0  0
  -20.2469  -17.6764   24.8072 C   0  0  0  0  0  0  0  0  0  0  0  0
  -28.4145  -12.5059   19.1547 C   0  0  0  0  0  0  0  0  0  0  0  0
  -27.8144  -14.5508   20.3925 C   0  0  0  0  0  0  0  0  0  0  0  0
  -27.1883  -27.9179   25.9736 C   0  0  1  0  0  0  0  0  0  0  0  0
  -22.4151  -19.6142   24.7917 C   0  0  1  0  0  0  0  0  0  1  0  0
  -25.2918  -26.1981   23.1679 C   0  0  1  0  0  0  0  0  0  0  0  0
  -29.2242  -14.6410   21.0013 C   0  0  2  0  0  0  0  0  0  0  0  0
  -22.7388  -14.7023   21.1110 C   0  0  0  0  0  0  0  0  0  0  0  0
  -23.4068  -13.7646   26.7716 C   0  0  0  0  0  0  0  0  0  0  0  0
  -17.9186  -27.7296   22.9917 C   0  0  0  0  0  0  0  0  0  0  0  0
  -23.3222  -29.9502   25.8036 C   0  0  0  0  0  0  0  0  0  0  0  0
  -20.8308  -29.7029   25.8083 C   0  0  0  0  0  0  0  0  0  0  0  0
  -22.0068  -30.4244   23.7301 C   0  0  0  0  0  0  0  0  0  0  0  0
  -19.1060  -24.1945   23.7458 C   0  0  0  0  0  0  0  0  0  0  0  0
  -21.7392  -15.9858   25.8224 C   0  0  0  0  0  0  0  0  0  0  0  0
  -24.4028  -12.4860   22.0652 C   0  0  0  0  0  0  0  0  0  0  0  0
  -22.2059  -28.0235   24.4969 C   0  0  1  0  0  0  0  0  0  0  0  0
  -18.9428  -26.6201   23.1730 C   0  0  2  0  0  0  0  0  0  0  0  0
  -22.1082  -29.5029   24.9651 C   0  0  0  0  0  0  0  0  0  0  0  0
  -29.1370  -17.0680   20.5716 N   0  0  0  0  0  0  0  0  0  0  0  0
  -29.6101  -16.0698   21.3370 N   0  0  0  0  0  0  0  0  0  0  0  0
  -21.5868  -17.3314   25.2854 N   0  0  0  0  0  0  0  0  0  0  0  0
  -23.9817  -26.4626   23.7662 N   0  0  0  0  0  0  0  0  0  0  0  0
  -27.4844  -13.1503   20.0851 N   0  0  0  0  0  0  0  0  0  0  0  0
  -30.9679  -15.6174   23.2244 N   0  0  0  0  0  0  0  0  0  0  0  0
  -31.1375  -20.1168   22.8731 N   0  0  0  0  0  0  0  0  0  0  0  0
  -26.2937  -27.5702   24.8917 N   0  0  0  0  0  0  0  0  0  0  0  0
  -21.0826  -27.5805   23.6780 N   0  0  0  0  0  0  0  0  0  0  0  0
  -25.5635  -13.1044   21.4641 N   0  0  0  0  0  0  0  0  0  0  0  0
  -18.2222  -25.3735   23.5572 N   0  3  0  0  0  0  0  0  0  0  0  0
  -23.6498  -18.0317   26.0904 O   0  0  0  0  0  0  0  0  0  0  0  0
  -31.8816  -18.3139   24.0793 O   0  0  0  0  0  0  0  0  0  0  0  0
  -27.0552  -25.4010   24.5207 O   0  0  0  0  0  0  0  0  0  0  0  0
  -23.9304  -28.6639   22.9995 O   0  0  0  0  0  0  0  0  0  0  0  0
  -19.7990  -26.7632   25.4277 O   0  0  0  0  0  0  0  0  0  0  0  0
  -26.1749  -11.2453   20.2697 O   0  0  0  0  0  0  0  0  0  0  0  0
  -28.5715  -23.2180   19.0210 O   0  0  0  0  0  0  0  0  0  0  0  0
  -23.1357  -20.6050   25.5057 O   0  0  0  0  0  0  0  0  0  1  0  0
  -31.7503  -27.4186   20.6503 F   0  0  0  0  0  0  0  0  0  0  0  0
  -30.0575  -24.6644   17.1928 F   0  0  0  0  0  0  0  0  0  0  0  0
  1  2  1  0  0  0  0
  1  5  2  0  0  0  0
  2  6  2  0  0  0  0
  3  8  2  0  0  0  0
  3 17  1  0  0  0  0
  4  9  1  0  0  0  0
  4 17  2  0  0  0  0
  5 19  1  0  0  0  0
  6 21  1  0  0  0  0
  7 10  2  0  0  0  0
  7 20  1  0  0  0  0
  8 27  1  0  0  0  0
  9 27  2  0  0  0  0
 10 28  1  0  0  0  0
 11 12  2  0  0  0  0
 11 29  1  0  0  0  0
 12 30  1  0  0  0  0
 13 22  1  0  0  0  0
 13 28  2  0  0  0  0
 14 23  2  0  0  0  0
 14 25  1  0  0  0  0
 15 24  1  0  0  0  0
 15 26  2  0  0  0  0
 16 30  2  0  0  0  0
 16 31  1  0  0  0  0
 17 32  1  0  0  0  0
 18 32  1  0  0  0  0
 18 33  2  0  0  0  0
 18 35  1  0  0  0  0
 19 21  2  0  0  0  0
 19 40  1  0  0  0  0
 20 22  2  0  0  0  0
 20 41  1  0  0  0  0
 21 52  1  0  0  0  0
 22 42  1  0  0  0  0
 23 26  1  0  0  0  0
 23 56  1  0  0  0  0
 24 25  2  0  0  0  0
 24 57  1  0  0  0  0
 25 63  1  0  0  0  0
 26 64  1  0  0  0  0
 27 85  1  0  0  0  0
 28 86  1  0  0  0  0
 29 31  2  0  0  0  0
 29 85  1  0  0  0  0
 30 87  1  0  0  0  0
 31 88  1  0  0  0  0
 32 68  2  0  0  0  0
 33 69  1  0  0  0  0
 33 73  1  0  0  0  0
 34 53  1  0  0  0  0
 34 70  1  0  0  0  0
 34 79  2  0  0  0  0
 35 74  1  0  0  0  0
 35 80  2  0  0  0  0
 36 54  1  0  0  0  0
 36 75  1  0  0  0  0
 36 81  2  0  0  0  0
 37 65  1  0  0  0  0
 37 71  1  0  0  0  0
 37 82  2  0  0  0  0
 38 66  1  0  0  0  0
 38 76  1  0  0  0  0
 38 83  2  0  0  0  0
 39 72  1  0  0  0  0
 39 77  1  0  0  0  0
 39 84  2  0  0  0  0
 40 43  1  0  0  0  0
 41 54  1  0  0  0  0
 42 71  1  0  0  0  0
 43 46  1  0  0  0  0
 44 47  1  0  0  0  0
 44 49  1  0  0  0  0
 45 48  1  0  0  0  0
 45 50  1  0  0  0  0
 46 52  1  0  0  0  0
 47 53  1  0  0  0  0
 48 55  1  0  0  0  0
 49 70  1  0  0  0  0
 50 72  1  0  0  0  0
 51 55  1  0  0  0  0
 51 72  1  0  0  0  0
 52 75  1  0  0  0  0
 53 86  1  0  0  0  0
 54 71  1  0  0  0  0
 55 69  1  0  0  0  0
 58 66  1  0  0  0  0
 59 67  1  0  0  0  0
 60 67  1  0  0  0  0
 61 67  1  0  0  0  0
 62 78  1  0  0  0  0
 63 70  1  0  0  0  0
 64 77  1  0  0  0  0
 65 67  1  0  0  0  0
 65 76  1  0  0  0  0
 66 78  1  0  0  0  0
 68 69  1  0  0  0  0
M  CHG  1  78   1
M  ISO  4  39 100  53 101  77 100  86 101
M  END
> <Batch ID>
0036

> <Smiles>
CNC(C)C(=O)NC(C(=O)N1Cc2cc([101O:1][101CH:1]3CCCN(Cc4cc(C)c(C[100NH:0][100C:0](=O)N5CCCC(n6nc(-c7ccc(Oc8ccc(F)cc8F)cc7)c(C(N)=O)c6N)C5)cc4C)C3=O)ccc2CC1C(=O)NC1CCCc2ccccc21)C(C)(C)C

> <Shape>
0.225

> <Color>
0.051

> <Negative vol penalty>
0.000

$$$$

  -OEChem-04042321543D

 88 97  0     1  0  0  0  0  0999 V2000
  -26.4462  -35.0987   23.7373 C   0  0  0  0  0  0  0  0  0  0  0  0
  -26.9229  -33.8262   23.4390 C   0  0  0  0  0  0  0  0  0  0  0  0
  -28.7985  -18.4634   19.8100 C   0  0  0  0  0  0  0  0  0  0  0  0
  -27.9320  -16.3882   18.9271 C   0  0  0  0  0  0  0  0  0  0  0  0
  -25.1365  -35.2637   24.1862 C   0  0  0  0  0  0  0  0  0  0  0  0
  -26.0904  -32.7178   23.5905 C   0  0  0  0  0  0  0  0  0  0  0  0
  -26.3637  -29.5320   19.6636 C   0  0  0  0  0  0  0  0  0  0  0  0
  -24.9581  -26.3299   14.9296 C   0  0  0  0  0  0  0  0  0  0  0  0
  -26.2651  -26.4529   15.4007 C   0  0  0  0  0  0  0  0  0  0  0  0
  -30.0161  -17.8395   20.0815 C   0  0  0  0  0  0  0  0  0  0  0  0
  -29.1497  -15.7643   19.1985 C   0  0  0  0  0  0  0  0  0  0  0  0
  -27.4695  -28.6847   19.6068 C   0  0  0  0  0  0  0  0  0  0  0  0
  -32.2237  -15.5924   17.8051 C   0  0  0  0  0  0  0  0  0  0  0  0
  -32.7640  -14.7711   16.8157 C   0  0  0  0  0  0  0  0  0  0  0  0
  -26.1299  -26.8868   20.4970 C   0  0  0  0  0  0  0  0  0  0  0  0
  -32.6910  -12.8935   18.3344 C   0  0  0  0  0  0  0  0  0  0  0  0
  -27.7564  -17.7377   19.2328 C   0  0  0  0  0  0  0  0  0  0  0  0
  -25.6357  -19.0008   19.8771 C   0  0  0  0  0  0  0  0  0  0  0  0
  -24.2845  -34.1578   24.3339 C   0  0  0  0  0  0  0  0  0  0  0  0
  -25.1335  -29.0652   20.1485 C   0  0  0  0  0  0  0  0  0  0  0  0
  -24.7685  -32.8681   24.0430 C   0  0  0  0  0  0  0  0  0  0  0  0
  -25.0094  -27.7295   20.5565 C   0  0  0  0  0  0  0  0  0  0  0  0
  -24.6058  -25.2462   14.1249 C   0  0  0  0  0  0  0  0  0  0  0  0
  -27.2201  -25.4925   15.0671 C   0  0  0  0  0  0  0  0  0  0  0  0
  -25.5608  -24.2858   13.7913 C   0  0  0  0  0  0  0  0  0  0  0  0
  -30.1918  -16.4900   19.7757 C   0  0  0  0  0  0  0  0  0  0  0  0
  -27.3534  -27.3627   20.0263 C   0  0  0  0  0  0  0  0  0  0  0  0
  -31.9170  -15.0644   19.0593 C   0  0  0  0  0  0  0  0  0  0  0  0
  -32.9977  -13.4217   17.0803 C   0  0  0  0  0  0  0  0  0  0  0  0
  -32.1507  -13.7149   19.3239 C   0  0  0  0  0  0  0  0  0  0  0  0
  -26.8679  -24.4089   14.2624 C   0  0  0  0  0  0  0  0  0  0  0  0
  -26.4982  -18.3815   18.9527 C   0  0  0  0  0  0  0  0  0  0  0  0
  -24.5857  -19.4542   19.1166 C   0  0  0  0  0  0  0  0  0  0  0  0
  -30.3625  -24.5732   16.8681 C   0  0  0  0  0  0  0  0  0  0  0  0
  -30.9118  -23.4348   16.4186 C   0  0  0  0  0  0  0  0  0  0  0  0
  -25.7717  -19.1528   21.2963 C   0  0  0  0  0  0  0  0  0  0  0  0
  -23.2549  -29.8227   22.5982 C   0  0  0  0  0  0  0  0  0  0  0  0
  -21.2408  -27.6934   21.2082 C   0  0  0  0  0  0  0  0  0  0  0  0
  -21.5084  -24.4633   19.6233 C   0  0  0  0  0  0  0  0  0  0  0  0
  -24.0781  -20.9375   13.3379 C   0  0  0  0  0  0  0  0  0  0  0  0
  -22.8915  -34.3808   24.8674 C   0  0  0  0  0  0  0  0  0  0  0  0
  -23.9434  -29.9845   20.1783 C   0  0  0  0  0  0  0  0  0  0  0  0
  -23.7056  -27.1738   21.0663 C   0  0  0  0  0  0  0  0  0  0  0  0
  -31.1595  -25.6605   17.5362 C   0  0  0  0  0  0  0  0  0  0  0  0
  -21.9565  -33.1952   24.6432 C   0  0  0  0  0  0  0  0  0  0  0  0
  -30.5136  -26.0548   18.8590 C   0  0  0  0  0  0  0  0  0  0  0  0
  -22.1839  -18.4866   15.0934 C   0  0  0  0  0  0  0  0  0  0  0  0
  -22.6449  -31.8911   25.0337 C   0  0  0  0  0  0  0  0  0  0  0  0
  -22.9969  -18.2376   16.3650 C   0  0  0  0  0  0  0  0  0  0  0  0
  -23.0858  -18.7350   13.8864 C   0  0  0  0  0  0  0  0  0  0  0  0
  -24.8982  -19.5552   15.3412 C   0  0  0  0  0  0  0  0  0  0  0  0
  -28.3155  -25.1182   18.0491 C   0  0  0  0  0  0  0  0  0  0  0  0
  -23.8882  -31.6438   24.1708 C   0  0  1  0  0  0  0  0  0  0  0  0
  -22.8729  -29.5440   21.1720 C   0  0  1  0  0  0  0  0  0  0  0  0
  -24.0319  -19.3550   16.5965 C   0  0  2  0  0  0  0  0  0  0  0  0
  -29.0161  -26.3124   18.6920 C   0  0  1  0  0  0  0  0  0  1  0  0
  -23.1990  -25.1401   13.6343 C   0  0  0  0  0  0  0  0  0  0  0  0
  -20.0675  -23.3774   17.8791 C   0  0  0  0  0  0  0  0  0  0  0  0
  -19.8082  -26.4353   23.5904 C   0  0  0  0  0  0  0  0  0  0  0  0
  -19.5957  -24.3254   22.2593 C   0  0  0  0  0  0  0  0  0  0  0  0
  -18.5003  -26.4187   21.4588 C   0  0  0  0  0  0  0  0  0  0  0  0
  -23.8174  -24.0191   17.8260 C   0  0  0  0  0  0  0  0  0  0  0  0
  -25.1613  -23.1318   12.9248 C   0  0  0  0  0  0  0  0  0  0  0  0
  -28.6132  -25.6674   15.5958 C   0  0  0  0  0  0  0  0  0  0  0  0
  -21.0156  -26.2048   21.3199 C   0  0  1  0  0  0  0  0  0  0  0  0
  -21.3441  -24.1600   18.1449 C   0  0  2  0  0  0  0  0  0  0  0  0
  -19.7555  -25.8577   22.1619 C   0  0  0  0  0  0  0  0  0  0  0  0
  -26.0360  -18.4346   17.7007 N   0  0  0  0  0  0  0  0  0  0  0  0
  -24.8717  -19.0927   17.8330 N   0  0  0  0  0  0  0  0  0  0  0  0
  -22.5725  -28.1136   21.0821 N   0  0  0  0  0  0  0  0  0  0  0  0
  -24.0428  -19.8070   14.1708 N   0  0  0  0  0  0  0  0  0  0  0  0
  -23.4549  -20.1228   19.4273 N   0  0  0  0  0  0  0  0  0  0  0  0
  -25.2493  -18.1532   22.1283 N   0  0  0  0  0  0  0  0  0  0  0  0
  -23.5068  -31.1553   22.8630 N   0  0  0  0  0  0  0  0  0  0  0  0
  -20.9810  -25.6936   19.9539 N   0  0  0  0  0  0  0  0  0  0  0  0
  -25.0099  -21.9091   13.6817 N   0  0  0  0  0  0  0  0  0  0  0  0
  -28.9353  -24.7322   16.7283 N   0  3  1  0  0  0  0  0  0  0  0  0
  -22.4985  -23.3585   17.6492 N   0  3  0  0  0  0  0  0  0  0  0  0
  -26.3250  -20.1535   21.8118 O   0  0  0  0  0  0  0  0  0  0  0  0
  -23.3152  -28.8974   23.3994 O   0  0  0  0  0  0  0  0  0  0  0  0
  -20.2704  -28.4548   21.2248 O   0  0  0  0  0  0  0  0  0  0  0  0
  -22.0471  -23.6849   20.4071 O   0  0  0  0  0  0  0  0  0  0  0  0
  -23.3305  -21.0734   12.3634 O   0  0  0  0  0  0  0  0  0  0  0  0
  -31.3799  -15.8809   20.0403 O   0  0  0  0  0  0  0  0  0  0  0  0
  -28.4313  -26.5337   19.9726 O   0  0  0  0  0  0  0  0  0  1  0  0
  -33.5152  -12.6327   16.1296 F   0  0  0  0  0  0  0  0  0  0  0  0
  -31.8570  -13.2016   20.5264 F   0  0  0  0  0  0  0  0  0  0  0  0
  -28.0577  -23.2203   13.8468 Cl  0  0  0  0  0  0  0  0  0  0  0  0
  1  2  1  0  0  0  0
  1  5  2  0  0  0  0
  2  6  2  0  0  0  0
  3 10  2  0  0  0  0
  3 17  1  0  0  0  0
  4 11  1  0  0  0  0
  4 17  2  0  0  0  0
  5 19  1  0  0  0  0
  6 21  1  0  0  0  0
  7 12  2  0  0  0  0
  7 20  1  0  0  0  0
  8  9  2  0  0  0  0
  8 23  1  0  0  0  0
  9 24  1  0  0  0  0
 10 26  1  0  0  0  0
 11 26  2  0  0  0  0
 12 27  1  0  0  0  0
 13 14  2  0  0  0  0
 13 28  1  0  0  0  0
 14 29  1  0  0  0  0
 15 22  1  0  0  0  0
 15 27  2  0  0  0  0
 16 29  2  0  0  0  0
 16 30  1  0  0  0  0
 17 32  1  0  0  0  0
 18 32  1  0  0  0  0
 18 33  2  0  0  0  0
 18 36  1  0  0  0  0
 19 21  2  0  0  0  0
 19 41  1  0  0  0  0
 20 22  2  0  0  0  0
 20 42  1  0  0  0  0
 21 53  1  0  0  0  0
 22 43  1  0  0  0  0
 23 25  2  0  0  0  0
 23 57  1  0  0  0  0
 24 31  2  0  0  0  0
 24 64  1  0  0  0  0
 25 31  1  0  0  0  0
 25 63  1  0  0  0  0
 26 84  1  0  0  0  0
 27 85  1  0  0  0  0
 28 30  2  0  0  0  0
 28 84  1  0  0  0  0
 29 86  1  0  0  0  0
 30 87  1  0  0  0  0
 31 88  1  0  0  0  0
 32 68  2  0  0  0  0
 33 69  1  0  0  0  0
 33 72  1  0  0  0  0
 34 35  2  0  0  0  0
 34 44  1  0  0  0  0
 34 77  1  0  0  0  0
 36 73  1  0  0  0  0
 36 79  2  0  0  0  0
 37 54  1  0  0  0  0
 37 74  1  0  0  0  0
 37 80  2  0  0  0  0
 38 65  1  0  0  0  0
 38 70  1  0  0  0  0
 38 81  2  0  0  0  0
 39 66  1  0  0  0  0
 39 75  1  0  0  0  0
 39 82  2  0  0  0  0
 40 71  1  0  0  0  0
 40 76  1  0  0  0  0
 40 83  2  0  0  0  0
 41 45  1  0  0  0  0
 42 54  1  0  0  0  0
 43 70  1  0  0  0  0
 44 46  1  0  0  0  0
 45 48  1  0  0  0  0
 46 56  1  0  0  0  0
 47 49  1  0  0  0  0
 47 50  1  0  0  0  0
 48 53  1  0  0  0  0
 49 55  1  0  0  0  0
 50 71  1  0  0  0  0
 51 55  1  0  0  0  0
 51 71  1  0  0  0  0
 52 56  1  0  0  0  0
 52 77  1  0  0  0  0
 53 74  1  0  0  0  0
 54 70  1  0  0  0  0
 55 69  1  0  0  0  0
 56 85  1  0  0  0  0
 58 66  1  0  0  0  0
 59 67  1  0  0  0  0
 60 67  1  0  0  0  0
 61 67  1  0  0  0  0
 62 78  1  0  0  0  0
 63 76  1  0  0  0  0
 64 77  1  0  0  0  0
 65 67  1  0  0  0  0
 65 75  1  0  0  0  0
 66 78  1  0  0  0  0
 68 69  1  0  0  0  0
M  CHG  2  77   1  78   1
M  ISO  4  40 100  56 101  76 100  85 101
M  END
> <Batch ID>
0036

> <Smiles>
C=C1CC[101CH:1]([101O:1]c2ccc3c(c2)CN(C(=O)C(NC(=O)C(C)NC)C(C)(C)C)C(C(=O)NC2CCCc4ccccc42)C3)CN1Cc1ccc(C)c(C[100NH:0][100C:0](=O)N2CCCC(n3nc(-c4ccc(Oc5ccc(F)cc5F)cc4)c(C(N)=O)c3N)C2)c1Cl

> <Shape>
0.193

> <Color>
0.058

> <Negative vol penalty>
0.000

$$$$

  -OEChem-04042321543D

 88 97  0     1  0  0  0  0  0999 V2000
  -21.3563   -6.6180   23.9645 C   0  0  0  0  0  0  0  0  0  0  0  0
  -22.4380   -6.6260   23.0897 C   0  0  0  0  0  0  0  0  0  0  0  0
  -21.0768  -25.8379   23.3904 C   0  0  0  0  0  0  0  0  0  0  0  0
  -21.5287  -25.9174   21.0184 C   0  0  0  0  0  0  0  0  0  0  0  0
  -20.3591   -7.5853   23.8470 C   0  0  0  0  0  0  0  0  0  0  0  0
  -22.5227   -7.6008   22.0963 C   0  0  0  0  0  0  0  0  0  0  0  0
  -28.1704  -12.0587   21.7468 C   0  0  0  0  0  0  0  0  0  0  0  0
  -19.9259  -26.6018   23.1968 C   0  0  0  0  0  0  0  0  0  0  0  0
  -20.3778  -26.6812   20.8247 C   0  0  0  0  0  0  0  0  0  0  0  0
  -29.3169  -12.8096   21.4863 C   0  0  0  0  0  0  0  0  0  0  0  0
  -17.0617  -28.8354   23.3729 C   0  0  0  0  0  0  0  0  0  0  0  0
  -16.8269  -29.8916   24.2531 C   0  0  0  0  0  0  0  0  0  0  0  0
  -28.2000  -13.8920   19.6346 C   0  0  0  0  0  0  0  0  0  0  0  0
  -31.2527  -21.1013   17.6444 C   0  0  0  0  0  0  0  0  0  0  0  0
  -18.9122  -30.9123   23.5849 C   0  0  0  0  0  0  0  0  0  0  0  0
  -21.8783  -25.4957   22.3012 C   0  0  0  0  0  0  0  0  0  0  0  0
  -23.1467  -23.4106   23.0436 C   0  0  0  0  0  0  0  0  0  0  0  0
  -20.4365   -8.5783   22.8577 C   0  0  0  0  0  0  0  0  0  0  0  0
  -27.0279  -12.2330   20.9609 C   0  0  0  0  0  0  0  0  0  0  0  0
  -21.5250   -8.5816   21.9646 C   0  0  0  0  0  0  0  0  0  0  0  0
  -27.0446  -13.1517   19.8986 C   0  0  0  0  0  0  0  0  0  0  0  0
  -30.3597  -20.0310   17.5945 C   0  0  0  0  0  0  0  0  0  0  0  0
  -28.9907  -20.2699   17.4745 C   0  0  0  0  0  0  0  0  0  0  0  0
  -29.4078  -22.6496   17.4543 C   0  0  0  0  0  0  0  0  0  0  0  0
  -19.5764  -27.0234   21.9140 C   0  0  0  0  0  0  0  0  0  0  0  0
  -29.3317  -13.7238   20.4326 C   0  0  0  0  0  0  0  0  0  0  0  0
  -18.2219  -28.8176   22.5986 C   0  0  0  0  0  0  0  0  0  0  0  0
  -17.7521  -30.9300   24.3591 C   0  0  0  0  0  0  0  0  0  0  0  0
  -19.1471  -29.8560   22.7046 C   0  0  0  0  0  0  0  0  0  0  0  0
  -30.7768  -22.4106   17.5744 C   0  0  0  0  0  0  0  0  0  0  0  0
  -28.5147  -21.5792   17.4044 C   0  0  0  0  0  0  0  0  0  0  0  0
  -23.0675  -24.7071   22.5007 C   0  0  0  0  0  0  0  0  0  0  0  0
  -24.4865  -23.1090   23.0183 C   0  0  0  0  0  0  0  0  0  0  0  0
  -22.1026  -22.5554   23.5274 C   0  0  0  0  0  0  0  0  0  0  0  0
  -23.4704  -11.2436   20.2968 C   0  0  0  0  0  0  0  0  0  0  0  0
  -23.6344  -14.2839   19.9226 C   0  0  0  0  0  0  0  0  0  0  0  0
  -24.1440  -17.6556   20.0200 C   0  0  0  0  0  0  0  0  0  0  0  0
  -29.0401  -25.0508   19.6500 C   0  0  0  0  0  0  0  0  0  0  0  0
  -19.3105   -9.5747   22.7396 C   0  0  0  0  0  0  0  0  0  0  0  0
  -25.7909  -11.4015   21.1666 C   0  0  0  0  0  0  0  0  0  0  0  0
  -25.8039  -13.2809   19.0579 C   0  0  0  0  0  0  0  0  0  0  0  0
  -19.6652  -10.7978   21.8979 C   0  0  0  0  0  0  0  0  0  0  0  0
  -28.7951  -25.1812   23.1996 C   0  0  0  0  0  0  0  0  0  0  0  0
  -31.2766  -17.9046   21.4077 C   0  0  0  0  0  0  0  0  0  0  0  0
  -20.3507  -10.3739   20.6028 C   0  0  0  0  0  0  0  0  0  0  0  0
  -27.3066  -24.9575   23.4719 C   0  0  0  0  0  0  0  0  0  0  0  0
  -31.2508  -16.3825   21.3627 C   0  0  0  0  0  0  0  0  0  0  0  0
  -29.0195  -26.0072   21.9350 C   0  0  0  0  0  0  0  0  0  0  0  0
  -26.8651  -25.2606   20.9997 C   0  0  0  0  0  0  0  0  0  0  0  0
  -31.6292  -18.5014   20.0527 C   0  0  0  0  0  0  0  0  0  0  0  0
  -30.6816  -16.4811   18.9079 C   0  0  0  0  0  0  0  0  0  0  0  0
  -21.6649   -9.6375   20.8897 C   0  0  1  0  0  0  0  0  0  0  0  0
  -24.4902  -12.1744   20.8839 C   0  0  1  0  0  0  0  0  0  0  0  0
  -26.5899  -24.3851   22.2342 C   0  0  2  0  0  0  0  0  0  0  0  0
  -30.3285  -15.8736   20.2592 C   0  0  1  0  0  0  0  0  0  1  0  0
  -28.0505  -19.1055   17.4227 C   0  0  0  0  0  0  0  0  0  0  0  0
  -23.5730  -20.0989   19.9793 C   0  0  0  0  0  0  0  0  0  0  0  0
  -23.7372  -13.8849   16.9003 C   0  0  0  0  0  0  0  0  0  0  0  0
  -23.4542  -16.3583   16.6355 C   0  0  0  0  0  0  0  0  0  0  0  0
  -21.6657  -15.0107   17.7345 C   0  0  0  0  0  0  0  0  0  0  0  0
  -23.6443  -17.7062   22.9366 C   0  0  0  0  0  0  0  0  0  0  0  0
  -28.9020  -24.0585   17.3794 C   0  0  0  0  0  0  0  0  0  0  0  0
  -30.8996  -18.6333   17.6720 C   0  0  0  0  0  0  0  0  0  0  0  0
  -23.8336  -15.4317   18.9653 C   0  0  1  0  0  0  0  0  0  0  0  0
  -23.3687  -18.7727   20.6949 C   0  0  2  0  0  0  0  0  0  0  0  0
  -23.1942  -15.1609   17.5742 C   0  0  0  0  0  0  0  0  0  0  0  0
  -24.2619  -25.1956   22.1559 N   0  0  0  0  0  0  0  0  0  0  0  0
  -25.1043  -24.2008   22.4829 N   0  0  0  0  0  0  0  0  0  0  0  0
  -24.6111  -13.2807   19.9193 N   0  0  0  0  0  0  0  0  0  0  0  0
  -28.3149  -25.4099   20.7981 N   0  0  0  0  0  0  0  0  0  0  0  0
  -25.1846  -22.0192   23.4020 N   0  0  0  0  0  0  0  0  0  0  0  0
  -21.7453  -22.6368   24.8801 N   0  0  0  0  0  0  0  0  0  0  0  0
  -22.7067  -10.5798   21.2378 N   0  0  0  0  0  0  0  0  0  0  0  0
  -23.3186  -16.6190   19.6387 N   0  0  0  0  0  0  0  0  0  0  0  0
  -28.2967  -24.4852   18.6213 N   0  0  0  0  0  0  0  0  0  0  0  0
  -30.6674  -17.9852   19.0090 N   0  3  2  0  0  0  0  0  0  0  0  0
  -23.8109  -18.9289   22.1094 N   0  3  0  0  0  0  0  0  0  0  0  0
  -21.5155  -21.7314   22.7858 O   0  0  0  0  0  0  0  0  0  0  0  0
  -23.3808  -11.1358   19.0794 O   0  0  0  0  0  0  0  0  0  0  0  0
  -22.6379  -14.2718   20.6507 O   0  0  0  0  0  0  0  0  0  0  0  0
  -25.3597  -17.6999   19.8449 O   0  0  0  0  0  0  0  0  0  0  0  0
  -30.2606  -25.2166   19.5512 O   0  0  0  0  0  0  0  0  0  0  0  0
  -18.4533  -27.7687   21.7246 O   0  0  0  0  0  0  0  0  0  0  0  0
  -30.4528  -14.4568   20.1866 O   0  0  0  0  0  0  0  0  0  1  0  0
  -17.5256  -31.9450   25.2034 F   0  0  0  0  0  0  0  0  0  0  0  0
  -20.2629  -29.8450   21.9626 F   0  0  0  0  0  0  0  0  0  0  0  0
  -31.9180  -23.7053   17.6399 Cl  0  0  0  0  0  0  0  0  0  0  0  0
  -26.8129  -21.8733   17.2552 Cl  0  0  0  0  0  0  0  0  0  0  0  0
  1  2  1  0  0  0  0
  1  5  2  0  0  0  0
  2  6  2  0  0  0  0
  3  8  2  0  0  0  0
  3 16  1  0  0  0  0
  4  9  1  0  0  0  0
  4 16  2  0  0  0  0
  5 18  1  0  0  0  0
  6 20  1  0  0  0  0
  7 10  2  0  0  0  0
  7 19  1  0  0  0  0
  8 25  1  0  0  0  0
  9 25  2  0  0  0  0
 10 26  1  0  0  0  0
 11 12  2  0  0  0  0
 11 27  1  0  0  0  0
 12 28  1  0  0  0  0
 13 21  1  0  0  0  0
 13 26  2  0  0  0  0
 14 22  1  0  0  0  0
 14 30  2  0  0  0  0
 15 28  2  0  0  0  0
 15 29  1  0  0  0  0
 16 32  1  0  0  0  0
 17 32  1  0  0  0  0
 17 33  2  0  0  0  0
 17 34  1  0  0  0  0
 18 20  2  0  0  0  0
 18 39  1  0  0  0  0
 19 21  2  0  0  0  0
 19 40  1  0  0  0  0
 20 52  1  0  0  0  0
 21 41  1  0  0  0  0
 22 23  2  0  0  0  0
 22 63  1  0  0  0  0
 23 31  1  0  0  0  0
 23 56  1  0  0  0  0
 24 30  1  0  0  0  0
 24 31  2  0  0  0  0
 24 62  1  0  0  0  0
 25 83  1  0  0  0  0
 26 84  1  0  0  0  0
 27 29  2  0  0  0  0
 27 83  1  0  0  0  0
 28 85  1  0  0  0  0
 29 86  1  0  0  0  0
 30 87  1  0  0  0  0
 31 88  1  0  0  0  0
 32 67  2  0  0  0  0
 33 68  1  0  0  0  0
 33 71  1  0  0  0  0
 34 72  1  0  0  0  0
 34 78  2  0  0  0  0
 35 53  1  0  0  0  0
 35 73  1  0  0  0  0
 35 79  2  0  0  0  0
 36 64  1  0  0  0  0
 36 69  1  0  0  0  0
 36 80  2  0  0  0  0
 37 65  1  0  0  0  0
 37 74  1  0  0  0  0
 37 81  2  0  0  0  0
 38 70  1  0  0  0  0
 38 75  1  0  0  0  0
 38 82  2  0  0  0  0
 39 42  1  0  0  0  0
 40 53  1  0  0  0  0
 41 69  1  0  0  0  0
 42 45  1  0  0  0  0
 43 46  1  0  0  0  0
 43 48  1  0  0  0  0
 44 47  1  0  0  0  0
 44 50  1  0  0  0  0
 45 52  1  0  0  0  0
 46 54  1  0  0  0  0
 47 55  1  0  0  0  0
 48 70  1  0  0  0  0
 49 54  1  0  0  0  0
 49 70  1  0  0  0  0
 50 76  1  0  0  0  0
 51 55  1  0  0  0  0
 51 76  1  0  0  0  0
 52 73  1  0  0  0  0
 53 69  1  0  0  0  0
 54 68  1  0  0  0  0
 55 84  1  0  0  0  0
 57 65  1  0  0  0  0
 58 66  1  0  0  0  0
 59 66  1  0  0  0  0
 60 66  1  0  0  0  0
 61 77  1  0  0  0  0
 62 75  1  0  0  0  0
 63 76  1  0  0  0  0
 64 66  1  0  0  0  0
 64 74  1  0  0  0  0
 65 77  1  0  0  0  0
 67 68  1  0  0  0  0
M  CHG  2  76   1  77   1
M  ISO  4  38 100  55 101  75 100  84 101
M  END
> <Batch ID>
0036

> <Smiles>
CNC(C)C(=O)NC(C(=O)N1Cc2cc([101O:1][101CH:1]3CCCN(Cc4cc(Cl)c(C[100NH:0][100C:0](=O)N5CCCC(n6nc(-c7ccc(Oc8ccc(F)cc8F)cc7)c(C(N)=O)c6N)C5)c(Cl)c4C)C3)ccc2CC1C(=O)NC1CCCc2ccccc21)C(C)(C)C

> <Shape>
0.238

> <Color>
0.063

> <Negative vol penalty>
0.000

$$$$

  -OEChem-04042321543D

 88 97  0     1  0  0  0  0  0999 V2000
  -32.2736  -26.0910   14.9333 C   0  0  0  0  0  0  0  0  0  0  0  0
  -30.9288  -26.3700   14.7121 C   0  0  0  0  0  0  0  0  0  0  0  0
  -23.1296  -14.4959   20.8355 C   0  0  0  0  0  0  0  0  0  0  0  0
  -24.9412  -14.9689   19.3086 C   0  0  0  0  0  0  0  0  0  0  0  0
  -32.6775  -25.5261   16.1423 C   0  0  0  0  0  0  0  0  0  0  0  0
  -29.9868  -26.0832   15.6995 C   0  0  0  0  0  0  0  0  0  0  0  0
  -23.7881  -28.4855   18.3680 C   0  0  0  0  0  0  0  0  0  0  0  0
  -23.7100  -13.2654   21.1430 C   0  0  0  0  0  0  0  0  0  0  0  0
  -25.5216  -13.7384   19.6161 C   0  0  0  0  0  0  0  0  0  0  0  0
  -22.5043  -28.0393   18.6788 C   0  0  0  0  0  0  0  0  0  0  0  0
  -23.9282  -10.1960   19.7446 C   0  0  0  0  0  0  0  0  0  0  0  0
  -23.0933   -9.0796   19.7893 C   0  0  0  0  0  0  0  0  0  0  0  0
  -23.3278  -27.1373   20.7590 C   0  0  0  0  0  0  0  0  0  0  0  0
  -22.5424  -24.1570   23.6722 C   0  0  0  0  0  0  0  0  0  0  0  0
  -22.1796  -22.0686   24.8314 C   0  0  0  0  0  0  0  0  0  0  0  0
  -23.6912   -8.7251   22.1032 C   0  0  0  0  0  0  0  0  0  0  0  0
  -23.7452  -15.3477   19.9183 C   0  0  0  0  0  0  0  0  0  0  0  0
  -21.8718  -16.8424   19.0444 C   0  0  0  0  0  0  0  0  0  0  0  0
  -31.7413  -25.2412   17.1487 C   0  0  0  0  0  0  0  0  0  0  0  0
  -24.8553  -28.2509   19.2469 C   0  0  0  0  0  0  0  0  0  0  0  0
  -30.3784  -25.5127   16.9226 C   0  0  0  0  0  0  0  0  0  0  0  0
  -24.6237  -27.5837   20.4582 C   0  0  0  0  0  0  0  0  0  0  0  0
  -21.6641  -24.7955   24.5477 C   0  0  0  0  0  0  0  0  0  0  0  0
  -21.0435  -24.0706   25.5650 C   0  0  0  0  0  0  0  0  0  0  0  0
  -22.8001  -22.7935   23.8140 C   0  0  0  0  0  0  0  0  0  0  0  0
  -24.9060  -12.8866   20.5333 C   0  0  0  0  0  0  0  0  0  0  0  0
  -22.2745  -27.3626   19.8731 C   0  0  0  0  0  0  0  0  0  0  0  0
  -24.6448  -10.5770   20.8791 C   0  0  0  0  0  0  0  0  0  0  0  0
  -22.9747   -8.3442   20.9686 C   0  0  0  0  0  0  0  0  0  0  0  0
  -24.5263   -9.8415   22.0584 C   0  0  0  0  0  0  0  0  0  0  0  0
  -21.3013  -22.7071   25.7069 C   0  0  0  0  0  0  0  0  0  0  0  0
  -23.1459  -16.6187   19.5998 C   0  0  0  0  0  0  0  0  0  0  0  0
  -21.7788  -18.2086   18.9378 C   0  0  0  0  0  0  0  0  0  0  0  0
  -20.0994  -26.3159   22.3367 C   0  0  0  0  0  0  0  0  0  0  0  0
  -19.8210  -25.0606   21.9390 C   0  0  0  0  0  0  0  0  0  0  0  0
  -20.8626  -15.8996   18.6593 C   0  0  0  0  0  0  0  0  0  0  0  0
  -27.5955  -26.6495   19.0710 C   0  0  0  0  0  0  0  0  0  0  0  0
  -28.1079  -27.9768   21.9861 C   0  0  0  0  0  0  0  0  0  0  0  0
  -26.1767  -28.6112   24.9670 C   0  0  0  0  0  0  0  0  0  0  0  0
  -24.3902  -22.7184   21.8615 C   0  0  0  0  0  0  0  0  0  0  0  0
  -32.2194  -24.5870   18.4208 C   0  0  0  0  0  0  0  0  0  0  0  0
  -26.2291  -28.7620   18.9093 C   0  0  0  0  0  0  0  0  0  0  0  0
  -25.7315  -27.3244   21.4452 C   0  0  0  0  0  0  0  0  0  0  0  0
  -31.2069  -24.6597   19.5609 C   0  0  0  0  0  0  0  0  0  0  0  0
  -18.5537  -29.0520   22.0810 C   0  0  0  0  0  0  0  0  0  0  0  0
  -24.4907  -22.1125   18.3544 C   0  0  0  0  0  0  0  0  0  0  0  0
  -18.2837  -28.3265   23.4000 C   0  0  0  0  0  0  0  0  0  0  0  0
  -29.8169  -24.2731   19.0658 C   0  0  0  0  0  0  0  0  0  0  0  0
  -19.1656  -28.1990   20.9721 C   0  0  0  0  0  0  0  0  0  0  0  0
  -24.0354  -20.6571   18.2247 C   0  0  0  0  0  0  0  0  0  0  0  0
  -25.3464  -22.3301   19.6010 C   0  0  0  0  0  0  0  0  0  0  0  0
  -24.2873  -20.4121   20.7274 C   0  0  0  0  0  0  0  0  0  0  0  0
  -19.5614  -27.9322   24.1376 C   0  0  0  0  0  0  0  0  0  0  0  0
  -29.3299  -25.2389   17.9789 C   0  0  1  0  0  0  0  0  0  0  0  0
  -20.4290  -27.4356   21.3754 C   0  0  2  0  0  0  0  0  0  1  0  0
  -27.3406  -28.0161   19.6411 C   0  0  1  0  0  0  0  0  0  0  0  0
  -23.3685  -20.1576   19.5214 C   0  0  2  0  0  0  0  0  0  0  0  0
  -20.1025  -24.7708   26.4955 C   0  0  0  0  0  0  0  0  0  0  0  0
  -26.4440  -30.3651   26.7417 C   0  0  0  0  0  0  0  0  0  0  0  0
  -29.7151  -25.8366   23.4511 C   0  0  0  0  0  0  0  0  0  0  0  0
  -28.6892  -26.6307   25.5923 C   0  0  0  0  0  0  0  0  0  0  0  0
  -30.1179  -28.1723   24.2488 C   0  0  0  0  0  0  0  0  0  0  0  0
  -23.3976  -29.5634   24.6081 C   0  0  0  0  0  0  0  0  0  0  0  0
  -21.4041  -26.2627   24.3717 C   0  0  0  0  0  0  0  0  0  0  0  0
  -27.8082  -27.5767   23.4106 C   0  0  1  0  0  0  0  0  0  0  0  0
  -25.7060  -29.9622   25.4745 C   0  0  2  0  0  0  0  0  0  0  0  0
  -29.0662  -27.0455   24.1541 C   0  0  0  0  0  0  0  0  0  0  0  0
  -23.8143  -17.7519   19.8299 N   0  0  0  0  0  0  0  0  0  0  0  0
  -22.9571  -18.7009   19.4169 N   0  0  0  0  0  0  0  0  0  0  0  0
  -27.0583  -27.8382   21.0669 N   0  0  0  0  0  0  0  0  0  0  0  0
  -24.6488  -21.8369   20.7905 N   0  0  0  0  0  0  0  0  0  0  0  0
  -20.8050  -19.0248   18.4819 N   0  0  0  0  0  0  0  0  0  0  0  0
  -20.8760  -15.4049   17.3480 N   0  0  0  0  0  0  0  0  0  0  0  0
  -23.6922  -22.1455   22.9241 N   0  0  0  0  0  0  0  0  0  0  0  0
  -28.8723  -26.4774   18.5714 N   0  0  0  0  0  0  0  0  0  0  0  0
  -27.1887  -28.7384   24.0392 N   0  0  0  0  0  0  0  0  0  0  0  0
  -20.0557  -26.5550   23.7621 N   0  3  2  0  0  0  0  0  0  0  0  0
  -24.2464  -29.9237   25.7728 N   0  3  0  0  0  0  0  0  0  0  0  0
  -19.9654  -15.5201   19.4495 O   0  0  0  0  0  0  0  0  0  0  0  0
  -26.7004  -25.8126   19.0848 O   0  0  0  0  0  0  0  0  0  0  0  0
  -29.2296  -28.4036   21.7011 O   0  0  0  0  0  0  0  0  0  0  0  0
  -25.6972  -27.5490   25.3575 O   0  0  0  0  0  0  0  0  0  0  0  0
  -24.7367  -23.9019   21.8261 O   0  0  0  0  0  0  0  0  0  0  0  0
  -25.4728  -11.6860   20.8333 O   0  0  0  0  0  0  0  0  0  0  0  0
  -21.0225  -26.9255   20.1785 O   0  0  0  0  0  0  0  0  0  1  0  0
  -22.1716   -7.2730   21.0119 F   0  0  0  0  0  0  0  0  0  0  0  0
  -25.2112  -10.2033   23.1519 F   0  0  0  0  0  0  0  0  0  0  0  0
  -20.5555  -21.7748   26.9544 Cl  0  0  0  0  0  0  0  0  0  0  0  0
  1  2  1  0  0  0  0
  1  5  2  0  0  0  0
  2  6  2  0  0  0  0
  3  8  2  0  0  0  0
  3 17  1  0  0  0  0
  4  9  1  0  0  0  0
  4 17  2  0  0  0  0
  5 19  1  0  0  0  0
  6 21  1  0  0  0  0
  7 10  2  0  0  0  0
  7 20  1  0  0  0  0
  8 26  1  0  0  0  0
  9 26  2  0  0  0  0
 10 27  1  0  0  0  0
 11 12  2  0  0  0  0
 11 28  1  0  0  0  0
 12 29  1  0  0  0  0
 13 22  1  0  0  0  0
 13 27  2  0  0  0  0
 14 23  1  0  0  0  0
 14 25  2  0  0  0  0
 15 25  1  0  0  0  0
 15 31  2  0  0  0  0
 16 29  2  0  0  0  0
 16 30  1  0  0  0  0
 17 32  1  0  0  0  0
 18 32  1  0  0  0  0
 18 33  2  0  0  0  0
 18 36  1  0  0  0  0
 19 21  2  0  0  0  0
 19 41  1  0  0  0  0
 20 22  2  0  0  0  0
 20 42  1  0  0  0  0
 21 54  1  0  0  0  0
 22 43  1  0  0  0  0
 23 24  2  0  0  0  0
 23 64  1  0  0  0  0
 24 31  1  0  0  0  0
 24 58  1  0  0  0  0
 25 74  1  0  0  0  0
 26 84  1  0  0  0  0
 27 85  1  0  0  0  0
 28 30  2  0  0  0  0
 28 84  1  0  0  0  0
 29 86  1  0  0  0  0
 30 87  1  0  0  0  0
 31 88  1  0  0  0  0
 32 68  2  0  0  0  0
 33 69  1  0  0  0  0
 33 72  1  0  0  0  0
 34 35  2  0  0  0  0
 34 55  1  0  0  0  0
 34 77  1  0  0  0  0
 36 73  1  0  0  0  0
 36 79  2  0  0  0  0
 37 56  1  0  0  0  0
 37 75  1  0  0  0  0
 37 80  2  0  0  0  0
 38 65  1  0  0  0  0
 38 70  1  0  0  0  0
 38 81  2  0  0  0  0
 39 66  1  0  0  0  0
 39 76  1  0  0  0  0
 39 82  2  0  0  0  0
 40 71  1  0  0  0  0
 40 74  1  0  0  0  0
 40 83  2  0  0  0  0
 41 44  1  0  0  0  0
 42 56  1  0  0  0  0
 43 70  1  0  0  0  0
 44 48  1  0  0  0  0
 45 47  1  0  0  0  0
 45 49  1  0  0  0  0
 46 50  1  0  0  0  0
 46 51  1  0  0  0  0
 47 53  1  0  0  0  0
 48 54  1  0  0  0  0
 49 55  1  0  0  0  0
 50 57  1  0  0  0  0
 51 71  1  0  0  0  0
 52 57  1  0  0  0  0
 52 71  1  0  0  0  0
 53 77  1  0  0  0  0
 54 75  1  0  0  0  0
 55 85  1  0  0  0  0
 56 70  1  0  0  0  0
 57 69  1  0  0  0  0
 59 66  1  0  0  0  0
 60 67  1  0  0  0  0
 61 67  1  0  0  0  0
 62 67  1  0  0  0  0
 63 78  1  0  0  0  0
 64 77  1  0  0  0  0
 65 67  1  0  0  0  0
 65 76  1  0  0  0  0
 66 78  1  0  0  0  0
 68 69  1  0  0  0  0
M  CHG  2  77   1  78   1
M  ISO  4  40 100  55 101  74 100  85 101
M  END
> <Batch ID>
0036

> <Smiles>
C=C1N(Cc2cc([100NH:0][100C:0](=O)N3CCCC(n4nc(-c5ccc(Oc6ccc(F)cc6F)cc5)c(C(N)=O)c4N)C3)cc(Cl)c2C)CCCC[101CH:1]1[101O:1]c1ccc2c(c1)CN(C(=O)C(NC(=O)C(C)NC)C(C)(C)C)C(C(=O)NC1CCCc3ccccc31)C2

> <Shape>
0.194

> <Color>
0.062

> <Negative vol penalty>
0.000

$$$$

  -OEChem-04042321543D

 89 98  0     1  0  0  0  0  0999 V2000
  -29.4617  -18.3604   19.9770 C   0  0  0  0  0  0  0  0  0  0  0  0
  -29.0942  -19.2237   18.9511 C   0  0  0  0  0  0  0  0  0  0  0  0
  -24.5034  -14.1919   19.1323 C   0  0  0  0  0  0  0  0  0  0  0  0
  -26.0002  -14.8546   20.9093 C   0  0  0  0  0  0  0  0  0  0  0  0
  -29.2375  -18.7245   21.3030 C   0  0  0  0  0  0  0  0  0  0  0  0
  -28.5134  -20.4564   19.2511 C   0  0  0  0  0  0  0  0  0  0  0  0
  -25.2153  -27.5612   17.8845 C   0  0  0  0  0  0  0  0  0  0  0  0
  -24.6769  -12.8537   19.4852 C   0  0  0  0  0  0  0  0  0  0  0  0
  -26.1737  -13.5163   21.2622 C   0  0  0  0  0  0  0  0  0  0  0  0
  -24.4297  -28.5539   18.4684 C   0  0  0  0  0  0  0  0  0  0  0  0
  -23.5265  -10.7330   21.8543 C   0  0  0  0  0  0  0  0  0  0  0  0
  -22.3890   -9.9291   21.9269 C   0  0  0  0  0  0  0  0  0  0  0  0
  -25.9934  -28.7063   20.2989 C   0  0  0  0  0  0  0  0  0  0  0  0
  -18.5512  -25.6825   21.4997 C   0  0  0  0  0  0  0  0  0  0  0  0
  -19.0681  -27.4797   23.0293 C   0  0  0  0  0  0  0  0  0  0  0  0
  -23.3029   -8.4817   20.2219 C   0  0  0  0  0  0  0  0  0  0  0  0
  -25.1651  -15.1924   19.8443 C   0  0  0  0  0  0  0  0  0  0  0  0
  -25.2873  -17.1732   18.2415 C   0  0  0  0  0  0  0  0  0  0  0  0
  -28.6422  -19.9571   21.6182 C   0  0  0  0  0  0  0  0  0  0  0  0
  -26.3922  -27.1251   18.5099 C   0  0  0  0  0  0  0  0  0  0  0  0
  -28.3008  -20.8523   20.5840 C   0  0  0  0  0  0  0  0  0  0  0  0
  -26.7935  -27.7097   19.7196 C   0  0  0  0  0  0  0  0  0  0  0  0
  -19.9023  -25.5735   21.1711 C   0  0  0  0  0  0  0  0  0  0  0  0
  -20.4193  -27.3707   22.7007 C   0  0  0  0  0  0  0  0  0  0  0  0
  -20.8364  -26.4176   21.7716 C   0  0  0  0  0  0  0  0  0  0  0  0
  -25.5120  -12.5158   20.5502 C   0  0  0  0  0  0  0  0  0  0  0  0
  -24.8171  -29.1246   19.6772 C   0  0  0  0  0  0  0  0  0  0  0  0
  -24.5522  -10.4114   20.9654 C   0  0  0  0  0  0  0  0  0  0  0  0
  -22.2772   -8.8034   21.1108 C   0  0  0  0  0  0  0  0  0  0  0  0
  -24.4405   -9.2857   20.1493 C   0  0  0  0  0  0  0  0  0  0  0  0
  -18.1340  -26.6357   22.4288 C   0  0  0  0  0  0  0  0  0  0  0  0
  -24.9868  -16.5749   19.4799 C   0  0  0  0  0  0  0  0  0  0  0  0
  -24.9389  -18.4919   18.4037 C   0  0  0  0  0  0  0  0  0  0  0  0
  -21.9165  -30.6244   23.7666 C   0  0  0  0  0  0  0  0  0  0  0  0
  -21.0662  -31.3893   24.4679 C   0  0  0  0  0  0  0  0  0  0  0  0
  -25.8327  -16.5893   17.0510 C   0  0  0  0  0  0  0  0  0  0  0  0
  -27.4101  -24.3560   19.6929 C   0  0  0  0  0  0  0  0  0  0  0  0
  -30.1892  -25.9854   20.0724 C   0  0  0  0  0  0  0  0  0  0  0  0
  -31.1831  -29.2805   21.1551 C   0  0  0  0  0  0  0  0  0  0  0  0
  -21.3780  -22.3014   20.0634 C   0  0  0  0  0  0  0  0  0  0  0  0
  -28.4298  -20.3041   23.0707 C   0  0  0  0  0  0  0  0  0  0  0  0
  -27.2425  -26.0721   17.8537 C   0  0  0  0  0  0  0  0  0  0  0  0
  -28.0588  -27.2911   20.4213 C   0  0  0  0  0  0  0  0  0  0  0  0
  -23.4117  -30.7247   23.9010 C   0  0  0  0  0  0  0  0  0  0  0  0
  -27.4131  -21.4229   23.2721 C   0  0  0  0  0  0  0  0  0  0  0  0
  -24.0586  -30.8734   22.5293 C   0  0  0  0  0  0  0  0  0  0  0  0
  -23.6903  -21.0816   22.5661 C   0  0  0  0  0  0  0  0  0  0  0  0
  -27.7424  -22.5951   22.3599 C   0  0  0  0  0  0  0  0  0  0  0  0
  -24.2601  -19.8415   21.8750 C   0  0  0  0  0  0  0  0  0  0  0  0
  -22.2061  -21.2540   22.2566 C   0  0  0  0  0  0  0  0  0  0  0  0
  -22.4504  -20.0675   20.1104 C   0  0  0  0  0  0  0  0  0  0  0  0
  -22.0075  -29.8585   21.4673 C   0  0  0  0  0  0  0  0  0  0  0  0
  -27.6396  -22.1851   20.8853 C   0  0  1  0  0  0  0  0  0  0  0  0
  -28.1530  -25.3416   18.8360 C   0  0  1  0  0  0  0  0  0  0  0  0
  -23.9530  -19.8502   20.3658 C   0  0  2  0  0  0  0  0  0  0  0  0
  -23.5315  -29.8256   21.5490 C   0  0  1  0  0  0  0  0  0  1  0  0
  -22.2853  -26.3014   21.4186 C   0  0  0  0  0  0  0  0  0  0  0  0
  -19.5836  -31.3062   24.3501 C   0  0  0  0  0  0  0  0  0  0  0  0
  -33.2107  -30.6435   20.5823 C   0  0  0  0  0  0  0  0  0  0  0  0
  -31.3676  -24.7674   22.6097 C   0  0  0  0  0  0  0  0  0  0  0  0
  -32.4429  -26.9773   23.0877 C   0  0  0  0  0  0  0  0  0  0  0  0
  -33.0556  -25.7141   21.0257 C   0  0  0  0  0  0  0  0  0  0  0  0
  -29.5343  -31.5639   20.2461 C   0  0  0  0  0  0  0  0  0  0  0  0
  -20.3232  -24.5447   20.1730 C   0  0  0  0  0  0  0  0  0  0  0  0
  -21.4043  -28.2901   23.3608 C   0  0  0  0  0  0  0  0  0  0  0  0
  -30.7918  -26.8307   21.1685 C   0  0  1  0  0  0  0  0  0  0  0  0
  -31.7403  -30.3931   20.2857 C   0  0  2  0  0  0  0  0  0  0  0  0
  -31.8863  -26.0705   21.9694 C   0  0  0  0  0  0  0  0  0  0  0  0
  -24.4861  -17.4423   20.3636 N   0  0  0  0  0  0  0  0  0  0  0  0
  -24.4695  -18.5991   19.6798 N   0  0  0  0  0  0  0  0  0  0  0  0
  -28.8530  -26.2535   19.7430 N   0  0  0  0  0  0  0  0  0  0  0  0
  -21.9841  -21.2729   20.8039 N   0  0  0  0  0  0  0  0  0  0  0  0
  -24.9915  -19.5585   17.5779 N   0  0  0  0  0  0  0  0  0  0  0  0
  -27.2253  -16.5689   16.8942 N   0  0  0  0  0  0  0  0  0  0  0  0
  -28.1586  -23.2542   20.0608 N   0  0  0  0  0  0  0  0  0  0  0  0
  -31.2615  -28.0547   20.5285 N   0  0  0  0  0  0  0  0  0  0  0  0
  -20.9584  -23.4049   20.7962 N   0  0  0  0  0  0  0  0  0  0  0  0
  -21.3567  -29.6918   22.8187 N   0  3  1  0  0  0  0  0  0  0  0  0
  -30.9909  -31.6595   20.5217 N   0  3  0  0  0  0  0  0  0  0  0  0
  -25.1059  -16.1147   16.1454 O   0  0  0  0  0  0  0  0  0  0  0  0
  -26.2447  -24.5793   19.9989 O   0  0  0  0  0  0  0  0  0  0  0  0
  -30.8809  -25.1239   19.5237 O   0  0  0  0  0  0  0  0  0  0  0  0
  -30.7275  -29.4783   22.2793 O   0  0  0  0  0  0  0  0  0  0  0  0
  -21.2267  -22.2431   18.8384 O   0  0  0  0  0  0  0  0  0  0  0  0
  -25.6813  -11.2101   20.8950 O   0  0  0  0  0  0  0  0  0  0  0  0
  -24.0518  -30.0933   20.2497 O   0  0  0  0  0  0  0  0  0  1  0  0
  -21.1854   -8.0306   21.1818 F   0  0  0  0  0  0  0  0  0  0  0  0
  -25.4231   -8.9710   19.2942 F   0  0  0  0  0  0  0  0  0  0  0  0
  -16.4667  -26.7706   22.8343 Cl  0  0  0  0  0  0  0  0  0  0  0  0
  1  2  1  0  0  0  0
  1  5  2  0  0  0  0
  2  6  2  0  0  0  0
  3  8  2  0  0  0  0
  3 17  1  0  0  0  0
  4  9  1  0  0  0  0
  4 17  2  0  0  0  0
  5 19  1  0  0  0  0
  6 21  1  0  0  0  0
  7 10  2  0  0  0  0
  7 20  1  0  0  0  0
  8 26  1  0  0  0  0
  9 26  2  0  0  0  0
 10 27  1  0  0  0  0
 11 12  2  0  0  0  0
 11 28  1  0  0  0  0
 12 29  1  0  0  0  0
 13 22  1  0  0  0  0
 13 27  2  0  0  0  0
 14 23  2  0  0  0  0
 14 31  1  0  0  0  0
 15 24  1  0  0  0  0
 15 31  2  0  0  0  0
 16 29  2  0  0  0  0
 16 30  1  0  0  0  0
 17 32  1  0  0  0  0
 18 32  1  0  0  0  0
 18 33  2  0  0  0  0
 18 36  1  0  0  0  0
 19 21  2  0  0  0  0
 19 41  1  0  0  0  0
 20 22  2  0  0  0  0
 20 42  1  0  0  0  0
 21 53  1  0  0  0  0
 22 43  1  0  0  0  0
 23 25  1  0  0  0  0
 23 64  1  0  0  0  0
 24 25  2  0  0  0  0
 24 65  1  0  0  0  0
 25 57  1  0  0  0  0
 26 85  1  0  0  0  0
 27 86  1  0  0  0  0
 28 30  2  0  0  0  0
 28 85  1  0  0  0  0
 29 87  1  0  0  0  0
 30 88  1  0  0  0  0
 31 89  1  0  0  0  0
 32 69  2  0  0  0  0
 33 70  1  0  0  0  0
 33 73  1  0  0  0  0
 34 35  2  0  0  0  0
 34 44  1  0  0  0  0
 34 78  1  0  0  0  0
 35 58  1  0  0  0  0
 36 74  1  0  0  0  0
 36 80  2  0  0  0  0
 37 54  1  0  0  0  0
 37 75  1  0  0  0  0
 37 81  2  0  0  0  0
 38 66  1  0  0  0  0
 38 71  1  0  0  0  0
 38 82  2  0  0  0  0
 39 67  1  0  0  0  0
 39 76  1  0  0  0  0
 39 83  2  0  0  0  0
 40 72  1  0  0  0  0
 40 77  1  0  0  0  0
 40 84  2  0  0  0  0
 41 45  1  0  0  0  0
 42 54  1  0  0  0  0
 43 71  1  0  0  0  0
 44 46  1  0  0  0  0
 45 48  1  0  0  0  0
 46 56  1  0  0  0  0
 47 49  1  0  0  0  0
 47 50  1  0  0  0  0
 48 53  1  0  0  0  0
 49 55  1  0  0  0  0
 50 72  1  0  0  0  0
 51 55  1  0  0  0  0
 51 72  1  0  0  0  0
 52 56  1  0  0  0  0
 52 78  1  0  0  0  0
 53 75  1  0  0  0  0
 54 71  1  0  0  0  0
 55 70  1  0  0  0  0
 56 86  1  0  0  0  0
 59 67  1  0  0  0  0
 60 68  1  0  0  0  0
 61 68  1  0  0  0  0
 62 68  1  0  0  0  0
 63 79  1  0  0  0  0
 64 77  1  0  0  0  0
 65 78  1  0  0  0  0
 66 68  1  0  0  0  0
 66 76  1  0  0  0  0
 67 79  1  0  0  0  0
 69 70  1  0  0  0  0
M  CHG  2  78   1  79   1
M  ISO  4  40 100  56 101  77 100  86 101
M  END
> <Batch ID>
0036

> <Smiles>
CC=C1CC[101CH:1]([101O:1]c2ccc3c(c2)CN(C(=O)C(NC(=O)C(C)NC)C(C)(C)C)C(C(=O)NC2CCCc4ccccc42)C3)CN1Cc1cc(Cl)cc(C[100NH:0][100C:0](=O)N2CCCC(n3nc(-c4ccc(Oc5ccc(F)cc5F)cc4)c(C(N)=O)c3N)C2)c1C

> <Shape>
0.262

> <Color>
0.071

> <Negative vol penalty>
0.000

$$$$

  -OEChem-04042321543D

 89 98  0     1  0  0  0  0  0999 V2000
  -29.9467  -36.2498   23.6191 C   0  0  0  0  0  0  0  0  0  0  0  0
  -30.0864  -35.0741   22.8887 C   0  0  0  0  0  0  0  0  0  0  0  0
  -23.4307  -10.5024   22.8647 C   0  0  0  0  0  0  0  0  0  0  0  0
  -23.1643  -12.8160   22.2218 C   0  0  0  0  0  0  0  0  0  0  0  0
  -29.0330  -36.3115   24.6705 C   0  0  0  0  0  0  0  0  0  0  0  0
  -29.3133  -33.9590   23.2098 C   0  0  0  0  0  0  0  0  0  0  0  0
  -27.0619  -29.7968   19.3223 C   0  0  0  0  0  0  0  0  0  0  0  0
  -28.4307  -19.6462   17.6825 C   0  0  0  0  0  0  0  0  0  0  0  0
  -28.7521  -18.3783   18.1669 C   0  0  0  0  0  0  0  0  0  0  0  0
  -22.5297  -10.6898   23.9128 C   0  0  0  0  0  0  0  0  0  0  0  0
  -22.2631  -13.0034   23.2699 C   0  0  0  0  0  0  0  0  0  0  0  0
  -27.5004  -28.5266   18.9505 C   0  0  0  0  0  0  0  0  0  0  0  0
  -19.0110  -12.3400   23.9052 C   0  0  0  0  0  0  0  0  0  0  0  0
  -17.8364  -13.0403   23.6306 C   0  0  0  0  0  0  0  0  0  0  0  0
  -26.0148  -27.5441   20.5774 C   0  0  0  0  0  0  0  0  0  0  0  0
  -18.4404  -14.6999   25.2792 C   0  0  0  0  0  0  0  0  0  0  0  0
  -23.7481  -11.5655   22.0192 C   0  0  0  0  0  0  0  0  0  0  0  0
  -24.5569  -10.4737   19.8602 C   0  0  0  0  0  0  0  0  0  0  0  0
  -28.2413  -35.1995   24.9985 C   0  0  0  0  0  0  0  0  0  0  0  0
  -26.1029  -29.9509   20.3337 C   0  0  0  0  0  0  0  0  0  0  0  0
  -28.3891  -34.0054   24.2674 C   0  0  0  0  0  0  0  0  0  0  0  0
  -25.5639  -28.8172   20.9584 C   0  0  0  0  0  0  0  0  0  0  0  0
  -27.3063  -20.3140   18.1680 C   0  0  0  0  0  0  0  0  0  0  0  0
  -26.8247  -18.4457   19.6221 C   0  0  0  0  0  0  0  0  0  0  0  0
  -27.9491  -17.7780   19.1367 C   0  0  0  0  0  0  0  0  0  0  0  0
  -21.9459  -11.9403   24.1154 C   0  0  0  0  0  0  0  0  0  0  0  0
  -26.9790  -27.4002   19.5801 C   0  0  0  0  0  0  0  0  0  0  0  0
  -19.9003  -12.8196   24.8669 C   0  0  0  0  0  0  0  0  0  0  0  0
  -17.5511  -14.2203   24.3176 C   0  0  0  0  0  0  0  0  0  0  0  0
  -19.6150  -13.9996   25.5539 C   0  0  0  0  0  0  0  0  0  0  0  0
  -26.5033  -19.7137   19.1377 C   0  0  0  0  0  0  0  0  0  0  0  0
  -24.6792  -11.3726   20.9367 C   0  0  0  0  0  0  0  0  0  0  0  0
  -25.6928  -10.6745   19.1144 C   0  0  0  0  0  0  0  0  0  0  0  0
  -27.9303  -23.8862   17.2677 C   0  0  0  0  0  0  0  0  0  0  0  0
  -29.0074  -24.0539   16.4855 C   0  0  0  0  0  0  0  0  0  0  0  0
  -23.5102   -9.5407   19.5610 C   0  0  0  0  0  0  0  0  0  0  0  0
  -26.0575  -31.3502   23.1874 C   0  0  0  0  0  0  0  0  0  0  0  0
  -22.9120  -30.5634   23.0907 C   0  0  0  0  0  0  0  0  0  0  0  0
  -20.9379  -27.7260   22.0566 C   0  0  0  0  0  0  0  0  0  0  0  0
  -29.3851  -15.7023   19.2313 C   0  0  0  0  0  0  0  0  0  0  0  0
  -27.3012  -35.2991   26.1736 C   0  0  0  0  0  0  0  0  0  0  0  0
  -25.6207  -31.3266   20.7045 C   0  0  0  0  0  0  0  0  0  0  0  0
  -24.5174  -28.9277   22.0359 C   0  0  0  0  0  0  0  0  0  0  0  0
  -26.7722  -24.8502   17.2875 C   0  0  0  0  0  0  0  0  0  0  0  0
  -26.2519  -34.1909   26.2097 C   0  0  0  0  0  0  0  0  0  0  0  0
  -30.2389  -12.1666   19.8862 C   0  0  0  0  0  0  0  0  0  0  0  0
  -26.9002  -32.8334   25.9572 C   0  0  0  0  0  0  0  0  0  0  0  0
  -28.9126  -11.4049   19.8948 C   0  0  0  0  0  0  0  0  0  0  0  0
  -26.3519  -24.0405   19.6470 C   0  0  0  0  0  0  0  0  0  0  0  0
  -30.2197  -13.3788   18.9652 C   0  0  0  0  0  0  0  0  0  0  0  0
  -27.8635  -13.7177   19.7428 C   0  0  0  0  0  0  0  0  0  0  0  0
  -27.6106  -23.1781   19.5653 C   0  0  0  0  0  0  0  0  0  0  0  0
  -27.5507  -32.7823   24.5695 C   0  0  1  0  0  0  0  0  0  0  0  0
  -25.0171  -31.3910   22.1041 C   0  0  1  0  0  0  0  0  0  0  0  0
  -27.7359  -12.2358   19.3562 C   0  0  2  0  0  0  0  0  0  0  0  0
  -26.4223  -25.2539   18.7200 C   0  0  1  0  0  0  0  0  0  1  0  0
  -30.1624  -23.1141   16.4501 C   0  0  0  0  0  0  0  0  0  0  0  0
  -25.0731  -16.7090   20.0720 C   0  0  0  0  0  0  0  0  0  0  0  0
  -18.5667  -27.5968   21.2453 C   0  0  0  0  0  0  0  0  0  0  0  0
  -22.2485  -29.9932   26.0138 C   0  0  0  0  0  0  0  0  0  0  0  0
  -20.5317  -28.3477   25.2306 C   0  0  0  0  0  0  0  0  0  0  0  0
  -20.3086  -30.7596   24.6340 C   0  0  0  0  0  0  0  0  0  0  0  0
  -21.7431  -26.3465   19.5651 C   0  0  0  0  0  0  0  0  0  0  0  0
  -25.9732  -17.7867   20.6641 C   0  0  0  0  0  0  0  0  0  0  0  0
  -26.9998  -21.6755   17.6174 C   0  0  0  0  0  0  0  0  0  0  0  0
  -22.0960  -29.3659   23.5139 C   0  0  1  0  0  0  0  0  0  0  0  0
  -20.0321  -27.6436   20.8412 C   0  0  2  0  0  0  0  0  0  0  0  0
  -21.3234  -29.6140   24.8402 C   0  0  0  0  0  0  0  0  0  0  0  0
  -25.8040  -12.0909   20.8834 N   0  0  0  0  0  0  0  0  0  0  0  0
  -26.3989  -11.6435   19.7645 N   0  0  0  0  0  0  0  0  0  0  0  0
  -24.0829  -30.2946   22.3678 N   0  0  0  0  0  0  0  0  0  0  0  0
  -29.1458  -14.3095   19.3245 N   0  0  0  0  0  0  0  0  0  0  0  0
  -26.1464  -10.1150   17.9727 N   0  0  0  0  0  0  0  0  0  0  0  0
  -22.4391   -9.9705   18.7658 N   0  0  0  0  0  0  0  0  0  0  0  0
  -28.2972  -16.4904   19.6152 N   0  0  0  0  0  0  0  0  0  0  0  0
  -26.5448  -32.5924   23.5465 N   0  0  0  0  0  0  0  0  0  0  0  0
  -21.2427  -29.0316   22.3788 N   0  0  0  0  0  0  0  0  0  0  0  0
  -27.9125  -22.7455   18.1496 N   0  3  1  0  0  0  0  0  0  0  0  0
  -20.3400  -26.4204   20.0476 N   0  3  0  0  0  0  0  0  0  0  0  0
  -23.5162   -8.3655   19.9998 O   0  0  0  0  0  0  0  0  0  0  0  0
  -26.3922  -30.2717   23.6633 O   0  0  0  0  0  0  0  0  0  0  0  0
  -22.5211  -31.6959   23.3843 O   0  0  0  0  0  0  0  0  0  0  0  0
  -21.3324  -26.7318   22.6619 O   0  0  0  0  0  0  0  0  0  0  0  0
  -30.4714  -16.1490   18.8564 O   0  0  0  0  0  0  0  0  0  0  0  0
  -21.0664  -12.1236   25.1379 O   0  0  0  0  0  0  0  0  0  0  0  0
  -27.4058  -26.1593   19.2197 O   0  0  0  0  0  0  0  0  0  1  0  0
  -16.4238  -14.8935   24.0526 F   0  0  0  0  0  0  0  0  0  0  0  0
  -20.4661  -14.4659   26.4780 F   0  0  0  0  0  0  0  0  0  0  0  0
  -25.1071  -20.5462   19.7370 Cl  0  0  0  0  0  0  0  0  0  0  0  0
  1  2  1  0  0  0  0
  1  5  2  0  0  0  0
  2  6  2  0  0  0  0
  3 10  2  0  0  0  0
  3 17  1  0  0  0  0
  4 11  1  0  0  0  0
  4 17  2  0  0  0  0
  5 19  1  0  0  0  0
  6 21  1  0  0  0  0
  7 12  2  0  0  0  0
  7 20  1  0  0  0  0
  8  9  2  0  0  0  0
  8 23  1  0  0  0  0
  9 25  1  0  0  0  0
 10 26  1  0  0  0  0
 11 26  2  0  0  0  0
 12 27  1  0  0  0  0
 13 14  2  0  0  0  0
 13 28  1  0  0  0  0
 14 29  1  0  0  0  0
 15 22  1  0  0  0  0
 15 27  2  0  0  0  0
 16 29  2  0  0  0  0
 16 30  1  0  0  0  0
 17 32  1  0  0  0  0
 18 32  1  0  0  0  0
 18 33  2  0  0  0  0
 18 36  1  0  0  0  0
 19 21  2  0  0  0  0
 19 41  1  0  0  0  0
 20 22  2  0  0  0  0
 20 42  1  0  0  0  0
 21 53  1  0  0  0  0
 22 43  1  0  0  0  0
 23 31  2  0  0  0  0
 23 65  1  0  0  0  0
 24 25  2  0  0  0  0
 24 31  1  0  0  0  0
 24 64  1  0  0  0  0
 25 75  1  0  0  0  0
 26 85  1  0  0  0  0
 27 86  1  0  0  0  0
 28 30  2  0  0  0  0
 28 85  1  0  0  0  0
 29 87  1  0  0  0  0
 30 88  1  0  0  0  0
 31 89  1  0  0  0  0
 32 69  2  0  0  0  0
 33 70  1  0  0  0  0
 33 73  1  0  0  0  0
 34 35  2  0  0  0  0
 34 44  1  0  0  0  0
 34 78  1  0  0  0  0
 35 57  1  0  0  0  0
 36 74  1  0  0  0  0
 36 80  2  0  0  0  0
 37 54  1  0  0  0  0
 37 76  1  0  0  0  0
 37 81  2  0  0  0  0
 38 66  1  0  0  0  0
 38 71  1  0  0  0  0
 38 82  2  0  0  0  0
 39 67  1  0  0  0  0
 39 77  1  0  0  0  0
 39 83  2  0  0  0  0
 40 72  1  0  0  0  0
 40 75  1  0  0  0  0
 40 84  2  0  0  0  0
 41 45  1  0  0  0  0
 42 54  1  0  0  0  0
 43 71  1  0  0  0  0
 44 56  1  0  0  0  0
 45 47  1  0  0  0  0
 46 48  1  0  0  0  0
 46 50  1  0  0  0  0
 47 53  1  0  0  0  0
 48 55  1  0  0  0  0
 49 52  1  0  0  0  0
 49 56  1  0  0  0  0
 50 72  1  0  0  0  0
 51 55  1  0  0  0  0
 51 72  1  0  0  0  0
 52 78  1  0  0  0  0
 53 76  1  0  0  0  0
 54 71  1  0  0  0  0
 55 70  1  0  0  0  0
 56 86  1  0  0  0  0
 58 64  1  0  0  0  0
 59 67  1  0  0  0  0
 60 68  1  0  0  0  0
 61 68  1  0  0  0  0
 62 68  1  0  0  0  0
 63 79  1  0  0  0  0
 65 78  1  0  0  0  0
 66 68  1  0  0  0  0
 66 77  1  0  0  0  0
 67 79  1  0  0  0  0
 69 70  1  0  0  0  0
M  CHG  2  78   1  79   1
M  ISO  4  40 100  56 101  75 100  86 101
M  END
> <Batch ID>
0036

> <Smiles>
CC=C1C[101CH:1]([101O:1]c2ccc3c(c2)CN(C(=O)C(NC(=O)C(C)NC)C(C)(C)C)C(C(=O)NC2CCCc4ccccc42)C3)CCN1Cc1ccc([100NH:0][100C:0](=O)N2CCCC(n3nc(-c4ccc(Oc5ccc(F)cc5F)cc4)c(C(N)=O)c3N)C2)c(CC)c1Cl

> <Shape>
0.264

> <Color>
0.084

> <Negative vol penalty>
0.000

$$$$

  -OEChem-04042321543D

 89 98  0     1  0  0  0  0  0999 V2000
  -28.1786  -22.3750   19.3985 C   0  0  0  0  0  0  0  0  0  0  0  0
  -27.3224  -23.4673   19.3170 C   0  0  0  0  0  0  0  0  0  0  0  0
  -29.2867  -12.5254   20.2898 C   0  0  0  0  0  0  0  0  0  0  0  0
  -27.5919  -13.0385   18.6462 C   0  0  0  0  0  0  0  0  0  0  0  0
  -29.0236  -22.2371   20.4977 C   0  0  0  0  0  0  0  0  0  0  0  0
  -27.3193  -24.4282   20.3287 C   0  0  0  0  0  0  0  0  0  0  0  0
  -24.5996  -28.4580   19.5752 C   0  0  0  0  0  0  0  0  0  0  0  0
  -29.1218  -11.1640   20.0350 C   0  0  0  0  0  0  0  0  0  0  0  0
  -27.4269  -11.6770   18.3913 C   0  0  0  0  0  0  0  0  0  0  0  0
  -23.2060  -28.4445   19.6118 C   0  0  0  0  0  0  0  0  0  0  0  0
  -29.0207   -9.2599   16.6484 C   0  0  0  0  0  0  0  0  0  0  0  0
  -28.9463   -8.8560   15.3154 C   0  0  0  0  0  0  0  0  0  0  0  0
  -23.2597  -29.4586   21.7999 C   0  0  0  0  0  0  0  0  0  0  0  0
  -21.8919  -24.5507   22.0293 C   0  0  0  0  0  0  0  0  0  0  0  0
  -26.7418   -7.9508   15.7128 C   0  0  0  0  0  0  0  0  0  0  0  0
  -28.5217  -13.4627   19.5955 C   0  0  0  0  0  0  0  0  0  0  0  0
  -29.8679  -15.6267   19.7062 C   0  0  0  0  0  0  0  0  0  0  0  0
  -29.0213  -23.1907   21.5290 C   0  0  0  0  0  0  0  0  0  0  0  0
  -25.3353  -28.9628   20.6570 C   0  0  0  0  0  0  0  0  0  0  0  0
  -28.1818  -24.3193   21.4345 C   0  0  0  0  0  0  0  0  0  0  0  0
  -24.6626  -29.4798   21.7734 C   0  0  0  0  0  0  0  0  0  0  0  0
  -22.6198  -23.6503   21.2516 C   0  0  0  0  0  0  0  0  0  0  0  0
  -20.5182  -24.3758   22.1972 C   0  0  0  0  0  0  0  0  0  0  0  0
  -19.8725  -23.3003   21.5872 C   0  0  0  0  0  0  0  0  0  0  0  0
  -20.6004  -22.3998   20.8094 C   0  0  0  0  0  0  0  0  0  0  0  0
  -21.9740  -22.5748   20.6416 C   0  0  0  0  0  0  0  0  0  0  0  0
  -28.1919  -10.7398   19.0857 C   0  0  0  0  0  0  0  0  0  0  0  0
  -22.5359  -28.9422   20.7255 C   0  0  0  0  0  0  0  0  0  0  0  0
  -27.9557   -9.0092   17.5137 C   0  0  0  0  0  0  0  0  0  0  0  0
  -27.8069   -8.2015   14.8476 C   0  0  0  0  0  0  0  0  0  0  0  0
  -26.8163   -8.3546   17.0458 C   0  0  0  0  0  0  0  0  0  0  0  0
  -28.6913  -14.8691   19.8587 C   0  0  0  0  0  0  0  0  0  0  0  0
  -29.5091  -16.8979   20.0828 C   0  0  0  0  0  0  0  0  0  0  0  0
  -18.1978  -27.2120   23.0866 C   0  0  0  0  0  0  0  0  0  0  0  0
  -16.8865  -26.9853   23.2561 C   0  0  0  0  0  0  0  0  0  0  0  0
  -31.1690  -15.2180   19.2636 C   0  0  0  0  0  0  0  0  0  0  0  0
  -27.4514  -27.7464   22.6932 C   0  0  0  0  0  0  0  0  0  0  0  0
  -27.6942  -30.8283   23.6758 C   0  0  0  0  0  0  0  0  0  0  0  0
  -25.4434  -33.5776   24.3022 C   0  0  0  0  0  0  0  0  0  0  0  0
  -24.3059  -19.6874   20.0541 C   0  0  0  0  0  0  0  0  0  0  0  0
  -29.9619  -22.9963   22.6920 C   0  0  0  0  0  0  0  0  0  0  0  0
  -26.8376  -28.9948   20.5907 C   0  0  0  0  0  0  0  0  0  0  0  0
  -25.4054  -30.0515   22.9523 C   0  0  0  0  0  0  0  0  0  0  0  0
  -18.9183  -28.3713   23.7195 C   0  0  0  0  0  0  0  0  0  0  0  0
  -29.5728  -23.8197   23.9154 C   0  0  0  0  0  0  0  0  0  0  0  0
  -19.7168  -29.1359   22.6706 C   0  0  0  0  0  0  0  0  0  0  0  0
  -26.4562  -19.2387   22.9303 C   0  0  0  0  0  0  0  0  0  0  0  0
  -29.3210  -25.2645   23.5109 C   0  0  0  0  0  0  0  0  0  0  0  0
  -27.3895  -18.1292   22.4421 C   0  0  0  0  0  0  0  0  0  0  0  0
  -25.0321  -19.0247   22.4261 C   0  0  0  0  0  0  0  0  0  0  0  0
  -25.8470  -17.7885   20.4560 C   0  0  0  0  0  0  0  0  0  0  0  0
  -19.7095  -27.0904   21.1940 C   0  0  0  0  0  0  0  0  0  0  0  0
  -28.1392  -25.3611   22.5378 C   0  0  1  0  0  0  0  0  0  0  0  0
  -27.4951  -29.0604   21.9657 C   0  0  1  0  0  0  0  0  0  0  0  0
  -27.3070  -17.9598   20.9135 C   0  0  2  0  0  0  0  0  0  0  0  0
  -20.5636  -28.1910   21.8181 C   0  0  1  0  0  0  0  0  0  1  0  0
  -24.0895  -23.8607   21.0875 C   0  0  0  0  0  0  0  0  0  0  0  0
  -18.3990  -23.1155   21.7682 C   0  0  0  0  0  0  0  0  0  0  0  0
  -19.9078  -21.2459   20.1555 C   0  0  0  0  0  0  0  0  0  0  0  0
  -25.8289  -36.0555   24.2090 C   0  0  0  0  0  0  0  0  0  0  0  0
  -28.2442  -30.5629   26.6653 C   0  0  0  0  0  0  0  0  0  0  0  0
  -27.0637  -32.7444   27.0053 C   0  0  0  0  0  0  0  0  0  0  0  0
  -29.1374  -32.6528   25.6218 C   0  0  0  0  0  0  0  0  0  0  0  0
  -23.2142  -33.9697   22.3954 C   0  0  0  0  0  0  0  0  0  0  0  0
  -22.7571  -21.6104   19.8081 C   0  0  0  0  0  0  0  0  0  0  0  0
  -19.7588  -25.3580   23.0394 C   0  0  0  0  0  0  0  0  0  0  0  0
  -26.9913  -31.6810   24.7042 C   0  0  1  0  0  0  0  0  0  0  0  0
  -25.2950  -34.8384   23.4698 C   0  0  2  0  0  0  0  0  0  0  0  0
  -27.8460  -31.8885   25.9863 C   0  0  0  0  0  0  0  0  0  0  0  0
  -27.6619  -15.5981   20.2980 N   0  0  0  0  0  0  0  0  0  0  0  0
  -28.1907  -16.8271   20.4249 N   0  0  0  0  0  0  0  0  0  0  0  0
  -26.8736  -30.0548   22.8426 N   0  0  0  0  0  0  0  0  0  0  0  0
  -25.0212  -18.8896   20.9626 N   0  0  0  0  0  0  0  0  0  0  0  0
  -30.1958  -18.0581   20.1514 N   0  0  0  0  0  0  0  0  0  0  0  0
  -31.4599  -15.2832   17.8941 N   0  0  0  0  0  0  0  0  0  0  0  0
  -28.0648  -26.7087   22.0177 N   0  0  0  0  0  0  0  0  0  0  0  0
  -26.6224  -32.9185   24.0252 N   0  0  0  0  0  0  0  0  0  0  0  0
  -23.5428  -20.7039   20.6155 N   0  0  0  0  0  0  0  0  0  0  0  0
  -18.9299  -26.3139   22.2269 N   0  3  1  0  0  0  0  0  0  0  0  0
  -23.8607  -35.0781   23.1440 N   0  3  0  0  0  0  0  0  0  0  0  0
  -32.0420  -14.7916   20.0571 O   0  0  0  0  0  0  0  0  0  0  0  0
  -26.9031  -27.6794   23.7871 O   0  0  0  0  0  0  0  0  0  0  0  0
  -28.9257  -30.8531   23.6093 O   0  0  0  0  0  0  0  0  0  0  0  0
  -24.5996  -33.2157   25.1194 O   0  0  0  0  0  0  0  0  0  0  0  0
  -24.3484  -19.5104   18.8319 O   0  0  0  0  0  0  0  0  0  0  0  0
  -28.0308   -9.4114   18.8366 O   0  0  0  0  0  0  0  0  0  0  0  0
  -21.1757  -28.9295   20.7642 O   0  0  0  0  0  0  0  0  0  1  0  0
  -27.7349   -7.8151   13.5671 F   0  0  0  0  0  0  0  0  0  0  0  0
  -25.7895   -8.1120   17.8720 F   0  0  0  0  0  0  0  0  0  0  0  0
  1  2  1  0  0  0  0
  1  5  2  0  0  0  0
  2  6  2  0  0  0  0
  3  8  2  0  0  0  0
  3 16  1  0  0  0  0
  4  9  1  0  0  0  0
  4 16  2  0  0  0  0
  5 18  1  0  0  0  0
  6 20  1  0  0  0  0
  7 10  2  0  0  0  0
  7 19  1  0  0  0  0
  8 27  1  0  0  0  0
  9 27  2  0  0  0  0
 10 28  1  0  0  0  0
 11 12  2  0  0  0  0
 11 29  1  0  0  0  0
 12 30  1  0  0  0  0
 13 21  1  0  0  0  0
 13 28  2  0  0  0  0
 14 22  2  0  0  0  0
 14 23  1  0  0  0  0
 15 30  2  0  0  0  0
 15 31  1  0  0  0  0
 16 32  1  0  0  0  0
 17 32  1  0  0  0  0
 17 33  2  0  0  0  0
 17 36  1  0  0  0  0
 18 20  2  0  0  0  0
 18 41  1  0  0  0  0
 19 21  2  0  0  0  0
 19 42  1  0  0  0  0
 20 53  1  0  0  0  0
 21 43  1  0  0  0  0
 22 26  1  0  0  0  0
 22 57  1  0  0  0  0
 23 24  2  0  0  0  0
 23 66  1  0  0  0  0
 24 25  1  0  0  0  0
 24 58  1  0  0  0  0
 25 26  2  0  0  0  0
 25 59  1  0  0  0  0
 26 65  1  0  0  0  0
 27 86  1  0  0  0  0
 28 87  1  0  0  0  0
 29 31  2  0  0  0  0
 29 86  1  0  0  0  0
 30 88  1  0  0  0  0
 31 89  1  0  0  0  0
 32 70  2  0  0  0  0
 33 71  1  0  0  0  0
 33 74  1  0  0  0  0
 34 35  2  0  0  0  0
 34 44  1  0  0  0  0
 34 79  1  0  0  0  0
 36 75  1  0  0  0  0
 36 81  2  0  0  0  0
 37 54  1  0  0  0  0
 37 76  1  0  0  0  0
 37 82  2  0  0  0  0
 38 67  1  0  0  0  0
 38 72  1  0  0  0  0
 38 83  2  0  0  0  0
 39 68  1  0  0  0  0
 39 77  1  0  0  0  0
 39 84  2  0  0  0  0
 40 73  1  0  0  0  0
 40 78  1  0  0  0  0
 40 85  2  0  0  0  0
 41 45  1  0  0  0  0
 42 54  1  0  0  0  0
 43 72  1  0  0  0  0
 44 46  1  0  0  0  0
 45 48  1  0  0  0  0
 46 56  1  0  0  0  0
 47 49  1  0  0  0  0
 47 50  1  0  0  0  0
 48 53  1  0  0  0  0
 49 55  1  0  0  0  0
 50 73  1  0  0  0  0
 51 55  1  0  0  0  0
 51 73  1  0  0  0  0
 52 56  1  0  0  0  0
 52 79  1  0  0  0  0
 53 76  1  0  0  0  0
 54 72  1  0  0  0  0
 55 71  1  0  0  0  0
 56 87  1  0  0  0  0
 60 68  1  0  0  0  0
 61 69  1  0  0  0  0
 62 69  1  0  0  0  0
 63 69  1  0  0  0  0
 64 80  1  0  0  0  0
 65 78  1  0  0  0  0
 66 79  1  0  0  0  0
 67 69  1  0  0  0  0
 67 77  1  0  0  0  0
 68 80  1  0  0  0  0
 70 71  1  0  0  0  0
M  CHG  2  79   1  80   1
M  ISO  4  40 100  56 101  78 100  87 101
M  END
> <Batch ID>
0036

> <Smiles>
C=C1CC[101CH:1]([101O:1]c2ccc3c(c2)CN(C(=O)C(NC(=O)C(C)NC)C(C)(C)C)C(C(=O)NC2CCCc4ccccc42)C3)CN1Cc1cc(C)c(C[100NH:0][100C:0](=O)N2CCCC(n3nc(-c4ccc(Oc5ccc(F)cc5F)cc4)c(C(N)=O)c3N)C2)c(C)c1C

> <Shape>
0.251

> <Color>
0.065

> <Negative vol penalty>
0.000

$$$$

  -OEChem-04042321543D

 89 98  0     1  0  0  0  0  0999 V2000
  -26.5650  -33.0051   27.5273 C   0  0  0  0  0  0  0  0  0  0  0  0
  -27.0966  -32.0502   26.6665 C   0  0  0  0  0  0  0  0  0  0  0  0
  -22.7707  -12.3101   22.7815 C   0  0  0  0  0  0  0  0  0  0  0  0
  -23.3155  -10.3209   21.5231 C   0  0  0  0  0  0  0  0  0  0  0  0
  -25.1915  -33.0407   27.7643 C   0  0  0  0  0  0  0  0  0  0  0  0
  -26.2551  -31.1295   26.0432 C   0  0  0  0  0  0  0  0  0  0  0  0
  -26.8892  -28.7791   20.4236 C   0  0  0  0  0  0  0  0  0  0  0  0
  -31.0545  -19.3640   17.4720 C   0  0  0  0  0  0  0  0  0  0  0  0
  -21.8789  -11.5730   23.5606 C   0  0  0  0  0  0  0  0  0  0  0  0
  -22.4237   -9.5838   22.3022 C   0  0  0  0  0  0  0  0  0  0  0  0
  -27.4123  -27.5705   19.9659 C   0  0  0  0  0  0  0  0  0  0  0  0
  -22.3798   -8.1711   25.3719 C   0  0  0  0  0  0  0  0  0  0  0  0
  -22.8063   -6.9294   25.8428 C   0  0  0  0  0  0  0  0  0  0  0  0
  -31.3323  -18.0635   17.0510 C   0  0  0  0  0  0  0  0  0  0  0  0
  -25.1886  -26.6371   19.9080 C   0  0  0  0  0  0  0  0  0  0  0  0
  -20.9875   -5.8588   24.6667 C   0  0  0  0  0  0  0  0  0  0  0  0
  -23.4890  -11.6841   21.7627 C   0  0  0  0  0  0  0  0  0  0  0  0
  -24.1123  -13.5570   20.1468 C   0  0  0  0  0  0  0  0  0  0  0  0
  -24.3316  -32.1261   27.1361 C   0  0  0  0  0  0  0  0  0  0  0  0
  -25.5108  -28.9226   20.6377 C   0  0  0  0  0  0  0  0  0  0  0  0
  -24.8690  -31.1520   26.2731 C   0  0  0  0  0  0  0  0  0  0  0  0
  -24.6503  -27.8493   20.3660 C   0  0  0  0  0  0  0  0  0  0  0  0
  -30.4716  -19.5836   18.7201 C   0  0  0  0  0  0  0  0  0  0  0  0
  -30.1665  -18.5026   19.5472 C   0  0  0  0  0  0  0  0  0  0  0  0
  -30.4442  -17.2021   19.1262 C   0  0  0  0  0  0  0  0  0  0  0  0
  -21.7054  -10.2099   23.3210 C   0  0  0  0  0  0  0  0  0  0  0  0
  -26.5623  -26.4983   19.7108 C   0  0  0  0  0  0  0  0  0  0  0  0
  -21.2571   -8.2568   24.5485 C   0  0  0  0  0  0  0  0  0  0  0  0
  -22.1102   -5.7732   25.4901 C   0  0  0  0  0  0  0  0  0  0  0  0
  -20.5610   -7.1006   24.1959 C   0  0  0  0  0  0  0  0  0  0  0  0
  -31.0271  -16.9826   17.8781 C   0  0  0  0  0  0  0  0  0  0  0  0
  -24.4099  -12.4451   20.9572 C   0  0  0  0  0  0  0  0  0  0  0  0
  -25.3191  -13.9137   19.5965 C   0  0  0  0  0  0  0  0  0  0  0  0
  -28.4923  -22.6988   19.5286 C   0  0  0  0  0  0  0  0  0  0  0  0
  -27.9520  -22.8300   20.7519 C   0  0  0  0  0  0  0  0  0  0  0  0
  -22.8572  -14.2092   19.9124 C   0  0  0  0  0  0  0  0  0  0  0  0
  -23.6858  -29.5401   23.1659 C   0  0  0  0  0  0  0  0  0  0  0  0
  -21.3222  -29.6424   20.9465 C   0  0  0  0  0  0  0  0  0  0  0  0
  -20.1947  -28.6917   17.8689 C   0  0  0  0  0  0  0  0  0  0  0  0
  -30.7832  -14.8834   20.0509 C   0  0  0  0  0  0  0  0  0  0  0  0
  -22.8594  -32.1734   27.4601 C   0  0  0  0  0  0  0  0  0  0  0  0
  -24.9594  -30.2412   21.1062 C   0  0  0  0  0  0  0  0  0  0  0  0
  -23.1608  -27.9583   20.5603 C   0  0  0  0  0  0  0  0  0  0  0  0
  -21.9925  -31.4007   26.4693 C   0  0  0  0  0  0  0  0  0  0  0  0
  -29.7702  -11.5035   19.5745 C   0  0  0  0  0  0  0  0  0  0  0  0
  -28.5153  -22.1828   16.7096 C   0  0  0  0  0  0  0  0  0  0  0  0
  -22.5945  -30.0269   26.1915 C   0  0  0  0  0  0  0  0  0  0  0  0
  -28.2160  -23.5909   17.2176 C   0  0  0  0  0  0  0  0  0  0  0  0
  -28.2609  -11.5386   19.8251 C   0  0  0  0  0  0  0  0  0  0  0  0
  -30.5218  -12.4542   20.5045 C   0  0  0  0  0  0  0  0  0  0  0  0
  -28.5242  -13.8743   20.7537 C   0  0  0  0  0  0  0  0  0  0  0  0
  -28.0924  -21.1224   17.7187 C   0  0  0  0  0  0  0  0  0  0  0  0
  -23.9858  -30.1520   25.5589 C   0  0  1  0  0  0  0  0  0  0  0  0
  -28.8534  -23.8418   18.5925 C   0  0  1  0  0  0  0  0  0  0  0  0
  -23.5966  -30.1136   21.7799 C   0  0  1  0  0  0  0  0  0  0  0  0
  -27.7183  -12.9809   19.7965 C   0  0  2  0  0  0  0  0  0  0  0  0
  -29.5428  -18.7475   20.8859 C   0  0  0  0  0  0  0  0  0  0  0  0
  -27.6139  -21.6812   21.6358 C   0  0  0  0  0  0  0  0  0  0  0  0
  -18.2097  -28.8991   16.3477 C   0  0  0  0  0  0  0  0  0  0  0  0
  -19.8127  -27.6040   22.6424 C   0  0  0  0  0  0  0  0  0  0  0  0
  -18.3470  -27.1478   20.6646 C   0  0  0  0  0  0  0  0  0  0  0  0
  -18.3888  -29.4236   21.6852 C   0  0  0  0  0  0  0  0  0  0  0  0
  -21.7926  -30.0453   15.7776 C   0  0  0  0  0  0  0  0  0  0  0  0
  -30.1829  -20.9924   19.1476 C   0  0  0  0  0  0  0  0  0  0  0  0
  -28.4835  -25.2467   19.0797 C   0  0  0  0  0  0  0  0  0  1  0  0
  -20.3787  -28.6307   20.3421 C   0  0  1  0  0  0  0  0  0  0  0  0
  -19.5577  -29.4831   16.7409 C   0  0  2  0  0  0  0  0  0  0  0  0
  -19.2600  -28.1985   21.3317 C   0  0  0  0  0  0  0  0  0  0  0  0
  -25.7043  -12.1169   20.9272 N   0  0  0  0  0  0  0  0  0  0  0  0
  -26.2307  -13.0280   20.0912 N   0  0  0  0  0  0  0  0  0  0  0  0
  -22.6706  -29.2662   21.0260 N   0  0  0  0  0  0  0  0  0  0  0  0
  -29.9556  -13.8023   20.4211 N   0  0  0  0  0  0  0  0  0  0  0  0
  -25.6789  -14.8953   18.7425 N   0  0  0  0  0  0  0  0  0  0  0  0
  -22.0597  -13.7617   18.8503 N   0  0  0  0  0  0  0  0  0  0  0  0
  -30.1272  -16.1115   19.9735 N   0  0  0  0  0  0  0  0  0  0  0  0
  -23.8746  -30.4862   24.1552 N   0  0  0  0  0  0  0  0  0  0  0  0
  -19.8849  -29.2223   19.1033 N   0  0  0  0  0  0  0  0  0  0  0  0
  -28.7224  -21.3433   19.0727 N   0  3  1  0  0  0  0  0  0  0  0  0
  -20.4409  -29.4765   15.5405 N   0  3  0  0  0  0  0  0  0  0  0  0
  -22.4622  -15.1714   20.6137 O   0  0  0  0  0  0  0  0  0  0  0  0
  -23.5889  -28.3290   23.3260 O   0  0  0  0  0  0  0  0  0  0  0  0
  -20.8804  -30.7293   21.3274 O   0  0  0  0  0  0  0  0  0  0  0  0
  -20.8939  -27.6998   17.6746 O   0  0  0  0  0  0  0  0  0  0  0  0
  -31.9794  -14.7264   19.7931 O   0  0  0  0  0  0  0  0  0  0  0  0
  -20.8355   -9.4903   24.0812 O   0  0  0  0  0  0  0  0  0  0  0  0
  -27.0703  -25.3173   19.2646 O   0  0  0  0  0  0  0  0  0  1  0  0
  -22.5208   -4.5806   25.9411 F   0  0  0  0  0  0  0  0  0  0  0  0
  -19.4825   -7.1764   23.4041 F   0  0  0  0  0  0  0  0  0  0  0  0
  -31.3939  -15.3903   17.3153 Cl  0  0  0  0  0  0  0  0  0  0  0  0
  1  2  1  0  0  0  0
  1  5  2  0  0  0  0
  2  6  2  0  0  0  0
  3  9  2  0  0  0  0
  3 17  1  0  0  0  0
  4 10  1  0  0  0  0
  4 17  2  0  0  0  0
  5 19  1  0  0  0  0
  6 21  1  0  0  0  0
  7 11  2  0  0  0  0
  7 20  1  0  0  0  0
  8 14  2  0  0  0  0
  8 23  1  0  0  0  0
  9 26  1  0  0  0  0
 10 26  2  0  0  0  0
 11 27  1  0  0  0  0
 12 13  2  0  0  0  0
 12 28  1  0  0  0  0
 13 29  1  0  0  0  0
 14 31  1  0  0  0  0
 15 22  1  0  0  0  0
 15 27  2  0  0  0  0
 16 29  2  0  0  0  0
 16 30  1  0  0  0  0
 17 32  1  0  0  0  0
 18 32  1  0  0  0  0
 18 33  2  0  0  0  0
 18 36  1  0  0  0  0
 19 21  2  0  0  0  0
 19 41  1  0  0  0  0
 20 22  2  0  0  0  0
 20 42  1  0  0  0  0
 21 53  1  0  0  0  0
 22 43  1  0  0  0  0
 23 24  2  0  0  0  0
 23 64  1  0  0  0  0
 24 25  1  0  0  0  0
 24 57  1  0  0  0  0
 25 31  2  0  0  0  0
 25 75  1  0  0  0  0
 26 85  1  0  0  0  0
 27 86  1  0  0  0  0
 28 30  2  0  0  0  0
 28 85  1  0  0  0  0
 29 87  1  0  0  0  0
 30 88  1  0  0  0  0
 31 89  1  0  0  0  0
 32 69  2  0  0  0  0
 33 70  1  0  0  0  0
 33 73  1  0  0  0  0
 34 35  2  0  0  0  0
 34 54  1  0  0  0  0
 34 78  1  0  0  0  0
 35 58  1  0  0  0  0
 36 74  1  0  0  0  0
 36 80  2  0  0  0  0
 37 55  1  0  0  0  0
 37 76  1  0  0  0  0
 37 81  2  0  0  0  0
 38 66  1  0  0  0  0
 38 71  1  0  0  0  0
 38 82  2  0  0  0  0
 39 67  1  0  0  0  0
 39 77  1  0  0  0  0
 39 83  2  0  0  0  0
 40 72  1  0  0  0  0
 40 75  1  0  0  0  0
 40 84  2  0  0  0  0
 41 44  1  0  0  0  0
 42 55  1  0  0  0  0
 43 71  1  0  0  0  0
 44 47  1  0  0  0  0
 45 49  1  0  0  0  0
 45 50  1  0  0  0  0
 46 48  1  0  0  0  0
 46 52  1  0  0  0  0
 47 53  1  0  0  0  0
 48 54  1  0  0  0  0
 49 56  1  0  0  0  0
 50 72  1  0  0  0  0
 51 56  1  0  0  0  0
 51 72  1  0  0  0  0
 52 78  1  0  0  0  0
 53 76  1  0  0  0  0
 54 65  1  0  0  0  0
 55 71  1  0  0  0  0
 56 70  1  0  0  0  0
 59 67  1  0  0  0  0
 60 68  1  0  0  0  0
 61 68  1  0  0  0  0
 62 68  1  0  0  0  0
 63 79  1  0  0  0  0
 64 78  1  0  0  0  0
 65 86  1  0  0  0  0
 66 68  1  0  0  0  0
 66 77  1  0  0  0  0
 67 79  1  0  0  0  0
 69 70  1  0  0  0  0
M  CHG  2  78   1  79   1
M  ISO  4  40 100  65 101  75 100  86 101
M  END
> <Batch ID>
0036

> <Smiles>
CC=C1C([101CH2:1][101O:1]c2ccc3c(c2)CN(C(=O)C(NC(=O)C(C)NC)C(C)(C)C)C(C(=O)NC2CCCc4ccccc42)C3)CCCN1Cc1ccc(Cl)c([100NH:0][100C:0](=O)N2CCCC(n3nc(-c4ccc(Oc5ccc(F)cc5F)cc4)c(C(N)=O)c3N)C2)c1C

> <Shape>
0.305

> <Color>
0.108

> <Negative vol penalty>
0.000

$$$$

  -OEChem-04042321543D

 83 91  0     1  0  0  0  0  0999 V2000
  -27.3630  -22.8303   18.9214 C   0  0  0  0  0  0  0  0  0  0  0  0
  -26.1738  -23.3812   19.3880 C   0  0  0  0  0  0  0  0  0  0  0  0
  -26.1684  -14.6908   20.8950 C   0  0  0  0  0  0  0  0  0  0  0  0
  -24.0202  -14.3683   19.8376 C   0  0  0  0  0  0  0  0  0  0  0  0
  -28.5805  -23.2458   19.4589 C   0  0  0  0  0  0  0  0  0  0  0  0
  -26.2014  -24.3472   20.3933 C   0  0  0  0  0  0  0  0  0  0  0  0
  -23.1247  -28.2504   19.4216 C   0  0  0  0  0  0  0  0  0  0  0  0
  -17.6640  -23.6320   20.0231 C   0  0  0  0  0  0  0  0  0  0  0  0
  -17.9385  -22.3824   19.4677 C   0  0  0  0  0  0  0  0  0  0  0  0
  -26.3649  -13.3101   20.9171 C   0  0  0  0  0  0  0  0  0  0  0  0
  -24.2167  -12.9875   19.8596 C   0  0  0  0  0  0  0  0  0  0  0  0
  -21.7628  -28.0603   19.6517 C   0  0  0  0  0  0  0  0  0  0  0  0
  -23.9929   -9.3613   19.9633 C   0  0  0  0  0  0  0  0  0  0  0  0
  -22.9269   -8.5613   20.3745 C   0  0  0  0  0  0  0  0  0  0  0  0
  -21.9628  -29.2201   21.7574 C   0  0  0  0  0  0  0  0  0  0  0  0
  -17.7863  -22.6745   22.2379 C   0  0  0  0  0  0  0  0  0  0  0  0
  -22.9205   -9.6724   22.5199 C   0  0  0  0  0  0  0  0  0  0  0  0
  -24.9960  -15.2199   20.3553 C   0  0  0  0  0  0  0  0  0  0  0  0
  -25.1606  -17.5415   19.3108 C   0  0  0  0  0  0  0  0  0  0  0  0
  -28.6236  -24.2244   20.4644 C   0  0  0  0  0  0  0  0  0  0  0  0
  -23.9194  -28.9184   20.3643 C   0  0  0  0  0  0  0  0  0  0  0  0
  -27.4205  -24.7753   20.9456 C   0  0  0  0  0  0  0  0  0  0  0  0
  -23.3340  -29.4197   21.5357 C   0  0  0  0  0  0  0  0  0  0  0  0
  -17.5880  -23.7781   21.4083 C   0  0  0  0  0  0  0  0  0  0  0  0
  -18.1368  -21.2787   20.2973 C   0  0  0  0  0  0  0  0  0  0  0  0
  -18.0607  -21.4248   21.6824 C   0  0  0  0  0  0  0  0  0  0  0  0
  -25.3891  -12.4584   20.3993 C   0  0  0  0  0  0  0  0  0  0  0  0
  -21.1822  -28.5426   20.8210 C   0  0  0  0  0  0  0  0  0  0  0  0
  -24.5228  -10.3169   20.8304 C   0  0  0  0  0  0  0  0  0  0  0  0
  -22.3907   -8.7168   21.6528 C   0  0  0  0  0  0  0  0  0  0  0  0
  -23.9865  -10.4725   22.1087 C   0  0  0  0  0  0  0  0  0  0  0  0
  -24.7922  -16.6461   20.3328 C   0  0  0  0  0  0  0  0  0  0  0  0
  -24.7507  -18.7705   19.7668 C   0  0  0  0  0  0  0  0  0  0  0  0
  -25.8148  -17.2851   18.0610 C   0  0  0  0  0  0  0  0  0  0  0  0
  -26.4296  -28.1263   22.1462 C   0  0  0  0  0  0  0  0  0  0  0  0
  -26.3752  -31.2737   22.9294 C   0  0  0  0  0  0  0  0  0  0  0  0
  -24.5744  -34.1593   23.2077 C   0  0  0  0  0  0  0  0  0  0  0  0
  -20.5101  -20.4781   23.6337 C   0  0  0  0  0  0  0  0  0  0  0  0
  -29.9607  -24.6074   21.0478 C   0  0  0  0  0  0  0  0  0  0  0  0
  -25.3816  -29.1388   20.0889 C   0  0  0  0  0  0  0  0  0  0  0  0
  -24.1393  -30.1614   22.5700 C   0  0  0  0  0  0  0  0  0  0  0  0
  -29.9265  -25.9073   21.8474 C   0  0  0  0  0  0  0  0  0  0  0  0
  -23.9919  -21.1986   23.8189 C   0  0  0  0  0  0  0  0  0  0  0  0
  -28.7307  -25.9202   22.7944 C   0  0  0  0  0  0  0  0  0  0  0  0
  -24.6251  -20.1943   22.8543 C   0  0  0  0  0  0  0  0  0  0  0  0
  -22.8034  -20.5940   24.5631 C   0  0  0  0  0  0  0  0  0  0  0  0
  -22.4022  -18.9933   22.7327 C   0  0  0  0  0  0  0  0  0  0  0  0
  -27.4109  -25.8435   22.0175 C   0  0  1  0  0  0  0  0  0  0  0  0
  -26.1979  -29.3822   21.3545 C   0  0  1  0  0  0  0  0  0  0  0  0
  -23.5703  -19.5746   21.9180 C   0  0  2  0  0  0  0  0  0  0  0  0
  -18.4282  -19.9505   19.6796 C   0  0  0  0  0  0  0  0  0  0  0  0
  -24.7936  -36.5579   23.9117 C   0  0  0  0  0  0  0  0  0  0  0  0
  -26.3303  -30.4159   25.8572 C   0  0  0  0  0  0  0  0  0  0  0  0
  -25.6005  -32.7355   26.4533 C   0  0  0  0  0  0  0  0  0  0  0  0
  -27.8145  -32.3675   25.3646 C   0  0  0  0  0  0  0  0  0  0  0  0
  -23.8661  -35.1379   20.5060 C   0  0  0  0  0  0  0  0  0  0  0  0
  -18.2691  -20.2573   22.5904 C   0  0  0  0  0  0  0  0  0  0  0  0
  -17.2923  -25.1223   22.0055 C   0  0  0  0  0  0  0  0  0  0  0  0
  -18.1744  -27.4093   22.4851 C   0  0  0  0  0  0  0  0  0  0  0  0
  -19.4365  -28.2456   22.4086 C   0  0  0  0  0  0  0  0  0  1  0  0
  -25.7027  -32.0972   24.0011 C   0  0  1  0  0  0  0  0  0  0  0  0
  -24.8672  -35.5773   22.7517 C   0  0  2  0  0  0  0  0  0  0  0  0
  -26.3469  -31.8884   25.4006 C   0  0  0  0  0  0  0  0  0  0  0  0
  -24.1944  -17.2546   21.3606 N   0  0  0  0  0  0  0  0  0  0  0  0
  -24.1841  -18.5454   20.9868 N   0  0  0  0  0  0  0  0  0  0  0  0
  -25.5662  -30.3460   22.2579 N   0  0  0  0  0  0  0  0  0  0  0  0
  -21.8396  -20.0251   23.6180 N   0  0  0  0  0  0  0  0  0  0  0  0
  -24.8234  -20.0110   19.2393 N   0  0  0  0  0  0  0  0  0  0  0  0
  -26.1671  -15.9648   17.7498 N   0  0  0  0  0  0  0  0  0  0  0  0
  -27.0855  -27.1323   21.4453 N   0  0  0  0  0  0  0  0  0  0  0  0
  -25.7288  -33.4782   23.5313 N   0  0  0  0  0  0  0  0  0  0  0  0
  -19.6636  -19.8913   22.7010 N   0  0  0  0  0  0  0  0  0  0  0  0
  -23.8844  -36.0013   21.7148 N   0  3  0  0  0  0  0  0  0  0  0  0
  -18.4539  -26.0508   21.9556 N   0  3  0  0  0  0  0  0  0  0  0  0
  -26.0939  -18.2020   17.2518 O   0  0  0  0  0  0  0  0  0  0  0  0
  -26.0433  -28.0642   23.3075 O   0  0  0  0  0  0  0  0  0  0  0  0
  -27.5724  -31.4521   22.6917 O   0  0  0  0  0  0  0  0  0  0  0  0
  -23.4352  -33.7027   23.2740 O   0  0  0  0  0  0  0  0  0  0  0  0
  -20.1086  -21.3454   24.4170 O   0  0  0  0  0  0  0  0  0  0  0  0
  -25.5806  -11.1110   20.4204 O   0  0  0  0  0  0  0  0  0  0  0  0
  -19.8533  -28.3579   21.0484 O   0  0  0  0  0  0  0  0  0  1  0  0
  -21.3660   -7.9495   22.0470 F   0  0  0  0  0  0  0  0  0  0  0  0
  -24.4906  -11.3896   22.9457 F   0  0  0  0  0  0  0  0  0  0  0  0
  1  2  1  0  0  0  0
  1  5  2  0  0  0  0
  2  6  2  0  0  0  0
  3 10  2  0  0  0  0
  3 18  1  0  0  0  0
  4 11  1  0  0  0  0
  4 18  2  0  0  0  0
  5 20  1  0  0  0  0
  6 22  1  0  0  0  0
  7 12  2  0  0  0  0
  7 21  1  0  0  0  0
  8  9  2  0  0  0  0
  8 24  1  0  0  0  0
  9 25  1  0  0  0  0
 10 27  1  0  0  0  0
 11 27  2  0  0  0  0
 12 28  1  0  0  0  0
 13 14  2  0  0  0  0
 13 29  1  0  0  0  0
 14 30  1  0  0  0  0
 15 23  1  0  0  0  0
 15 28  2  0  0  0  0
 16 24  2  0  0  0  0
 16 26  1  0  0  0  0
 17 30  2  0  0  0  0
 17 31  1  0  0  0  0
 18 32  1  0  0  0  0
 19 32  1  0  0  0  0
 19 33  2  0  0  0  0
 19 34  1  0  0  0  0
 20 22  2  0  0  0  0
 20 39  1  0  0  0  0
 21 23  2  0  0  0  0
 21 40  1  0  0  0  0
 22 48  1  0  0  0  0
 23 41  1  0  0  0  0
 24 58  1  0  0  0  0
 25 26  2  0  0  0  0
 25 51  1  0  0  0  0
 26 57  1  0  0  0  0
 27 80  1  0  0  0  0
 28 81  1  0  0  0  0
 29 31  2  0  0  0  0
 29 80  1  0  0  0  0
 30 82  1  0  0  0  0
 31 83  1  0  0  0  0
 32 64  2  0  0  0  0
 33 65  1  0  0  0  0
 33 68  1  0  0  0  0
 34 69  1  0  0  0  0
 34 75  2  0  0  0  0
 35 49  1  0  0  0  0
 35 70  1  0  0  0  0
 35 76  2  0  0  0  0
 36 61  1  0  0  0  0
 36 66  1  0  0  0  0
 36 77  2  0  0  0  0
 37 62  1  0  0  0  0
 37 71  1  0  0  0  0
 37 78  2  0  0  0  0
 38 67  1  0  0  0  0
 38 72  1  0  0  0  0
 38 79  2  0  0  0  0
 39 42  1  0  0  0  0
 40 49  1  0  0  0  0
 41 66  1  0  0  0  0
 42 44  1  0  0  0  0
 43 45  1  0  0  0  0
 43 46  1  0  0  0  0
 44 48  1  0  0  0  0
 45 50  1  0  0  0  0
 46 67  1  0  0  0  0
 47 50  1  0  0  0  0
 47 67  1  0  0  0  0
 48 70  1  0  0  0  0
 49 66  1  0  0  0  0
 50 65  1  0  0  0  0
 52 62  1  0  0  0  0
 53 63  1  0  0  0  0
 54 63  1  0  0  0  0
 55 63  1  0  0  0  0
 56 73  1  0  0  0  0
 57 72  1  0  0  0  0
 58 74  1  0  0  0  0
 59 60  1  0  0  0  0
 59 74  1  0  0  0  0
 60 81  1  0  0  0  0
 61 63  1  0  0  0  0
 61 71  1  0  0  0  0
 62 73  1  0  0  0  0
 64 65  1  0  0  0  0
M  CHG  2  73   1  74   1
M  ISO  4  38 100  60 101  72 100  81 101
M  END
> <Batch ID>
0036

> <Smiles>
CNC(C)C(=O)NC(C(=O)N1Cc2cc([101O:1][101CH2:1]CNCc3ccc(C)c(C[100NH:0][100C:0](=O)N4CCCC(n5nc(-c6ccc(Oc7ccc(F)cc7F)cc6)c(C(N)=O)c5N)C4)c3)ccc2CC1C(=O)NC1CCCc2ccccc21)C(C)(C)C

> <Shape>
0.237

> <Color>
0.070

> <Negative vol penalty>
0.000

$$$$

  -OEChem-04042321543D

 84 92  0     1  0  0  0  0  0999 V2000
  -27.6087  -24.5841   16.9038 C   0  0  0  0  0  0  0  0  0  0  0  0
  -26.4368  -24.8761   17.5942 C   0  0  0  0  0  0  0  0  0  0  0  0
  -27.0437  -17.6817   21.8102 C   0  0  0  0  0  0  0  0  0  0  0  0
  -24.7134  -18.1562   21.3841 C   0  0  0  0  0  0  0  0  0  0  0  0
  -28.8371  -25.0126   17.4052 C   0  0  0  0  0  0  0  0  0  0  0  0
  -26.4927  -25.5959   18.7872 C   0  0  0  0  0  0  0  0  0  0  0  0
  -22.9718  -29.2275   19.0318 C   0  0  0  0  0  0  0  0  0  0  0  0
  -26.8790  -16.4004   21.2842 C   0  0  0  0  0  0  0  0  0  0  0  0
  -24.5486  -16.8749   20.8580 C   0  0  0  0  0  0  0  0  0  0  0  0
  -21.6705  -28.8330   19.3393 C   0  0  0  0  0  0  0  0  0  0  0  0
  -23.4274  -13.6057   19.7334 C   0  0  0  0  0  0  0  0  0  0  0  0
  -22.3013  -12.8830   20.1273 C   0  0  0  0  0  0  0  0  0  0  0  0
  -22.0088  -29.5207   21.6266 C   0  0  0  0  0  0  0  0  0  0  0  0
  -19.8049  -25.6912   25.1888 C   0  0  0  0  0  0  0  0  0  0  0  0
  -19.1628  -23.4590   24.5244 C   0  0  0  0  0  0  0  0  0  0  0  0
  -23.0271  -13.0064   22.4285 C   0  0  0  0  0  0  0  0  0  0  0  0
  -25.9609  -18.5596   21.8602 C   0  0  0  0  0  0  0  0  0  0  0  0
  -26.4954  -21.0491   21.7049 C   0  0  0  0  0  0  0  0  0  0  0  0
  -28.9072  -25.7463   18.5999 C   0  0  0  0  0  0  0  0  0  0  0  0
  -23.8065  -29.7624   20.0236 C   0  0  0  0  0  0  0  0  0  0  0  0
  -27.7233  -26.0335   19.3058 C   0  0  0  0  0  0  0  0  0  0  0  0
  -23.3195  -29.9236   21.3286 C   0  0  0  0  0  0  0  0  0  0  0  0
  -19.1173  -24.8388   24.3250 C   0  0  0  0  0  0  0  0  0  0  0  0
  -20.5835  -23.7841   26.4513 C   0  0  0  0  0  0  0  0  0  0  0  0
  -25.6315  -15.9970   20.8080 C   0  0  0  0  0  0  0  0  0  0  0  0
  -21.1897  -28.9768   20.6375 C   0  0  0  0  0  0  0  0  0  0  0  0
  -24.3534  -14.0287   20.6870 C   0  0  0  0  0  0  0  0  0  0  0  0
  -22.1011  -12.5833   21.4748 C   0  0  0  0  0  0  0  0  0  0  0  0
  -24.1532  -13.7291   22.0345 C   0  0  0  0  0  0  0  0  0  0  0  0
  -20.5380  -25.1639   26.2519 C   0  0  0  0  0  0  0  0  0  0  0  0
  -19.8959  -22.9316   25.5875 C   0  0  0  0  0  0  0  0  0  0  0  0
  -26.1303  -19.8831   22.4041 C   0  0  0  0  0  0  0  0  0  0  0  0
  -26.5191  -22.0316   22.6644 C   0  0  0  0  0  0  0  0  0  0  0  0
  -26.7869  -21.2282   20.3125 C   0  0  0  0  0  0  0  0  0  0  0  0
  -26.5727  -28.9015   21.3315 C   0  0  0  0  0  0  0  0  0  0  0  0
  -26.3176  -31.7734   22.8179 C   0  0  0  0  0  0  0  0  0  0  0  0
  -24.3008  -34.2964   23.9196 C   0  0  0  0  0  0  0  0  0  0  0  0
  -23.7602  -22.6430   27.9432 C   0  0  0  0  0  0  0  0  0  0  0  0
  -30.2622  -26.1473   19.1271 C   0  0  0  0  0  0  0  0  0  0  0  0
  -25.1988  -30.2080   19.6697 C   0  0  0  0  0  0  0  0  0  0  0  0
  -24.1686  -30.5112   22.4250 C   0  0  0  0  0  0  0  0  0  0  0  0
  -30.2016  -27.2282   20.2034 C   0  0  0  0  0  0  0  0  0  0  0  0
  -27.2699  -22.6765   27.3454 C   0  0  0  0  0  0  0  0  0  0  0  0
  -29.1302  -26.8935   21.2363 C   0  0  0  0  0  0  0  0  0  0  0  0
  -27.4088  -22.0696   25.9481 C   0  0  0  0  0  0  0  0  0  0  0  0
  -26.1477  -22.0124   28.1401 C   0  0  0  0  0  0  0  0  0  0  0  0
  -24.9770  -21.3830   26.0648 C   0  0  0  0  0  0  0  0  0  0  0  0
  -27.7408  -26.8334   20.5903 C   0  0  1  0  0  0  0  0  0  0  0  0
  -26.1328  -30.2636   20.8747 C   0  0  1  0  0  0  0  0  0  0  0  0
  -26.0593  -22.0581   25.2051 C   0  0  2  0  0  0  0  0  0  0  0  0
  -24.3767  -36.4924   25.1317 C   0  0  0  0  0  0  0  0  0  0  0  0
  -26.6994  -30.2983   25.4615 C   0  0  0  0  0  0  0  0  0  0  0  0
  -25.8318  -32.3296   26.6402 C   0  0  0  0  0  0  0  0  0  0  0  0
  -27.9262  -32.4711   25.2926 C   0  0  0  0  0  0  0  0  0  0  0  0
  -23.1897  -35.7507   21.5938 C   0  0  0  0  0  0  0  0  0  0  0  0
  -21.3715  -23.2176   27.5928 C   0  0  0  0  0  0  0  0  0  0  0  0
  -18.3294  -25.4059   23.1812 C   0  0  0  0  0  0  0  0  0  0  0  0
  -18.4229  -26.7136   21.0552 C   0  0  0  0  0  0  0  0  0  0  0  0
  -19.3699  -27.5145   20.1835 C   0  0  0  0  0  0  0  0  0  1  0  0
  -25.7025  -32.2583   24.1085 C   0  0  1  0  0  0  0  0  0  0  0  0
  -24.4039  -35.8041   23.7759 C   0  0  2  0  0  0  0  0  0  0  0  0
  -26.5244  -31.8264   25.3557 C   0  0  0  0  0  0  0  0  0  0  0  0
  -25.9362  -20.1027   23.7072 N   0  0  0  0  0  0  0  0  0  0  0  0
  -26.1804  -21.4181   23.8345 N   0  0  0  0  0  0  0  0  0  0  0  0
  -25.5251  -30.9260   22.0307 N   0  0  0  0  0  0  0  0  0  0  0  0
  -24.8953  -22.0362   27.3807 N   0  0  0  0  0  0  0  0  0  0  0  0
  -26.7967  -23.3517   22.6130 N   0  0  0  0  0  0  0  0  0  0  0  0
  -26.7154  -20.1134   19.4662 N   0  0  0  0  0  0  0  0  0  0  0  0
  -27.2311  -28.1686   20.3626 N   0  0  0  0  0  0  0  0  0  0  0  0
  -25.5439  -33.7017   23.9680 N   0  0  0  0  0  0  0  0  0  0  0  0
  -22.6165  -22.6274   27.1543 N   0  0  0  0  0  0  0  0  0  0  0  0
  -23.2701  -36.3256   22.9613 N   0  3  0  0  0  0  0  0  0  0  0  0
  -19.1636  -26.1893   22.2302 N   0  3  0  0  0  0  0  0  0  0  0  0
  -27.1175  -22.3405   19.8361 O   0  0  0  0  0  0  0  0  0  0  0  0
  -26.3338  -28.5425   22.4786 O   0  0  0  0  0  0  0  0  0  0  0  0
  -27.4563  -32.1389   22.5159 O   0  0  0  0  0  0  0  0  0  0  0  0
  -23.2251  -33.7057   23.9863 O   0  0  0  0  0  0  0  0  0  0  0  0
  -23.7671  -23.1649   29.0632 O   0  0  0  0  0  0  0  0  0  0  0  0
  -25.4704  -14.7469   20.2944 O   0  0  0  0  0  0  0  0  0  0  0  0
  -19.9201  -28.5919   20.9404 O   0  0  0  0  0  0  0  0  0  1  0  0
  -21.0189  -11.8906   21.8532 F   0  0  0  0  0  0  0  0  0  0  0  0
  -25.0387  -14.1339   22.9553 F   0  0  0  0  0  0  0  0  0  0  0  0
  -21.3747  -26.2553   27.2967 Cl  0  0  0  0  0  0  0  0  0  0  0  0
  -19.9258  -21.2176   25.7971 Cl  0  0  0  0  0  0  0  0  0  0  0  0
  1  2  1  0  0  0  0
  1  5  2  0  0  0  0
  2  6  2  0  0  0  0
  3  8  2  0  0  0  0
  3 17  1  0  0  0  0
  4  9  1  0  0  0  0
  4 17  2  0  0  0  0
  5 19  1  0  0  0  0
  6 21  1  0  0  0  0
  7 10  2  0  0  0  0
  7 20  1  0  0  0  0
  8 25  1  0  0  0  0
  9 25  2  0  0  0  0
 10 26  1  0  0  0  0
 11 12  2  0  0  0  0
 11 27  1  0  0  0  0
 12 28  1  0  0  0  0
 13 22  1  0  0  0  0
 13 26  2  0  0  0  0
 14 23  1  0  0  0  0
 14 30  2  0  0  0  0
 15 23  2  0  0  0  0
 15 31  1  0  0  0  0
 16 28  2  0  0  0  0
 16 29  1  0  0  0  0
 17 32  1  0  0  0  0
 18 32  1  0  0  0  0
 18 33  2  0  0  0  0
 18 34  1  0  0  0  0
 19 21  2  0  0  0  0
 19 39  1  0  0  0  0
 20 22  2  0  0  0  0
 20 40  1  0  0  0  0
 21 48  1  0  0  0  0
 22 41  1  0  0  0  0
 23 57  1  0  0  0  0
 24 30  1  0  0  0  0
 24 31  2  0  0  0  0
 24 56  1  0  0  0  0
 25 79  1  0  0  0  0
 26 80  1  0  0  0  0
 27 29  2  0  0  0  0
 27 79  1  0  0  0  0
 28 81  1  0  0  0  0
 29 82  1  0  0  0  0
 30 83  1  0  0  0  0
 31 84  1  0  0  0  0
 32 63  2  0  0  0  0
 33 64  1  0  0  0  0
 33 67  1  0  0  0  0
 34 68  1  0  0  0  0
 34 74  2  0  0  0  0
 35 49  1  0  0  0  0
 35 69  1  0  0  0  0
 35 75  2  0  0  0  0
 36 60  1  0  0  0  0
 36 65  1  0  0  0  0
 36 76  2  0  0  0  0
 37 61  1  0  0  0  0
 37 70  1  0  0  0  0
 37 77  2  0  0  0  0
 38 66  1  0  0  0  0
 38 71  1  0  0  0  0
 38 78  2  0  0  0  0
 39 42  1  0  0  0  0
 40 49  1  0  0  0  0
 41 65  1  0  0  0  0
 42 44  1  0  0  0  0
 43 45  1  0  0  0  0
 43 46  1  0  0  0  0
 44 48  1  0  0  0  0
 45 50  1  0  0  0  0
 46 66  1  0  0  0  0
 47 50  1  0  0  0  0
 47 66  1  0  0  0  0
 48 69  1  0  0  0  0
 49 65  1  0  0  0  0
 50 64  1  0  0  0  0
 51 61  1  0  0  0  0
 52 62  1  0  0  0  0
 53 62  1  0  0  0  0
 54 62  1  0  0  0  0
 55 72  1  0  0  0  0
 56 71  1  0  0  0  0
 57 73  1  0  0  0  0
 58 59  1  0  0  0  0
 58 73  1  0  0  0  0
 59 80  1  0  0  0  0
 60 62  1  0  0  0  0
 60 70  1  0  0  0  0
 61 72  1  0  0  0  0
 63 64  1  0  0  0  0
M  CHG  2  72   1  73   1
M  ISO  4  38 100  59 101  71 100  80 101
M  END
> <Batch ID>
0036

> <Smiles>
CNC(C)C(=O)NC(C(=O)N1Cc2cc([101O:1][101CH2:1]CNCc3cc(Cl)c(C[100NH:0][100C:0](=O)N4CCCC(n5nc(-c6ccc(Oc7ccc(F)cc7F)cc6)c(C(N)=O)c5N)C4)c(Cl)c3)ccc2CC1C(=O)NC1CCCc2ccccc21)C(C)(C)C

> <Shape>
0.251

> <Color>
0.069

> <Negative vol penalty>
0.000

$$$$

  -OEChem-04042321543D

 86 94  0     1  0  0  0  0  0999 V2000
  -27.1966  -24.1590   16.8724 C   0  0  0  0  0  0  0  0  0  0  0  0
  -26.1989  -25.0894   17.1405 C   0  0  0  0  0  0  0  0  0  0  0  0
  -25.9556  -12.9003   19.5835 C   0  0  0  0  0  0  0  0  0  0  0  0
  -24.3258  -13.4138   21.2915 C   0  0  0  0  0  0  0  0  0  0  0  0
  -28.2318  -23.9700   17.7856 C   0  0  0  0  0  0  0  0  0  0  0  0
  -26.2425  -25.8397   18.3161 C   0  0  0  0  0  0  0  0  0  0  0  0
  -22.9109  -29.4267   18.8030 C   0  0  0  0  0  0  0  0  0  0  0  0
  -26.2183  -11.6779   20.2017 C   0  0  0  0  0  0  0  0  0  0  0  0
  -24.5885  -12.1914   21.9097 C   0  0  0  0  0  0  0  0  0  0  0  0
  -21.5602  -29.1740   19.0385 C   0  0  0  0  0  0  0  0  0  0  0  0
  -24.5698   -9.0484   23.7372 C   0  0  0  0  0  0  0  0  0  0  0  0
  -23.4802   -8.2883   24.1620 C   0  0  0  0  0  0  0  0  0  0  0  0
  -21.0150  -22.9143   21.6380 C   0  0  0  0  0  0  0  0  0  0  0  0
  -21.8580  -29.7750   21.3557 C   0  0  0  0  0  0  0  0  0  0  0  0
  -23.5321  -24.0100   22.1342 C   0  0  0  0  0  0  0  0  0  0  0  0
  -22.6670   -8.1839   21.8894 C   0  0  0  0  0  0  0  0  0  0  0  0
  -25.0094  -13.7683   20.1284 C   0  0  0  0  0  0  0  0  0  0  0  0
  -21.2877  -24.2311   21.2676 C   0  0  0  0  0  0  0  0  0  0  0  0
  -23.7769  -15.2922   18.4955 C   0  0  0  0  0  0  0  0  0  0  0  0
  -28.2805  -24.7099   18.9786 C   0  0  0  0  0  0  0  0  0  0  0  0
  -23.7491  -29.8457   19.8462 C   0  0  0  0  0  0  0  0  0  0  0  0
  -27.2920  -25.6806   19.2391 C   0  0  0  0  0  0  0  0  0  0  0  0
  -23.2184  -30.0349   21.1302 C   0  0  0  0  0  0  0  0  0  0  0  0
  -22.0008  -22.1453   22.2566 C   0  0  0  0  0  0  0  0  0  0  0  0
  -22.5463  -24.7789   21.5157 C   0  0  0  0  0  0  0  0  0  0  0  0
  -23.2593  -22.6931   22.5046 C   0  0  0  0  0  0  0  0  0  0  0  0
  -25.5348  -11.3234   21.3648 C   0  0  0  0  0  0  0  0  0  0  0  0
  -21.0342  -29.3453   20.3156 C   0  0  0  0  0  0  0  0  0  0  0  0
  -24.7080   -9.3764   22.3885 C   0  0  0  0  0  0  0  0  0  0  0  0
  -22.5288   -7.8560   23.2381 C   0  0  0  0  0  0  0  0  0  0  0  0
  -23.7566   -8.9441   21.4646 C   0  0  0  0  0  0  0  0  0  0  0  0
  -24.7379  -15.0315   19.4906 C   0  0  0  0  0  0  0  0  0  0  0  0
  -23.9159  -16.6319   18.2265 C   0  0  0  0  0  0  0  0  0  0  0  0
  -20.2295  -25.0269   20.6138 C   0  0  0  0  0  0  0  0  0  0  0  0
  -22.8421  -14.4029   17.8702 C   0  0  0  0  0  0  0  0  0  0  0  0
  -26.3345  -28.6562   21.2620 C   0  0  0  0  0  0  0  0  0  0  0  0
  -26.3246  -31.5091   22.8056 C   0  0  0  0  0  0  0  0  0  0  0  0
  -24.5466  -34.2196   23.8729 C   0  0  0  0  0  0  0  0  0  0  0  0
  -25.9895  -21.2415   21.4363 C   0  0  0  0  0  0  0  0  0  0  0  0
  -29.4279  -24.4707   19.9281 C   0  0  0  0  0  0  0  0  0  0  0  0
  -25.1981  -30.1399   19.5699 C   0  0  0  0  0  0  0  0  0  0  0  0
  -24.0716  -30.5026   22.2800 C   0  0  0  0  0  0  0  0  0  0  0  0
  -29.1508  -24.9852   21.3369 C   0  0  0  0  0  0  0  0  0  0  0  0
  -27.1685  -20.1405   18.2622 C   0  0  0  0  0  0  0  0  0  0  0  0
  -28.6381  -26.4163   21.2761 C   0  0  0  0  0  0  0  0  0  0  0  0
  -26.5926  -18.7298   18.1273 C   0  0  0  0  0  0  0  0  0  0  0  0
  -27.5717  -20.4502   19.7022 C   0  0  0  0  0  0  0  0  0  0  0  0
  -25.9334  -18.8251   20.5677 C   0  0  0  0  0  0  0  0  0  0  0  0
  -27.3021  -26.4863   20.5256 C   0  0  1  0  0  0  0  0  0  0  0  0
  -26.0712  -30.0676   20.8189 C   0  0  1  0  0  0  0  0  0  0  0  0
  -25.4605  -18.4868   19.1435 C   0  0  2  0  0  0  0  0  0  0  0  0
  -21.6864  -20.7377   22.6440 C   0  0  0  0  0  0  0  0  0  0  0  0
  -22.8619  -26.1863   21.1275 C   0  0  0  0  0  0  0  0  0  0  0  0
  -24.8042  -36.3694   25.1415 C   0  0  0  0  0  0  0  0  0  0  0  0
  -26.4087  -29.9495   25.4268 C   0  0  0  0  0  0  0  0  0  0  0  0
  -25.7132  -32.0416   26.6132 C   0  0  0  0  0  0  0  0  0  0  0  0
  -27.8750  -31.9746   25.3703 C   0  0  0  0  0  0  0  0  0  0  0  0
  -23.7204  -35.8338   21.5339 C   0  0  0  0  0  0  0  0  0  0  0  0
  -24.3305  -21.8888   23.1649 C   0  0  0  0  0  0  0  0  0  0  0  0
  -18.1137  -27.7789   21.7518 C   0  0  0  0  0  0  0  0  0  0  0  0
  -18.3162  -26.5688   20.8553 C   0  0  0  0  0  0  0  0  0  0  0  0
  -19.3607  -28.6481   21.8548 C   0  0  0  0  0  0  0  0  0  1  0  0
  -25.7033  -32.0345   24.0772 C   0  0  1  0  0  0  0  0  0  0  0  0
  -24.8228  -35.7089   23.7718 C   0  0  2  0  0  0  0  0  0  0  0  0
  -26.4091  -31.4894   25.3508 C   0  0  0  0  0  0  0  0  0  0  0  0
  -25.4360  -16.1183   19.8306 N   0  0  0  0  0  0  0  0  0  0  0  0
  -24.9131  -17.0749   19.0447 N   0  0  0  0  0  0  0  0  0  0  0  0
  -25.4835  -30.7710   21.9608 N   0  0  0  0  0  0  0  0  0  0  0  0
  -26.4534  -20.2007   20.6149 N   0  0  0  0  0  0  0  0  0  0  0  0
  -23.2812  -17.4624   17.3722 N   0  0  0  0  0  0  0  0  0  0  0  0
  -20.1493  -24.9929   19.2836 N   0  0  0  0  0  0  0  0  0  0  0  0
  -22.8329  -13.0580   18.2647 N   0  0  0  0  0  0  0  0  0  0  0  0
  -26.9554  -27.8734   20.3074 N   0  0  0  0  0  0  0  0  0  0  0  0
  -25.7124  -33.4891   23.9653 N   0  0  0  0  0  0  0  0  0  0  0  0
  -24.9223  -20.9223   22.2668 N   0  0  0  0  0  0  0  0  0  0  0  0
  -19.4034  -25.7455   21.3852 N   0  3  0  0  0  0  0  0  0  0  0  0
  -23.7956  -36.3693   22.9176 N   0  3  0  0  0  0  0  0  0  0  0  0
  -22.0500  -14.7858   16.9761 O   0  0  0  0  0  0  0  0  0  0  0  0
  -26.0006  -28.3039   22.3872 O   0  0  0  0  0  0  0  0  0  0  0  0
  -27.5104  -31.7511   22.5671 O   0  0  0  0  0  0  0  0  0  0  0  0
  -23.4102  -33.7514   23.8738 O   0  0  0  0  0  0  0  0  0  0  0  0
  -26.4860  -22.3730   21.4260 O   0  0  0  0  0  0  0  0  0  0  0  0
  -25.7907  -10.1305   21.9682 O   0  0  0  0  0  0  0  0  0  0  0  0
  -19.7163  -29.0987   20.5484 O   0  0  0  0  0  0  0  0  0  1  0  0
  -21.4833   -7.1247   23.6460 F   0  0  0  0  0  0  0  0  0  0  0  0
  -23.8846   -9.2550   20.1674 F   0  0  0  0  0  0  0  0  0  0  0  0
  1  2  1  0  0  0  0
  1  5  2  0  0  0  0
  2  6  2  0  0  0  0
  3  8  2  0  0  0  0
  3 17  1  0  0  0  0
  4  9  1  0  0  0  0
  4 17  2  0  0  0  0
  5 20  1  0  0  0  0
  6 22  1  0  0  0  0
  7 10  2  0  0  0  0
  7 21  1  0  0  0  0
  8 27  1  0  0  0  0
  9 27  2  0  0  0  0
 10 28  1  0  0  0  0
 11 12  2  0  0  0  0
 11 29  1  0  0  0  0
 12 30  1  0  0  0  0
 13 18  1  0  0  0  0
 13 24  2  0  0  0  0
 14 23  1  0  0  0  0
 14 28  2  0  0  0  0
 15 25  1  0  0  0  0
 15 26  2  0  0  0  0
 16 30  2  0  0  0  0
 16 31  1  0  0  0  0
 17 32  1  0  0  0  0
 18 25  2  0  0  0  0
 18 34  1  0  0  0  0
 19 32  1  0  0  0  0
 19 33  2  0  0  0  0
 19 35  1  0  0  0  0
 20 22  2  0  0  0  0
 20 40  1  0  0  0  0
 21 23  2  0  0  0  0
 21 41  1  0  0  0  0
 22 49  1  0  0  0  0
 23 42  1  0  0  0  0
 24 26  1  0  0  0  0
 24 52  1  0  0  0  0
 25 53  1  0  0  0  0
 26 59  1  0  0  0  0
 27 83  1  0  0  0  0
 28 84  1  0  0  0  0
 29 31  2  0  0  0  0
 29 83  1  0  0  0  0
 30 85  1  0  0  0  0
 31 86  1  0  0  0  0
 32 66  2  0  0  0  0
 33 67  1  0  0  0  0
 33 70  1  0  0  0  0
 34 71  1  0  0  0  0
 34 76  2  0  0  0  0
 35 72  1  0  0  0  0
 35 78  2  0  0  0  0
 36 50  1  0  0  0  0
 36 73  1  0  0  0  0
 36 79  2  0  0  0  0
 37 63  1  0  0  0  0
 37 68  1  0  0  0  0
 37 80  2  0  0  0  0
 38 64  1  0  0  0  0
 38 74  1  0  0  0  0
 38 81  2  0  0  0  0
 39 69  1  0  0  0  0
 39 75  1  0  0  0  0
 39 82  2  0  0  0  0
 40 43  1  0  0  0  0
 41 50  1  0  0  0  0
 42 68  1  0  0  0  0
 43 45  1  0  0  0  0
 44 46  1  0  0  0  0
 44 47  1  0  0  0  0
 45 49  1  0  0  0  0
 46 51  1  0  0  0  0
 47 69  1  0  0  0  0
 48 51  1  0  0  0  0
 48 69  1  0  0  0  0
 49 73  1  0  0  0  0
 50 68  1  0  0  0  0
 51 67  1  0  0  0  0
 54 64  1  0  0  0  0
 55 65  1  0  0  0  0
 56 65  1  0  0  0  0
 57 65  1  0  0  0  0
 58 77  1  0  0  0  0
 59 75  1  0  0  0  0
 60 61  1  0  0  0  0
 60 62  1  0  0  0  0
 61 76  1  0  0  0  0
 62 84  1  0  0  0  0
 63 65  1  0  0  0  0
 63 74  1  0  0  0  0
 64 77  1  0  0  0  0
 66 67  1  0  0  0  0
M  CHG  2  76   1  77   1
M  ISO  4  39 100  62 101  75 100  84 101
M  END
> <Batch ID>
0036

> <Smiles>
CNC(C)C(=O)NC(C(=O)N1Cc2cc([101O:1][101CH2:1]CCNC(=N)c3cc(C)c(C[100NH:0][100C:0](=O)N4CCCC(n5nc(-c6ccc(Oc7ccc(F)cc7F)cc6)c(C(N)=O)c5N)C4)cc3C)ccc2CC1C(=O)NC1CCCc2ccccc21)C(C)(C)C

> <Shape>
0.280

> <Color>
0.077

> <Negative vol penalty>
0.000

$$$$

  -OEChem-04042321543D

 88 97  0     1  0  0  0  0  0999 V2000
  -26.5440  -35.0675   23.8885 C   0  0  0  0  0  0  0  0  0  0  0  0
  -27.0006  -33.7928   23.5689 C   0  0  0  0  0  0  0  0  0  0  0  0
  -27.7237  -16.7381   19.9727 C   0  0  0  0  0  0  0  0  0  0  0  0
  -28.8699  -18.3213   18.5525 C   0  0  0  0  0  0  0  0  0  0  0  0
  -25.2336  -35.2470   24.3297 C   0  0  0  0  0  0  0  0  0  0  0  0
  -26.1474  -32.6967   23.6914 C   0  0  0  0  0  0  0  0  0  0  0  0
  -26.3981  -29.5846   19.7042 C   0  0  0  0  0  0  0  0  0  0  0  0
  -24.9682  -26.4764   14.8752 C   0  0  0  0  0  0  0  0  0  0  0  0
  -26.2682  -26.5831   15.3695 C   0  0  0  0  0  0  0  0  0  0  0  0
  -28.9388  -16.1166   20.2606 C   0  0  0  0  0  0  0  0  0  0  0  0
  -30.0851  -17.6998   18.8405 C   0  0  0  0  0  0  0  0  0  0  0  0
  -27.4891  -28.7190   19.6398 C   0  0  0  0  0  0  0  0  0  0  0  0
  -31.0364  -13.9326   18.7591 C   0  0  0  0  0  0  0  0  0  0  0  0
  -31.0754  -12.5388   18.7219 C   0  0  0  0  0  0  0  0  0  0  0  0
  -26.1103  -26.9281   20.4830 C   0  0  0  0  0  0  0  0  0  0  0  0
  -31.7323  -12.4952   21.0465 C   0  0  0  0  0  0  0  0  0  0  0  0
  -27.6893  -17.8404   19.1186 C   0  0  0  0  0  0  0  0  0  0  0  0
  -25.5501  -19.0865   19.7341 C   0  0  0  0  0  0  0  0  0  0  0  0
  -24.3610  -34.1538   24.4484 C   0  0  0  0  0  0  0  0  0  0  0  0
  -25.1557  -29.1305   20.1696 C   0  0  0  0  0  0  0  0  0  0  0  0
  -24.8245  -32.8616   24.1358 C   0  0  0  0  0  0  0  0  0  0  0  0
  -25.0045  -27.7893   20.5499 C   0  0  0  0  0  0  0  0  0  0  0  0
  -24.6224  -25.4086   14.0470 C   0  0  0  0  0  0  0  0  0  0  0  0
  -27.2224  -25.6221   15.0355 C   0  0  0  0  0  0  0  0  0  0  0  0
  -26.8766  -24.5543   14.2072 C   0  0  0  0  0  0  0  0  0  0  0  0
  -25.5766  -24.4476   13.7130 C   0  0  0  0  0  0  0  0  0  0  0  0
  -30.1195  -16.5975   19.6946 C   0  0  0  0  0  0  0  0  0  0  0  0
  -27.3461  -27.3913   20.0319 C   0  0  0  0  0  0  0  0  0  0  0  0
  -31.3454  -14.6077   19.9400 C   0  0  0  0  0  0  0  0  0  0  0  0
  -31.4234  -11.8201   19.8656 C   0  0  0  0  0  0  0  0  0  0  0  0
  -31.6933  -13.8890   21.0837 C   0  0  0  0  0  0  0  0  0  0  0  0
  -26.4343  -18.4824   18.8203 C   0  0  0  0  0  0  0  0  0  0  0  0
  -24.5142  -19.5451   18.9575 C   0  0  0  0  0  0  0  0  0  0  0  0
  -30.3324  -24.6114   16.8438 C   0  0  0  0  0  0  0  0  0  0  0  0
  -30.8653  -23.4724   16.3763 C   0  0  0  0  0  0  0  0  0  0  0  0
  -25.6557  -19.2211   21.1576 C   0  0  0  0  0  0  0  0  0  0  0  0
  -23.2697  -29.8728   22.6183 C   0  0  0  0  0  0  0  0  0  0  0  0
  -21.2303  -27.8078   21.1696 C   0  0  0  0  0  0  0  0  0  0  0  0
  -21.4543  -24.6053   19.5229 C   0  0  0  0  0  0  0  0  0  0  0  0
  -24.1206  -21.0990   13.1885 C   0  0  0  0  0  0  0  0  0  0  0  0
  -22.9676  -34.3910   24.9746 C   0  0  0  0  0  0  0  0  0  0  0  0
  -23.9818  -30.0701   20.2078 C   0  0  0  0  0  0  0  0  0  0  0  0
  -23.6867  -27.2471   21.0377 C   0  0  0  0  0  0  0  0  0  0  0  0
  -31.1427  -25.6709   17.5400 C   0  0  0  0  0  0  0  0  0  0  0  0
  -22.0137  -33.2270   24.7192 C   0  0  0  0  0  0  0  0  0  0  0  0
  -30.4925  -26.0505   18.8649 C   0  0  0  0  0  0  0  0  0  0  0  0
  -22.2010  -18.6184   14.8733 C   0  0  0  0  0  0  0  0  0  0  0  0
  -22.6755  -31.9034   25.0893 C   0  0  0  0  0  0  0  0  0  0  0  0
  -22.9885  -18.3568   16.1583 C   0  0  0  0  0  0  0  0  0  0  0  0
  -23.1268  -18.8857   13.6886 C   0  0  0  0  0  0  0  0  0  0  0  0
  -24.9048  -19.6950   15.1910 C   0  0  0  0  0  0  0  0  0  0  0  0
  -28.2853  -25.1694   18.0184 C   0  0  0  0  0  0  0  0  0  0  0  0
  -23.9216  -31.6510   24.2320 C   0  0  1  0  0  0  0  0  0  0  0  0
  -22.8951  -29.6293   21.1837 C   0  0  1  0  0  0  0  0  0  0  0  0
  -24.0135  -19.4754   16.4254 C   0  0  2  0  0  0  0  0  0  0  0  0
  -29.0014  -26.3380   18.6908 C   0  0  1  0  0  0  0  0  0  1  0  0
  -23.2232  -25.3178   13.5316 C   0  0  0  0  0  0  0  0  0  0  0  0
  -27.9017  -23.5253   13.8489 C   0  0  0  0  0  0  0  0  0  0  0  0
  -20.0095  -23.5800   17.7457 C   0  0  0  0  0  0  0  0  0  0  0  0
  -19.7552  -26.5287   23.5143 C   0  0  0  0  0  0  0  0  0  0  0  0
  -19.5168  -24.4497   22.1398 C   0  0  0  0  0  0  0  0  0  0  0  0
  -18.4656  -26.5776   21.3721 C   0  0  0  0  0  0  0  0  0  0  0  0
  -23.7705  -24.1555   17.7363 C   0  0  0  0  0  0  0  0  0  0  0  0
  -25.2026  -23.3028   12.8257 C   0  0  0  0  0  0  0  0  0  0  0  0
  -28.6138  -25.7616   15.5791 C   0  0  0  0  0  0  0  0  0  0  0  0
  -20.9778  -26.3216   21.2497 C   0  0  1  0  0  0  0  0  0  0  0  0
  -21.2974  -24.3343   18.0376 C   0  0  2  0  0  0  0  0  0  0  0  0
  -19.7045  -25.9804   22.0742 C   0  0  0  0  0  0  0  0  0  0  0  0
  -25.9981  -18.5495   17.5596 N   0  0  0  0  0  0  0  0  0  0  0  0
  -24.8285  -19.2010   17.6758 N   0  0  0  0  0  0  0  0  0  0  0  0
  -22.5703  -28.2066   21.0629 N   0  0  0  0  0  0  0  0  0  0  0  0
  -24.0730  -19.9580   14.0063 N   0  0  0  0  0  0  0  0  0  0  0  0
  -23.3742  -20.2050   19.2529 N   0  0  0  0  0  0  0  0  0  0  0  0
  -26.2894  -20.3587   21.6760 N   0  0  0  0  0  0  0  0  0  0  0  0
  -23.5429  -31.1953   22.9116 N   0  0  0  0  0  0  0  0  0  0  0  0
  -20.9460  -25.8381   19.8736 N   0  0  0  0  0  0  0  0  0  0  0  0
  -25.0408  -22.0701   13.5639 N   0  0  0  0  0  0  0  0  0  0  0  0
  -28.9095  -24.7986   16.6954 N   0  3  1  0  0  0  0  0  0  0  0  0
  -22.4417  -23.5222   17.5355 N   0  3  0  0  0  0  0  0  0  0  0  0
  -25.2162  -18.3502   21.9462 O   0  0  0  0  0  0  0  0  0  0  0  0
  -23.3067  -28.9310   23.4014 O   0  0  0  0  0  0  0  0  0  0  0  0
  -20.2735  -28.5859   21.1933 O   0  0  0  0  0  0  0  0  0  0  0  0
  -21.9724  -23.8021   20.2955 O   0  0  0  0  0  0  0  0  0  0  0  0
  -23.3930  -21.2441   12.2004 O   0  0  0  0  0  0  0  0  0  0  0  0
  -31.3054  -15.9915   19.9756 O   0  0  0  0  0  0  0  0  0  0  0  0
  -28.4095  -26.5444   19.9706 O   0  0  0  0  0  0  0  0  0  1  0  0
  -31.4593  -10.4816   19.8301 F   0  0  0  0  0  0  0  0  0  0  0  0
  -31.9900  -14.5320   22.2214 F   0  0  0  0  0  0  0  0  0  0  0  0
  1  2  1  0  0  0  0
  1  5  2  0  0  0  0
  2  6  2  0  0  0  0
  3 10  2  0  0  0  0
  3 17  1  0  0  0  0
  4 11  1  0  0  0  0
  4 17  2  0  0  0  0
  5 19  1  0  0  0  0
  6 21  1  0  0  0  0
  7 12  2  0  0  0  0
  7 20  1  0  0  0  0
  8  9  2  0  0  0  0
  8 23  1  0  0  0  0
  9 24  1  0  0  0  0
 10 27  1  0  0  0  0
 11 27  2  0  0  0  0
 12 28  1  0  0  0  0
 13 14  2  0  0  0  0
 13 29  1  0  0  0  0
 14 30  1  0  0  0  0
 15 22  1  0  0  0  0
 15 28  2  0  0  0  0
 16 30  2  0  0  0  0
 16 31  1  0  0  0  0
 17 32  1  0  0  0  0
 18 32  1  0  0  0  0
 18 33  2  0  0  0  0
 18 36  1  0  0  0  0
 19 21  2  0  0  0  0
 19 41  1  0  0  0  0
 20 22  2  0  0  0  0
 20 42  1  0  0  0  0
 21 53  1  0  0  0  0
 22 43  1  0  0  0  0
 23 26  2  0  0  0  0
 23 57  1  0  0  0  0
 24 25  2  0  0  0  0
 24 65  1  0  0  0  0
 25 26  1  0  0  0  0
 25 58  1  0  0  0  0
 26 64  1  0  0  0  0
 27 85  1  0  0  0  0
 28 86  1  0  0  0  0
 29 31  2  0  0  0  0
 29 85  1  0  0  0  0
 30 87  1  0  0  0  0
 31 88  1  0  0  0  0
 32 69  2  0  0  0  0
 33 70  1  0  0  0  0
 33 73  1  0  0  0  0
 34 35  2  0  0  0  0
 34 44  1  0  0  0  0
 34 78  1  0  0  0  0
 36 74  1  0  0  0  0
 36 80  2  0  0  0  0
 37 54  1  0  0  0  0
 37 75  1  0  0  0  0
 37 81  2  0  0  0  0
 38 66  1  0  0  0  0
 38 71  1  0  0  0  0
 38 82  2  0  0  0  0
 39 67  1  0  0  0  0
 39 76  1  0  0  0  0
 39 83  2  0  0  0  0
 40 72  1  0  0  0  0
 40 77  1  0  0  0  0
 40 84  2  0  0  0  0
 41 45  1  0  0  0  0
 42 54  1  0  0  0  0
 43 71  1  0  0  0  0
 44 46  1  0  0  0  0
 45 48  1  0  0  0  0
 46 56  1  0  0  0  0
 47 49  1  0  0  0  0
 47 50  1  0  0  0  0
 48 53  1  0  0  0  0
 49 55  1  0  0  0  0
 50 72  1  0  0  0  0
 51 55  1  0  0  0  0
 51 72  1  0  0  0  0
 52 56  1  0  0  0  0
 52 78  1  0  0  0  0
 53 75  1  0  0  0  0
 54 71  1  0  0  0  0
 55 70  1  0  0  0  0
 56 86  1  0  0  0  0
 59 67  1  0  0  0  0
 60 68  1  0  0  0  0
 61 68  1  0  0  0  0
 62 68  1  0  0  0  0
 63 79  1  0  0  0  0
 64 77  1  0  0  0  0
 65 78  1  0  0  0  0
 66 68  1  0  0  0  0
 66 76  1  0  0  0  0
 67 79  1  0  0  0  0
 69 70  1  0  0  0  0
M  CHG  2  78   1  79   1
M  ISO  4  40 100  56 101  77 100  86 101
M  END
> <Batch ID>
0036

> <Smiles>
C=C1CC[101CH:1]([101O:1]c2ccc3c(c2)CN(C(=O)C(NC(=O)C(C)NC)C(C)(C)C)C(C(=O)NC2CCCc4ccccc42)C3)CN1Cc1ccc(C)c(C[100NH:0][100C:0](=O)N2CCCC(n3nc(-c4ccc(Oc5ccc(F)cc5F)cc4)c(C(N)=O)c3N)C2)c1C

> <Shape>
0.212

> <Color>
0.058

> <Negative vol penalty>
0.000

$$$$

  -OEChem-04042321543D

 87 96  0     1  0  0  0  0  0999 V2000
  -16.6923  -29.9939   23.7053 C   0  0  0  0  0  0  0  0  0  0  0  0
  -17.0933  -28.6864   23.9605 C   0  0  0  0  0  0  0  0  0  0  0  0
  -23.3612  -10.1552   22.2336 C   0  0  0  0  0  0  0  0  0  0  0  0
  -23.5996   -9.5451   19.9080 C   0  0  0  0  0  0  0  0  0  0  0  0
  -17.5119  -30.8402   22.9596 C   0  0  0  0  0  0  0  0  0  0  0  0
  -18.3137  -28.2241   23.4692 C   0  0  0  0  0  0  0  0  0  0  0  0
  -23.6586  -23.7471   25.1138 C   0  0  0  0  0  0  0  0  0  0  0  0
  -22.6318   -8.9890   22.4648 C   0  0  0  0  0  0  0  0  0  0  0  0
  -22.8701   -8.3788   20.1393 C   0  0  0  0  0  0  0  0  0  0  0  0
  -24.3854  -22.6905   24.5668 C   0  0  0  0  0  0  0  0  0  0  0  0
  -19.4760   -7.8856   21.9669 C   0  0  0  0  0  0  0  0  0  0  0  0
  -18.3111   -7.9907   22.7268 C   0  0  0  0  0  0  0  0  0  0  0  0
  -25.7550  -24.2661   23.3582 C   0  0  0  0  0  0  0  0  0  0  0  0
  -31.9278  -18.2941   24.2241 C   0  0  0  0  0  0  0  0  0  0  0  0
  -32.0716  -16.5965   22.5110 C   0  0  0  0  0  0  0  0  0  0  0  0
  -19.2311   -6.4552   24.3495 C   0  0  0  0  0  0  0  0  0  0  0  0
  -23.8451  -10.4333   20.9552 C   0  0  0  0  0  0  0  0  0  0  0  0
  -24.1643  -12.9637   20.9056 C   0  0  0  0  0  0  0  0  0  0  0  0
  -18.7473  -30.3910   22.4672 C   0  0  0  0  0  0  0  0  0  0  0  0
  -23.9681  -25.0730   24.7779 C   0  0  0  0  0  0  0  0  0  0  0  0
  -19.1500  -29.0648   22.7152 C   0  0  0  0  0  0  0  0  0  0  0  0
  -25.0323  -25.3379   23.9042 C   0  0  0  0  0  0  0  0  0  0  0  0
  -30.5372  -18.2850   24.1163 C   0  0  0  0  0  0  0  0  0  0  0  0
  -29.9137  -17.4317   23.2059 C   0  0  0  0  0  0  0  0  0  0  0  0
  -30.6810  -16.5874   22.4032 C   0  0  0  0  0  0  0  0  0  0  0  0
  -22.3862   -8.1008   21.4177 C   0  0  0  0  0  0  0  0  0  0  0  0
  -25.4319  -22.9497   23.6866 C   0  0  0  0  0  0  0  0  0  0  0  0
  -20.5185   -7.0653   22.3982 C   0  0  0  0  0  0  0  0  0  0  0  0
  -18.1886   -7.2755   23.9181 C   0  0  0  0  0  0  0  0  0  0  0  0
  -20.3961   -6.3501   23.5895 C   0  0  0  0  0  0  0  0  0  0  0  0
  -32.6951  -17.4499   23.4214 C   0  0  0  0  0  0  0  0  0  0  0  0
  -24.5982  -11.6380   20.7156 C   0  0  0  0  0  0  0  0  0  0  0  0
  -25.2411  -13.7334   20.5386 C   0  0  0  0  0  0  0  0  0  0  0  0
  -27.8529  -20.6142   24.1921 C   0  0  0  0  0  0  0  0  0  0  0  0
  -22.9009  -13.4555   21.3722 C   0  0  0  0  0  0  0  0  0  0  0  0
  -22.4110  -27.4468   23.3483 C   0  0  0  0  0  0  0  0  0  0  0  0
  -25.0422  -29.1527   24.1781 C   0  0  0  0  0  0  0  0  0  0  0  0
  -28.6129  -28.6366   24.2106 C   0  0  0  0  0  0  0  0  0  0  0  0
  -30.7017  -14.8194   20.6088 C   0  0  0  0  0  0  0  0  0  0  0  0
  -19.5776  -31.3280   21.6260 C   0  0  0  0  0  0  0  0  0  0  0  0
  -23.1918  -26.2027   25.3973 C   0  0  0  0  0  0  0  0  0  0  0  0
  -25.4177  -26.7442   23.5273 C   0  0  0  0  0  0  0  0  0  0  0  0
  -21.0260  -30.8755   21.4596 C   0  0  0  0  0  0  0  0  0  0  0  0
  -29.8206  -21.7966   22.3343 C   0  0  0  0  0  0  0  0  0  0  0  0
  -29.5463  -12.4709   18.1949 C   0  0  0  0  0  0  0  0  0  0  0  0
  -21.0848  -29.3932   21.1045 C   0  0  0  0  0  0  0  0  0  0  0  0
  -28.3132  -21.9055   22.1124 C   0  0  0  0  0  0  0  0  0  0  0  0
  -28.1203  -12.1539   18.6511 C   0  0  0  0  0  0  0  0  0  0  0  0
  -30.1879  -21.3080   23.7327 C   0  0  0  0  0  0  0  0  0  0  0  0
  -30.4898  -12.6701   19.3798 C   0  0  0  0  0  0  0  0  0  0  0  0
  -28.6129  -13.3351   20.8304 C   0  0  0  0  0  0  0  0  0  0  0  0
  -20.4780  -28.5341   22.2204 C   0  0  1  0  0  0  0  0  0  0  0  0
  -27.5326  -21.8873   23.4204 C   0  0  1  0  0  0  0  0  0  1  0  0
  -23.2628  -27.4922   24.5852 C   0  0  1  0  0  0  0  0  0  0  0  0
  -27.6119  -13.1902   19.6725 C   0  0  2  0  0  0  0  0  0  0  0  0
  -28.4214  -17.4253   23.0938 C   0  0  0  0  0  0  0  0  0  0  0  0
  -30.3970  -29.6647   25.6450 C   0  0  0  0  0  0  0  0  0  0  0  0
  -25.3252  -31.1504   21.8892 C   0  0  0  0  0  0  0  0  0  0  0  0
  -27.8009  -31.1198   22.2611 C   0  0  0  0  0  0  0  0  0  0  0  0
  -26.2797  -31.9195   24.0691 C   0  0  0  0  0  0  0  0  0  0  0  0
  -29.5946  -25.9870   25.0910 C   0  0  0  0  0  0  0  0  0  0  0  0
  -29.7348  -19.2036   24.9919 C   0  0  0  0  0  0  0  0  0  0  0  0
  -26.3715  -29.4516   23.5279 C   0  0  1  0  0  0  0  0  0  0  0  0
  -29.4944  -28.4591   25.4337 C   0  0  2  0  0  0  0  0  0  0  0  0
  -26.4302  -30.8862   22.9314 C   0  0  0  0  0  0  0  0  0  0  0  0
  -25.8528  -11.5660   20.2629 N   0  0  0  0  0  0  0  0  0  0  0  0
  -26.2164  -12.8561   20.1653 N   0  0  0  0  0  0  0  0  0  0  0  0
  -29.2232  -20.3474   24.2557 N   0  0  0  0  0  0  0  0  0  0  0  0
  -24.6246  -27.8145   24.1542 N   0  0  0  0  0  0  0  0  0  0  0  0
  -29.9453  -13.6684   20.3027 N   0  0  0  0  0  0  0  0  0  0  0  0
  -25.4393  -15.0682   20.5020 N   0  0  0  0  0  0  0  0  0  0  0  0
  -21.9049  -12.5277   21.7061 N   0  0  0  0  0  0  0  0  0  0  0  0
  -30.0682  -15.7131   21.4717 N   0  0  0  0  0  0  0  0  0  0  0  0
  -21.4108  -28.3998   23.3187 N   0  0  0  0  0  0  0  0  0  0  0  0
  -27.3895  -29.1821   24.5376 N   0  0  0  0  0  0  0  0  0  0  0  0
  -30.3527  -27.2502   25.2827 N   0  3  0  0  0  0  0  0  0  0  0  0
  -26.9740  -19.9229   24.7037 O   0  0  0  0  0  0  0  0  0  0  0  0
  -22.6567  -14.6817   21.4738 O   0  0  0  0  0  0  0  0  0  0  0  0
  -22.6448  -26.6101   22.4840 O   0  0  0  0  0  0  0  0  0  0  0  0
  -24.4015  -30.0716   24.6947 O   0  0  0  0  0  0  0  0  0  0  0  0
  -28.9750  -28.3260   23.0779 O   0  0  0  0  0  0  0  0  0  0  0  0
  -31.8173  -15.0122   20.1185 O   0  0  0  0  0  0  0  0  0  0  0  0
  -21.6747   -6.9626   21.6430 O   0  0  0  0  0  0  0  0  0  0  0  0
  -26.1425  -21.9202   23.1509 O   0  0  0  0  0  0  0  0  0  1  0  0
  -17.0705   -7.3777   24.6486 F   0  0  0  0  0  0  0  0  0  0  0  0
  -21.3947   -5.5613   24.0095 F   0  0  0  0  0  0  0  0  0  0  0  0
  -34.4108  -17.4621   23.5537 Cl  0  0  0  0  0  0  0  0  0  0  0  0
  1  2  1  0  0  0  0
  1  5  2  0  0  0  0
  2  6  2  0  0  0  0
  3  8  2  0  0  0  0
  3 17  1  0  0  0  0
  4  9  1  0  0  0  0
  4 17  2  0  0  0  0
  5 19  1  0  0  0  0
  6 21  1  0  0  0  0
  7 10  2  0  0  0  0
  7 20  1  0  0  0  0
  8 26  1  0  0  0  0
  9 26  2  0  0  0  0
 10 27  1  0  0  0  0
 11 12  2  0  0  0  0
 11 28  1  0  0  0  0
 12 29  1  0  0  0  0
 13 22  1  0  0  0  0
 13 27  2  0  0  0  0
 14 23  1  0  0  0  0
 14 31  2  0  0  0  0
 15 25  2  0  0  0  0
 15 31  1  0  0  0  0
 16 29  2  0  0  0  0
 16 30  1  0  0  0  0
 17 32  1  0  0  0  0
 18 32  1  0  0  0  0
 18 33  2  0  0  0  0
 18 35  1  0  0  0  0
 19 21  2  0  0  0  0
 19 40  1  0  0  0  0
 20 22  2  0  0  0  0
 20 41  1  0  0  0  0
 21 52  1  0  0  0  0
 22 42  1  0  0  0  0
 23 24  2  0  0  0  0
 23 62  1  0  0  0  0
 24 25  1  0  0  0  0
 24 56  1  0  0  0  0
 25 73  1  0  0  0  0
 26 83  1  0  0  0  0
 27 84  1  0  0  0  0
 28 30  2  0  0  0  0
 28 83  1  0  0  0  0
 29 85  1  0  0  0  0
 30 86  1  0  0  0  0
 31 87  1  0  0  0  0
 32 66  2  0  0  0  0
 33 67  1  0  0  0  0
 33 71  1  0  0  0  0
 34 53  1  0  0  0  0
 34 68  1  0  0  0  0
 34 77  2  0  0  0  0
 35 72  1  0  0  0  0
 35 78  2  0  0  0  0
 36 54  1  0  0  0  0
 36 74  1  0  0  0  0
 36 79  2  0  0  0  0
 37 63  1  0  0  0  0
 37 69  1  0  0  0  0
 37 80  2  0  0  0  0
 38 64  1  0  0  0  0
 38 75  1  0  0  0  0
 38 81  2  0  0  0  0
 39 70  1  0  0  0  0
 39 73  1  0  0  0  0
 39 82  2  0  0  0  0
 40 43  1  0  0  0  0
 41 54  1  0  0  0  0
 42 69  1  0  0  0  0
 43 46  1  0  0  0  0
 44 47  1  0  0  0  0
 44 49  1  0  0  0  0
 45 48  1  0  0  0  0
 45 50  1  0  0  0  0
 46 52  1  0  0  0  0
 47 53  1  0  0  0  0
 48 55  1  0  0  0  0
 49 68  1  0  0  0  0
 50 70  1  0  0  0  0
 51 55  1  0  0  0  0
 51 70  1  0  0  0  0
 52 74  1  0  0  0  0
 53 84  1  0  0  0  0
 54 69  1  0  0  0  0
 55 67  1  0  0  0  0
 57 64  1  0  0  0  0
 58 65  1  0  0  0  0
 59 65  1  0  0  0  0
 60 65  1  0  0  0  0
 61 76  1  0  0  0  0
 62 68  1  0  0  0  0
 63 65  1  0  0  0  0
 63 75  1  0  0  0  0
 64 76  1  0  0  0  0
 66 67  1  0  0  0  0
M  CHG  1  76   1
M  ISO  4  39 100  53 101  73 100  84 101
M  END
> <Batch ID>
0036

> <Smiles>
CNC(C)C(=O)NC(C(=O)N1Cc2cc([101O:1][101CH:1]3CCCN(Cc4cc(Cl)cc([100NH:0][100C:0](=O)N5CCCC(n6nc(-c7ccc(Oc8ccc(F)cc8F)cc7)c(C(N)=O)c6N)C5)c4C)C3=O)ccc2CC1C(=O)NC1CCCc2ccccc21)C(C)(C)C

> <Shape>
0.269

> <Color>
0.218

> <Negative vol penalty>
0.000

$$$$

  -OEChem-04042321543D

 90 99  0     1  0  0  0  0  0999 V2000
  -27.5878  -38.4973   24.8584 C   0  0  0  0  0  0  0  0  0  0  0  0
  -28.3333  -37.3315   25.0015 C   0  0  0  0  0  0  0  0  0  0  0  0
  -22.5533  -10.4019   21.2849 C   0  0  0  0  0  0  0  0  0  0  0  0
  -24.4634   -8.9377   21.4969 C   0  0  0  0  0  0  0  0  0  0  0  0
  -26.1979  -38.4513   24.9587 C   0  0  0  0  0  0  0  0  0  0  0  0
  -27.6894  -36.1191   25.2460 C   0  0  0  0  0  0  0  0  0  0  0  0
  -28.4703  -30.5351   20.7626 C   0  0  0  0  0  0  0  0  0  0  0  0
  -21.8219   -9.5705   22.1330 C   0  0  0  0  0  0  0  0  0  0  0  0
  -23.7320   -8.1063   22.3452 C   0  0  0  0  0  0  0  0  0  0  0  0
  -28.7370  -29.3558   20.0667 C   0  0  0  0  0  0  0  0  0  0  0  0
  -21.3632   -5.7117   22.0523 C   0  0  0  0  0  0  0  0  0  0  0  0
  -21.4363   -4.3362   21.8329 C   0  0  0  0  0  0  0  0  0  0  0  0
  -27.1663  -28.1625   21.4655 C   0  0  0  0  0  0  0  0  0  0  0  0
  -28.8513  -19.3648   20.5971 C   0  0  0  0  0  0  0  0  0  0  0  0
  -26.4365  -19.7163   19.2452 C   0  0  0  0  0  0  0  0  0  0  0  0
  -22.3263   -4.0285   24.0579 C   0  0  0  0  0  0  0  0  0  0  0  0
  -23.8741  -10.0854   20.9668 C   0  0  0  0  0  0  0  0  0  0  0  0
  -24.3252  -11.2776   18.7571 C   0  0  0  0  0  0  0  0  0  0  0  0
  -25.5360  -37.2361   25.1949 C   0  0  0  0  0  0  0  0  0  0  0  0
  -27.5380  -30.5359   21.8038 C   0  0  0  0  0  0  0  0  0  0  0  0
  -26.2894  -36.0570   25.3508 C   0  0  0  0  0  0  0  0  0  0  0  0
  -26.8858  -29.3434   22.1580 C   0  0  0  0  0  0  0  0  0  0  0  0
  -27.7162  -18.6634   21.0034 C   0  0  0  0  0  0  0  0  0  0  0  0
  -27.5717  -20.4177   18.8390 C   0  0  0  0  0  0  0  0  0  0  0  0
  -22.4112   -8.4228   22.6632 C   0  0  0  0  0  0  0  0  0  0  0  0
  -28.0868  -28.1724   20.4175 C   0  0  0  0  0  0  0  0  0  0  0  0
  -21.7717   -6.2457   23.2745 C   0  0  0  0  0  0  0  0  0  0  0  0
  -21.9178   -3.4946   22.8357 C   0  0  0  0  0  0  0  0  0  0  0  0
  -22.2532   -5.4041   24.2773 C   0  0  0  0  0  0  0  0  0  0  0  0
  -26.5087  -18.8391   20.3274 C   0  0  0  0  0  0  0  0  0  0  0  0
  -28.7791  -20.2420   19.5149 C   0  0  0  0  0  0  0  0  0  0  0  0
  -24.6301  -10.9435   20.0902 C   0  0  0  0  0  0  0  0  0  0  0  0
  -25.3443  -12.1137   18.3710 C   0  0  0  0  0  0  0  0  0  0  0  0
  -26.3676  -23.0799   19.0158 C   0  0  0  0  0  0  0  0  0  0  0  0
  -25.0884  -22.8484   18.6715 C   0  0  0  0  0  0  0  0  0  0  0  0
  -23.2198  -10.8689   17.9407 C   0  0  0  0  0  0  0  0  0  0  0  0
  -25.7422  -32.5197   24.4335 C   0  0  0  0  0  0  0  0  0  0  0  0
  -23.6871  -30.6012   23.2063 C   0  0  0  0  0  0  0  0  0  0  0  0
  -21.6423  -28.6378   21.3086 C   0  0  0  0  0  0  0  0  0  0  0  0
  -29.0477  -15.7027   21.4132 C   0  0  0  0  0  0  0  0  0  0  0  0
  -24.0350  -37.2438   25.3424 C   0  0  0  0  0  0  0  0  0  0  0  0
  -27.2648  -31.7693   22.6210 C   0  0  0  0  0  0  0  0  0  0  0  0
  -25.9162  -29.3841   23.3075 C   0  0  0  0  0  0  0  0  0  0  0  0
  -26.7240  -23.6410   20.3692 C   0  0  0  0  0  0  0  0  0  0  0  0
  -23.4049  -35.8580   25.2302 C   0  0  0  0  0  0  0  0  0  0  0  0
  -27.7276  -24.7966   20.3581 C   0  0  0  0  0  0  0  0  0  0  0  0
  -29.9585  -13.0391   19.2333 C   0  0  0  0  0  0  0  0  0  0  0  0
  -27.8805  -25.1707   17.2831 C   0  0  0  0  0  0  0  0  0  0  0  0
  -24.1767  -34.8505   26.0764 C   0  0  0  0  0  0  0  0  0  0  0  0
  -28.6687  -12.2301   19.0854 C   0  0  0  0  0  0  0  0  0  0  0  0
  -26.8952  -25.9561   18.1590 C   0  0  0  0  0  0  0  0  0  0  0  0
  -30.1127  -13.6025   20.6442 C   0  0  0  0  0  0  0  0  0  0  0  0
  -27.6712  -13.5783   20.9791 C   0  0  0  0  0  0  0  0  0  0  0  0
  -27.4333  -23.7548   16.9022 C   0  0  0  0  0  0  0  0  0  0  0  0
  -25.6257  -34.7186   25.5922 C   0  0  1  0  0  0  0  0  0  0  0  0
  -25.7992  -31.8777   23.0786 C   0  0  1  0  0  0  0  0  0  0  0  0
  -27.4438  -13.0364   19.5575 C   0  0  2  0  0  0  0  0  0  0  0  0
  -27.2789  -26.0736   19.6404 C   0  0  2  0  0  0  0  0  0  1  0  0
  -19.2461  -27.9269   21.0852 C   0  0  0  0  0  0  0  0  0  0  0  0
  -24.0176  -28.7467   25.6053 C   0  0  0  0  0  0  0  0  0  0  0  0
  -22.0540  -27.4357   24.7726 C   0  0  0  0  0  0  0  0  0  0  0  0
  -21.7695  -29.8270   25.4232 C   0  0  0  0  0  0  0  0  0  0  0  0
  -21.4368  -29.7780   18.5852 C   0  0  0  0  0  0  0  0  0  0  0  0
  -27.8358  -17.7331   22.1670 C   0  0  0  0  0  0  0  0  0  0  0  0
  -27.4528  -21.3521   17.6712 C   0  0  0  0  0  0  0  0  0  0  0  0
  -23.0006  -29.2613   23.2887 C   0  0  1  0  0  0  0  0  0  0  0  0
  -20.3082  -28.9210   20.6420 C   0  0  2  0  0  0  0  0  0  0  0  0
  -22.7332  -28.8217   24.7559 C   0  0  0  0  0  0  0  0  0  0  0  0
  -25.7548  -11.5201   20.5220 N   0  0  0  0  0  0  0  0  0  0  0  0
  -26.1657  -12.2249   19.4541 N   0  0  0  0  0  0  0  0  0  0  0  0
  -25.0872  -30.5966   23.2228 N   0  0  0  0  0  0  0  0  0  0  0  0
  -28.9182  -14.3574   21.0305 N   0  0  0  0  0  0  0  0  0  0  0  0
  -25.6089  -12.7572   17.2142 N   0  0  0  0  0  0  0  0  0  0  0  0
  -23.3531   -9.7069   17.1685 N   0  0  0  0  0  0  0  0  0  0  0  0
  -25.6878  -33.9001   24.4002 N   0  0  0  0  0  0  0  0  0  0  0  0
  -21.7989  -29.3673   22.4682 N   0  0  0  0  0  0  0  0  0  0  0  0
  -27.8656  -16.3465   21.7579 N   0  0  0  0  0  0  0  0  0  0  0  0
  -27.4339  -22.8040   18.0761 N   0  3  2  0  0  0  0  0  0  0  0  0
  -20.4413  -28.8370   19.1601 N   0  3  0  0  0  0  0  0  0  0  0  0
  -22.1515  -11.5239   17.8847 O   0  0  0  0  0  0  0  0  0  0  0  0
  -25.7458  -31.8155   25.4364 O   0  0  0  0  0  0  0  0  0  0  0  0
  -23.0031  -31.6260   23.1349 O   0  0  0  0  0  0  0  0  0  0  0  0
  -22.4619  -27.8458   20.8487 O   0  0  0  0  0  0  0  0  0  0  0  0
  -30.1355  -16.2883   21.4403 O   0  0  0  0  0  0  0  0  0  0  0  0
  -21.6978   -7.6115   23.4911 O   0  0  0  0  0  0  0  0  0  0  0  0
  -28.3494  -27.0218   19.7286 O   0  0  0  0  0  0  0  0  0  1  0  0
  -21.9865   -2.1735   22.6254 F   0  0  0  0  0  0  0  0  0  0  0  0
  -22.6459   -5.9112   25.4539 F   0  0  0  0  0  0  0  0  0  0  0  0
  -25.0844  -17.9871   20.8012 Cl  0  0  0  0  0  0  0  0  0  0  0  0
  -30.2040  -21.0928   19.0406 Cl  0  0  0  0  0  0  0  0  0  0  0  0
  1  2  1  0  0  0  0
  1  5  2  0  0  0  0
  2  6  2  0  0  0  0
  3  8  2  0  0  0  0
  3 17  1  0  0  0  0
  4  9  1  0  0  0  0
  4 17  2  0  0  0  0
  5 19  1  0  0  0  0
  6 21  1  0  0  0  0
  7 10  2  0  0  0  0
  7 20  1  0  0  0  0
  8 25  1  0  0  0  0
  9 25  2  0  0  0  0
 10 26  1  0  0  0  0
 11 12  2  0  0  0  0
 11 27  1  0  0  0  0
 12 28  1  0  0  0  0
 13 22  1  0  0  0  0
 13 26  2  0  0  0  0
 14 23  2  0  0  0  0
 14 31  1  0  0  0  0
 15 24  1  0  0  0  0
 15 30  2  0  0  0  0
 16 28  2  0  0  0  0
 16 29  1  0  0  0  0
 17 32  1  0  0  0  0
 18 32  1  0  0  0  0
 18 33  2  0  0  0  0
 18 36  1  0  0  0  0
 19 21  2  0  0  0  0
 19 41  1  0  0  0  0
 20 22  2  0  0  0  0
 20 42  1  0  0  0  0
 21 55  1  0  0  0  0
 22 43  1  0  0  0  0
 23 30  1  0  0  0  0
 23 64  1  0  0  0  0
 24 31  2  0  0  0  0
 24 65  1  0  0  0  0
 25 85  1  0  0  0  0
 26 86  1  0  0  0  0
 27 29  2  0  0  0  0
 27 85  1  0  0  0  0
 28 87  1  0  0  0  0
 29 88  1  0  0  0  0
 30 89  1  0  0  0  0
 31 90  1  0  0  0  0
 32 69  2  0  0  0  0
 33 70  1  0  0  0  0
 33 73  1  0  0  0  0
 34 35  2  0  0  0  0
 34 44  1  0  0  0  0
 34 78  1  0  0  0  0
 36 74  1  0  0  0  0
 36 80  2  0  0  0  0
 37 56  1  0  0  0  0
 37 75  1  0  0  0  0
 37 81  2  0  0  0  0
 38 66  1  0  0  0  0
 38 71  1  0  0  0  0
 38 82  2  0  0  0  0
 39 67  1  0  0  0  0
 39 76  1  0  0  0  0
 39 83  2  0  0  0  0
 40 72  1  0  0  0  0
 40 77  1  0  0  0  0
 40 84  2  0  0  0  0
 41 45  1  0  0  0  0
 42 56  1  0  0  0  0
 43 71  1  0  0  0  0
 44 46  1  0  0  0  0
 45 49  1  0  0  0  0
 46 58  1  0  0  0  0
 47 50  1  0  0  0  0
 47 52  1  0  0  0  0
 48 51  1  0  0  0  0
 48 54  1  0  0  0  0
 49 55  1  0  0  0  0
 50 57  1  0  0  0  0
 51 58  1  0  0  0  0
 52 72  1  0  0  0  0
 53 57  1  0  0  0  0
 53 72  1  0  0  0  0
 54 78  1  0  0  0  0
 55 75  1  0  0  0  0
 56 71  1  0  0  0  0
 57 70  1  0  0  0  0
 58 86  1  0  0  0  0
 59 67  1  0  0  0  0
 60 68  1  0  0  0  0
 61 68  1  0  0  0  0
 62 68  1  0  0  0  0
 63 79  1  0  0  0  0
 64 77  1  0  0  0  0
 65 78  1  0  0  0  0
 66 68  1  0  0  0  0
 66 76  1  0  0  0  0
 67 79  1  0  0  0  0
 69 70  1  0  0  0  0
M  CHG  2  78   1  79   1
M  ISO  4  40 100  58 101  77 100  86 101
M  END
> <Batch ID>
0036

> <Smiles>
C=C1CC[101CH:1]([101O:1]c2ccc3c(c2)CN(C(=O)C(NC(=O)C(C)NC)C(C)(C)C)C(C(=O)NC2CCCc4ccccc42)C3)CCCN1Cc1cc(Cl)c(C[100NH:0][100C:0](=O)N2CCCC(n3nc(-c4ccc(Oc5ccc(F)cc5F)cc4)c(C(N)=O)c3N)C2)cc1Cl

> <Shape>
0.329

> <Color>
0.119

> <Negative vol penalty>
0.000

$$$$

  -OEChem-04042321543D

 88 96  0     1  0  0  0  0  0999 V2000
  -31.3785  -18.0796   23.7230 C   0  0  0  0  0  0  0  0  0  0  0  0
  -30.0558  -18.3928   24.0197 C   0  0  0  0  0  0  0  0  0  0  0  0
  -28.8783  -25.9379   19.5290 C   0  0  0  0  0  0  0  0  0  0  0  0
  -26.6211  -25.1118   19.2849 C   0  0  0  0  0  0  0  0  0  0  0  0
  -31.6815  -17.3647   22.5650 C   0  0  0  0  0  0  0  0  0  0  0  0
  -29.0355  -17.9922   23.1578 C   0  0  0  0  0  0  0  0  0  0  0  0
  -23.3674  -16.2709   24.7120 C   0  0  0  0  0  0  0  0  0  0  0  0
  -29.3753  -24.6746   19.2087 C   0  0  0  0  0  0  0  0  0  0  0  0
  -27.1181  -23.8485   18.9645 C   0  0  0  0  0  0  0  0  0  0  0  0
  -22.1507  -16.9515   24.7246 C   0  0  0  0  0  0  0  0  0  0  0  0
  -31.2331  -21.5745   18.8065 C   0  0  0  0  0  0  0  0  0  0  0  0
  -32.2694  -21.0660   19.5894 C   0  0  0  0  0  0  0  0  0  0  0  0
  -21.6314  -16.0513   22.5476 C   0  0  0  0  0  0  0  0  0  0  0  0
  -18.5309  -25.3276   22.4457 C   0  0  0  0  0  0  0  0  0  0  0  0
  -17.9898  -27.8159   23.5850 C   0  0  0  0  0  0  0  0  0  0  0  0
  -30.8554  -21.1942   21.5442 C   0  0  0  0  0  0  0  0  0  0  0  0
  -27.5012  -26.1565   19.5672 C   0  0  0  0  0  0  0  0  0  0  0  0
  -27.2206  -28.6668   19.2104 C   0  0  0  0  0  0  0  0  0  0  0  0
  -30.6634  -16.9467   21.6935 C   0  0  0  0  0  0  0  0  0  0  0  0
  -23.7307  -15.4827   23.6105 C   0  0  0  0  0  0  0  0  0  0  0  0
  -29.3253  -17.2722   21.9863 C   0  0  0  0  0  0  0  0  0  0  0  0
  -22.8522  -15.3596   22.5246 C   0  0  0  0  0  0  0  0  0  0  0  0
  -17.5663  -25.4413   23.4468 C   0  0  0  0  0  0  0  0  0  0  0  0
  -18.9545  -27.7021   22.5840 C   0  0  0  0  0  0  0  0  0  0  0  0
  -28.4952  -23.6299   18.9264 C   0  0  0  0  0  0  0  0  0  0  0  0
  -21.2838  -16.8441   23.6411 C   0  0  0  0  0  0  0  0  0  0  0  0
  -30.0080  -21.8930   19.3924 C   0  0  0  0  0  0  0  0  0  0  0  0
  -32.0806  -20.8757   20.9583 C   0  0  0  0  0  0  0  0  0  0  0  0
  -29.8191  -21.7028   20.7612 C   0  0  0  0  0  0  0  0  0  0  0  0
  -19.2251  -26.4580   22.0144 C   0  0  0  0  0  0  0  0  0  0  0  0
  -17.2957  -26.6855   24.0164 C   0  0  0  0  0  0  0  0  0  0  0  0
  -26.9871  -27.4611   19.8986 C   0  0  0  0  0  0  0  0  0  0  0  0
  -26.5151  -29.6086   19.9187 C   0  0  0  0  0  0  0  0  0  0  0  0
  -28.0050  -28.9133   18.0358 C   0  0  0  0  0  0  0  0  0  0  0  0
  -26.0949  -15.5493   21.4869 C   0  0  0  0  0  0  0  0  0  0  0  0
  -24.7939  -12.7356   20.5314 C   0  0  0  0  0  0  0  0  0  0  0  0
  -17.9118  -21.9331   23.7951 C   0  0  0  0  0  0  0  0  0  0  0  0
  -22.0460  -10.7175   20.3802 C   0  0  0  0  0  0  0  0  0  0  0  0
  -21.7299  -29.2754   23.5022 C   0  0  0  0  0  0  0  0  0  0  0  0
  -31.0440  -16.2172   20.4295 C   0  0  0  0  0  0  0  0  0  0  0  0
  -25.0349  -14.7335   23.6239 C   0  0  0  0  0  0  0  0  0  0  0  0
  -23.1862  -14.5100   21.3267 C   0  0  0  0  0  0  0  0  0  0  0  0
  -29.8711  -15.5051   19.7606 C   0  0  0  0  0  0  0  0  0  0  0  0
  -24.9408  -30.5699   24.3333 C   0  0  0  0  0  0  0  0  0  0  0  0
  -28.6584  -16.4274   19.6869 C   0  0  0  0  0  0  0  0  0  0  0  0
  -25.8504  -30.0287   23.2289 C   0  0  0  0  0  0  0  0  0  0  0  0
  -23.8656  -29.5587   24.7248 C   0  0  0  0  0  0  0  0  0  0  0  0
  -23.9657  -28.5082   22.4977 C   0  0  0  0  0  0  0  0  0  0  0  0
  -28.1884  -16.8337   21.0889 C   0  0  1  0  0  0  0  0  0  0  0  0
  -25.5297  -14.3703   22.2273 C   0  0  1  0  0  0  0  0  0  0  0  0
  -25.0314  -29.5140   22.0299 C   0  0  2  0  0  0  0  0  0  0  0  0
  -21.2804   -8.4945   19.5030 C   0  0  0  0  0  0  0  0  0  0  0  0
  -24.6740  -13.8927   17.7106 C   0  0  0  0  0  0  0  0  0  0  0  0
  -23.0770  -12.0629   17.1030 C   0  0  0  0  0  0  0  0  0  0  0  0
  -25.3970  -11.5015   17.8274 C   0  0  0  0  0  0  0  0  0  0  0  0
  -18.5159  -23.5813   25.5847 C   0  0  0  0  0  0  0  0  0  0  0  0
  -21.3974   -9.7384   23.0968 C   0  0  0  0  0  0  0  0  0  0  0  0
  -16.8463  -24.1974   23.8808 C   0  0  0  0  0  0  0  0  0  0  0  0
  -19.6767  -28.9367   22.1498 C   0  0  0  0  0  0  0  0  0  0  0  0
  -18.9096  -20.9879   24.4516 C   0  0  0  0  0  0  0  0  0  0  0  0
  -19.0074  -19.6446   23.7318 C   0  0  0  0  0  0  0  0  0  0  0  0
  -20.0434  -18.7352   24.3767 C   0  0  0  0  0  0  0  0  0  1  0  0
  -23.7310  -12.3319   19.5383 C   0  0  1  0  0  0  0  0  0  0  0  0
  -21.8603   -9.2436   20.6927 C   0  0  2  0  0  0  0  0  0  0  0  0
  -24.2140  -12.4649   18.0664 C   0  0  0  0  0  0  0  0  0  0  0  0
  -26.1954  -27.6197   20.9625 N   0  0  0  0  0  0  0  0  0  0  0  0
  -25.9253  -28.9361   20.9482 N   0  0  0  0  0  0  0  0  0  0  0  0
  -24.4758  -13.8020   21.3843 N   0  0  0  0  0  0  0  0  0  0  0  0
  -23.1244  -29.1117   23.5430 N   0  0  0  0  0  0  0  0  0  0  0  0
  -26.3481  -30.9382   19.7552 N   0  0  0  0  0  0  0  0  0  0  0  0
  -27.3819  -28.8176   16.7840 N   0  0  0  0  0  0  0  0  0  0  0  0
  -27.4438  -15.7562   21.7044 N   0  0  0  0  0  0  0  0  0  0  0  0
  -23.3149  -10.9842   19.9111 N   0  0  0  0  0  0  0  0  0  0  0  0
  -21.1057  -28.8308   22.3431 N   0  0  0  0  0  0  0  0  0  0  0  0
  -17.7632  -23.1879   24.3958 N   0  0  0  0  0  0  0  0  0  0  0  0
  -20.9385   -9.0718   21.8510 N   0  3  0  0  0  0  0  0  0  0  0  0
  -29.2263  -29.1937   18.0938 O   0  0  0  0  0  0  0  0  0  0  0  0
  -25.3619  -16.2206   20.7702 O   0  0  0  0  0  0  0  0  0  0  0  0
  -25.8641  -12.1227   20.5545 O   0  0  0  0  0  0  0  0  0  0  0  0
  -17.2855  -21.5827   22.7914 O   0  0  0  0  0  0  0  0  0  0  0  0
  -21.1535  -11.5484   20.5332 O   0  0  0  0  0  0  0  0  0  0  0  0
  -21.0892  -29.7851   24.4277 O   0  0  0  0  0  0  0  0  0  0  0  0
  -28.9798  -22.3971   18.6136 O   0  0  0  0  0  0  0  0  0  0  0  0
  -20.0959  -17.5079   23.6505 O   0  0  0  0  0  0  0  0  0  1  0  0
  -33.0753  -20.3859   21.7098 F   0  0  0  0  0  0  0  0  0  0  0  0
  -28.6439  -22.0057   21.3296 F   0  0  0  0  0  0  0  0  0  0  0  0
  -20.4109  -26.2794   20.7729 Cl  0  0  0  0  0  0  0  0  0  0  0  0
  -15.9977  -26.8885   25.3843 Br  0  0  0  0  0  0  0  0  0  0  0  0
  1  2  1  0  0  0  0
  1  5  2  0  0  0  0
  2  6  2  0  0  0  0
  3  8  2  0  0  0  0
  3 17  1  0  0  0  0
  4  9  1  0  0  0  0
  4 17  2  0  0  0  0
  5 19  1  0  0  0  0
  6 21  1  0  0  0  0
  7 10  2  0  0  0  0
  7 20  1  0  0  0  0
  8 25  1  0  0  0  0
  9 25  2  0  0  0  0
 10 26  1  0  0  0  0
 11 12  2  0  0  0  0
 11 27  1  0  0  0  0
 12 28  1  0  0  0  0
 13 22  1  0  0  0  0
 13 26  2  0  0  0  0
 14 23  1  0  0  0  0
 14 30  2  0  0  0  0
 15 24  2  0  0  0  0
 15 31  1  0  0  0  0
 16 28  2  0  0  0  0
 16 29  1  0  0  0  0
 17 32  1  0  0  0  0
 18 32  1  0  0  0  0
 18 33  2  0  0  0  0
 18 34  1  0  0  0  0
 19 21  2  0  0  0  0
 19 40  1  0  0  0  0
 20 22  2  0  0  0  0
 20 41  1  0  0  0  0
 21 49  1  0  0  0  0
 22 42  1  0  0  0  0
 23 31  2  0  0  0  0
 23 58  1  0  0  0  0
 24 30  1  0  0  0  0
 24 59  1  0  0  0  0
 25 83  1  0  0  0  0
 26 84  1  0  0  0  0
 27 29  2  0  0  0  0
 27 83  1  0  0  0  0
 28 85  1  0  0  0  0
 29 86  1  0  0  0  0
 30 87  1  0  0  0  0
 31 88  1  0  0  0  0
 32 66  2  0  0  0  0
 33 67  1  0  0  0  0
 33 70  1  0  0  0  0
 34 71  1  0  0  0  0
 34 77  2  0  0  0  0
 35 50  1  0  0  0  0
 35 72  1  0  0  0  0
 35 78  2  0  0  0  0
 36 63  1  0  0  0  0
 36 68  1  0  0  0  0
 36 79  2  0  0  0  0
 37 60  1  0  0  0  0
 37 75  1  0  0  0  0
 37 80  2  0  0  0  0
 38 64  1  0  0  0  0
 38 73  1  0  0  0  0
 38 81  2  0  0  0  0
 39 69  1  0  0  0  0
 39 74  1  0  0  0  0
 39 82  2  0  0  0  0
 40 43  1  0  0  0  0
 41 50  1  0  0  0  0
 42 68  1  0  0  0  0
 43 45  1  0  0  0  0
 44 46  1  0  0  0  0
 44 47  1  0  0  0  0
 45 49  1  0  0  0  0
 46 51  1  0  0  0  0
 47 69  1  0  0  0  0
 48 51  1  0  0  0  0
 48 69  1  0  0  0  0
 49 72  1  0  0  0  0
 50 68  1  0  0  0  0
 51 67  1  0  0  0  0
 52 64  1  0  0  0  0
 53 65  1  0  0  0  0
 54 65  1  0  0  0  0
 55 65  1  0  0  0  0
 56 75  1  0  0  0  0
 57 76  1  0  0  0  0
 58 75  1  0  0  0  0
 59 74  1  0  0  0  0
 60 61  1  0  0  0  0
 61 62  1  0  0  0  0
 62 84  1  0  0  0  0
 63 65  1  0  0  0  0
 63 73  1  0  0  0  0
 64 76  1  0  0  0  0
 66 67  1  0  0  0  0
M  CHG  1  76   1
M  ISO  4  39 100  62 101  74 100  84 101
M  END
> <Batch ID>
0036

> <Smiles>
CNC(C)C(=O)NC(C(=O)N1Cc2cc([101O:1][101CH2:1]CCC(=O)N(C)Cc3cc(Cl)c(C[100NH:0][100C:0](=O)N4CCCC(n5nc(-c6ccc(Oc7ccc(F)cc7F)cc6)c(C(N)=O)c5N)C4)cc3Br)ccc2CC1C(=O)NC1CCCc2ccccc21)C(C)(C)C

> <Shape>
0.231

> <Color>
0.062

> <Negative vol penalty>
0.000

$$$$

  -OEChem-04042321543D

 86 94  0     1  0  0  0  0  0999 V2000
  -21.9281  -26.7242   13.6460 C   0  0  0  0  0  0  0  0  0  0  0  0
  -22.0773  -27.1543   14.9606 C   0  0  0  0  0  0  0  0  0  0  0  0
  -24.2742  -13.5756   19.7419 C   0  0  0  0  0  0  0  0  0  0  0  0
  -24.8526  -14.1598   22.0138 C   0  0  0  0  0  0  0  0  0  0  0  0
  -22.3709  -25.4555   13.2743 C   0  0  0  0  0  0  0  0  0  0  0  0
  -22.6684  -26.3154   15.9046 C   0  0  0  0  0  0  0  0  0  0  0  0
  -26.0450  -28.7298   18.8054 C   0  0  0  0  0  0  0  0  0  0  0  0
  -25.3439  -12.6815   19.6994 C   0  0  0  0  0  0  0  0  0  0  0  0
  -25.9223  -13.2657   21.9713 C   0  0  0  0  0  0  0  0  0  0  0  0
  -25.5458  -29.5255   19.8357 C   0  0  0  0  0  0  0  0  0  0  0  0
  -26.0266   -9.5598   20.8048 C   0  0  0  0  0  0  0  0  0  0  0  0
  -25.7941   -8.2962   20.2618 C   0  0  0  0  0  0  0  0  0  0  0  0
  -26.0053  -27.7598   21.4138 C   0  0  0  0  0  0  0  0  0  0  0  0
  -21.0714  -27.0733   23.4887 C   0  0  0  0  0  0  0  0  0  0  0  0
  -27.4718   -8.7130   18.5739 C   0  0  0  0  0  0  0  0  0  0  0  0
  -24.0285  -14.3148   20.8991 C   0  0  0  0  0  0  0  0  0  0  0  0
  -21.6038  -14.9671   21.3496 C   0  0  0  0  0  0  0  0  0  0  0  0
  -22.9765  -24.6043   14.2120 C   0  0  0  0  0  0  0  0  0  0  0  0
  -26.5187  -27.4368   19.0703 C   0  0  0  0  0  0  0  0  0  0  0  0
  -23.1185  -25.0336   15.5454 C   0  0  0  0  0  0  0  0  0  0  0  0
  -26.5123  -26.9506   20.3855 C   0  0  0  0  0  0  0  0  0  0  0  0
  -20.1745  -25.9819   21.0830 C   0  0  0  0  0  0  0  0  0  0  0  0
  -20.6455  -27.2943   21.1208 C   0  0  0  0  0  0  0  0  0  0  0  0
  -20.1519  -25.2152   22.2481 C   0  0  0  0  0  0  0  0  0  0  0  0
  -21.0940  -27.8400   22.3237 C   0  0  0  0  0  0  0  0  0  0  0  0
  -26.1680  -12.5265   20.8141 C   0  0  0  0  0  0  0  0  0  0  0  0
  -25.5232  -29.0394   21.1397 C   0  0  0  0  0  0  0  0  0  0  0  0
  -26.9816  -10.4001   20.2324 C   0  0  0  0  0  0  0  0  0  0  0  0
  -26.5167   -7.8728   19.1464 C   0  0  0  0  0  0  0  0  0  0  0  0
  -27.7042   -9.9766   19.1170 C   0  0  0  0  0  0  0  0  0  0  0  0
  -20.6004  -25.7609   23.4509 C   0  0  0  0  0  0  0  0  0  0  0  0
  -22.9240  -15.2390   20.9434 C   0  0  0  0  0  0  0  0  0  0  0  0
  -20.9477  -16.1656   21.2094 C   0  0  0  0  0  0  0  0  0  0  0  0
  -21.0226  -13.7409   21.8124 C   0  0  0  0  0  0  0  0  0  0  0  0
  -25.6844  -24.5102   18.1523 C   0  0  0  0  0  0  0  0  0  0  0  0
  -28.3629  -23.6601   19.7725 C   0  0  0  0  0  0  0  0  0  0  0  0
  -30.6345  -24.4045   22.2081 C   0  0  0  0  0  0  0  0  0  0  0  0
  -20.7116  -21.5781   21.9817 C   0  0  0  0  0  0  0  0  0  0  0  0
  -23.3965  -23.2235   13.7742 C   0  0  0  0  0  0  0  0  0  0  0  0
  -27.0787  -26.6011   17.9521 C   0  0  0  0  0  0  0  0  0  0  0  0
  -27.0280  -25.5771   20.7258 C   0  0  0  0  0  0  0  0  0  0  0  0
  -24.3518  -22.5397   14.7489 C   0  0  0  0  0  0  0  0  0  0  0  0
  -22.3882  -20.4682   18.9725 C   0  0  0  0  0  0  0  0  0  0  0  0
  -23.8483  -22.6865   16.1813 C   0  0  0  0  0  0  0  0  0  0  0  0
  -22.5671  -18.9758   19.2568 C   0  0  0  0  0  0  0  0  0  0  0  0
  -22.5762  -21.2986   20.2387 C   0  0  0  0  0  0  0  0  0  0  0  0
  -21.8706  -19.4114   21.6579 C   0  0  0  0  0  0  0  0  0  0  0  0
  -23.7773  -24.1620   16.5926 C   0  0  1  0  0  0  0  0  0  0  0  0
  -27.0598  -25.1063   18.2560 C   0  0  1  0  0  0  0  0  0  0  0  0
  -21.6706  -18.5159   20.4217 C   0  0  2  0  0  0  0  0  0  0  0  0
  -20.6692  -28.1161   19.8700 C   0  0  0  0  0  0  0  0  0  0  0  0
  -18.3020  -25.8955   19.4178 C   0  0  0  0  0  0  0  0  0  0  0  0
  -32.6902  -23.4998   23.3275 C   0  0  0  0  0  0  0  0  0  0  0  0
  -26.6400  -21.6849   21.3347 C   0  0  0  0  0  0  0  0  0  0  0  0
  -28.4814  -21.5212   23.0230 C   0  0  0  0  0  0  0  0  0  0  0  0
  -28.8853  -20.8094   20.6666 C   0  0  0  0  0  0  0  0  0  0  0  0
  -32.2611  -26.7255   21.3560 C   0  0  0  0  0  0  0  0  0  0  0  0
  -19.6936  -25.3978   19.7919 C   0  0  0  0  0  0  0  0  0  0  0  0
  -19.6437  -23.8078   22.1930 C   0  0  0  0  0  0  0  0  0  0  0  0
  -23.0987  -30.9341   23.0137 C   0  0  0  0  0  0  0  0  0  0  0  0
  -22.4110  -29.6423   23.4386 C   0  0  0  0  0  0  0  0  0  0  0  0
  -24.0152  -30.7520   21.8095 C   0  0  0  0  0  0  0  0  0  1  0  0
  -28.6719  -23.2719   21.1983 C   0  0  1  0  0  0  0  0  0  0  0  0
  -32.1524  -24.3811   22.2110 C   0  0  2  0  0  0  0  0  0  0  0  0
  -28.1581  -21.8470   21.5493 C   0  0  0  0  0  0  0  0  0  0  0  0
  -23.0979  -16.5104   20.5727 N   0  0  0  0  0  0  0  0  0  0  0  0
  -21.8784  -17.0480   20.7454 N   0  0  0  0  0  0  0  0  0  0  0  0
  -27.5597  -24.7958   19.5969 N   0  0  0  0  0  0  0  0  0  0  0  0
  -21.6811  -20.8217   21.3023 N   0  0  0  0  0  0  0  0  0  0  0  0
  -19.6712  -16.5401   21.4388 N   0  0  0  0  0  0  0  0  0  0  0  0
  -21.8386  -12.6045   21.8961 N   0  0  0  0  0  0  0  0  0  0  0  0
  -21.5657  -29.1422   22.3814 N   0  0  0  0  0  0  0  0  0  0  0  0
  -25.0976  -24.6622   16.9105 N   0  0  0  0  0  0  0  0  0  0  0  0
  -30.1106  -23.4465   21.3662 N   0  0  0  0  0  0  0  0  0  0  0  0
  -20.6003  -22.9065   21.5899 N   0  0  0  0  0  0  0  0  0  0  0  0
  -32.6913  -25.7579   22.3981 N   0  3  0  0  0  0  0  0  0  0  0  0
  -19.8114  -13.6515   22.1264 O   0  0  0  0  0  0  0  0  0  0  0  0
  -25.1926  -23.9524   19.1263 O   0  0  0  0  0  0  0  0  0  0  0  0
  -28.8232  -22.9847   18.8486 O   0  0  0  0  0  0  0  0  0  0  0  0
  -29.9792  -25.1913   22.8879 O   0  0  0  0  0  0  0  0  0  0  0  0
  -19.9941  -21.1031   22.8686 O   0  0  0  0  0  0  0  0  0  0  0  0
  -27.2118  -11.6539   20.7731 O   0  0  0  0  0  0  0  0  0  0  0  0
  -25.0360  -29.8138   22.1471 O   0  0  0  0  0  0  0  0  0  1  0  0
  -26.2945   -6.6587   18.6259 F   0  0  0  0  0  0  0  0  0  0  0  0
  -28.6239  -10.7789   18.5634 F   0  0  0  0  0  0  0  0  0  0  0  0
  -20.5890  -24.8453   24.9148 Cl  0  0  0  0  0  0  0  0  0  0  0  0
  1  2  1  0  0  0  0
  1  5  2  0  0  0  0
  2  6  2  0  0  0  0
  3  8  2  0  0  0  0
  3 16  1  0  0  0  0
  4  9  1  0  0  0  0
  4 16  2  0  0  0  0
  5 18  1  0  0  0  0
  6 20  1  0  0  0  0
  7 10  2  0  0  0  0
  7 19  1  0  0  0  0
  8 26  1  0  0  0  0
  9 26  2  0  0  0  0
 10 27  1  0  0  0  0
 11 12  2  0  0  0  0
 11 28  1  0  0  0  0
 12 29  1  0  0  0  0
 13 21  1  0  0  0  0
 13 27  2  0  0  0  0
 14 25  1  0  0  0  0
 14 31  2  0  0  0  0
 15 29  2  0  0  0  0
 15 30  1  0  0  0  0
 16 32  1  0  0  0  0
 17 32  1  0  0  0  0
 17 33  2  0  0  0  0
 17 34  1  0  0  0  0
 18 20  2  0  0  0  0
 18 39  1  0  0  0  0
 19 21  2  0  0  0  0
 19 40  1  0  0  0  0
 20 48  1  0  0  0  0
 21 41  1  0  0  0  0
 22 23  1  0  0  0  0
 22 24  2  0  0  0  0
 22 58  1  0  0  0  0
 23 25  2  0  0  0  0
 23 51  1  0  0  0  0
 24 31  1  0  0  0  0
 24 59  1  0  0  0  0
 25 72  1  0  0  0  0
 26 82  1  0  0  0  0
 27 83  1  0  0  0  0
 28 30  2  0  0  0  0
 28 82  1  0  0  0  0
 29 84  1  0  0  0  0
 30 85  1  0  0  0  0
 31 86  1  0  0  0  0
 32 66  2  0  0  0  0
 33 67  1  0  0  0  0
 33 70  1  0  0  0  0
 34 71  1  0  0  0  0
 34 77  2  0  0  0  0
 35 49  1  0  0  0  0
 35 73  1  0  0  0  0
 35 78  2  0  0  0  0
 36 63  1  0  0  0  0
 36 68  1  0  0  0  0
 36 79  2  0  0  0  0
 37 64  1  0  0  0  0
 37 74  1  0  0  0  0
 37 80  2  0  0  0  0
 38 69  1  0  0  0  0
 38 75  1  0  0  0  0
 38 81  2  0  0  0  0
 39 42  1  0  0  0  0
 40 49  1  0  0  0  0
 41 68  1  0  0  0  0
 42 44  1  0  0  0  0
 43 45  1  0  0  0  0
 43 46  1  0  0  0  0
 44 48  1  0  0  0  0
 45 50  1  0  0  0  0
 46 69  1  0  0  0  0
 47 50  1  0  0  0  0
 47 69  1  0  0  0  0
 48 73  1  0  0  0  0
 49 68  1  0  0  0  0
 50 67  1  0  0  0  0
 52 58  1  0  0  0  0
 53 64  1  0  0  0  0
 54 65  1  0  0  0  0
 55 65  1  0  0  0  0
 56 65  1  0  0  0  0
 57 76  1  0  0  0  0
 59 75  1  0  0  0  0
 60 61  1  0  0  0  0
 60 62  1  0  0  0  0
 61 72  1  0  0  0  0
 62 83  1  0  0  0  0
 63 65  1  0  0  0  0
 63 74  1  0  0  0  0
 64 76  1  0  0  0  0
 66 67  1  0  0  0  0
M  CHG  1  76   1
M  ISO  4  38 100  62 101  75 100  83 101
M  END
> <Batch ID>
0036

> <Smiles>
CCc1c(C)c(NCC[101CH2:1][101O:1]c2ccc3c(c2)CN(C(=O)C(NC(=O)C(C)NC)C(C)(C)C)C(C(=O)NC2CCCc4ccccc42)C3)cc(Cl)c1C[100NH:0][100C:0](=O)N1CCCC(n2nc(-c3ccc(Oc4ccc(F)cc4F)cc3)c(C(N)=O)c2N)C1

> <Shape>
0.170

> <Color>
0.089

> <Negative vol penalty>
0.000

$$$$

  -OEChem-04042321543D

 88 97  0     1  0  0  0  0  0999 V2000
  -18.2293  -26.7804   19.0914 C   0  0  0  0  0  0  0  0  0  0  0  0
  -19.5496  -27.1493   18.8542 C   0  0  0  0  0  0  0  0  0  0  0  0
  -26.6646  -13.3638   19.6813 C   0  0  0  0  0  0  0  0  0  0  0  0
  -25.7841  -13.3049   21.9303 C   0  0  0  0  0  0  0  0  0  0  0  0
  -17.7053  -26.8605   20.3809 C   0  0  0  0  0  0  0  0  0  0  0  0
  -20.3463  -27.5996   19.9063 C   0  0  0  0  0  0  0  0  0  0  0  0
  -24.9711  -25.5371   19.8620 C   0  0  0  0  0  0  0  0  0  0  0  0
  -25.6038  -12.5700   19.2452 C   0  0  0  0  0  0  0  0  0  0  0  0
  -24.7232  -12.5111   21.4942 C   0  0  0  0  0  0  0  0  0  0  0  0
  -25.8912  -26.0566   18.9525 C   0  0  0  0  0  0  0  0  0  0  0  0
  -24.1960   -9.2619   20.7223 C   0  0  0  0  0  0  0  0  0  0  0  0
  -23.8553   -8.1530   21.4968 C   0  0  0  0  0  0  0  0  0  0  0  0
  -26.8925  -27.3592   20.7187 C   0  0  0  0  0  0  0  0  0  0  0  0
  -29.2521  -22.9353   18.1370 C   0  0  0  0  0  0  0  0  0  0  0  0
  -30.2062  -22.4280   20.7090 C   0  0  0  0  0  0  0  0  0  0  0  0
  -21.6387   -9.0588   21.8185 C   0  0  0  0  0  0  0  0  0  0  0  0
  -26.7548  -13.7312   21.0239 C   0  0  0  0  0  0  0  0  0  0  0  0
  -29.2238  -14.2490   21.4028 C   0  0  0  0  0  0  0  0  0  0  0  0
  -18.4988  -27.3028   21.4511 C   0  0  0  0  0  0  0  0  0  0  0  0
  -24.9979  -25.9337   21.2067 C   0  0  0  0  0  0  0  0  0  0  0  0
  -19.8319  -27.6870   21.2112 C   0  0  0  0  0  0  0  0  0  0  0  0
  -25.9733  -26.8413   21.6438 C   0  0  0  0  0  0  0  0  0  0  0  0
  -28.5359  -22.1001   18.9944 C   0  0  0  0  0  0  0  0  0  0  0  0
  -30.4453  -23.5169   18.5655 C   0  0  0  0  0  0  0  0  0  0  0  0
  -29.0130  -21.8465   20.2804 C   0  0  0  0  0  0  0  0  0  0  0  0
  -24.6331  -12.1437   20.1516 C   0  0  0  0  0  0  0  0  0  0  0  0
  -26.8503  -26.9700   19.3802 C   0  0  0  0  0  0  0  0  0  0  0  0
  -23.2582  -10.2693   20.4960 C   0  0  0  0  0  0  0  0  0  0  0  0
  -22.5767   -8.0514   22.0448 C   0  0  0  0  0  0  0  0  0  0  0  0
  -21.9795  -10.1677   21.0441 C   0  0  0  0  0  0  0  0  0  0  0  0
  -30.9224  -23.2632   19.8515 C   0  0  0  0  0  0  0  0  0  0  0  0
  -27.8506  -14.5507   21.4752 C   0  0  0  0  0  0  0  0  0  0  0  0
  -29.8449  -15.3403   21.9593 C   0  0  0  0  0  0  0  0  0  0  0  0
  -29.8793  -13.0862   20.8792 C   0  0  0  0  0  0  0  0  0  0  0  0
  -22.9683  -27.4238   23.1468 C   0  0  0  0  0  0  0  0  0  0  0  0
  -25.2056  -26.7239   25.3889 C   0  0  0  0  0  0  0  0  0  0  0  0
  -28.8065  -26.7508   25.6139 C   0  0  0  0  0  0  0  0  0  0  0  0
  -28.2651  -21.0718   22.5579 C   0  0  0  0  0  0  0  0  0  0  0  0
  -17.8741  -27.4174   22.8191 C   0  0  0  0  0  0  0  0  0  0  0  0
  -24.0153  -25.3438   22.1808 C   0  0  0  0  0  0  0  0  0  0  0  0
  -26.0574  -27.2840   23.0810 C   0  0  0  0  0  0  0  0  0  0  0  0
  -18.8955  -27.5491   23.9459 C   0  0  0  0  0  0  0  0  0  0  0  0
  -31.3419  -28.5403   19.1088 C   0  0  0  0  0  0  0  0  0  0  0  0
  -29.1346  -18.8183   25.1738 C   0  0  0  0  0  0  0  0  0  0  0  0
  -19.9595  -28.5806   23.5841 C   0  0  0  0  0  0  0  0  0  0  0  0
  -29.0349  -17.4411   24.5139 C   0  0  0  0  0  0  0  0  0  0  0  0
  -29.8214  -28.5852   18.9750 C   0  0  0  0  0  0  0  0  0  0  0  0
  -32.0340  -28.2105   17.7873 C   0  0  0  0  0  0  0  0  0  0  0  0
  -28.0542  -19.7708   24.6645 C   0  0  0  0  0  0  0  0  0  0  0  0
  -27.8839  -18.5282   22.5440 C   0  0  0  0  0  0  0  0  0  0  0  0
  -29.6785  -26.4076   17.6018 C   0  0  0  0  0  0  0  0  0  0  0  0
  -20.7350  -28.1569   22.3309 C   0  0  1  0  0  0  0  0  0  0  0  0
  -23.8096  -26.2093   23.4202 C   0  0  1  0  0  0  0  0  0  0  0  0
  -28.9916  -17.5542   22.9774 C   0  0  2  0  0  0  0  0  0  0  0  0
  -29.1339  -27.2374   18.7603 C   0  0  2  0  0  0  0  0  0  1  0  0
  -32.2251  -26.7169   17.4813 C   0  0  2  0  0  0  0  0  0  0  0  0
  -27.2618  -21.4889   18.5080 C   0  0  0  0  0  0  0  0  0  0  0  0
  -32.5239  -26.5078   15.9958 C   0  0  0  0  0  0  0  0  0  0  0  0
  -30.3617  -25.4003   27.0472 C   0  0  0  0  0  0  0  0  0  0  0  0
  -25.0422  -29.0984   27.2981 C   0  0  0  0  0  0  0  0  0  0  0  0
  -27.4766  -28.7814   27.7897 C   0  0  0  0  0  0  0  0  0  0  0  0
  -25.8487  -26.9738   28.3422 C   0  0  0  0  0  0  0  0  0  0  0  0
  -30.3217  -25.7851   23.2622 C   0  0  0  0  0  0  0  0  0  0  0  0
  -31.1862  -24.4084   17.6130 C   0  0  0  0  0  0  0  0  0  0  0  0
  -26.4365  -27.4156   25.9233 C   0  0  1  0  0  0  0  0  0  0  0  0
  -29.7222  -25.5417   25.6747 C   0  0  2  0  0  0  0  0  0  0  0  0
  -26.1920  -28.0714   27.3116 C   0  0  0  0  0  0  0  0  0  0  0  0
  -27.6129  -15.7404   22.0338 N   0  0  0  0  0  0  0  0  0  0  0  0
  -28.8450  -16.1958   22.3176 N   0  0  0  0  0  0  0  0  0  0  0  0
  -25.0706  -26.6837   23.9939 N   0  0  0  0  0  0  0  0  0  0  0  0
  -28.0759  -19.8305   23.2013 N   0  0  0  0  0  0  0  0  0  0  0  0
  -31.1434  -15.6419   22.1724 N   0  0  0  0  0  0  0  0  0  0  0  0
  -30.1262  -12.0118   21.7447 N   0  0  0  0  0  0  0  0  0  0  0  0
  -28.3004  -21.0002   21.1657 N   0  0  0  0  0  0  0  0  0  0  0  0
  -21.7076  -27.1368   22.6592 N   0  0  0  0  0  0  0  0  0  0  0  0
  -27.5019  -26.4190   25.9124 N   0  0  0  0  0  0  0  0  0  0  0  0
  -31.0503  -25.8744   17.9476 N   0  3  2  0  0  0  0  0  0  0  0  0
  -30.8077  -25.6624   24.6607 N   0  3  0  0  0  0  0  0  0  0  0  0
  -30.2502  -13.0090   19.6834 O   0  0  0  0  0  0  0  0  0  0  0  0
  -23.4282  -28.5387   23.3638 O   0  0  0  0  0  0  0  0  0  0  0  0
  -24.3975  -26.2311   26.1798 O   0  0  0  0  0  0  0  0  0  0  0  0
  -29.2089  -27.8778   25.3334 O   0  0  0  0  0  0  0  0  0  0  0  0
  -28.4141  -22.1173   23.1956 O   0  0  0  0  0  0  0  0  0  0  0  0
  -23.5977  -11.3693   19.7263 O   0  0  0  0  0  0  0  0  0  0  0  0
  -27.7492  -27.4791   18.4943 O   0  0  0  0  0  0  0  0  0  1  0  0
  -22.2491   -6.9857   22.7872 F   0  0  0  0  0  0  0  0  0  0  0  0
  -21.0739  -11.1318   20.8291 F   0  0  0  0  0  0  0  0  0  0  0  0
  -32.3949  -23.9649   20.4163 Cl  0  0  0  0  0  0  0  0  0  0  0  0
  1  2  1  0  0  0  0
  1  5  2  0  0  0  0
  2  6  2  0  0  0  0
  3  8  2  0  0  0  0
  3 17  1  0  0  0  0
  4  9  1  0  0  0  0
  4 17  2  0  0  0  0
  5 19  1  0  0  0  0
  6 21  1  0  0  0  0
  7 10  2  0  0  0  0
  7 20  1  0  0  0  0
  8 26  1  0  0  0  0
  9 26  2  0  0  0  0
 10 27  1  0  0  0  0
 11 12  2  0  0  0  0
 11 28  1  0  0  0  0
 12 29  1  0  0  0  0
 13 22  1  0  0  0  0
 13 27  2  0  0  0  0
 14 23  2  0  0  0  0
 14 24  1  0  0  0  0
 15 25  2  0  0  0  0
 15 31  1  0  0  0  0
 16 29  2  0  0  0  0
 16 30  1  0  0  0  0
 17 32  1  0  0  0  0
 18 32  1  0  0  0  0
 18 33  2  0  0  0  0
 18 34  1  0  0  0  0
 19 21  2  0  0  0  0
 19 39  1  0  0  0  0
 20 22  2  0  0  0  0
 20 40  1  0  0  0  0
 21 52  1  0  0  0  0
 22 41  1  0  0  0  0
 23 25  1  0  0  0  0
 23 57  1  0  0  0  0
 24 31  2  0  0  0  0
 24 64  1  0  0  0  0
 25 74  1  0  0  0  0
 26 84  1  0  0  0  0
 27 85  1  0  0  0  0
 28 30  2  0  0  0  0
 28 84  1  0  0  0  0
 29 86  1  0  0  0  0
 30 87  1  0  0  0  0
 31 88  1  0  0  0  0
 32 68  2  0  0  0  0
 33 69  1  0  0  0  0
 33 72  1  0  0  0  0
 34 73  1  0  0  0  0
 34 79  2  0  0  0  0
 35 53  1  0  0  0  0
 35 75  1  0  0  0  0
 35 80  2  0  0  0  0
 36 65  1  0  0  0  0
 36 70  1  0  0  0  0
 36 81  2  0  0  0  0
 37 66  1  0  0  0  0
 37 76  1  0  0  0  0
 37 82  2  0  0  0  0
 38 71  1  0  0  0  0
 38 74  1  0  0  0  0
 38 83  2  0  0  0  0
 39 42  1  0  0  0  0
 40 53  1  0  0  0  0
 41 70  1  0  0  0  0
 42 45  1  0  0  0  0
 43 47  1  0  0  0  0
 43 48  1  0  0  0  0
 44 46  1  0  0  0  0
 44 49  1  0  0  0  0
 45 52  1  0  0  0  0
 46 54  1  0  0  0  0
 47 55  1  0  0  0  0
 48 56  1  0  0  0  0
 49 71  1  0  0  0  0
 50 54  1  0  0  0  0
 50 71  1  0  0  0  0
 51 55  1  0  0  0  0
 51 77  1  0  0  0  0
 52 75  1  0  0  0  0
 53 70  1  0  0  0  0
 54 69  1  0  0  0  0
 55 85  1  0  0  0  0
 56 58  1  0  0  0  0
 56 77  1  0  0  0  0
 59 66  1  0  0  0  0
 60 67  1  0  0  0  0
 61 67  1  0  0  0  0
 62 67  1  0  0  0  0
 63 78  1  0  0  0  0
 64 77  1  0  0  0  0
 65 67  1  0  0  0  0
 65 76  1  0  0  0  0
 66 78  1  0  0  0  0
 68 69  1  0  0  0  0
M  CHG  2  77   1  78   1
M  ISO  4  38 100  55 101  74 100  85 101
M  END
> <Batch ID>
0036

> <Smiles>
CNC(C)C(=O)NC(C(=O)N1Cc2cc([101O:1][101CH:1]3CCCC(C)N(Cc4cc(C)c([100NH:0][100C:0](=O)N5CCCC(n6nc(-c7ccc(Oc8ccc(F)cc8F)cc7)c(C(N)=O)c6N)C5)cc4Cl)C3)ccc2CC1C(=O)NC1CCCc2ccccc21)C(C)(C)C

> <Shape>
0.245

> <Color>
0.069

> <Negative vol penalty>
0.000

$$$$

  -OEChem-04042321543D

 87 96  0     1  0  0  0  0  0999 V2000
  -23.7576  -23.1241   27.9360 C   0  0  0  0  0  0  0  0  0  0  0  0
  -24.3087  -23.2730   26.6673 C   0  0  0  0  0  0  0  0  0  0  0  0
  -23.2682  -10.8058   22.8259 C   0  0  0  0  0  0  0  0  0  0  0  0
  -23.5930   -9.6519   20.7282 C   0  0  0  0  0  0  0  0  0  0  0  0
  -22.7639  -24.0003   28.3703 C   0  0  0  0  0  0  0  0  0  0  0  0
  -23.8656  -24.2976   25.8318 C   0  0  0  0  0  0  0  0  0  0  0  0
  -27.6771  -26.7304   23.5516 C   0  0  0  0  0  0  0  0  0  0  0  0
  -22.5155   -9.7316   23.3003 C   0  0  0  0  0  0  0  0  0  0  0  0
  -22.8402   -8.5777   21.2026 C   0  0  0  0  0  0  0  0  0  0  0  0
  -28.2684  -26.1026   22.4562 C   0  0  0  0  0  0  0  0  0  0  0  0
  -19.3689   -8.5480   22.9498 C   0  0  0  0  0  0  0  0  0  0  0  0
  -18.1756   -8.8361   23.6120 C   0  0  0  0  0  0  0  0  0  0  0  0
  -26.9785  -27.4965   20.9688 C   0  0  0  0  0  0  0  0  0  0  0  0
  -30.7853  -19.1491   19.1952 C   0  0  0  0  0  0  0  0  0  0  0  0
  -19.0099   -7.7354   25.5943 C   0  0  0  0  0  0  0  0  0  0  0  0
  -23.8069  -10.7660   21.5398 C   0  0  0  0  0  0  0  0  0  0  0  0
  -24.1595  -13.2089   20.8954 C   0  0  0  0  0  0  0  0  0  0  0  0
  -22.3152  -25.0421   27.5433 C   0  0  0  0  0  0  0  0  0  0  0  0
  -26.7224  -27.7401   23.3635 C   0  0  0  0  0  0  0  0  0  0  0  0
  -22.8640  -25.1878   26.2549 C   0  0  0  0  0  0  0  0  0  0  0  0
  -26.3784  -28.1373   22.0635 C   0  0  0  0  0  0  0  0  0  0  0  0
  -30.5840  -20.0919   20.2033 C   0  0  0  0  0  0  0  0  0  0  0  0
  -30.2132  -19.6769   21.4824 C   0  0  0  0  0  0  0  0  0  0  0  0
  -30.0436  -18.3191   21.7533 C   0  0  0  0  0  0  0  0  0  0  0  0
  -30.2448  -17.3763   20.7451 C   0  0  0  0  0  0  0  0  0  0  0  0
  -22.3015   -8.6175   22.4886 C   0  0  0  0  0  0  0  0  0  0  0  0
  -27.9170  -26.4836   21.1645 C   0  0  0  0  0  0  0  0  0  0  0  0
  -20.3827   -7.8536   23.6098 C   0  0  0  0  0  0  0  0  0  0  0  0
  -17.9960   -8.4299   24.9342 C   0  0  0  0  0  0  0  0  0  0  0  0
  -20.2032   -7.4473   24.9321 C   0  0  0  0  0  0  0  0  0  0  0  0
  -30.6157  -17.7913   19.4661 C   0  0  0  0  0  0  0  0  0  0  0  0
  -24.5841  -11.8756   21.0490 C   0  0  0  0  0  0  0  0  0  0  0  0
  -25.2598  -13.8648   20.3997 C   0  0  0  0  0  0  0  0  0  0  0  0
  -22.8844  -13.8017   21.1758 C   0  0  0  0  0  0  0  0  0  0  0  0
  -23.6538  -28.0936   24.1136 C   0  0  0  0  0  0  0  0  0  0  0  0
  -24.1197  -31.0901   22.9620 C   0  0  0  0  0  0  0  0  0  0  0  0
  -25.8385  -32.6017   20.1730 C   0  0  0  0  0  0  0  0  0  0  0  0
  -30.7262  -14.9228   20.4372 C   0  0  0  0  0  0  0  0  0  0  0  0
  -21.2055  -25.9354   28.0386 C   0  0  0  0  0  0  0  0  0  0  0  0
  -26.1135  -28.4259   24.5557 C   0  0  0  0  0  0  0  0  0  0  0  0
  -25.3738  -29.2299   21.8078 C   0  0  0  0  0  0  0  0  0  0  0  0
  -21.0567  -27.2246   27.2347 C   0  0  0  0  0  0  0  0  0  0  0  0
  -29.6403  -12.0639   18.6138 C   0  0  0  0  0  0  0  0  0  0  0  0
  -27.4417  -22.6958   18.4011 C   0  0  0  0  0  0  0  0  0  0  0  0
  -21.0885  -26.9276   25.7388 C   0  0  0  0  0  0  0  0  0  0  0  0
  -28.1932  -11.8698   19.0722 C   0  0  0  0  0  0  0  0  0  0  0  0
  -27.5585  -24.1904   18.6693 C   0  0  0  0  0  0  0  0  0  0  0  0
  -30.5374  -12.5409   19.7546 C   0  0  0  0  0  0  0  0  0  0  0  0
  -28.6118  -13.5407   20.9214 C   0  0  0  0  0  0  0  0  0  0  0  0
  -28.8004  -22.0106   18.4338 C   0  0  0  0  0  0  0  0  0  0  0  0
  -29.6584  -23.7706   20.0012 C   0  0  0  0  0  0  0  0  0  0  0  0
  -22.4272  -26.3022   25.3289 C   0  0  1  0  0  0  0  0  0  0  0  0
  -24.7738  -29.0865   24.2454 C   0  0  1  0  0  0  0  0  0  0  0  0
  -27.6568  -13.1231   19.7912 C   0  0  2  0  0  0  0  0  0  0  0  0
  -28.3036  -24.4658   19.9716 C   0  0  1  0  0  0  0  0  0  1  0  0
  -29.9973  -20.6907   22.5613 C   0  0  0  0  0  0  0  0  0  0  0  0
  -29.6455  -17.8805   23.1284 C   0  0  0  0  0  0  0  0  0  0  0  0
  -26.8169  -34.8975   19.9097 C   0  0  0  0  0  0  0  0  0  0  0  0
  -21.4246  -31.7794   21.7086 C   0  0  0  0  0  0  0  0  0  0  0  0
  -22.6390  -33.2147   20.0553 C   0  0  0  0  0  0  0  0  0  0  0  0
  -22.7476  -33.7531   22.4887 C   0  0  0  0  0  0  0  0  0  0  0  0
  -28.4981  -31.5135   19.4649 C   0  0  0  0  0  0  0  0  0  0  0  0
  -30.7738  -21.5458   19.8854 C   0  0  0  0  0  0  0  0  0  0  0  0
  -24.0042  -31.7445   21.6064 C   0  0  1  0  0  0  0  0  0  0  0  0
  -27.1035  -33.4389   20.2308 C   0  0  2  0  0  0  0  0  0  0  0  0
  -22.7103  -32.5953   21.4675 C   0  0  0  0  0  0  0  0  0  0  0  0
  -25.8550  -11.6935   20.6806 N   0  0  0  0  0  0  0  0  0  0  0  0
  -26.2384  -12.9210   20.2905 N   0  0  0  0  0  0  0  0  0  0  0  0
  -24.8016  -29.8658   23.0060 N   0  0  0  0  0  0  0  0  0  0  0  0
  -29.9685  -13.7337   20.3858 N   0  0  0  0  0  0  0  0  0  0  0  0
  -25.4760  -15.1508   20.0509 N   0  0  0  0  0  0  0  0  0  0  0  0
  -21.8642  -12.9843   21.6810 N   0  0  0  0  0  0  0  0  0  0  0  0
  -30.0695  -15.9998   21.0317 N   0  0  0  0  0  0  0  0  0  0  0  0
  -23.4537  -27.3185   25.2399 N   0  0  0  0  0  0  0  0  0  0  0  0
  -25.2383  -32.4972   21.4100 N   0  0  0  0  0  0  0  0  0  0  0  0
  -29.4762  -22.2946   19.7543 N   0  3  2  0  0  0  0  0  0  0  0  0
  -28.1062  -32.9306   19.2524 N   0  3  0  0  0  0  0  0  0  0  0  0
  -22.6517  -15.0168   20.9685 O   0  0  0  0  0  0  0  0  0  0  0  0
  -23.0173  -28.0361   23.0680 O   0  0  0  0  0  0  0  0  0  0  0  0
  -23.6294  -31.6483   23.9467 O   0  0  0  0  0  0  0  0  0  0  0  0
  -25.4223  -32.0945   19.1338 O   0  0  0  0  0  0  0  0  0  0  0  0
  -31.8631  -14.9889   19.9626 O   0  0  0  0  0  0  0  0  0  0  0  0
  -21.5672   -7.5690   22.9513 O   0  0  0  0  0  0  0  0  0  0  0  0
  -28.4922  -25.8721   20.0935 O   0  0  0  0  0  0  0  0  0  1  0  0
  -16.8506   -8.7079   25.5705 F   0  0  0  0  0  0  0  0  0  0  0  0
  -21.1740   -6.7809   25.5718 F   0  0  0  0  0  0  0  0  0  0  0  0
  -30.8760  -16.6598   18.1858 Cl  0  0  0  0  0  0  0  0  0  0  0  0
  1  2  1  0  0  0  0
  1  5  2  0  0  0  0
  2  6  2  0  0  0  0
  3  8  2  0  0  0  0
  3 16  1  0  0  0  0
  4  9  1  0  0  0  0
  4 16  2  0  0  0  0
  5 18  1  0  0  0  0
  6 20  1  0  0  0  0
  7 10  2  0  0  0  0
  7 19  1  0  0  0  0
  8 26  1  0  0  0  0
  9 26  2  0  0  0  0
 10 27  1  0  0  0  0
 11 12  2  0  0  0  0
 11 28  1  0  0  0  0
 12 29  1  0  0  0  0
 13 21  1  0  0  0  0
 13 27  2  0  0  0  0
 14 22  1  0  0  0  0
 14 31  2  0  0  0  0
 15 29  2  0  0  0  0
 15 30  1  0  0  0  0
 16 32  1  0  0  0  0
 17 32  1  0  0  0  0
 17 33  2  0  0  0  0
 17 34  1  0  0  0  0
 18 20  2  0  0  0  0
 18 39  1  0  0  0  0
 19 21  2  0  0  0  0
 19 40  1  0  0  0  0
 20 52  1  0  0  0  0
 21 41  1  0  0  0  0
 22 23  2  0  0  0  0
 22 63  1  0  0  0  0
 23 24  1  0  0  0  0
 23 56  1  0  0  0  0
 24 25  2  0  0  0  0
 24 57  1  0  0  0  0
 25 31  1  0  0  0  0
 25 73  1  0  0  0  0
 26 83  1  0  0  0  0
 27 84  1  0  0  0  0
 28 30  2  0  0  0  0
 28 83  1  0  0  0  0
 29 85  1  0  0  0  0
 30 86  1  0  0  0  0
 31 87  1  0  0  0  0
 32 67  2  0  0  0  0
 33 68  1  0  0  0  0
 33 71  1  0  0  0  0
 34 72  1  0  0  0  0
 34 78  2  0  0  0  0
 35 53  1  0  0  0  0
 35 74  1  0  0  0  0
 35 79  2  0  0  0  0
 36 64  1  0  0  0  0
 36 69  1  0  0  0  0
 36 80  2  0  0  0  0
 37 65  1  0  0  0  0
 37 75  1  0  0  0  0
 37 81  2  0  0  0  0
 38 70  1  0  0  0  0
 38 73  1  0  0  0  0
 38 82  2  0  0  0  0
 39 42  1  0  0  0  0
 40 53  1  0  0  0  0
 41 69  1  0  0  0  0
 42 45  1  0  0  0  0
 43 46  1  0  0  0  0
 43 48  1  0  0  0  0
 44 47  1  0  0  0  0
 44 50  1  0  0  0  0
 45 52  1  0  0  0  0
 46 54  1  0  0  0  0
 47 55  1  0  0  0  0
 48 70  1  0  0  0  0
 49 54  1  0  0  0  0
 49 70  1  0  0  0  0
 50 76  1  0  0  0  0
 51 55  1  0  0  0  0
 51 76  1  0  0  0  0
 52 74  1  0  0  0  0
 53 69  1  0  0  0  0
 54 68  1  0  0  0  0
 55 84  1  0  0  0  0
 58 65  1  0  0  0  0
 59 66  1  0  0  0  0
 60 66  1  0  0  0  0
 61 66  1  0  0  0  0
 62 77  1  0  0  0  0
 63 76  1  0  0  0  0
 64 66  1  0  0  0  0
 64 75  1  0  0  0  0
 65 77  1  0  0  0  0
 67 68  1  0  0  0  0
M  CHG  2  76   1  77   1
M  ISO  4  38 100  55 101  73 100  84 101
M  END
> <Batch ID>
0036

> <Smiles>
CNC(C)C(=O)NC(C(=O)N1Cc2cc([101O:1][101CH:1]3CCCN(Cc4cc(Cl)c([100NH:0][100C:0](=O)N5CCCC(n6nc(-c7ccc(Oc8ccc(F)cc8F)cc7)c(C(N)=O)c6N)C5)c(C)c4C)C3)ccc2CC1C(=O)NC1CCCc2ccccc21)C(C)(C)C

> <Shape>
0.252

> <Color>
0.194

> <Negative vol penalty>
0.000

$$$$

  -OEChem-04042321543D

 86 94  0     1  0  0  0  0  0999 V2000
  -17.2811  -27.2523   23.5881 C   0  0  0  0  0  0  0  0  0  0  0  0
  -18.5468  -26.8085   23.9575 C   0  0  0  0  0  0  0  0  0  0  0  0
  -25.1569  -12.5869   19.9209 C   0  0  0  0  0  0  0  0  0  0  0  0
  -25.5746  -13.0993   22.2447 C   0  0  0  0  0  0  0  0  0  0  0  0
  -17.1418  -28.1728   22.5502 C   0  0  0  0  0  0  0  0  0  0  0  0
  -19.6740  -27.2842   23.2884 C   0  0  0  0  0  0  0  0  0  0  0  0
  -26.5632  -28.8982   24.4065 C   0  0  0  0  0  0  0  0  0  0  0  0
  -31.8414  -23.7010   21.2968 C   0  0  0  0  0  0  0  0  0  0  0  0
  -31.4785  -22.3900   21.6050 C   0  0  0  0  0  0  0  0  0  0  0  0
  -25.8111  -11.3644   20.0729 C   0  0  0  0  0  0  0  0  0  0  0  0
  -26.2288  -11.8768   22.3967 C   0  0  0  0  0  0  0  0  0  0  0  0
  -27.8301  -28.6277   23.8913 C   0  0  0  0  0  0  0  0  0  0  0  0
  -27.6935   -8.7334   23.4884 C   0  0  0  0  0  0  0  0  0  0  0  0
  -27.3938   -7.9727   24.6185 C   0  0  0  0  0  0  0  0  0  0  0  0
  -27.4741  -30.2761   22.1664 C   0  0  0  0  0  0  0  0  0  0  0  0
  -29.8207  -23.9547   19.9969 C   0  0  0  0  0  0  0  0  0  0  0  0
  -25.0790   -7.8685   23.9344 C   0  0  0  0  0  0  0  0  0  0  0  0
  -25.0386  -13.4544   21.0069 C   0  0  0  0  0  0  0  0  0  0  0  0
  -22.9930  -14.9781   21.0394 C   0  0  0  0  0  0  0  0  0  0  0  0
  -18.2685  -28.6673   21.8745 C   0  0  0  0  0  0  0  0  0  0  0  0
  -25.7364  -29.8536   23.7980 C   0  0  0  0  0  0  0  0  0  0  0  0
  -19.5495  -28.2111   22.2396 C   0  0  0  0  0  0  0  0  0  0  0  0
  -26.1981  -30.5587   22.6774 C   0  0  0  0  0  0  0  0  0  0  0  0
  -31.0125  -24.4835   20.4928 C   0  0  0  0  0  0  0  0  0  0  0  0
  -30.2868  -21.8612   21.1091 C   0  0  0  0  0  0  0  0  0  0  0  0
  -29.4579  -22.6436   20.3051 C   0  0  0  0  0  0  0  0  0  0  0  0
  -26.3470  -11.0094   21.3108 C   0  0  0  0  0  0  0  0  0  0  0  0
  -28.2846  -29.3146   22.7694 C   0  0  0  0  0  0  0  0  0  0  0  0
  -26.6860   -9.0618   22.5813 C   0  0  0  0  0  0  0  0  0  0  0  0
  -26.0866   -7.5402   24.8415 C   0  0  0  0  0  0  0  0  0  0  0  0
  -25.3787   -8.6293   22.8043 C   0  0  0  0  0  0  0  0  0  0  0  0
  -24.3634  -14.7176   20.8504 C   0  0  0  0  0  0  0  0  0  0  0  0
  -22.8577  -16.3180   20.7692 C   0  0  0  0  0  0  0  0  0  0  0  0
  -21.9367  -14.0886   21.4250 C   0  0  0  0  0  0  0  0  0  0  0  0
  -22.8905  -29.7827   22.3840 C   0  0  0  0  0  0  0  0  0  0  0  0
  -23.2783  -33.0025   22.3149 C   0  0  0  0  0  0  0  0  0  0  0  0
  -25.4132  -35.6649   22.3473 C   0  0  0  0  0  0  0  0  0  0  0  0
  -26.4551  -20.8493   21.1328 C   0  0  0  0  0  0  0  0  0  0  0  0
  -18.0646  -29.6253   20.7276 C   0  0  0  0  0  0  0  0  0  0  0  0
  -24.3830  -30.1528   24.3819 C   0  0  0  0  0  0  0  0  0  0  0  0
  -25.3573  -31.6084   21.9993 C   0  0  0  0  0  0  0  0  0  0  0  0
  -19.3359  -30.3645   20.3181 C   0  0  0  0  0  0  0  0  0  0  0  0
  -24.7899  -19.8403   18.1864 C   0  0  0  0  0  0  0  0  0  0  0  0
  -20.5060  -29.3923   20.2060 C   0  0  0  0  0  0  0  0  0  0  0  0
  -24.3606  -18.4203   18.5527 C   0  0  0  0  0  0  0  0  0  0  0  0
  -26.1925  -20.1676   18.7022 C   0  0  0  0  0  0  0  0  0  0  0  0
  -25.9384  -18.5067   20.5186 C   0  0  0  0  0  0  0  0  0  0  0  0
  -20.7980  -28.7227   21.5542 C   0  0  1  0  0  0  0  0  0  0  0  0
  -23.4230  -30.7788   23.3750 C   0  0  1  0  0  0  0  0  0  0  0  0
  -24.5092  -18.1732   20.0639 C   0  0  2  0  0  0  0  0  0  0  0  0
  -29.9199  -20.4546   21.4517 C   0  0  0  0  0  0  0  0  0  0  0  0
  -26.3075  -25.6286   21.7945 C   0  0  0  0  0  0  0  0  0  0  0  0
  -25.4373  -38.1720   22.2405 C   0  0  0  0  0  0  0  0  0  0  0  0
  -22.7400  -32.8774   19.3142 C   0  0  0  0  0  0  0  0  0  0  0  0
  -23.6967  -35.1826   19.1170 C   0  0  0  0  0  0  0  0  0  0  0  0
  -21.6504  -34.7967   20.4904 C   0  0  0  0  0  0  0  0  0  0  0  0
  -26.6696  -35.8824   25.0181 C   0  0  0  0  0  0  0  0  0  0  0  0
  -28.1774  -22.0988   19.7626 C   0  0  0  0  0  0  0  0  0  0  0  0
  -31.4032  -25.8935   20.1610 C   0  0  0  0  0  0  0  0  0  0  0  0
  -26.4111  -24.3931   20.9111 C   0  0  0  0  0  0  0  0  0  0  0  0
  -27.0123  -23.1969   21.6394 C   0  0  0  0  0  0  0  0  0  0  0  0
  -30.7985  -28.3081   20.3678 C   0  0  0  0  0  0  0  0  0  0  0  0
  -29.6989  -29.2286   20.8593 C   0  0  0  0  0  0  0  0  0  1  0  0
  -23.8874  -33.9854   21.3444 C   0  0  1  0  0  0  0  0  0  0  0  0
  -25.4043  -36.9534   23.1498 C   0  0  2  0  0  0  0  0  0  0  0  0
  -23.0090  -34.1894   20.0779 C   0  0  0  0  0  0  0  0  0  0  0  0
  -25.0497  -15.8046   20.4878 N   0  0  0  0  0  0  0  0  0  0  0  0
  -24.1066  -16.7612   20.4469 N   0  0  0  0  0  0  0  0  0  0  0  0
  -24.0389  -31.8607   22.6040 N   0  0  0  0  0  0  0  0  0  0  0  0
  -26.3048  -19.8728   20.1372 N   0  0  0  0  0  0  0  0  0  0  0  0
  -21.7934  -17.1484   20.7781 N   0  0  0  0  0  0  0  0  0  0  0  0
  -22.2498  -12.7436   21.6645 N   0  0  0  0  0  0  0  0  0  0  0  0
  -21.5178  -29.6288   22.4232 N   0  0  0  0  0  0  0  0  0  0  0  0
  -24.1358  -35.2069   22.1024 N   0  0  0  0  0  0  0  0  0  0  0  0
  -27.1307  -22.0273   20.7802 N   0  0  0  0  0  0  0  0  0  0  0  0
  -26.5881  -37.0091   24.0534 N   0  3  0  0  0  0  0  0  0  0  0  0
  -30.4110  -26.8988   20.6286 N   0  3  0  0  0  0  0  0  0  0  0  0
  -20.7474  -14.4714   21.5373 O   0  0  0  0  0  0  0  0  0  0  0  0
  -23.6674  -29.1982   21.6380 O   0  0  0  0  0  0  0  0  0  0  0  0
  -22.1717  -33.2426   22.8043 O   0  0  0  0  0  0  0  0  0  0  0  0
  -26.4494  -35.1212   21.9718 O   0  0  0  0  0  0  0  0  0  0  0  0
  -26.0171  -20.6762   22.2774 O   0  0  0  0  0  0  0  0  0  0  0  0
  -26.9853   -9.8164   21.4595 O   0  0  0  0  0  0  0  0  0  0  0  0
  -29.5206  -29.0520   22.2641 O   0  0  0  0  0  0  0  0  0  1  0  0
  -25.7992   -6.8084   25.9259 F   0  0  0  0  0  0  0  0  0  0  0  0
  -24.4068   -8.9406   21.9358 F   0  0  0  0  0  0  0  0  0  0  0  0
  1  2  1  0  0  0  0
  1  5  2  0  0  0  0
  2  6  2  0  0  0  0
  3 10  2  0  0  0  0
  3 18  1  0  0  0  0
  4 11  1  0  0  0  0
  4 18  2  0  0  0  0
  5 20  1  0  0  0  0
  6 22  1  0  0  0  0
  7 12  2  0  0  0  0
  7 21  1  0  0  0  0
  8  9  2  0  0  0  0
  8 24  1  0  0  0  0
  9 25  1  0  0  0  0
 10 27  1  0  0  0  0
 11 27  2  0  0  0  0
 12 28  1  0  0  0  0
 13 14  2  0  0  0  0
 13 29  1  0  0  0  0
 14 30  1  0  0  0  0
 15 23  1  0  0  0  0
 15 28  2  0  0  0  0
 16 24  2  0  0  0  0
 16 26  1  0  0  0  0
 17 30  2  0  0  0  0
 17 31  1  0  0  0  0
 18 32  1  0  0  0  0
 19 32  1  0  0  0  0
 19 33  2  0  0  0  0
 19 34  1  0  0  0  0
 20 22  2  0  0  0  0
 20 39  1  0  0  0  0
 21 23  2  0  0  0  0
 21 40  1  0  0  0  0
 22 48  1  0  0  0  0
 23 41  1  0  0  0  0
 24 59  1  0  0  0  0
 25 26  2  0  0  0  0
 25 51  1  0  0  0  0
 26 58  1  0  0  0  0
 27 83  1  0  0  0  0
 28 84  1  0  0  0  0
 29 31  2  0  0  0  0
 29 83  1  0  0  0  0
 30 85  1  0  0  0  0
 31 86  1  0  0  0  0
 32 67  2  0  0  0  0
 33 68  1  0  0  0  0
 33 71  1  0  0  0  0
 34 72  1  0  0  0  0
 34 78  2  0  0  0  0
 35 49  1  0  0  0  0
 35 73  1  0  0  0  0
 35 79  2  0  0  0  0
 36 64  1  0  0  0  0
 36 69  1  0  0  0  0
 36 80  2  0  0  0  0
 37 65  1  0  0  0  0
 37 74  1  0  0  0  0
 37 81  2  0  0  0  0
 38 70  1  0  0  0  0
 38 75  1  0  0  0  0
 38 82  2  0  0  0  0
 39 42  1  0  0  0  0
 40 49  1  0  0  0  0
 41 69  1  0  0  0  0
 42 44  1  0  0  0  0
 43 45  1  0  0  0  0
 43 46  1  0  0  0  0
 44 48  1  0  0  0  0
 45 50  1  0  0  0  0
 46 70  1  0  0  0  0
 47 50  1  0  0  0  0
 47 70  1  0  0  0  0
 48 73  1  0  0  0  0
 49 69  1  0  0  0  0
 50 68  1  0  0  0  0
 52 60  1  0  0  0  0
 53 65  1  0  0  0  0
 54 66  1  0  0  0  0
 55 66  1  0  0  0  0
 56 66  1  0  0  0  0
 57 76  1  0  0  0  0
 58 75  1  0  0  0  0
 59 77  1  0  0  0  0
 60 61  1  0  0  0  0
 61 75  1  0  0  0  0
 62 63  1  0  0  0  0
 62 77  1  0  0  0  0
 63 84  1  0  0  0  0
 64 66  1  0  0  0  0
 64 74  1  0  0  0  0
 65 76  1  0  0  0  0
 67 68  1  0  0  0  0
M  CHG  2  76   1  77   1
M  ISO  4  38 100  63 101  75 100  84 101
M  END
> <Batch ID>
0036

> <Smiles>
CCC[100N:0](Cc1cc(CNC[101CH2:1][101O:1]c2ccc3c(c2)CN(C(=O)C(NC(=O)C(C)NC)C(C)(C)C)C(C(=O)NC2CCCc4ccccc42)C3)ccc1C)[100C:0](=O)N1CCCC(n2nc(-c3ccc(Oc4ccc(F)cc4F)cc3)c(C(N)=O)c2N)C1

> <Shape>
0.243

> <Color>
0.118

> <Negative vol penalty>
0.000

$$$$

  -OEChem-04042321543D

 88 97  0     1  0  0  0  0  0999 V2000
  -44.3965  -20.0870   27.8789 C   0  0  0  0  0  0  0  0  0  0  0  0
  -43.0486  -20.3090   28.1422 C   0  0  0  0  0  0  0  0  0  0  0  0
  -22.6323  -10.2789   20.2303 C   0  0  0  0  0  0  0  0  0  0  0  0
  -24.2515   -9.5321   21.8605 C   0  0  0  0  0  0  0  0  0  0  0  0
  -44.9597  -20.5534   26.6918 C   0  0  0  0  0  0  0  0  0  0  0  0
  -42.2633  -20.9984   27.2188 C   0  0  0  0  0  0  0  0  0  0  0  0
  -36.3515  -20.0187   25.9552 C   0  0  0  0  0  0  0  0  0  0  0  0
  -21.8766   -9.1281   20.4536 C   0  0  0  0  0  0  0  0  0  0  0  0
  -23.4957   -8.3812   22.0839 C   0  0  0  0  0  0  0  0  0  0  0  0
  -35.1840  -20.6500   26.3820 C   0  0  0  0  0  0  0  0  0  0  0  0
  -19.6898   -7.9947   22.7702 C   0  0  0  0  0  0  0  0  0  0  0  0
  -18.3106   -8.1430   22.9160 C   0  0  0  0  0  0  0  0  0  0  0  0
  -35.1972  -22.0087   24.3888 C   0  0  0  0  0  0  0  0  0  0  0  0
  -32.0304  -18.1674   24.2972 C   0  0  0  0  0  0  0  0  0  0  0  0
  -32.1578  -16.4669   22.5857 C   0  0  0  0  0  0  0  0  0  0  0  0
  -17.9542   -6.7083   21.0051 C   0  0  0  0  0  0  0  0  0  0  0  0
  -23.8198  -10.4809   20.9337 C   0  0  0  0  0  0  0  0  0  0  0  0
  -24.1937  -13.0040   20.8882 C   0  0  0  0  0  0  0  0  0  0  0  0
  -44.1787  -21.2404   25.7491 C   0  0  0  0  0  0  0  0  0  0  0  0
  -36.9577  -20.3859   24.7452 C   0  0  0  0  0  0  0  0  0  0  0  0
  -42.8169  -21.4755   26.0186 C   0  0  0  0  0  0  0  0  0  0  0  0
  -36.3710  -21.3788   23.9477 C   0  0  0  0  0  0  0  0  0  0  0  0
  -30.6412  -18.1881   24.1733 C   0  0  0  0  0  0  0  0  0  0  0  0
  -30.0103  -17.3481   23.2556 C   0  0  0  0  0  0  0  0  0  0  0  0
  -30.7686  -16.4875   22.4618 C   0  0  0  0  0  0  0  0  0  0  0  0
  -22.3082   -8.1792   21.3805 C   0  0  0  0  0  0  0  0  0  0  0  0
  -34.6083  -21.6472   25.6002 C   0  0  0  0  0  0  0  0  0  0  0  0
  -20.2013   -7.2031   21.7418 C   0  0  0  0  0  0  0  0  0  0  0  0
  -17.4428   -7.4998   22.0335 C   0  0  0  0  0  0  0  0  0  0  0  0
  -19.3335   -6.5599   20.8593 C   0  0  0  0  0  0  0  0  0  0  0  0
  -32.7887  -17.3068   23.5034 C   0  0  0  0  0  0  0  0  0  0  0  0
  -24.6013  -11.6693   20.7030 C   0  0  0  0  0  0  0  0  0  0  0  0
  -25.2909  -13.7503   20.5338 C   0  0  0  0  0  0  0  0  0  0  0  0
  -30.7617  -21.2594   25.8759 C   0  0  0  0  0  0  0  0  0  0  0  0
  -22.9358  -13.5227   21.3401 C   0  0  0  0  0  0  0  0  0  0  0  0
  -39.7727  -21.6163   23.9292 C   0  0  0  0  0  0  0  0  0  0  0  0
  -38.6868  -21.0997   20.9166 C   0  0  0  0  0  0  0  0  0  0  0  0
  -36.0180  -20.6926   18.8288 C   0  0  0  0  0  0  0  0  0  0  0  0
  -30.7723  -14.7193   20.6675 C   0  0  0  0  0  0  0  0  0  0  0  0
  -44.8429  -21.7669   24.5016 C   0  0  0  0  0  0  0  0  0  0  0  0
  -38.2021  -19.6767   24.2860 C   0  0  0  0  0  0  0  0  0  0  0  0
  -36.9712  -21.7955   22.6307 C   0  0  0  0  0  0  0  0  0  0  0  0
  -43.8557  -22.1612   23.4060 C   0  0  0  0  0  0  0  0  0  0  0  0
  -30.0228  -22.4901   23.2681 C   0  0  0  0  0  0  0  0  0  0  0  0
  -29.5950  -12.3958   18.2401 C   0  0  0  0  0  0  0  0  0  0  0  0
  -42.7184  -22.9952   23.9872 C   0  0  0  0  0  0  0  0  0  0  0  0
  -30.1244  -23.2763   24.5666 C   0  0  0  0  0  0  0  0  0  0  0  0
  -28.1574  -12.1094   18.6797 C   0  0  0  0  0  0  0  0  0  0  0  0
  -30.2201  -20.9869   23.4445 C   0  0  0  0  0  0  0  0  0  0  0  0
  -30.5287  -12.5748   19.4359 C   0  0  0  0  0  0  0  0  0  0  0  0
  -28.6498  -13.2800   20.8647 C   0  0  0  0  0  0  0  0  0  0  0  0
  -41.9267  -22.1976   25.0306 C   0  0  1  0  0  0  0  0  0  0  0  0
  -31.1534  -22.6857   25.5246 C   0  0  2  0  0  0  0  0  0  0  0  0
  -39.0175  -20.4887   23.2844 C   0  0  1  0  0  0  0  0  0  0  0  0
  -27.6594  -13.1565   19.6952 C   0  0  2  0  0  0  0  0  0  0  0  0
  -28.5195  -17.3737   23.1262 C   0  0  0  0  0  0  0  0  0  0  0  0
  -35.4444  -20.3258   16.4135 C   0  0  0  0  0  0  0  0  0  0  0  0
  -39.2895  -24.0328   20.3306 C   0  0  0  0  0  0  0  0  0  0  0  0
  -37.8523  -23.8481   18.2889 C   0  0  0  0  0  0  0  0  0  0  0  0
  -39.9101  -22.4531   18.4938 C   0  0  0  0  0  0  0  0  0  0  0  0
  -34.7001  -18.1081   19.4141 C   0  0  0  0  0  0  0  0  0  0  0  0
  -29.8486  -19.1237   25.0396 C   0  0  0  0  0  0  0  0  0  0  0  0
  -32.5848  -22.7445   25.0023 C   0  0  0  0  0  0  0  0  0  1  0  0
  -37.8926  -21.9019   19.9142 C   0  0  1  0  0  0  0  0  0  0  0  0
  -35.7296  -19.6623   17.7518 C   0  0  2  0  0  0  0  0  0  0  0  0
  -38.7256  -23.0527   19.2825 C   0  0  0  0  0  0  0  0  0  0  0  0
  -25.8592  -11.5703   20.2649 N   0  0  0  0  0  0  0  0  0  0  0  0
  -26.2514  -12.8523   20.1718 N   0  0  0  0  0  0  0  0  0  0  0  0
  -30.2248  -20.5136   24.8267 N   0  0  0  0  0  0  0  0  0  0  0  0
  -38.1915  -21.0770   22.2280 N   0  0  0  0  0  0  0  0  0  0  0  0
  -29.9950  -13.5847   20.3525 N   0  0  0  0  0  0  0  0  0  0  0  0
  -25.5180  -15.0806   20.4997 N   0  0  0  0  0  0  0  0  0  0  0  0
  -22.7518  -13.7258   22.7146 N   0  0  0  0  0  0  0  0  0  0  0  0
  -30.1481  -15.6264   21.5231 N   0  0  0  0  0  0  0  0  0  0  0  0
  -41.0306  -21.2653   24.3808 N   0  0  0  0  0  0  0  0  0  0  0  0
  -37.3687  -20.9431   18.9473 N   0  0  0  0  0  0  0  0  0  0  0  0
  -34.5476  -18.8364   18.1283 N   0  3  0  0  0  0  0  0  0  0  0  0
  -30.9438  -20.8337   27.0180 O   0  0  0  0  0  0  0  0  0  0  0  0
  -21.9967  -13.7825   20.5500 O   0  0  0  0  0  0  0  0  0  0  0  0
  -39.2531  -22.7232   24.0098 O   0  0  0  0  0  0  0  0  0  0  0  0
  -39.7050  -20.5091   20.5479 O   0  0  0  0  0  0  0  0  0  0  0  0
  -35.1333  -21.2247   19.4956 O   0  0  0  0  0  0  0  0  0  0  0  0
  -31.8974  -14.8881   20.1902 O   0  0  0  0  0  0  0  0  0  0  0  0
  -21.5708   -7.0562   21.5988 O   0  0  0  0  0  0  0  0  0  0  0  0
  -33.4690  -22.2654   26.0147 O   0  0  0  0  0  0  0  0  0  1  0  0
  -16.1183   -7.6412   22.1746 F   0  0  0  0  0  0  0  0  0  0  0  0
  -19.8189   -5.7973   19.8701 F   0  0  0  0  0  0  0  0  0  0  0  0
  -34.5027  -17.2824   23.6557 Cl  0  0  0  0  0  0  0  0  0  0  0  0
  1  2  1  0  0  0  0
  1  5  2  0  0  0  0
  2  6  2  0  0  0  0
  3  8  2  0  0  0  0
  3 17  1  0  0  0  0
  4  9  1  0  0  0  0
  4 17  2  0  0  0  0
  5 19  1  0  0  0  0
  6 21  1  0  0  0  0
  7 10  2  0  0  0  0
  7 20  1  0  0  0  0
  8 26  1  0  0  0  0
  9 26  2  0  0  0  0
 10 27  1  0  0  0  0
 11 12  2  0  0  0  0
 11 28  1  0  0  0  0
 12 29  1  0  0  0  0
 13 22  1  0  0  0  0
 13 27  2  0  0  0  0
 14 23  1  0  0  0  0
 14 31  2  0  0  0  0
 15 25  2  0  0  0  0
 15 31  1  0  0  0  0
 16 29  2  0  0  0  0
 16 30  1  0  0  0  0
 17 32  1  0  0  0  0
 18 32  1  0  0  0  0
 18 33  2  0  0  0  0
 18 35  1  0  0  0  0
 19 21  2  0  0  0  0
 19 40  1  0  0  0  0
 20 22  2  0  0  0  0
 20 41  1  0  0  0  0
 21 52  1  0  0  0  0
 22 42  1  0  0  0  0
 23 24  2  0  0  0  0
 23 62  1  0  0  0  0
 24 25  1  0  0  0  0
 24 56  1  0  0  0  0
 25 74  1  0  0  0  0
 26 84  1  0  0  0  0
 27 85  1  0  0  0  0
 28 30  2  0  0  0  0
 28 84  1  0  0  0  0
 29 86  1  0  0  0  0
 30 87  1  0  0  0  0
 31 88  1  0  0  0  0
 32 67  2  0  0  0  0
 33 68  1  0  0  0  0
 33 72  1  0  0  0  0
 34 53  1  0  0  0  0
 34 69  1  0  0  0  0
 34 78  2  0  0  0  0
 35 73  1  0  0  0  0
 35 79  2  0  0  0  0
 36 54  1  0  0  0  0
 36 75  1  0  0  0  0
 36 80  2  0  0  0  0
 37 64  1  0  0  0  0
 37 70  1  0  0  0  0
 37 81  2  0  0  0  0
 38 65  1  0  0  0  0
 38 76  1  0  0  0  0
 38 82  2  0  0  0  0
 39 71  1  0  0  0  0
 39 74  1  0  0  0  0
 39 83  2  0  0  0  0
 40 43  1  0  0  0  0
 41 54  1  0  0  0  0
 42 70  1  0  0  0  0
 43 46  1  0  0  0  0
 44 47  1  0  0  0  0
 44 49  1  0  0  0  0
 45 48  1  0  0  0  0
 45 50  1  0  0  0  0
 46 52  1  0  0  0  0
 47 53  1  0  0  0  0
 48 55  1  0  0  0  0
 49 69  1  0  0  0  0
 50 71  1  0  0  0  0
 51 55  1  0  0  0  0
 51 71  1  0  0  0  0
 52 75  1  0  0  0  0
 53 63  1  0  0  0  0
 54 70  1  0  0  0  0
 55 68  1  0  0  0  0
 57 65  1  0  0  0  0
 58 66  1  0  0  0  0
 59 66  1  0  0  0  0
 60 66  1  0  0  0  0
 61 77  1  0  0  0  0
 62 69  1  0  0  0  0
 63 85  1  0  0  0  0
 64 66  1  0  0  0  0
 64 76  1  0  0  0  0
 65 77  1  0  0  0  0
 67 68  1  0  0  0  0
M  CHG  1  77   1
M  ISO  4  39 100  63 101  74 100  85 101
M  END
> <Batch ID>
0036

> <Smiles>
CNC(C)C(=O)NC(C(=O)N1Cc2cc([101O:1][101CH2:1]C3CCCN(Cc4cc(Cl)cc([100NH:0][100C:0](=O)N5CCCC(n6nc(-c7ccc(Oc8ccc(F)cc8F)cc7)c(C(N)=O)c6N)C5)c4C)C3=O)ccc2CC1C(=O)NC1CCCc2ccccc21)C(C)(C)C

> <Shape>
0.146

> <Color>
0.173

> <Negative vol penalty>
0.000

$$$$

  -OEChem-04042321543D

 88 97  0     1  0  0  0  0  0999 V2000
  -26.8674  -33.2537   28.1273 C   0  0  0  0  0  0  0  0  0  0  0  0
  -27.5199  -32.8439   26.9690 C   0  0  0  0  0  0  0  0  0  0  0  0
  -26.2989  -11.1901   20.6713 C   0  0  0  0  0  0  0  0  0  0  0  0
  -25.5047  -13.4254   20.2133 C   0  0  0  0  0  0  0  0  0  0  0  0
  -25.6940  -32.6159   28.5279 C   0  0  0  0  0  0  0  0  0  0  0  0
  -26.9999  -31.7953   26.2110 C   0  0  0  0  0  0  0  0  0  0  0  0
  -27.1855  -31.2121   20.1175 C   0  0  0  0  0  0  0  0  0  0  0  0
  -29.7069  -22.5623   20.3010 C   0  0  0  0  0  0  0  0  0  0  0  0
  -30.1850  -21.2796   20.5691 C   0  0  0  0  0  0  0  0  0  0  0  0
  -25.0020  -10.7969   21.0014 C   0  0  0  0  0  0  0  0  0  0  0  0
  -24.2078  -13.0322   20.5434 C   0  0  0  0  0  0  0  0  0  0  0  0
  -28.0274  -30.4943   19.2691 C   0  0  0  0  0  0  0  0  0  0  0  0
  -22.4094  -12.4858   23.3538 C   0  0  0  0  0  0  0  0  0  0  0  0
  -21.6650  -13.3322   24.1753 C   0  0  0  0  0  0  0  0  0  0  0  0
  -26.4232  -28.6936   19.2106 C   0  0  0  0  0  0  0  0  0  0  0  0
  -20.0032  -13.5585   22.4362 C   0  0  0  0  0  0  0  0  0  0  0  0
  -26.5503  -12.5044   20.2772 C   0  0  0  0  0  0  0  0  0  0  0  0
  -28.7044  -12.3854   18.9159 C   0  0  0  0  0  0  0  0  0  0  0  0
  -25.1542  -31.5653   27.7693 C   0  0  0  0  0  0  0  0  0  0  0  0
  -25.9590  -30.6705   20.5282 C   0  0  0  0  0  0  0  0  0  0  0  0
  -25.8190  -31.1419   26.6025 C   0  0  0  0  0  0  0  0  0  0  0  0
  -25.5664  -29.4077   20.0621 C   0  0  0  0  0  0  0  0  0  0  0  0
  -28.8498  -22.7756   19.2214 C   0  0  0  0  0  0  0  0  0  0  0  0
  -28.4707  -21.7063   18.4099 C   0  0  0  0  0  0  0  0  0  0  0  0
  -28.9489  -20.4236   18.6780 C   0  0  0  0  0  0  0  0  0  0  0  0
  -29.8060  -20.2103   19.7576 C   0  0  0  0  0  0  0  0  0  0  0  0
  -23.9564  -11.7179   20.9375 C   0  0  0  0  0  0  0  0  0  0  0  0
  -27.6476  -29.2336   18.8179 C   0  0  0  0  0  0  0  0  0  0  0  0
  -21.9508  -12.1757   22.0735 C   0  0  0  0  0  0  0  0  0  0  0  0
  -20.4618  -13.8686   23.7166 C   0  0  0  0  0  0  0  0  0  0  0  0
  -20.7477  -12.7120   21.6147 C   0  0  0  0  0  0  0  0  0  0  0  0
  -27.8899  -12.9112   19.9366 C   0  0  0  0  0  0  0  0  0  0  0  0
  -29.8712  -13.1047   19.0029 C   0  0  0  0  0  0  0  0  0  0  0  0
  -28.4790  -26.1382   17.5457 C   0  0  0  0  0  0  0  0  0  0  0  0
  -27.6287  -26.2710   16.5143 C   0  0  0  0  0  0  0  0  0  0  0  0
  -28.4308  -11.3401   17.9734 C   0  0  0  0  0  0  0  0  0  0  0  0
  -24.6908  -29.8569   23.3270 C   0  0  0  0  0  0  0  0  0  0  0  0
  -22.0369  -29.3426   21.5341 C   0  0  0  0  0  0  0  0  0  0  0  0
  -21.2697  -27.8880   18.3227 C   0  0  0  0  0  0  0  0  0  0  0  0
  -31.1614  -18.5543   21.0868 C   0  0  0  0  0  0  0  0  0  0  0  0
  -23.9092  -30.8751   28.2677 C   0  0  0  0  0  0  0  0  0  0  0  0
  -25.0502  -31.4689   21.4222 C   0  0  0  0  0  0  0  0  0  0  0  0
  -24.2507  -28.7903   20.4574 C   0  0  0  0  0  0  0  0  0  0  0  0
  -23.2207  -30.0201   27.2070 C   0  0  0  0  0  0  0  0  0  0  0  0
  -32.5844  -15.4721   22.1602 C   0  0  0  0  0  0  0  0  0  0  0  0
  -31.0128  -25.9119   18.8679 C   0  0  0  0  0  0  0  0  0  0  0  0
  -24.2413  -29.1571   26.4719 C   0  0  0  0  0  0  0  0  0  0  0  0
  -30.4484  -27.2921   18.5501 C   0  0  0  0  0  0  0  0  0  0  0  0
  -31.6195  -14.4174   21.6137 C   0  0  0  0  0  0  0  0  0  0  0  0
  -31.8486  -16.7276   22.6249 C   0  0  0  0  0  0  0  0  0  0  0  0
  -29.9823  -16.2684   21.0836 C   0  0  0  0  0  0  0  0  0  0  0  0
  -30.5290  -24.8682   17.8665 C   0  0  0  0  0  0  0  0  0  0  0  0
  -25.2726  -30.0247   25.7404 C   0  0  1  0  0  0  0  0  0  0  0  0
  -28.9238  -27.2634   18.4529 C   0  0  1  0  0  0  0  0  0  1  0  0
  -24.0548  -30.6033   22.1886 C   0  0  1  0  0  0  0  0  0  0  0  0
  -30.6831  -15.0112   20.5431 C   0  0  2  0  0  0  0  0  0  0  0  0
  -27.5512  -21.9382   17.2528 C   0  0  0  0  0  0  0  0  0  0  0  0
  -28.5408  -19.2775   17.8058 C   0  0  0  0  0  0  0  0  0  0  0  0
  -27.2077  -25.1447   15.6367 C   0  0  0  0  0  0  0  0  0  0  0  0
  -19.3740  -28.3347   16.7403 C   0  0  0  0  0  0  0  0  0  0  0  0
  -20.6872  -26.9994   22.9475 C   0  0  0  0  0  0  0  0  0  0  0  0
  -19.7732  -26.2791   20.7307 C   0  0  0  0  0  0  0  0  0  0  0  0
  -19.1294  -28.4928   21.6835 C   0  0  0  0  0  0  0  0  0  0  0  0
  -23.1198  -28.4752   16.0886 C   0  0  0  0  0  0  0  0  0  0  0  0
  -28.3501  -24.1650   18.9554 C   0  0  0  0  0  0  0  0  0  0  0  0
  -21.4678  -28.1651   20.7800 C   0  0  1  0  0  0  0  0  0  0  0  0
  -20.8290  -28.6272   17.0722 C   0  0  2  0  0  0  0  0  0  0  0  0
  -20.2924  -27.4872   21.5392 C   0  0  0  0  0  0  0  0  0  0  0  0
  -28.4886  -13.8891   20.6218 N   0  0  0  0  0  0  0  0  0  0  0  0
  -29.6918  -13.9833   20.0306 N   0  0  0  0  0  0  0  0  0  0  0  0
  -23.3997  -29.6074   21.3381 N   0  0  0  0  0  0  0  0  0  0  0  0
  -30.9841  -17.2361   21.5577 N   0  0  0  0  0  0  0  0  0  0  0  0
  -31.0230  -13.0651   18.2999 N   0  0  0  0  0  0  0  0  0  0  0  0
  -27.8503  -11.6835   16.7448 N   0  0  0  0  0  0  0  0  0  0  0  0
  -30.3036  -18.9159   20.0485 N   0  0  0  0  0  0  0  0  0  0  0  0
  -24.7093  -30.5571   24.5182 N   0  0  0  0  0  0  0  0  0  0  0  0
  -21.1157  -28.6611   19.4540 N   0  0  0  0  0  0  0  0  0  0  0  0
  -29.0212  -24.8172   17.7779 N   0  3  1  0  0  0  0  0  0  0  0  0
  -21.6671  -28.2220   15.9085 N   0  3  0  0  0  0  0  0  0  0  0  0
  -28.6782  -10.1354   18.2202 O   0  0  0  0  0  0  0  0  0  0  0  0
  -25.1308  -28.7288   23.1390 O   0  0  0  0  0  0  0  0  0  0  0  0
  -21.2978  -30.0074   22.2644 O   0  0  0  0  0  0  0  0  0  0  0  0
  -21.7035  -26.7383   18.2988 O   0  0  0  0  0  0  0  0  0  0  0  0
  -32.0298  -19.2978   21.5505 O   0  0  0  0  0  0  0  0  0  0  0  0
  -22.6907  -11.3346   21.2594 O   0  0  0  0  0  0  0  0  0  0  0  0
  -28.4678  -28.5306   17.9902 O   0  0  0  0  0  0  0  0  0  1  0  0
  -19.7463  -14.6802   24.5061 F   0  0  0  0  0  0  0  0  0  0  0  0
  -20.3014  -12.4169   20.3861 F   0  0  0  0  0  0  0  0  0  0  0  0
  1  2  1  0  0  0  0
  1  5  2  0  0  0  0
  2  6  2  0  0  0  0
  3 10  2  0  0  0  0
  3 17  1  0  0  0  0
  4 11  1  0  0  0  0
  4 17  2  0  0  0  0
  5 19  1  0  0  0  0
  6 21  1  0  0  0  0
  7 12  2  0  0  0  0
  7 20  1  0  0  0  0
  8  9  2  0  0  0  0
  8 23  1  0  0  0  0
  9 26  1  0  0  0  0
 10 27  1  0  0  0  0
 11 27  2  0  0  0  0
 12 28  1  0  0  0  0
 13 14  2  0  0  0  0
 13 29  1  0  0  0  0
 14 30  1  0  0  0  0
 15 22  1  0  0  0  0
 15 28  2  0  0  0  0
 16 30  2  0  0  0  0
 16 31  1  0  0  0  0
 17 32  1  0  0  0  0
 18 32  1  0  0  0  0
 18 33  2  0  0  0  0
 18 36  1  0  0  0  0
 19 21  2  0  0  0  0
 19 41  1  0  0  0  0
 20 22  2  0  0  0  0
 20 42  1  0  0  0  0
 21 53  1  0  0  0  0
 22 43  1  0  0  0  0
 23 24  2  0  0  0  0
 23 65  1  0  0  0  0
 24 25  1  0  0  0  0
 24 57  1  0  0  0  0
 25 26  2  0  0  0  0
 25 58  1  0  0  0  0
 26 75  1  0  0  0  0
 27 85  1  0  0  0  0
 28 86  1  0  0  0  0
 29 31  2  0  0  0  0
 29 85  1  0  0  0  0
 30 87  1  0  0  0  0
 31 88  1  0  0  0  0
 32 69  2  0  0  0  0
 33 70  1  0  0  0  0
 33 73  1  0  0  0  0
 34 35  2  0  0  0  0
 34 54  1  0  0  0  0
 34 78  1  0  0  0  0
 35 59  1  0  0  0  0
 36 74  1  0  0  0  0
 36 80  2  0  0  0  0
 37 55  1  0  0  0  0
 37 76  1  0  0  0  0
 37 81  2  0  0  0  0
 38 66  1  0  0  0  0
 38 71  1  0  0  0  0
 38 82  2  0  0  0  0
 39 67  1  0  0  0  0
 39 77  1  0  0  0  0
 39 83  2  0  0  0  0
 40 72  1  0  0  0  0
 40 75  1  0  0  0  0
 40 84  2  0  0  0  0
 41 44  1  0  0  0  0
 42 55  1  0  0  0  0
 43 71  1  0  0  0  0
 44 47  1  0  0  0  0
 45 49  1  0  0  0  0
 45 50  1  0  0  0  0
 46 48  1  0  0  0  0
 46 52  1  0  0  0  0
 47 53  1  0  0  0  0
 48 54  1  0  0  0  0
 49 56  1  0  0  0  0
 50 72  1  0  0  0  0
 51 56  1  0  0  0  0
 51 72  1  0  0  0  0
 52 78  1  0  0  0  0
 53 76  1  0  0  0  0
 54 86  1  0  0  0  0
 55 71  1  0  0  0  0
 56 70  1  0  0  0  0
 60 67  1  0  0  0  0
 61 68  1  0  0  0  0
 62 68  1  0  0  0  0
 63 68  1  0  0  0  0
 64 79  1  0  0  0  0
 65 78  1  0  0  0  0
 66 68  1  0  0  0  0
 66 77  1  0  0  0  0
 67 79  1  0  0  0  0
 69 70  1  0  0  0  0
M  CHG  2  78   1  79   1
M  ISO  4  40 100  54 101  75 100  86 101
M  END
> <Batch ID>
0036

> <Smiles>
CC=C1N(Cc2ccc([100NH:0][100C:0](=O)N3CCCC(n4nc(-c5ccc(Oc6ccc(F)cc6F)cc5)c(C(N)=O)c4N)C3)c(C)c2C)CCC[101CH:1]1[101O:1]c1ccc2c(c1)CN(C(=O)C(NC(=O)C(C)NC)C(C)(C)C)C(C(=O)NC1CCCc3ccccc31)C2

> <Shape>
0.327

> <Color>
0.047

> <Negative vol penalty>
0.000

$$$$

  -OEChem-04042321543D

 92102  0     1  0  0  0  0  0999 V2000
  -27.5957  -34.3270   24.3397 C   0  0  0  0  0  0  0  0  0  0  0  0
  -27.8334  -33.0078   23.9677 C   0  0  0  0  0  0  0  0  0  0  0  0
  -23.0370   -9.9079   19.8513 C   0  0  0  0  0  0  0  0  0  0  0  0
  -24.6176   -9.3136   21.5791 C   0  0  0  0  0  0  0  0  0  0  0  0
  -26.3181  -34.7184   24.7379 C   0  0  0  0  0  0  0  0  0  0  0  0
  -26.7938  -32.0788   23.9947 C   0  0  0  0  0  0  0  0  0  0  0  0
  -26.6821  -29.1672   19.8529 C   0  0  0  0  0  0  0  0  0  0  0  0
  -21.9910   -9.4419   20.6478 C   0  0  0  0  0  0  0  0  0  0  0  0
  -23.5717   -8.8476   22.3757 C   0  0  0  0  0  0  0  0  0  0  0  0
  -27.6035  -28.1232   19.7834 C   0  0  0  0  0  0  0  0  0  0  0  0
  -21.6316   -6.0859   22.5752 C   0  0  0  0  0  0  0  0  0  0  0  0
  -21.8023   -4.8590   23.2166 C   0  0  0  0  0  0  0  0  0  0  0  0
  -25.8885  -26.5718   20.4698 C   0  0  0  0  0  0  0  0  0  0  0  0
  -27.3076  -18.7714   21.1057 C   0  0  0  0  0  0  0  0  0  0  0  0
  -21.5257   -5.9406   25.3592 C   0  0  0  0  0  0  0  0  0  0  0  0
  -24.3503   -9.8437   20.3169 C   0  0  0  0  0  0  0  0  0  0  0  0
  -25.7976   -9.8616   18.2163 C   0  0  0  0  0  0  0  0  0  0  0  0
  -25.2601  -33.7960   24.7606 C   0  0  0  0  0  0  0  0  0  0  0  0
  -25.3574  -28.9226   20.2425 C   0  0  0  0  0  0  0  0  0  0  0  0
  -25.5012  -32.4579   24.3949 C   0  0  0  0  0  0  0  0  0  0  0  0
  -24.9515  -27.6140   20.5409 C   0  0  0  0  0  0  0  0  0  0  0  0
  -25.1358  -17.7242   21.2587 C   0  0  0  0  0  0  0  0  0  0  0  0
  -26.7473  -19.9896   21.4900 C   0  0  0  0  0  0  0  0  0  0  0  0
  -24.5755  -18.9424   21.6431 C   0  0  0  0  0  0  0  0  0  0  0  0
  -25.3813  -20.0751   21.7587 C   0  0  0  0  0  0  0  0  0  0  0  0
  -26.5018  -17.6387   20.9900 C   0  0  0  0  0  0  0  0  0  0  0  0
  -22.2584   -8.9118   21.9100 C   0  0  0  0  0  0  0  0  0  0  0  0
  -27.2075  -26.8257   20.0947 C   0  0  0  0  0  0  0  0  0  0  0  0
  -21.4080   -7.2401   23.3259 C   0  0  0  0  0  0  0  0  0  0  0  0
  -21.7494   -4.7864   24.6085 C   0  0  0  0  0  0  0  0  0  0  0  0
  -21.3551   -7.1675   24.7178 C   0  0  0  0  0  0  0  0  0  0  0  0
  -25.4312  -10.3243   19.4944 C   0  0  0  0  0  0  0  0  0  0  0  0
  -26.8763  -10.6366   17.8667 C   0  0  0  0  0  0  0  0  0  0  0  0
  -25.2149   -8.8240   17.4166 C   0  0  0  0  0  0  0  0  0  0  0  0
  -23.5158  -29.8745   22.6521 C   0  0  0  0  0  0  0  0  0  0  0  0
  -21.2151  -28.2826   21.0105 C   0  0  0  0  0  0  0  0  0  0  0  0
  -20.4259  -25.8516   18.7490 C   0  0  0  0  0  0  0  0  0  0  0  0
  -28.4345  -16.1667   20.2987 C   0  0  0  0  0  0  0  0  0  0  0  0
  -23.9071  -34.2550   25.2436 C   0  0  0  0  0  0  0  0  0  0  0  0
  -24.3689  -30.0555   20.2866 C   0  0  0  0  0  0  0  0  0  0  0  0
  -23.5360  -27.2954   20.9449 C   0  0  0  0  0  0  0  0  0  0  0  0
  -22.7750  -33.2955   24.8859 C   0  0  0  0  0  0  0  0  0  0  0  0
  -23.7044  -13.6413   20.5696 C   0  0  0  0  0  0  0  0  0  0  0  0
  -23.7455  -14.1692   22.0005 C   0  0  0  0  0  0  0  0  0  0  0  0
  -23.3075  -14.7314   19.5788 C   0  0  0  0  0  0  0  0  0  0  0  0
  -30.4118  -13.0483   20.1411 C   0  0  0  0  0  0  0  0  0  0  0  0
  -27.8513  -22.6228   18.0621 C   0  0  0  0  0  0  0  0  0  0  0  0
  -24.6561  -15.3894   22.1255 C   0  0  0  0  0  0  0  0  0  0  0  0
  -24.2160  -15.9543   19.6919 C   0  0  0  0  0  0  0  0  0  0  0  0
  -23.1718  -31.8581   25.2073 C   0  0  0  0  0  0  0  0  0  0  0  0
  -29.4657  -11.9733   19.6039 C   0  0  0  0  0  0  0  0  0  0  0  0
  -28.2419  -24.0553   18.4011 C   0  0  0  0  0  0  0  0  0  0  0  0
  -30.0844  -14.4403   19.6184 C   0  0  0  0  0  0  0  0  0  0  0  0
  -27.6814  -13.7714   19.8396 C   0  0  0  0  0  0  0  0  0  0  0  0
  -28.1522  -21.6710   19.2111 C   0  0  0  0  0  0  0  0  0  0  0  0
  -27.8946  -23.5536   20.8480 C   0  0  0  0  0  0  0  0  0  0  0  0
  -24.2589  -16.4968   21.1323 C   0  0  0  0  0  0  0  0  0  0  0  0
  -24.3937  -31.4266   24.3874 C   0  0  1  0  0  0  0  0  0  0  0  0
  -23.1747  -29.7715   21.1924 C   0  0  1  0  0  0  0  0  0  0  0  0
  -28.1567  -12.5493   19.0383 C   0  0  2  0  0  0  0  0  0  0  0  0
  -27.5965  -24.5148   19.7048 C   0  0  1  0  0  0  0  0  0  1  0  0
  -23.1100  -19.0349   21.9314 C   0  0  0  0  0  0  0  0  0  0  0  0
  -24.7834  -21.3836   22.1695 C   0  0  0  0  0  0  0  0  0  0  0  0
  -18.4593  -24.7574   17.6388 C   0  0  0  0  0  0  0  0  0  0  0  0
  -20.6308  -26.7363   23.5751 C   0  0  0  0  0  0  0  0  0  0  0  0
  -19.3788  -25.0619   22.1977 C   0  0  0  0  0  0  0  0  0  0  0  0
  -18.6008  -27.4302   22.2899 C   0  0  0  0  0  0  0  0  0  0  0  0
  -21.3351  -26.6827   16.0580 C   0  0  0  0  0  0  0  0  0  0  0  0
  -27.6353  -21.1936   21.6032 C   0  0  0  0  0  0  0  0  0  0  0  0
  -20.6986  -26.8642   20.9973 C   0  0  1  0  0  0  0  0  0  0  0  0
  -19.5038  -25.8586   17.5432 C   0  0  2  0  0  0  0  0  0  0  0  0
  -19.8545  -26.5291   22.2593 C   0  0  0  0  0  0  0  0  0  0  0  0
  -26.2138  -11.3163   19.9275 N   0  0  0  0  0  0  0  0  0  0  0  0
  -27.0827  -11.4832   18.9159 N   0  0  0  0  0  0  0  0  0  0  0  0
  -22.6082  -28.4380   20.9795 N   0  0  0  0  0  0  0  0  0  0  0  0
  -28.7067  -14.8243   19.9389 N   0  0  0  0  0  0  0  0  0  0  0  0
  -27.6590  -10.6695   16.7673 N   0  0  0  0  0  0  0  0  0  0  0  0
  -25.7015   -7.5174   17.5593 N   0  0  0  0  0  0  0  0  0  0  0  0
  -27.0921  -16.4112   20.5990 N   0  0  0  0  0  0  0  0  0  0  0  0
  -24.0052  -31.1104   23.0296 N   0  0  0  0  0  0  0  0  0  0  0  0
  -19.9802  -26.7030   19.7378 N   0  0  0  0  0  0  0  0  0  0  0  0
  -27.4653  -22.1604   20.4639 N   0  3  2  0  0  0  0  0  0  0  0  0
  -20.2866  -25.6565   16.2913 N   0  3  0  0  0  0  0  0  0  0  0  0
  -24.3012   -9.0517   16.5878 O   0  0  0  0  0  0  0  0  0  0  0  0
  -23.3462  -28.9050   23.3821 O   0  0  0  0  0  0  0  0  0  0  0  0
  -20.4119  -29.2184   21.0397 O   0  0  0  0  0  0  0  0  0  0  0  0
  -21.4383  -25.1573   18.8094 O   0  0  0  0  0  0  0  0  0  0  0  0
  -29.3258  -17.0171   20.3487 O   0  0  0  0  0  0  0  0  0  0  0  0
  -21.2380   -8.4572   22.6877 O   0  0  0  0  0  0  0  0  0  0  0  0
  -28.1051  -25.8050   20.0283 O   0  0  0  0  0  0  0  0  0  1  0  0
  -21.9118   -3.6079   25.2242 F   0  0  0  0  0  0  0  0  0  0  0  0
  -21.1394   -8.2727   25.4443 F   0  0  0  0  0  0  0  0  0  0  0  0
  1  2  1  0  0  0  0
  1  5  2  0  0  0  0
  2  6  2  0  0  0  0
  3  8  2  0  0  0  0
  3 16  1  0  0  0  0
  4  9  1  0  0  0  0
  4 16  2  0  0  0  0
  5 18  1  0  0  0  0
  6 20  1  0  0  0  0
  7 10  2  0  0  0  0
  7 19  1  0  0  0  0
  8 27  1  0  0  0  0
  9 27  2  0  0  0  0
 10 28  1  0  0  0  0
 11 12  2  0  0  0  0
 11 29  1  0  0  0  0
 12 30  1  0  0  0  0
 13 21  1  0  0  0  0
 13 28  2  0  0  0  0
 14 23  1  0  0  0  0
 14 26  2  0  0  0  0
 15 30  2  0  0  0  0
 15 31  1  0  0  0  0
 16 32  1  0  0  0  0
 17 32  1  0  0  0  0
 17 33  2  0  0  0  0
 17 34  1  0  0  0  0
 18 20  2  0  0  0  0
 18 39  1  0  0  0  0
 19 21  2  0  0  0  0
 19 40  1  0  0  0  0
 20 58  1  0  0  0  0
 21 41  1  0  0  0  0
 22 24  2  0  0  0  0
 22 26  1  0  0  0  0
 22 57  1  0  0  0  0
 23 25  2  0  0  0  0
 23 69  1  0  0  0  0
 24 25  1  0  0  0  0
 24 62  1  0  0  0  0
 25 63  1  0  0  0  0
 26 79  1  0  0  0  0
 27 89  1  0  0  0  0
 28 90  1  0  0  0  0
 29 31  2  0  0  0  0
 29 89  1  0  0  0  0
 30 91  1  0  0  0  0
 31 92  1  0  0  0  0
 32 73  2  0  0  0  0
 33 74  1  0  0  0  0
 33 77  1  0  0  0  0
 34 78  1  0  0  0  0
 34 84  2  0  0  0  0
 35 59  1  0  0  0  0
 35 80  1  0  0  0  0
 35 85  2  0  0  0  0
 36 70  1  0  0  0  0
 36 75  1  0  0  0  0
 36 86  2  0  0  0  0
 37 71  1  0  0  0  0
 37 81  1  0  0  0  0
 37 87  2  0  0  0  0
 38 76  1  0  0  0  0
 38 79  1  0  0  0  0
 38 88  2  0  0  0  0
 39 42  1  0  0  0  0
 40 59  1  0  0  0  0
 41 75  1  0  0  0  0
 42 50  1  0  0  0  0
 43 44  1  0  0  0  0
 43 45  1  0  0  0  0
 44 48  1  0  0  0  0
 45 49  1  0  0  0  0
 46 51  1  0  0  0  0
 46 53  1  0  0  0  0
 47 52  1  0  0  0  0
 47 55  1  0  0  0  0
 48 57  1  0  0  0  0
 49 57  1  0  0  0  0
 50 58  1  0  0  0  0
 51 60  1  0  0  0  0
 52 61  1  0  0  0  0
 53 76  1  0  0  0  0
 54 60  1  0  0  0  0
 54 76  1  0  0  0  0
 55 82  1  0  0  0  0
 56 61  1  0  0  0  0
 56 82  1  0  0  0  0
 58 80  1  0  0  0  0
 59 75  1  0  0  0  0
 60 74  1  0  0  0  0
 61 90  1  0  0  0  0
 64 71  1  0  0  0  0
 65 72  1  0  0  0  0
 66 72  1  0  0  0  0
 67 72  1  0  0  0  0
 68 83  1  0  0  0  0
 69 82  1  0  0  0  0
 70 72  1  0  0  0  0
 70 81  1  0  0  0  0
 71 83  1  0  0  0  0
 73 74  1  0  0  0  0
M  CHG  2  82   1  83   1
M  ISO  4  38 100  61 101  79 100  90 101
M  END
> <Batch ID>
0036

> <Smiles>
CNC(C)C(=O)NC(C(=O)N1Cc2cc([101O:1][101CH:1]3CCCN(Cc4cc([100NH:0][100C:0](=O)N5CCCC(n6nc(-c7ccc(Oc8ccc(F)cc8F)cc7)c(C(N)=O)c6N)C5)c(C5CCCCC5)c(C)c4C)C3)ccc2CC1C(=O)NC1CCCc2ccccc21)C(C)(C)C

> <Shape>
0.321

> <Color>
0.095

> <Negative vol penalty>
0.000

$$$$

  -OEChem-04042321543D

 87 96  0     1  0  0  0  0  0999 V2000
  -31.3505  -27.9043   14.1217 C   0  0  0  0  0  0  0  0  0  0  0  0
  -30.1144  -28.1365   14.7163 C   0  0  0  0  0  0  0  0  0  0  0  0
  -25.3172  -14.9192   20.1561 C   0  0  0  0  0  0  0  0  0  0  0  0
  -26.3097  -16.7652   21.3579 C   0  0  0  0  0  0  0  0  0  0  0  0
  -32.0109  -26.6957   14.3382 C   0  0  0  0  0  0  0  0  0  0  0  0
  -29.5375  -27.1596   15.5271 C   0  0  0  0  0  0  0  0  0  0  0  0
  -27.6234  -29.0702   19.8085 C   0  0  0  0  0  0  0  0  0  0  0  0
  -26.4482  -14.1441   20.4126 C   0  0  0  0  0  0  0  0  0  0  0  0
  -27.4406  -15.9901   21.6145 C   0  0  0  0  0  0  0  0  0  0  0  0
  -26.3909  -29.7162   19.7224 C   0  0  0  0  0  0  0  0  0  0  0  0
  -29.5852  -13.8362   19.1927 C   0  0  0  0  0  0  0  0  0  0  0  0
  -30.1161  -13.0962   18.1362 C   0  0  0  0  0  0  0  0  0  0  0  0
  -25.2997  -27.7326   20.5555 C   0  0  0  0  0  0  0  0  0  0  0  0
  -20.3227  -24.3945   23.1163 C   0  0  0  0  0  0  0  0  0  0  0  0
  -19.6423  -26.1629   21.6174 C   0  0  0  0  0  0  0  0  0  0  0  0
  -29.7582  -11.0584   19.3838 C   0  0  0  0  0  0  0  0  0  0  0  0
  -25.2480  -16.2297   20.6287 C   0  0  0  0  0  0  0  0  0  0  0  0
  -22.7550  -16.7569   20.7516 C   0  0  0  0  0  0  0  0  0  0  0  0
  -31.4463  -25.7073   15.1598 C   0  0  0  0  0  0  0  0  0  0  0  0
  -27.7022  -27.7446   20.2593 C   0  0  0  0  0  0  0  0  0  0  0  0
  -30.1904  -25.9361   15.7537 C   0  0  0  0  0  0  0  0  0  0  0  0
  -26.5347  -27.0729   20.6489 C   0  0  0  0  0  0  0  0  0  0  0  0
  -19.8029  -24.8040   21.8884 C   0  0  0  0  0  0  0  0  0  0  0  0
  -20.6818  -25.3437   24.0732 C   0  0  0  0  0  0  0  0  0  0  0  0
  -20.0015  -27.1122   22.5743 C   0  0  0  0  0  0  0  0  0  0  0  0
  -20.5212  -26.7026   23.8022 C   0  0  0  0  0  0  0  0  0  0  0  0
  -27.5099  -14.6795   21.1418 C   0  0  0  0  0  0  0  0  0  0  0  0
  -25.2285  -29.0465   20.0931 C   0  0  0  0  0  0  0  0  0  0  0  0
  -29.1410  -13.1874   20.3448 C   0  0  0  0  0  0  0  0  0  0  0  0
  -30.2025  -11.7073   18.2317 C   0  0  0  0  0  0  0  0  0  0  0  0
  -29.2274  -11.7985   20.4403 C   0  0  0  0  0  0  0  0  0  0  0  0
  -24.0802  -17.0311   20.3636 C   0  0  0  0  0  0  0  0  0  0  0  0
  -22.0280  -17.8142   20.2617 C   0  0  0  0  0  0  0  0  0  0  0  0
  -22.2284  -15.6458   21.4891 C   0  0  0  0  0  0  0  0  0  0  0  0
  -28.6697  -24.9968   18.9877 C   0  0  0  0  0  0  0  0  0  0  0  0
  -28.1514  -23.8754   21.9870 C   0  0  0  0  0  0  0  0  0  0  0  0
  -26.5270  -24.2201   24.9685 C   0  0  0  0  0  0  0  0  0  0  0  0
  -21.3693  -23.2909   19.4149 C   0  0  0  0  0  0  0  0  0  0  0  0
  -32.1758  -24.3979   15.3262 C   0  0  0  0  0  0  0  0  0  0  0  0
  -29.0423  -27.0708   20.3717 C   0  0  0  0  0  0  0  0  0  0  0  0
  -26.5676  -25.6560   21.1585 C   0  0  0  0  0  0  0  0  0  0  0  0
  -31.6700  -23.5638   16.5004 C   0  0  0  0  0  0  0  0  0  0  0  0
  -23.3293  -21.4955   17.0460 C   0  0  0  0  0  0  0  0  0  0  0  0
  -22.1911  -31.5351   22.6991 C   0  0  0  0  0  0  0  0  0  0  0  0
  -30.1456  -23.5096   16.4993 C   0  0  0  0  0  0  0  0  0  0  0  0
  -23.5950  -20.1546   17.7324 C   0  0  0  0  0  0  0  0  0  0  0  0
  -23.0961  -31.3043   21.4961 C   0  0  0  0  0  0  0  0  0  0  0  0
  -23.3312  -22.6509   18.0446 C   0  0  0  0  0  0  0  0  0  0  0  0
  -22.6885  -21.1369   19.8799 C   0  0  0  0  0  0  0  0  0  0  0  0
  -20.8587  -30.8153   22.5468 C   0  0  0  0  0  0  0  0  0  0  0  0
  -21.9448  -29.1008   21.0734 C   0  0  0  0  0  0  0  0  0  0  0  0
  -29.5436  -24.9108   16.6596 C   0  0  1  0  0  0  0  0  0  0  0  0
  -28.9485  -25.5482   20.3573 C   0  0  1  0  0  0  0  0  0  0  0  0
  -22.6408  -19.9346   18.9216 C   0  0  2  0  0  0  0  0  0  0  0  0
  -23.2818  -29.8162   21.2163 C   0  0  1  0  0  0  0  0  0  1  0  0
  -21.2372  -24.8789   25.3798 C   0  0  0  0  0  0  0  0  0  0  0  0
  -20.9068  -27.7201   24.8282 C   0  0  0  0  0  0  0  0  0  0  0  0
  -26.2783  -23.1279   27.2141 C   0  0  0  0  0  0  0  0  0  0  0  0
  -26.3821  -21.7237   20.7420 C   0  0  0  0  0  0  0  0  0  0  0  0
  -25.4335  -21.2857   23.0172 C   0  0  0  0  0  0  0  0  0  0  0  0
  -27.8631  -20.9168   22.5886 C   0  0  0  0  0  0  0  0  0  0  0  0
  -27.5552  -26.6124   26.3750 C   0  0  0  0  0  0  0  0  0  0  0  0
  -19.4183  -23.7892   20.8657 C   0  0  0  0  0  0  0  0  0  0  0  0
  -19.8190  -28.5674   22.2580 C   0  0  0  0  0  0  0  0  0  0  0  0
  -26.9718  -23.2793   22.7165 C   0  0  1  0  0  0  0  0  0  0  0  0
  -27.0285  -24.1710   26.4004 C   0  0  2  0  0  0  0  0  0  0  0  0
  -26.6615  -21.8274   22.2547 C   0  0  0  0  0  0  0  0  0  0  0  0
  -24.1914  -18.1730   19.6797 N   0  0  0  0  0  0  0  0  0  0  0  0
  -22.9269  -18.6256   19.6341 N   0  0  0  0  0  0  0  0  0  0  0  0
  -27.9011  -25.0379   21.2443 N   0  0  0  0  0  0  0  0  0  0  0  0
  -22.4046  -22.3804   19.1465 N   0  0  0  0  0  0  0  0  0  0  0  0
  -20.7140  -18.1196   20.3107 N   0  0  0  0  0  0  0  0  0  0  0  0
  -22.1645  -15.7410   22.8859 N   0  0  0  0  0  0  0  0  0  0  0  0
  -29.6167  -25.3372   18.0407 N   0  0  0  0  0  0  0  0  0  0  0  0
  -27.2669  -23.4033   24.1399 N   0  0  0  0  0  0  0  0  0  0  0  0
  -20.5324  -22.9556   20.4722 N   0  0  0  0  0  0  0  0  0  0  0  0
  -21.1051  -29.3456   22.3013 N   0  3  2  0  0  0  0  0  0  0  0  0
  -26.8505  -25.4967   27.0574 N   0  3  0  0  0  0  0  0  0  0  0  0
  -21.8415  -14.5931   20.9272 O   0  0  0  0  0  0  0  0  0  0  0  0
  -27.6703  -24.3119   18.8040 O   0  0  0  0  0  0  0  0  0  0  0  0
  -29.2558  -23.3337   22.0788 O   0  0  0  0  0  0  0  0  0  0  0  0
  -25.5718  -24.9108   24.6206 O   0  0  0  0  0  0  0  0  0  0  0  0
  -21.1998  -24.3233   18.7574 O   0  0  0  0  0  0  0  0  0  0  0  0
  -28.6135  -13.9234   21.3925 O   0  0  0  0  0  0  0  0  0  0  0  0
  -24.0242  -29.6745   20.0094 O   0  0  0  0  0  0  0  0  0  1  0  0
  -30.7109  -10.9966   17.2165 F   0  0  0  0  0  0  0  0  0  0  0  0
  -28.8011  -11.1694   21.5441 F   0  0  0  0  0  0  0  0  0  0  0  0
  1  2  1  0  0  0  0
  1  5  2  0  0  0  0
  2  6  2  0  0  0  0
  3  8  2  0  0  0  0
  3 17  1  0  0  0  0
  4  9  1  0  0  0  0
  4 17  2  0  0  0  0
  5 19  1  0  0  0  0
  6 21  1  0  0  0  0
  7 10  2  0  0  0  0
  7 20  1  0  0  0  0
  8 27  1  0  0  0  0
  9 27  2  0  0  0  0
 10 28  1  0  0  0  0
 11 12  2  0  0  0  0
 11 29  1  0  0  0  0
 12 30  1  0  0  0  0
 13 22  1  0  0  0  0
 13 28  2  0  0  0  0
 14 23  1  0  0  0  0
 14 24  2  0  0  0  0
 15 23  2  0  0  0  0
 15 25  1  0  0  0  0
 16 30  2  0  0  0  0
 16 31  1  0  0  0  0
 17 32  1  0  0  0  0
 18 32  1  0  0  0  0
 18 33  2  0  0  0  0
 18 34  1  0  0  0  0
 19 21  2  0  0  0  0
 19 39  1  0  0  0  0
 20 22  2  0  0  0  0
 20 40  1  0  0  0  0
 21 52  1  0  0  0  0
 22 41  1  0  0  0  0
 23 63  1  0  0  0  0
 24 26  1  0  0  0  0
 24 56  1  0  0  0  0
 25 26  2  0  0  0  0
 25 64  1  0  0  0  0
 26 57  1  0  0  0  0
 27 84  1  0  0  0  0
 28 85  1  0  0  0  0
 29 31  2  0  0  0  0
 29 84  1  0  0  0  0
 30 86  1  0  0  0  0
 31 87  1  0  0  0  0
 32 68  2  0  0  0  0
 33 69  1  0  0  0  0
 33 72  1  0  0  0  0
 34 73  1  0  0  0  0
 34 79  2  0  0  0  0
 35 53  1  0  0  0  0
 35 74  1  0  0  0  0
 35 80  2  0  0  0  0
 36 65  1  0  0  0  0
 36 70  1  0  0  0  0
 36 81  2  0  0  0  0
 37 66  1  0  0  0  0
 37 75  1  0  0  0  0
 37 82  2  0  0  0  0
 38 71  1  0  0  0  0
 38 76  1  0  0  0  0
 38 83  2  0  0  0  0
 39 42  1  0  0  0  0
 40 53  1  0  0  0  0
 41 70  1  0  0  0  0
 42 45  1  0  0  0  0
 43 46  1  0  0  0  0
 43 48  1  0  0  0  0
 44 47  1  0  0  0  0
 44 50  1  0  0  0  0
 45 52  1  0  0  0  0
 46 54  1  0  0  0  0
 47 55  1  0  0  0  0
 48 71  1  0  0  0  0
 49 54  1  0  0  0  0
 49 71  1  0  0  0  0
 50 77  1  0  0  0  0
 51 55  1  0  0  0  0
 51 77  1  0  0  0  0
 52 74  1  0  0  0  0
 53 70  1  0  0  0  0
 54 69  1  0  0  0  0
 55 85  1  0  0  0  0
 58 66  1  0  0  0  0
 59 67  1  0  0  0  0
 60 67  1  0  0  0  0
 61 67  1  0  0  0  0
 62 78  1  0  0  0  0
 63 76  1  0  0  0  0
 64 77  1  0  0  0  0
 65 67  1  0  0  0  0
 65 75  1  0  0  0  0
 66 78  1  0  0  0  0
 68 69  1  0  0  0  0
M  CHG  2  77   1  78   1
M  ISO  4  38 100  55 101  76 100  85 101
M  END
> <Batch ID>
0036

> <Smiles>
CNC(C)C(=O)NC(C(=O)N1Cc2cc([101O:1][101CH:1]3CCCN(Cc4cc(C[100NH:0][100C:0](=O)N5CCCC(n6nc(-c7ccc(Oc8ccc(F)cc8F)cc7)c(C(N)=O)c6N)C5)cc(C)c4C)C3)ccc2CC1C(=O)NC1CCCc2ccccc21)C(C)(C)C

> <Shape>
0.200

> <Color>
0.056

> <Negative vol penalty>
0.000

$$$$

  -OEChem-04042321543D

 90 99  0     1  0  0  0  0  0999 V2000
  -21.2823  -26.7791   32.7673 C   0  0  0  0  0  0  0  0  0  0  0  0
  -22.0823  -25.6417   32.8089 C   0  0  0  0  0  0  0  0  0  0  0  0
  -22.8631  -10.0500   20.0420 C   0  0  0  0  0  0  0  0  0  0  0  0
  -24.3074   -9.4512   21.8838 C   0  0  0  0  0  0  0  0  0  0  0  0
  -20.2196  -26.8500   31.8675 C   0  0  0  0  0  0  0  0  0  0  0  0
  -21.8193  -24.5740   31.9514 C   0  0  0  0  0  0  0  0  0  0  0  0
  -25.1567  -19.3883   28.3062 C   0  0  0  0  0  0  0  0  0  0  0  0
  -22.1698   -8.8494   20.1952 C   0  0  0  0  0  0  0  0  0  0  0  0
  -23.6140   -8.2506   22.0371 C   0  0  0  0  0  0  0  0  0  0  0  0
  -25.1193  -18.0071   28.1202 C   0  0  0  0  0  0  0  0  0  0  0  0
  -20.7003   -7.2154   23.4007 C   0  0  0  0  0  0  0  0  0  0  0  0
  -20.3509   -6.8313   24.6953 C   0  0  0  0  0  0  0  0  0  0  0  0
  -23.3052  -18.2734   26.5526 C   0  0  0  0  0  0  0  0  0  0  0  0
  -31.6153  -11.9574   25.8966 C   0  0  0  0  0  0  0  0  0  0  0  0
  -21.6452   -4.8067   24.4439 C   0  0  0  0  0  0  0  0  0  0  0  0
  -23.9319  -10.3509   20.8862 C   0  0  0  0  0  0  0  0  0  0  0  0
  -24.1255  -12.8938   20.8265 C   0  0  0  0  0  0  0  0  0  0  0  0
  -19.9494  -25.7865   30.9919 C   0  0  0  0  0  0  0  0  0  0  0  0
  -24.2599  -20.2229   27.6239 C   0  0  0  0  0  0  0  0  0  0  0  0
  -20.7512  -24.6301   31.0400 C   0  0  0  0  0  0  0  0  0  0  0  0
  -23.3350  -19.6651   26.7297 C   0  0  0  0  0  0  0  0  0  0  0  0
  -31.0894  -12.9084   25.0222 C   0  0  0  0  0  0  0  0  0  0  0  0
  -30.0028  -13.6904   25.4137 C   0  0  0  0  0  0  0  0  0  0  0  0
  -29.4420  -13.5215   26.6797 C   0  0  0  0  0  0  0  0  0  0  0  0
  -29.9678  -12.5704   27.5541 C   0  0  0  0  0  0  0  0  0  0  0  0
  -22.5452   -7.9497   21.1928 C   0  0  0  0  0  0  0  0  0  0  0  0
  -24.1915  -17.4492   27.2455 C   0  0  0  0  0  0  0  0  0  0  0  0
  -21.5221   -6.3951   22.6277 C   0  0  0  0  0  0  0  0  0  0  0  0
  -20.8234   -5.6270   25.2169 C   0  0  0  0  0  0  0  0  0  0  0  0
  -21.9946   -5.1908   23.1493 C   0  0  0  0  0  0  0  0  0  0  0  0
  -31.0545  -11.7884   27.1626 C   0  0  0  0  0  0  0  0  0  0  0  0
  -24.6489  -11.5907   20.7280 C   0  0  0  0  0  0  0  0  0  0  0  0
  -25.2026  -13.7146   20.5970 C   0  0  0  0  0  0  0  0  0  0  0  0
  -25.8860  -14.4596   27.5325 C   0  0  0  0  0  0  0  0  0  0  0  0
  -25.4315  -14.2569   28.7802 C   0  0  0  0  0  0  0  0  0  0  0  0
  -22.7856  -13.3239   21.1009 C   0  0  0  0  0  0  0  0  0  0  0  0
  -21.9613  -22.2367   28.4983 C   0  0  0  0  0  0  0  0  0  0  0  0
  -21.8859  -22.9149   25.3271 C   0  0  0  0  0  0  0  0  0  0  0  0
  -22.0615  -21.0659   22.2339 C   0  0  0  0  0  0  0  0  0  0  0  0
  -31.1068  -12.9770   21.2663 C   0  0  0  0  0  0  0  0  0  0  0  0
  -18.7607  -25.8898   30.0695 C   0  0  0  0  0  0  0  0  0  0  0  0
  -24.3309  -21.7132   27.8153 C   0  0  0  0  0  0  0  0  0  0  0  0
  -22.3640  -20.5192   25.9578 C   0  0  0  0  0  0  0  0  0  0  0  0
  -18.7789  -24.8679   28.9356 C   0  0  0  0  0  0  0  0  0  0  0  0
  -29.3833  -13.8449   18.2741 C   0  0  0  0  0  0  0  0  0  0  0  0
  -26.1876  -13.9843   24.7214 C   0  0  0  0  0  0  0  0  0  0  0  0
  -19.1178  -23.4809   29.4725 C   0  0  0  0  0  0  0  0  0  0  0  0
  -25.0144  -14.8184   25.2238 C   0  0  0  0  0  0  0  0  0  0  0  0
  -27.9273  -13.4832   18.5726 C   0  0  0  0  0  0  0  0  0  0  0  0
  -30.3533  -12.8514   18.9098 C   0  0  0  0  0  0  0  0  0  0  0  0
  -28.7106  -12.2821   20.6565 C   0  0  0  0  0  0  0  0  0  0  0  0
  -26.6335  -12.9650   25.7646 C   0  0  0  0  0  0  0  0  0  0  0  0
  -20.5129  -23.4613   30.1087 C   0  0  1  0  0  0  0  0  0  0  0  0
  -25.3328  -15.4804   26.5636 C   0  0  1  0  0  0  0  0  0  1  0  0
  -23.0293  -22.4241   27.4582 C   0  0  1  0  0  0  0  0  0  0  0  0
  -27.6966  -13.2867   20.0831 C   0  0  2  0  0  0  0  0  0  0  0  0
  -29.4410  -14.7095   24.4733 C   0  0  0  0  0  0  0  0  0  0  0  0
  -29.3558  -12.3996   28.9102 C   0  0  0  0  0  0  0  0  0  0  0  0
  -25.9957  -13.2437   29.7136 C   0  0  0  0  0  0  0  0  0  0  0  0
  -22.8482  -21.7670   19.9565 C   0  0  0  0  0  0  0  0  0  0  0  0
  -18.9420  -23.5361   24.8194 C   0  0  0  0  0  0  0  0  0  0  0  0
  -19.2314  -22.6630   22.4908 C   0  0  0  0  0  0  0  0  0  0  0  0
  -20.5308  -24.6544   23.2447 C   0  0  0  0  0  0  0  0  0  0  0  0
  -24.0040  -18.8376   22.0917 C   0  0  0  0  0  0  0  0  0  0  0  0
  -31.7081  -13.0696   23.6723 C   0  0  0  0  0  0  0  0  0  0  0  0
  -28.2735  -14.3638   27.0992 C   0  0  0  0  0  0  0  0  0  0  0  0
  -21.1400  -22.3675   24.1342 C   0  0  1  0  0  0  0  0  0  0  0  0
  -23.2154  -21.0522   21.2476 C   0  0  2  0  0  0  0  0  0  0  0  0
  -19.9673  -23.2889   23.6947 C   0  0  0  0  0  0  0  0  0  0  0  0
  -25.9567  -11.5793   20.4570 N   0  0  0  0  0  0  0  0  0  0  0  0
  -26.2642  -12.8855   20.3831 N   0  0  0  0  0  0  0  0  0  0  0  0
  -22.4685  -21.9703   26.1839 N   0  0  0  0  0  0  0  0  0  0  0  0
  -30.0822  -12.7122   20.3426 N   0  0  0  0  0  0  0  0  0  0  0  0
  -25.3357  -15.0575   20.5593 N   0  0  0  0  0  0  0  0  0  0  0  0
  -22.4113  -13.5337   22.4351 N   0  0  0  0  0  0  0  0  0  0  0  0
  -21.5347  -23.4129   29.0850 N   0  0  0  0  0  0  0  0  0  0  0  0
  -22.1404  -22.1380   23.0974 N   0  0  0  0  0  0  0  0  0  0  0  0
  -30.7638  -12.8271   22.6044 N   0  0  0  0  0  0  0  0  0  0  0  0
  -26.9709  -13.6121   27.0880 N   0  3  1  0  0  0  0  0  0  0  0  0
  -23.5971  -19.6502   20.9165 N   0  3  0  0  0  0  0  0  0  0  0  0
  -21.9404  -13.5007   20.1910 O   0  0  0  0  0  0  0  0  0  0  0  0
  -21.5533  -21.1087   28.7490 O   0  0  0  0  0  0  0  0  0  0  0  0
  -21.9553  -24.1358   25.4887 O   0  0  0  0  0  0  0  0  0  0  0  0
  -21.1765  -20.2131   22.2356 O   0  0  0  0  0  0  0  0  0  0  0  0
  -32.2415  -13.3265   20.9239 O   0  0  0  0  0  0  0  0  0  0  0  0
  -21.8688   -6.7782   21.3428 O   0  0  0  0  0  0  0  0  0  0  0  0
  -24.1524  -16.1013   27.0626 O   0  0  0  0  0  0  0  0  0  1  0  0
  -20.4891   -5.2590   26.4607 F   0  0  0  0  0  0  0  0  0  0  0  0
  -22.7854   -4.3992   22.4118 F   0  0  0  0  0  0  0  0  0  0  0  0
  -31.7353  -10.6010   28.2153 Cl  0  0  0  0  0  0  0  0  0  0  0  0
  1  2  1  0  0  0  0
  1  5  2  0  0  0  0
  2  6  2  0  0  0  0
  3  8  2  0  0  0  0
  3 16  1  0  0  0  0
  4  9  1  0  0  0  0
  4 16  2  0  0  0  0
  5 18  1  0  0  0  0
  6 20  1  0  0  0  0
  7 10  2  0  0  0  0
  7 19  1  0  0  0  0
  8 26  1  0  0  0  0
  9 26  2  0  0  0  0
 10 27  1  0  0  0  0
 11 12  2  0  0  0  0
 11 28  1  0  0  0  0
 12 29  1  0  0  0  0
 13 21  1  0  0  0  0
 13 27  2  0  0  0  0
 14 22  2  0  0  0  0
 14 31  1  0  0  0  0
 15 29  2  0  0  0  0
 15 30  1  0  0  0  0
 16 32  1  0  0  0  0
 17 32  1  0  0  0  0
 17 33  2  0  0  0  0
 17 36  1  0  0  0  0
 18 20  2  0  0  0  0
 18 41  1  0  0  0  0
 19 21  2  0  0  0  0
 19 42  1  0  0  0  0
 20 53  1  0  0  0  0
 21 43  1  0  0  0  0
 22 23  1  0  0  0  0
 22 65  1  0  0  0  0
 23 24  2  0  0  0  0
 23 57  1  0  0  0  0
 24 25  1  0  0  0  0
 24 66  1  0  0  0  0
 25 31  2  0  0  0  0
 25 58  1  0  0  0  0
 26 86  1  0  0  0  0
 27 87  1  0  0  0  0
 28 30  2  0  0  0  0
 28 86  1  0  0  0  0
 29 88  1  0  0  0  0
 30 89  1  0  0  0  0
 31 90  1  0  0  0  0
 32 70  2  0  0  0  0
 33 71  1  0  0  0  0
 33 74  1  0  0  0  0
 34 35  2  0  0  0  0
 34 54  1  0  0  0  0
 34 79  1  0  0  0  0
 35 59  1  0  0  0  0
 36 75  1  0  0  0  0
 36 81  2  0  0  0  0
 37 55  1  0  0  0  0
 37 76  1  0  0  0  0
 37 82  2  0  0  0  0
 38 67  1  0  0  0  0
 38 72  1  0  0  0  0
 38 83  2  0  0  0  0
 39 68  1  0  0  0  0
 39 77  1  0  0  0  0
 39 84  2  0  0  0  0
 40 73  1  0  0  0  0
 40 78  1  0  0  0  0
 40 85  2  0  0  0  0
 41 44  1  0  0  0  0
 42 55  1  0  0  0  0
 43 72  1  0  0  0  0
 44 47  1  0  0  0  0
 45 49  1  0  0  0  0
 45 50  1  0  0  0  0
 46 48  1  0  0  0  0
 46 52  1  0  0  0  0
 47 53  1  0  0  0  0
 48 54  1  0  0  0  0
 49 56  1  0  0  0  0
 50 73  1  0  0  0  0
 51 56  1  0  0  0  0
 51 73  1  0  0  0  0
 52 79  1  0  0  0  0
 53 76  1  0  0  0  0
 54 87  1  0  0  0  0
 55 72  1  0  0  0  0
 56 71  1  0  0  0  0
 60 68  1  0  0  0  0
 61 69  1  0  0  0  0
 62 69  1  0  0  0  0
 63 69  1  0  0  0  0
 64 80  1  0  0  0  0
 65 78  1  0  0  0  0
 66 79  1  0  0  0  0
 67 69  1  0  0  0  0
 67 77  1  0  0  0  0
 68 80  1  0  0  0  0
 70 71  1  0  0  0  0
M  CHG  2  79   1  80   1
M  ISO  4  40 100  54 101  78 100  87 101
M  END
> <Batch ID>
0036

> <Smiles>
CC=C1N(Cc2c(C)c(Cl)cc(C[100NH:0][100C:0](=O)N3CCCC(n4nc(-c5ccc(Oc6ccc(F)cc6F)cc5)c(C(N)=O)c4N)C3)c2C)CCC[101CH:1]1[101O:1]c1ccc2c(c1)CN(C(=O)C(NC(=O)C(C)NC)C(C)(C)C)C(C(=O)NC1CCCc3ccccc31)C2

> <Shape>
0.149

> <Color>
0.154

> <Negative vol penalty>
0.000

$$$$

  -OEChem-04042321543D

 87 96  0     1  0  0  0  0  0999 V2000
  -28.2978  -12.0040   18.1148 C   0  0  0  0  0  0  0  0  0  0  0  0
  -27.7425  -13.1600   17.5756 C   0  0  0  0  0  0  0  0  0  0  0  0
  -28.0523  -23.5182   18.2628 C   0  0  0  0  0  0  0  0  0  0  0  0
  -26.8369  -23.1386   20.3161 C   0  0  0  0  0  0  0  0  0  0  0  0
  -27.7251  -11.4174   19.2426 C   0  0  0  0  0  0  0  0  0  0  0  0
  -26.6135  -13.7295   18.1633 C   0  0  0  0  0  0  0  0  0  0  0  0
  -23.5491  -20.0940   19.3548 C   0  0  0  0  0  0  0  0  0  0  0  0
  -17.9058  -27.6506   22.0940 C   0  0  0  0  0  0  0  0  0  0  0  0
  -28.8870  -22.4403   18.5576 C   0  0  0  0  0  0  0  0  0  0  0  0
  -27.6716  -22.0606   20.6108 C   0  0  0  0  0  0  0  0  0  0  0  0
  -22.3340  -20.7543   19.1780 C   0  0  0  0  0  0  0  0  0  0  0  0
  -30.7851  -21.5837   21.8395 C   0  0  0  0  0  0  0  0  0  0  0  0
  -31.2795  -21.4835   23.1399 C   0  0  0  0  0  0  0  0  0  0  0  0
  -18.2162  -28.9848   22.3571 C   0  0  0  0  0  0  0  0  0  0  0  0
  -21.4773  -19.6984   21.1706 C   0  0  0  0  0  0  0  0  0  0  0  0
  -30.2045  -19.3335   23.3831 C   0  0  0  0  0  0  0  0  0  0  0  0
  -27.0273  -23.8674   19.1421 C   0  0  0  0  0  0  0  0  0  0  0  0
  -25.3325  -25.1296   17.7131 C   0  0  0  0  0  0  0  0  0  0  0  0
  -26.5943  -11.9855   19.8502 C   0  0  0  0  0  0  0  0  0  0  0  0
  -23.7341  -19.2210   20.4365 C   0  0  0  0  0  0  0  0  0  0  0  0
  -26.0244  -13.1493   19.2995 C   0  0  0  0  0  0  0  0  0  0  0  0
  -22.6966  -19.0302   21.3602 C   0  0  0  0  0  0  0  0  0  0  0  0
  -18.8018  -26.6427   22.4504 C   0  0  0  0  0  0  0  0  0  0  0  0
  -20.0082  -26.9690   23.0699 C   0  0  0  0  0  0  0  0  0  0  0  0
  -20.3186  -28.3032   23.3331 C   0  0  0  0  0  0  0  0  0  0  0  0
  -28.6967  -21.7114   19.7316 C   0  0  0  0  0  0  0  0  0  0  0  0
  -21.2969  -20.5544   20.0844 C   0  0  0  0  0  0  0  0  0  0  0  0
  -30.0003  -20.5588   21.3109 C   0  0  0  0  0  0  0  0  0  0  0  0
  -30.9893  -20.3585   23.9117 C   0  0  0  0  0  0  0  0  0  0  0  0
  -29.7101  -19.4337   22.0826 C   0  0  0  0  0  0  0  0  0  0  0  0
  -19.4225  -29.3111   22.9766 C   0  0  0  0  0  0  0  0  0  0  0  0
  -26.1651  -24.9812   18.8385 C   0  0  0  0  0  0  0  0  0  0  0  0
  -24.7268  -26.3492   17.8925 C   0  0  0  0  0  0  0  0  0  0  0  0
  -25.1250  -24.2441   16.6047 C   0  0  0  0  0  0  0  0  0  0  0  0
  -24.3567  -16.1182   20.7339 C   0  0  0  0  0  0  0  0  0  0  0  0
  -24.5872  -16.8639   23.8824 C   0  0  0  0  0  0  0  0  0  0  0  0
  -23.7429  -18.9723   26.4297 C   0  0  0  0  0  0  0  0  0  0  0  0
  -23.5244  -29.6286   22.7557 C   0  0  0  0  0  0  0  0  0  0  0  0
  -25.9823  -11.2890   21.0398 C   0  0  0  0  0  0  0  0  0  0  0  0
  -25.0599  -18.5369   20.6280 C   0  0  0  0  0  0  0  0  0  0  0  0
  -22.8512  -18.1191   22.5495 C   0  0  0  0  0  0  0  0  0  0  0  0
  -25.0097  -12.1653   21.8248 C   0  0  0  0  0  0  0  0  0  0  0  0
  -25.4407  -30.6217   19.9241 C   0  0  0  0  0  0  0  0  0  0  0  0
  -19.5133  -24.6312   18.5324 C   0  0  0  0  0  0  0  0  0  0  0  0
  -24.0533  -12.8825   20.8774 C   0  0  0  0  0  0  0  0  0  0  0  0
  -25.7685  -29.3021   19.2232 C   0  0  0  0  0  0  0  0  0  0  0  0
  -19.6434  -23.1140   18.5587 C   0  0  0  0  0  0  0  0  0  0  0  0
  -25.4493  -30.4710   21.4437 C   0  0  0  0  0  0  0  0  0  0  0  0
  -24.9182  -28.0712   21.2629 C   0  0  0  0  0  0  0  0  0  0  0  0
  -18.6440  -25.1410   19.6730 C   0  0  0  0  0  0  0  0  0  0  0  0
  -19.2680  -23.1415   21.0523 C   0  0  0  0  0  0  0  0  0  0  0  0
  -24.8147  -13.8108   19.9233 C   0  0  1  0  0  0  0  0  0  0  0  0
  -24.9632  -17.2739   21.4783 C   0  0  1  0  0  0  0  0  0  0  0  0
  -24.8665  -28.1599   19.7281 C   0  0  2  0  0  0  0  0  0  0  0  0
  -20.1373  -22.6209   19.9152 C   0  0  1  0  0  0  0  0  0  1  0  0
  -20.9666  -25.8850   23.4509 C   0  0  0  0  0  0  0  0  0  0  0  0
  -23.7438  -19.9486   28.7415 C   0  0  0  0  0  0  0  0  0  0  0  0
  -22.5638  -14.6461   24.4274 C   0  0  0  0  0  0  0  0  0  0  0  0
  -22.2007  -15.6313   26.7002 C   0  0  0  0  0  0  0  0  0  0  0  0
  -24.4508  -14.7620   26.0645 C   0  0  0  0  0  0  0  0  0  0  0  0
  -26.0398  -20.7330   25.8107 C   0  0  0  0  0  0  0  0  0  0  0  0
  -21.6173  -28.6395   23.9983 C   0  0  0  0  0  0  0  0  0  0  0  0
  -18.4418  -25.2161   22.1571 C   0  0  0  0  0  0  0  0  0  0  0  0
  -23.6213  -16.9200   25.0413 C   0  0  1  0  0  0  0  0  0  0  0  0
  -24.5798  -19.6309   27.5115 C   0  0  2  0  0  0  0  0  0  0  0  0
  -23.2052  -15.5056   25.5350 C   0  0  0  0  0  0  0  0  0  0  0  0
  -26.0972  -26.0234   19.6711 N   0  0  0  0  0  0  0  0  0  0  0  0
  -25.2148  -26.8383   19.0684 N   0  0  0  0  0  0  0  0  0  0  0  0
  -24.1642  -17.4680   22.6899 N   0  0  0  0  0  0  0  0  0  0  0  0
  -24.5731  -29.3723   21.8570 N   0  0  0  0  0  0  0  0  0  0  0  0
  -23.8298  -27.0403   17.1575 N   0  0  0  0  0  0  0  0  0  0  0  0
  -24.1075  -23.2847   16.6974 N   0  0  0  0  0  0  0  0  0  0  0  0
  -25.1979  -15.0298   20.6028 N   0  0  0  0  0  0  0  0  0  0  0  0
  -24.2562  -17.7465   26.0622 N   0  0  0  0  0  0  0  0  0  0  0  0
  -22.7377  -28.5332   23.0904 N   0  0  0  0  0  0  0  0  0  0  0  0
  -19.1971  -24.6460   20.9883 N   0  3  2  0  0  0  0  0  0  0  0  0
  -25.1735  -20.9009   27.0059 N   0  3  0  0  0  0  0  0  0  0  0  0
  -25.8319  -24.2912   15.5696 O   0  0  0  0  0  0  0  0  0  0  0  0
  -23.2099  -16.2068   20.3111 O   0  0  0  0  0  0  0  0  0  0  0  0
  -25.6796  -16.3110   24.0319 O   0  0  0  0  0  0  0  0  0  0  0  0
  -22.7326  -19.4916   25.9605 O   0  0  0  0  0  0  0  0  0  0  0  0
  -23.3022  -30.7516   23.2210 O   0  0  0  0  0  0  0  0  0  0  0  0
  -29.5108  -20.6593   20.0194 O   0  0  0  0  0  0  0  0  0  0  0  0
  -20.1096  -21.1971   19.9138 O   0  0  0  0  0  0  0  0  0  1  0  0
  -31.4655  -20.2617   25.1599 F   0  0  0  0  0  0  0  0  0  0  0  0
  -28.9576  -18.4454   21.5798 F   0  0  0  0  0  0  0  0  0  0  0  0
  -19.7693  -30.9741   23.2849 Cl  0  0  0  0  0  0  0  0  0  0  0  0
  1  2  1  0  0  0  0
  1  5  2  0  0  0  0
  2  6  2  0  0  0  0
  3  9  2  0  0  0  0
  3 17  1  0  0  0  0
  4 10  1  0  0  0  0
  4 17  2  0  0  0  0
  5 19  1  0  0  0  0
  6 21  1  0  0  0  0
  7 11  2  0  0  0  0
  7 20  1  0  0  0  0
  8 14  2  0  0  0  0
  8 23  1  0  0  0  0
  9 26  1  0  0  0  0
 10 26  2  0  0  0  0
 11 27  1  0  0  0  0
 12 13  2  0  0  0  0
 12 28  1  0  0  0  0
 13 29  1  0  0  0  0
 14 31  1  0  0  0  0
 15 22  1  0  0  0  0
 15 27  2  0  0  0  0
 16 29  2  0  0  0  0
 16 30  1  0  0  0  0
 17 32  1  0  0  0  0
 18 32  1  0  0  0  0
 18 33  2  0  0  0  0
 18 34  1  0  0  0  0
 19 21  2  0  0  0  0
 19 39  1  0  0  0  0
 20 22  2  0  0  0  0
 20 40  1  0  0  0  0
 21 52  1  0  0  0  0
 22 41  1  0  0  0  0
 23 24  2  0  0  0  0
 23 63  1  0  0  0  0
 24 25  1  0  0  0  0
 24 56  1  0  0  0  0
 25 31  2  0  0  0  0
 25 62  1  0  0  0  0
 26 83  1  0  0  0  0
 27 84  1  0  0  0  0
 28 30  2  0  0  0  0
 28 83  1  0  0  0  0
 29 85  1  0  0  0  0
 30 86  1  0  0  0  0
 31 87  1  0  0  0  0
 32 67  2  0  0  0  0
 33 68  1  0  0  0  0
 33 71  1  0  0  0  0
 34 72  1  0  0  0  0
 34 78  2  0  0  0  0
 35 53  1  0  0  0  0
 35 73  1  0  0  0  0
 35 79  2  0  0  0  0
 36 64  1  0  0  0  0
 36 69  1  0  0  0  0
 36 80  2  0  0  0  0
 37 65  1  0  0  0  0
 37 74  1  0  0  0  0
 37 81  2  0  0  0  0
 38 70  1  0  0  0  0
 38 75  1  0  0  0  0
 38 82  2  0  0  0  0
 39 42  1  0  0  0  0
 40 53  1  0  0  0  0
 41 69  1  0  0  0  0
 42 45  1  0  0  0  0
 43 46  1  0  0  0  0
 43 48  1  0  0  0  0
 44 47  1  0  0  0  0
 44 50  1  0  0  0  0
 45 52  1  0  0  0  0
 46 54  1  0  0  0  0
 47 55  1  0  0  0  0
 48 70  1  0  0  0  0
 49 54  1  0  0  0  0
 49 70  1  0  0  0  0
 50 76  1  0  0  0  0
 51 55  1  0  0  0  0
 51 76  1  0  0  0  0
 52 73  1  0  0  0  0
 53 69  1  0  0  0  0
 54 68  1  0  0  0  0
 55 84  1  0  0  0  0
 57 65  1  0  0  0  0
 58 66  1  0  0  0  0
 59 66  1  0  0  0  0
 60 66  1  0  0  0  0
 61 77  1  0  0  0  0
 62 75  1  0  0  0  0
 63 76  1  0  0  0  0
 64 66  1  0  0  0  0
 64 74  1  0  0  0  0
 65 77  1  0  0  0  0
 67 68  1  0  0  0  0
M  CHG  2  76   1  77   1
M  ISO  4  38 100  55 101  75 100  84 101
M  END
> <Batch ID>
0036

> <Smiles>
CNC(C)C(=O)NC(C(=O)N1Cc2cc([101O:1][101CH:1]3CCCN(Cc4ccc(Cl)c(C[100NH:0][100C:0](=O)N5CCCC(n6nc(-c7ccc(Oc8ccc(F)cc8F)cc7)c(C(N)=O)c6N)C5)c4C)C3)ccc2CC1C(=O)NC1CCCc2ccccc21)C(C)(C)C

> <Shape>
0.196

> <Color>
0.082

> <Negative vol penalty>
0.000

$$$$

  -OEChem-04042321543D

 89 98  0     1  0  0  0  0  0999 V2000
  -28.9314  -31.9935   26.3238 C   0  0  0  0  0  0  0  0  0  0  0  0
  -28.8072  -30.8747   25.5064 C   0  0  0  0  0  0  0  0  0  0  0  0
  -22.6021  -11.9917   22.3701 C   0  0  0  0  0  0  0  0  0  0  0  0
  -21.1354  -12.3157   20.4778 C   0  0  0  0  0  0  0  0  0  0  0  0
  -27.7906  -32.6214   26.8222 C   0  0  0  0  0  0  0  0  0  0  0  0
  -27.5421  -30.3824   25.1877 C   0  0  0  0  0  0  0  0  0  0  0  0
  -27.0845  -29.2345   20.2767 C   0  0  0  0  0  0  0  0  0  0  0  0
  -22.4759  -10.6095   22.2313 C   0  0  0  0  0  0  0  0  0  0  0  0
  -21.0092  -10.9335   20.3390 C   0  0  0  0  0  0  0  0  0  0  0  0
  -27.6513  -28.0352   19.8477 C   0  0  0  0  0  0  0  0  0  0  0  0
  -20.2101   -8.2251   23.0091 C   0  0  0  0  0  0  0  0  0  0  0  0
  -19.9911   -7.4757   24.1650 C   0  0  0  0  0  0  0  0  0  0  0  0
  -25.4777  -26.9910   19.9143 C   0  0  0  0  0  0  0  0  0  0  0  0
  -30.5196  -17.6874   19.4847 C   0  0  0  0  0  0  0  0  0  0  0  0
  -22.0320   -6.2490   23.7562 C   0  0  0  0  0  0  0  0  0  0  0  0
  -21.9318  -12.8448   21.4934 C   0  0  0  0  0  0  0  0  0  0  0  0
  -21.7110  -15.0499   22.7569 C   0  0  0  0  0  0  0  0  0  0  0  0
  -26.5106  -32.1423   26.5016 C   0  0  0  0  0  0  0  0  0  0  0  0
  -25.7095  -29.3183   20.5387 C   0  0  0  0  0  0  0  0  0  0  0  0
  -26.3831  -31.0036   25.6834 C   0  0  0  0  0  0  0  0  0  0  0  0
  -24.8955  -28.1932   20.3441 C   0  0  0  0  0  0  0  0  0  0  0  0
  -30.8872  -18.9594   19.9232 C   0  0  0  0  0  0  0  0  0  0  0  0
  -29.1726  -17.3755   19.3002 C   0  0  0  0  0  0  0  0  0  0  0  0
  -29.9079  -19.9196   20.1773 C   0  0  0  0  0  0  0  0  0  0  0  0
  -28.5609  -19.6077   19.9928 C   0  0  0  0  0  0  0  0  0  0  0  0
  -28.1932  -18.3356   19.5543 C   0  0  0  0  0  0  0  0  0  0  0  0
  -21.6795  -10.0804   21.2157 C   0  0  0  0  0  0  0  0  0  0  0  0
  -26.8484  -26.9124   19.6692 C   0  0  0  0  0  0  0  0  0  0  0  0
  -21.3399   -7.9864   22.2267 C   0  0  0  0  0  0  0  0  0  0  0  0
  -20.9021   -6.4877   24.5386 C   0  0  0  0  0  0  0  0  0  0  0  0
  -22.2509   -6.9984   22.6003 C   0  0  0  0  0  0  0  0  0  0  0  0
  -22.0613  -14.2727   21.6367 C   0  0  0  0  0  0  0  0  0  0  0  0
  -22.0264  -16.3366   22.3943 C   0  0  0  0  0  0  0  0  0  0  0  0
  -29.3794  -23.3973   19.7732 C   0  0  0  0  0  0  0  0  0  0  0  0
  -21.1506  -14.6450   24.0130 C   0  0  0  0  0  0  0  0  0  0  0  0
  -23.9502  -29.9502   23.1096 C   0  0  0  0  0  0  0  0  0  0  0  0
  -21.5039  -29.8419   20.9822 C   0  0  0  0  0  0  0  0  0  0  0  0
  -20.3131  -28.7082   17.9916 C   0  0  0  0  0  0  0  0  0  0  0  0
  -25.9268  -18.6399   18.4974 C   0  0  0  0  0  0  0  0  0  0  0  0
  -25.3081  -32.8260   27.1025 C   0  0  0  0  0  0  0  0  0  0  0  0
  -25.1091  -30.6265   20.9752 C   0  0  0  0  0  0  0  0  0  0  0  0
  -23.4105  -28.2363   20.5921 C   0  0  0  0  0  0  0  0  0  0  0  0
  -23.9948  -32.4660   26.4127 C   0  0  0  0  0  0  0  0  0  0  0  0
  -30.8790  -23.0059   17.2861 C   0  0  0  0  0  0  0  0  0  0  0  0
  -22.4042  -19.1557   18.5415 C   0  0  0  0  0  0  0  0  0  0  0  0
  -23.8983  -30.9583   26.2020 C   0  0  0  0  0  0  0  0  0  0  0  0
  -30.4871  -24.4063   17.7149 C   0  0  0  0  0  0  0  0  0  0  0  0
  -21.8852  -18.0364   19.4471 C   0  0  0  0  0  0  0  0  0  0  0  0
  -31.1810  -22.1631   18.5101 C   0  0  0  0  0  0  0  0  0  0  0  0
  -23.5796  -18.6916   17.6831 C   0  0  0  0  0  0  0  0  0  0  0  0
  -24.1683  -16.9588   19.3324 C   0  0  0  0  0  0  0  0  0  0  0  0
  -25.0275  -30.4546   25.2950 C   0  0  1  0  0  0  0  0  0  0  0  0
  -29.2283  -24.3316   18.5705 C   0  0  2  0  0  0  0  0  0  0  0  0
  -23.7805  -30.4598   21.7064 C   0  0  1  0  0  0  0  0  0  0  0  0
  -23.0258  -17.3972   20.2631 C   0  0  2  0  0  0  0  0  0  0  0  0
  -32.3365  -19.2680   20.1112 C   0  0  0  0  0  0  0  0  0  0  0  0
  -28.8103  -16.0044   18.8283 C   0  0  0  0  0  0  0  0  0  0  0  0
  -27.5138  -20.6418   20.2672 C   0  0  0  0  0  0  0  0  0  0  0  0
  -18.2651  -28.7529   16.5422 C   0  0  0  0  0  0  0  0  0  0  0  0
  -20.1644  -27.8042   22.8162 C   0  0  0  0  0  0  0  0  0  0  0  0
  -18.6517  -27.1932   20.9171 C   0  0  0  0  0  0  0  0  0  0  0  0
  -18.6149  -29.5091   21.8433 C   0  0  0  0  0  0  0  0  0  0  0  0
  -21.7611  -30.0503   15.7869 C   0  0  0  0  0  0  0  0  0  0  0  0
  -30.3070  -21.2878   20.6493 C   0  0  0  0  0  0  0  0  0  0  0  0
  -28.8064  -25.7321   19.0140 C   0  0  0  0  0  0  0  0  0  1  0  0
  -20.5916  -28.7602   20.4562 C   0  0  1  0  0  0  0  0  0  0  0  0
  -19.5951  -29.4189   16.8586 C   0  0  2  0  0  0  0  0  0  0  0  0
  -19.5339  -28.3150   21.5053 C   0  0  0  0  0  0  0  0  0  0  0  0
  -22.5609  -15.0045   20.6372 N   0  0  0  0  0  0  0  0  0  0  0  0
  -22.5266  -16.2550   21.1281 N   0  0  0  0  0  0  0  0  0  0  0  0
  -30.2013  -22.2826   19.5897 N   0  0  0  0  0  0  0  0  0  0  0  0
  -22.8717  -29.5367   21.0238 N   0  0  0  0  0  0  0  0  0  0  0  0
  -24.6231  -18.1011   18.5242 N   0  0  0  0  0  0  0  0  0  0  0  0
  -21.9217  -17.5185   23.0382 N   0  0  0  0  0  0  0  0  0  0  0  0
  -19.7554  -14.6052   24.1404 N   0  0  0  0  0  0  0  0  0  0  0  0
  -26.8258  -18.0175   19.3628 N   0  0  0  0  0  0  0  0  0  0  0  0
  -24.7362  -30.7570   23.9100 N   0  0  0  0  0  0  0  0  0  0  0  0
  -20.0225  -29.2740   19.2150 N   0  0  0  0  0  0  0  0  0  0  0  0
  -20.4323  -29.4058   15.6258 N   0  3  0  0  0  0  0  0  0  0  0  0
  -28.7232  -23.5954   20.7996 O   0  0  0  0  0  0  0  0  0  0  0  0
  -21.8659  -14.3437   24.9984 O   0  0  0  0  0  0  0  0  0  0  0  0
  -23.4070  -28.9032   23.4420 O   0  0  0  0  0  0  0  0  0  0  0  0
  -21.0215  -30.9206   21.3362 O   0  0  0  0  0  0  0  0  0  0  0  0
  -21.0544  -27.7449   17.8100 O   0  0  0  0  0  0  0  0  0  0  0  0
  -26.2170  -19.6014   17.7809 O   0  0  0  0  0  0  0  0  0  0  0  0
  -21.5563   -8.7318   21.0798 O   0  0  0  0  0  0  0  0  0  0  0  0
  -27.3992  -25.7404   19.2511 O   0  0  0  0  0  0  0  0  0  1  0  0
  -20.6926   -5.7692   25.6495 F   0  0  0  0  0  0  0  0  0  0  0  0
  -23.3388   -6.7653   21.8533 F   0  0  0  0  0  0  0  0  0  0  0  0
  1  2  1  0  0  0  0
  1  5  2  0  0  0  0
  2  6  2  0  0  0  0
  3  8  2  0  0  0  0
  3 16  1  0  0  0  0
  4  9  1  0  0  0  0
  4 16  2  0  0  0  0
  5 18  1  0  0  0  0
  6 20  1  0  0  0  0
  7 10  2  0  0  0  0
  7 19  1  0  0  0  0
  8 27  1  0  0  0  0
  9 27  2  0  0  0  0
 10 28  1  0  0  0  0
 11 12  2  0  0  0  0
 11 29  1  0  0  0  0
 12 30  1  0  0  0  0
 13 21  1  0  0  0  0
 13 28  2  0  0  0  0
 14 22  2  0  0  0  0
 14 23  1  0  0  0  0
 15 30  2  0  0  0  0
 15 31  1  0  0  0  0
 16 32  1  0  0  0  0
 17 32  1  0  0  0  0
 17 33  2  0  0  0  0
 17 35  1  0  0  0  0
 18 20  2  0  0  0  0
 18 40  1  0  0  0  0
 19 21  2  0  0  0  0
 19 41  1  0  0  0  0
 20 52  1  0  0  0  0
 21 42  1  0  0  0  0
 22 24  1  0  0  0  0
 22 56  1  0  0  0  0
 23 26  2  0  0  0  0
 23 57  1  0  0  0  0
 24 25  2  0  0  0  0
 24 64  1  0  0  0  0
 25 26  1  0  0  0  0
 25 58  1  0  0  0  0
 26 76  1  0  0  0  0
 27 86  1  0  0  0  0
 28 87  1  0  0  0  0
 29 31  2  0  0  0  0
 29 86  1  0  0  0  0
 30 88  1  0  0  0  0
 31 89  1  0  0  0  0
 32 69  2  0  0  0  0
 33 70  1  0  0  0  0
 33 74  1  0  0  0  0
 34 53  1  0  0  0  0
 34 71  1  0  0  0  0
 34 80  2  0  0  0  0
 35 75  1  0  0  0  0
 35 81  2  0  0  0  0
 36 54  1  0  0  0  0
 36 77  1  0  0  0  0
 36 82  2  0  0  0  0
 37 66  1  0  0  0  0
 37 72  1  0  0  0  0
 37 83  2  0  0  0  0
 38 67  1  0  0  0  0
 38 78  1  0  0  0  0
 38 84  2  0  0  0  0
 39 73  1  0  0  0  0
 39 76  1  0  0  0  0
 39 85  2  0  0  0  0
 40 43  1  0  0  0  0
 41 54  1  0  0  0  0
 42 72  1  0  0  0  0
 43 46  1  0  0  0  0
 44 47  1  0  0  0  0
 44 49  1  0  0  0  0
 45 48  1  0  0  0  0
 45 50  1  0  0  0  0
 46 52  1  0  0  0  0
 47 53  1  0  0  0  0
 48 55  1  0  0  0  0
 49 71  1  0  0  0  0
 50 73  1  0  0  0  0
 51 55  1  0  0  0  0
 51 73  1  0  0  0  0
 52 77  1  0  0  0  0
 53 65  1  0  0  0  0
 54 72  1  0  0  0  0
 55 70  1  0  0  0  0
 59 67  1  0  0  0  0
 60 68  1  0  0  0  0
 61 68  1  0  0  0  0
 62 68  1  0  0  0  0
 63 79  1  0  0  0  0
 64 71  1  0  0  0  0
 65 87  1  0  0  0  0
 66 68  1  0  0  0  0
 66 78  1  0  0  0  0
 67 79  1  0  0  0  0
 69 70  1  0  0  0  0
M  CHG  1  79   1
M  ISO  4  39 100  65 101  76 100  87 101
M  END
> <Batch ID>
0036

> <Smiles>
CNC(C)C(=O)NC(C(=O)N1Cc2cc([101O:1][101CH2:1]C3CCCN(Cc4c(C)cc(C)c([100NH:0][100C:0](=O)N5CCCC(n6nc(-c7ccc(Oc8ccc(F)cc8F)cc7)c(C(N)=O)c6N)C5)c4C)C3=O)ccc2CC1C(=O)NC1CCCc2ccccc21)C(C)(C)C

> <Shape>
0.302

> <Color>
0.063

> <Negative vol penalty>
0.000

$$$$

  -OEChem-04042321543D

 87 95  0     1  0  0  0  0  0999 V2000
  -22.7550   -7.2375   24.3030 C   0  0  0  0  0  0  0  0  0  0  0  0
  -23.9930   -7.8543   24.4518 C   0  0  0  0  0  0  0  0  0  0  0  0
  -26.5714  -27.1053   22.4988 C   0  0  0  0  0  0  0  0  0  0  0  0
  -25.1441  -27.0414   20.5505 C   0  0  0  0  0  0  0  0  0  0  0  0
  -22.0129   -7.4378   23.1398 C   0  0  0  0  0  0  0  0  0  0  0  0
  -24.4902   -8.6711   23.4369 C   0  0  0  0  0  0  0  0  0  0  0  0
  -28.4883  -14.5312   22.4411 C   0  0  0  0  0  0  0  0  0  0  0  0
  -25.6135  -27.8600   23.1759 C   0  0  0  0  0  0  0  0  0  0  0  0
  -24.1861  -27.7961   21.2276 C   0  0  0  0  0  0  0  0  0  0  0  0
  -29.5957  -14.9691   21.7162 C   0  0  0  0  0  0  0  0  0  0  0  0
  -24.5885  -31.0795   23.2675 C   0  0  0  0  0  0  0  0  0  0  0  0
  -25.0299  -32.1878   23.9902 C   0  0  0  0  0  0  0  0  0  0  0  0
  -28.1905  -15.3059   19.7845 C   0  0  0  0  0  0  0  0  0  0  0  0
  -33.6427  -22.3831   13.9693 C   0  0  0  0  0  0  0  0  0  0  0  0
  -34.2573  -20.4445   15.2735 C   0  0  0  0  0  0  0  0  0  0  0  0
  -24.1400  -31.2202   26.0173 C   0  0  0  0  0  0  0  0  0  0  0  0
  -26.3367  -26.6960   21.1861 C   0  0  0  0  0  0  0  0  0  0  0  0
  -27.4350  -24.5137   20.4519 C   0  0  0  0  0  0  0  0  0  0  0  0
  -22.4969   -8.2652   22.1142 C   0  0  0  0  0  0  0  0  0  0  0  0
  -27.2235  -14.4669   21.8390 C   0  0  0  0  0  0  0  0  0  0  0  0
  -23.7545   -8.8816   22.2583 C   0  0  0  0  0  0  0  0  0  0  0  0
  -27.0682  -14.8692   20.5048 C   0  0  0  0  0  0  0  0  0  0  0  0
  -32.3086  -22.2073   14.3366 C   0  0  0  0  0  0  0  0  0  0  0  0
  -32.9232  -20.2686   15.6408 C   0  0  0  0  0  0  0  0  0  0  0  0
  -31.9488  -21.1501   15.1724 C   0  0  0  0  0  0  0  0  0  0  0  0
  -24.4208  -28.2054   22.5403 C   0  0  0  0  0  0  0  0  0  0  0  0
  -29.4475  -15.3538   20.3868 C   0  0  0  0  0  0  0  0  0  0  0  0
  -23.9227  -30.0416   23.9196 C   0  0  0  0  0  0  0  0  0  0  0  0
  -24.8058  -32.2582   25.3652 C   0  0  0  0  0  0  0  0  0  0  0  0
  -23.6986  -30.1120   25.2945 C   0  0  0  0  0  0  0  0  0  0  0  0
  -34.6170  -21.5017   14.4377 C   0  0  0  0  0  0  0  0  0  0  0  0
  -27.3261  -25.9169   20.4860 C   0  0  0  0  0  0  0  0  0  0  0  0
  -28.5292  -24.2735   19.6572 C   0  0  0  0  0  0  0  0  0  0  0  0
  -26.6200  -23.5167   21.0822 C   0  0  0  0  0  0  0  0  0  0  0  0
  -25.1533  -12.1377   21.2121 C   0  0  0  0  0  0  0  0  0  0  0  0
  -23.2594  -14.6013   20.2815 C   0  0  0  0  0  0  0  0  0  0  0  0
  -23.0304  -17.8160   19.1590 C   0  0  0  0  0  0  0  0  0  0  0  0
  -31.5269  -25.3001   15.0631 C   0  0  0  0  0  0  0  0  0  0  0  0
  -21.6802   -8.4138   20.8550 C   0  0  0  0  0  0  0  0  0  0  0  0
  -26.0340  -14.0177   22.6425 C   0  0  0  0  0  0  0  0  0  0  0  0
  -25.7281  -14.8381   19.8180 C   0  0  0  0  0  0  0  0  0  0  0  0
  -22.1095   -9.5933   19.9863 C   0  0  0  0  0  0  0  0  0  0  0  0
  -32.0552  -27.4283   17.8681 C   0  0  0  0  0  0  0  0  0  0  0  0
  -23.6268   -9.6183   19.8320 C   0  0  0  0  0  0  0  0  0  0  0  0
  -30.8781  -27.1136   18.7929 C   0  0  0  0  0  0  0  0  0  0  0  0
  -31.6454  -27.3836   16.3977 C   0  0  0  0  0  0  0  0  0  0  0  0
  -29.8094  -25.8185   16.9010 C   0  0  0  0  0  0  0  0  0  0  0  0
  -24.3166   -9.7946   21.1902 C   0  0  1  0  0  0  0  0  0  0  0  0
  -24.8874  -13.5044   21.7768 C   0  0  1  0  0  0  0  0  0  0  0  0
  -30.1867  -25.7966   18.3921 C   0  0  2  0  0  0  0  0  0  0  0  0
  -30.5182  -20.9609   15.5656 C   0  0  0  0  0  0  0  0  0  0  0  0
  -21.3503  -19.5405   18.4514 C   0  0  0  0  0  0  0  0  0  0  0  0
  -22.8993  -13.1547   17.6192 C   0  0  0  0  0  0  0  0  0  0  0  0
  -22.0409  -15.2977   16.6504 C   0  0  0  0  0  0  0  0  0  0  0  0
  -20.8176  -14.2013   18.5276 C   0  0  0  0  0  0  0  0  0  0  0  0
  -23.8514  -19.6689   21.3157 C   0  0  0  0  0  0  0  0  0  0  0  0
  -31.2844  -23.1650   13.8214 C   0  0  0  0  0  0  0  0  0  0  0  0
  -32.5617  -19.1232   16.5417 C   0  0  0  0  0  0  0  0  0  0  0  0
  -31.5681  -16.4301   20.4053 C   0  0  0  0  0  0  0  0  0  1  0  0
  -32.2931  -17.3991   19.4932 C   0  0  0  0  0  0  0  0  0  0  0  0
  -23.0272  -15.3412   18.9862 C   0  0  1  0  0  0  0  0  0  0  0  0
  -22.1650  -18.9800   19.6068 C   0  0  2  0  0  0  0  0  0  0  0  0
  -22.2220  -14.4976   17.9579 C   0  0  0  0  0  0  0  0  0  0  0  0
  -28.2754  -26.5253   19.7700 N   0  0  0  0  0  0  0  0  0  0  0  0
  -28.9913  -25.4996   19.2785 N   0  0  0  0  0  0  0  0  0  0  0  0
  -24.5965  -14.3854   20.6438 N   0  0  0  0  0  0  0  0  0  0  0  0
  -30.9972  -26.1083   16.0825 N   0  0  0  0  0  0  0  0  0  0  0  0
  -29.1315  -23.1352   19.2523 N   0  0  0  0  0  0  0  0  0  0  0  0
  -25.5353  -23.9368   21.8640 N   0  0  0  0  0  0  0  0  0  0  0  0
  -24.2475  -11.1758   21.6167 N   0  0  0  0  0  0  0  0  0  0  0  0
  -22.3959  -16.6062   19.3463 N   0  0  0  0  0  0  0  0  0  0  0  0
  -30.8560  -24.1052   14.8330 N   0  0  0  0  0  0  0  0  0  0  0  0
  -32.2887  -19.5700   17.9195 N   0  0  0  0  0  0  0  0  0  0  0  0
  -23.0135  -20.0743   20.1579 N   0  3  0  0  0  0  0  0  0  0  0  0
  -26.8567  -22.2900   20.9693 O   0  0  0  0  0  0  0  0  0  0  0  0
  -26.1087  -11.9686   20.4635 O   0  0  0  0  0  0  0  0  0  0  0  0
  -22.2901  -14.2348   20.9507 O   0  0  0  0  0  0  0  0  0  0  0  0
  -24.1551  -17.9652   18.6865 O   0  0  0  0  0  0  0  0  0  0  0  0
  -32.5270  -25.6171   14.4103 O   0  0  0  0  0  0  0  0  0  0  0  0
  -30.2080  -18.0372   18.0456 O   0  0  0  0  0  0  0  0  0  0  0  0
  -30.8152  -19.4833   20.0196 O   0  0  0  0  0  0  0  0  0  0  0  0
  -23.4858  -28.9416   23.2007 O   0  0  0  0  0  0  0  0  0  0  0  0
  -30.5269  -15.7809   19.6767 O   0  0  0  0  0  0  0  0  0  1  0  0
  -25.2311  -33.3218   26.0594 F   0  0  0  0  0  0  0  0  0  0  0  0
  -23.0606  -29.1174   25.9267 F   0  0  0  0  0  0  0  0  0  0  0  0
  -31.2140  -18.6607   18.8892 S   0  0  0  0  0  0  0  0  0  0  0  0
  -36.2633  -21.7182   13.9844 Cl  0  0  0  0  0  0  0  0  0  0  0  0
  1  2  1  0  0  0  0
  1  5  2  0  0  0  0
  2  6  2  0  0  0  0
  3  8  2  0  0  0  0
  3 17  1  0  0  0  0
  4  9  1  0  0  0  0
  4 17  2  0  0  0  0
  5 19  1  0  0  0  0
  6 21  1  0  0  0  0
  7 10  2  0  0  0  0
  7 20  1  0  0  0  0
  8 26  1  0  0  0  0
  9 26  2  0  0  0  0
 10 27  1  0  0  0  0
 11 12  2  0  0  0  0
 11 28  1  0  0  0  0
 12 29  1  0  0  0  0
 13 22  1  0  0  0  0
 13 27  2  0  0  0  0
 14 23  2  0  0  0  0
 14 31  1  0  0  0  0
 15 24  1  0  0  0  0
 15 31  2  0  0  0  0
 16 29  2  0  0  0  0
 16 30  1  0  0  0  0
 17 32  1  0  0  0  0
 18 32  1  0  0  0  0
 18 33  2  0  0  0  0
 18 34  1  0  0  0  0
 19 21  2  0  0  0  0
 19 39  1  0  0  0  0
 20 22  2  0  0  0  0
 20 40  1  0  0  0  0
 21 48  1  0  0  0  0
 22 41  1  0  0  0  0
 23 25  1  0  0  0  0
 23 57  1  0  0  0  0
 24 25  2  0  0  0  0
 24 58  1  0  0  0  0
 25 51  1  0  0  0  0
 26 82  1  0  0  0  0
 27 83  1  0  0  0  0
 28 30  2  0  0  0  0
 28 82  1  0  0  0  0
 29 84  1  0  0  0  0
 30 85  1  0  0  0  0
 31 87  1  0  0  0  0
 32 64  2  0  0  0  0
 33 65  1  0  0  0  0
 33 68  1  0  0  0  0
 34 69  1  0  0  0  0
 34 75  2  0  0  0  0
 35 49  1  0  0  0  0
 35 70  1  0  0  0  0
 35 76  2  0  0  0  0
 36 61  1  0  0  0  0
 36 66  1  0  0  0  0
 36 77  2  0  0  0  0
 37 62  1  0  0  0  0
 37 71  1  0  0  0  0
 37 78  2  0  0  0  0
 38 67  1  0  0  0  0
 38 72  1  0  0  0  0
 38 79  2  0  0  0  0
 39 42  1  0  0  0  0
 40 49  1  0  0  0  0
 41 66  1  0  0  0  0
 42 44  1  0  0  0  0
 43 45  1  0  0  0  0
 43 46  1  0  0  0  0
 44 48  1  0  0  0  0
 45 50  1  0  0  0  0
 46 67  1  0  0  0  0
 47 50  1  0  0  0  0
 47 67  1  0  0  0  0
 48 70  1  0  0  0  0
 49 66  1  0  0  0  0
 50 65  1  0  0  0  0
 52 62  1  0  0  0  0
 53 63  1  0  0  0  0
 54 63  1  0  0  0  0
 55 63  1  0  0  0  0
 56 74  1  0  0  0  0
 57 72  1  0  0  0  0
 58 73  1  0  0  0  0
 59 60  1  0  0  0  0
 59 83  1  0  0  0  0
 60 86  1  0  0  0  0
 61 63  1  0  0  0  0
 61 71  1  0  0  0  0
 62 74  1  0  0  0  0
 64 65  1  0  0  0  0
 73 86  1  0  0  0  0
 80 86  2  0  0  0  0
 81 86  2  0  0  0  0
M  CHG  1  74   1
M  ISO  4  38 100  59 101  72 100  83 101
M  END
> <Batch ID>
0036

> <Smiles>
CNC(C)C(=O)NC(C(=O)N1Cc2cc([101O:1][101CH2:1]CS(=O)(=O)NCc3cc(Cl)cc(C[100NH:0][100C:0](=O)N4CCCC(n5nc(-c6ccc(Oc7ccc(F)cc7F)cc6)c(C(N)=O)c5N)C4)c3C)ccc2CC1C(=O)NC1CCCc2ccccc21)C(C)(C)C

> <Shape>
0.199

> <Color>
0.107

> <Negative vol penalty>
0.000

$$$$

  -OEChem-04042321543D

 97106  0     1  0  0  0  0  0999 V2000
  -26.6406  -31.3445   25.5910 C   0  0  0  0  0  0  0  0  0  0  0  0
  -26.9149  -30.4929   24.5256 C   0  0  0  0  0  0  0  0  0  0  0  0
  -26.9645  -29.1516   19.6914 C   0  0  0  0  0  0  0  0  0  0  0  0
  -25.7723  -27.3043   20.6930 C   0  0  0  0  0  0  0  0  0  0  0  0
  -26.9871  -30.9698   26.8885 C   0  0  0  0  0  0  0  0  0  0  0  0
  -27.5370  -29.2666   24.7571 C   0  0  0  0  0  0  0  0  0  0  0  0
  -25.2187  -22.0480   22.8746 C   0  0  0  0  0  0  0  0  0  0  0  0
  -25.7518  -29.7741   19.3961 C   0  0  0  0  0  0  0  0  0  0  0  0
  -24.5595  -27.9269   20.3977 C   0  0  0  0  0  0  0  0  0  0  0  0
  -24.8397  -20.7127   22.7352 C   0  0  0  0  0  0  0  0  0  0  0  0
  -22.6672  -30.4210   21.6702 C   0  0  0  0  0  0  0  0  0  0  0  0
  -21.6945  -30.4485   22.6694 C   0  0  0  0  0  0  0  0  0  0  0  0
  -26.2006  -20.1162   24.6431 C   0  0  0  0  0  0  0  0  0  0  0  0
  -29.8736  -16.8544   18.5074 C   0  0  0  0  0  0  0  0  0  0  0  0
  -20.1844  -29.2266   21.2329 C   0  0  0  0  0  0  0  0  0  0  0  0
  -26.9748  -27.9166   20.3398 C   0  0  0  0  0  0  0  0  0  0  0  0
  -29.2662  -27.7734   21.4519 C   0  0  0  0  0  0  0  0  0  0  0  0
  -27.6050  -29.7341   27.1370 C   0  0  0  0  0  0  0  0  0  0  0  0
  -26.0790  -22.4254   23.9094 C   0  0  0  0  0  0  0  0  0  0  0  0
  -27.8934  -28.8756   26.0589 C   0  0  0  0  0  0  0  0  0  0  0  0
  -26.5738  -21.4542   24.7953 C   0  0  0  0  0  0  0  0  0  0  0  0
  -29.1122  -15.6861   18.4784 C   0  0  0  0  0  0  0  0  0  0  0  0
  -29.2652  -18.0766   18.7938 C   0  0  0  0  0  0  0  0  0  0  0  0
  -27.7423  -15.7399   18.7358 C   0  0  0  0  0  0  0  0  0  0  0  0
  -27.8954  -18.1303   19.0512 C   0  0  0  0  0  0  0  0  0  0  0  0
  -27.1339  -16.9620   19.0222 C   0  0  0  0  0  0  0  0  0  0  0  0
  -24.5493  -29.1618   19.7493 C   0  0  0  0  0  0  0  0  0  0  0  0
  -25.3297  -19.7492   23.6172 C   0  0  0  0  0  0  0  0  0  0  0  0
  -22.3986  -29.7963   20.4522 C   0  0  0  0  0  0  0  0  0  0  0  0
  -20.4530  -29.8513   22.4508 C   0  0  0  0  0  0  0  0  0  0  0  0
  -21.1572  -29.1991   20.2336 C   0  0  0  0  0  0  0  0  0  0  0  0
  -28.2272  -27.2727   20.6446 C   0  0  0  0  0  0  0  0  0  0  0  0
  -30.2262  -26.7915   21.4241 C   0  0  0  0  0  0  0  0  0  0  0  0
  -25.5584  -16.8771   21.7217 C   0  0  0  0  0  0  0  0  0  0  0  0
  -32.0304  -12.7028   22.1969 C   0  0  0  0  0  0  0  0  0  0  0  0
  -26.6309  -16.4439   22.4046 C   0  0  0  0  0  0  0  0  0  0  0  0
  -31.0383  -12.7365   21.3020 C   0  0  0  0  0  0  0  0  0  0  0  0
  -29.3555  -29.0150   22.1634 C   0  0  0  0  0  0  0  0  0  0  0  0
  -31.0859  -13.6891   20.1609 C   0  0  0  0  0  0  0  0  0  0  0  0
  -27.9160  -25.2053   25.6338 C   0  0  0  0  0  0  0  0  0  0  0  0
  -26.8229  -23.3629   27.8296 C   0  0  0  0  0  0  0  0  0  0  0  0
  -25.0943  -21.3185   29.9436 C   0  0  0  0  0  0  0  0  0  0  0  0
  -30.0443  -21.0476   20.6611 C   0  0  0  0  0  0  0  0  0  0  0  0
  -28.0037  -29.3933   28.5511 C   0  0  0  0  0  0  0  0  0  0  0  0
  -26.5625  -23.8422   24.0600 C   0  0  0  0  0  0  0  0  0  0  0  0
  -27.5243  -21.9007   25.8724 C   0  0  0  0  0  0  0  0  0  0  0  0
  -28.3212  -27.9141   28.7547 C   0  0  0  0  0  0  0  0  0  0  0  0
  -31.9238  -23.2780   18.6700 C   0  0  0  0  0  0  0  0  0  0  0  0
  -22.8475  -16.8853   20.7887 C   0  0  0  0  0  0  0  0  0  0  0  0
  -29.2286  -27.4044   27.6395 C   0  0  0  0  0  0  0  0  0  0  0  0
  -23.1887  -17.5431   22.1211 C   0  0  0  0  0  0  0  0  0  0  0  0
  -31.2793  -24.6172   19.0251 C   0  0  0  0  0  0  0  0  0  0  0  0
  -30.8891  -22.1586   18.5413 C   0  0  0  0  0  0  0  0  0  0  0  0
  -29.3657  -23.3570   20.0794 C   0  0  0  0  0  0  0  0  0  0  0  0
  -23.8075  -15.7443   20.4688 C   0  0  0  0  0  0  0  0  0  0  0  0
  -28.5446  -27.5264   26.2725 C   0  0  1  0  0  0  0  0  0  0  0  0
  -24.6461  -18.0001   22.1615 C   0  0  1  0  0  0  0  0  0  1  0  0
  -26.7543  -24.2614   25.5286 C   0  0  1  0  0  0  0  0  0  0  0  0
  -30.3898  -24.4859   20.2735 C   0  0  2  0  0  0  0  0  0  0  0  0
  -26.9280  -14.4853   18.7042 C   0  0  0  0  0  0  0  0  0  0  0  0
  -27.2454  -19.4425   19.3573 C   0  0  0  0  0  0  0  0  0  0  0  0
  -27.5124  -15.3349   21.9473 C   0  0  0  0  0  0  0  0  0  0  0  0
  -29.5353  -17.9436   21.5982 C   0  0  0  0  0  0  0  0  0  0  0  0
  -24.6599  -20.9216   32.3831 C   0  0  0  0  0  0  0  0  0  0  0  0
  -29.5835  -22.0965   28.1113 C   0  0  0  0  0  0  0  0  0  0  0  0
  -28.7558  -20.9181   30.1593 C   0  0  0  0  0  0  0  0  0  0  0  0
  -28.8303  -23.4108   30.1012 C   0  0  0  0  0  0  0  0  0  0  0  0
  -22.1923  -21.8041   29.6248 C   0  0  0  0  0  0  0  0  0  0  0  0
  -29.7881  -14.3906   18.1686 C   0  0  0  0  0  0  0  0  0  0  0  0
  -30.1034  -19.3127   18.8195 C   0  0  0  0  0  0  0  0  0  0  0  0
  -25.6606  -17.0197   19.2996 C   0  0  0  0  0  0  0  0  0  0  0  0
  -30.7429  -18.7302   21.1298 C   0  0  0  0  0  0  0  0  0  0  0  0
  -27.0817  -22.1910   28.7423 C   0  0  1  0  0  0  0  0  0  0  0  0
  -24.1847  -21.6230   31.1202 C   0  0  2  0  0  0  0  0  0  0  0  0
  -28.5495  -22.1509   29.2536 C   0  0  0  0  0  0  0  0  0  0  0  0
  -28.5014  -26.0665   20.1407 N   0  0  0  0  0  0  0  0  0  0  0  0
  -29.7236  -25.8011   20.6325 N   0  0  0  0  0  0  0  0  0  0  0  0
  -27.0562  -23.1641   26.4633 N   0  0  0  0  0  0  0  0  0  0  0  0
  -30.0312  -22.0989   19.7327 N   0  0  0  0  0  0  0  0  0  0  0  0
  -31.4428  -26.6873   21.9998 N   0  0  0  0  0  0  0  0  0  0  0  0
  -29.9095  -30.1226   21.5073 N   0  0  0  0  0  0  0  0  0  0  0  0
  -29.9718  -13.5768   19.3424 N   0  0  0  0  0  0  0  0  0  0  0  0
  -27.5785  -26.4637   26.0941 N   0  0  0  0  0  0  0  0  0  0  0  0
  -26.0819  -22.2702   29.8017 N   0  0  0  0  0  0  0  0  0  0  0  0
  -30.3727  -19.7709   20.1811 N   0  0  0  0  0  0  0  0  0  0  0  0
  -25.2513  -16.1906   20.4858 N   0  3  1  0  0  0  0  0  0  0  0  0
  -22.7935  -21.1752   30.8290 N   0  3  0  0  0  0  0  0  0  0  0  0
  -28.9708  -29.1342   23.3514 O   0  0  0  0  0  0  0  0  0  0  0  0
  -32.0178  -14.4685   19.9899 O   0  0  0  0  0  0  0  0  0  0  0  0
  -29.0370  -24.8208   25.3220 O   0  0  0  0  0  0  0  0  0  0  0  0
  -26.4301  -24.4285   28.3127 O   0  0  0  0  0  0  0  0  0  0  0  0
  -24.9459  -20.3327   29.2247 O   0  0  0  0  0  0  0  0  0  0  0  0
  -29.7697  -21.2365   21.8532 O   0  0  0  0  0  0  0  0  0  0  0  0
  -23.3657  -29.7692   19.4615 O   0  0  0  0  0  0  0  0  0  0  0  0
  -24.9520  -18.4481   23.4782 O   0  0  0  0  0  0  0  0  0  1  0  0
  -19.5195  -29.8764   23.4110 F   0  0  0  0  0  0  0  0  0  0  0  0
  -20.8937  -28.5965   19.0660 F   0  0  0  0  0  0  0  0  0  0  0  0
  1  2  1  0  0  0  0
  1  5  2  0  0  0  0
  2  6  2  0  0  0  0
  3  8  2  0  0  0  0
  3 16  1  0  0  0  0
  4  9  1  0  0  0  0
  4 16  2  0  0  0  0
  5 18  1  0  0  0  0
  6 20  1  0  0  0  0
  7 10  2  0  0  0  0
  7 19  1  0  0  0  0
  8 27  1  0  0  0  0
  9 27  2  0  0  0  0
 10 28  1  0  0  0  0
 11 12  2  0  0  0  0
 11 29  1  0  0  0  0
 12 30  1  0  0  0  0
 13 21  1  0  0  0  0
 13 28  2  0  0  0  0
 14 22  1  0  0  0  0
 14 23  2  0  0  0  0
 15 30  2  0  0  0  0
 15 31  1  0  0  0  0
 16 32  1  0  0  0  0
 17 32  1  0  0  0  0
 17 33  2  0  0  0  0
 17 38  1  0  0  0  0
 18 20  2  0  0  0  0
 18 44  1  0  0  0  0
 19 21  2  0  0  0  0
 19 45  1  0  0  0  0
 20 56  1  0  0  0  0
 21 46  1  0  0  0  0
 22 24  2  0  0  0  0
 22 69  1  0  0  0  0
 23 25  1  0  0  0  0
 23 70  1  0  0  0  0
 24 26  1  0  0  0  0
 24 60  1  0  0  0  0
 25 26  2  0  0  0  0
 25 61  1  0  0  0  0
 26 71  1  0  0  0  0
 27 94  1  0  0  0  0
 28 95  1  0  0  0  0
 29 31  2  0  0  0  0
 29 94  1  0  0  0  0
 30 96  1  0  0  0  0
 31 97  1  0  0  0  0
 32 76  2  0  0  0  0
 33 77  1  0  0  0  0
 33 80  1  0  0  0  0
 34 36  2  0  0  0  0
 34 57  1  0  0  0  0
 34 86  1  0  0  0  0
 35 37  2  0  0  0  0
 36 62  1  0  0  0  0
 37 39  1  0  0  0  0
 38 81  1  0  0  0  0
 38 88  2  0  0  0  0
 39 82  1  0  0  0  0
 39 89  2  0  0  0  0
 40 58  1  0  0  0  0
 40 83  1  0  0  0  0
 40 90  2  0  0  0  0
 41 73  1  0  0  0  0
 41 78  1  0  0  0  0
 41 91  2  0  0  0  0
 42 74  1  0  0  0  0
 42 84  1  0  0  0  0
 42 92  2  0  0  0  0
 43 79  1  0  0  0  0
 43 85  1  0  0  0  0
 43 93  2  0  0  0  0
 44 47  1  0  0  0  0
 45 58  1  0  0  0  0
 46 78  1  0  0  0  0
 47 50  1  0  0  0  0
 48 52  1  0  0  0  0
 48 53  1  0  0  0  0
 49 51  1  0  0  0  0
 49 55  1  0  0  0  0
 50 56  1  0  0  0  0
 51 57  1  0  0  0  0
 52 59  1  0  0  0  0
 53 79  1  0  0  0  0
 54 59  1  0  0  0  0
 54 79  1  0  0  0  0
 55 86  1  0  0  0  0
 56 83  1  0  0  0  0
 57 95  1  0  0  0  0
 58 78  1  0  0  0  0
 59 77  1  0  0  0  0
 63 72  1  0  0  0  0
 64 74  1  0  0  0  0
 65 75  1  0  0  0  0
 66 75  1  0  0  0  0
 67 75  1  0  0  0  0
 68 87  1  0  0  0  0
 69 82  1  0  0  0  0
 70 85  1  0  0  0  0
 71 86  1  0  0  0  0
 72 85  1  0  0  0  0
 73 75  1  0  0  0  0
 73 84  1  0  0  0  0
 74 87  1  0  0  0  0
 76 77  1  0  0  0  0
M  CHG  2  86   1  87   1
M  ISO  4  43 100  57 101  85 100  95 101
M  END
> <Batch ID>
0036

> <Smiles>
C=CC(=O)NCc1cc(C[100N:0](CC)[100C:0](=O)N2CCCC(n3nc(-c4ccc(Oc5ccc(F)cc5F)cc4)c(C(N)=O)c3N)C2)c(C)c(CN2CCC[101CH:1]([101O:1]c3ccc4c(c3)CN(C(=O)C(NC(=O)C(C)NC)C(C)(C)C)C(C(=O)NC3CCCc5ccccc53)C4)C2=CC)c1C

> <Shape>
0.217

> <Color>
0.048

> <Negative vol penalty>
0.000

$$$$

  -OEChem-04042321543D

 84 92  0     1  0  0  0  0  0999 V2000
  -31.9700  -21.6664   21.8055 C   0  0  0  0  0  0  0  0  0  0  0  0
  -30.6307  -22.0226   21.9269 C   0  0  0  0  0  0  0  0  0  0  0  0
  -29.5171  -26.8659   18.6902 C   0  0  0  0  0  0  0  0  0  0  0  0
  -29.0593  -25.8800   20.8479 C   0  0  0  0  0  0  0  0  0  0  0  0
  -32.3333  -20.5897   20.9977 C   0  0  0  0  0  0  0  0  0  0  0  0
  -29.6539  -21.3030   21.2395 C   0  0  0  0  0  0  0  0  0  0  0  0
  -25.6334  -20.2368   24.1281 C   0  0  0  0  0  0  0  0  0  0  0  0
  -30.8254  -26.3858   18.7484 C   0  0  0  0  0  0  0  0  0  0  0  0
  -30.3676  -25.3999   20.9061 C   0  0  0  0  0  0  0  0  0  0  0  0
  -24.7148  -21.2630   24.3444 C   0  0  0  0  0  0  0  0  0  0  0  0
  -34.1798  -25.1117   18.1656 C   0  0  0  0  0  0  0  0  0  0  0  0
  -34.7005  -24.5078   17.0211 C   0  0  0  0  0  0  0  0  0  0  0  0
  -23.2790  -20.3275   22.6466 C   0  0  0  0  0  0  0  0  0  0  0  0
  -18.7570  -28.1469   21.6290 C   0  0  0  0  0  0  0  0  0  0  0  0
  -18.4380  -25.8823   22.4079 C   0  0  0  0  0  0  0  0  0  0  0  0
  -32.9484  -22.8462   17.1007 C   0  0  0  0  0  0  0  0  0  0  0  0
  -28.6340  -26.6130   19.7400 C   0  0  0  0  0  0  0  0  0  0  0  0
  -26.1590  -26.4533   19.1429 C   0  0  0  0  0  0  0  0  0  0  0  0
  -31.3596  -19.8504   20.3077 C   0  0  0  0  0  0  0  0  0  0  0  0
  -25.3863  -19.2528   23.1601 C   0  0  0  0  0  0  0  0  0  0  0  0
  -30.0047  -20.2162   20.4207 C   0  0  0  0  0  0  0  0  0  0  0  0
  -24.1949  -19.2885   22.4217 C   0  0  0  0  0  0  0  0  0  0  0  0
  -19.5816  -28.4072   22.7235 C   0  0  0  0  0  0  0  0  0  0  0  0
  -19.2626  -26.1425   23.5024 C   0  0  0  0  0  0  0  0  0  0  0  0
  -19.8344  -27.4050   23.6601 C   0  0  0  0  0  0  0  0  0  0  0  0
  -31.2507  -25.6528   19.8563 C   0  0  0  0  0  0  0  0  0  0  0  0
  -23.5387  -21.3101   23.6017 C   0  0  0  0  0  0  0  0  0  0  0  0
  -33.0434  -24.5828   18.7776 C   0  0  0  0  0  0  0  0  0  0  0  0
  -34.0848  -23.3751   16.4886 C   0  0  0  0  0  0  0  0  0  0  0  0
  -32.4277  -23.4501   18.2452 C   0  0  0  0  0  0  0  0  0  0  0  0
  -18.1851  -26.8845   21.4712 C   0  0  0  0  0  0  0  0  0  0  0  0
  -27.2826  -27.1092   19.6807 C   0  0  0  0  0  0  0  0  0  0  0  0
  -25.1242  -27.3372   19.3281 C   0  0  0  0  0  0  0  0  0  0  0  0
  -26.0597  -25.1606   18.5307 C   0  0  0  0  0  0  0  0  0  0  0  0
  -26.8310  -18.3250   20.4851 C   0  0  0  0  0  0  0  0  0  0  0  0
  -24.5965  -15.9746   20.5548 C   0  0  0  0  0  0  0  0  0  0  0  0
  -21.5307  -14.9225   21.6228 C   0  0  0  0  0  0  0  0  0  0  0  0
  -22.3311  -30.9595   22.5254 C   0  0  0  0  0  0  0  0  0  0  0  0
  -31.8050  -18.7241   19.4091 C   0  0  0  0  0  0  0  0  0  0  0  0
  -26.3749  -18.1374   22.9574 C   0  0  0  0  0  0  0  0  0  0  0  0
  -23.8729  -18.2446   21.3848 C   0  0  0  0  0  0  0  0  0  0  0  0
  -30.6741  -17.7795   19.0102 C   0  0  0  0  0  0  0  0  0  0  0  0
  -25.1556  -32.1934   20.7432 C   0  0  0  0  0  0  0  0  0  0  0  0
  -29.4478  -18.5717   18.5683 C   0  0  0  0  0  0  0  0  0  0  0  0
  -25.8709  -30.9270   20.2693 C   0  0  0  0  0  0  0  0  0  0  0  0
  -24.5396  -32.0088   22.1283 C   0  0  0  0  0  0  0  0  0  0  0  0
  -24.3635  -29.5747   21.7852 C   0  0  0  0  0  0  0  0  0  0  0  0
  -28.9137  -19.4445   19.7105 C   0  0  1  0  0  0  0  0  0  0  0  0
  -26.2592  -17.4780   21.5866 C   0  0  1  0  0  0  0  0  0  0  0  0
  -24.9530  -29.6938   20.3693 C   0  0  2  0  0  0  0  0  0  0  0  0
  -20.7180  -27.6843   24.8343 C   0  0  0  0  0  0  0  0  0  0  0  0
  -19.9617  -12.9686   21.4887 C   0  0  0  0  0  0  0  0  0  0  0  0
  -23.8449  -16.7767   17.7085 C   0  0  0  0  0  0  0  0  0  0  0  0
  -21.7167  -15.4865   17.9813 C   0  0  0  0  0  0  0  0  0  0  0  0
  -23.9122  -14.3098   18.1138 C   0  0  0  0  0  0  0  0  0  0  0  0
  -21.5986  -14.5182   24.5539 C   0  0  0  0  0  0  0  0  0  0  0  0
  -20.1817  -29.7674   22.8695 C   0  0  0  0  0  0  0  0  0  0  0  0
  -19.5193  -25.0478   24.4956 C   0  0  0  0  0  0  0  0  0  0  0  0
  -21.1829  -23.4068   25.3778 C   0  0  0  0  0  0  0  0  0  0  0  0
  -22.5743  -22.8602   25.1258 C   0  0  0  0  0  0  0  0  0  1  0  0
  -23.1958  -15.8147   20.0148 C   0  0  1  0  0  0  0  0  0  0  0  0
  -21.0816  -13.6288   22.2778 C   0  0  2  0  0  0  0  0  0  0  0  0
  -23.1741  -15.6179   18.4727 C   0  0  0  0  0  0  0  0  0  0  0  0
  -26.9892  -28.3166   20.1707 N   0  0  0  0  0  0  0  0  0  0  0  0
  -25.6696  -28.4264   19.9414 N   0  0  0  0  0  0  0  0  0  0  0  0
  -24.8739  -17.1778   21.2190 N   0  0  0  0  0  0  0  0  0  0  0  0
  -23.6792  -30.8235   22.1553 N   0  0  0  0  0  0  0  0  0  0  0  0
  -23.8100  -27.2811   19.0245 N   0  0  0  0  0  0  0  0  0  0  0  0
  -27.2202  -24.3825   18.4205 N   0  0  0  0  0  0  0  0  0  0  0  0
  -28.1657  -18.6408   20.6534 N   0  0  0  0  0  0  0  0  0  0  0  0
  -22.5915  -14.7195   20.7656 N   0  0  0  0  0  0  0  0  0  0  0  0
  -21.5843  -29.7877   22.5186 N   0  0  0  0  0  0  0  0  0  0  0  0
  -20.5909  -13.8912   23.6603 N   0  3  0  0  0  0  0  0  0  0  0  0
  -20.8771  -24.4526   24.3693 N   0  3  0  0  0  0  0  0  0  0  0  0
  -24.9771  -24.7157   18.0794 O   0  0  0  0  0  0  0  0  0  0  0  0
  -26.1148  -18.6654   19.5508 O   0  0  0  0  0  0  0  0  0  0  0  0
  -25.4123  -15.0624   20.3994 O   0  0  0  0  0  0  0  0  0  0  0  0
  -20.9918  -16.0043   21.8462 O   0  0  0  0  0  0  0  0  0  0  0  0
  -21.8287  -32.0456   22.8336 O   0  0  0  0  0  0  0  0  0  0  0  0
  -32.5272  -25.1839   19.9134 O   0  0  0  0  0  0  0  0  0  0  0  0
  -22.6406  -22.3110   23.8104 O   0  0  0  0  0  0  0  0  0  1  0  0
  -34.5841  -22.7963   15.3887 F   0  0  0  0  0  0  0  0  0  0  0  0
  -31.3350  -22.9381   18.8281 F   0  0  0  0  0  0  0  0  0  0  0  0
  -17.1673  -26.5631   20.1209 Cl  0  0  0  0  0  0  0  0  0  0  0  0
  1  2  1  0  0  0  0
  1  5  2  0  0  0  0
  2  6  2  0  0  0  0
  3  8  2  0  0  0  0
  3 17  1  0  0  0  0
  4  9  1  0  0  0  0
  4 17  2  0  0  0  0
  5 19  1  0  0  0  0
  6 21  1  0  0  0  0
  7 10  2  0  0  0  0
  7 20  1  0  0  0  0
  8 26  1  0  0  0  0
  9 26  2  0  0  0  0
 10 27  1  0  0  0  0
 11 12  2  0  0  0  0
 11 28  1  0  0  0  0
 12 29  1  0  0  0  0
 13 22  1  0  0  0  0
 13 27  2  0  0  0  0
 14 23  2  0  0  0  0
 14 31  1  0  0  0  0
 15 24  1  0  0  0  0
 15 31  2  0  0  0  0
 16 29  2  0  0  0  0
 16 30  1  0  0  0  0
 17 32  1  0  0  0  0
 18 32  1  0  0  0  0
 18 33  2  0  0  0  0
 18 34  1  0  0  0  0
 19 21  2  0  0  0  0
 19 39  1  0  0  0  0
 20 22  2  0  0  0  0
 20 40  1  0  0  0  0
 21 48  1  0  0  0  0
 22 41  1  0  0  0  0
 23 25  1  0  0  0  0
 23 57  1  0  0  0  0
 24 25  2  0  0  0  0
 24 58  1  0  0  0  0
 25 51  1  0  0  0  0
 26 80  1  0  0  0  0
 27 81  1  0  0  0  0
 28 30  2  0  0  0  0
 28 80  1  0  0  0  0
 29 82  1  0  0  0  0
 30 83  1  0  0  0  0
 31 84  1  0  0  0  0
 32 64  2  0  0  0  0
 33 65  1  0  0  0  0
 33 68  1  0  0  0  0
 34 69  1  0  0  0  0
 34 75  2  0  0  0  0
 35 49  1  0  0  0  0
 35 70  1  0  0  0  0
 35 76  2  0  0  0  0
 36 61  1  0  0  0  0
 36 66  1  0  0  0  0
 36 77  2  0  0  0  0
 37 62  1  0  0  0  0
 37 71  1  0  0  0  0
 37 78  2  0  0  0  0
 38 67  1  0  0  0  0
 38 72  1  0  0  0  0
 38 79  2  0  0  0  0
 39 42  1  0  0  0  0
 40 49  1  0  0  0  0
 41 66  1  0  0  0  0
 42 44  1  0  0  0  0
 43 45  1  0  0  0  0
 43 46  1  0  0  0  0
 44 48  1  0  0  0  0
 45 50  1  0  0  0  0
 46 67  1  0  0  0  0
 47 50  1  0  0  0  0
 47 67  1  0  0  0  0
 48 70  1  0  0  0  0
 49 66  1  0  0  0  0
 50 65  1  0  0  0  0
 52 62  1  0  0  0  0
 53 63  1  0  0  0  0
 54 63  1  0  0  0  0
 55 63  1  0  0  0  0
 56 73  1  0  0  0  0
 57 72  1  0  0  0  0
 58 74  1  0  0  0  0
 59 60  1  0  0  0  0
 59 74  1  0  0  0  0
 60 81  1  0  0  0  0
 61 63  1  0  0  0  0
 61 71  1  0  0  0  0
 62 73  1  0  0  0  0
 64 65  1  0  0  0  0
M  CHG  2  73   1  74   1
M  ISO  4  38 100  60 101  72 100  81 101
M  END
> <Batch ID>
0036

> <Smiles>
CNC(C)C(=O)NC(C(=O)N1Cc2cc([101O:1][101CH2:1]CNCc3cc(Cl)cc(C[100NH:0][100C:0](=O)N4CCCC(n5nc(-c6ccc(Oc7ccc(F)cc7F)cc6)c(C(N)=O)c5N)C4)c3C)ccc2CC1C(=O)NC1CCCc2ccccc21)C(C)(C)C

> <Shape>
0.212

> <Color>
0.068

> <Negative vol penalty>
0.000

$$$$

  -OEChem-04042321543D

 85 93  0     1  0  0  0  0  0999 V2000
  -31.0494  -23.4114   23.4418 C   0  0  0  0  0  0  0  0  0  0  0  0
  -30.7264  -24.3789   22.4971 C   0  0  0  0  0  0  0  0  0  0  0  0
  -26.4284  -12.4916   21.5632 C   0  0  0  0  0  0  0  0  0  0  0  0
  -25.9502  -13.3390   19.3518 C   0  0  0  0  0  0  0  0  0  0  0  0
  -30.0424  -22.8246   24.2053 C   0  0  0  0  0  0  0  0  0  0  0  0
  -29.3978  -24.7685   22.3238 C   0  0  0  0  0  0  0  0  0  0  0  0
  -28.5571  -28.5655   19.3107 C   0  0  0  0  0  0  0  0  0  0  0  0
  -25.1928  -11.8447   21.5825 C   0  0  0  0  0  0  0  0  0  0  0  0
  -24.7145  -12.6921   19.3711 C   0  0  0  0  0  0  0  0  0  0  0  0
  -28.6891  -28.4724   17.9259 C   0  0  0  0  0  0  0  0  0  0  0  0
  -23.8383   -9.0225   20.3044 C   0  0  0  0  0  0  0  0  0  0  0  0
  -23.8038   -7.7043   20.7592 C   0  0  0  0  0  0  0  0  0  0  0  0
  -26.2885  -28.3731   17.7099 C   0  0  0  0  0  0  0  0  0  0  0  0
  -28.4813  -22.4528   18.7907 C   0  0  0  0  0  0  0  0  0  0  0  0
  -28.2591  -20.7918   17.0503 C   0  0  0  0  0  0  0  0  0  0  0  0
  -22.2833   -8.3522   22.5215 C   0  0  0  0  0  0  0  0  0  0  0  0
  -26.8071  -13.2388   20.4478 C   0  0  0  0  0  0  0  0  0  0  0  0
  -27.5466  -23.0652   16.6487 C   0  0  0  0  0  0  0  0  0  0  0  0
  -29.3073  -13.3895   19.9639 C   0  0  0  0  0  0  0  0  0  0  0  0
  -28.6997  -23.1988   24.0319 C   0  0  0  0  0  0  0  0  0  0  0  0
  -27.2881  -28.5522   19.9073 C   0  0  0  0  0  0  0  0  0  0  0  0
  -28.3699  -24.2052   23.1015 C   0  0  0  0  0  0  0  0  0  0  0  0
  -26.1431  -28.4688   19.1023 C   0  0  0  0  0  0  0  0  0  0  0  0
  -27.9323  -23.4147   17.9428 C   0  0  0  0  0  0  0  0  0  0  0  0
  -28.6448  -21.1413   18.3444 C   0  0  0  0  0  0  0  0  0  0  0  0
  -24.3359  -11.9449   20.4865 C   0  0  0  0  0  0  0  0  0  0  0  0
  -27.5548  -28.3733   17.1255 C   0  0  0  0  0  0  0  0  0  0  0  0
  -23.0954  -10.0056   20.9582 C   0  0  0  0  0  0  0  0  0  0  0  0
  -23.0262   -7.3692   21.8677 C   0  0  0  0  0  0  0  0  0  0  0  0
  -22.3179   -9.6704   22.0667 C   0  0  0  0  0  0  0  0  0  0  0  0
  -27.7100  -21.7537   16.2024 C   0  0  0  0  0  0  0  0  0  0  0  0
  -28.0831  -13.9077   20.4274 C   0  0  0  0  0  0  0  0  0  0  0  0
  -30.2073  -14.4086   20.1589 C   0  0  0  0  0  0  0  0  0  0  0  0
  -26.9633  -24.1034   15.7605 C   0  0  0  0  0  0  0  0  0  0  0  0
  -29.6042  -12.1022   19.4069 C   0  0  0  0  0  0  0  0  0  0  0  0
  -25.7934  -26.6375   21.9575 C   0  0  0  0  0  0  0  0  0  0  0  0
  -23.5065  -28.9346   21.8336 C   0  0  0  0  0  0  0  0  0  0  0  0
  -22.0678  -31.5002   20.1030 C   0  0  0  0  0  0  0  0  0  0  0  0
  -29.6365  -20.3457   20.5192 C   0  0  0  0  0  0  0  0  0  0  0  0
  -27.6508  -22.5369   24.8904 C   0  0  0  0  0  0  0  0  0  0  0  0
  -27.1618  -28.6804   21.4006 C   0  0  0  0  0  0  0  0  0  0  0  0
  -24.7572  -28.4707   19.6921 C   0  0  0  0  0  0  0  0  0  0  0  0
  -26.2406  -22.6897   24.3299 C   0  0  0  0  0  0  0  0  0  0  0  0
  -31.0319  -18.1872   22.9831 C   0  0  0  0  0  0  0  0  0  0  0  0
  -25.9760  -24.1460   23.9781 C   0  0  0  0  0  0  0  0  0  0  0  0
  -30.5505  -16.7970   22.5617 C   0  0  0  0  0  0  0  0  0  0  0  0
  -29.9711  -19.2563   22.7274 C   0  0  0  0  0  0  0  0  0  0  0  0
  -28.9596  -17.8998   20.9370 C   0  0  0  0  0  0  0  0  0  0  0  0
  -26.9283  -24.6229   22.8741 C   0  0  1  0  0  0  0  0  0  0  0  0
  -25.8402  -28.1392   21.9371 C   0  0  1  0  0  0  0  0  0  0  0  0
  -30.0183  -16.7993   21.1152 C   0  0  2  0  0  0  0  0  0  0  0  0
  -27.7709  -24.8110   18.4507 C   0  0  0  0  0  0  0  0  0  0  0  0
  -20.1920  -33.1614   20.2404 C   0  0  0  0  0  0  0  0  0  0  0  0
  -21.5096  -26.7334   21.1431 C   0  0  0  0  0  0  0  0  0  0  0  0
  -19.9226  -28.5105   20.3740 C   0  0  0  0  0  0  0  0  0  0  0  0
  -20.6593  -28.4447   22.7564 C   0  0  0  0  0  0  0  0  0  0  0  0
  -23.9371  -33.7929   20.0135 C   0  0  0  0  0  0  0  0  0  0  0  0
  -28.5245  -26.9616   13.9558 C   0  0  0  0  0  0  0  0  0  0  0  0
  -27.4583  -25.8849   14.1060 C   0  0  0  0  0  0  0  0  0  0  0  0
  -28.8593  -27.6522   15.2723 C   0  0  0  0  0  0  0  0  0  1  0  0
  -22.2914  -29.1883   20.9744 C   0  0  1  0  0  0  0  0  0  0  0  0
  -21.6621  -32.8997   20.5286 C   0  0  2  0  0  0  0  0  0  0  0  0
  -21.1218  -28.2172   21.3007 C   0  0  0  0  0  0  0  0  0  0  0  0
  -28.1920  -15.1586   20.8827 N   0  0  0  0  0  0  0  0  0  0  0  0
  -29.4953  -15.4350   20.7063 N   0  0  0  0  0  0  0  0  0  0  0  0
  -24.6861  -28.5917   21.1577 N   0  0  0  0  0  0  0  0  0  0  0  0
  -29.5172  -19.2015   21.3361 N   0  0  0  0  0  0  0  0  0  0  0  0
  -31.5303  -14.5178   19.9138 N   0  0  0  0  0  0  0  0  0  0  0  0
  -28.5623  -11.1738   19.2772 N   0  0  0  0  0  0  0  0  0  0  0  0
  -29.2024  -20.1647   19.2064 N   0  0  0  0  0  0  0  0  0  0  0  0
  -27.8662  -24.8317   14.9941 N   0  0  0  0  0  0  0  0  0  0  0  0
  -26.7896  -26.0539   22.7167 N   0  0  0  0  0  0  0  0  0  0  0  0
  -21.9607  -30.5994   21.1414 N   0  0  0  0  0  0  0  0  0  0  0  0
  -22.4721  -33.9175   19.8012 N   0  3  0  0  0  0  0  0  0  0  0  0
  -25.7476  -24.2786   15.7602 O   0  0  0  0  0  0  0  0  0  0  0  0
  -30.7626  -11.7789   19.0502 O   0  0  0  0  0  0  0  0  0  0  0  0
  -24.9174  -26.0517   21.3321 O   0  0  0  0  0  0  0  0  0  0  0  0
  -23.4143  -29.0440   23.0588 O   0  0  0  0  0  0  0  0  0  0  0  0
  -22.4388  -31.2321   18.9623 O   0  0  0  0  0  0  0  0  0  0  0  0
  -30.1157  -21.3999   20.9448 O   0  0  0  0  0  0  0  0  0  0  0  0
  -23.1302  -11.3136   20.5050 O   0  0  0  0  0  0  0  0  0  0  0  0
  -27.6808  -28.2816   15.7736 O   0  0  0  0  0  0  0  0  0  1  0  0
  -22.9919   -6.1030   22.3034 F   0  0  0  0  0  0  0  0  0  0  0  0
  -21.6011  -10.6103   22.6981 F   0  0  0  0  0  0  0  0  0  0  0  0
  -27.2443  -21.2745   14.6091 Cl  0  0  0  0  0  0  0  0  0  0  0  0
  1  2  1  0  0  0  0
  1  5  2  0  0  0  0
  2  6  2  0  0  0  0
  3  8  2  0  0  0  0
  3 17  1  0  0  0  0
  4  9  1  0  0  0  0
  4 17  2  0  0  0  0
  5 20  1  0  0  0  0
  6 22  1  0  0  0  0
  7 10  2  0  0  0  0
  7 21  1  0  0  0  0
  8 26  1  0  0  0  0
  9 26  2  0  0  0  0
 10 27  1  0  0  0  0
 11 12  2  0  0  0  0
 11 28  1  0  0  0  0
 12 29  1  0  0  0  0
 13 23  1  0  0  0  0
 13 27  2  0  0  0  0
 14 24  2  0  0  0  0
 14 25  1  0  0  0  0
 15 25  2  0  0  0  0
 15 31  1  0  0  0  0
 16 29  2  0  0  0  0
 16 30  1  0  0  0  0
 17 32  1  0  0  0  0
 18 24  1  0  0  0  0
 18 31  2  0  0  0  0
 18 34  1  0  0  0  0
 19 32  1  0  0  0  0
 19 33  2  0  0  0  0
 19 35  1  0  0  0  0
 20 22  2  0  0  0  0
 20 40  1  0  0  0  0
 21 23  2  0  0  0  0
 21 41  1  0  0  0  0
 22 49  1  0  0  0  0
 23 42  1  0  0  0  0
 24 52  1  0  0  0  0
 25 70  1  0  0  0  0
 26 81  1  0  0  0  0
 27 82  1  0  0  0  0
 28 30  2  0  0  0  0
 28 81  1  0  0  0  0
 29 83  1  0  0  0  0
 30 84  1  0  0  0  0
 31 85  1  0  0  0  0
 32 64  2  0  0  0  0
 33 65  1  0  0  0  0
 33 68  1  0  0  0  0
 34 71  1  0  0  0  0
 34 75  2  0  0  0  0
 35 69  1  0  0  0  0
 35 76  2  0  0  0  0
 36 50  1  0  0  0  0
 36 72  1  0  0  0  0
 36 77  2  0  0  0  0
 37 61  1  0  0  0  0
 37 66  1  0  0  0  0
 37 78  2  0  0  0  0
 38 62  1  0  0  0  0
 38 73  1  0  0  0  0
 38 79  2  0  0  0  0
 39 67  1  0  0  0  0
 39 70  1  0  0  0  0
 39 80  2  0  0  0  0
 40 43  1  0  0  0  0
 41 50  1  0  0  0  0
 42 66  1  0  0  0  0
 43 45  1  0  0  0  0
 44 46  1  0  0  0  0
 44 47  1  0  0  0  0
 45 49  1  0  0  0  0
 46 51  1  0  0  0  0
 47 67  1  0  0  0  0
 48 51  1  0  0  0  0
 48 67  1  0  0  0  0
 49 72  1  0  0  0  0
 50 66  1  0  0  0  0
 51 65  1  0  0  0  0
 53 62  1  0  0  0  0
 54 63  1  0  0  0  0
 55 63  1  0  0  0  0
 56 63  1  0  0  0  0
 57 74  1  0  0  0  0
 58 59  1  0  0  0  0
 58 60  1  0  0  0  0
 59 71  1  0  0  0  0
 60 82  1  0  0  0  0
 61 63  1  0  0  0  0
 61 73  1  0  0  0  0
 62 74  1  0  0  0  0
 64 65  1  0  0  0  0
M  CHG  1  74   1
M  ISO  4  39 100  60 101  70 100  82 101
M  END
> <Batch ID>
0036

> <Smiles>
CNC(C)C(=O)NC(C(=O)N1Cc2cc([101O:1][101CH2:1]CCNC(=O)c3c(C)cc([100NH:0][100C:0](=O)N4CCCC(n5nc(-c6ccc(Oc7ccc(F)cc7F)cc6)c(C(N)=O)c5N)C4)cc3Cl)ccc2CC1C(=O)NC1CCCc2ccccc21)C(C)(C)C

> <Shape>
0.231

> <Color>
0.084

> <Negative vol penalty>
0.000

$$$$

  -OEChem-04042321543D

 89 98  0     1  0  0  0  0  0999 V2000
  -25.6928  -35.5724   22.3279 C   0  0  0  0  0  0  0  0  0  0  0  0
  -26.2994  -34.3250   22.2204 C   0  0  0  0  0  0  0  0  0  0  0  0
  -25.1068  -16.9813   19.6951 C   0  0  0  0  0  0  0  0  0  0  0  0
  -23.9147  -17.7691   21.6432 C   0  0  0  0  0  0  0  0  0  0  0  0
  -24.4126  -35.6793   22.8698 C   0  0  0  0  0  0  0  0  0  0  0  0
  -25.6266  -33.1839   22.6558 C   0  0  0  0  0  0  0  0  0  0  0  0
  -25.9826  -29.3466   19.3705 C   0  0  0  0  0  0  0  0  0  0  0  0
  -24.3273  -15.8247   19.6858 C   0  0  0  0  0  0  0  0  0  0  0  0
  -23.1352  -16.6125   21.6340 C   0  0  0  0  0  0  0  0  0  0  0  0
  -27.1774  -28.6283   19.3575 C   0  0  0  0  0  0  0  0  0  0  0  0
  -24.2091  -12.8879   21.3549 C   0  0  0  0  0  0  0  0  0  0  0  0
  -24.8608  -11.6696   21.1638 C   0  0  0  0  0  0  0  0  0  0  0  0
  -26.1480  -26.9032   20.6929 C   0  0  0  0  0  0  0  0  0  0  0  0
  -31.4536  -22.5742   18.0157 C   0  0  0  0  0  0  0  0  0  0  0  0
  -31.1878  -20.2986   18.7825 C   0  0  0  0  0  0  0  0  0  0  0  0
  -23.5469  -11.2787   19.1743 C   0  0  0  0  0  0  0  0  0  0  0  0
  -24.9005  -17.9536   20.6738 C   0  0  0  0  0  0  0  0  0  0  0  0
  -25.4333  -20.3629   20.0267 C   0  0  0  0  0  0  0  0  0  0  0  0
  -23.7199  -34.5378   23.3032 C   0  0  0  0  0  0  0  0  0  0  0  0
  -24.8628  -28.8529   20.0552 C   0  0  0  0  0  0  0  0  0  0  0  0
  -24.3365  -33.2758   23.2052 C   0  0  0  0  0  0  0  0  0  0  0  0
  -24.9393  -27.6159   20.7110 C   0  0  0  0  0  0  0  0  0  0  0  0
  -32.3399  -22.8237   19.0634 C   0  0  0  0  0  0  0  0  0  0  0  0
  -32.6503  -21.8107   19.9706 C   0  0  0  0  0  0  0  0  0  0  0  0
  -32.0742  -20.5481   19.8302 C   0  0  0  0  0  0  0  0  0  0  0  0
  -23.3415  -15.6402   20.6552 C   0  0  0  0  0  0  0  0  0  0  0  0
  -27.2611  -27.4078   20.0212 C   0  0  0  0  0  0  0  0  0  0  0  0
  -23.2262  -13.3016   20.4557 C   0  0  0  0  0  0  0  0  0  0  0  0
  -24.5298  -10.8650   20.0735 C   0  0  0  0  0  0  0  0  0  0  0  0
  -22.8951  -12.4970   19.3654 C   0  0  0  0  0  0  0  0  0  0  0  0
  -30.8774  -21.3116   17.8753 C   0  0  0  0  0  0  0  0  0  0  0  0
  -25.7058  -19.1484   20.6843 C   0  0  0  0  0  0  0  0  0  0  0  0
  -26.4942  -21.1735   20.3491 C   0  0  0  0  0  0  0  0  0  0  0  0
  -24.3207  -20.7260   19.1984 C   0  0  0  0  0  0  0  0  0  0  0  0
  -23.1051  -29.8635   22.5032 C   0  0  0  0  0  0  0  0  0  0  0  0
  -21.2686  -27.3014   21.7382 C   0  0  0  0  0  0  0  0  0  0  0  0
  -21.0511  -24.2265   20.2738 C   0  0  0  0  0  0  0  0  0  0  0  0
  -32.1242  -19.5692   22.1390 C   0  0  0  0  0  0  0  0  0  0  0  0
  -22.3569  -34.7086   23.9257 C   0  0  0  0  0  0  0  0  0  0  0  0
  -23.5733  -29.6271   20.0373 C   0  0  0  0  0  0  0  0  0  0  0  0
  -23.7598  -27.0324   21.4437 C   0  0  0  0  0  0  0  0  0  0  0  0
  -21.5624  -33.4084   24.0184 C   0  0  0  0  0  0  0  0  0  0  0  0
  -29.7668  -21.9217   23.7518 C   0  0  0  0  0  0  0  0  0  0  0  0
  -22.4371  -32.2863   24.5686 C   0  0  0  0  0  0  0  0  0  0  0  0
  -30.8092  -27.1664   21.5430 C   0  0  0  0  0  0  0  0  0  0  0  0
  -28.4214  -21.5195   23.1505 C   0  0  0  0  0  0  0  0  0  0  0  0
  -32.3237  -27.0801   21.6791 C   0  0  0  0  0  0  0  0  0  0  0  0
  -30.7340  -20.7435   23.8148 C   0  0  0  0  0  0  0  0  0  0  0  0
  -29.5963  -19.6707   21.8922 C   0  0  0  0  0  0  0  0  0  0  0  0
  -30.8362  -25.0897   20.1266 C   0  0  0  0  0  0  0  0  0  0  0  0
  -23.6290  -32.0119   23.6437 C   0  0  1  0  0  0  0  0  0  0  0  0
  -22.6486  -29.2747   21.1984 C   0  0  1  0  0  0  0  0  0  0  0  0
  -30.1987  -25.7812   21.3298 C   0  0  2  0  0  0  0  0  0  0  0  0
  -28.6181  -20.8497   21.7805 C   0  0  1  0  0  0  0  0  0  0  0  0
  -32.9782  -26.3785   20.4834 C   0  0  1  0  0  0  0  0  0  0  0  0
  -33.6020  -22.0830   21.0931 C   0  0  0  0  0  0  0  0  0  0  0  0
  -34.4818  -26.2503   20.7193 C   0  0  0  0  0  0  0  0  0  0  0  0
  -19.4292  -22.3613   19.8403 C   0  0  0  0  0  0  0  0  0  0  0  0
  -21.5174  -26.4125   24.6464 C   0  0  0  0  0  0  0  0  0  0  0  0
  -20.7232  -24.1432   23.9479 C   0  0  0  0  0  0  0  0  0  0  0  0
  -19.2374  -26.1262   23.6594 C   0  0  0  0  0  0  0  0  0  0  0  0
  -33.2242  -18.3895   20.2869 C   0  0  0  0  0  0  0  0  0  0  0  0
  -21.3240  -24.5152   17.3410 C   0  0  0  0  0  0  0  0  0  0  0  0
  -32.9456  -24.1903   19.1918 C   0  0  0  0  0  0  0  0  0  0  0  0
  -28.6998  -25.8836   21.1450 C   0  0  0  0  0  0  0  0  0  1  0  0
  -21.2406  -25.8472   22.1424 C   0  0  1  0  0  0  0  0  0  0  0  0
  -20.0429  -23.6436   19.3000 C   0  0  2  0  0  0  0  0  0  0  0  0
  -20.7026  -25.6439   23.5870 C   0  0  0  0  0  0  0  0  0  0  0  0
  -26.8501  -19.1800   21.3724 N   0  0  0  0  0  0  0  0  0  0  0  0
  -27.3062  -20.4243   21.1488 N   0  0  0  0  0  0  0  0  0  0  0  0
  -22.5231  -27.8301   21.4026 N   0  0  0  0  0  0  0  0  0  0  0  0
  -30.8651  -20.0788   22.5173 N   0  0  0  0  0  0  0  0  0  0  0  0
  -26.8024  -22.4469   20.0237 N   0  0  0  0  0  0  0  0  0  0  0  0
  -23.3188  -19.7729   18.9699 N   0  0  0  0  0  0  0  0  0  0  0  0
  -23.2088  -31.2414   22.4929 N   0  0  0  0  0  0  0  0  0  0  0  0
  -20.4719  -25.1527   21.1152 N   0  0  0  0  0  0  0  0  0  0  0  0
  -32.3807  -19.4861   20.7571 N   0  0  0  0  0  0  0  0  0  0  0  0
  -32.3399  -25.0032   20.3109 N   0  3  2  0  0  0  0  0  0  0  0  0
  -20.6981  -23.3383   17.9968 N   0  3  0  0  0  0  0  0  0  0  0  0
  -24.2261  -21.8565   18.6632 O   0  0  0  0  0  0  0  0  0  0  0  0
  -23.3439  -29.1228   23.4497 O   0  0  0  0  0  0  0  0  0  0  0  0
  -20.2151  -27.9427   21.7139 O   0  0  0  0  0  0  0  0  0  0  0  0
  -22.2333  -23.8909   20.2891 O   0  0  0  0  0  0  0  0  0  0  0  0
  -32.9432  -19.1633   22.9727 O   0  0  0  0  0  0  0  0  0  0  0  0
  -22.5806  -14.5118   20.6464 O   0  0  0  0  0  0  0  0  0  0  0  0
  -28.4264  -26.7050   20.0106 O   0  0  0  0  0  0  0  0  0  1  0  0
  -25.1569   -9.6958   19.8893 F   0  0  0  0  0  0  0  0  0  0  0  0
  -21.9525  -12.8897   18.4976 F   0  0  0  0  0  0  0  0  0  0  0  0
  -29.7829  -21.0044   16.5833 Cl  0  0  0  0  0  0  0  0  0  0  0  0
  1  2  1  0  0  0  0
  1  5  2  0  0  0  0
  2  6  2  0  0  0  0
  3  8  2  0  0  0  0
  3 17  1  0  0  0  0
  4  9  1  0  0  0  0
  4 17  2  0  0  0  0
  5 19  1  0  0  0  0
  6 21  1  0  0  0  0
  7 10  2  0  0  0  0
  7 20  1  0  0  0  0
  8 26  1  0  0  0  0
  9 26  2  0  0  0  0
 10 27  1  0  0  0  0
 11 12  2  0  0  0  0
 11 28  1  0  0  0  0
 12 29  1  0  0  0  0
 13 22  1  0  0  0  0
 13 27  2  0  0  0  0
 14 23  1  0  0  0  0
 14 31  2  0  0  0  0
 15 25  2  0  0  0  0
 15 31  1  0  0  0  0
 16 29  2  0  0  0  0
 16 30  1  0  0  0  0
 17 32  1  0  0  0  0
 18 32  1  0  0  0  0
 18 33  2  0  0  0  0
 18 34  1  0  0  0  0
 19 21  2  0  0  0  0
 19 39  1  0  0  0  0
 20 22  2  0  0  0  0
 20 40  1  0  0  0  0
 21 51  1  0  0  0  0
 22 41  1  0  0  0  0
 23 24  2  0  0  0  0
 23 64  1  0  0  0  0
 24 25  1  0  0  0  0
 24 56  1  0  0  0  0
 25 77  1  0  0  0  0
 26 85  1  0  0  0  0
 27 86  1  0  0  0  0
 28 30  2  0  0  0  0
 28 85  1  0  0  0  0
 29 87  1  0  0  0  0
 30 88  1  0  0  0  0
 31 89  1  0  0  0  0
 32 69  2  0  0  0  0
 33 70  1  0  0  0  0
 33 73  1  0  0  0  0
 34 74  1  0  0  0  0
 34 80  2  0  0  0  0
 35 52  1  0  0  0  0
 35 75  1  0  0  0  0
 35 81  2  0  0  0  0
 36 66  1  0  0  0  0
 36 71  1  0  0  0  0
 36 82  2  0  0  0  0
 37 67  1  0  0  0  0
 37 76  1  0  0  0  0
 37 83  2  0  0  0  0
 38 72  1  0  0  0  0
 38 77  1  0  0  0  0
 38 84  2  0  0  0  0
 39 42  1  0  0  0  0
 40 52  1  0  0  0  0
 41 71  1  0  0  0  0
 42 44  1  0  0  0  0
 43 46  1  0  0  0  0
 43 48  1  0  0  0  0
 44 51  1  0  0  0  0
 45 47  1  0  0  0  0
 45 53  1  0  0  0  0
 46 54  1  0  0  0  0
 47 55  1  0  0  0  0
 48 72  1  0  0  0  0
 49 54  1  0  0  0  0
 49 72  1  0  0  0  0
 50 53  1  0  0  0  0
 50 78  1  0  0  0  0
 51 75  1  0  0  0  0
 52 71  1  0  0  0  0
 53 65  1  0  0  0  0
 54 70  1  0  0  0  0
 55 57  1  0  0  0  0
 55 78  1  0  0  0  0
 58 67  1  0  0  0  0
 59 68  1  0  0  0  0
 60 68  1  0  0  0  0
 61 68  1  0  0  0  0
 62 77  1  0  0  0  0
 63 79  1  0  0  0  0
 64 78  1  0  0  0  0
 65 86  1  0  0  0  0
 66 68  1  0  0  0  0
 66 76  1  0  0  0  0
 67 79  1  0  0  0  0
 69 70  1  0  0  0  0
M  CHG  2  78   1  79   1
M  ISO  4  38 100  65 101  77 100  86 101
M  END
> <Batch ID>
0036

> <Smiles>
CNC(C)C(=O)NC(C(=O)N1Cc2cc([101O:1][101CH2:1]C3CCC(C)N(Cc4cc(Cl)cc([100N:0](C)[100C:0](=O)N5CCCC(n6nc(-c7ccc(Oc8ccc(F)cc8F)cc7)c(C(N)=O)c6N)C5)c4C)C3)ccc2CC1C(=O)NC1CCCc2ccccc21)C(C)(C)C

> <Shape>
0.193

> <Color>
0.076

> <Negative vol penalty>
0.000

$$$$

  -OEChem-04042321543D

 81 89  0     1  0  0  0  0  0999 V2000
  -29.3655  -11.5231   19.8215 C   0  0  0  0  0  0  0  0  0  0  0  0
  -29.5120  -12.5852   20.7080 C   0  0  0  0  0  0  0  0  0  0  0  0
  -23.7854  -25.6745   20.8653 C   0  0  0  0  0  0  0  0  0  0  0  0
  -22.9667  -23.5184   20.1455 C   0  0  0  0  0  0  0  0  0  0  0  0
  -28.4724  -11.6245   18.7556 C   0  0  0  0  0  0  0  0  0  0  0  0
  -28.7663  -13.7497   20.5285 C   0  0  0  0  0  0  0  0  0  0  0  0
  -25.6210  -18.9954   24.2577 C   0  0  0  0  0  0  0  0  0  0  0  0
  -22.6751  -25.8184   21.6972 C   0  0  0  0  0  0  0  0  0  0  0  0
  -21.8564  -23.6623   20.9774 C   0  0  0  0  0  0  0  0  0  0  0  0
  -25.5724  -20.3869   24.3283 C   0  0  0  0  0  0  0  0  0  0  0  0
  -19.8725  -26.9122   23.7400 C   0  0  0  0  0  0  0  0  0  0  0  0
  -19.2138  -28.1417   23.7380 C   0  0  0  0  0  0  0  0  0  0  0  0
  -24.0020  -20.4189   22.4973 C   0  0  0  0  0  0  0  0  0  0  0  0
  -18.7568  -27.8931   21.3787 C   0  0  0  0  0  0  0  0  0  0  0  0
  -23.9312  -24.5245   20.0895 C   0  0  0  0  0  0  0  0  0  0  0  0
  -25.4567  -25.2151   18.1649 C   0  0  0  0  0  0  0  0  0  0  0  0
  -27.7083  -12.7871   18.5685 C   0  0  0  0  0  0  0  0  0  0  0  0
  -24.8675  -18.3046   23.2977 C   0  0  0  0  0  0  0  0  0  0  0  0
  -27.8632  -13.8672   19.4584 C   0  0  0  0  0  0  0  0  0  0  0  0
  -24.0409  -19.0184   22.4184 C   0  0  0  0  0  0  0  0  0  0  0  0
  -21.7106  -24.8123   21.7533 C   0  0  0  0  0  0  0  0  0  0  0  0
  -24.7650  -21.0991   23.4461 C   0  0  0  0  0  0  0  0  0  0  0  0
  -19.9735  -26.1731   22.5613 C   0  0  0  0  0  0  0  0  0  0  0  0
  -18.6559  -28.6321   22.5574 C   0  0  0  0  0  0  0  0  0  0  0  0
  -19.4155  -26.6636   21.3807 C   0  0  0  0  0  0  0  0  0  0  0  0
  -25.0777  -24.3755   19.2295 C   0  0  0  0  0  0  0  0  0  0  0  0
  -26.6055  -24.6465   17.6715 C   0  0  0  0  0  0  0  0  0  0  0  0
  -28.9262  -27.5207   21.6987 C   0  0  0  0  0  0  0  0  0  0  0  0
  -28.3225  -26.1799   21.6095 C   0  0  0  0  0  0  0  0  0  0  0  0
  -28.6375  -28.4001   22.6756 C   0  0  0  0  0  0  0  0  0  0  0  0
  -27.0514  -25.9741   22.0123 C   0  0  0  0  0  0  0  0  0  0  0  0
  -26.4080  -24.6891   21.9496 C   0  0  0  0  0  0  0  0  0  0  0  0
  -25.1441  -24.4885   22.3511 C   0  0  0  0  0  0  0  0  0  0  0  0
  -24.8267  -26.4027   17.6667 C   0  0  0  0  0  0  0  0  0  0  0  0
  -25.5593  -16.3990   20.8494 C   0  0  0  0  0  0  0  0  0  0  0  0
  -22.3374  -16.0459   20.7180 C   0  0  0  0  0  0  0  0  0  0  0  0
  -19.2520  -17.3159   21.4351 C   0  0  0  0  0  0  0  0  0  0  0  0
  -28.8554  -23.7850   21.4398 C   0  0  0  0  0  0  0  0  0  0  0  0
  -26.7906  -12.8683   17.3744 C   0  0  0  0  0  0  0  0  0  0  0  0
  -24.9105  -16.8018   23.2521 C   0  0  0  0  0  0  0  0  0  0  0  0
  -23.1970  -18.3229   21.3827 C   0  0  0  0  0  0  0  0  0  0  0  0
  -29.9910  -27.8610   20.6918 C   0  0  0  0  0  0  0  0  0  0  0  0
  -25.7629  -13.9929   17.4714 C   0  0  0  0  0  0  0  0  0  0  0  0
  -30.9816  -26.7143   20.6036 C   0  0  0  0  0  0  0  0  0  0  0  0
  -27.7401  -20.8117   20.2057 C   0  0  0  0  0  0  0  0  0  0  0  0
  -26.4309  -15.2894   17.9183 C   0  0  0  0  0  0  0  0  0  0  0  0
  -27.6990  -21.0831   18.6972 C   0  0  0  0  0  0  0  0  0  0  0  0
  -30.2413  -25.4527   20.1903 C   0  0  0  0  0  0  0  0  0  0  0  0
  -28.9954  -21.3864   20.8468 C   0  0  0  0  0  0  0  0  0  0  0  0
  -29.2610  -23.0445   19.0511 C   0  0  0  0  0  0  0  0  0  0  0  0
  -27.0538  -15.1374   19.3113 C   0  0  1  0  0  0  0  0  0  0  0  0
  -24.4964  -16.2330   21.8984 C   0  0  1  0  0  0  0  0  0  0  0  0
  -27.9912  -22.5524   18.3123 C   0  0  2  0  0  0  0  0  0  0  0  0
  -16.8067  -16.8181   21.1706 C   0  0  0  0  0  0  0  0  0  0  0  0
  -22.4952  -16.8457   17.7777 C   0  0  0  0  0  0  0  0  0  0  0  0
  -20.0254  -17.2528   17.8280 C   0  0  0  0  0  0  0  0  0  0  0  0
  -20.9198  -14.9654   18.2643 C   0  0  0  0  0  0  0  0  0  0  0  0
  -18.8269  -17.2654   24.3635 C   0  0  0  0  0  0  0  0  0  0  0  0
  -24.4615  -23.1600   22.2988 C   0  0  0  0  0  0  0  0  0  1  0  0
  -21.2109  -16.7650   20.0160 C   0  0  1  0  0  0  0  0  0  0  0  0
  -18.0258  -16.6852   22.0700 C   0  0  2  0  0  0  0  0  0  0  0  0
  -21.1801  -16.4707   18.4896 C   0  0  0  0  0  0  0  0  0  0  0  0
  -25.9176  -23.3515   19.4028 N   0  0  0  0  0  0  0  0  0  0  0  0
  -26.8357  -23.5438   18.4404 N   0  0  0  0  0  0  0  0  0  0  0  0
  -29.0839  -25.1305   21.0501 N   0  0  0  0  0  0  0  0  0  0  0  0
  -23.2780  -16.8530   21.3736 N   0  0  0  0  0  0  0  0  0  0  0  0
  -29.1612  -22.7931   20.4931 N   0  0  0  0  0  0  0  0  0  0  0  0
  -27.4312  -24.9873   16.6593 N   0  0  0  0  0  0  0  0  0  0  0  0
  -25.2041  -27.6379   18.2110 N   0  0  0  0  0  0  0  0  0  0  0  0
  -26.0309  -15.2074   20.3327 N   0  0  0  0  0  0  0  0  0  0  0  0
  -19.9884  -16.3946   20.7208 N   0  0  0  0  0  0  0  0  0  0  0  0
  -17.7220  -17.3410   23.3733 N   0  3  0  0  0  0  0  0  0  0  0  0
  -23.9431  -26.3681   16.7770 O   0  0  0  0  0  0  0  0  0  0  0  0
  -25.9235  -17.5250   20.5312 O   0  0  0  0  0  0  0  0  0  0  0  0
  -22.3773  -14.8133   20.6919 O   0  0  0  0  0  0  0  0  0  0  0  0
  -19.5271  -18.5075   21.5574 O   0  0  0  0  0  0  0  0  0  0  0  0
  -28.4472  -23.4920   22.5712 O   0  0  0  0  0  0  0  0  0  0  0  0
  -20.6271  -24.9523   22.5651 O   0  0  0  0  0  0  0  0  0  0  0  0
  -24.7159  -22.4675   23.5129 O   0  0  0  0  0  0  0  0  0  1  0  0
  -18.0220  -29.8121   22.5560 F   0  0  0  0  0  0  0  0  0  0  0  0
  -19.5083  -25.9575   20.2455 F   0  0  0  0  0  0  0  0  0  0  0  0
  1  2  1  0  0  0  0
  1  5  2  0  0  0  0
  2  6  2  0  0  0  0
  3  8  2  0  0  0  0
  3 15  1  0  0  0  0
  4  9  1  0  0  0  0
  4 15  2  0  0  0  0
  5 17  1  0  0  0  0
  6 19  1  0  0  0  0
  7 10  2  0  0  0  0
  7 18  1  0  0  0  0
  8 21  1  0  0  0  0
  9 21  2  0  0  0  0
 10 22  1  0  0  0  0
 11 12  2  0  0  0  0
 11 23  1  0  0  0  0
 12 24  1  0  0  0  0
 13 20  1  0  0  0  0
 13 22  2  0  0  0  0
 14 24  2  0  0  0  0
 14 25  1  0  0  0  0
 15 26  1  0  0  0  0
 16 26  1  0  0  0  0
 16 27  2  0  0  0  0
 16 34  1  0  0  0  0
 17 19  2  0  0  0  0
 17 39  1  0  0  0  0
 18 20  2  0  0  0  0
 18 40  1  0  0  0  0
 19 51  1  0  0  0  0
 20 41  1  0  0  0  0
 21 78  1  0  0  0  0
 22 79  1  0  0  0  0
 23 25  2  0  0  0  0
 23 78  1  0  0  0  0
 24 80  1  0  0  0  0
 25 81  1  0  0  0  0
 26 63  2  0  0  0  0
 27 64  1  0  0  0  0
 27 68  1  0  0  0  0
 28 29  1  0  0  0  0
 28 30  2  0  0  0  0
 28 42  1  0  0  0  0
 29 31  2  0  0  0  0
 29 65  1  0  0  0  0
 31 32  1  0  0  0  0
 32 33  2  0  0  0  0
 33 59  1  0  0  0  0
 34 69  1  0  0  0  0
 34 73  2  0  0  0  0
 35 52  1  0  0  0  0
 35 70  1  0  0  0  0
 35 74  2  0  0  0  0
 36 60  1  0  0  0  0
 36 66  1  0  0  0  0
 36 75  2  0  0  0  0
 37 61  1  0  0  0  0
 37 71  1  0  0  0  0
 37 76  2  0  0  0  0
 38 65  1  0  0  0  0
 38 67  1  0  0  0  0
 38 77  2  0  0  0  0
 39 43  1  0  0  0  0
 40 52  1  0  0  0  0
 41 66  1  0  0  0  0
 42 44  1  0  0  0  0
 43 46  1  0  0  0  0
 44 48  1  0  0  0  0
 45 47  1  0  0  0  0
 45 49  1  0  0  0  0
 46 51  1  0  0  0  0
 47 53  1  0  0  0  0
 48 65  1  0  0  0  0
 49 67  1  0  0  0  0
 50 53  1  0  0  0  0
 50 67  1  0  0  0  0
 51 70  1  0  0  0  0
 52 66  1  0  0  0  0
 53 64  1  0  0  0  0
 54 61  1  0  0  0  0
 55 62  1  0  0  0  0
 56 62  1  0  0  0  0
 57 62  1  0  0  0  0
 58 72  1  0  0  0  0
 59 79  1  0  0  0  0
 60 62  1  0  0  0  0
 60 71  1  0  0  0  0
 61 72  1  0  0  0  0
 63 64  1  0  0  0  0
M  CHG  1  72   1
M  ISO  4  38 100  59 101  65 100  79 101
M  END
> <Batch ID>
0036

> <Smiles>
C=C1CCC[100N:0]([100C:0](=O)N2CCCC(n3nc(-c4ccc(Oc5ccc(F)cc5F)cc4)c(C(N)=O)c3N)C2)C1=CC=C[101CH2:1][101O:1]c1ccc2c(c1)CN(C(=O)C(NC(=O)C(C)NC)C(C)(C)C)C(C(=O)NC1CCCc3ccccc31)C2

> <Shape>
0.166

> <Color>
0.068

> <Negative vol penalty>
0.000

$$$$

  -OEChem-04042321543D

 87 96  0     1  0  0  0  0  0999 V2000
  -20.7947  -33.1555   25.5196 C   0  0  0  0  0  0  0  0  0  0  0  0
  -22.0392  -32.6895   25.1080 C   0  0  0  0  0  0  0  0  0  0  0  0
  -24.1555  -13.8678   21.5597 C   0  0  0  0  0  0  0  0  0  0  0  0
  -25.8900  -13.9760   19.8813 C   0  0  0  0  0  0  0  0  0  0  0  0
  -19.6718  -32.3373   25.4028 C   0  0  0  0  0  0  0  0  0  0  0  0
  -22.1618  -31.4047   24.5802 C   0  0  0  0  0  0  0  0  0  0  0  0
  -25.9782  -29.5947   20.1457 C   0  0  0  0  0  0  0  0  0  0  0  0
  -24.3544  -12.4922   21.6766 C   0  0  0  0  0  0  0  0  0  0  0  0
  -26.0889  -12.6003   19.9982 C   0  0  0  0  0  0  0  0  0  0  0  0
  -27.2162  -28.9542   20.1772 C   0  0  0  0  0  0  0  0  0  0  0  0
  -24.1588   -8.8929   22.1567 C   0  0  0  0  0  0  0  0  0  0  0  0
  -23.0303   -8.0740   22.1951 C   0  0  0  0  0  0  0  0  0  0  0  0
  -26.1193  -26.8309   19.8497 C   0  0  0  0  0  0  0  0  0  0  0  0
  -29.6149  -20.0756   14.8450 C   0  0  0  0  0  0  0  0  0  0  0  0
  -30.8303  -21.0865   16.6718 C   0  0  0  0  0  0  0  0  0  0  0  0
  -22.3730   -8.8774   20.0135 C   0  0  0  0  0  0  0  0  0  0  0  0
  -24.9233  -14.6098   20.6620 C   0  0  0  0  0  0  0  0  0  0  0  0
  -24.8559  -16.9993   21.5527 C   0  0  0  0  0  0  0  0  0  0  0  0
  -19.7790  -31.0453   24.8644 C   0  0  0  0  0  0  0  0  0  0  0  0
  -24.7986  -28.8556   19.9766 C   0  0  0  0  0  0  0  0  0  0  0  0
  -21.0395  -30.5680   24.4573 C   0  0  0  0  0  0  0  0  0  0  0  0
  -24.8678  -27.4646   19.8138 C   0  0  0  0  0  0  0  0  0  0  0  0
  -30.8136  -20.2947   15.5236 C   0  0  0  0  0  0  0  0  0  0  0  0
  -28.4328  -20.6484   15.3144 C   0  0  0  0  0  0  0  0  0  0  0  0
  -29.6483  -21.6593   17.1413 C   0  0  0  0  0  0  0  0  0  0  0  0
  -28.4495  -21.4402   16.4626 C   0  0  0  0  0  0  0  0  0  0  0  0
  -25.3210  -11.8584   20.8958 C   0  0  0  0  0  0  0  0  0  0  0  0
  -27.2867  -27.5718   20.0321 C   0  0  0  0  0  0  0  0  0  0  0  0
  -24.3943   -9.7042   21.0468 C   0  0  0  0  0  0  0  0  0  0  0  0
  -22.1375   -8.0662   21.1235 C   0  0  0  0  0  0  0  0  0  0  0  0
  -23.5015   -9.6964   19.9751 C   0  0  0  0  0  0  0  0  0  0  0  0
  -24.7180  -16.0307   20.5404 C   0  0  0  0  0  0  0  0  0  0  0  0
  -24.5532  -18.1877   20.9343 C   0  0  0  0  0  0  0  0  0  0  0  0
  -25.2248  -16.8390   22.9289 C   0  0  0  0  0  0  0  0  0  0  0  0
  -22.1904  -28.3624   21.7253 C   0  0  0  0  0  0  0  0  0  0  0  0
  -21.1751  -26.8064   19.0663 C   0  0  0  0  0  0  0  0  0  0  0  0
  -21.9811  -25.1507   16.1930 C   0  0  0  0  0  0  0  0  0  0  0  0
  -24.8042  -19.9968   15.2320 C   0  0  0  0  0  0  0  0  0  0  0  0
  -18.5451  -30.1803   24.8017 C   0  0  0  0  0  0  0  0  0  0  0  0
  -23.4732  -29.5644   19.9181 C   0  0  0  0  0  0  0  0  0  0  0  0
  -23.6324  -26.6277   19.6093 C   0  0  0  0  0  0  0  0  0  0  0  0
  -18.6962  -28.9691   23.8850 C   0  0  0  0  0  0  0  0  0  0  0  0
  -21.9426  -19.9854   17.3504 C   0  0  0  0  0  0  0  0  0  0  0  0
  -30.6863  -25.9980   17.1727 C   0  0  0  0  0  0  0  0  0  0  0  0
  -20.0222  -28.2625   24.1483 C   0  0  0  0  0  0  0  0  0  0  0  0
  -22.3418  -19.0580   18.4995 C   0  0  0  0  0  0  0  0  0  0  0  0
  -30.1445  -26.8202   18.3346 C   0  0  0  0  0  0  0  0  0  0  0  0
  -22.5062  -19.5045   16.0151 C   0  0  0  0  0  0  0  0  0  0  0  0
  -24.3627  -18.3500   17.1529 C   0  0  0  0  0  0  0  0  0  0  0  0
  -30.8832  -24.5392   17.5597 C   0  0  0  0  0  0  0  0  0  0  0  0
  -29.0719  -24.7439   19.2822 C   0  0  0  0  0  0  0  0  0  0  0  0
  -21.2086  -29.1892   23.8568 C   0  0  1  0  0  0  0  0  0  0  0  0
  -22.2946  -28.6563   20.2554 C   0  0  1  0  0  0  0  0  0  0  0  0
  -23.8643  -18.8246   18.5286 C   0  0  2  0  0  0  0  0  0  0  0  0
  -28.8701  -26.2056   18.9051 C   0  0  1  0  0  0  0  0  0  1  0  0
  -32.0775  -19.6829   15.0213 C   0  0  0  0  0  0  0  0  0  0  0  0
  -27.1819  -22.0539   16.9660 C   0  0  0  0  0  0  0  0  0  0  0  0
  -20.9367  -23.9616   14.2455 C   0  0  0  0  0  0  0  0  0  0  0  0
  -20.6072  -24.3944   20.8467 C   0  0  0  0  0  0  0  0  0  0  0  0
  -20.4882  -22.9853   18.7807 C   0  0  0  0  0  0  0  0  0  0  0  0
  -18.8611  -24.8464   19.1143 C   0  0  0  0  0  0  0  0  0  0  0  0
  -23.1449  -27.0599   14.2542 C   0  0  0  0  0  0  0  0  0  0  0  0
  -27.1623  -20.3973   14.5699 C   0  0  0  0  0  0  0  0  0  0  0  0
  -29.6932  -22.5068   18.3785 C   0  0  0  0  0  0  0  0  0  0  0  0
  -21.2669  -25.3883   18.5569 C   0  0  1  0  0  0  0  0  0  0  0  0
  -21.4633  -25.2874   14.7726 C   0  0  2  0  0  0  0  0  0  0  0  0
  -20.3292  -24.4189   19.3304 C   0  0  0  0  0  0  0  0  0  0  0  0
  -24.3557  -16.5582   19.3680 N   0  0  0  0  0  0  0  0  0  0  0  0
  -24.2633  -17.8711   19.6397 N   0  0  0  0  0  0  0  0  0  0  0  0
  -22.3596  -27.3662   19.5657 N   0  0  0  0  0  0  0  0  0  0  0  0
  -23.9542  -19.3040   16.1098 N   0  0  0  0  0  0  0  0  0  0  0  0
  -24.5093  -19.4623   21.3770 N   0  0  0  0  0  0  0  0  0  0  0  0
  -26.5825  -16.9099   23.2693 N   0  0  0  0  0  0  0  0  0  0  0  0
  -21.4388  -29.2824   22.4310 N   0  0  0  0  0  0  0  0  0  0  0  0
  -21.0083  -25.4523   17.1225 N   0  0  0  0  0  0  0  0  0  0  0  0
  -26.1628  -19.7542   15.3935 N   0  0  0  0  0  0  0  0  0  0  0  0
  -29.5846  -23.9786   18.0889 N   0  3  2  0  0  0  0  0  0  0  0  0
  -22.5511  -25.7543   13.8673 N   0  3  0  0  0  0  0  0  0  0  0  0
  -24.3770  -16.6225   23.8277 O   0  0  0  0  0  0  0  0  0  0  0  0
  -22.7492  -27.3734   22.1848 O   0  0  0  0  0  0  0  0  0  0  0  0
  -20.0939  -27.3982   19.0162 O   0  0  0  0  0  0  0  0  0  0  0  0
  -23.1322  -24.8069   16.4522 O   0  0  0  0  0  0  0  0  0  0  0  0
  -24.3838  -20.7781   14.3719 O   0  0  0  0  0  0  0  0  0  0  0  0
  -25.5155  -10.5162   21.0098 O   0  0  0  0  0  0  0  0  0  0  0  0
  -28.4937  -26.9441   20.0630 O   0  0  0  0  0  0  0  0  0  1  0  0
  -21.0547   -7.2785   21.1598 F   0  0  0  0  0  0  0  0  0  0  0  0
  -23.7231  -10.4727   18.9055 F   0  0  0  0  0  0  0  0  0  0  0  0
  1  2  1  0  0  0  0
  1  5  2  0  0  0  0
  2  6  2  0  0  0  0
  3  8  2  0  0  0  0
  3 17  1  0  0  0  0
  4  9  1  0  0  0  0
  4 17  2  0  0  0  0
  5 19  1  0  0  0  0
  6 21  1  0  0  0  0
  7 10  2  0  0  0  0
  7 20  1  0  0  0  0
  8 27  1  0  0  0  0
  9 27  2  0  0  0  0
 10 28  1  0  0  0  0
 11 12  2  0  0  0  0
 11 29  1  0  0  0  0
 12 30  1  0  0  0  0
 13 22  1  0  0  0  0
 13 28  2  0  0  0  0
 14 23  1  0  0  0  0
 14 24  2  0  0  0  0
 15 23  2  0  0  0  0
 15 25  1  0  0  0  0
 16 30  2  0  0  0  0
 16 31  1  0  0  0  0
 17 32  1  0  0  0  0
 18 32  1  0  0  0  0
 18 33  2  0  0  0  0
 18 34  1  0  0  0  0
 19 21  2  0  0  0  0
 19 39  1  0  0  0  0
 20 22  2  0  0  0  0
 20 40  1  0  0  0  0
 21 52  1  0  0  0  0
 22 41  1  0  0  0  0
 23 56  1  0  0  0  0
 24 26  1  0  0  0  0
 24 63  1  0  0  0  0
 25 26  2  0  0  0  0
 25 64  1  0  0  0  0
 26 57  1  0  0  0  0
 27 84  1  0  0  0  0
 28 85  1  0  0  0  0
 29 31  2  0  0  0  0
 29 84  1  0  0  0  0
 30 86  1  0  0  0  0
 31 87  1  0  0  0  0
 32 68  2  0  0  0  0
 33 69  1  0  0  0  0
 33 72  1  0  0  0  0
 34 73  1  0  0  0  0
 34 79  2  0  0  0  0
 35 53  1  0  0  0  0
 35 74  1  0  0  0  0
 35 80  2  0  0  0  0
 36 65  1  0  0  0  0
 36 70  1  0  0  0  0
 36 81  2  0  0  0  0
 37 66  1  0  0  0  0
 37 75  1  0  0  0  0
 37 82  2  0  0  0  0
 38 71  1  0  0  0  0
 38 76  1  0  0  0  0
 38 83  2  0  0  0  0
 39 42  1  0  0  0  0
 40 53  1  0  0  0  0
 41 70  1  0  0  0  0
 42 45  1  0  0  0  0
 43 46  1  0  0  0  0
 43 48  1  0  0  0  0
 44 47  1  0  0  0  0
 44 50  1  0  0  0  0
 45 52  1  0  0  0  0
 46 54  1  0  0  0  0
 47 55  1  0  0  0  0
 48 71  1  0  0  0  0
 49 54  1  0  0  0  0
 49 71  1  0  0  0  0
 50 77  1  0  0  0  0
 51 55  1  0  0  0  0
 51 77  1  0  0  0  0
 52 74  1  0  0  0  0
 53 70  1  0  0  0  0
 54 69  1  0  0  0  0
 55 85  1  0  0  0  0
 58 66  1  0  0  0  0
 59 67  1  0  0  0  0
 60 67  1  0  0  0  0
 61 67  1  0  0  0  0
 62 78  1  0  0  0  0
 63 76  1  0  0  0  0
 64 77  1  0  0  0  0
 65 67  1  0  0  0  0
 65 75  1  0  0  0  0
 66 78  1  0  0  0  0
 68 69  1  0  0  0  0
M  CHG  2  77   1  78   1
M  ISO  4  38 100  55 101  76 100  85 101
M  END
> <Batch ID>
0036

> <Smiles>
CNC(C)C(=O)NC(C(=O)N1Cc2cc([101O:1][101CH:1]3CCCN(Cc4cc(C)cc(C[100NH:0][100C:0](=O)N5CCCC(n6nc(-c7ccc(Oc8ccc(F)cc8F)cc7)c(C(N)=O)c6N)C5)c4C)C3)ccc2CC1C(=O)NC1CCCc2ccccc21)C(C)(C)C

> <Shape>
0.202

> <Color>
0.090

> <Negative vol penalty>
0.000

$$$$

  -OEChem-04042321543D

 89 98  0     1  0  0  0  0  0999 V2000
  -28.9610  -21.1292   17.2350 C   0  0  0  0  0  0  0  0  0  0  0  0
  -27.7757  -21.6080   17.7839 C   0  0  0  0  0  0  0  0  0  0  0  0
  -28.1173  -14.9152   21.3098 C   0  0  0  0  0  0  0  0  0  0  0  0
  -25.7665  -15.4652   21.2204 C   0  0  0  0  0  0  0  0  0  0  0  0
  -30.1822  -21.6668   17.6392 C   0  0  0  0  0  0  0  0  0  0  0  0
  -27.8112  -22.6241   18.7383 C   0  0  0  0  0  0  0  0  0  0  0  0
  -23.7139  -27.1133   19.4900 C   0  0  0  0  0  0  0  0  0  0  0  0
  -20.7978  -24.2448   24.5716 C   0  0  0  0  0  0  0  0  0  0  0  0
  -21.9181  -23.4640   24.8557 C   0  0  0  0  0  0  0  0  0  0  0  0
  -27.8150  -13.5797   21.0444 C   0  0  0  0  0  0  0  0  0  0  0  0
  -25.4641  -14.1297   20.9549 C   0  0  0  0  0  0  0  0  0  0  0  0
  -22.6427  -27.2681   20.3689 C   0  0  0  0  0  0  0  0  0  0  0  0
  -25.1826  -11.2453   22.6962 C   0  0  0  0  0  0  0  0  0  0  0  0
  -24.1246  -10.6684   23.3986 C   0  0  0  0  0  0  0  0  0  0  0  0
  -24.0501  -28.5519   21.8488 C   0  0  0  0  0  0  0  0  0  0  0  0
  -21.6415  -22.3028   22.7552 C   0  0  0  0  0  0  0  0  0  0  0  0
  -22.9844  -10.2234   21.3156 C   0  0  0  0  0  0  0  0  0  0  0  0
  -27.0931  -15.8580   21.3979 C   0  0  0  0  0  0  0  0  0  0  0  0
  -28.2113  -18.0967   20.9025 C   0  0  0  0  0  0  0  0  0  0  0  0
  -30.2321  -22.6966   18.5918 C   0  0  0  0  0  0  0  0  0  0  0  0
  -24.9663  -27.6684   19.7897 C   0  0  0  0  0  0  0  0  0  0  0  0
  -29.0343  -23.1751   19.1566 C   0  0  0  0  0  0  0  0  0  0  0  0
  -25.1349  -28.4049   20.9709 C   0  0  0  0  0  0  0  0  0  0  0  0
  -20.0992  -24.0546   23.3794 C   0  0  0  0  0  0  0  0  0  0  0  0
  -20.5210  -23.0835   22.4712 C   0  0  0  0  0  0  0  0  0  0  0  0
  -22.3400  -22.4930   23.9475 C   0  0  0  0  0  0  0  0  0  0  0  0
  -26.4884  -13.1869   20.8669 C   0  0  0  0  0  0  0  0  0  0  0  0
  -22.8115  -27.9850   21.5498 C   0  0  0  0  0  0  0  0  0  0  0  0
  -25.1415  -11.3114   21.3035 C   0  0  0  0  0  0  0  0  0  0  0  0
  -23.0255  -10.1574   22.7083 C   0  0  0  0  0  0  0  0  0  0  0  0
  -24.0424  -10.8004   20.6132 C   0  0  0  0  0  0  0  0  0  0  0  0
  -27.4047  -17.2377   21.6727 C   0  0  0  0  0  0  0  0  0  0  0  0
  -28.1915  -19.2890   21.5839 C   0  0  0  0  0  0  0  0  0  0  0  0
  -28.9155  -17.8398   19.6802 C   0  0  0  0  0  0  0  0  0  0  0  0
  -27.8775  -26.4953   20.2925 C   0  0  0  0  0  0  0  0  0  0  0  0
  -28.7057  -29.6309   20.3584 C   0  0  0  0  0  0  0  0  0  0  0  0
  -27.7547  -32.8686   20.8683 C   0  0  0  0  0  0  0  0  0  0  0  0
  -24.2863  -21.7624   25.3704 C   0  0  0  0  0  0  0  0  0  0  0  0
  -31.5787  -23.2136   19.0322 C   0  0  0  0  0  0  0  0  0  0  0  0
  -26.1046  -27.5152   18.8185 C   0  0  0  0  0  0  0  0  0  0  0  0
  -26.4538  -29.0379   21.3293 C   0  0  0  0  0  0  0  0  0  0  0  0
  -31.5070  -24.5465   19.7728 C   0  0  0  0  0  0  0  0  0  0  0  0
  -27.7203  -21.0680   26.0052 C   0  0  0  0  0  0  0  0  0  0  0  0
  -30.4023  -24.5143   20.8242 C   0  0  0  0  0  0  0  0  0  0  0  0
  -28.1041  -20.0898   24.8925 C   0  0  0  0  0  0  0  0  0  0  0  0
  -19.5942  -29.1017   22.6817 C   0  0  0  0  0  0  0  0  0  0  0  0
  -18.1444  -28.6394   22.7023 C   0  0  0  0  0  0  0  0  0  0  0  0
  -26.2945  -20.8324   26.5006 C   0  0  0  0  0  0  0  0  0  0  0  0
  -25.6507  -19.8415   24.3389 C   0  0  0  0  0  0  0  0  0  0  0  0
  -19.9034  -26.7397   21.7506 C   0  0  0  0  0  0  0  0  0  0  0  0
  -29.0302  -24.2934   20.1761 C   0  0  1  0  0  0  0  0  0  0  0  0
  -27.4733  -27.6862   19.4703 C   0  0  1  0  0  0  0  0  0  0  0  0
  -27.0557  -20.0819   23.7627 C   0  0  2  0  0  0  0  0  0  0  0  0
  -20.4590  -28.1597   21.8441 C   0  0  2  0  0  0  0  0  0  1  0  0
  -17.9881  -27.2488   23.3394 C   0  0  2  0  0  0  0  0  0  0  0  0
  -17.8131  -27.3511   24.8553 C   0  0  0  0  0  0  0  0  0  0  0  0
  -28.6615  -35.2084   20.8873 C   0  0  0  0  0  0  0  0  0  0  0  0
  -30.0112  -29.1003   23.0647 C   0  0  0  0  0  0  0  0  0  0  0  0
  -30.0445  -31.5731   23.4552 C   0  0  0  0  0  0  0  0  0  0  0  0
  -31.3229  -30.5959   21.5490 C   0  0  0  0  0  0  0  0  0  0  0  0
  -25.9410  -33.7133   18.6875 C   0  0  0  0  0  0  0  0  0  0  0  0
  -18.8967  -24.9059   23.0963 C   0  0  0  0  0  0  0  0  0  0  0  0
  -28.7991  -30.6897   21.4304 C   0  0  1  0  0  0  0  0  0  0  0  0
  -27.9903  -34.1278   20.0539 C   0  0  2  0  0  0  0  0  0  0  0  0
  -19.7900  -22.8636   21.1875 C   0  0  0  0  0  0  0  0  0  0  0  0
  -30.0200  -30.4763   22.3693 C   0  0  0  0  0  0  0  0  0  0  0  0
  -26.9087  -17.8336   22.7603 N   0  0  0  0  0  0  0  0  0  0  0  0
  -27.4051  -19.0798   22.6785 N   0  0  0  0  0  0  0  0  0  0  0  0
  -27.5381  -28.8547   20.3504 N   0  0  0  0  0  0  0  0  0  0  0  0
  -25.3561  -20.8424   25.3762 N   0  0  0  0  0  0  0  0  0  0  0  0
  -28.7703  -20.4856   21.3477 N   0  0  0  0  0  0  0  0  0  0  0  0
  -28.2540  -18.0719   18.4666 N   0  0  0  0  0  0  0  0  0  0  0  0
  -23.4792  -21.7010   24.2348 N   0  0  0  0  0  0  0  0  0  0  0  0
  -28.5496  -25.5212   19.5793 N   0  0  0  0  0  0  0  0  0  0  0  0
  -28.7954  -31.9736   20.7375 N   0  0  0  0  0  0  0  0  0  0  0  0
  -19.2139  -26.3801   23.0492 N   0  3  1  0  0  0  0  0  0  0  0  0
  -26.6970  -34.6638   19.5429 N   0  3  0  0  0  0  0  0  0  0  0  0
  -30.0907  -17.4014   19.6649 O   0  0  0  0  0  0  0  0  0  0  0  0
  -27.6013  -26.4634   21.4860 O   0  0  0  0  0  0  0  0  0  0  0  0
  -29.6312  -29.5023   19.5531 O   0  0  0  0  0  0  0  0  0  0  0  0
  -26.7497  -32.6977   21.5549 O   0  0  0  0  0  0  0  0  0  0  0  0
  -24.1160  -22.5654   26.2913 O   0  0  0  0  0  0  0  0  0  0  0  0
  -26.1930  -11.8838   20.6076 O   0  0  0  0  0  0  0  0  0  0  0  0
  -21.7677  -28.1370   22.4097 O   0  0  0  0  0  0  0  0  0  1  0  0
  -22.0103   -9.6020   23.3828 F   0  0  0  0  0  0  0  0  0  0  0  0
  -23.9978  -10.8600   19.2752 F   0  0  0  0  0  0  0  0  0  0  0  0
  -20.3326  -21.8793   20.4126 F   0  0  0  0  0  0  0  0  0  0  0  0
  -18.4841  -22.5048   21.3590 F   0  0  0  0  0  0  0  0  0  0  0  0
  -19.7652  -23.9785   20.4021 F   0  0  0  0  0  0  0  0  0  0  0  0
  1  2  1  0  0  0  0
  1  5  2  0  0  0  0
  2  6  2  0  0  0  0
  3 10  2  0  0  0  0
  3 18  1  0  0  0  0
  4 11  1  0  0  0  0
  4 18  2  0  0  0  0
  5 20  1  0  0  0  0
  6 22  1  0  0  0  0
  7 12  2  0  0  0  0
  7 21  1  0  0  0  0
  8  9  2  0  0  0  0
  8 24  1  0  0  0  0
  9 26  1  0  0  0  0
 10 27  1  0  0  0  0
 11 27  2  0  0  0  0
 12 28  1  0  0  0  0
 13 14  2  0  0  0  0
 13 29  1  0  0  0  0
 14 30  1  0  0  0  0
 15 23  1  0  0  0  0
 15 28  2  0  0  0  0
 16 25  1  0  0  0  0
 16 26  2  0  0  0  0
 17 30  2  0  0  0  0
 17 31  1  0  0  0  0
 18 32  1  0  0  0  0
 19 32  1  0  0  0  0
 19 33  2  0  0  0  0
 19 34  1  0  0  0  0
 20 22  2  0  0  0  0
 20 39  1  0  0  0  0
 21 23  2  0  0  0  0
 21 40  1  0  0  0  0
 22 51  1  0  0  0  0
 23 41  1  0  0  0  0
 24 25  2  0  0  0  0
 24 62  1  0  0  0  0
 25 65  1  0  0  0  0
 26 73  1  0  0  0  0
 27 83  1  0  0  0  0
 28 84  1  0  0  0  0
 29 31  2  0  0  0  0
 29 83  1  0  0  0  0
 30 85  1  0  0  0  0
 31 86  1  0  0  0  0
 32 67  2  0  0  0  0
 33 68  1  0  0  0  0
 33 71  1  0  0  0  0
 34 72  1  0  0  0  0
 34 78  2  0  0  0  0
 35 52  1  0  0  0  0
 35 74  1  0  0  0  0
 35 79  2  0  0  0  0
 36 63  1  0  0  0  0
 36 69  1  0  0  0  0
 36 80  2  0  0  0  0
 37 64  1  0  0  0  0
 37 75  1  0  0  0  0
 37 81  2  0  0  0  0
 38 70  1  0  0  0  0
 38 73  1  0  0  0  0
 38 82  2  0  0  0  0
 39 42  1  0  0  0  0
 40 52  1  0  0  0  0
 41 69  1  0  0  0  0
 42 44  1  0  0  0  0
 43 45  1  0  0  0  0
 43 48  1  0  0  0  0
 44 51  1  0  0  0  0
 45 53  1  0  0  0  0
 46 47  1  0  0  0  0
 46 54  1  0  0  0  0
 47 55  1  0  0  0  0
 48 70  1  0  0  0  0
 49 53  1  0  0  0  0
 49 70  1  0  0  0  0
 50 54  1  0  0  0  0
 50 76  1  0  0  0  0
 51 74  1  0  0  0  0
 52 69  1  0  0  0  0
 53 68  1  0  0  0  0
 54 84  1  0  0  0  0
 55 56  1  0  0  0  0
 55 76  1  0  0  0  0
 57 64  1  0  0  0  0
 58 66  1  0  0  0  0
 59 66  1  0  0  0  0
 60 66  1  0  0  0  0
 61 77  1  0  0  0  0
 62 76  1  0  0  0  0
 63 66  1  0  0  0  0
 63 75  1  0  0  0  0
 64 77  1  0  0  0  0
 65 87  1  0  0  0  0
 65 88  1  0  0  0  0
 65 89  1  0  0  0  0
 67 68  1  0  0  0  0
M  CHG  2  76   1  77   1
M  ISO  4  38 100  54 101  73 100  84 101
M  END
> <Batch ID>
0036

> <Smiles>
CNC(C)C(=O)NC(C(=O)N1Cc2cc([101O:1][101CH:1]3CCC(C)N(Cc4ccc([100NH:0][100C:0](=O)N5CCCC(n6nc(-c7ccc(Oc8ccc(F)cc8F)cc7)c(C(N)=O)c6N)C5)cc4C(F)(F)F)C3)ccc2CC1C(=O)NC1CCCc2ccccc21)C(C)(C)C

> <Shape>
0.218

> <Color>
0.072

> <Negative vol penalty>
0.000

$$$$

  -OEChem-04042321543D

 88 97  0     1  0  0  0  0  0999 V2000
  -24.4478  -10.7361   20.7807 C   0  0  0  0  0  0  0  0  0  0  0  0
  -23.5395  -11.7388   21.1049 C   0  0  0  0  0  0  0  0  0  0  0  0
  -31.4305  -26.0799   19.1865 C   0  0  0  0  0  0  0  0  0  0  0  0
  -31.7182  -27.8271   20.8302 C   0  0  0  0  0  0  0  0  0  0  0  0
  -25.8006  -11.0419   20.6388 C   0  0  0  0  0  0  0  0  0  0  0  0
  -23.9838  -13.0477   21.2886 C   0  0  0  0  0  0  0  0  0  0  0  0
  -20.9812  -18.1897   19.8569 C   0  0  0  0  0  0  0  0  0  0  0  0
  -32.7198  -26.3162   18.7096 C   0  0  0  0  0  0  0  0  0  0  0  0
  -33.0076  -28.0633   20.3533 C   0  0  0  0  0  0  0  0  0  0  0  0
  -20.2183  -19.0736   20.6189 C   0  0  0  0  0  0  0  0  0  0  0  0
  -35.8884  -25.5609   19.6163 C   0  0  0  0  0  0  0  0  0  0  0  0
  -36.7009  -24.4545   19.3687 C   0  0  0  0  0  0  0  0  0  0  0  0
  -22.1491  -20.4933   20.8939 C   0  0  0  0  0  0  0  0  0  0  0  0
  -20.0046  -27.6486   23.7991 C   0  0  0  0  0  0  0  0  0  0  0  0
  -36.8821  -25.1065   17.0494 C   0  0  0  0  0  0  0  0  0  0  0  0
  -30.9296  -26.8354   20.2468 C   0  0  0  0  0  0  0  0  0  0  0  0
  -29.2182  -25.6971   21.7577 C   0  0  0  0  0  0  0  0  0  0  0  0
  -26.2603  -12.3570   20.8114 C   0  0  0  0  0  0  0  0  0  0  0  0
  -22.3387  -18.4459   19.6164 C   0  0  0  0  0  0  0  0  0  0  0  0
  -25.3443  -13.3711   21.1503 C   0  0  0  0  0  0  0  0  0  0  0  0
  -22.9263  -19.6124   20.1264 C   0  0  0  0  0  0  0  0  0  0  0  0
  -19.2010  -26.5086   23.7928 C   0  0  0  0  0  0  0  0  0  0  0  0
  -20.1872  -28.3798   22.6253 C   0  0  0  0  0  0  0  0  0  0  0  0
  -19.5664  -27.9707   21.4451 C   0  0  0  0  0  0  0  0  0  0  0  0
  -18.7628  -26.8306   21.4387 C   0  0  0  0  0  0  0  0  0  0  0  0
  -18.5801  -26.0995   22.6126 C   0  0  0  0  0  0  0  0  0  0  0  0
  -33.5083  -27.3079   19.2930 C   0  0  0  0  0  0  0  0  0  0  0  0
  -20.8030  -20.2241   21.1399 C   0  0  0  0  0  0  0  0  0  0  0  0
  -35.5727  -26.4401   18.5804 C   0  0  0  0  0  0  0  0  0  0  0  0
  -37.1978  -24.2273   18.0853 C   0  0  0  0  0  0  0  0  0  0  0  0
  -36.0695  -26.2129   17.2970 C   0  0  0  0  0  0  0  0  0  0  0  0
  -29.5977  -26.5922   20.7395 C   0  0  0  0  0  0  0  0  0  0  0  0
  -27.8549  -25.8378   21.8480 C   0  0  0  0  0  0  0  0  0  0  0  0
  -17.7111  -22.4724   23.0661 C   0  0  0  0  0  0  0  0  0  0  0  0
  -17.2474  -22.3835   24.3184 C   0  0  0  0  0  0  0  0  0  0  0  0
  -30.0257  -24.8172   22.5510 C   0  0  0  0  0  0  0  0  0  0  0  0
  -25.0600  -16.9591   20.3146 C   0  0  0  0  0  0  0  0  0  0  0  0
  -26.3532  -19.2850   18.4598 C   0  0  0  0  0  0  0  0  0  0  0  0
  -26.0864  -22.4202   17.1384 C   0  0  0  0  0  0  0  0  0  0  0  0
  -23.4110  -29.0167   22.1548 C   0  0  0  0  0  0  0  0  0  0  0  0
  -27.7389  -12.6305   20.6942 C   0  0  0  0  0  0  0  0  0  0  0  0
  -23.1412  -17.4961   18.7701 C   0  0  0  0  0  0  0  0  0  0  0  0
  -24.3748  -19.9438   19.8801 C   0  0  0  0  0  0  0  0  0  0  0  0
  -17.6599  -21.3823   22.0417 C   0  0  0  0  0  0  0  0  0  0  0  0
  -28.0739  -14.1115   20.5373 C   0  0  0  0  0  0  0  0  0  0  0  0
  -24.5821  -28.2303   18.8220 C   0  0  0  0  0  0  0  0  0  0  0  0
  -27.2957  -14.9451   21.5505 C   0  0  0  0  0  0  0  0  0  0  0  0
  -25.9696  -27.6564   19.1147 C   0  0  0  0  0  0  0  0  0  0  0  0
  -24.2546  -29.3895   19.7585 C   0  0  0  0  0  0  0  0  0  0  0  0
  -25.7421  -28.4846   21.5026 C   0  0  0  0  0  0  0  0  0  0  0  0
  -19.0594  -23.1935   21.2921 C   0  0  0  0  0  0  0  0  0  0  0  0
  -25.7840  -14.8075   21.3331 C   0  0  1  0  0  0  0  0  0  0  0  0
  -24.6429  -17.5964   19.0195 C   0  0  1  0  0  0  0  0  0  0  0  0
  -26.1235  -27.2943   20.6038 C   0  0  2  0  0  0  0  0  0  0  0  0
  -18.9277  -21.6776   21.2556 C   0  0  1  0  0  0  0  0  0  1  0  0
  -19.0222  -25.7433   25.0631 C   0  0  0  0  0  0  0  0  0  0  0  0
  -19.7647  -28.7563   20.1875 C   0  0  0  0  0  0  0  0  0  0  0  0
  -18.0964  -26.3921   20.1729 C   0  0  0  0  0  0  0  0  0  0  0  0
  -27.3183  -24.0598   15.6922 C   0  0  0  0  0  0  0  0  0  0  0  0
  -28.2294  -19.9191   20.7809 C   0  0  0  0  0  0  0  0  0  0  0  0
  -28.7490  -22.1033   19.6730 C   0  0  0  0  0  0  0  0  0  0  0  0
  -29.3092  -19.9604   18.5255 C   0  0  0  0  0  0  0  0  0  0  0  0
  -23.9144  -22.4561   15.1285 C   0  0  0  0  0  0  0  0  0  0  0  0
  -21.0519  -29.5973   22.6594 C   0  0  0  0  0  0  0  0  0  0  0  0
  -17.7162  -24.8729   22.6085 C   0  0  0  0  0  0  0  0  0  0  0  0
  -26.8905  -20.6740   18.7065 C   0  0  1  0  0  0  0  0  0  0  0  0
  -26.2909  -22.9390   15.7265 C   0  0  2  0  0  0  0  0  0  0  0  0
  -28.2677  -20.6573   19.4279 C   0  0  0  0  0  0  0  0  0  0  0  0
  -28.5594  -27.2525   20.2201 N   0  0  0  0  0  0  0  0  0  0  0  0
  -27.5139  -26.7720   20.9145 N   0  0  0  0  0  0  0  0  0  0  0  0
  -25.1192  -18.9808   19.0519 N   0  0  0  0  0  0  0  0  0  0  0  0
  -24.4024  -28.9736   21.1604 N   0  0  0  0  0  0  0  0  0  0  0  0
  -26.9265  -25.2524   22.6339 N   0  0  0  0  0  0  0  0  0  0  0  0
  -31.4094  -24.7977   22.3284 N   0  0  0  0  0  0  0  0  0  0  0  0
  -25.3595  -15.6143   20.2091 N   0  0  0  0  0  0  0  0  0  0  0  0
  -26.9031  -21.3430   17.4100 N   0  0  0  0  0  0  0  0  0  0  0  0
  -22.1723  -29.4991   21.7504 N   0  0  0  0  0  0  0  0  0  0  0  0
  -18.5048  -23.5988   22.6553 N   0  3  1  0  0  0  0  0  0  0  0  0
  -25.0081  -23.4603   15.1754 N   0  3  0  0  0  0  0  0  0  0  0  0
  -29.5330  -24.0584   23.4198 O   0  0  0  0  0  0  0  0  0  0  0  0
  -25.1082  -17.6377   21.3339 O   0  0  0  0  0  0  0  0  0  0  0  0
  -27.0009  -18.5012   17.7614 O   0  0  0  0  0  0  0  0  0  0  0  0
  -25.2851  -22.9228   17.9233 O   0  0  0  0  0  0  0  0  0  0  0  0
  -23.6133  -28.6474   23.3166 O   0  0  0  0  0  0  0  0  0  0  0  0
  -34.7666  -27.5385   18.8280 O   0  0  0  0  0  0  0  0  0  0  0  0
  -20.0608  -21.0882   21.8846 O   0  0  0  0  0  0  0  0  0  1  0  0
  -37.9792  -23.1656   17.8480 F   0  0  0  0  0  0  0  0  0  0  0  0
  -35.7706  -27.0548   16.2981 F   0  0  0  0  0  0  0  0  0  0  0  0
  1  2  1  0  0  0  0
  1  5  2  0  0  0  0
  2  6  2  0  0  0  0
  3  8  2  0  0  0  0
  3 16  1  0  0  0  0
  4  9  1  0  0  0  0
  4 16  2  0  0  0  0
  5 18  1  0  0  0  0
  6 20  1  0  0  0  0
  7 10  2  0  0  0  0
  7 19  1  0  0  0  0
  8 27  1  0  0  0  0
  9 27  2  0  0  0  0
 10 28  1  0  0  0  0
 11 12  2  0  0  0  0
 11 29  1  0  0  0  0
 12 30  1  0  0  0  0
 13 21  1  0  0  0  0
 13 28  2  0  0  0  0
 14 22  2  0  0  0  0
 14 23  1  0  0  0  0
 15 30  2  0  0  0  0
 15 31  1  0  0  0  0
 16 32  1  0  0  0  0
 17 32  1  0  0  0  0
 17 33  2  0  0  0  0
 17 36  1  0  0  0  0
 18 20  2  0  0  0  0
 18 41  1  0  0  0  0
 19 21  2  0  0  0  0
 19 42  1  0  0  0  0
 20 52  1  0  0  0  0
 21 43  1  0  0  0  0
 22 26  1  0  0  0  0
 22 56  1  0  0  0  0
 23 24  2  0  0  0  0
 23 64  1  0  0  0  0
 24 25  1  0  0  0  0
 24 57  1  0  0  0  0
 25 26  2  0  0  0  0
 25 58  1  0  0  0  0
 26 65  1  0  0  0  0
 27 85  1  0  0  0  0
 28 86  1  0  0  0  0
 29 31  2  0  0  0  0
 29 85  1  0  0  0  0
 30 87  1  0  0  0  0
 31 88  1  0  0  0  0
 32 69  2  0  0  0  0
 33 70  1  0  0  0  0
 33 73  1  0  0  0  0
 34 35  2  0  0  0  0
 34 44  1  0  0  0  0
 34 78  1  0  0  0  0
 36 74  1  0  0  0  0
 36 80  2  0  0  0  0
 37 53  1  0  0  0  0
 37 75  1  0  0  0  0
 37 81  2  0  0  0  0
 38 66  1  0  0  0  0
 38 71  1  0  0  0  0
 38 82  2  0  0  0  0
 39 67  1  0  0  0  0
 39 76  1  0  0  0  0
 39 83  2  0  0  0  0
 40 72  1  0  0  0  0
 40 77  1  0  0  0  0
 40 84  2  0  0  0  0
 41 45  1  0  0  0  0
 42 53  1  0  0  0  0
 43 71  1  0  0  0  0
 44 55  1  0  0  0  0
 45 47  1  0  0  0  0
 46 48  1  0  0  0  0
 46 49  1  0  0  0  0
 47 52  1  0  0  0  0
 48 54  1  0  0  0  0
 49 72  1  0  0  0  0
 50 54  1  0  0  0  0
 50 72  1  0  0  0  0
 51 55  1  0  0  0  0
 51 78  1  0  0  0  0
 52 75  1  0  0  0  0
 53 71  1  0  0  0  0
 54 70  1  0  0  0  0
 55 86  1  0  0  0  0
 59 67  1  0  0  0  0
 60 68  1  0  0  0  0
 61 68  1  0  0  0  0
 62 68  1  0  0  0  0
 63 79  1  0  0  0  0
 64 77  1  0  0  0  0
 65 78  1  0  0  0  0
 66 68  1  0  0  0  0
 66 76  1  0  0  0  0
 67 79  1  0  0  0  0
 69 70  1  0  0  0  0
M  CHG  2  78   1  79   1
M  ISO  4  40 100  55 101  77 100  86 101
M  END
> <Batch ID>
0036

> <Smiles>
C=C1C[101CH:1]([101O:1]c2ccc3c(c2)CN(C(=O)C(NC(=O)C(C)NC)C(C)(C)C)C(C(=O)NC2CCCc4ccccc42)C3)CN1Cc1c(C)cc(C[100NH:0][100C:0](=O)N2CCCC(n3nc(-c4ccc(Oc5ccc(F)cc5F)cc4)c(C(N)=O)c3N)C2)c(C)c1C

> <Shape>
0.200

> <Color>
0.091

> <Negative vol penalty>
0.000

$$$$

  -OEChem-04042321543D

 89 98  0     1  0  0  0  0  0999 V2000
  -27.5673  -19.0408   16.8639 C   0  0  0  0  0  0  0  0  0  0  0  0
  -26.6046  -20.0334   17.0164 C   0  0  0  0  0  0  0  0  0  0  0  0
  -25.6095  -14.9639   22.4166 C   0  0  0  0  0  0  0  0  0  0  0  0
  -23.6029  -14.4639   21.1674 C   0  0  0  0  0  0  0  0  0  0  0  0
  -28.6660  -18.9993   17.7212 C   0  0  0  0  0  0  0  0  0  0  0  0
  -26.7396  -20.9846   18.0271 C   0  0  0  0  0  0  0  0  0  0  0  0
  -25.3099  -27.8579   19.4518 C   0  0  0  0  0  0  0  0  0  0  0  0
  -26.2109  -13.8110   21.9122 C   0  0  0  0  0  0  0  0  0  0  0  0
  -24.2043  -13.3109   20.6629 C   0  0  0  0  0  0  0  0  0  0  0  0
  -24.6880  -28.6515   20.4147 C   0  0  0  0  0  0  0  0  0  0  0  0
  -27.7033  -12.8325   19.0402 C   0  0  0  0  0  0  0  0  0  0  0  0
  -29.0153  -12.9350   18.5778 C   0  0  0  0  0  0  0  0  0  0  0  0
  -26.6685  -28.5287   21.7865 C   0  0  0  0  0  0  0  0  0  0  0  0
  -21.8108  -26.5672   18.0586 C   0  0  0  0  0  0  0  0  0  0  0  0
  -29.7170  -11.2933   20.2056 C   0  0  0  0  0  0  0  0  0  0  0  0
  -24.3054  -15.2904   22.0443 C   0  0  0  0  0  0  0  0  0  0  0  0
  -23.4396  -16.7908   23.9169 C   0  0  0  0  0  0  0  0  0  0  0  0
  -28.8195  -19.9562   18.7368 C   0  0  0  0  0  0  0  0  0  0  0  0
  -26.6141  -27.3839   19.6543 C   0  0  0  0  0  0  0  0  0  0  0  0
  -27.8407  -20.9551   18.8996 C   0  0  0  0  0  0  0  0  0  0  0  0
  -27.3057  -27.7314   20.8235 C   0  0  0  0  0  0  0  0  0  0  0  0
  -22.2129  -25.9573   19.2469 C   0  0  0  0  0  0  0  0  0  0  0  0
  -21.7569  -26.4465   20.4710 C   0  0  0  0  0  0  0  0  0  0  0  0
  -20.8989  -27.5457   20.5068 C   0  0  0  0  0  0  0  0  0  0  0  0
  -20.4969  -28.1556   19.3185 C   0  0  0  0  0  0  0  0  0  0  0  0
  -25.5083  -12.9844   21.0353 C   0  0  0  0  0  0  0  0  0  0  0  0
  -25.3662  -28.9846   21.5836 C   0  0  0  0  0  0  0  0  0  0  0  0
  -27.3981  -11.9605   20.0853 C   0  0  0  0  0  0  0  0  0  0  0  0
  -30.0221  -12.1653   19.1605 C   0  0  0  0  0  0  0  0  0  0  0  0
  -28.4050  -11.1909   20.6679 C   0  0  0  0  0  0  0  0  0  0  0  0
  -20.9529  -27.6664   18.0944 C   0  0  0  0  0  0  0  0  0  0  0  0
  -23.6834  -16.4810   22.5655 C   0  0  0  0  0  0  0  0  0  0  0  0
  -22.8345  -18.0233   23.8829 C   0  0  0  0  0  0  0  0  0  0  0  0
  -23.7340  -16.0323   25.0975 C   0  0  0  0  0  0  0  0  0  0  0  0
  -27.9400  -24.5068   19.9138 C   0  0  0  0  0  0  0  0  0  0  0  0
  -30.7007  -26.2099   19.9359 C   0  0  0  0  0  0  0  0  0  0  0  0
  -32.2677  -29.1801   20.5439 C   0  0  0  0  0  0  0  0  0  0  0  0
  -23.0935  -22.4253   19.9572 C   0  0  0  0  0  0  0  0  0  0  0  0
  -29.9997  -19.8425   19.6690 C   0  0  0  0  0  0  0  0  0  0  0  0
  -27.2807  -26.5511   18.5939 C   0  0  0  0  0  0  0  0  0  0  0  0
  -28.7146  -27.2648   21.0797 C   0  0  0  0  0  0  0  0  0  0  0  0
  -30.2617  -21.1106   20.4773 C   0  0  0  0  0  0  0  0  0  0  0  0
  -21.8167  -32.1320   22.8285 C   0  0  0  0  0  0  0  0  0  0  0  0
  -20.0823  -20.7680   21.0902 C   0  0  0  0  0  0  0  0  0  0  0  0
  -20.8556  -31.3874   23.7506 C   0  0  0  0  0  0  0  0  0  0  0  0
  -28.9616  -21.6434   21.0711 C   0  0  0  0  0  0  0  0  0  0  0  0
  -20.6543  -19.5014   21.7294 C   0  0  0  0  0  0  0  0  0  0  0  0
  -23.2345  -31.5698   22.8888 C   0  0  0  0  0  0  0  0  0  0  0  0
  -20.8640  -21.1572   19.8389 C   0  0  0  0  0  0  0  0  0  0  0  0
  -22.9016  -20.0671   20.6952 C   0  0  0  0  0  0  0  0  0  0  0  0
  -20.1995  -30.1421   23.1663 C   0  0  0  0  0  0  0  0  0  0  0  0
  -22.4836  -29.1066   22.7497 C   0  0  0  0  0  0  0  0  0  0  0  0
  -27.9647  -22.0193   19.9683 C   0  0  1  0  0  0  0  0  0  0  0  0
  -28.4234  -25.6975   19.1352 C   0  0  1  0  0  0  0  0  0  0  0  0
  -22.1686  -19.6339   21.9778 C   0  0  2  0  0  0  0  0  0  0  0  0
  -23.4270  -30.1956   22.2500 C   0  0  2  0  0  0  0  0  0  1  0  0
  -22.1902  -25.7901   21.7437 C   0  0  0  0  0  0  0  0  0  0  0  0
  -19.5754  -29.3350   19.3719 C   0  0  0  0  0  0  0  0  0  0  0  0
  -34.5350  -30.2548   20.5072 C   0  0  0  0  0  0  0  0  0  0  0  0
  -31.4239  -24.7666   22.5250 C   0  0  0  0  0  0  0  0  0  0  0  0
  -33.1705  -26.5142   22.9296 C   0  0  0  0  0  0  0  0  0  0  0  0
  -33.3217  -25.0439   20.9201 C   0  0  0  0  0  0  0  0  0  0  0  0
  -31.4207  -31.1680   18.5215 C   0  0  0  0  0  0  0  0  0  0  0  0
  -23.1321  -24.7818   19.1812 C   0  0  0  0  0  0  0  0  0  0  0  0
  -20.4091  -28.0703   21.8243 C   0  0  0  0  0  0  0  0  0  0  0  0
  -31.5539  -26.8493   21.0047 C   0  0  1  0  0  0  0  0  0  0  0  0
  -33.2615  -29.9813   19.7224 C   0  0  2  0  0  0  0  0  0  0  0  0
  -32.3403  -25.8008   21.8412 C   0  0  0  0  0  0  0  0  0  0  0  0
  -23.2669  -17.4394   21.7336 N   0  0  0  0  0  0  0  0  0  0  0  0
  -22.7553  -18.3634   22.5645 N   0  0  0  0  0  0  0  0  0  0  0  0
  -29.3212  -26.4476   20.0159 N   0  0  0  0  0  0  0  0  0  0  0  0
  -22.2952  -21.2851   20.1476 N   0  0  0  0  0  0  0  0  0  0  0  0
  -22.3677  -18.8385   24.8524 N   0  0  0  0  0  0  0  0  0  0  0  0
  -22.7681  -15.1352   25.5734 N   0  0  0  0  0  0  0  0  0  0  0  0
  -28.3208  -23.2915   19.3774 N   0  0  0  0  0  0  0  0  0  0  0  0
  -32.3979  -27.8252   20.3237 N   0  0  0  0  0  0  0  0  0  0  0  0
  -22.4444  -23.5340   19.4280 N   0  0  0  0  0  0  0  0  0  0  0  0
  -21.0855  -29.3548   22.2379 N   0  3  1  0  0  0  0  0  0  0  0  0
  -32.6674  -31.2876   19.3206 N   0  3  0  0  0  0  0  0  0  0  0  0
  -24.8148  -16.1588   25.7216 O   0  0  0  0  0  0  0  0  0  0  0  0
  -27.2724  -24.6779   20.9270 O   0  0  0  0  0  0  0  0  0  0  0  0
  -31.2391  -25.5307   19.0582 O   0  0  0  0  0  0  0  0  0  0  0  0
  -31.4594  -29.7036   21.3075 O   0  0  0  0  0  0  0  0  0  0  0  0
  -24.2954  -22.4549   20.2428 O   0  0  0  0  0  0  0  0  0  0  0  0
  -26.0950  -11.8594   20.5426 O   0  0  0  0  0  0  0  0  0  0  0  0
  -24.7612  -29.7585   22.5253 O   0  0  0  0  0  0  0  0  0  1  0  0
  -31.2817  -12.2627   18.7154 F   0  0  0  0  0  0  0  0  0  0  0  0
  -28.1178  -10.3505   21.6715 F   0  0  0  0  0  0  0  0  0  0  0  0
  -20.4782  -28.3922   16.6013 Cl  0  0  0  0  0  0  0  0  0  0  0  0
  1  2  1  0  0  0  0
  1  5  2  0  0  0  0
  2  6  2  0  0  0  0
  3  8  2  0  0  0  0
  3 16  1  0  0  0  0
  4  9  1  0  0  0  0
  4 16  2  0  0  0  0
  5 18  1  0  0  0  0
  6 20  1  0  0  0  0
  7 10  2  0  0  0  0
  7 19  1  0  0  0  0
  8 26  1  0  0  0  0
  9 26  2  0  0  0  0
 10 27  1  0  0  0  0
 11 12  2  0  0  0  0
 11 28  1  0  0  0  0
 12 29  1  0  0  0  0
 13 21  1  0  0  0  0
 13 27  2  0  0  0  0
 14 22  2  0  0  0  0
 14 31  1  0  0  0  0
 15 29  2  0  0  0  0
 15 30  1  0  0  0  0
 16 32  1  0  0  0  0
 17 32  1  0  0  0  0
 17 33  2  0  0  0  0
 17 34  1  0  0  0  0
 18 20  2  0  0  0  0
 18 39  1  0  0  0  0
 19 21  2  0  0  0  0
 19 40  1  0  0  0  0
 20 53  1  0  0  0  0
 21 41  1  0  0  0  0
 22 23  1  0  0  0  0
 22 64  1  0  0  0  0
 23 24  2  0  0  0  0
 23 57  1  0  0  0  0
 24 25  1  0  0  0  0
 24 65  1  0  0  0  0
 25 31  2  0  0  0  0
 25 58  1  0  0  0  0
 26 85  1  0  0  0  0
 27 86  1  0  0  0  0
 28 30  2  0  0  0  0
 28 85  1  0  0  0  0
 29 87  1  0  0  0  0
 30 88  1  0  0  0  0
 31 89  1  0  0  0  0
 32 69  2  0  0  0  0
 33 70  1  0  0  0  0
 33 73  1  0  0  0  0
 34 74  1  0  0  0  0
 34 80  2  0  0  0  0
 35 54  1  0  0  0  0
 35 75  1  0  0  0  0
 35 81  2  0  0  0  0
 36 66  1  0  0  0  0
 36 71  1  0  0  0  0
 36 82  2  0  0  0  0
 37 67  1  0  0  0  0
 37 76  1  0  0  0  0
 37 83  2  0  0  0  0
 38 72  1  0  0  0  0
 38 77  1  0  0  0  0
 38 84  2  0  0  0  0
 39 42  1  0  0  0  0
 40 54  1  0  0  0  0
 41 71  1  0  0  0  0
 42 46  1  0  0  0  0
 43 45  1  0  0  0  0
 43 48  1  0  0  0  0
 44 47  1  0  0  0  0
 44 49  1  0  0  0  0
 45 51  1  0  0  0  0
 46 53  1  0  0  0  0
 47 55  1  0  0  0  0
 48 56  1  0  0  0  0
 49 72  1  0  0  0  0
 50 55  1  0  0  0  0
 50 72  1  0  0  0  0
 51 78  1  0  0  0  0
 52 56  1  0  0  0  0
 52 78  1  0  0  0  0
 53 75  1  0  0  0  0
 54 71  1  0  0  0  0
 55 70  1  0  0  0  0
 56 86  1  0  0  0  0
 59 67  1  0  0  0  0
 60 68  1  0  0  0  0
 61 68  1  0  0  0  0
 62 68  1  0  0  0  0
 63 79  1  0  0  0  0
 64 77  1  0  0  0  0
 65 78  1  0  0  0  0
 66 68  1  0  0  0  0
 66 76  1  0  0  0  0
 67 79  1  0  0  0  0
 69 70  1  0  0  0  0
M  CHG  2  78   1  79   1
M  ISO  4  38 100  56 101  77 100  86 101
M  END
> <Batch ID>
0036

> <Smiles>
CNC(C)C(=O)NC(C(=O)N1Cc2cc([101O:1][101CH:1]3CCCCN(Cc4c(C)c(Cl)cc(C[100NH:0][100C:0](=O)N5CCCC(n6nc(-c7ccc(Oc8ccc(F)cc8F)cc7)c(C(N)=O)c6N)C5)c4C)C3)ccc2CC1C(=O)NC1CCCc2ccccc21)C(C)(C)C

> <Shape>
0.215

> <Color>
0.073

> <Negative vol penalty>
0.000

$$$$

  -OEChem-04042321543D

 89 98  0     1  0  0  0  0  0999 V2000
  -19.9024   -8.4997   19.3246 C   0  0  0  0  0  0  0  0  0  0  0  0
  -19.8285   -9.8786   19.4937 C   0  0  0  0  0  0  0  0  0  0  0  0
  -28.1074  -29.0345   19.6736 C   0  0  0  0  0  0  0  0  0  0  0  0
  -27.1626  -27.0975   20.7657 C   0  0  0  0  0  0  0  0  0  0  0  0
  -20.9930   -7.7939   19.8310 C   0  0  0  0  0  0  0  0  0  0  0  0
  -20.8447  -10.5523   20.1703 C   0  0  0  0  0  0  0  0  0  0  0  0
  -22.9379  -16.1879   19.0018 C   0  0  0  0  0  0  0  0  0  0  0  0
  -29.2620  -28.3077   19.3834 C   0  0  0  0  0  0  0  0  0  0  0  0
  -28.3172  -26.3707   20.4755 C   0  0  0  0  0  0  0  0  0  0  0  0
  -22.6719  -17.4266   19.5836 C   0  0  0  0  0  0  0  0  0  0  0  0
  -30.8694  -23.8982   19.7065 C   0  0  0  0  0  0  0  0  0  0  0  0
  -30.7144  -22.6041   19.2100 C   0  0  0  0  0  0  0  0  0  0  0  0
  -24.6271  -17.1859   20.9757 C   0  0  0  0  0  0  0  0  0  0  0  0
  -20.1542  -23.7637   24.3992 C   0  0  0  0  0  0  0  0  0  0  0  0
  -29.4964  -23.4771   17.3149 C   0  0  0  0  0  0  0  0  0  0  0  0
  -27.0577  -28.4294   20.3648 C   0  0  0  0  0  0  0  0  0  0  0  0
  -24.9892  -29.7883   19.7462 C   0  0  0  0  0  0  0  0  0  0  0  0
  -22.0278   -8.4606   20.5057 C   0  0  0  0  0  0  0  0  0  0  0  0
  -24.0463  -15.4326   19.4110 C   0  0  0  0  0  0  0  0  0  0  0  0
  -21.9495   -9.8546   20.6873 C   0  0  0  0  0  0  0  0  0  0  0  0
  -24.9065  -15.9390   20.3958 C   0  0  0  0  0  0  0  0  0  0  0  0
  -21.1091  -23.0176   25.0899 C   0  0  0  0  0  0  0  0  0  0  0  0
  -21.8855  -23.6225   26.0783 C   0  0  0  0  0  0  0  0  0  0  0  0
  -20.7521  -25.7196   25.6853 C   0  0  0  0  0  0  0  0  0  0  0  0
  -29.3670  -26.9758   19.7844 C   0  0  0  0  0  0  0  0  0  0  0  0
  -23.5149  -17.9245   20.5727 C   0  0  0  0  0  0  0  0  0  0  0  0
  -30.3379  -24.9819   19.0073 C   0  0  0  0  0  0  0  0  0  0  0  0
  -30.0279  -22.3935   18.0141 C   0  0  0  0  0  0  0  0  0  0  0  0
  -29.6514  -24.7713   17.8115 C   0  0  0  0  0  0  0  0  0  0  0  0
  -19.9757  -25.1148   24.6969 C   0  0  0  0  0  0  0  0  0  0  0  0
  -21.7070  -24.9735   26.3760 C   0  0  0  0  0  0  0  0  0  0  0  0
  -25.8649  -29.1798   20.6653 C   0  0  0  0  0  0  0  0  0  0  0  0
  -24.0211  -30.3700   20.5278 C   0  0  0  0  0  0  0  0  0  0  0  0
  -22.9096  -19.9088   24.0634 C   0  0  0  0  0  0  0  0  0  0  0  0
  -23.9571  -19.6203   24.8503 C   0  0  0  0  0  0  0  0  0  0  0  0
  -25.0458  -29.8243   18.3140 C   0  0  0  0  0  0  0  0  0  0  0  0
  -24.4440  -12.5797   20.7549 C   0  0  0  0  0  0  0  0  0  0  0  0
  -27.5853  -13.2130   20.2514 C   0  0  0  0  0  0  0  0  0  0  0  0
  -29.7803  -16.0596   20.5613 C   0  0  0  0  0  0  0  0  0  0  0  0
  -21.9812  -29.2031   26.0349 C   0  0  0  0  0  0  0  0  0  0  0  0
  -23.1633   -7.6487   21.0767 C   0  0  0  0  0  0  0  0  0  0  0  0
  -24.3345  -14.1103   18.7547 C   0  0  0  0  0  0  0  0  0  0  0  0
  -26.1210  -15.1765   20.8561 C   0  0  0  0  0  0  0  0  0  0  0  0
  -22.1587  -18.8629   23.2802 C   0  0  0  0  0  0  0  0  0  0  0  0
  -24.3819   -8.4871   21.4542 C   0  0  0  0  0  0  0  0  0  0  0  0
  -23.3551  -32.2730   24.8666 C   0  0  0  0  0  0  0  0  0  0  0  0
  -23.9564   -9.7252   22.2370 C   0  0  0  0  0  0  0  0  0  0  0  0
  -24.0751  -31.8832   23.5745 C   0  0  0  0  0  0  0  0  0  0  0  0
  -21.5453  -20.7313   21.6887 C   0  0  0  0  0  0  0  0  0  0  0  0
  -23.4692  -31.1807   25.9277 C   0  0  0  0  0  0  0  0  0  0  0  0
  -23.7558  -29.4518   24.1949 C   0  0  0  0  0  0  0  0  0  0  0  0
  -22.4242  -21.6902   22.4905 C   0  0  0  0  0  0  0  0  0  0  0  0
  -23.0442  -10.6244   21.3939 C   0  0  1  0  0  0  0  0  0  0  0  0
  -25.2019  -13.1940   19.6122 C   0  0  1  0  0  0  0  0  0  0  0  0
  -23.6212  -30.4983   23.0755 C   0  0  2  0  0  0  0  0  0  0  0  0
  -22.0080  -19.2801   21.8171 C   0  0  1  0  0  0  0  0  0  1  0  0
  -22.9046  -22.8020   26.8069 C   0  0  0  0  0  0  0  0  0  0  0  0
  -31.9043  -16.6216   19.3488 C   0  0  0  0  0  0  0  0  0  0  0  0
  -28.9542  -11.8659   22.6224 C   0  0  0  0  0  0  0  0  0  0  0  0
  -30.7364  -13.6202   22.5008 C   0  0  0  0  0  0  0  0  0  0  0  0
  -30.3773  -12.0739   20.5765 C   0  0  0  0  0  0  0  0  0  0  0  0
  -28.7279  -18.6870   19.6964 C   0  0  0  0  0  0  0  0  0  0  0  0
  -20.5560  -27.1716   26.0011 C   0  0  0  0  0  0  0  0  0  0  0  0
  -21.2796  -21.5666   24.7488 C   0  0  0  0  0  0  0  0  0  0  0  0
  -28.6797  -13.8888   21.0417 C   0  0  1  0  0  0  0  0  0  0  0  0
  -30.4035  -16.8542   19.4279 C   0  0  2  0  0  0  0  0  0  0  0  0
  -29.6596  -12.8695   21.6885 C   0  0  0  0  0  0  0  0  0  0  0  0
  -25.4867  -29.3585   21.9338 N   0  0  0  0  0  0  0  0  0  0  0  0
  -24.3627  -30.0859   21.8173 N   0  0  0  0  0  0  0  0  0  0  0  0
  -26.3567  -13.8857   20.1886 N   0  0  0  0  0  0  0  0  0  0  0  0
  -23.0217  -29.8931   25.3913 N   0  0  0  0  0  0  0  0  0  0  0  0
  -22.9196  -31.0917   20.2309 N   0  0  0  0  0  0  0  0  0  0  0  0
  -24.4073  -28.8052   17.5942 N   0  0  0  0  0  0  0  0  0  0  0  0
  -23.8245  -11.3849   20.4415 N   0  0  0  0  0  0  0  0  0  0  0  0
  -29.3162  -14.8345   20.1312 N   0  0  0  0  0  0  0  0  0  0  0  0
  -21.6142  -27.9936   25.4577 N   0  0  0  0  0  0  0  0  0  0  0  0
  -22.5203  -21.2921   23.9448 N   0  3  1  0  0  0  0  0  0  0  0  0
  -30.1636  -18.3119   19.6242 N   0  3  0  0  0  0  0  0  0  0  0  0
  -25.6587  -30.7244   17.6913 O   0  0  0  0  0  0  0  0  0  0  0  0
  -24.4241  -13.1468   21.8411 O   0  0  0  0  0  0  0  0  0  0  0  0
  -27.8143  -12.1316   19.7039 O   0  0  0  0  0  0  0  0  0  0  0  0
  -29.7153  -16.4818   21.7137 O   0  0  0  0  0  0  0  0  0  0  0  0
  -21.4172  -29.6356   27.0457 O   0  0  0  0  0  0  0  0  0  0  0  0
  -30.4934  -26.2663   19.5012 O   0  0  0  0  0  0  0  0  0  0  0  0
  -23.2572  -19.1331   21.1427 O   0  0  0  0  0  0  0  0  0  1  0  0
  -29.8803  -21.1507   17.5366 F   0  0  0  0  0  0  0  0  0  0  0  0
  -29.1396  -25.8086   17.1347 F   0  0  0  0  0  0  0  0  0  0  0  0
  -18.7821  -26.0003   23.8170 Cl  0  0  0  0  0  0  0  0  0  0  0  0
  -22.6733  -25.7226   27.6049 Cl  0  0  0  0  0  0  0  0  0  0  0  0
  1  2  1  0  0  0  0
  1  5  2  0  0  0  0
  2  6  2  0  0  0  0
  3  8  2  0  0  0  0
  3 16  1  0  0  0  0
  4  9  1  0  0  0  0
  4 16  2  0  0  0  0
  5 18  1  0  0  0  0
  6 20  1  0  0  0  0
  7 10  2  0  0  0  0
  7 19  1  0  0  0  0
  8 25  1  0  0  0  0
  9 25  2  0  0  0  0
 10 26  1  0  0  0  0
 11 12  2  0  0  0  0
 11 27  1  0  0  0  0
 12 28  1  0  0  0  0
 13 21  1  0  0  0  0
 13 26  2  0  0  0  0
 14 22  1  0  0  0  0
 14 30  2  0  0  0  0
 15 28  2  0  0  0  0
 15 29  1  0  0  0  0
 16 32  1  0  0  0  0
 17 32  1  0  0  0  0
 17 33  2  0  0  0  0
 17 36  1  0  0  0  0
 18 20  2  0  0  0  0
 18 41  1  0  0  0  0
 19 21  2  0  0  0  0
 19 42  1  0  0  0  0
 20 53  1  0  0  0  0
 21 43  1  0  0  0  0
 22 23  2  0  0  0  0
 22 64  1  0  0  0  0
 23 31  1  0  0  0  0
 23 57  1  0  0  0  0
 24 30  1  0  0  0  0
 24 31  2  0  0  0  0
 24 63  1  0  0  0  0
 25 84  1  0  0  0  0
 26 85  1  0  0  0  0
 27 29  2  0  0  0  0
 27 84  1  0  0  0  0
 28 86  1  0  0  0  0
 29 87  1  0  0  0  0
 30 88  1  0  0  0  0
 31 89  1  0  0  0  0
 32 68  2  0  0  0  0
 33 69  1  0  0  0  0
 33 72  1  0  0  0  0
 34 35  2  0  0  0  0
 34 44  1  0  0  0  0
 34 77  1  0  0  0  0
 36 73  1  0  0  0  0
 36 79  2  0  0  0  0
 37 54  1  0  0  0  0
 37 74  1  0  0  0  0
 37 80  2  0  0  0  0
 38 65  1  0  0  0  0
 38 70  1  0  0  0  0
 38 81  2  0  0  0  0
 39 66  1  0  0  0  0
 39 75  1  0  0  0  0
 39 82  2  0  0  0  0
 40 71  1  0  0  0  0
 40 76  1  0  0  0  0
 40 83  2  0  0  0  0
 41 45  1  0  0  0  0
 42 54  1  0  0  0  0
 43 70  1  0  0  0  0
 44 56  1  0  0  0  0
 45 47  1  0  0  0  0
 46 48  1  0  0  0  0
 46 50  1  0  0  0  0
 47 53  1  0  0  0  0
 48 55  1  0  0  0  0
 49 52  1  0  0  0  0
 49 56  1  0  0  0  0
 50 71  1  0  0  0  0
 51 55  1  0  0  0  0
 51 71  1  0  0  0  0
 52 77  1  0  0  0  0
 53 74  1  0  0  0  0
 54 70  1  0  0  0  0
 55 69  1  0  0  0  0
 56 85  1  0  0  0  0
 58 66  1  0  0  0  0
 59 67  1  0  0  0  0
 60 67  1  0  0  0  0
 61 67  1  0  0  0  0
 62 78  1  0  0  0  0
 63 76  1  0  0  0  0
 64 77  1  0  0  0  0
 65 67  1  0  0  0  0
 65 75  1  0  0  0  0
 66 78  1  0  0  0  0
 68 69  1  0  0  0  0
M  CHG  2  77   1  78   1
M  ISO  4  40 100  56 101  76 100  85 101
M  END
> <Batch ID>
0036

> <Smiles>
C=C1C[101CH:1]([101O:1]c2ccc3c(c2)CN(C(=O)C(NC(=O)C(C)NC)C(C)(C)C)C(C(=O)NC2CCCc4ccccc42)C3)CCN1Cc1cc(Cl)c(C[100NH:0][100C:0](=O)N2CCCC(n3nc(-c4ccc(Oc5ccc(F)cc5F)cc4)c(C(N)=O)c3N)C2)c(Cl)c1C

> <Shape>
0.270

> <Color>
0.041

> <Negative vol penalty>
0.000

$$$$

  -OEChem-04042321543D

 87 96  0     1  0  0  0  0  0999 V2000
  -24.6817  -36.9445   19.7490 C   0  0  0  0  0  0  0  0  0  0  0  0
  -25.3689  -35.8013   19.3538 C   0  0  0  0  0  0  0  0  0  0  0  0
  -23.9640  -10.5908   22.3688 C   0  0  0  0  0  0  0  0  0  0  0  0
  -24.7674  -10.0181   20.1635 C   0  0  0  0  0  0  0  0  0  0  0  0
  -24.2089  -37.0554   21.0560 C   0  0  0  0  0  0  0  0  0  0  0  0
  -25.5847  -34.7687   20.2657 C   0  0  0  0  0  0  0  0  0  0  0  0
  -25.7015  -28.7639   19.0680 C   0  0  0  0  0  0  0  0  0  0  0  0
  -23.9337   -9.2384   22.7090 C   0  0  0  0  0  0  0  0  0  0  0  0
  -24.7372   -8.6656   20.5037 C   0  0  0  0  0  0  0  0  0  0  0  0
  -26.7503  -27.8696   18.8577 C   0  0  0  0  0  0  0  0  0  0  0  0
  -23.3028   -5.9130   24.0386 C   0  0  0  0  0  0  0  0  0  0  0  0
  -22.1763   -5.4364   24.7088 C   0  0  0  0  0  0  0  0  0  0  0  0
  -26.6538  -27.2200   21.1788 C   0  0  0  0  0  0  0  0  0  0  0  0
  -29.6965  -19.8982   22.7311 C   0  0  0  0  0  0  0  0  0  0  0  0
  -28.0910  -18.7107   24.0909 C   0  0  0  0  0  0  0  0  0  0  0  0
  -20.7873   -6.1016   22.8472 C   0  0  0  0  0  0  0  0  0  0  0  0
  -24.3808  -10.9806   21.0960 C   0  0  0  0  0  0  0  0  0  0  0  0
  -23.3271  -13.2748   20.7296 C   0  0  0  0  0  0  0  0  0  0  0  0
  -24.4106  -36.0195   21.9816 C   0  0  0  0  0  0  0  0  0  0  0  0
  -25.1274  -28.9011   20.3399 C   0  0  0  0  0  0  0  0  0  0  0  0
  -25.1153  -34.8664   21.5866 C   0  0  0  0  0  0  0  0  0  0  0  0
  -25.5962  -28.1149   21.4021 C   0  0  0  0  0  0  0  0  0  0  0  0
  -29.2196  -18.7039   23.2713 C   0  0  0  0  0  0  0  0  0  0  0  0
  -29.0447  -21.0994   23.0105 C   0  0  0  0  0  0  0  0  0  0  0  0
  -27.9161  -21.1062   23.8301 C   0  0  0  0  0  0  0  0  0  0  0  0
  -24.3204   -8.2758   21.7765 C   0  0  0  0  0  0  0  0  0  0  0  0
  -27.2285  -27.0996   19.9138 C   0  0  0  0  0  0  0  0  0  0  0  0
  -23.1717   -6.4841   22.7727 C   0  0  0  0  0  0  0  0  0  0  0  0
  -20.9185   -5.5306   24.1131 C   0  0  0  0  0  0  0  0  0  0  0  0
  -21.9139   -6.5783   22.1770 C   0  0  0  0  0  0  0  0  0  0  0  0
  -27.4392  -19.9119   24.3703 C   0  0  0  0  0  0  0  0  0  0  0  0
  -24.4117  -12.3774   20.7438 C   0  0  0  0  0  0  0  0  0  0  0  0
  -23.8746  -14.4689   20.3286 C   0  0  0  0  0  0  0  0  0  0  0  0
  -21.9480  -13.0491   21.0504 C   0  0  0  0  0  0  0  0  0  0  0  0
  -24.8491  -31.2790   22.4308 C   0  0  0  0  0  0  0  0  0  0  0  0
  -23.0153  -29.1363   24.0334 C   0  0  0  0  0  0  0  0  0  0  0  0
  -22.2248  -25.8696   24.6255 C   0  0  0  0  0  0  0  0  0  0  0  0
  -29.4118  -16.7254   20.6425 C   0  0  0  0  0  0  0  0  0  0  0  0
  -23.9223  -36.2051   23.3965 C   0  0  0  0  0  0  0  0  0  0  0  0
  -23.9790  -29.8508   20.5442 C   0  0  0  0  0  0  0  0  0  0  0  0
  -25.0006  -28.2098   22.7822 C   0  0  0  0  0  0  0  0  0  0  0  0
  -23.8658  -34.9062   24.1966 C   0  0  0  0  0  0  0  0  0  0  0  0
  -27.4561  -16.2526   17.7052 C   0  0  0  0  0  0  0  0  0  0  0  0
  -28.0527  -22.5679   18.9164 C   0  0  0  0  0  0  0  0  0  0  0  0
  -25.1517  -34.1074   24.0091 C   0  0  0  0  0  0  0  0  0  0  0  0
  -26.3562  -15.2868   18.1496 C   0  0  0  0  0  0  0  0  0  0  0  0
  -28.1774  -24.0675   18.6812 C   0  0  0  0  0  0  0  0  0  0  0  0
  -28.7901  -15.9368   18.3780 C   0  0  0  0  0  0  0  0  0  0  0  0
  -27.6396  -14.8993   20.2947 C   0  0  0  0  0  0  0  0  0  0  0  0
  -28.9986  -22.0894   20.0086 C   0  0  0  0  0  0  0  0  0  0  0  0
  -28.9373  -24.3619   21.0677 C   0  0  0  0  0  0  0  0  0  0  0  0
  -25.3477  -33.7142   22.5399 C   0  0  1  0  0  0  0  0  0  0  0  0
  -23.8117  -30.2820   21.9980 C   0  0  1  0  0  0  0  0  0  0  0  0
  -26.2622  -15.2124   19.6854 C   0  0  2  0  0  0  0  0  0  0  0  0
  -27.9938  -24.8514   19.9769 C   0  0  1  0  0  0  0  0  0  1  0  0
  -27.2287  -22.4040   24.1206 C   0  0  0  0  0  0  0  0  0  0  0  0
  -20.7109  -24.4300   26.0158 C   0  0  0  0  0  0  0  0  0  0  0  0
  -24.7839  -29.6335   26.4696 C   0  0  0  0  0  0  0  0  0  0  0  0
  -23.8587  -27.5388   27.4817 C   0  0  0  0  0  0  0  0  0  0  0  0
  -22.3410  -29.4521   26.9734 C   0  0  0  0  0  0  0  0  0  0  0  0
  -20.9189  -24.7263   22.2283 C   0  0  0  0  0  0  0  0  0  0  0  0
  -29.9164  -17.4198   22.9711 C   0  0  0  0  0  0  0  0  0  0  0  0
  -29.5807  -22.3688   22.4170 C   0  0  0  0  0  0  0  0  0  0  0  0
  -23.2753  -28.0722   25.0721 C   0  0  1  0  0  0  0  0  0  0  0  0
  -20.8885  -25.1522   24.6893 C   0  0  2  0  0  0  0  0  0  0  0  0
  -23.5774  -28.6735   26.4738 C   0  0  0  0  0  0  0  0  0  0  0  0
  -25.5613  -12.9523   20.3804 N   0  0  0  0  0  0  0  0  0  0  0  0
  -25.2021  -14.2236   20.1341 N   0  0  0  0  0  0  0  0  0  0  0  0
  -23.8840  -29.1574   22.9330 N   0  0  0  0  0  0  0  0  0  0  0  0
  -28.6324  -15.8823   19.8334 N   0  0  0  0  0  0  0  0  0  0  0  0
  -23.3452  -15.6942   20.1268 N   0  0  0  0  0  0  0  0  0  0  0  0
  -21.0796  -12.6526   20.0243 N   0  0  0  0  0  0  0  0  0  0  0  0
  -24.4965  -32.5947   22.1984 N   0  0  0  0  0  0  0  0  0  0  0  0
  -22.1211  -27.1804   25.0407 N   0  0  0  0  0  0  0  0  0  0  0  0
  -29.1954  -16.6146   22.0106 N   0  0  0  0  0  0  0  0  0  0  0  0
  -28.7512  -22.8799   21.2714 N   0  3  2  0  0  0  0  0  0  0  0  0
  -20.7856  -24.1501   23.5911 N   0  3  0  0  0  0  0  0  0  0  0  0
  -21.4958  -13.2107   22.2092 O   0  0  0  0  0  0  0  0  0  0  0  0
  -25.8917  -30.8839   22.9394 O   0  0  0  0  0  0  0  0  0  0  0  0
  -22.0717  -29.9155   24.1889 O   0  0  0  0  0  0  0  0  0  0  0  0
  -23.2581  -25.3210   24.2488 O   0  0  0  0  0  0  0  0  0  0  0  0
  -30.2354  -17.5219   20.1798 O   0  0  0  0  0  0  0  0  0  0  0  0
  -24.2912   -6.9561   22.1082 O   0  0  0  0  0  0  0  0  0  0  0  0
  -28.2524  -26.2264   19.7114 O   0  0  0  0  0  0  0  0  0  1  0  0
  -19.8370   -5.0715   24.7562 F   0  0  0  0  0  0  0  0  0  0  0  0
  -21.7818   -7.1248   20.9606 F   0  0  0  0  0  0  0  0  0  0  0  0
  -26.0445  -19.8783   25.3877 Cl  0  0  0  0  0  0  0  0  0  0  0  0
  1  2  1  0  0  0  0
  1  5  2  0  0  0  0
  2  6  2  0  0  0  0
  3  8  2  0  0  0  0
  3 17  1  0  0  0  0
  4  9  1  0  0  0  0
  4 17  2  0  0  0  0
  5 19  1  0  0  0  0
  6 21  1  0  0  0  0
  7 10  2  0  0  0  0
  7 20  1  0  0  0  0
  8 26  1  0  0  0  0
  9 26  2  0  0  0  0
 10 27  1  0  0  0  0
 11 12  2  0  0  0  0
 11 28  1  0  0  0  0
 12 29  1  0  0  0  0
 13 22  1  0  0  0  0
 13 27  2  0  0  0  0
 14 23  2  0  0  0  0
 14 24  1  0  0  0  0
 15 23  1  0  0  0  0
 15 31  2  0  0  0  0
 16 29  2  0  0  0  0
 16 30  1  0  0  0  0
 17 32  1  0  0  0  0
 18 32  1  0  0  0  0
 18 33  2  0  0  0  0
 18 34  1  0  0  0  0
 19 21  2  0  0  0  0
 19 39  1  0  0  0  0
 20 22  2  0  0  0  0
 20 40  1  0  0  0  0
 21 52  1  0  0  0  0
 22 41  1  0  0  0  0
 23 62  1  0  0  0  0
 24 25  2  0  0  0  0
 24 63  1  0  0  0  0
 25 31  1  0  0  0  0
 25 56  1  0  0  0  0
 26 83  1  0  0  0  0
 27 84  1  0  0  0  0
 28 30  2  0  0  0  0
 28 83  1  0  0  0  0
 29 85  1  0  0  0  0
 30 86  1  0  0  0  0
 31 87  1  0  0  0  0
 32 67  2  0  0  0  0
 33 68  1  0  0  0  0
 33 71  1  0  0  0  0
 34 72  1  0  0  0  0
 34 78  2  0  0  0  0
 35 53  1  0  0  0  0
 35 73  1  0  0  0  0
 35 79  2  0  0  0  0
 36 64  1  0  0  0  0
 36 69  1  0  0  0  0
 36 80  2  0  0  0  0
 37 65  1  0  0  0  0
 37 74  1  0  0  0  0
 37 81  2  0  0  0  0
 38 70  1  0  0  0  0
 38 75  1  0  0  0  0
 38 82  2  0  0  0  0
 39 42  1  0  0  0  0
 40 53  1  0  0  0  0
 41 69  1  0  0  0  0
 42 45  1  0  0  0  0
 43 46  1  0  0  0  0
 43 48  1  0  0  0  0
 44 47  1  0  0  0  0
 44 50  1  0  0  0  0
 45 52  1  0  0  0  0
 46 54  1  0  0  0  0
 47 55  1  0  0  0  0
 48 70  1  0  0  0  0
 49 54  1  0  0  0  0
 49 70  1  0  0  0  0
 50 76  1  0  0  0  0
 51 55  1  0  0  0  0
 51 76  1  0  0  0  0
 52 73  1  0  0  0  0
 53 69  1  0  0  0  0
 54 68  1  0  0  0  0
 55 84  1  0  0  0  0
 57 65  1  0  0  0  0
 58 66  1  0  0  0  0
 59 66  1  0  0  0  0
 60 66  1  0  0  0  0
 61 77  1  0  0  0  0
 62 75  1  0  0  0  0
 63 76  1  0  0  0  0
 64 66  1  0  0  0  0
 64 74  1  0  0  0  0
 65 77  1  0  0  0  0
 67 68  1  0  0  0  0
M  CHG  2  76   1  77   1
M  ISO  4  38 100  55 101  75 100  84 101
M  END
> <Batch ID>
0036

> <Smiles>
CNC(C)C(=O)NC(C(=O)N1Cc2cc([101O:1][101CH:1]3CCCN(Cc4cc(C[100NH:0][100C:0](=O)N5CCCC(n6nc(-c7ccc(Oc8ccc(F)cc8F)cc7)c(C(N)=O)c6N)C5)cc(Cl)c4C)C3)ccc2CC1C(=O)NC1CCCc2ccccc21)C(C)(C)C

> <Shape>
0.266

> <Color>
0.075

> <Negative vol penalty>
0.000

$$$$

  -OEChem-04042321543D

 87 96  0     1  0  0  0  0  0999 V2000
  -16.6365  -29.7932   23.8180 C   0  0  0  0  0  0  0  0  0  0  0  0
  -17.0452  -28.4848   24.0560 C   0  0  0  0  0  0  0  0  0  0  0  0
  -22.6627  -10.2019   20.2047 C   0  0  0  0  0  0  0  0  0  0  0  0
  -24.3138   -9.4578   21.8039 C   0  0  0  0  0  0  0  0  0  0  0  0
  -17.4577  -30.6584   23.0962 C   0  0  0  0  0  0  0  0  0  0  0  0
  -18.2749  -28.0406   23.5713 C   0  0  0  0  0  0  0  0  0  0  0  0
  -23.6369  -23.5793   25.2029 C   0  0  0  0  0  0  0  0  0  0  0  0
  -32.7257  -17.3595   23.4843 C   0  0  0  0  0  0  0  0  0  0  0  0
  -32.0992  -16.5243   22.5593 C   0  0  0  0  0  0  0  0  0  0  0  0
  -21.9308   -9.0336   20.4167 C   0  0  0  0  0  0  0  0  0  0  0  0
  -23.5819   -8.2895   22.0159 C   0  0  0  0  0  0  0  0  0  0  0  0
  -24.3785  -22.5379   24.6468 C   0  0  0  0  0  0  0  0  0  0  0  0
  -20.8332   -7.3534   23.7448 C   0  0  0  0  0  0  0  0  0  0  0  0
  -20.6468   -6.9375   25.0631 C   0  0  0  0  0  0  0  0  0  0  0  0
  -25.7491  -24.1444   23.4807 C   0  0  0  0  0  0  0  0  0  0  0  0
  -21.7767   -4.8603   24.5675 C   0  0  0  0  0  0  0  0  0  0  0  0
  -23.8543  -10.4140   20.8983 C   0  0  0  0  0  0  0  0  0  0  0  0
  -24.1812  -12.9440   20.8917 C   0  0  0  0  0  0  0  0  0  0  0  0
  -18.7024  -30.2274   22.6107 C   0  0  0  0  0  0  0  0  0  0  0  0
  -23.9394  -24.9131   24.8929 C   0  0  0  0  0  0  0  0  0  0  0  0
  -19.1129  -28.9005   22.8412 C   0  0  0  0  0  0  0  0  0  0  0  0
  -25.0114  -25.2010   24.0361 C   0  0  0  0  0  0  0  0  0  0  0  0
  -31.9615  -18.1922   24.3019 C   0  0  0  0  0  0  0  0  0  0  0  0
  -30.5708  -18.1897   24.1943 C   0  0  0  0  0  0  0  0  0  0  0  0
  -29.9443  -17.3546   23.2693 C   0  0  0  0  0  0  0  0  0  0  0  0
  -30.7085  -16.5219   22.4518 C   0  0  0  0  0  0  0  0  0  0  0  0
  -22.3904   -8.0774   21.3223 C   0  0  0  0  0  0  0  0  0  0  0  0
  -25.4329  -22.8202   23.7833 C   0  0  0  0  0  0  0  0  0  0  0  0
  -21.4913   -6.5227   22.8378 C   0  0  0  0  0  0  0  0  0  0  0  0
  -21.1185   -5.6910   25.4745 C   0  0  0  0  0  0  0  0  0  0  0  0
  -21.9630   -5.2762   23.2492 C   0  0  0  0  0  0  0  0  0  0  0  0
  -24.6111  -11.6204   20.6793 C   0  0  0  0  0  0  0  0  0  0  0  0
  -25.2604  -13.7165   20.5381 C   0  0  0  0  0  0  0  0  0  0  0  0
  -27.8669  -20.4959   24.2779 C   0  0  0  0  0  0  0  0  0  0  0  0
  -22.9192  -13.4316   21.3664 C   0  0  0  0  0  0  0  0  0  0  0  0
  -22.3795  -27.2981   23.4851 C   0  0  0  0  0  0  0  0  0  0  0  0
  -24.9871  -29.0107   24.3738 C   0  0  0  0  0  0  0  0  0  0  0  0
  -28.5612  -28.5226   24.4392 C   0  0  0  0  0  0  0  0  0  0  0  0
  -30.7243  -14.7846   20.6276 C   0  0  0  0  0  0  0  0  0  0  0  0
  -19.5345  -31.1849   21.7951 C   0  0  0  0  0  0  0  0  0  0  0  0
  -23.1469  -26.0259   25.5219 C   0  0  0  0  0  0  0  0  0  0  0  0
  -25.3897  -26.6166   23.6873 C   0  0  0  0  0  0  0  0  0  0  0  0
  -20.9884  -30.7469   21.6379 C   0  0  0  0  0  0  0  0  0  0  0  0
  -29.8461  -21.7249   22.4631 C   0  0  0  0  0  0  0  0  0  0  0  0
  -29.5623  -12.4809   18.1740 C   0  0  0  0  0  0  0  0  0  0  0  0
  -21.0634  -29.2713   21.2588 C   0  0  0  0  0  0  0  0  0  0  0  0
  -28.3405  -21.8255   22.2255 C   0  0  0  0  0  0  0  0  0  0  0  0
  -28.1352  -12.1606   18.6245 C   0  0  0  0  0  0  0  0  0  0  0  0
  -30.2013  -21.2158   23.8573 C   0  0  0  0  0  0  0  0  0  0  0  0
  -30.5061  -12.6570   19.3622 C   0  0  0  0  0  0  0  0  0  0  0  0
  -28.6309  -13.3030   20.8236 C   0  0  0  0  0  0  0  0  0  0  0  0
  -20.4508  -28.3888   22.3531 C   0  0  1  0  0  0  0  0  0  0  0  0
  -27.5452  -21.7791   23.5239 C   0  0  1  0  0  0  0  0  0  1  0  0
  -23.2167  -27.3295   24.7324 C   0  0  1  0  0  0  0  0  0  0  0  0
  -27.6297  -13.1809   19.6633 C   0  0  2  0  0  0  0  0  0  0  0  0
  -32.6575  -19.0765   25.2839 C   0  0  0  0  0  0  0  0  0  0  0  0
  -28.4517  -17.3535   23.1557 C   0  0  0  0  0  0  0  0  0  0  0  0
  -30.3203  -29.5406   25.9112 C   0  0  0  0  0  0  0  0  0  0  0  0
  -25.2800  -31.0488   22.1221 C   0  0  0  0  0  0  0  0  0  0  0  0
  -27.7515  -31.0317   22.5222 C   0  0  0  0  0  0  0  0  0  0  0  0
  -26.2030  -31.7887   24.3255 C   0  0  0  0  0  0  0  0  0  0  0  0
  -29.5542  -25.8665   25.2866 C   0  0  0  0  0  0  0  0  0  0  0  0
  -29.7509  -19.0870   25.0757 C   0  0  0  0  0  0  0  0  0  0  0  0
  -26.3212  -29.3311   23.7442 C   0  0  1  0  0  0  0  0  0  0  0  0
  -29.4300  -28.3316   25.6694 C   0  0  2  0  0  0  0  0  0  0  0  0
  -26.3751  -30.7759   23.1725 C   0  0  0  0  0  0  0  0  0  0  0  0
  -25.8655  -11.5522   20.2257 N   0  0  0  0  0  0  0  0  0  0  0  0
  -26.2331  -12.8427   20.1501 N   0  0  0  0  0  0  0  0  0  0  0  0
  -29.2386  -20.2389   24.3529 N   0  0  0  0  0  0  0  0  0  0  0  0
  -24.5807  -27.6698   24.3227 N   0  0  0  0  0  0  0  0  0  0  0  0
  -29.9644  -13.6412   20.3019 N   0  0  0  0  0  0  0  0  0  0  0  0
  -25.4627  -15.0511   20.5242 N   0  0  0  0  0  0  0  0  0  0  0  0
  -21.9203  -12.5013   21.6844 N   0  0  0  0  0  0  0  0  0  0  0  0
  -30.0933  -15.6654   21.5054 N   0  0  0  0  0  0  0  0  0  0  0  0
  -21.3720  -28.2435   23.4598 N   0  0  0  0  0  0  0  0  0  0  0  0
  -27.3297  -29.0528   24.7610 N   0  0  0  0  0  0  0  0  0  0  0  0
  -30.2998  -27.1322   25.5081 N   0  3  0  0  0  0  0  0  0  0  0  0
  -26.9879  -19.7890   24.7676 O   0  0  0  0  0  0  0  0  0  0  0  0
  -22.6787  -14.6566   21.4888 O   0  0  0  0  0  0  0  0  0  0  0  0
  -22.6301  -26.4779   22.6097 O   0  0  0  0  0  0  0  0  0  0  0  0
  -24.3330  -29.9156   24.8982 O   0  0  0  0  0  0  0  0  0  0  0  0
  -28.9388  -28.2340   23.3058 O   0  0  0  0  0  0  0  0  0  0  0  0
  -31.8405  -14.9822   20.1408 O   0  0  0  0  0  0  0  0  0  0  0  0
  -21.6763   -6.9374   21.5296 O   0  0  0  0  0  0  0  0  0  0  0  0
  -26.1580  -21.8055   23.2387 O   0  0  0  0  0  0  0  0  0  1  0  0
  -20.9408   -5.2924   26.7408 F   0  0  0  0  0  0  0  0  0  0  0  0
  -22.5971   -4.4743   22.3828 F   0  0  0  0  0  0  0  0  0  0  0  0
  1  2  1  0  0  0  0
  1  5  2  0  0  0  0
  2  6  2  0  0  0  0
  3 10  2  0  0  0  0
  3 17  1  0  0  0  0
  4 11  1  0  0  0  0
  4 17  2  0  0  0  0
  5 19  1  0  0  0  0
  6 21  1  0  0  0  0
  7 12  2  0  0  0  0
  7 20  1  0  0  0  0
  8  9  1  0  0  0  0
  8 23  2  0  0  0  0
  9 26  2  0  0  0  0
 10 27  1  0  0  0  0
 11 27  2  0  0  0  0
 12 28  1  0  0  0  0
 13 14  2  0  0  0  0
 13 29  1  0  0  0  0
 14 30  1  0  0  0  0
 15 22  1  0  0  0  0
 15 28  2  0  0  0  0
 16 30  2  0  0  0  0
 16 31  1  0  0  0  0
 17 32  1  0  0  0  0
 18 32  1  0  0  0  0
 18 33  2  0  0  0  0
 18 35  1  0  0  0  0
 19 21  2  0  0  0  0
 19 40  1  0  0  0  0
 20 22  2  0  0  0  0
 20 41  1  0  0  0  0
 21 52  1  0  0  0  0
 22 42  1  0  0  0  0
 23 24  1  0  0  0  0
 23 56  1  0  0  0  0
 24 25  2  0  0  0  0
 24 63  1  0  0  0  0
 25 26  1  0  0  0  0
 25 57  1  0  0  0  0
 26 74  1  0  0  0  0
 27 84  1  0  0  0  0
 28 85  1  0  0  0  0
 29 31  2  0  0  0  0
 29 84  1  0  0  0  0
 30 86  1  0  0  0  0
 31 87  1  0  0  0  0
 32 67  2  0  0  0  0
 33 68  1  0  0  0  0
 33 72  1  0  0  0  0
 34 53  1  0  0  0  0
 34 69  1  0  0  0  0
 34 78  2  0  0  0  0
 35 73  1  0  0  0  0
 35 79  2  0  0  0  0
 36 54  1  0  0  0  0
 36 75  1  0  0  0  0
 36 80  2  0  0  0  0
 37 64  1  0  0  0  0
 37 70  1  0  0  0  0
 37 81  2  0  0  0  0
 38 65  1  0  0  0  0
 38 76  1  0  0  0  0
 38 82  2  0  0  0  0
 39 71  1  0  0  0  0
 39 74  1  0  0  0  0
 39 83  2  0  0  0  0
 40 43  1  0  0  0  0
 41 54  1  0  0  0  0
 42 70  1  0  0  0  0
 43 46  1  0  0  0  0
 44 47  1  0  0  0  0
 44 49  1  0  0  0  0
 45 48  1  0  0  0  0
 45 50  1  0  0  0  0
 46 52  1  0  0  0  0
 47 53  1  0  0  0  0
 48 55  1  0  0  0  0
 49 69  1  0  0  0  0
 50 71  1  0  0  0  0
 51 55  1  0  0  0  0
 51 71  1  0  0  0  0
 52 75  1  0  0  0  0
 53 85  1  0  0  0  0
 54 70  1  0  0  0  0
 55 68  1  0  0  0  0
 58 65  1  0  0  0  0
 59 66  1  0  0  0  0
 60 66  1  0  0  0  0
 61 66  1  0  0  0  0
 62 77  1  0  0  0  0
 63 69  1  0  0  0  0
 64 66  1  0  0  0  0
 64 76  1  0  0  0  0
 65 77  1  0  0  0  0
 67 68  1  0  0  0  0
M  CHG  1  77   1
M  ISO  4  39 100  53 101  74 100  85 101
M  END
> <Batch ID>
0036

> <Smiles>
CNC(C)C(=O)NC(C(=O)N1Cc2cc([101O:1][101CH:1]3CCCN(Cc4c(C)ccc([100NH:0][100C:0](=O)N5CCCC(n6nc(-c7ccc(Oc8ccc(F)cc8F)cc7)c(C(N)=O)c6N)C5)c4C)C3=O)ccc2CC1C(=O)NC1CCCc2ccccc21)C(C)(C)C

> <Shape>
0.305

> <Color>
0.225

> <Negative vol penalty>
0.000

$$$$

  -OEChem-04042321543D

 87 96  0     1  0  0  0  0  0999 V2000
  -24.8314  -27.8306   31.3049 C   0  0  0  0  0  0  0  0  0  0  0  0
  -25.0935  -27.1827   30.1020 C   0  0  0  0  0  0  0  0  0  0  0  0
  -26.2208  -13.1806   21.2863 C   0  0  0  0  0  0  0  0  0  0  0  0
  -25.6503  -15.1448   20.0003 C   0  0  0  0  0  0  0  0  0  0  0  0
  -24.0865  -29.0091   31.3126 C   0  0  0  0  0  0  0  0  0  0  0  0
  -24.6099  -27.7124   28.9062 C   0  0  0  0  0  0  0  0  0  0  0  0
  -29.0944  -29.4978   23.5589 C   0  0  0  0  0  0  0  0  0  0  0  0
  -24.8798  -12.7970   21.2952 C   0  0  0  0  0  0  0  0  0  0  0  0
  -24.3093  -14.7611   20.0092 C   0  0  0  0  0  0  0  0  0  0  0  0
  -29.8687  -29.6671   22.4110 C   0  0  0  0  0  0  0  0  0  0  0  0
  -21.6583  -11.1135   21.3482 C   0  0  0  0  0  0  0  0  0  0  0  0
  -21.3644   -9.7767   21.0795 C   0  0  0  0  0  0  0  0  0  0  0  0
  -27.9296  -30.4673   21.2080 C   0  0  0  0  0  0  0  0  0  0  0  0
  -32.6647  -25.1316   20.6445 C   0  0  0  0  0  0  0  0  0  0  0  0
  -30.3872  -25.0487   19.8426 C   0  0  0  0  0  0  0  0  0  0  0  0
  -22.4012   -9.9854   18.9073 C   0  0  0  0  0  0  0  0  0  0  0  0
  -26.6061  -14.3546   20.6388 C   0  0  0  0  0  0  0  0  0  0  0  0
  -29.0786  -14.0312   20.1005 C   0  0  0  0  0  0  0  0  0  0  0  0
  -23.6017  -29.5587   30.1153 C   0  0  0  0  0  0  0  0  0  0  0  0
  -27.7363  -29.8275   23.5401 C   0  0  0  0  0  0  0  0  0  0  0  0
  -23.8566  -28.8987   28.8981 C   0  0  0  0  0  0  0  0  0  0  0  0
  -27.1516  -30.3116   22.3583 C   0  0  0  0  0  0  0  0  0  0  0  0
  -32.5350  -23.8369   21.1470 C   0  0  0  0  0  0  0  0  0  0  0  0
  -30.2574  -23.7539   20.3451 C   0  0  0  0  0  0  0  0  0  0  0  0
  -31.5908  -25.7375   19.9924 C   0  0  0  0  0  0  0  0  0  0  0  0
  -31.3313  -23.1480   20.9972 C   0  0  0  0  0  0  0  0  0  0  0  0
  -23.9240  -13.5872   20.6567 C   0  0  0  0  0  0  0  0  0  0  0  0
  -29.2877  -30.1504   21.2384 C   0  0  0  0  0  0  0  0  0  0  0  0
  -22.3236  -11.8863   20.3964 C   0  0  0  0  0  0  0  0  0  0  0  0
  -21.7359   -9.2126   19.8591 C   0  0  0  0  0  0  0  0  0  0  0  0
  -22.6951  -11.3222   19.1760 C   0  0  0  0  0  0  0  0  0  0  0  0
  -27.9911  -14.7517   20.6297 C   0  0  0  0  0  0  0  0  0  0  0  0
  -30.1693  -14.8310   20.3394 C   0  0  0  0  0  0  0  0  0  0  0  0
  -32.6733  -27.4197   18.5085 C   0  0  0  0  0  0  0  0  0  0  0  0
  -33.2358  -26.5917   17.6066 C   0  0  0  0  0  0  0  0  0  0  0  0
  -29.1008  -12.7532   19.4509 C   0  0  0  0  0  0  0  0  0  0  0  0
  -24.5115  -30.0407   25.4456 C   0  0  0  0  0  0  0  0  0  0  0  0
  -24.6765  -32.5507   23.6897 C   0  0  0  0  0  0  0  0  0  0  0  0
  -25.6917  -35.2671   22.4677 C   0  0  0  0  0  0  0  0  0  0  0  0
  -30.3947  -20.8014   21.0178 C   0  0  0  0  0  0  0  0  0  0  0  0
  -22.7609  -30.8093   30.1787 C   0  0  0  0  0  0  0  0  0  0  0  0
  -26.8505  -29.6033   24.7355 C   0  0  0  0  0  0  0  0  0  0  0  0
  -25.6795  -30.6206   22.3747 C   0  0  0  0  0  0  0  0  0  0  0  0
  -33.0708  -28.8824   18.4616 C   0  0  0  0  0  0  0  0  0  0  0  0
  -22.6031  -31.5061   28.8297 C   0  0  0  0  0  0  0  0  0  0  0  0
  -31.8867  -29.8134   18.6765 C   0  0  0  0  0  0  0  0  0  0  0  0
  -31.0067  -18.1686   23.7414 C   0  0  0  0  0  0  0  0  0  0  0  0
  -22.2539  -30.4936   27.7435 C   0  0  0  0  0  0  0  0  0  0  0  0
  -31.0477  -16.9122   22.8748 C   0  0  0  0  0  0  0  0  0  0  0  0
  -31.3349  -19.4277   22.9490 C   0  0  0  0  0  0  0  0  0  0  0  0
  -29.6792  -18.4431   21.3537 C   0  0  0  0  0  0  0  0  0  0  0  0
  -30.6695  -27.9965   19.9111 C   0  0  0  0  0  0  0  0  0  0  0  0
  -23.3702  -29.4554   27.5777 C   0  0  1  0  0  0  0  0  0  0  0  0
  -25.7505  -30.6702   24.8801 C   0  0  1  0  0  0  0  0  0  0  0  0
  -30.4823  -17.1372   21.4585 C   0  0  2  0  0  0  0  0  0  0  0  0
  -31.1615  -29.4418   19.9610 C   0  0  2  0  0  0  0  0  0  1  0  0
  -33.7031  -23.2148   21.8412 C   0  0  0  0  0  0  0  0  0  0  0  0
  -28.9552  -23.0415   20.1702 C   0  0  0  0  0  0  0  0  0  0  0  0
  -32.9454  -25.1357   17.5292 C   0  0  0  0  0  0  0  0  0  0  0  0
  -26.1003  -37.5611   21.5361 C   0  0  0  0  0  0  0  0  0  0  0  0
  -22.7769  -31.2498   21.6889 C   0  0  0  0  0  0  0  0  0  0  0  0
  -22.6197  -33.4544   20.5126 C   0  0  0  0  0  0  0  0  0  0  0  0
  -21.8402  -33.2437   22.8729 C   0  0  0  0  0  0  0  0  0  0  0  0
  -25.9543  -36.4442   25.1703 C   0  0  0  0  0  0  0  0  0  0  0  0
  -24.3192  -33.2024   22.3779 C   0  0  1  0  0  0  0  0  0  0  0  0
  -25.5827  -36.7599   22.7206 C   0  0  2  0  0  0  0  0  0  0  0  0
  -22.9143  -32.7751   21.8671 C   0  0  0  0  0  0  0  0  0  0  0  0
  -28.3576  -15.9194   21.1647 N   0  0  0  0  0  0  0  0  0  0  0  0
  -29.6876  -15.9387   20.9729 N   0  0  0  0  0  0  0  0  0  0  0  0
  -31.7225  -27.0596   19.4789 N   0  0  0  0  0  0  0  0  0  0  0  0
  -25.3250  -31.3115   23.6244 N   0  0  0  0  0  0  0  0  0  0  0  0
  -30.4885  -19.5981   21.7591 N   0  0  0  0  0  0  0  0  0  0  0  0
  -31.4838  -14.6878   20.0675 N   0  0  0  0  0  0  0  0  0  0  0  0
  -29.2763  -11.6067   20.2377 N   0  0  0  0  0  0  0  0  0  0  0  0
  -31.1993  -21.8329   21.5089 N   0  0  0  0  0  0  0  0  0  0  0  0
  -24.4735  -30.0151   26.8266 N   0  0  0  0  0  0  0  0  0  0  0  0
  -24.4694  -34.6392   22.5817 N   0  0  0  0  0  0  0  0  0  0  0  0
  -26.3723  -37.1400   23.9261 N   0  3  0  0  0  0  0  0  0  0  0  0
  -28.9853  -12.6328   18.2076 O   0  0  0  0  0  0  0  0  0  0  0  0
  -23.6515  -29.6107   24.6858 O   0  0  0  0  0  0  0  0  0  0  0  0
  -24.3847  -33.1199   24.7452 O   0  0  0  0  0  0  0  0  0  0  0  0
  -26.7541  -34.7139   22.1925 O   0  0  0  0  0  0  0  0  0  0  0  0
  -29.6698  -20.8959   20.0251 O   0  0  0  0  0  0  0  0  0  0  0  0
  -22.6154  -13.2131   20.6650 O   0  0  0  0  0  0  0  0  0  0  0  0
  -30.0504  -30.3176   20.1226 O   0  0  0  0  0  0  0  0  0  1  0  0
  -21.4549   -7.9285   19.6018 F   0  0  0  0  0  0  0  0  0  0  0  0
  -23.3356  -12.0593   18.2582 F   0  0  0  0  0  0  0  0  0  0  0  0
  1  2  1  0  0  0  0
  1  5  2  0  0  0  0
  2  6  2  0  0  0  0
  3  8  2  0  0  0  0
  3 17  1  0  0  0  0
  4  9  1  0  0  0  0
  4 17  2  0  0  0  0
  5 19  1  0  0  0  0
  6 21  1  0  0  0  0
  7 10  2  0  0  0  0
  7 20  1  0  0  0  0
  8 27  1  0  0  0  0
  9 27  2  0  0  0  0
 10 28  1  0  0  0  0
 11 12  2  0  0  0  0
 11 29  1  0  0  0  0
 12 30  1  0  0  0  0
 13 22  1  0  0  0  0
 13 28  2  0  0  0  0
 14 23  2  0  0  0  0
 14 25  1  0  0  0  0
 15 24  1  0  0  0  0
 15 25  2  0  0  0  0
 16 30  2  0  0  0  0
 16 31  1  0  0  0  0
 17 32  1  0  0  0  0
 18 32  1  0  0  0  0
 18 33  2  0  0  0  0
 18 36  1  0  0  0  0
 19 21  2  0  0  0  0
 19 41  1  0  0  0  0
 20 22  2  0  0  0  0
 20 42  1  0  0  0  0
 21 53  1  0  0  0  0
 22 43  1  0  0  0  0
 23 26  1  0  0  0  0
 23 57  1  0  0  0  0
 24 26  2  0  0  0  0
 24 58  1  0  0  0  0
 25 70  1  0  0  0  0
 26 75  1  0  0  0  0
 27 84  1  0  0  0  0
 28 85  1  0  0  0  0
 29 31  2  0  0  0  0
 29 84  1  0  0  0  0
 30 86  1  0  0  0  0
 31 87  1  0  0  0  0
 32 68  2  0  0  0  0
 33 69  1  0  0  0  0
 33 73  1  0  0  0  0
 34 35  2  0  0  0  0
 34 44  1  0  0  0  0
 34 70  1  0  0  0  0
 35 59  1  0  0  0  0
 36 74  1  0  0  0  0
 36 79  2  0  0  0  0
 37 54  1  0  0  0  0
 37 76  1  0  0  0  0
 37 80  2  0  0  0  0
 38 65  1  0  0  0  0
 38 71  1  0  0  0  0
 38 81  2  0  0  0  0
 39 66  1  0  0  0  0
 39 77  1  0  0  0  0
 39 82  2  0  0  0  0
 40 72  1  0  0  0  0
 40 75  1  0  0  0  0
 40 83  2  0  0  0  0
 41 45  1  0  0  0  0
 42 54  1  0  0  0  0
 43 71  1  0  0  0  0
 44 46  1  0  0  0  0
 45 48  1  0  0  0  0
 46 56  1  0  0  0  0
 47 49  1  0  0  0  0
 47 50  1  0  0  0  0
 48 53  1  0  0  0  0
 49 55  1  0  0  0  0
 50 72  1  0  0  0  0
 51 55  1  0  0  0  0
 51 72  1  0  0  0  0
 52 56  1  0  0  0  0
 52 70  1  0  0  0  0
 53 76  1  0  0  0  0
 54 71  1  0  0  0  0
 55 69  1  0  0  0  0
 56 85  1  0  0  0  0
 60 66  1  0  0  0  0
 61 67  1  0  0  0  0
 62 67  1  0  0  0  0
 63 67  1  0  0  0  0
 64 78  1  0  0  0  0
 65 67  1  0  0  0  0
 65 77  1  0  0  0  0
 66 78  1  0  0  0  0
 68 69  1  0  0  0  0
M  CHG  1  78   1
M  ISO  4  40 100  56 101  75 100  85 101
M  END
> <Batch ID>
0036

> <Smiles>
CC=C1CC[101CH:1]([101O:1]c2ccc3c(c2)CN(C(=O)C(NC(=O)C(C)NC)C(C)(C)C)C(C(=O)NC2CCCc4ccccc42)C3)CN1c1cc(C)c([100NH:0][100C:0](=O)N2CCCC(n3nc(-c4ccc(Oc5ccc(F)cc5F)cc4)c(C(N)=O)c3N)C2)c(C)c1

> <Shape>
0.270

> <Color>
0.096

> <Negative vol penalty>
0.000

$$$$

  -OEChem-04042321543D

 84 92  0     1  0  0  0  0  0999 V2000
  -36.6626  -33.4839   20.8610 C   0  0  0  0  0  0  0  0  0  0  0  0
  -37.1072  -32.1702   20.7516 C   0  0  0  0  0  0  0  0  0  0  0  0
  -23.0739   -9.8688   19.9426 C   0  0  0  0  0  0  0  0  0  0  0  0
  -23.8314   -9.8788   22.2368 C   0  0  0  0  0  0  0  0  0  0  0  0
  -35.7801  -33.8374   21.8809 C   0  0  0  0  0  0  0  0  0  0  0  0
  -36.6704  -31.2094   21.6629 C   0  0  0  0  0  0  0  0  0  0  0  0
  -35.5849  -25.2889   20.5335 C   0  0  0  0  0  0  0  0  0  0  0  0
  -22.3290   -8.7165   20.1935 C   0  0  0  0  0  0  0  0  0  0  0  0
  -23.0864   -8.7265   22.4877 C   0  0  0  0  0  0  0  0  0  0  0  0
  -36.3473  -24.1398   20.7385 C   0  0  0  0  0  0  0  0  0  0  0  0
  -19.3787   -7.9243   21.6429 C   0  0  0  0  0  0  0  0  0  0  0  0
  -18.0723   -7.8782   21.1564 C   0  0  0  0  0  0  0  0  0  0  0  0
  -35.2056  -23.7628   22.8299 C   0  0  0  0  0  0  0  0  0  0  0  0
  -30.5010  -18.3445   24.0434 C   0  0  0  0  0  0  0  0  0  0  0  0
  -32.0647  -16.5933   22.5365 C   0  0  0  0  0  0  0  0  0  0  0  0
  -18.6320   -5.9327   19.8377 C   0  0  0  0  0  0  0  0  0  0  0  0
  -23.8252  -10.4499   20.9642 C   0  0  0  0  0  0  0  0  0  0  0  0
  -24.1689  -12.9746   20.8406 C   0  0  0  0  0  0  0  0  0  0  0  0
  -35.3247  -32.8783   22.7993 C   0  0  0  0  0  0  0  0  0  0  0  0
  -34.6332  -25.6903   21.4820 C   0  0  0  0  0  0  0  0  0  0  0  0
  -35.7821  -31.5506   22.6969 C   0  0  0  0  0  0  0  0  0  0  0  0
  -34.4307  -24.9160   22.6333 C   0  0  0  0  0  0  0  0  0  0  0  0
  -31.8882  -18.3470   24.1889 C   0  0  0  0  0  0  0  0  0  0  0  0
  -29.8956  -17.4664   23.1445 C   0  0  0  0  0  0  0  0  0  0  0  0
  -32.6701  -17.4714   23.4355 C   0  0  0  0  0  0  0  0  0  0  0  0
  -30.6774  -16.5908   22.3910 C   0  0  0  0  0  0  0  0  0  0  0  0
  -22.3352   -8.1454   21.4661 C   0  0  0  0  0  0  0  0  0  0  0  0
  -36.1597  -23.3781   21.8882 C   0  0  0  0  0  0  0  0  0  0  0  0
  -20.3118   -6.9746   21.2268 C   0  0  0  0  0  0  0  0  0  0  0  0
  -17.6989   -6.8824   20.2538 C   0  0  0  0  0  0  0  0  0  0  0  0
  -19.9384   -5.9788   20.3243 C   0  0  0  0  0  0  0  0  0  0  0  0
  -24.5954  -11.6398   20.7054 C   0  0  0  0  0  0  0  0  0  0  0  0
  -25.2620  -13.7227   20.4774 C   0  0  0  0  0  0  0  0  0  0  0  0
  -22.8984  -13.4920   21.2574 C   0  0  0  0  0  0  0  0  0  0  0  0
  -34.2460  -28.2496   23.3268 C   0  0  0  0  0  0  0  0  0  0  0  0
  -31.4317  -26.8129   24.0604 C   0  0  0  0  0  0  0  0  0  0  0  0
  -29.6152  -23.9305   24.2575 C   0  0  0  0  0  0  0  0  0  0  0  0
  -30.7288  -14.7648   20.6563 C   0  0  0  0  0  0  0  0  0  0  0  0
  -34.4081  -33.3179   23.9134 C   0  0  0  0  0  0  0  0  0  0  0  0
  -33.8002  -26.9177   21.2332 C   0  0  0  0  0  0  0  0  0  0  0  0
  -33.4075  -25.2926   23.6724 C   0  0  0  0  0  0  0  0  0  0  0  0
  -33.7000  -32.1601   24.6122 C   0  0  0  0  0  0  0  0  0  0  0  0
  -29.6152  -12.3481   18.2905 C   0  0  0  0  0  0  0  0  0  0  0  0
  -34.6895  -31.0441   24.9320 C   0  0  0  0  0  0  0  0  0  0  0  0
  -28.1749  -12.0582   18.7190 C   0  0  0  0  0  0  0  0  0  0  0  0
  -30.5292  -12.5781   19.4928 C   0  0  0  0  0  0  0  0  0  0  0  0
  -28.6212  -13.3060   20.8709 C   0  0  0  0  0  0  0  0  0  0  0  0
  -35.3115  -30.4746   23.6512 C   0  0  1  0  0  0  0  0  0  0  0  0
  -33.2198  -27.5151   22.5114 C   0  0  1  0  0  0  0  0  0  0  0  0
  -27.6496  -13.1316   19.6923 C   0  0  2  0  0  0  0  0  0  0  0  0
  -32.5140  -19.2957   25.1578 C   0  0  0  0  0  0  0  0  0  0  0  0
  -28.4075  -17.4855   23.0090 C   0  0  0  0  0  0  0  0  0  0  0  0
  -27.3565  -23.0676   24.9290 C   0  0  0  0  0  0  0  0  0  0  0  0
  -32.2093  -27.0718   26.9995 C   0  0  0  0  0  0  0  0  0  0  0  0
  -30.4352  -25.3916   27.5448 C   0  0  0  0  0  0  0  0  0  0  0  0
  -29.8089  -27.5720   26.5075 C   0  0  0  0  0  0  0  0  0  0  0  0
  -29.0553  -22.9353   21.5271 C   0  0  0  0  0  0  0  0  0  0  0  0
  -34.1638  -17.4559   23.5752 C   0  0  0  0  0  0  0  0  0  0  0  0
  -36.8783  -19.8747   22.3743 C   0  0  0  0  0  0  0  0  0  0  0  0
  -36.2942  -18.6664   23.0907 C   0  0  0  0  0  0  0  0  0  0  0  0
  -36.2990  -21.2041   22.8422 C   0  0  0  0  0  0  0  0  0  1  0  0
  -30.9774  -25.8226   25.1053 C   0  0  1  0  0  0  0  0  0  0  0  0
  -28.2132  -23.5892   23.7859 C   0  0  2  0  0  0  0  0  0  0  0  0
  -30.8784  -26.4582   26.5208 C   0  0  0  0  0  0  0  0  0  0  0  0
  -25.8606  -11.5424   20.2886 N   0  0  0  0  0  0  0  0  0  0  0  0
  -26.2386  -12.8255   20.1587 N   0  0  0  0  0  0  0  0  0  0  0  0
  -32.6222  -26.5047   23.3868 N   0  0  0  0  0  0  0  0  0  0  0  0
  -29.9700  -13.6107   20.3680 N   0  0  0  0  0  0  0  0  0  0  0  0
  -25.4734  -15.0540   20.4025 N   0  0  0  0  0  0  0  0  0  0  0  0
  -21.8855  -12.5840   21.5950 N   0  0  0  0  0  0  0  0  0  0  0  0
  -30.0812  -15.6915   21.4726 N   0  0  0  0  0  0  0  0  0  0  0  0
  -34.3820  -29.5832   22.9911 N   0  0  0  0  0  0  0  0  0  0  0  0
  -29.7249  -25.2577   24.6150 N   0  0  0  0  0  0  0  0  0  0  0  0
  -28.2639  -22.5462   22.7227 N   0  3  0  0  0  0  0  0  0  0  0  0
  -34.8235  -18.6175   22.9173 N   0  3  0  0  0  0  0  0  0  0  0  0
  -22.6629  -14.7228   21.3126 O   0  0  0  0  0  0  0  0  0  0  0  0
  -34.8673  -27.6513   24.1973 O   0  0  0  0  0  0  0  0  0  0  0  0
  -30.7516  -27.8191   23.8446 O   0  0  0  0  0  0  0  0  0  0  0  0
  -30.5214  -23.1018   24.3075 O   0  0  0  0  0  0  0  0  0  0  0  0
  -31.8585  -14.9320   20.1896 O   0  0  0  0  0  0  0  0  0  0  0  0
  -21.6082   -7.0212   21.7114 O   0  0  0  0  0  0  0  0  0  0  0  0
  -36.9030  -22.2564   22.0911 O   0  0  0  0  0  0  0  0  0  1  0  0
  -16.4439   -6.8374   19.7878 F   0  0  0  0  0  0  0  0  0  0  0  0
  -20.8302   -5.0630   19.9218 F   0  0  0  0  0  0  0  0  0  0  0  0
  1  2  1  0  0  0  0
  1  5  2  0  0  0  0
  2  6  2  0  0  0  0
  3  8  2  0  0  0  0
  3 17  1  0  0  0  0
  4  9  1  0  0  0  0
  4 17  2  0  0  0  0
  5 19  1  0  0  0  0
  6 21  1  0  0  0  0
  7 10  2  0  0  0  0
  7 20  1  0  0  0  0
  8 27  1  0  0  0  0
  9 27  2  0  0  0  0
 10 28  1  0  0  0  0
 11 12  2  0  0  0  0
 11 29  1  0  0  0  0
 12 30  1  0  0  0  0
 13 22  1  0  0  0  0
 13 28  2  0  0  0  0
 14 23  1  0  0  0  0
 14 24  2  0  0  0  0
 15 25  1  0  0  0  0
 15 26  2  0  0  0  0
 16 30  2  0  0  0  0
 16 31  1  0  0  0  0
 17 32  1  0  0  0  0
 18 32  1  0  0  0  0
 18 33  2  0  0  0  0
 18 34  1  0  0  0  0
 19 21  2  0  0  0  0
 19 39  1  0  0  0  0
 20 22  2  0  0  0  0
 20 40  1  0  0  0  0
 21 48  1  0  0  0  0
 22 41  1  0  0  0  0
 23 25  2  0  0  0  0
 23 51  1  0  0  0  0
 24 26  1  0  0  0  0
 24 52  1  0  0  0  0
 25 58  1  0  0  0  0
 26 71  1  0  0  0  0
 27 81  1  0  0  0  0
 28 82  1  0  0  0  0
 29 31  2  0  0  0  0
 29 81  1  0  0  0  0
 30 83  1  0  0  0  0
 31 84  1  0  0  0  0
 32 65  2  0  0  0  0
 33 66  1  0  0  0  0
 33 69  1  0  0  0  0
 34 70  1  0  0  0  0
 34 76  2  0  0  0  0
 35 49  1  0  0  0  0
 35 72  1  0  0  0  0
 35 77  2  0  0  0  0
 36 62  1  0  0  0  0
 36 67  1  0  0  0  0
 36 78  2  0  0  0  0
 37 63  1  0  0  0  0
 37 73  1  0  0  0  0
 37 79  2  0  0  0  0
 38 68  1  0  0  0  0
 38 71  1  0  0  0  0
 38 80  2  0  0  0  0
 39 42  1  0  0  0  0
 40 49  1  0  0  0  0
 41 67  1  0  0  0  0
 42 44  1  0  0  0  0
 43 45  1  0  0  0  0
 43 46  1  0  0  0  0
 44 48  1  0  0  0  0
 45 50  1  0  0  0  0
 46 68  1  0  0  0  0
 47 50  1  0  0  0  0
 47 68  1  0  0  0  0
 48 72  1  0  0  0  0
 49 67  1  0  0  0  0
 50 66  1  0  0  0  0
 53 63  1  0  0  0  0
 54 64  1  0  0  0  0
 55 64  1  0  0  0  0
 56 64  1  0  0  0  0
 57 74  1  0  0  0  0
 58 75  1  0  0  0  0
 59 60  1  0  0  0  0
 59 61  1  0  0  0  0
 60 75  1  0  0  0  0
 61 82  1  0  0  0  0
 62 64  1  0  0  0  0
 62 73  1  0  0  0  0
 63 74  1  0  0  0  0
 65 66  1  0  0  0  0
M  CHG  2  74   1  75   1
M  ISO  4  38 100  61 101  71 100  82 101
M  END
> <Batch ID>
0036

> <Smiles>
CNC(C)C(=O)NC(C(=O)N1Cc2cc([101O:1][101CH2:1]CCNCc3cc([100NH:0][100C:0](=O)N4CCCC(n5nc(-c6ccc(Oc7ccc(F)cc7F)cc6)c(C(N)=O)c5N)C4)c(C)cc3C)ccc2CC1C(=O)NC1CCCc2ccccc21)C(C)(C)C

> <Shape>
0.155

> <Color>
0.191

> <Negative vol penalty>
0.000

$$$$

  -OEChem-04042321543D

 87 96  0     1  0  0  0  0  0999 V2000
  -16.5104  -29.7735   22.7849 C   0  0  0  0  0  0  0  0  0  0  0  0
  -17.4718  -30.6848   23.2101 C   0  0  0  0  0  0  0  0  0  0  0  0
  -26.3875  -15.7678   23.0069 C   0  0  0  0  0  0  0  0  0  0  0  0
  -26.0689  -17.0834   21.0057 C   0  0  0  0  0  0  0  0  0  0  0  0
  -16.8690  -28.4498   22.5338 C   0  0  0  0  0  0  0  0  0  0  0  0
  -18.7923  -30.2724   23.3854 C   0  0  0  0  0  0  0  0  0  0  0  0
  -25.5150  -32.6806   22.8179 C   0  0  0  0  0  0  0  0  0  0  0  0
  -26.2414  -14.5981   22.2612 C   0  0  0  0  0  0  0  0  0  0  0  0
  -25.9228  -15.9137   20.2600 C   0  0  0  0  0  0  0  0  0  0  0  0
  -26.6912  -32.7760   23.5603 C   0  0  0  0  0  0  0  0  0  0  0  0
  -28.1315  -12.7167   20.1826 C   0  0  0  0  0  0  0  0  0  0  0  0
  -29.0409  -11.6842   20.4115 C   0  0  0  0  0  0  0  0  0  0  0  0
  -27.2110  -30.4831   23.0200 C   0  0  0  0  0  0  0  0  0  0  0  0
  -27.3906  -27.1909   26.7985 C   0  0  0  0  0  0  0  0  0  0  0  0
  -29.0764  -27.2907   25.0708 C   0  0  0  0  0  0  0  0  0  0  0  0
  -27.2240  -10.2260   21.0517 C   0  0  0  0  0  0  0  0  0  0  0  0
  -26.3012  -17.0105   22.3791 C   0  0  0  0  0  0  0  0  0  0  0  0
  -27.5721  -18.6114   23.9054 C   0  0  0  0  0  0  0  0  0  0  0  0
  -18.1965  -28.0233   22.6969 C   0  0  0  0  0  0  0  0  0  0  0  0
  -25.1720  -31.4805   22.1789 C   0  0  0  0  0  0  0  0  0  0  0  0
  -19.1687  -28.9414   23.1376 C   0  0  0  0  0  0  0  0  0  0  0  0
  -26.0311  -30.3759   22.2680 C   0  0  0  0  0  0  0  0  0  0  0  0
  -28.6086  -27.6797   26.3259 C   0  0  0  0  0  0  0  0  0  0  0  0
  -26.6405  -26.3130   26.0160 C   0  0  0  0  0  0  0  0  0  0  0  0
  -28.3263  -26.4128   24.2882 C   0  0  0  0  0  0  0  0  0  0  0  0
  -27.1083  -25.9240   24.7608 C   0  0  0  0  0  0  0  0  0  0  0  0
  -26.0091  -14.6710   20.8878 C   0  0  0  0  0  0  0  0  0  0  0  0
  -27.5380  -31.6762   23.6639 C   0  0  0  0  0  0  0  0  0  0  0  0
  -26.7683  -12.5039   20.3883 C   0  0  0  0  0  0  0  0  0  0  0  0
  -28.5872  -10.4388   20.8460 C   0  0  0  0  0  0  0  0  0  0  0  0
  -26.3146  -11.2585   20.8228 C   0  0  0  0  0  0  0  0  0  0  0  0
  -26.4515  -18.2192   23.1489 C   0  0  0  0  0  0  0  0  0  0  0  0
  -27.2175  -19.8260   24.4398 C   0  0  0  0  0  0  0  0  0  0  0  0
  -28.8218  -17.9381   24.1070 C   0  0  0  0  0  0  0  0  0  0  0  0
  -22.7601  -29.4235   22.4145 C   0  0  0  0  0  0  0  0  0  0  0  0
  -24.1962  -28.0462   19.8527 C   0  0  0  0  0  0  0  0  0  0  0  0
  -27.5683  -27.2944   18.8129 C   0  0  0  0  0  0  0  0  0  0  0  0
  -24.9592  -24.8916   23.9473 C   0  0  0  0  0  0  0  0  0  0  0  0
  -18.5269  -26.5712   22.4587 C   0  0  0  0  0  0  0  0  0  0  0  0
  -23.9129  -31.4020   21.3597 C   0  0  0  0  0  0  0  0  0  0  0  0
  -25.7185  -29.0709   21.5841 C   0  0  0  0  0  0  0  0  0  0  0  0
  -20.0222  -26.3035   22.3084 C   0  0  0  0  0  0  0  0  0  0  0  0
  -22.7393  -22.1812   24.5817 C   0  0  0  0  0  0  0  0  0  0  0  0
  -20.8055  -27.0190   23.4045 C   0  0  0  0  0  0  0  0  0  0  0  0
  -23.5993  -20.9410   24.3278 C   0  0  0  0  0  0  0  0  0  0  0  0
  -29.7704  -32.8680   26.2527 C   0  0  0  0  0  0  0  0  0  0  0  0
  -31.0308  -32.0107   26.2492 C   0  0  0  0  0  0  0  0  0  0  0  0
  -23.0719  -23.3110   23.6088 C   0  0  0  0  0  0  0  0  0  0  0  0
  -25.3528  -22.4362   23.2900 C   0  0  0  0  0  0  0  0  0  0  0  0
  -28.3765  -30.7882   26.5537 C   0  0  0  0  0  0  0  0  0  0  0  0
  -20.6164  -28.5382   23.3156 C   0  0  1  0  0  0  0  0  0  0  0  0
  -23.4078  -29.9743   21.1757 C   0  0  1  0  0  0  0  0  0  0  0  0
  -25.0991  -21.2940   24.2873 C   0  0  2  0  0  0  0  0  0  0  0  0
  -28.5570  -32.0814   25.7730 C   0  0  2  0  0  0  0  0  0  1  0  0
  -30.8550  -30.7154   27.0506 C   0  0  2  0  0  0  0  0  0  0  0  0
  -25.3398  -25.8060   26.5498 C   0  0  0  0  0  0  0  0  0  0  0  0
  -28.8535  -26.0147   22.9474 C   0  0  0  0  0  0  0  0  0  0  0  0
  -32.1204  -29.8665   26.9435 C   0  0  0  0  0  0  0  0  0  0  0  0
  -28.5496  -27.0418   16.5171 C   0  0  0  0  0  0  0  0  0  0  0  0
  -23.6290  -25.0749   20.2528 C   0  0  0  0  0  0  0  0  0  0  0  0
  -25.7887  -24.5771   19.0882 C   0  0  0  0  0  0  0  0  0  0  0  0
  -23.9617  -25.7620   17.8713 C   0  0  0  0  0  0  0  0  0  0  0  0
  -29.6421  -29.3368   19.3482 C   0  0  0  0  0  0  0  0  0  0  0  0
  -29.4155  -28.6236   27.1678 C   0  0  0  0  0  0  0  0  0  0  0  0
  -25.2573  -26.9895   19.6620 C   0  0  1  0  0  0  0  0  0  0  0  0
  -28.3495  -27.9734   17.7024 C   0  0  2  0  0  0  0  0  0  0  0  0
  -24.6587  -25.6175   19.2417 C   0  0  0  0  0  0  0  0  0  0  0  0
  -25.4593  -19.1121   23.1961 N   0  0  0  0  0  0  0  0  0  0  0  0
  -25.9552  -20.0774   23.9888 N   0  0  0  0  0  0  0  0  0  0  0  0
  -24.4727  -29.0420   20.8001 N   0  0  0  0  0  0  0  0  0  0  0  0
  -24.5088  -23.5933   23.6275 N   0  0  0  0  0  0  0  0  0  0  0  0
  -27.8655  -20.6927   25.2469 N   0  0  0  0  0  0  0  0  0  0  0  0
  -29.8708  -18.1950   23.2138 N   0  0  0  0  0  0  0  0  0  0  0  0
  -26.3465  -25.0324   23.9656 N   0  0  0  0  0  0  0  0  0  0  0  0
  -21.4297  -29.0873   22.2518 N   0  0  0  0  0  0  0  0  0  0  0  0
  -26.2154  -27.5404   18.7097 N   0  0  0  0  0  0  0  0  0  0  0  0
  -29.6489  -29.9586   26.5017 N   0  3  1  0  0  0  0  0  0  0  0  0
  -29.6893  -28.3990   18.1971 N   0  3  0  0  0  0  0  0  0  0  0  0
  -28.9976  -17.1201   25.0416 O   0  0  0  0  0  0  0  0  0  0  0  0
  -23.4189  -29.3105   23.4416 O   0  0  0  0  0  0  0  0  0  0  0  0
  -23.1631  -27.9940   19.1806 O   0  0  0  0  0  0  0  0  0  0  0  0
  -28.1041  -26.6110   19.6825 O   0  0  0  0  0  0  0  0  0  0  0  0
  -24.1728  -25.8040   24.2138 O   0  0  0  0  0  0  0  0  0  0  0  0
  -25.8667  -13.5298   20.1598 O   0  0  0  0  0  0  0  0  0  0  0  0
  -28.6863  -31.7664   24.3885 O   0  0  0  0  0  0  0  0  0  1  0  0
  -29.4604   -9.4469   21.0644 F   0  0  0  0  0  0  0  0  0  0  0  0
  -25.0062  -11.0478   21.0210 F   0  0  0  0  0  0  0  0  0  0  0  0
  1  2  1  0  0  0  0
  1  5  2  0  0  0  0
  2  6  2  0  0  0  0
  3  8  2  0  0  0  0
  3 17  1  0  0  0  0
  4  9  1  0  0  0  0
  4 17  2  0  0  0  0
  5 19  1  0  0  0  0
  6 21  1  0  0  0  0
  7 10  2  0  0  0  0
  7 20  1  0  0  0  0
  8 27  1  0  0  0  0
  9 27  2  0  0  0  0
 10 28  1  0  0  0  0
 11 12  2  0  0  0  0
 11 29  1  0  0  0  0
 12 30  1  0  0  0  0
 13 22  1  0  0  0  0
 13 28  2  0  0  0  0
 14 23  1  0  0  0  0
 14 24  2  0  0  0  0
 15 23  2  0  0  0  0
 15 25  1  0  0  0  0
 16 30  2  0  0  0  0
 16 31  1  0  0  0  0
 17 32  1  0  0  0  0
 18 32  1  0  0  0  0
 18 33  2  0  0  0  0
 18 34  1  0  0  0  0
 19 21  2  0  0  0  0
 19 39  1  0  0  0  0
 20 22  2  0  0  0  0
 20 40  1  0  0  0  0
 21 51  1  0  0  0  0
 22 41  1  0  0  0  0
 23 64  1  0  0  0  0
 24 26  1  0  0  0  0
 24 56  1  0  0  0  0
 25 26  2  0  0  0  0
 25 57  1  0  0  0  0
 26 74  1  0  0  0  0
 27 84  1  0  0  0  0
 28 85  1  0  0  0  0
 29 31  2  0  0  0  0
 29 84  1  0  0  0  0
 30 86  1  0  0  0  0
 31 87  1  0  0  0  0
 32 68  2  0  0  0  0
 33 69  1  0  0  0  0
 33 72  1  0  0  0  0
 34 73  1  0  0  0  0
 34 79  2  0  0  0  0
 35 52  1  0  0  0  0
 35 75  1  0  0  0  0
 35 80  2  0  0  0  0
 36 65  1  0  0  0  0
 36 70  1  0  0  0  0
 36 81  2  0  0  0  0
 37 66  1  0  0  0  0
 37 76  1  0  0  0  0
 37 82  2  0  0  0  0
 38 71  1  0  0  0  0
 38 74  1  0  0  0  0
 38 83  2  0  0  0  0
 39 42  1  0  0  0  0
 40 52  1  0  0  0  0
 41 70  1  0  0  0  0
 42 44  1  0  0  0  0
 43 45  1  0  0  0  0
 43 48  1  0  0  0  0
 44 51  1  0  0  0  0
 45 53  1  0  0  0  0
 46 47  1  0  0  0  0
 46 54  1  0  0  0  0
 47 55  1  0  0  0  0
 48 71  1  0  0  0  0
 49 53  1  0  0  0  0
 49 71  1  0  0  0  0
 50 54  1  0  0  0  0
 50 77  1  0  0  0  0
 51 75  1  0  0  0  0
 52 70  1  0  0  0  0
 53 69  1  0  0  0  0
 54 85  1  0  0  0  0
 55 58  1  0  0  0  0
 55 77  1  0  0  0  0
 59 66  1  0  0  0  0
 60 67  1  0  0  0  0
 61 67  1  0  0  0  0
 62 67  1  0  0  0  0
 63 78  1  0  0  0  0
 64 77  1  0  0  0  0
 65 67  1  0  0  0  0
 65 76  1  0  0  0  0
 66 78  1  0  0  0  0
 68 69  1  0  0  0  0
M  CHG  2  77   1  78   1
M  ISO  4  38 100  54 101  74 100  85 101
M  END
> <Batch ID>
0036

> <Smiles>
CNC(C)C(=O)NC(C(=O)N1Cc2cc([101O:1][101CH:1]3CCC(C)N(Cc4cc(C)c([100NH:0][100C:0](=O)N5CCCC(n6nc(-c7ccc(Oc8ccc(F)cc8F)cc7)c(C(N)=O)c6N)C5)c(C)c4)C3)ccc2CC1C(=O)NC1CCCc2ccccc21)C(C)(C)C

> <Shape>
0.225

> <Color>
0.095

> <Negative vol penalty>
0.000

$$$$

  -OEChem-04042321543D

 91100  0     1  0  0  0  0  0999 V2000
  -27.5388  -25.6890   13.0917 C   0  0  0  0  0  0  0  0  0  0  0  0
  -26.4914  -25.7090   14.0071 C   0  0  0  0  0  0  0  0  0  0  0  0
  -25.0911  -14.8616   19.2723 C   0  0  0  0  0  0  0  0  0  0  0  0
  -27.4640  -14.8226   19.7250 C   0  0  0  0  0  0  0  0  0  0  0  0
  -28.8579  -25.6961   13.5433 C   0  0  0  0  0  0  0  0  0  0  0  0
  -26.7624  -25.7351   15.3746 C   0  0  0  0  0  0  0  0  0  0  0  0
  -23.8868  -29.0803   17.8617 C   0  0  0  0  0  0  0  0  0  0  0  0
  -23.5486  -25.2351   23.3997 C   0  0  0  0  0  0  0  0  0  0  0  0
  -24.5756  -24.4480   22.8789 C   0  0  0  0  0  0  0  0  0  0  0  0
  -24.9726  -13.5687   19.7821 C   0  0  0  0  0  0  0  0  0  0  0  0
  -27.3455  -13.5297   20.2349 C   0  0  0  0  0  0  0  0  0  0  0  0
  -22.5714  -28.7090   18.1367 C   0  0  0  0  0  0  0  0  0  0  0  0
  -24.8247  -12.0931   22.8208 C   0  0  0  0  0  0  0  0  0  0  0  0
  -23.7666  -11.8343   23.6920 C   0  0  0  0  0  0  0  0  0  0  0  0
  -23.2103  -28.1392   20.3921 C   0  0  0  0  0  0  0  0  0  0  0  0
  -22.9832  -22.7010   22.3791 C   0  0  0  0  0  0  0  0  0  0  0  0
  -22.9248  -10.1564   22.1710 C   0  0  0  0  0  0  0  0  0  0  0  0
  -26.3369  -15.4886   19.2437 C   0  0  0  0  0  0  0  0  0  0  0  0
  -26.1449  -17.2563   17.4146 C   0  0  0  0  0  0  0  0  0  0  0  0
  -29.1452  -25.7320   14.9169 C   0  0  0  0  0  0  0  0  0  0  0  0
  -24.8777  -28.9734   18.8481 C   0  0  0  0  0  0  0  0  0  0  0  0
  -28.0865  -25.7413   15.8451 C   0  0  0  0  0  0  0  0  0  0  0  0
  -24.5370  -28.5123   20.1277 C   0  0  0  0  0  0  0  0  0  0  0  0
  -22.2389  -24.7551   23.4103 C   0  0  0  0  0  0  0  0  0  0  0  0
  -21.9562  -23.4881   22.9000 C   0  0  0  0  0  0  0  0  0  0  0  0
  -24.2929  -23.1810   22.3685 C   0  0  0  0  0  0  0  0  0  0  0  0
  -26.0997  -12.9027   20.2634 C   0  0  0  0  0  0  0  0  0  0  0  0
  -22.2336  -28.2356   19.4012 C   0  0  0  0  0  0  0  0  0  0  0  0
  -24.9329  -11.3836   21.6247 C   0  0  0  0  0  0  0  0  0  0  0  0
  -22.8167  -10.8659   23.3671 C   0  0  0  0  0  0  0  0  0  0  0  0
  -23.9829  -10.4153   21.2998 C   0  0  0  0  0  0  0  0  0  0  0  0
  -26.4601  -16.8239   18.7167 C   0  0  0  0  0  0  0  0  0  0  0  0
  -26.4361  -18.5986   17.4187 C   0  0  0  0  0  0  0  0  0  0  0  0
  -19.9795  -27.7308   23.8848 C   0  0  0  0  0  0  0  0  0  0  0  0
  -20.3572  -28.4848   24.9318 C   0  0  0  0  0  0  0  0  0  0  0  0
  -25.6346  -16.5113   16.3009 C   0  0  0  0  0  0  0  0  0  0  0  0
  -27.5784  -27.3237   19.1452 C   0  0  0  0  0  0  0  0  0  0  0  0
  -27.9051  -29.0926   21.8445 C   0  0  0  0  0  0  0  0  0  0  0  0
  -26.4106  -30.9154   24.3125 C   0  0  0  0  0  0  0  0  0  0  0  0
  -26.6886  -22.7078   21.7495 C   0  0  0  0  0  0  0  0  0  0  0  0
  -30.5868  -25.6907   15.3583 C   0  0  0  0  0  0  0  0  0  0  0  0
  -26.2865  -29.4033   18.5435 C   0  0  0  0  0  0  0  0  0  0  0  0
  -25.5595  -28.3977   21.2277 C   0  0  0  0  0  0  0  0  0  0  0  0
  -18.5563  -27.7213   23.3978 C   0  0  0  0  0  0  0  0  0  0  0  0
  -30.7895  -26.0973   16.8157 C   0  0  0  0  0  0  0  0  0  0  0  0
  -18.3443  -28.7289   22.2695 C   0  0  0  0  0  0  0  0  0  0  0  0
  -29.3118  -21.8003   19.5196 C   0  0  0  0  0  0  0  0  0  0  0  0
  -29.7727  -25.3971   17.7116 C   0  0  0  0  0  0  0  0  0  0  0  0
  -28.8467  -20.4635   18.9376 C   0  0  0  0  0  0  0  0  0  0  0  0
  -19.0038  -28.3478   20.9471 C   0  0  0  0  0  0  0  0  0  0  0  0
  -28.9279  -21.9423   20.9914 C   0  0  0  0  0  0  0  0  0  0  0  0
  -27.0413  -20.3842   20.7044 C   0  0  0  0  0  0  0  0  0  0  0  0
  -20.7935  -26.7285   21.7708 C   0  0  0  0  0  0  0  0  0  0  0  0
  -28.3402  -25.7948   17.3360 C   0  0  1  0  0  0  0  0  0  0  0  0
  -27.3187  -28.7676   19.4697 C   0  0  1  0  0  0  0  0  0  0  0  0
  -27.3483  -20.2225   19.2066 C   0  0  2  0  0  0  0  0  0  0  0  0
  -20.4995  -28.0298   21.0224 C   0  0  1  0  0  0  0  0  0  1  0  0
  -21.7484  -28.5345   25.4573 C   0  0  0  0  0  0  0  0  0  0  0  0
  -26.9337  -32.2053   26.4005 C   0  0  0  0  0  0  0  0  0  0  0  0
  -28.2798  -26.4741   23.3654 C   0  0  0  0  0  0  0  0  0  0  0  0
  -27.8458  -27.7265   25.4894 C   0  0  0  0  0  0  0  0  0  0  0  0
  -29.8117  -28.3199   24.0730 C   0  0  0  0  0  0  0  0  0  0  0  0
  -25.3428  -33.4268   23.1675 C   0  0  0  0  0  0  0  0  0  0  0  0
  -21.1512  -25.6197   23.9765 C   0  0  0  0  0  0  0  0  0  0  0  0
  -27.4878  -28.9302   23.2862 C   0  0  1  0  0  0  0  0  0  0  0  0
  -26.7352  -32.2793   24.8946 C   0  0  2  0  0  0  0  0  0  0  0  0
  -20.5613  -22.9544   22.8990 C   0  0  0  0  0  0  0  0  0  0  0  0
  -28.3372  -27.8629   24.0324 C   0  0  0  0  0  0  0  0  0  0  0  0
  -26.9166  -17.8114   19.4916 N   0  0  0  0  0  0  0  0  0  0  0  0
  -26.8906  -18.8776   18.6740 N   0  0  0  0  0  0  0  0  0  0  0  0
  -26.9247  -28.8244   20.8788 N   0  0  0  0  0  0  0  0  0  0  0  0
  -27.4937  -21.7048   21.1693 N   0  0  0  0  0  0  0  0  0  0  0  0
  -26.3453  -19.5556   16.4709 N   0  0  0  0  0  0  0  0  0  0  0  0
  -26.5481  -15.9154   15.4207 N   0  0  0  0  0  0  0  0  0  0  0  0
  -25.3356  -22.3818   21.8375 N   0  0  0  0  0  0  0  0  0  0  0  0
  -28.0276  -27.1086   17.8562 N   0  0  0  0  0  0  0  0  0  0  0  0
  -27.5450  -30.2615   23.8802 N   0  0  0  0  0  0  0  0  0  0  0  0
  -21.0039  -26.9353   23.2517 N   0  3  2  0  0  0  0  0  0  0  0  0
  -25.6305  -33.2390   24.6128 N   0  3  0  0  0  0  0  0  0  0  0  0
  -24.4050  -16.3918   16.0833 O   0  0  0  0  0  0  0  0  0  0  0  0
  -27.3869  -26.4681   20.0014 O   0  0  0  0  0  0  0  0  0  0  0  0
  -29.0564  -29.4513   21.5850 O   0  0  0  0  0  0  0  0  0  0  0  0
  -25.2658  -30.4726   24.2511 O   0  0  0  0  0  0  0  0  0  0  0  0
  -27.1599  -23.7878   22.1147 O   0  0  0  0  0  0  0  0  0  0  0  0
  -25.9844  -11.6412   20.7612 O   0  0  0  0  0  0  0  0  0  0  0  0
  -20.9506  -27.8719   19.6722 O   0  0  0  0  0  0  0  0  0  1  0  0
  -21.8014  -10.6164   24.2045 F   0  0  0  0  0  0  0  0  0  0  0  0
  -24.0822   -9.7296   20.1527 F   0  0  0  0  0  0  0  0  0  0  0  0
  -20.4566  -21.7030   22.3635 F   0  0  0  0  0  0  0  0  0  0  0  0
  -20.0146  -22.8569   24.1460 F   0  0  0  0  0  0  0  0  0  0  0  0
  -19.7033  -23.7347   22.1810 F   0  0  0  0  0  0  0  0  0  0  0  0
  1  2  1  0  0  0  0
  1  5  2  0  0  0  0
  2  6  2  0  0  0  0
  3 10  2  0  0  0  0
  3 18  1  0  0  0  0
  4 11  1  0  0  0  0
  4 18  2  0  0  0  0
  5 20  1  0  0  0  0
  6 22  1  0  0  0  0
  7 12  2  0  0  0  0
  7 21  1  0  0  0  0
  8  9  2  0  0  0  0
  8 24  1  0  0  0  0
  9 26  1  0  0  0  0
 10 27  1  0  0  0  0
 11 27  2  0  0  0  0
 12 28  1  0  0  0  0
 13 14  2  0  0  0  0
 13 29  1  0  0  0  0
 14 30  1  0  0  0  0
 15 23  1  0  0  0  0
 15 28  2  0  0  0  0
 16 25  1  0  0  0  0
 16 26  2  0  0  0  0
 17 30  2  0  0  0  0
 17 31  1  0  0  0  0
 18 32  1  0  0  0  0
 19 32  1  0  0  0  0
 19 33  2  0  0  0  0
 19 36  1  0  0  0  0
 20 22  2  0  0  0  0
 20 41  1  0  0  0  0
 21 23  2  0  0  0  0
 21 42  1  0  0  0  0
 22 54  1  0  0  0  0
 23 43  1  0  0  0  0
 24 25  2  0  0  0  0
 24 64  1  0  0  0  0
 25 67  1  0  0  0  0
 26 75  1  0  0  0  0
 27 85  1  0  0  0  0
 28 86  1  0  0  0  0
 29 31  2  0  0  0  0
 29 85  1  0  0  0  0
 30 87  1  0  0  0  0
 31 88  1  0  0  0  0
 32 69  2  0  0  0  0
 33 70  1  0  0  0  0
 33 73  1  0  0  0  0
 34 35  2  0  0  0  0
 34 44  1  0  0  0  0
 34 78  1  0  0  0  0
 35 58  1  0  0  0  0
 36 74  1  0  0  0  0
 36 80  2  0  0  0  0
 37 55  1  0  0  0  0
 37 76  1  0  0  0  0
 37 81  2  0  0  0  0
 38 65  1  0  0  0  0
 38 71  1  0  0  0  0
 38 82  2  0  0  0  0
 39 66  1  0  0  0  0
 39 77  1  0  0  0  0
 39 83  2  0  0  0  0
 40 72  1  0  0  0  0
 40 75  1  0  0  0  0
 40 84  2  0  0  0  0
 41 45  1  0  0  0  0
 42 55  1  0  0  0  0
 43 71  1  0  0  0  0
 44 46  1  0  0  0  0
 45 48  1  0  0  0  0
 46 50  1  0  0  0  0
 47 49  1  0  0  0  0
 47 51  1  0  0  0  0
 48 54  1  0  0  0  0
 49 56  1  0  0  0  0
 50 57  1  0  0  0  0
 51 72  1  0  0  0  0
 52 56  1  0  0  0  0
 52 72  1  0  0  0  0
 53 57  1  0  0  0  0
 53 78  1  0  0  0  0
 54 76  1  0  0  0  0
 55 71  1  0  0  0  0
 56 70  1  0  0  0  0
 57 86  1  0  0  0  0
 59 66  1  0  0  0  0
 60 68  1  0  0  0  0
 61 68  1  0  0  0  0
 62 68  1  0  0  0  0
 63 79  1  0  0  0  0
 64 78  1  0  0  0  0
 65 68  1  0  0  0  0
 65 77  1  0  0  0  0
 66 79  1  0  0  0  0
 67 89  1  0  0  0  0
 67 90  1  0  0  0  0
 67 91  1  0  0  0  0
 69 70  1  0  0  0  0
M  CHG  2  78   1  79   1
M  ISO  4  40 100  57 101  75 100  86 101
M  END
> <Batch ID>
0036

> <Smiles>
CC=C1CCC[101CH:1]([101O:1]c2ccc3c(c2)CN(C(=O)C(NC(=O)C(C)NC)C(C)(C)C)C(C(=O)NC2CCCc4ccccc42)C3)CN1Cc1ccc([100NH:0][100C:0](=O)N2CCCC(n3nc(-c4ccc(Oc5ccc(F)cc5F)cc4)c(C(N)=O)c3N)C2)cc1C(F)(F)F

> <Shape>
0.228

> <Color>
0.062

> <Negative vol penalty>
0.000

$$$$

  -OEChem-04042321543D

 87 96  0     1  0  0  0  0  0999 V2000
  -16.6818  -29.7923   23.9907 C   0  0  0  0  0  0  0  0  0  0  0  0
  -17.7910  -30.4947   24.4508 C   0  0  0  0  0  0  0  0  0  0  0  0
  -28.8978  -17.1070   20.8734 C   0  0  0  0  0  0  0  0  0  0  0  0
  -26.7514  -17.5438   19.8541 C   0  0  0  0  0  0  0  0  0  0  0  0
  -16.8561  -28.6292   23.2418 C   0  0  0  0  0  0  0  0  0  0  0  0
  -19.0753  -30.0337   24.1634 C   0  0  0  0  0  0  0  0  0  0  0  0
  -25.6988  -32.4216   22.8430 C   0  0  0  0  0  0  0  0  0  0  0  0
  -29.0690  -16.0021   20.0395 C   0  0  0  0  0  0  0  0  0  0  0  0
  -26.9226  -16.4389   19.0201 C   0  0  0  0  0  0  0  0  0  0  0  0
  -27.0128  -32.2467   23.2748 C   0  0  0  0  0  0  0  0  0  0  0  0
  -27.9865  -12.8036   19.8895 C   0  0  0  0  0  0  0  0  0  0  0  0
  -28.4547  -11.6233   20.4667 C   0  0  0  0  0  0  0  0  0  0  0  0
  -27.1930  -30.2689   21.9054 C   0  0  0  0  0  0  0  0  0  0  0  0
  -31.0426  -27.1319   20.6161 C   0  0  0  0  0  0  0  0  0  0  0  0
  -32.3119  -25.1014   20.9369 C   0  0  0  0  0  0  0  0  0  0  0  0
  -30.3780  -11.6716   19.0053 C   0  0  0  0  0  0  0  0  0  0  0  0
  -27.7389  -17.8778   20.7808 C   0  0  0  0  0  0  0  0  0  0  0  0
  -27.5249  -19.0241   23.0496 C   0  0  0  0  0  0  0  0  0  0  0  0
  -18.1432  -28.1590   22.9368 C   0  0  0  0  0  0  0  0  0  0  0  0
  -25.1174  -31.5139   21.9460 C   0  0  0  0  0  0  0  0  0  0  0  0
  -19.2669  -28.8624   23.4109 C   0  0  0  0  0  0  0  0  0  0  0  0
  -25.8723  -30.4361   21.4618 C   0  0  0  0  0  0  0  0  0  0  0  0
  -32.2241  -27.8731   20.6321 C   0  0  0  0  0  0  0  0  0  0  0  0
  -33.4496  -27.2284   20.8005 C   0  0  0  0  0  0  0  0  0  0  0  0
  -31.0864  -25.7461   20.7686 C   0  0  0  0  0  0  0  0  0  0  0  0
  -28.0814  -15.6681   19.1128 C   0  0  0  0  0  0  0  0  0  0  0  0
  -27.7592  -31.1686   22.8082 C   0  0  0  0  0  0  0  0  0  0  0  0
  -28.7140  -13.4179   18.8702 C   0  0  0  0  0  0  0  0  0  0  0  0
  -29.6505  -11.0573   20.0247 C   0  0  0  0  0  0  0  0  0  0  0  0
  -29.9097  -12.8519   18.4281 C   0  0  0  0  0  0  0  0  0  0  0  0
  -33.4935  -25.8425   20.9529 C   0  0  0  0  0  0  0  0  0  0  0  0
  -27.5613  -19.0190   21.6424 C   0  0  0  0  0  0  0  0  0  0  0  0
  -27.3364  -20.3431   23.3834 C   0  0  0  0  0  0  0  0  0  0  0  0
  -32.7787  -31.4676   21.4899 C   0  0  0  0  0  0  0  0  0  0  0  0
  -34.0739  -31.7733   21.6602 C   0  0  0  0  0  0  0  0  0  0  0  0
  -27.6502  -17.9342   23.9727 C   0  0  0  0  0  0  0  0  0  0  0  0
  -22.6408  -29.5245   22.0576 C   0  0  0  0  0  0  0  0  0  0  0  0
  -23.3505  -29.0855   18.9230 C   0  0  0  0  0  0  0  0  0  0  0  0
  -26.3310  -28.6973   16.9271 C   0  0  0  0  0  0  0  0  0  0  0  0
  -28.5875  -25.4782   20.5958 C   0  0  0  0  0  0  0  0  0  0  0  0
  -18.2813  -26.8711   22.1643 C   0  0  0  0  0  0  0  0  0  0  0  0
  -23.7076  -31.7317   21.4693 C   0  0  0  0  0  0  0  0  0  0  0  0
  -25.3013  -29.4447   20.4822 C   0  0  0  0  0  0  0  0  0  0  0  0
  -31.7447  -32.4792   21.0762 C   0  0  0  0  0  0  0  0  0  0  0  0
  -19.6770  -26.6550   21.5851 C   0  0  0  0  0  0  0  0  0  0  0  0
  -30.5511  -32.4349   22.0226 C   0  0  0  0  0  0  0  0  0  0  0  0
  -25.3882  -24.3868   21.7141 C   0  0  0  0  0  0  0  0  0  0  0  0
  -20.7426  -26.9470   22.6368 C   0  0  0  0  0  0  0  0  0  0  0  0
  -25.5807  -22.8880   21.9565 C   0  0  0  0  0  0  0  0  0  0  0  0
  -26.1797  -24.8713   20.5006 C   0  0  0  0  0  0  0  0  0  0  0  0
  -27.8012  -23.0347   20.7585 C   0  0  0  0  0  0  0  0  0  0  0  0
  -31.1888  -30.0882   22.6946 C   0  0  0  0  0  0  0  0  0  0  0  0
  -20.6761  -28.4078   23.0986 C   0  0  1  0  0  0  0  0  0  0  0  0
  -23.0481  -30.4570   20.9521 C   0  0  1  0  0  0  0  0  0  0  0  0
  -27.0748  -22.5130   22.0091 C   0  0  2  0  0  0  0  0  0  0  0  0
  -30.0583  -31.0028   22.2298 C   0  0  1  0  0  0  0  0  0  1  0  0
  -34.7084  -28.0387   20.8166 C   0  0  0  0  0  0  0  0  0  0  0  0
  -26.7584  -29.2303   14.5125 C   0  0  0  0  0  0  0  0  0  0  0  0
  -22.6199  -26.1614   18.4483 C   0  0  0  0  0  0  0  0  0  0  0  0
  -24.4180  -26.0669   16.7087 C   0  0  0  0  0  0  0  0  0  0  0  0
  -22.4829  -27.6139   16.4170 C   0  0  0  0  0  0  0  0  0  0  0  0
  -28.6469  -30.4144   17.5959 C   0  0  0  0  0  0  0  0  0  0  0  0
  -32.1480  -29.3623   20.4670 C   0  0  0  0  0  0  0  0  0  0  0  0
  -24.2446  -28.1458   18.1507 C   0  0  1  0  0  0  0  0  0  0  0  0
  -26.9077  -29.7053   15.9494 C   0  0  2  0  0  0  0  0  0  0  0  0
  -23.4474  -27.0047   17.4579 C   0  0  0  0  0  0  0  0  0  0  0  0
  -27.4081  -20.2379   21.1181 N   0  0  0  0  0  0  0  0  0  0  0  0
  -27.2735  -21.0213   22.2018 N   0  0  0  0  0  0  0  0  0  0  0  0
  -23.9165  -29.6970   20.0507 N   0  0  0  0  0  0  0  0  0  0  0  0
  -27.5868  -24.4839   20.6220 N   0  0  0  0  0  0  0  0  0  0  0  0
  -27.2200  -20.9772   24.5694 N   0  0  0  0  0  0  0  0  0  0  0  0
  -26.4883  -17.2597   24.3718 N   0  0  0  0  0  0  0  0  0  0  0  0
  -29.8858  -24.9939   20.7526 N   0  0  0  0  0  0  0  0  0  0  0  0
  -21.2824  -29.2774   22.1134 N   0  0  0  0  0  0  0  0  0  0  0  0
  -25.0162  -28.9777   17.2337 N   0  0  0  0  0  0  0  0  0  0  0  0
  -32.3681  -30.1097   21.7531 N   0  3  1  0  0  0  0  0  0  0  0  0
  -28.3560  -29.9234   16.2243 N   0  3  0  0  0  0  0  0  0  0  0  0
  -28.7580  -17.5797   24.4426 O   0  0  0  0  0  0  0  0  0  0  0  0
  -23.4959  -29.0622   22.8038 O   0  0  0  0  0  0  0  0  0  0  0  0
  -22.1949  -29.2757   18.5358 O   0  0  0  0  0  0  0  0  0  0  0  0
  -26.9807  -27.7534   17.3714 O   0  0  0  0  0  0  0  0  0  0  0  0
  -28.3109  -26.6742   20.4728 O   0  0  0  0  0  0  0  0  0  0  0  0
  -28.2482  -14.5901   18.2987 O   0  0  0  0  0  0  0  0  0  0  0  0
  -29.0418  -30.9950   23.2285 O   0  0  0  0  0  0  0  0  0  1  0  0
  -30.1008   -9.9246   20.5801 F   0  0  0  0  0  0  0  0  0  0  0  0
  -30.6136  -13.4381   17.4499 F   0  0  0  0  0  0  0  0  0  0  0  0
  -34.9899  -25.0066   21.1612 Cl  0  0  0  0  0  0  0  0  0  0  0  0
  1  2  1  0  0  0  0
  1  5  2  0  0  0  0
  2  6  2  0  0  0  0
  3  8  2  0  0  0  0
  3 17  1  0  0  0  0
  4  9  1  0  0  0  0
  4 17  2  0  0  0  0
  5 19  1  0  0  0  0
  6 21  1  0  0  0  0
  7 10  2  0  0  0  0
  7 20  1  0  0  0  0
  8 26  1  0  0  0  0
  9 26  2  0  0  0  0
 10 27  1  0  0  0  0
 11 12  2  0  0  0  0
 11 28  1  0  0  0  0
 12 29  1  0  0  0  0
 13 22  1  0  0  0  0
 13 27  2  0  0  0  0
 14 23  1  0  0  0  0
 14 25  2  0  0  0  0
 15 25  1  0  0  0  0
 15 31  2  0  0  0  0
 16 29  2  0  0  0  0
 16 30  1  0  0  0  0
 17 32  1  0  0  0  0
 18 32  1  0  0  0  0
 18 33  2  0  0  0  0
 18 36  1  0  0  0  0
 19 21  2  0  0  0  0
 19 41  1  0  0  0  0
 20 22  2  0  0  0  0
 20 42  1  0  0  0  0
 21 53  1  0  0  0  0
 22 43  1  0  0  0  0
 23 24  2  0  0  0  0
 23 63  1  0  0  0  0
 24 31  1  0  0  0  0
 24 57  1  0  0  0  0
 25 73  1  0  0  0  0
 26 83  1  0  0  0  0
 27 84  1  0  0  0  0
 28 30  2  0  0  0  0
 28 83  1  0  0  0  0
 29 85  1  0  0  0  0
 30 86  1  0  0  0  0
 31 87  1  0  0  0  0
 32 67  2  0  0  0  0
 33 68  1  0  0  0  0
 33 71  1  0  0  0  0
 34 35  2  0  0  0  0
 34 44  1  0  0  0  0
 34 76  1  0  0  0  0
 36 72  1  0  0  0  0
 36 78  2  0  0  0  0
 37 54  1  0  0  0  0
 37 74  1  0  0  0  0
 37 79  2  0  0  0  0
 38 64  1  0  0  0  0
 38 69  1  0  0  0  0
 38 80  2  0  0  0  0
 39 65  1  0  0  0  0
 39 75  1  0  0  0  0
 39 81  2  0  0  0  0
 40 70  1  0  0  0  0
 40 73  1  0  0  0  0
 40 82  2  0  0  0  0
 41 45  1  0  0  0  0
 42 54  1  0  0  0  0
 43 69  1  0  0  0  0
 44 46  1  0  0  0  0
 45 48  1  0  0  0  0
 46 56  1  0  0  0  0
 47 49  1  0  0  0  0
 47 50  1  0  0  0  0
 48 53  1  0  0  0  0
 49 55  1  0  0  0  0
 50 70  1  0  0  0  0
 51 55  1  0  0  0  0
 51 70  1  0  0  0  0
 52 56  1  0  0  0  0
 52 76  1  0  0  0  0
 53 74  1  0  0  0  0
 54 69  1  0  0  0  0
 55 68  1  0  0  0  0
 56 84  1  0  0  0  0
 58 65  1  0  0  0  0
 59 66  1  0  0  0  0
 60 66  1  0  0  0  0
 61 66  1  0  0  0  0
 62 77  1  0  0  0  0
 63 76  1  0  0  0  0
 64 66  1  0  0  0  0
 64 75  1  0  0  0  0
 65 77  1  0  0  0  0
 67 68  1  0  0  0  0
M  CHG  2  76   1  77   1
M  ISO  4  40 100  56 101  73 100  84 101
M  END
> <Batch ID>
0036

> <Smiles>
C=C1CC[101CH:1]([101O:1]c2ccc3c(c2)CN(C(=O)C(NC(=O)C(C)NC)C(C)(C)C)C(C(=O)NC2CCCc4ccccc42)C3)CN1Cc1cc([100NH:0][100C:0](=O)N2CCCC(n3nc(-c4ccc(Oc5ccc(F)cc5F)cc4)c(C(N)=O)c3N)C2)cc(Cl)c1C

> <Shape>
0.243

> <Color>
0.115

> <Negative vol penalty>
0.000

$$$$

  -OEChem-04042321543D

 88 97  0     1  0  0  0  0  0999 V2000
  -27.7223  -33.8937   25.8014 C   0  0  0  0  0  0  0  0  0  0  0  0
  -27.9269  -32.6523   25.2077 C   0  0  0  0  0  0  0  0  0  0  0  0
  -24.5156  -15.1972   19.9146 C   0  0  0  0  0  0  0  0  0  0  0  0
  -24.3834  -14.9992   22.3189 C   0  0  0  0  0  0  0  0  0  0  0  0
  -26.4302  -34.3060   26.1247 C   0  0  0  0  0  0  0  0  0  0  0  0
  -26.8396  -31.8221   24.9378 C   0  0  0  0  0  0  0  0  0  0  0  0
  -27.0729  -29.7545   20.3209 C   0  0  0  0  0  0  0  0  0  0  0  0
  -25.4164  -14.1329   19.8765 C   0  0  0  0  0  0  0  0  0  0  0  0
  -25.2842  -13.9349   22.2807 C   0  0  0  0  0  0  0  0  0  0  0  0
  -27.9333  -28.6707   20.1513 C   0  0  0  0  0  0  0  0  0  0  0  0
  -28.7071  -13.6332   20.4651 C   0  0  0  0  0  0  0  0  0  0  0  0
  -29.8388  -13.7715   19.6616 C   0  0  0  0  0  0  0  0  0  0  0  0
  -26.0588  -27.1627   20.3279 C   0  0  0  0  0  0  0  0  0  0  0  0
  -26.2990  -27.3732   26.2152 C   0  0  0  0  0  0  0  0  0  0  0  0
  -26.1650  -25.3192   24.3322 C   0  0  0  0  0  0  0  0  0  0  0  0
  -29.1623  -11.8405   18.3766 C   0  0  0  0  0  0  0  0  0  0  0  0
  -23.9991  -15.6304   21.1358 C   0  0  0  0  0  0  0  0  0  0  0  0
  -21.6654  -16.6597   21.0931 C   0  0  0  0  0  0  0  0  0  0  0  0
  -25.3256  -33.4845   25.8498 C   0  0  0  0  0  0  0  0  0  0  0  0
  -25.6981  -29.5496   20.5065 C   0  0  0  0  0  0  0  0  0  0  0  0
  -25.5317  -32.2232   25.2589 C   0  0  0  0  0  0  0  0  0  0  0  0
  -25.1827  -28.2457   20.4970 C   0  0  0  0  0  0  0  0  0  0  0  0
  -25.1061  -26.6747   26.0288 C   0  0  0  0  0  0  0  0  0  0  0  0
  -27.4249  -27.0447   25.4600 C   0  0  0  0  0  0  0  0  0  0  0  0
  -25.0391  -25.6477   25.0873 C   0  0  0  0  0  0  0  0  0  0  0  0
  -27.3579  -26.0177   24.5186 C   0  0  0  0  0  0  0  0  0  0  0  0
  -25.8007  -13.5017   21.0595 C   0  0  0  0  0  0  0  0  0  0  0  0
  -27.4268  -27.3744   20.1577 C   0  0  0  0  0  0  0  0  0  0  0  0
  -27.8030  -12.5985   20.2245 C   0  0  0  0  0  0  0  0  0  0  0  0
  -30.0664  -12.8752   18.6173 C   0  0  0  0  0  0  0  0  0  0  0  0
  -28.0306  -11.7022   19.1803 C   0  0  0  0  0  0  0  0  0  0  0  0
  -23.0690  -16.7301   21.1759 C   0  0  0  0  0  0  0  0  0  0  0  0
  -21.2505  -17.9663   21.1787 C   0  0  0  0  0  0  0  0  0  0  0  0
  -29.4677  -23.9562   22.2036 C   0  0  0  0  0  0  0  0  0  0  0  0
  -29.1353  -24.3308   20.9632 C   0  0  0  0  0  0  0  0  0  0  0  0
  -20.8129  -15.5157   20.9515 C   0  0  0  0  0  0  0  0  0  0  0  0
  -23.6305  -30.1806   22.8369 C   0  0  0  0  0  0  0  0  0  0  0  0
  -21.4623  -29.1154   20.6721 C   0  0  0  0  0  0  0  0  0  0  0  0
  -20.8193  -27.2219   17.9066 C   0  0  0  0  0  0  0  0  0  0  0  0
  -23.7194  -22.7228   23.6557 C   0  0  0  0  0  0  0  0  0  0  0  0
  -23.9522  -33.9533   26.2605 C   0  0  0  0  0  0  0  0  0  0  0  0
  -24.7796  -30.7306   20.6613 C   0  0  0  0  0  0  0  0  0  0  0  0
  -23.7118  -27.9730   20.6721 C   0  0  0  0  0  0  0  0  0  0  0  0
  -30.6986  -23.1952   22.5862 C   0  0  0  0  0  0  0  0  0  0  0  0
  -22.8192  -33.1725   25.5995 C   0  0  0  0  0  0  0  0  0  0  0  0
  -30.6099  -23.2088   24.1045 C   0  0  0  0  0  0  0  0  0  0  0  0
  -22.6902  -22.4244   20.1989 C   0  0  0  0  0  0  0  0  0  0  0  0
  -23.0885  -31.6730   25.6761 C   0  0  0  0  0  0  0  0  0  0  0  0
  -22.5380  -20.9089   20.0567 C   0  0  0  0  0  0  0  0  0  0  0  0
  -23.8743  -22.7795   21.0934 C   0  0  0  0  0  0  0  0  0  0  0  0
  -23.6797  -20.6436   22.3074 C   0  0  0  0  0  0  0  0  0  0  0  0
  -29.1194  -23.2883   24.3949 C   0  0  0  0  0  0  0  0  0  0  0  0
  -24.3754  -31.3048   24.9279 C   0  0  1  0  0  0  0  0  0  0  0  0
  -23.4677  -30.3801   21.3566 C   0  0  1  0  0  0  0  0  0  0  0  0
  -22.4859  -20.2193   21.4329 C   0  0  2  0  0  0  0  0  0  0  0  0
  -23.9140  -27.0437   26.8492 C   0  0  0  0  0  0  0  0  0  0  0  0
  -28.6908  -27.8070   25.6764 C   0  0  0  0  0  0  0  0  0  0  0  0
  -18.9452  -26.5175   16.3937 C   0  0  0  0  0  0  0  0  0  0  0  0
  -20.4752  -27.1696   22.8050 C   0  0  0  0  0  0  0  0  0  0  0  0
  -19.3082  -25.8892   20.9975 C   0  0  0  0  0  0  0  0  0  0  0  0
  -18.6642  -28.2536   21.4635 C   0  0  0  0  0  0  0  0  0  0  0  0
  -22.1022  -28.4648   15.5468 C   0  0  0  0  0  0  0  0  0  0  0  0
  -23.7731  -24.8856   24.8708 C   0  0  0  0  0  0  0  0  0  0  0  0
  -28.5554  -25.6472   23.6943 C   0  0  0  0  0  0  0  0  0  0  0  0
  -27.8952  -25.0903   20.6261 C   0  0  0  0  0  0  0  0  0  1  0  0
  -20.8696  -27.7710   20.3253 C   0  0  1  0  0  0  0  0  0  0  0  0
  -20.0558  -27.5288   16.6309 C   0  0  2  0  0  0  0  0  0  0  0  0
  -19.8573  -27.2755   21.3964 C   0  0  0  0  0  0  0  0  0  0  0  0
  -23.5159  -17.9822   21.3041 N   0  0  0  0  0  0  0  0  0  0  0  0
  -22.3866  -18.7108   21.3025 N   0  0  0  0  0  0  0  0  0  0  0  0
  -22.8552  -29.1604   20.8262 N   0  0  0  0  0  0  0  0  0  0  0  0
  -23.7544  -22.1059   22.3941 N   0  0  0  0  0  0  0  0  0  0  0  0
  -20.0284  -18.5394   21.1594 N   0  0  0  0  0  0  0  0  0  0  0  0
  -21.4039  -14.2469   20.8788 N   0  0  0  0  0  0  0  0  0  0  0  0
  -24.1406  -31.2804   23.5000 N   0  0  0  0  0  0  0  0  0  0  0  0
  -20.3048  -27.9068   18.9870 N   0  0  0  0  0  0  0  0  0  0  0  0
  -23.8022  -24.1099   23.6508 N   0  0  0  0  0  0  0  0  0  0  0  0
  -28.5763  -24.1963   23.3054 N   0  3  1  0  0  0  0  0  0  0  0  0
  -20.9748  -27.5014   15.4579 N   0  3  0  0  0  0  0  0  0  0  0  0
  -19.5649  -15.6170   20.8748 O   0  0  0  0  0  0  0  0  0  0  0  0
  -23.3154  -29.1088   23.3403 O   0  0  0  0  0  0  0  0  0  0  0  0
  -20.7177  -30.0912   20.7944 O   0  0  0  0  0  0  0  0  0  0  0  0
  -21.7741  -26.4488   17.9418 O   0  0  0  0  0  0  0  0  0  0  0  0
  -23.6164  -22.0849   24.7090 O   0  0  0  0  0  0  0  0  0  0  0  0
  -26.6795  -12.4630   21.0227 O   0  0  0  0  0  0  0  0  0  0  0  0
  -28.2645  -26.3147   19.9930 O   0  0  0  0  0  0  0  0  0  1  0  0
  -31.1524  -13.0090   17.8448 F   0  0  0  0  0  0  0  0  0  0  0  0
  -27.1651  -10.7069   18.9435 F   0  0  0  0  0  0  0  0  0  0  0  0
  1  2  1  0  0  0  0
  1  5  2  0  0  0  0
  2  6  2  0  0  0  0
  3  8  2  0  0  0  0
  3 17  1  0  0  0  0
  4  9  1  0  0  0  0
  4 17  2  0  0  0  0
  5 19  1  0  0  0  0
  6 21  1  0  0  0  0
  7 10  2  0  0  0  0
  7 20  1  0  0  0  0
  8 27  1  0  0  0  0
  9 27  2  0  0  0  0
 10 28  1  0  0  0  0
 11 12  2  0  0  0  0
 11 29  1  0  0  0  0
 12 30  1  0  0  0  0
 13 22  1  0  0  0  0
 13 28  2  0  0  0  0
 14 23  2  0  0  0  0
 14 24  1  0  0  0  0
 15 25  2  0  0  0  0
 15 26  1  0  0  0  0
 16 30  2  0  0  0  0
 16 31  1  0  0  0  0
 17 32  1  0  0  0  0
 18 32  1  0  0  0  0
 18 33  2  0  0  0  0
 18 36  1  0  0  0  0
 19 21  2  0  0  0  0
 19 41  1  0  0  0  0
 20 22  2  0  0  0  0
 20 42  1  0  0  0  0
 21 53  1  0  0  0  0
 22 43  1  0  0  0  0
 23 25  1  0  0  0  0
 23 56  1  0  0  0  0
 24 26  2  0  0  0  0
 24 57  1  0  0  0  0
 25 63  1  0  0  0  0
 26 64  1  0  0  0  0
 27 85  1  0  0  0  0
 28 86  1  0  0  0  0
 29 31  2  0  0  0  0
 29 85  1  0  0  0  0
 30 87  1  0  0  0  0
 31 88  1  0  0  0  0
 32 69  2  0  0  0  0
 33 70  1  0  0  0  0
 33 73  1  0  0  0  0
 34 35  2  0  0  0  0
 34 44  1  0  0  0  0
 34 78  1  0  0  0  0
 35 65  1  0  0  0  0
 36 74  1  0  0  0  0
 36 80  2  0  0  0  0
 37 54  1  0  0  0  0
 37 75  1  0  0  0  0
 37 81  2  0  0  0  0
 38 66  1  0  0  0  0
 38 71  1  0  0  0  0
 38 82  2  0  0  0  0
 39 67  1  0  0  0  0
 39 76  1  0  0  0  0
 39 83  2  0  0  0  0
 40 72  1  0  0  0  0
 40 77  1  0  0  0  0
 40 84  2  0  0  0  0
 41 45  1  0  0  0  0
 42 54  1  0  0  0  0
 43 71  1  0  0  0  0
 44 46  1  0  0  0  0
 45 48  1  0  0  0  0
 46 52  1  0  0  0  0
 47 49  1  0  0  0  0
 47 50  1  0  0  0  0
 48 53  1  0  0  0  0
 49 55  1  0  0  0  0
 50 72  1  0  0  0  0
 51 55  1  0  0  0  0
 51 72  1  0  0  0  0
 52 78  1  0  0  0  0
 53 75  1  0  0  0  0
 54 71  1  0  0  0  0
 55 70  1  0  0  0  0
 58 67  1  0  0  0  0
 59 68  1  0  0  0  0
 60 68  1  0  0  0  0
 61 68  1  0  0  0  0
 62 79  1  0  0  0  0
 63 77  1  0  0  0  0
 64 78  1  0  0  0  0
 65 86  1  0  0  0  0
 66 68  1  0  0  0  0
 66 76  1  0  0  0  0
 67 79  1  0  0  0  0
 69 70  1  0  0  0  0
M  CHG  2  78   1  79   1
M  ISO  4  40 100  65 101  77 100  86 101
M  END
> <Batch ID>
0036

> <Smiles>
CNC(C)C(=O)NC(C(=O)N1Cc2cc([101O:1][101CH2:1]C=C3CCCN3Cc3cc(C[100NH:0][100C:0](=O)N4CCCC(n5nc(-c6ccc(Oc7ccc(F)cc7F)cc6)c(C(N)=O)c5N)C4)c(C)cc3C)ccc2CC1C(=O)NC1CCCc2ccccc21)C(C)(C)C

> <Shape>
0.220

> <Color>
0.078

> <Negative vol penalty>
0.000

$$$$

  -OEChem-04042321543D

 83 91  0     1  0  0  0  0  0999 V2000
  -37.7515  -27.3730   33.7533 C   0  0  0  0  0  0  0  0  0  0  0  0
  -36.5876  -26.9587   33.1136 C   0  0  0  0  0  0  0  0  0  0  0  0
  -23.0758   -9.8674   19.9401 C   0  0  0  0  0  0  0  0  0  0  0  0
  -23.8353   -9.8738   22.2336 C   0  0  0  0  0  0  0  0  0  0  0  0
  -38.9303  -27.5241   33.0243 C   0  0  0  0  0  0  0  0  0  0  0  0
  -36.6016  -26.6965   31.7441 C   0  0  0  0  0  0  0  0  0  0  0  0
  -33.3801  -22.4116   28.7831 C   0  0  0  0  0  0  0  0  0  0  0  0
  -31.1577  -17.6748   20.5912 C   0  0  0  0  0  0  0  0  0  0  0  0
  -22.3316   -8.7144   20.1898 C   0  0  0  0  0  0  0  0  0  0  0  0
  -23.0911   -8.7208   22.4833 C   0  0  0  0  0  0  0  0  0  0  0  0
  -32.1887  -22.4657   28.0611 C   0  0  0  0  0  0  0  0  0  0  0  0
  -21.1053   -5.9839   23.8191 C   0  0  0  0  0  0  0  0  0  0  0  0
  -20.3488   -5.9403   24.9901 C   0  0  0  0  0  0  0  0  0  0  0  0
  -31.3411  -19.0575   20.5819 C   0  0  0  0  0  0  0  0  0  0  0  0
  -33.4463  -22.6763   26.0133 C   0  0  0  0  0  0  0  0  0  0  0  0
  -19.1048   -7.8780   24.2587 C   0  0  0  0  0  0  0  0  0  0  0  0
  -23.8278  -10.4471   20.9621 C   0  0  0  0  0  0  0  0  0  0  0  0
  -24.1702  -12.9721   20.8425 C   0  0  0  0  0  0  0  0  0  0  0  0
  -38.9611  -27.2543   31.6470 C   0  0  0  0  0  0  0  0  0  0  0  0
  -34.6155  -22.5006   28.1257 C   0  0  0  0  0  0  0  0  0  0  0  0
  -37.7816  -26.8455   30.9957 C   0  0  0  0  0  0  0  0  0  0  0  0
  -34.6520  -22.6205   26.7291 C   0  0  0  0  0  0  0  0  0  0  0  0
  -29.5311  -17.9025   22.3630 C   0  0  0  0  0  0  0  0  0  0  0  0
  -29.7145  -19.2852   22.3537 C   0  0  0  0  0  0  0  0  0  0  0  0
  -30.2527  -17.0973   21.4818 C   0  0  0  0  0  0  0  0  0  0  0  0
  -22.3392   -8.1411   21.4613 C   0  0  0  0  0  0  0  0  0  0  0  0
  -32.2216  -22.6010   26.6763 C   0  0  0  0  0  0  0  0  0  0  0  0
  -20.8616   -6.9746   22.8678 C   0  0  0  0  0  0  0  0  0  0  0  0
  -19.3485   -6.8874   25.2100 C   0  0  0  0  0  0  0  0  0  0  0  0
  -19.8614   -7.9216   23.0876 C   0  0  0  0  0  0  0  0  0  0  0  0
  -30.6195  -19.8627   21.4631 C   0  0  0  0  0  0  0  0  0  0  0  0
  -24.5972  -11.6378   20.7047 C   0  0  0  0  0  0  0  0  0  0  0  0
  -25.2626  -13.7214   20.4796 C   0  0  0  0  0  0  0  0  0  0  0  0
  -22.8998  -13.4882   21.2613 C   0  0  0  0  0  0  0  0  0  0  0  0
  -37.0580  -24.5332   28.2060 C   0  0  0  0  0  0  0  0  0  0  0  0
  -38.4361  -22.3475   26.2449 C   0  0  0  0  0  0  0  0  0  0  0  0
  -38.0343  -19.8149   23.9929 C   0  0  0  0  0  0  0  0  0  0  0  0
  -30.7291  -14.7656   20.6554 C   0  0  0  0  0  0  0  0  0  0  0  0
  -40.2475  -27.4775   30.8921 C   0  0  0  0  0  0  0  0  0  0  0  0
  -35.8921  -22.4137   28.9164 C   0  0  0  0  0  0  0  0  0  0  0  0
  -35.9526  -22.6997   25.9737 C   0  0  0  0  0  0  0  0  0  0  0  0
  -40.2681  -26.8185   29.5153 C   0  0  0  0  0  0  0  0  0  0  0  0
  -29.6145  -12.3525   18.2865 C   0  0  0  0  0  0  0  0  0  0  0  0
  -38.9700  -27.1045   28.7671 C   0  0  0  0  0  0  0  0  0  0  0  0
  -28.1747  -12.0612   18.7158 C   0  0  0  0  0  0  0  0  0  0  0  0
  -30.5294  -12.5809   19.4884 C   0  0  0  0  0  0  0  0  0  0  0  0
  -28.6224  -13.3056   20.8694 C   0  0  0  0  0  0  0  0  0  0  0  0
  -37.7628  -26.5275   29.5163 C   0  0  1  0  0  0  0  0  0  0  0  0
  -37.0856  -23.0309   28.1939 C   0  0  1  0  0  0  0  0  0  0  0  0
  -27.6497  -13.1328   19.6914 C   0  0  2  0  0  0  0  0  0  0  0  0
  -28.5592  -17.2829   23.3185 C   0  0  0  0  0  0  0  0  0  0  0  0
  -39.3453  -18.2503   22.5332 C   0  0  0  0  0  0  0  0  0  0  0  0
  -38.9721  -24.6263   24.2879 C   0  0  0  0  0  0  0  0  0  0  0  0
  -39.3906  -22.9107   22.5131 C   0  0  0  0  0  0  0  0  0  0  0  0
  -40.8533  -22.9966   24.5320 C   0  0  0  0  0  0  0  0  0  0  0  0
  -36.9548  -17.4326   25.3781 C   0  0  0  0  0  0  0  0  0  0  0  0
  -28.9318  -20.1387   23.3076 C   0  0  0  0  0  0  0  0  0  0  0  0
  -29.0160  -21.5354   25.3766 C   0  0  0  0  0  0  0  0  0  0  0  0
  -29.9408  -21.9496   26.5041 C   0  0  0  0  0  0  0  0  0  1  0  0
  -38.4873  -22.1331   24.7515 C   0  0  1  0  0  0  0  0  0  0  0  0
  -38.6844  -18.4471   23.8887 C   0  0  2  0  0  0  0  0  0  0  0  0
  -39.4011  -23.1671   24.0352 C   0  0  0  0  0  0  0  0  0  0  0  0
  -25.8621  -11.5417   20.2866 N   0  0  0  0  0  0  0  0  0  0  0  0
  -26.2393  -12.8252   20.1586 N   0  0  0  0  0  0  0  0  0  0  0  0
  -37.1736  -22.6168   26.7921 N   0  0  0  0  0  0  0  0  0  0  0  0
  -29.9705  -13.6117   20.3659 N   0  0  0  0  0  0  0  0  0  0  0  0
  -25.4734  -15.0528   20.4069 N   0  0  0  0  0  0  0  0  0  0  0  0
  -21.8876  -12.5792   21.5983 N   0  0  0  0  0  0  0  0  0  0  0  0
  -30.0818  -15.6907   21.4739 N   0  0  0  0  0  0  0  0  0  0  0  0
  -37.6737  -25.0983   29.3065 N   0  0  0  0  0  0  0  0  0  0  0  0
  -38.8861  -20.7440   24.5519 N   0  0  0  0  0  0  0  0  0  0  0  0
  -37.6669  -17.3743   24.0756 N   0  3  0  0  0  0  0  0  0  0  0  0
  -29.7478  -20.6385   24.4469 N   0  3  0  0  0  0  0  0  0  0  0  0
  -22.6638  -14.7189   21.3189 O   0  0  0  0  0  0  0  0  0  0  0  0
  -36.5194  -25.1350   27.2844 O   0  0  0  0  0  0  0  0  0  0  0  0
  -39.4768  -22.2715   26.9027 O   0  0  0  0  0  0  0  0  0  0  0  0
  -36.8870  -20.0378   23.6128 O   0  0  0  0  0  0  0  0  0  0  0  0
  -31.8583  -14.9341   20.1880 O   0  0  0  0  0  0  0  0  0  0  0  0
  -21.6130   -7.0161   21.7053 O   0  0  0  0  0  0  0  0  0  0  0  0
  -31.0602  -22.6547   25.9691 O   0  0  0  0  0  0  0  0  0  1  0  0
  -18.6211   -6.8444   26.3339 F   0  0  0  0  0  0  0  0  0  0  0  0
  -19.6218   -8.8751   22.1769 F   0  0  0  0  0  0  0  0  0  0  0  0
  -30.8783  -21.5692   21.4205 Cl  0  0  0  0  0  0  0  0  0  0  0  0
  1  2  1  0  0  0  0
  1  5  2  0  0  0  0
  2  6  2  0  0  0  0
  3  9  2  0  0  0  0
  3 17  1  0  0  0  0
  4 10  1  0  0  0  0
  4 17  2  0  0  0  0
  5 19  1  0  0  0  0
  6 21  1  0  0  0  0
  7 11  2  0  0  0  0
  7 20  1  0  0  0  0
  8 14  1  0  0  0  0
  8 25  2  0  0  0  0
  9 26  1  0  0  0  0
 10 26  2  0  0  0  0
 11 27  1  0  0  0  0
 12 13  2  0  0  0  0
 12 28  1  0  0  0  0
 13 29  1  0  0  0  0
 14 31  2  0  0  0  0
 15 22  1  0  0  0  0
 15 27  2  0  0  0  0
 16 29  2  0  0  0  0
 16 30  1  0  0  0  0
 17 32  1  0  0  0  0
 18 32  1  0  0  0  0
 18 33  2  0  0  0  0
 18 34  1  0  0  0  0
 19 21  2  0  0  0  0
 19 39  1  0  0  0  0
 20 22  2  0  0  0  0
 20 40  1  0  0  0  0
 21 48  1  0  0  0  0
 22 41  1  0  0  0  0
 23 24  2  0  0  0  0
 23 25  1  0  0  0  0
 23 51  1  0  0  0  0
 24 31  1  0  0  0  0
 24 57  1  0  0  0  0
 25 69  1  0  0  0  0
 26 79  1  0  0  0  0
 27 80  1  0  0  0  0
 28 30  2  0  0  0  0
 28 79  1  0  0  0  0
 29 81  1  0  0  0  0
 30 82  1  0  0  0  0
 31 83  1  0  0  0  0
 32 63  2  0  0  0  0
 33 64  1  0  0  0  0
 33 67  1  0  0  0  0
 34 68  1  0  0  0  0
 34 74  2  0  0  0  0
 35 49  1  0  0  0  0
 35 70  1  0  0  0  0
 35 75  2  0  0  0  0
 36 60  1  0  0  0  0
 36 65  1  0  0  0  0
 36 76  2  0  0  0  0
 37 61  1  0  0  0  0
 37 71  1  0  0  0  0
 37 77  2  0  0  0  0
 38 66  1  0  0  0  0
 38 69  1  0  0  0  0
 38 78  2  0  0  0  0
 39 42  1  0  0  0  0
 40 49  1  0  0  0  0
 41 65  1  0  0  0  0
 42 44  1  0  0  0  0
 43 45  1  0  0  0  0
 43 46  1  0  0  0  0
 44 48  1  0  0  0  0
 45 50  1  0  0  0  0
 46 66  1  0  0  0  0
 47 50  1  0  0  0  0
 47 66  1  0  0  0  0
 48 70  1  0  0  0  0
 49 65  1  0  0  0  0
 50 64  1  0  0  0  0
 52 61  1  0  0  0  0
 53 62  1  0  0  0  0
 54 62  1  0  0  0  0
 55 62  1  0  0  0  0
 56 72  1  0  0  0  0
 57 73  1  0  0  0  0
 58 59  1  0  0  0  0
 58 73  1  0  0  0  0
 59 80  1  0  0  0  0
 60 62  1  0  0  0  0
 60 71  1  0  0  0  0
 61 72  1  0  0  0  0
 63 64  1  0  0  0  0
M  CHG  2  72   1  73   1
M  ISO  4  38 100  59 101  69 100  80 101
M  END
> <Batch ID>
0036

> <Smiles>
CNC(C)C(=O)NC(C(=O)N1Cc2cc([101O:1][101CH2:1]CNCc3c(Cl)ccc([100NH:0][100C:0](=O)N4CCCC(n5nc(-c6ccc(Oc7ccc(F)cc7F)cc6)c(C(N)=O)c5N)C4)c3C)ccc2CC1C(=O)NC1CCCc2ccccc21)C(C)(C)C

> <Shape>
0.173

> <Color>
0.192

> <Negative vol penalty>
0.000

$$$$

  -OEChem-04042321543D

 90 99  0     1  0  0  0  0  0999 V2000
  -27.8673  -34.1835   28.0176 C   0  0  0  0  0  0  0  0  0  0  0  0
  -28.2493  -33.0530   27.3025 C   0  0  0  0  0  0  0  0  0  0  0  0
  -24.7069   -8.5141   20.7223 C   0  0  0  0  0  0  0  0  0  0  0  0
  -23.1157  -10.3313   20.6659 C   0  0  0  0  0  0  0  0  0  0  0  0
  -26.5689  -34.6772   27.8973 C   0  0  0  0  0  0  0  0  0  0  0  0
  -27.3329  -32.4149   26.4674 C   0  0  0  0  0  0  0  0  0  0  0  0
  -28.5231  -29.6181   21.1507 C   0  0  0  0  0  0  0  0  0  0  0  0
  -23.6824   -7.6273   21.0531 C   0  0  0  0  0  0  0  0  0  0  0  0
  -22.0911   -9.4444   20.9966 C   0  0  0  0  0  0  0  0  0  0  0  0
  -28.7141  -28.2777   20.8181 C   0  0  0  0  0  0  0  0  0  0  0  0
  -21.9255   -6.7682   23.8098 C   0  0  0  0  0  0  0  0  0  0  0  0
  -22.1679   -5.8516   24.8329 C   0  0  0  0  0  0  0  0  0  0  0  0
  -26.3944  -28.1124   20.1772 C   0  0  0  0  0  0  0  0  0  0  0  0
  -28.0137  -19.3961   18.4385 C   0  0  0  0  0  0  0  0  0  0  0  0
  -21.7878   -4.0305   23.2914 C   0  0  0  0  0  0  0  0  0  0  0  0
  -24.4235   -9.8662   20.5288 C   0  0  0  0  0  0  0  0  0  0  0  0
  -26.3170  -10.7337   19.0557 C   0  0  0  0  0  0  0  0  0  0  0  0
  -25.6389  -34.0505   27.0529 C   0  0  0  0  0  0  0  0  0  0  0  0
  -27.2615  -30.2138   21.0091 C   0  0  0  0  0  0  0  0  0  0  0  0
  -26.0205  -32.8999   26.3368 C   0  0  0  0  0  0  0  0  0  0  0  0
  -26.1906  -29.4612   20.5062 C   0  0  0  0  0  0  0  0  0  0  0  0
  -28.0286  -20.4214   17.4929 C   0  0  0  0  0  0  0  0  0  0  0  0
  -28.0878  -20.1155   16.1333 C   0  0  0  0  0  0  0  0  0  0  0  0
  -28.1322  -18.7842   15.7192 C   0  0  0  0  0  0  0  0  0  0  0  0
  -28.1174  -17.7589   16.6649 C   0  0  0  0  0  0  0  0  0  0  0  0
  -28.0582  -18.0648   18.0245 C   0  0  0  0  0  0  0  0  0  0  0  0
  -22.3745   -8.0924   21.1902 C   0  0  0  0  0  0  0  0  0  0  0  0
  -27.6490  -27.5238   20.3340 C   0  0  0  0  0  0  0  0  0  0  0  0
  -21.6141   -6.3159   22.5275 C   0  0  0  0  0  0  0  0  0  0  0  0
  -22.0991   -4.4828   24.5737 C   0  0  0  0  0  0  0  0  0  0  0  0
  -21.5453   -4.9471   22.2683 C   0  0  0  0  0  0  0  0  0  0  0  0
  -25.4815  -10.7829   20.1877 C   0  0  0  0  0  0  0  0  0  0  0  0
  -27.1478  -11.8185   19.1946 C   0  0  0  0  0  0  0  0  0  0  0  0
  -29.2073  -23.9211   18.2922 C   0  0  0  0  0  0  0  0  0  0  0  0
  -29.2020  -24.8497   17.3210 C   0  0  0  0  0  0  0  0  0  0  0  0
  -26.3399   -9.7916   17.9751 C   0  0  0  0  0  0  0  0  0  0  0  0
  -25.1780  -31.5551   22.9999 C   0  0  0  0  0  0  0  0  0  0  0  0
  -23.6060  -32.2691   20.2537 C   0  0  0  0  0  0  0  0  0  0  0  0
  -23.0250  -31.5324   16.9725 C   0  0  0  0  0  0  0  0  0  0  0  0
  -27.9832  -17.1929   20.3868 C   0  0  0  0  0  0  0  0  0  0  0  0
  -24.2330  -34.5931   26.9918 C   0  0  0  0  0  0  0  0  0  0  0  0
  -27.0783  -31.6680   21.3470 C   0  0  0  0  0  0  0  0  0  0  0  0
  -24.8213  -30.0590   20.3164 C   0  0  0  0  0  0  0  0  0  0  0  0
  -23.4329  -34.0785   25.7979 C   0  0  0  0  0  0  0  0  0  0  0  0
  -27.8853  -14.9204   23.1260 C   0  0  0  0  0  0  0  0  0  0  0  0
  -30.3559  -22.0015   20.0837 C   0  0  0  0  0  0  0  0  0  0  0  0
  -23.5971  -32.5686   25.6562 C   0  0  0  0  0  0  0  0  0  0  0  0
  -30.2888  -23.4709   20.4924 C   0  0  0  0  0  0  0  0  0  0  0  0
  -27.3200  -13.6374   22.5126 C   0  0  0  0  0  0  0  0  0  0  0  0
  -27.2405  -16.1682   22.5253 C   0  0  0  0  0  0  0  0  0  0  0  0
  -26.7112  -14.9581   20.4457 C   0  0  0  0  0  0  0  0  0  0  0  0
  -30.4457  -21.8453   18.5707 C   0  0  0  0  0  0  0  0  0  0  0  0
  -25.0623  -32.1944   25.4017 C   0  0  1  0  0  0  0  0  0  0  0  0
  -29.1367  -24.2008   19.7855 C   0  0  1  0  0  0  0  0  0  0  0  0
  -25.6280  -32.0332   21.6484 C   0  0  1  0  0  0  0  0  0  0  0  0
  -27.3766  -13.6763   20.9729 C   0  0  2  0  0  0  0  0  0  0  0  0
  -28.1049  -21.2177   15.1218 C   0  0  0  0  0  0  0  0  0  0  0  0
  -28.1959  -18.4567   14.2605 C   0  0  0  0  0  0  0  0  0  0  0  0
  -28.1668  -16.3310   16.2181 C   0  0  0  0  0  0  0  0  0  0  0  0
  -21.6603  -32.2695   14.9998 C   0  0  0  0  0  0  0  0  0  0  0  0
  -21.1395  -30.9463   21.4689 C   0  0  0  0  0  0  0  0  0  0  0  0
  -20.1419  -30.8586   19.1742 C   0  0  0  0  0  0  0  0  0  0  0  0
  -20.6785  -33.0609   20.2157 C   0  0  0  0  0  0  0  0  0  0  0  0
  -25.4438  -32.1540   15.3844 C   0  0  0  0  0  0  0  0  0  0  0  0
  -27.9838  -21.8449   17.9647 C   0  0  0  0  0  0  0  0  0  0  0  0
  -29.1427  -25.6788   20.1894 C   0  0  0  0  0  0  0  0  0  1  0  0
  -22.5619  -31.5794   19.4093 C   0  0  1  0  0  0  0  0  0  0  0  0
  -22.9841  -32.4105   15.7349 C   0  0  2  0  0  0  0  0  0  0  0  0
  -21.1557  -31.5992   20.0723 C   0  0  0  0  0  0  0  0  0  0  0  0
  -25.7566  -11.8171   20.9869 N   0  0  0  0  0  0  0  0  0  0  0  0
  -26.7743  -12.4277   20.3563 N   0  0  0  0  0  0  0  0  0  0  0  0
  -24.6909  -31.4830   20.6670 N   0  0  0  0  0  0  0  0  0  0  0  0
  -27.3357  -16.1381   21.0642 N   0  0  0  0  0  0  0  0  0  0  0  0
  -28.1542  -12.3012   18.4353 N   0  0  0  0  0  0  0  0  0  0  0  0
  -25.5469  -10.0480   16.8482 N   0  0  0  0  0  0  0  0  0  0  0  0
  -28.0412  -17.0392   19.0020 N   0  0  0  0  0  0  0  0  0  0  0  0
  -25.4177  -32.4527   24.0228 N   0  0  0  0  0  0  0  0  0  0  0  0
  -22.6129  -32.2153   18.0972 N   0  0  0  0  0  0  0  0  0  0  0  0
  -29.3117  -22.5428   17.8591 N   0  3  1  0  0  0  0  0  0  0  0  0
  -24.0830  -32.0388   14.7995 N   0  3  0  0  0  0  0  0  0  0  0  0
  -27.0301   -8.7449   18.0148 O   0  0  0  0  0  0  0  0  0  0  0  0
  -24.6508  -30.4540   23.1065 O   0  0  0  0  0  0  0  0  0  0  0  0
  -23.4678  -33.4633   20.5304 O   0  0  0  0  0  0  0  0  0  0  0  0
  -23.3830  -30.3570   16.9437 O   0  0  0  0  0  0  0  0  0  0  0  0
  -28.4758  -18.1479   20.9929 O   0  0  0  0  0  0  0  0  0  0  0  0
  -21.3745   -7.2272   21.5127 O   0  0  0  0  0  0  0  0  0  0  0  0
  -27.8326  -26.2152   20.0092 O   0  0  0  0  0  0  0  0  0  1  0  0
  -22.3334   -3.6027   25.5559 F   0  0  0  0  0  0  0  0  0  0  0  0
  -21.2478   -4.5066   21.0382 F   0  0  0  0  0  0  0  0  0  0  0  0
  -29.2842  -24.4565   15.6635 Cl  0  0  0  0  0  0  0  0  0  0  0  0
  1  2  1  0  0  0  0
  1  5  2  0  0  0  0
  2  6  2  0  0  0  0
  3  8  2  0  0  0  0
  3 16  1  0  0  0  0
  4  9  1  0  0  0  0
  4 16  2  0  0  0  0
  5 18  1  0  0  0  0
  6 20  1  0  0  0  0
  7 10  2  0  0  0  0
  7 19  1  0  0  0  0
  8 27  1  0  0  0  0
  9 27  2  0  0  0  0
 10 28  1  0  0  0  0
 11 12  2  0  0  0  0
 11 29  1  0  0  0  0
 12 30  1  0  0  0  0
 13 21  1  0  0  0  0
 13 28  2  0  0  0  0
 14 22  1  0  0  0  0
 14 26  2  0  0  0  0
 15 30  2  0  0  0  0
 15 31  1  0  0  0  0
 16 32  1  0  0  0  0
 17 32  1  0  0  0  0
 17 33  2  0  0  0  0
 17 36  1  0  0  0  0
 18 20  2  0  0  0  0
 18 41  1  0  0  0  0
 19 21  2  0  0  0  0
 19 42  1  0  0  0  0
 20 53  1  0  0  0  0
 21 43  1  0  0  0  0
 22 23  2  0  0  0  0
 22 65  1  0  0  0  0
 23 24  1  0  0  0  0
 23 57  1  0  0  0  0
 24 25  2  0  0  0  0
 24 58  1  0  0  0  0
 25 26  1  0  0  0  0
 25 59  1  0  0  0  0
 26 76  1  0  0  0  0
 27 86  1  0  0  0  0
 28 87  1  0  0  0  0
 29 31  2  0  0  0  0
 29 86  1  0  0  0  0
 30 88  1  0  0  0  0
 31 89  1  0  0  0  0
 32 70  2  0  0  0  0
 33 71  1  0  0  0  0
 33 74  1  0  0  0  0
 34 35  2  0  0  0  0
 34 54  1  0  0  0  0
 34 79  1  0  0  0  0
 35 90  1  0  0  0  0
 36 75  1  0  0  0  0
 36 81  2  0  0  0  0
 37 55  1  0  0  0  0
 37 77  1  0  0  0  0
 37 82  2  0  0  0  0
 38 67  1  0  0  0  0
 38 72  1  0  0  0  0
 38 83  2  0  0  0  0
 39 68  1  0  0  0  0
 39 78  1  0  0  0  0
 39 84  2  0  0  0  0
 40 73  1  0  0  0  0
 40 76  1  0  0  0  0
 40 85  2  0  0  0  0
 41 44  1  0  0  0  0
 42 55  1  0  0  0  0
 43 72  1  0  0  0  0
 44 47  1  0  0  0  0
 45 49  1  0  0  0  0
 45 50  1  0  0  0  0
 46 48  1  0  0  0  0
 46 52  1  0  0  0  0
 47 53  1  0  0  0  0
 48 54  1  0  0  0  0
 49 56  1  0  0  0  0
 50 73  1  0  0  0  0
 51 56  1  0  0  0  0
 51 73  1  0  0  0  0
 52 79  1  0  0  0  0
 53 77  1  0  0  0  0
 54 66  1  0  0  0  0
 55 72  1  0  0  0  0
 56 71  1  0  0  0  0
 60 68  1  0  0  0  0
 61 69  1  0  0  0  0
 62 69  1  0  0  0  0
 63 69  1  0  0  0  0
 64 80  1  0  0  0  0
 65 79  1  0  0  0  0
 66 87  1  0  0  0  0
 67 69  1  0  0  0  0
 67 78  1  0  0  0  0
 68 80  1  0  0  0  0
 70 71  1  0  0  0  0
M  CHG  2  79   1  80   1
M  ISO  4  40 100  66 101  76 100  87 101
M  END
> <Batch ID>
0036

> <Smiles>
CNC(C)C(=O)NC(C(=O)N1Cc2cc([101O:1][101CH2:1]C3CCCN(Cc4cc([100NH:0][100C:0](=O)N5CCCC(n6nc(-c7ccc(Oc8ccc(F)cc8F)cc7)c(C(N)=O)c6N)C5)c(C)c(C)c4C)C3=CCl)ccc2CC1C(=O)NC1CCCc2ccccc21)C(C)(C)C

> <Shape>
0.283

> <Color>
0.082

> <Negative vol penalty>
0.000

$$$$

  -OEChem-04042321543D

 88 97  0     1  0  0  0  0  0999 V2000
  -24.4511  -36.0458   17.7535 C   0  0  0  0  0  0  0  0  0  0  0  0
  -25.1995  -35.0036   18.2912 C   0  0  0  0  0  0  0  0  0  0  0  0
  -24.0927   -9.1954   21.0575 C   0  0  0  0  0  0  0  0  0  0  0  0
  -25.4643   -9.8282   22.9430 C   0  0  0  0  0  0  0  0  0  0  0  0
  -23.4054  -36.6030   18.4883 C   0  0  0  0  0  0  0  0  0  0  0  0
  -24.9033  -34.5187   19.5646 C   0  0  0  0  0  0  0  0  0  0  0  0
  -24.8735  -29.4584   19.7582 C   0  0  0  0  0  0  0  0  0  0  0  0
  -23.8845   -7.9407   21.6300 C   0  0  0  0  0  0  0  0  0  0  0  0
  -25.2560   -8.5735   23.5157 C   0  0  0  0  0  0  0  0  0  0  0  0
  -26.1098  -28.8159   19.8090 C   0  0  0  0  0  0  0  0  0  0  0  0
  -21.9518   -6.6010   24.0596 C   0  0  0  0  0  0  0  0  0  0  0  0
  -20.6518   -6.0954   24.0579 C   0  0  0  0  0  0  0  0  0  0  0  0
  -25.8616  -28.5398   22.1925 C   0  0  0  0  0  0  0  0  0  0  0  0
  -27.4096  -21.0422   22.1425 C   0  0  0  0  0  0  0  0  0  0  0  0
  -21.3937   -4.1926   22.7670 C   0  0  0  0  0  0  0  0  0  0  0  0
  -24.8827  -10.1392   21.7140 C   0  0  0  0  0  0  0  0  0  0  0  0
  -24.1209  -12.3932   20.7938 C   0  0  0  0  0  0  0  0  0  0  0  0
  -23.0900  -36.1182   19.7675 C   0  0  0  0  0  0  0  0  0  0  0  0
  -24.1258  -29.6565   20.9278 C   0  0  0  0  0  0  0  0  0  0  0  0
  -23.8532  -35.0709   20.3178 C   0  0  0  0  0  0  0  0  0  0  0  0
  -24.6150  -29.1829   22.1535 C   0  0  0  0  0  0  0  0  0  0  0  0
  -27.4972  -21.8029   20.9766 C   0  0  0  0  0  0  0  0  0  0  0  0
  -27.5852  -19.6595   22.0880 C   0  0  0  0  0  0  0  0  0  0  0  0
  -27.7602  -21.1809   19.7562 C   0  0  0  0  0  0  0  0  0  0  0  0
  -27.9358  -19.7981   19.7016 C   0  0  0  0  0  0  0  0  0  0  0  0
  -27.8482  -19.0375   20.8675 C   0  0  0  0  0  0  0  0  0  0  0  0
  -24.4661   -7.6297   22.8591 C   0  0  0  0  0  0  0  0  0  0  0  0
  -26.6054  -28.3591   21.0267 C   0  0  0  0  0  0  0  0  0  0  0  0
  -22.9727   -5.9026   23.4150 C   0  0  0  0  0  0  0  0  0  0  0  0
  -20.3728   -4.8912   23.4116 C   0  0  0  0  0  0  0  0  0  0  0  0
  -22.6937   -4.6984   22.7687 C   0  0  0  0  0  0  0  0  0  0  0  0
  -25.0987  -11.4353   21.1227 C   0  0  0  0  0  0  0  0  0  0  0  0
  -24.8323  -13.4422   20.2645 C   0  0  0  0  0  0  0  0  0  0  0  0
  -28.3412  -25.4205   20.5342 C   0  0  0  0  0  0  0  0  0  0  0  0
  -28.6080  -25.7266   19.2537 C   0  0  0  0  0  0  0  0  0  0  0  0
  -22.6970  -12.3397   20.9527 C   0  0  0  0  0  0  0  0  0  0  0  0
  -23.0721  -32.2026   22.5124 C   0  0  0  0  0  0  0  0  0  0  0  0
  -21.5594  -29.9701   24.3151 C   0  0  0  0  0  0  0  0  0  0  0  0
  -22.3495  -26.7410   25.7174 C   0  0  0  0  0  0  0  0  0  0  0  0
  -29.1605  -16.9431   20.3799 C   0  0  0  0  0  0  0  0  0  0  0  0
  -21.9809  -36.7840   20.5430 C   0  0  0  0  0  0  0  0  0  0  0  0
  -22.7818  -30.3276   20.8522 C   0  0  0  0  0  0  0  0  0  0  0  0
  -23.8418  -29.3526   23.4349 C   0  0  0  0  0  0  0  0  0  0  0  0
  -21.4916  -35.9625   21.7330 C   0  0  0  0  0  0  0  0  0  0  0  0
  -29.6890  -13.7601   18.8744 C   0  0  0  0  0  0  0  0  0  0  0  0
  -28.9001  -24.9045   23.2984 C   0  0  0  0  0  0  0  0  0  0  0  0
  -22.6739  -35.4311   22.5371 C   0  0  0  0  0  0  0  0  0  0  0  0
  -28.6963  -26.3393   22.8251 C   0  0  0  0  0  0  0  0  0  0  0  0
  -28.4615  -12.9503   19.2980 C   0  0  0  0  0  0  0  0  0  0  0  0
  -30.1573  -14.7018   19.9824 C   0  0  0  0  0  0  0  0  0  0  0  0
  -27.8918  -14.7788   20.9471 C   0  0  0  0  0  0  0  0  0  0  0  0
  -29.4573  -24.0243   22.1844 C   0  0  0  0  0  0  0  0  0  0  0  0
  -23.5467  -34.5010   21.6858 C   0  0  1  0  0  0  0  0  0  0  0  0
  -27.8272  -26.3954   21.5696 C   0  0  1  0  0  0  0  0  0  1  0  0
  -22.3404  -30.9327   22.1813 C   0  0  1  0  0  0  0  0  0  0  0  0
  -27.3440  -13.8630   19.8403 C   0  0  2  0  0  0  0  0  0  0  0  0
  -27.4867  -18.8719   23.3544 C   0  0  0  0  0  0  0  0  0  0  0  0
  -27.8534  -21.9997   18.5076 C   0  0  0  0  0  0  0  0  0  0  0  0
  -28.2177  -19.1355   18.3892 C   0  0  0  0  0  0  0  0  0  0  0  0
  -20.8585  -24.8134   26.3163 C   0  0  0  0  0  0  0  0  0  0  0  0
  -21.5612  -31.2106   27.1027 C   0  0  0  0  0  0  0  0  0  0  0  0
  -21.6365  -28.8969   28.0563 C   0  0  0  0  0  0  0  0  0  0  0  0
  -19.6869  -29.6113   26.6737 C   0  0  0  0  0  0  0  0  0  0  0  0
  -23.8976  -24.8682   24.0278 C   0  0  0  0  0  0  0  0  0  0  0  0
  -27.3058  -23.2885   21.0632 C   0  0  0  0  0  0  0  0  0  0  0  0
  -21.9101  -29.1769   25.5508 C   0  0  1  0  0  0  0  0  0  0  0  0
  -21.7985  -25.3980   25.2734 C   0  0  2  0  0  0  0  0  0  0  0  0
  -21.2187  -29.7327   26.8277 C   0  0  0  0  0  0  0  0  0  0  0  0
  -26.3368  -11.8397   20.8270 N   0  0  0  0  0  0  0  0  0  0  0  0
  -26.1418  -13.0634   20.3066 N   0  0  0  0  0  0  0  0  0  0  0  0
  -22.5359  -30.0207   23.3101 N   0  0  0  0  0  0  0  0  0  0  0  0
  -29.0470  -15.5381   20.4436 N   0  0  0  0  0  0  0  0  0  0  0  0
  -24.4591  -14.6423   19.7718 N   0  0  0  0  0  0  0  0  0  0  0  0
  -22.1401  -12.8094   22.1501 N   0  0  0  0  0  0  0  0  0  0  0  0
  -28.0296  -17.6332   20.8153 N   0  0  0  0  0  0  0  0  0  0  0  0
  -22.9283  -33.1981   21.5649 N   0  0  0  0  0  0  0  0  0  0  0  0
  -21.5823  -27.7874   25.2506 N   0  0  0  0  0  0  0  0  0  0  0  0
  -28.5935  -24.0564   20.9447 N   0  3  1  0  0  0  0  0  0  0  0  0
  -22.9099  -24.4311   25.0478 N   0  3  0  0  0  0  0  0  0  0  0  0
  -21.9421  -11.8736   20.0659 O   0  0  0  0  0  0  0  0  0  0  0  0
  -23.7181  -32.2745   23.5512 O   0  0  0  0  0  0  0  0  0  0  0  0
  -20.4569  -30.5184   24.2410 O   0  0  0  0  0  0  0  0  0  0  0  0
  -23.3573  -26.8508   26.4122 O   0  0  0  0  0  0  0  0  0  0  0  0
  -30.1750  -17.4931   19.9438 O   0  0  0  0  0  0  0  0  0  0  0  0
  -24.2629   -6.4055   23.4183 O   0  0  0  0  0  0  0  0  0  0  0  0
  -27.8121  -27.7322   21.0792 O   0  0  0  0  0  0  0  0  0  1  0  0
  -19.1247   -4.4049   23.4113 F   0  0  0  0  0  0  0  0  0  0  0  0
  -23.6705   -4.0222   22.1487 F   0  0  0  0  0  0  0  0  0  0  0  0
  1  2  1  0  0  0  0
  1  5  2  0  0  0  0
  2  6  2  0  0  0  0
  3  8  2  0  0  0  0
  3 16  1  0  0  0  0
  4  9  1  0  0  0  0
  4 16  2  0  0  0  0
  5 18  1  0  0  0  0
  6 20  1  0  0  0  0
  7 10  2  0  0  0  0
  7 19  1  0  0  0  0
  8 27  1  0  0  0  0
  9 27  2  0  0  0  0
 10 28  1  0  0  0  0
 11 12  2  0  0  0  0
 11 29  1  0  0  0  0
 12 30  1  0  0  0  0
 13 21  1  0  0  0  0
 13 28  2  0  0  0  0
 14 22  1  0  0  0  0
 14 23  2  0  0  0  0
 15 30  2  0  0  0  0
 15 31  1  0  0  0  0
 16 32  1  0  0  0  0
 17 32  1  0  0  0  0
 17 33  2  0  0  0  0
 17 36  1  0  0  0  0
 18 20  2  0  0  0  0
 18 41  1  0  0  0  0
 19 21  2  0  0  0  0
 19 42  1  0  0  0  0
 20 53  1  0  0  0  0
 21 43  1  0  0  0  0
 22 24  2  0  0  0  0
 22 65  1  0  0  0  0
 23 26  1  0  0  0  0
 23 57  1  0  0  0  0
 24 25  1  0  0  0  0
 24 58  1  0  0  0  0
 25 26  2  0  0  0  0
 25 59  1  0  0  0  0
 26 75  1  0  0  0  0
 27 85  1  0  0  0  0
 28 86  1  0  0  0  0
 29 31  2  0  0  0  0
 29 85  1  0  0  0  0
 30 87  1  0  0  0  0
 31 88  1  0  0  0  0
 32 69  2  0  0  0  0
 33 70  1  0  0  0  0
 33 73  1  0  0  0  0
 34 35  2  0  0  0  0
 34 54  1  0  0  0  0
 34 78  1  0  0  0  0
 36 74  1  0  0  0  0
 36 80  2  0  0  0  0
 37 55  1  0  0  0  0
 37 76  1  0  0  0  0
 37 81  2  0  0  0  0
 38 66  1  0  0  0  0
 38 71  1  0  0  0  0
 38 82  2  0  0  0  0
 39 67  1  0  0  0  0
 39 77  1  0  0  0  0
 39 83  2  0  0  0  0
 40 72  1  0  0  0  0
 40 75  1  0  0  0  0
 40 84  2  0  0  0  0
 41 44  1  0  0  0  0
 42 55  1  0  0  0  0
 43 71  1  0  0  0  0
 44 47  1  0  0  0  0
 45 49  1  0  0  0  0
 45 50  1  0  0  0  0
 46 48  1  0  0  0  0
 46 52  1  0  0  0  0
 47 53  1  0  0  0  0
 48 54  1  0  0  0  0
 49 56  1  0  0  0  0
 50 72  1  0  0  0  0
 51 56  1  0  0  0  0
 51 72  1  0  0  0  0
 52 78  1  0  0  0  0
 53 76  1  0  0  0  0
 54 86  1  0  0  0  0
 55 71  1  0  0  0  0
 56 70  1  0  0  0  0
 60 67  1  0  0  0  0
 61 68  1  0  0  0  0
 62 68  1  0  0  0  0
 63 68  1  0  0  0  0
 64 79  1  0  0  0  0
 65 78  1  0  0  0  0
 66 68  1  0  0  0  0
 66 77  1  0  0  0  0
 67 79  1  0  0  0  0
 69 70  1  0  0  0  0
M  CHG  2  78   1  79   1
M  ISO  4  40 100  54 101  75 100  86 101
M  END
> <Batch ID>
0036

> <Smiles>
C=C1N(Cc2cc(C)c([100NH:0][100C:0](=O)N3CCCC(n4nc(-c5ccc(Oc6ccc(F)cc6F)cc5)c(C(N)=O)c4N)C3)c(C)c2C)CCC[101CH:1]1[101O:1]c1ccc2c(c1)CN(C(=O)C(NC(=O)C(C)NC)C(C)(C)C)C(C(=O)NC1CCCc3ccccc31)C2

> <Shape>
0.258

> <Color>
0.128

> <Negative vol penalty>
0.000

$$$$

  -OEChem-04042321543D

 86 95  0     1  0  0  0  0  0999 V2000
  -25.1507  -35.7344   21.9901 C   0  0  0  0  0  0  0  0  0  0  0  0
  -25.8732  -34.5460   21.9542 C   0  0  0  0  0  0  0  0  0  0  0  0
  -23.9597  -10.7867   23.5444 C   0  0  0  0  0  0  0  0  0  0  0  0
  -24.5858   -9.2508   21.7877 C   0  0  0  0  0  0  0  0  0  0  0  0
  -23.8502  -35.7433   22.4928 C   0  0  0  0  0  0  0  0  0  0  0  0
  -25.2959  -33.3661   22.4221 C   0  0  0  0  0  0  0  0  0  0  0  0
  -26.1052  -29.4448   19.3215 C   0  0  0  0  0  0  0  0  0  0  0  0
  -30.6403  -20.1763   20.5539 C   0  0  0  0  0  0  0  0  0  0  0  0
  -30.3785  -18.8524   20.2014 C   0  0  0  0  0  0  0  0  0  0  0  0
  -23.5781   -9.7123   24.3479 C   0  0  0  0  0  0  0  0  0  0  0  0
  -24.2043   -8.1763   22.5913 C   0  0  0  0  0  0  0  0  0  0  0  0
  -27.3613  -28.8419   19.3720 C   0  0  0  0  0  0  0  0  0  0  0  0
  -21.3307   -6.6527   23.5143 C   0  0  0  0  0  0  0  0  0  0  0  0
  -20.5693   -5.6424   22.9268 C   0  0  0  0  0  0  0  0  0  0  0  0
  -26.4558  -27.0853   20.7554 C   0  0  0  0  0  0  0  0  0  0  0  0
  -22.2946   -4.0355   23.4542 C   0  0  0  0  0  0  0  0  0  0  0  0
  -24.4634  -10.5560   22.2643 C   0  0  0  0  0  0  0  0  0  0  0  0
  -24.0439  -12.7247   20.9883 C   0  0  0  0  0  0  0  0  0  0  0  0
  -23.2533  -34.5611   22.9581 C   0  0  0  0  0  0  0  0  0  0  0  0
  -25.0156  -28.8774   19.9978 C   0  0  0  0  0  0  0  0  0  0  0  0
  -23.9868  -33.3595   22.9328 C   0  0  0  0  0  0  0  0  0  0  0  0
  -25.1864  -27.6816   20.7098 C   0  0  0  0  0  0  0  0  0  0  0  0
  -29.5897  -21.0278   20.8958 C   0  0  0  0  0  0  0  0  0  0  0  0
  -28.2773  -20.5554   20.8849 C   0  0  0  0  0  0  0  0  0  0  0  0
  -28.0155  -19.2315   20.5324 C   0  0  0  0  0  0  0  0  0  0  0  0
  -29.0662  -18.3799   20.1906 C   0  0  0  0  0  0  0  0  0  0  0  0
  -23.7004   -8.4071   23.8714 C   0  0  0  0  0  0  0  0  0  0  0  0
  -27.5374  -27.6635   20.0913 C   0  0  0  0  0  0  0  0  0  0  0  0
  -22.5741   -6.3544   24.0717 C   0  0  0  0  0  0  0  0  0  0  0  0
  -21.0512   -4.3338   22.8968 C   0  0  0  0  0  0  0  0  0  0  0  0
  -23.0560   -5.0458   24.0416 C   0  0  0  0  0  0  0  0  0  0  0  0
  -24.8572  -11.6655   21.4336 C   0  0  0  0  0  0  0  0  0  0  0  0
  -24.8836  -13.5098   20.2366 C   0  0  0  0  0  0  0  0  0  0  0  0
  -22.6537  -12.9766   21.2325 C   0  0  0  0  0  0  0  0  0  0  0  0
  -23.0984  -29.8203   22.3512 C   0  0  0  0  0  0  0  0  0  0  0  0
  -21.5310  -27.0675   21.6529 C   0  0  0  0  0  0  0  0  0  0  0  0
  -22.4177  -23.6673   20.8347 C   0  0  0  0  0  0  0  0  0  0  0  0
  -29.7673  -16.0710   19.4669 C   0  0  0  0  0  0  0  0  0  0  0  0
  -21.8620  -34.6291   23.5363 C   0  0  0  0  0  0  0  0  0  0  0  0
  -23.6612  -29.5258   19.9114 C   0  0  0  0  0  0  0  0  0  0  0  0
  -24.0443  -27.0213   21.4364 C   0  0  0  0  0  0  0  0  0  0  0  0
  -21.1888  -33.2652   23.6659 C   0  0  0  0  0  0  0  0  0  0  0  0
  -29.5743  -12.6370   18.5463 C   0  0  0  0  0  0  0  0  0  0  0  0
  -30.1106  -24.3426   17.9558 C   0  0  0  0  0  0  0  0  0  0  0  0
  -22.1465  -32.2542   24.2883 C   0  0  0  0  0  0  0  0  0  0  0  0
  -28.2630  -12.1653   19.1788 C   0  0  0  0  0  0  0  0  0  0  0  0
  -29.8431  -25.7531   18.4642 C   0  0  0  0  0  0  0  0  0  0  0  0
  -30.3021  -13.6445   19.4345 C   0  0  0  0  0  0  0  0  0  0  0  0
  -28.1830  -14.3232   20.4919 C   0  0  0  0  0  0  0  0  0  0  0  0
  -30.5699  -23.4190   19.0750 C   0  0  0  0  0  0  0  0  0  0  0  0
  -29.3261  -24.8145   20.7470 C   0  0  0  0  0  0  0  0  0  0  0  0
  -23.3863  -32.0543   23.4082 C   0  0  1  0  0  0  0  0  0  0  0  0
  -22.7382  -29.1371   21.0623 C   0  0  1  0  0  0  0  0  0  0  0  0
  -27.3821  -13.3563   19.6045 C   0  0  2  0  0  0  0  0  0  0  0  0
  -28.8647  -25.7468   19.6346 C   0  0  1  0  0  0  0  0  0  1  0  0
  -27.1526  -21.4711   21.2521 C   0  0  0  0  0  0  0  0  0  0  0  0
  -26.6064  -18.7266   20.5215 C   0  0  0  0  0  0  0  0  0  0  0  0
  -21.1814  -21.9331   19.5075 C   0  0  0  0  0  0  0  0  0  0  0  0
  -20.4688  -26.1653   24.3672 C   0  0  0  0  0  0  0  0  0  0  0  0
  -20.6601  -23.7973   23.5769 C   0  0  0  0  0  0  0  0  0  0  0  0
  -19.1267  -25.3803   22.4083 C   0  0  0  0  0  0  0  0  0  0  0  0
  -24.7107  -23.2634   19.0076 C   0  0  0  0  0  0  0  0  0  0  0  0
  -29.8990  -22.4471   21.2710 C   0  0  0  0  0  0  0  0  0  0  0  0
  -21.6255  -25.6353   22.1206 C   0  0  1  0  0  0  0  0  0  0  0  0
  -22.2739  -22.9907   19.4834 C   0  0  2  0  0  0  0  0  0  0  0  0
  -20.4929  -25.2617   23.1182 C   0  0  0  0  0  0  0  0  0  0  0  0
  -26.1168  -11.7654   21.0007 N   0  0  0  0  0  0  0  0  0  0  0  0
  -26.1013  -12.8967   20.2755 N   0  0  0  0  0  0  0  0  0  0  0  0
  -22.7408  -27.6970   21.3272 N   0  0  0  0  0  0  0  0  0  0  0  0
  -29.4073  -14.7467   19.7943 N   0  0  0  0  0  0  0  0  0  0  0  0
  -24.6917  -14.6578   19.5527 N   0  0  0  0  0  0  0  0  0  0  0  0
  -21.9397  -12.0690   22.0267 N   0  0  0  0  0  0  0  0  0  0  0  0
  -28.8235  -17.0315   19.8294 N   0  0  0  0  0  0  0  0  0  0  0  0
  -23.0744  -31.2003   22.2823 N   0  0  0  0  0  0  0  0  0  0  0  0
  -21.6555  -24.8135   20.9156 N   0  0  0  0  0  0  0  0  0  0  0  0
  -29.5506  -23.4320   20.1893 N   0  3  2  0  0  0  0  0  0  0  0  0
  -23.5542  -22.3350   19.0935 N   0  3  0  0  0  0  0  0  0  0  0  0
  -22.0582  -13.9681   20.7469 O   0  0  0  0  0  0  0  0  0  0  0  0
  -23.3759  -29.1455   23.3357 O   0  0  0  0  0  0  0  0  0  0  0  0
  -20.4239  -27.6056   21.5723 O   0  0  0  0  0  0  0  0  0  0  0  0
  -23.1317  -23.2214   21.7302 O   0  0  0  0  0  0  0  0  0  0  0  0
  -30.8218  -16.3311   18.8819 O   0  0  0  0  0  0  0  0  0  0  0  0
  -23.3285   -7.3584   24.6552 O   0  0  0  0  0  0  0  0  0  0  0  0
  -28.7625  -27.0733   20.1427 O   0  0  0  0  0  0  0  0  0  1  0  0
  -20.3193   -3.3634   22.3340 F   0  0  0  0  0  0  0  0  0  0  0  0
  -24.2493   -4.7529   24.5765 F   0  0  0  0  0  0  0  0  0  0  0  0
  1  2  1  0  0  0  0
  1  5  2  0  0  0  0
  2  6  2  0  0  0  0
  3 10  2  0  0  0  0
  3 17  1  0  0  0  0
  4 11  1  0  0  0  0
  4 17  2  0  0  0  0
  5 19  1  0  0  0  0
  6 21  1  0  0  0  0
  7 12  2  0  0  0  0
  7 20  1  0  0  0  0
  8  9  2  0  0  0  0
  8 23  1  0  0  0  0
  9 26  1  0  0  0  0
 10 27  1  0  0  0  0
 11 27  2  0  0  0  0
 12 28  1  0  0  0  0
 13 14  2  0  0  0  0
 13 29  1  0  0  0  0
 14 30  1  0  0  0  0
 15 22  1  0  0  0  0
 15 28  2  0  0  0  0
 16 30  2  0  0  0  0
 16 31  1  0  0  0  0
 17 32  1  0  0  0  0
 18 32  1  0  0  0  0
 18 33  2  0  0  0  0
 18 34  1  0  0  0  0
 19 21  2  0  0  0  0
 19 39  1  0  0  0  0
 20 22  2  0  0  0  0
 20 40  1  0  0  0  0
 21 52  1  0  0  0  0
 22 41  1  0  0  0  0
 23 24  2  0  0  0  0
 23 63  1  0  0  0  0
 24 25  1  0  0  0  0
 24 56  1  0  0  0  0
 25 26  2  0  0  0  0
 25 57  1  0  0  0  0
 26 73  1  0  0  0  0
 27 83  1  0  0  0  0
 28 84  1  0  0  0  0
 29 31  2  0  0  0  0
 29 83  1  0  0  0  0
 30 85  1  0  0  0  0
 31 86  1  0  0  0  0
 32 67  2  0  0  0  0
 33 68  1  0  0  0  0
 33 71  1  0  0  0  0
 34 72  1  0  0  0  0
 34 78  2  0  0  0  0
 35 53  1  0  0  0  0
 35 74  1  0  0  0  0
 35 79  2  0  0  0  0
 36 64  1  0  0  0  0
 36 69  1  0  0  0  0
 36 80  2  0  0  0  0
 37 65  1  0  0  0  0
 37 75  1  0  0  0  0
 37 81  2  0  0  0  0
 38 70  1  0  0  0  0
 38 73  1  0  0  0  0
 38 82  2  0  0  0  0
 39 42  1  0  0  0  0
 40 53  1  0  0  0  0
 41 69  1  0  0  0  0
 42 45  1  0  0  0  0
 43 46  1  0  0  0  0
 43 48  1  0  0  0  0
 44 47  1  0  0  0  0
 44 50  1  0  0  0  0
 45 52  1  0  0  0  0
 46 54  1  0  0  0  0
 47 55  1  0  0  0  0
 48 70  1  0  0  0  0
 49 54  1  0  0  0  0
 49 70  1  0  0  0  0
 50 76  1  0  0  0  0
 51 55  1  0  0  0  0
 51 76  1  0  0  0  0
 52 74  1  0  0  0  0
 53 69  1  0  0  0  0
 54 68  1  0  0  0  0
 55 84  1  0  0  0  0
 58 65  1  0  0  0  0
 59 66  1  0  0  0  0
 60 66  1  0  0  0  0
 61 66  1  0  0  0  0
 62 77  1  0  0  0  0
 63 76  1  0  0  0  0
 64 66  1  0  0  0  0
 64 75  1  0  0  0  0
 65 77  1  0  0  0  0
 67 68  1  0  0  0  0
M  CHG  2  76   1  77   1
M  ISO  4  38 100  55 101  73 100  84 101
M  END
> <Batch ID>
0036

> <Smiles>
CNC(C)C(=O)NC(C(=O)N1Cc2cc([101O:1][101CH:1]3CCCN(Cc4ccc([100NH:0][100C:0](=O)N5CCCC(n6nc(-c7ccc(Oc8ccc(F)cc8F)cc7)c(C(N)=O)c6N)C5)c(C)c4C)C3)ccc2CC1C(=O)NC1CCCc2ccccc21)C(C)(C)C

> <Shape>
0.338

> <Color>
0.154

> <Negative vol penalty>
0.000

$$$$

  -OEChem-04042321543D

 88 97  0     1  0  0  0  0  0999 V2000
  -25.1506  -35.7343   21.9900 C   0  0  0  0  0  0  0  0  0  0  0  0
  -25.8731  -34.5460   21.9542 C   0  0  0  0  0  0  0  0  0  0  0  0
  -23.9598  -10.7866   23.5441 C   0  0  0  0  0  0  0  0  0  0  0  0
  -24.5859   -9.2507   21.7874 C   0  0  0  0  0  0  0  0  0  0  0  0
  -23.8502  -35.7432   22.4927 C   0  0  0  0  0  0  0  0  0  0  0  0
  -25.2959  -33.3660   22.4221 C   0  0  0  0  0  0  0  0  0  0  0  0
  -26.1052  -29.4448   19.3214 C   0  0  0  0  0  0  0  0  0  0  0  0
  -30.6404  -20.1763   20.5538 C   0  0  0  0  0  0  0  0  0  0  0  0
  -30.3786  -18.8524   20.2012 C   0  0  0  0  0  0  0  0  0  0  0  0
  -23.5782   -9.7122   24.3476 C   0  0  0  0  0  0  0  0  0  0  0  0
  -24.2044   -8.1762   22.5909 C   0  0  0  0  0  0  0  0  0  0  0  0
  -27.3613  -28.8419   19.3719 C   0  0  0  0  0  0  0  0  0  0  0  0
  -21.3308   -6.6526   23.5139 C   0  0  0  0  0  0  0  0  0  0  0  0
  -20.5694   -5.6423   22.9264 C   0  0  0  0  0  0  0  0  0  0  0  0
  -26.4558  -27.0853   20.7553 C   0  0  0  0  0  0  0  0  0  0  0  0
  -22.2948   -4.0354   23.4538 C   0  0  0  0  0  0  0  0  0  0  0  0
  -24.4636  -10.5559   22.2640 C   0  0  0  0  0  0  0  0  0  0  0  0
  -24.0440  -12.7247   20.9881 C   0  0  0  0  0  0  0  0  0  0  0  0
  -23.2532  -34.5610   22.9581 C   0  0  0  0  0  0  0  0  0  0  0  0
  -25.0156  -28.8774   19.9977 C   0  0  0  0  0  0  0  0  0  0  0  0
  -23.9867  -33.3594   22.9327 C   0  0  0  0  0  0  0  0  0  0  0  0
  -25.1864  -27.6816   20.7097 C   0  0  0  0  0  0  0  0  0  0  0  0
  -29.5897  -21.0278   20.8956 C   0  0  0  0  0  0  0  0  0  0  0  0
  -28.2774  -20.5554   20.8848 C   0  0  0  0  0  0  0  0  0  0  0  0
  -28.0156  -19.2314   20.5322 C   0  0  0  0  0  0  0  0  0  0  0  0
  -29.0662  -18.3799   20.1904 C   0  0  0  0  0  0  0  0  0  0  0  0
  -23.7006   -8.4070   23.8710 C   0  0  0  0  0  0  0  0  0  0  0  0
  -27.5374  -27.6635   20.0912 C   0  0  0  0  0  0  0  0  0  0  0  0
  -22.5742   -6.3543   24.0713 C   0  0  0  0  0  0  0  0  0  0  0  0
  -21.0514   -4.3337   22.8964 C   0  0  0  0  0  0  0  0  0  0  0  0
  -23.0562   -5.0457   24.0412 C   0  0  0  0  0  0  0  0  0  0  0  0
  -24.8573  -11.6654   21.4333 C   0  0  0  0  0  0  0  0  0  0  0  0
  -24.8837  -13.5098   20.2363 C   0  0  0  0  0  0  0  0  0  0  0  0
  -22.6538  -12.9765   21.2322 C   0  0  0  0  0  0  0  0  0  0  0  0
  -23.0983  -29.8203   22.3511 C   0  0  0  0  0  0  0  0  0  0  0  0
  -21.5310  -27.0674   21.6527 C   0  0  0  0  0  0  0  0  0  0  0  0
  -22.4177  -23.6672   20.8345 C   0  0  0  0  0  0  0  0  0  0  0  0
  -29.7674  -16.0710   19.4667 C   0  0  0  0  0  0  0  0  0  0  0  0
  -21.8619  -34.6290   23.5362 C   0  0  0  0  0  0  0  0  0  0  0  0
  -23.6612  -29.5257   19.9113 C   0  0  0  0  0  0  0  0  0  0  0  0
  -24.0442  -27.0212   21.4363 C   0  0  0  0  0  0  0  0  0  0  0  0
  -21.1888  -33.2651   23.6658 C   0  0  0  0  0  0  0  0  0  0  0  0
  -29.5744  -12.6371   18.5460 C   0  0  0  0  0  0  0  0  0  0  0  0
  -30.1106  -24.3427   17.9557 C   0  0  0  0  0  0  0  0  0  0  0  0
  -22.1464  -32.2541   24.2882 C   0  0  0  0  0  0  0  0  0  0  0  0
  -28.2631  -12.1653   19.1785 C   0  0  0  0  0  0  0  0  0  0  0  0
  -29.8431  -25.7531   18.4641 C   0  0  0  0  0  0  0  0  0  0  0  0
  -30.3022  -13.6445   19.4343 C   0  0  0  0  0  0  0  0  0  0  0  0
  -28.1831  -14.3231   20.4916 C   0  0  0  0  0  0  0  0  0  0  0  0
  -30.5700  -23.4191   19.0749 C   0  0  0  0  0  0  0  0  0  0  0  0
  -29.3261  -24.8144   20.7469 C   0  0  0  0  0  0  0  0  0  0  0  0
  -23.3862  -32.0542   23.4082 C   0  0  1  0  0  0  0  0  0  0  0  0
  -22.7382  -29.1371   21.0622 C   0  0  1  0  0  0  0  0  0  0  0  0
  -27.3822  -13.3563   19.6042 C   0  0  2  0  0  0  0  0  0  0  0  0
  -28.8647  -25.7468   19.6345 C   0  0  1  0  0  0  0  0  0  1  0  0
  -27.1526  -21.4710   21.2520 C   0  0  0  0  0  0  0  0  0  0  0  0
  -26.3862  -17.5898   21.5341 C   0  0  0  0  0  0  0  0  0  0  0  0
  -26.1581  -18.2781   19.1197 C   0  0  0  0  0  0  0  0  0  0  0  0
  -21.1814  -21.9330   19.5073 C   0  0  0  0  0  0  0  0  0  0  0  0
  -20.4687  -26.1651   24.3670 C   0  0  0  0  0  0  0  0  0  0  0  0
  -20.6600  -23.7972   23.5767 C   0  0  0  0  0  0  0  0  0  0  0  0
  -19.1267  -25.3802   22.4081 C   0  0  0  0  0  0  0  0  0  0  0  0
  -24.7108  -23.2634   19.0075 C   0  0  0  0  0  0  0  0  0  0  0  0
  -29.8991  -22.4471   21.2709 C   0  0  0  0  0  0  0  0  0  0  0  0
  -26.6064  -18.7266   20.5213 C   0  0  0  0  0  0  0  0  0  0  0  0
  -21.6255  -25.6352   22.1205 C   0  0  1  0  0  0  0  0  0  0  0  0
  -22.2740  -22.9906   19.4832 C   0  0  2  0  0  0  0  0  0  0  0  0
  -20.4929  -25.2616   23.1180 C   0  0  0  0  0  0  0  0  0  0  0  0
  -26.1169  -11.7653   21.0004 N   0  0  0  0  0  0  0  0  0  0  0  0
  -26.1014  -12.8967   20.2752 N   0  0  0  0  0  0  0  0  0  0  0  0
  -22.7408  -27.6969   21.3271 N   0  0  0  0  0  0  0  0  0  0  0  0
  -29.4074  -14.7467   19.7941 N   0  0  0  0  0  0  0  0  0  0  0  0
  -24.6918  -14.6577   19.5524 N   0  0  0  0  0  0  0  0  0  0  0  0
  -21.9398  -12.0689   22.0264 N   0  0  0  0  0  0  0  0  0  0  0  0
  -28.8236  -17.0315   19.8292 N   0  0  0  0  0  0  0  0  0  0  0  0
  -23.0744  -31.2002   22.2822 N   0  0  0  0  0  0  0  0  0  0  0  0
  -21.6555  -24.8134   20.9154 N   0  0  0  0  0  0  0  0  0  0  0  0
  -29.5506  -23.4320   20.1891 N   0  3  2  0  0  0  0  0  0  0  0  0
  -23.5542  -22.3349   19.0933 N   0  3  0  0  0  0  0  0  0  0  0  0
  -22.0583  -13.9681   20.7466 O   0  0  0  0  0  0  0  0  0  0  0  0
  -23.3758  -29.1454   23.3356 O   0  0  0  0  0  0  0  0  0  0  0  0
  -20.4239  -27.6055   21.5722 O   0  0  0  0  0  0  0  0  0  0  0  0
  -23.1317  -23.2214   21.7300 O   0  0  0  0  0  0  0  0  0  0  0  0
  -30.8219  -16.3312   18.8817 O   0  0  0  0  0  0  0  0  0  0  0  0
  -23.3286   -7.3583   24.6549 O   0  0  0  0  0  0  0  0  0  0  0  0
  -28.7625  -27.0732   20.1427 O   0  0  0  0  0  0  0  0  0  1  0  0
  -20.3194   -3.3633   22.3335 F   0  0  0  0  0  0  0  0  0  0  0  0
  -24.2495   -4.7528   24.5762 F   0  0  0  0  0  0  0  0  0  0  0  0
  1  2  1  0  0  0  0
  1  5  2  0  0  0  0
  2  6  2  0  0  0  0
  3 10  2  0  0  0  0
  3 17  1  0  0  0  0
  4 11  1  0  0  0  0
  4 17  2  0  0  0  0
  5 19  1  0  0  0  0
  6 21  1  0  0  0  0
  7 12  2  0  0  0  0
  7 20  1  0  0  0  0
  8  9  2  0  0  0  0
  8 23  1  0  0  0  0
  9 26  1  0  0  0  0
 10 27  1  0  0  0  0
 11 27  2  0  0  0  0
 12 28  1  0  0  0  0
 13 14  2  0  0  0  0
 13 29  1  0  0  0  0
 14 30  1  0  0  0  0
 15 22  1  0  0  0  0
 15 28  2  0  0  0  0
 16 30  2  0  0  0  0
 16 31  1  0  0  0  0
 17 32  1  0  0  0  0
 18 32  1  0  0  0  0
 18 33  2  0  0  0  0
 18 34  1  0  0  0  0
 19 21  2  0  0  0  0
 19 39  1  0  0  0  0
 20 22  2  0  0  0  0
 20 40  1  0  0  0  0
 21 52  1  0  0  0  0
 22 41  1  0  0  0  0
 23 24  2  0  0  0  0
 23 64  1  0  0  0  0
 24 25  1  0  0  0  0
 24 56  1  0  0  0  0
 25 26  2  0  0  0  0
 25 65  1  0  0  0  0
 26 75  1  0  0  0  0
 27 85  1  0  0  0  0
 28 86  1  0  0  0  0
 29 31  2  0  0  0  0
 29 85  1  0  0  0  0
 30 87  1  0  0  0  0
 31 88  1  0  0  0  0
 32 69  2  0  0  0  0
 33 70  1  0  0  0  0
 33 73  1  0  0  0  0
 34 74  1  0  0  0  0
 34 80  2  0  0  0  0
 35 53  1  0  0  0  0
 35 76  1  0  0  0  0
 35 81  2  0  0  0  0
 36 66  1  0  0  0  0
 36 71  1  0  0  0  0
 36 82  2  0  0  0  0
 37 67  1  0  0  0  0
 37 77  1  0  0  0  0
 37 83  2  0  0  0  0
 38 72  1  0  0  0  0
 38 75  1  0  0  0  0
 38 84  2  0  0  0  0
 39 42  1  0  0  0  0
 40 53  1  0  0  0  0
 41 71  1  0  0  0  0
 42 45  1  0  0  0  0
 43 46  1  0  0  0  0
 43 48  1  0  0  0  0
 44 47  1  0  0  0  0
 44 50  1  0  0  0  0
 45 52  1  0  0  0  0
 46 54  1  0  0  0  0
 47 55  1  0  0  0  0
 48 72  1  0  0  0  0
 49 54  1  0  0  0  0
 49 72  1  0  0  0  0
 50 78  1  0  0  0  0
 51 55  1  0  0  0  0
 51 78  1  0  0  0  0
 52 76  1  0  0  0  0
 53 71  1  0  0  0  0
 54 70  1  0  0  0  0
 55 86  1  0  0  0  0
 57 65  1  0  0  0  0
 58 65  1  0  0  0  0
 59 67  1  0  0  0  0
 60 68  1  0  0  0  0
 61 68  1  0  0  0  0
 62 68  1  0  0  0  0
 63 79  1  0  0  0  0
 64 78  1  0  0  0  0
 66 68  1  0  0  0  0
 66 77  1  0  0  0  0
 67 79  1  0  0  0  0
 69 70  1  0  0  0  0
M  CHG  2  78   1  79   1
M  ISO  4  38 100  55 101  75 100  86 101
M  END
> <Batch ID>
0036

> <Smiles>
CNC(C)C(=O)NC(C(=O)N1Cc2cc([101O:1][101CH:1]3CCCN(Cc4ccc([100NH:0][100C:0](=O)N5CCCC(n6nc(-c7ccc(Oc8ccc(F)cc8F)cc7)c(C(N)=O)c6N)C5)c(C(C)C)c4C)C3)ccc2CC1C(=O)NC1CCCc2ccccc21)C(C)(C)C

> <Shape>
0.338

> <Color>
0.151

> <Negative vol penalty>
0.000

$$$$

  -OEChem-04042321543D

 88 97  0     1  0  0  0  0  0999 V2000
  -18.5883  -27.9395   21.8185 C   0  0  0  0  0  0  0  0  0  0  0  0
  -19.6880  -27.1104   21.6220 C   0  0  0  0  0  0  0  0  0  0  0  0
  -23.1579   -9.6883   19.9714 C   0  0  0  0  0  0  0  0  0  0  0  0
  -23.6565  -10.0022   22.3145 C   0  0  0  0  0  0  0  0  0  0  0  0
  -18.4357  -28.6186   23.0266 C   0  0  0  0  0  0  0  0  0  0  0  0
  -20.6365  -26.9608   22.6332 C   0  0  0  0  0  0  0  0  0  0  0  0
  -21.9890  -22.1305   23.3289 C   0  0  0  0  0  0  0  0  0  0  0  0
  -22.4208   -8.5455   20.2813 C   0  0  0  0  0  0  0  0  0  0  0  0
  -22.9192   -8.8593   22.6244 C   0  0  0  0  0  0  0  0  0  0  0  0
  -22.8880  -21.5830   22.4147 C   0  0  0  0  0  0  0  0  0  0  0  0
  -23.3560   -5.5084   22.5193 C   0  0  0  0  0  0  0  0  0  0  0  0
  -23.9137   -4.6023   23.4214 C   0  0  0  0  0  0  0  0  0  0  0  0
  -24.6859  -21.9265   23.9859 C   0  0  0  0  0  0  0  0  0  0  0  0
  -22.0284   -4.9139   24.8998 C   0  0  0  0  0  0  0  0  0  0  0  0
  -23.7759  -10.4166   20.9880 C   0  0  0  0  0  0  0  0  0  0  0  0
  -24.0639  -12.9202   20.5922 C   0  0  0  0  0  0  0  0  0  0  0  0
  -19.3777  -28.4697   24.0567 C   0  0  0  0  0  0  0  0  0  0  0  0
  -22.4343  -22.5909   24.5764 C   0  0  0  0  0  0  0  0  0  0  0  0
  -20.4971  -27.6396   23.8557 C   0  0  0  0  0  0  0  0  0  0  0  0
  -23.7901  -22.4770   24.9152 C   0  0  0  0  0  0  0  0  0  0  0  0
  -22.3014   -8.1310   21.6078 C   0  0  0  0  0  0  0  0  0  0  0  0
  -24.2371  -21.4836   22.7419 C   0  0  0  0  0  0  0  0  0  0  0  0
  -22.1346   -6.1173   22.8076 C   0  0  0  0  0  0  0  0  0  0  0  0
  -23.2498   -4.3050   24.6116 C   0  0  0  0  0  0  0  0  0  0  0  0
  -21.4708   -5.8200   23.9978 C   0  0  0  0  0  0  0  0  0  0  0  0
  -24.5380  -11.5969   20.6684 C   0  0  0  0  0  0  0  0  0  0  0  0
  -25.1701  -13.6626   20.2582 C   0  0  0  0  0  0  0  0  0  0  0  0
  -28.1298  -18.4190   23.9759 C   0  0  0  0  0  0  0  0  0  0  0  0
  -28.1968  -18.1652   22.6598 C   0  0  0  0  0  0  0  0  0  0  0  0
  -28.1721  -19.8666   20.2369 C   0  0  0  0  0  0  0  0  0  0  0  0
  -26.9100  -19.9126   19.7855 C   0  0  0  0  0  0  0  0  0  0  0  0
  -22.7417  -13.4326   20.8044 C   0  0  0  0  0  0  0  0  0  0  0  0
  -22.4663  -25.4090   26.0464 C   0  0  0  0  0  0  0  0  0  0  0  0
  -23.5579  -23.6543   28.5468 C   0  0  0  0  0  0  0  0  0  0  0  0
  -25.1335  -20.8295   29.6353 C   0  0  0  0  0  0  0  0  0  0  0  0
  -30.5704  -14.9116   20.9077 C   0  0  0  0  0  0  0  0  0  0  0  0
  -19.1950  -29.2611   25.3275 C   0  0  0  0  0  0  0  0  0  0  0  0
  -21.4475  -23.1544   25.5619 C   0  0  0  0  0  0  0  0  0  0  0  0
  -24.3155  -22.9380   26.2494 C   0  0  0  0  0  0  0  0  0  0  0  0
  -20.0488  -28.7560   26.4877 C   0  0  0  0  0  0  0  0  0  0  0  0
  -29.9576  -20.3777   26.7574 C   0  0  0  0  0  0  0  0  0  0  0  0
  -30.7614  -19.2269   27.3539 C   0  0  0  0  0  0  0  0  0  0  0  0
  -29.7683  -12.2134   18.7277 C   0  0  0  0  0  0  0  0  0  0  0  0
  -21.4822  -28.5095   26.0279 C   0  0  0  0  0  0  0  0  0  0  0  0
  -28.7946  -19.8743   25.9044 C   0  0  0  0  0  0  0  0  0  0  0  0
  -31.2263  -18.2392   26.2843 C   0  0  0  0  0  0  0  0  0  0  0  0
  -30.5035  -16.6384   24.4356 C   0  0  0  0  0  0  0  0  0  0  0  0
  -28.2995  -11.9179   19.0365 C   0  0  0  0  0  0  0  0  0  0  0  0
  -31.2486  -17.1398   23.1881 C   0  0  0  0  0  0  0  0  0  0  0  0
  -30.5396  -12.6135   19.9835 C   0  0  0  0  0  0  0  0  0  0  0  0
  -28.4767  -13.4315   21.0554 C   0  0  0  0  0  0  0  0  0  0  0  0
  -21.5344  -27.4322   24.9379 C   0  0  1  0  0  0  0  0  0  0  0  0
  -29.2823  -18.9032   24.8158 C   0  0  1  0  0  0  0  0  0  0  0  0
  -29.4155  -18.3568   21.7861 C   0  0  1  0  0  0  0  0  0  0  0  0
  -22.0948  -24.0633   26.6022 C   0  0  1  0  0  0  0  0  0  0  0  0
  -30.0441  -17.7163   25.4466 C   0  0  2  0  0  0  0  0  0  0  0  0
  -27.6450  -13.0778   19.8107 C   0  0  2  0  0  0  0  0  0  0  0  0
  -30.4423  -17.1968   21.8673 C   0  0  2  0  0  0  0  0  0  0  0  0
  -25.9146  -19.6932   31.7320 C   0  0  0  0  0  0  0  0  0  0  0  0
  -25.9096  -25.5909   28.7175 C   0  0  0  0  0  0  0  0  0  0  0  0
  -27.1005  -23.9100   30.1403 C   0  0  0  0  0  0  0  0  0  0  0  0
  -24.9555  -24.9112   30.9270 C   0  0  0  0  0  0  0  0  0  0  0  0
  -23.3908  -18.4866   29.1530 C   0  0  0  0  0  0  0  0  0  0  0  0
  -28.9667  -18.6053   20.3369 C   0  0  0  0  0  0  0  0  0  0  0  0
  -26.1117  -21.1797   19.6610 C   0  0  0  0  0  0  0  0  0  0  0  0
  -24.8192  -21.1134   20.4660 C   0  0  0  0  0  0  0  0  0  1  0  0
  -24.9195  -23.2284   29.0405 C   0  0  1  0  0  0  0  0  0  0  0  0
  -24.7809  -19.8371   30.7286 C   0  0  2  0  0  0  0  0  0  0  0  0
  -25.7120  -24.4031   29.6803 C   0  0  0  0  0  0  0  0  0  0  0  0
  -25.8437  -11.5010   20.4039 N   0  0  0  0  0  0  0  0  0  0  0  0
  -26.1995  -12.7735   20.1582 N   0  0  0  0  0  0  0  0  0  0  0  0
  -23.3125  -23.4875   27.1765 N   0  0  0  0  0  0  0  0  0  0  0  0
  -29.8672  -13.7191   20.6701 N   0  0  0  0  0  0  0  0  0  0  0  0
  -25.3530  -14.9828   20.0432 N   0  0  0  0  0  0  0  0  0  0  0  0
  -21.7222  -12.5318   21.1413 N   0  0  0  0  0  0  0  0  0  0  0  0
  -21.4004  -26.1150   25.5223 N   0  0  0  0  0  0  0  0  0  0  0  0
  -24.6939  -22.1008   29.9382 N   0  0  0  0  0  0  0  0  0  0  0  0
  -29.8573  -15.9111   21.5582 N   0  0  0  0  0  0  0  0  0  0  0  0
  -24.5005  -18.4967   30.1407 N   0  3  0  0  0  0  0  0  0  0  0  0
  -22.4689  -14.6509   20.6824 O   0  0  0  0  0  0  0  0  0  0  0  0
  -23.6334  -25.7799   26.0912 O   0  0  0  0  0  0  0  0  0  0  0  0
  -22.7396  -24.1113   29.3488 O   0  0  0  0  0  0  0  0  0  0  0  0
  -25.7417  -20.5097   28.6163 O   0  0  0  0  0  0  0  0  0  0  0  0
  -31.7451  -15.0755   20.5608 O   0  0  0  0  0  0  0  0  0  0  0  0
  -21.5819   -7.0160   21.9107 O   0  0  0  0  0  0  0  0  0  0  0  0
  -25.1230  -20.9464   21.8448 O   0  0  0  0  0  0  0  0  0  1  0  0
  -23.7847   -3.4337   25.4770 F   0  0  0  0  0  0  0  0  0  0  0  0
  -20.2965   -6.4009   24.2796 F   0  0  0  0  0  0  0  0  0  0  0  0
  1  2  1  0  0  0  0
  1  5  2  0  0  0  0
  2  6  2  0  0  0  0
  3  8  2  0  0  0  0
  3 15  1  0  0  0  0
  4  9  1  0  0  0  0
  4 15  2  0  0  0  0
  5 17  1  0  0  0  0
  6 19  1  0  0  0  0
  7 10  2  0  0  0  0
  7 18  1  0  0  0  0
  8 21  1  0  0  0  0
  9 21  2  0  0  0  0
 10 22  1  0  0  0  0
 11 12  2  0  0  0  0
 11 23  1  0  0  0  0
 12 24  1  0  0  0  0
 13 20  1  0  0  0  0
 13 22  2  0  0  0  0
 14 24  2  0  0  0  0
 14 25  1  0  0  0  0
 15 26  1  0  0  0  0
 16 26  1  0  0  0  0
 16 27  2  0  0  0  0
 16 32  1  0  0  0  0
 17 19  2  0  0  0  0
 17 37  1  0  0  0  0
 18 20  2  0  0  0  0
 18 38  1  0  0  0  0
 19 52  1  0  0  0  0
 20 39  1  0  0  0  0
 21 85  1  0  0  0  0
 22 86  1  0  0  0  0
 23 25  2  0  0  0  0
 23 85  1  0  0  0  0
 24 87  1  0  0  0  0
 25 88  1  0  0  0  0
 26 70  2  0  0  0  0
 27 71  1  0  0  0  0
 27 74  1  0  0  0  0
 28 29  2  0  0  0  0
 28 53  1  0  0  0  0
 29 54  1  0  0  0  0
 30 31  2  0  0  0  0
 30 64  1  0  0  0  0
 31 65  1  0  0  0  0
 32 75  1  0  0  0  0
 32 80  2  0  0  0  0
 33 55  1  0  0  0  0
 33 76  1  0  0  0  0
 33 81  2  0  0  0  0
 34 67  1  0  0  0  0
 34 72  1  0  0  0  0
 34 82  2  0  0  0  0
 35 68  1  0  0  0  0
 35 77  1  0  0  0  0
 35 83  2  0  0  0  0
 36 73  1  0  0  0  0
 36 78  1  0  0  0  0
 36 84  2  0  0  0  0
 37 40  1  0  0  0  0
 38 55  1  0  0  0  0
 39 72  1  0  0  0  0
 40 44  1  0  0  0  0
 41 42  1  0  0  0  0
 41 45  1  0  0  0  0
 42 46  1  0  0  0  0
 43 48  1  0  0  0  0
 43 50  1  0  0  0  0
 44 52  1  0  0  0  0
 45 53  1  0  0  0  0
 46 56  1  0  0  0  0
 47 49  1  0  0  0  0
 47 56  1  0  0  0  0
 48 57  1  0  0  0  0
 49 58  1  0  0  0  0
 50 73  1  0  0  0  0
 51 57  1  0  0  0  0
 51 73  1  0  0  0  0
 52 76  1  0  0  0  0
 53 56  1  0  0  0  0
 54 58  1  0  0  0  0
 54 64  1  0  0  0  0
 55 72  1  0  0  0  0
 57 71  1  0  0  0  0
 58 78  1  0  0  0  0
 59 68  1  0  0  0  0
 60 69  1  0  0  0  0
 61 69  1  0  0  0  0
 62 69  1  0  0  0  0
 63 79  1  0  0  0  0
 65 66  1  0  0  0  0
 66 86  1  0  0  0  0
 67 69  1  0  0  0  0
 67 77  1  0  0  0  0
 68 79  1  0  0  0  0
 70 71  1  0  0  0  0
M  CHG  1  79   1
M  ISO  4  36 100  66 101  78 100  86 101
M  END
> <Batch ID>
0036

> <Smiles>
CNC(C)C(=O)NC(C(=O)N1Cc2cc([101O:1][101CH2:1]CC=CCC3C=CC4CCCCC4CCC3[100NH:0][100C:0](=O)N3CCCC(n4nc(-c5ccc(Oc6ccc(F)cc6F)cc5)c(C(N)=O)c4N)C3)ccc2CC1C(=O)NC1CCCc2ccccc21)C(C)(C)C

> <Shape>
0.232

> <Color>
0.212

> <Negative vol penalty>
0.000

$$$$

  -OEChem-04042321543D

 84 92  0     1  0  0  0  0  0999 V2000
  -18.0832  -25.4402   23.1861 C   0  0  0  0  0  0  0  0  0  0  0  0
  -19.4626  -25.3418   23.0342 C   0  0  0  0  0  0  0  0  0  0  0  0
  -23.9487   -9.6264   21.9987 C   0  0  0  0  0  0  0  0  0  0  0  0
  -22.1761  -10.3247   20.5130 C   0  0  0  0  0  0  0  0  0  0  0  0
  -17.4322  -26.6332   22.8749 C   0  0  0  0  0  0  0  0  0  0  0  0
  -20.1916  -26.4361   22.5700 C   0  0  0  0  0  0  0  0  0  0  0  0
  -24.4241  -27.2232   25.2369 C   0  0  0  0  0  0  0  0  0  0  0  0
  -26.7704  -21.0935   20.2936 C   0  0  0  0  0  0  0  0  0  0  0  0
  -25.7695  -20.1245   20.2240 C   0  0  0  0  0  0  0  0  0  0  0  0
  -23.4731   -8.3160   21.9503 C   0  0  0  0  0  0  0  0  0  0  0  0
  -21.7004   -9.0143   20.4646 C   0  0  0  0  0  0  0  0  0  0  0  0
  -25.5110  -26.3932   24.9658 C   0  0  0  0  0  0  0  0  0  0  0  0
  -22.5110   -4.8531   22.5034 C   0  0  0  0  0  0  0  0  0  0  0  0
  -22.4178   -4.1506   23.7048 C   0  0  0  0  0  0  0  0  0  0  0  0
  -26.4879  -28.1277   23.6032 C   0  0  0  0  0  0  0  0  0  0  0  0
  -26.7626  -20.9285   22.7040 C   0  0  0  0  0  0  0  0  0  0  0  0
  -20.8860   -5.8128   24.5579 C   0  0  0  0  0  0  0  0  0  0  0  0
  -23.3002  -10.6307   21.2801 C   0  0  0  0  0  0  0  0  0  0  0  0
  -24.7398  -12.5771   20.4758 C   0  0  0  0  0  0  0  0  0  0  0  0
  -18.1549  -27.7458   22.4159 C   0  0  0  0  0  0  0  0  0  0  0  0
  -24.3555  -28.5098   24.6833 C   0  0  0  0  0  0  0  0  0  0  0  0
  -19.5495  -27.6447   22.2512 C   0  0  0  0  0  0  0  0  0  0  0  0
  -25.4002  -28.9729   23.8708 C   0  0  0  0  0  0  0  0  0  0  0  0
  -27.2670  -21.4955   21.5336 C   0  0  0  0  0  0  0  0  0  0  0  0
  -25.2652  -19.5575   21.3944 C   0  0  0  0  0  0  0  0  0  0  0  0
  -22.3490   -8.0100   21.1832 C   0  0  0  0  0  0  0  0  0  0  0  0
  -26.5418  -26.8443   24.1466 C   0  0  0  0  0  0  0  0  0  0  0  0
  -21.7918   -6.0355   22.3292 C   0  0  0  0  0  0  0  0  0  0  0  0
  -21.6053   -4.6304   24.7320 C   0  0  0  0  0  0  0  0  0  0  0  0
  -20.9793   -6.5153   23.3565 C   0  0  0  0  0  0  0  0  0  0  0  0
  -25.7617  -19.9595   22.6344 C   0  0  0  0  0  0  0  0  0  0  0  0
  -23.7906  -11.9846   21.3301 C   0  0  0  0  0  0  0  0  0  0  0  0
  -24.8598  -13.8653   20.9367 C   0  0  0  0  0  0  0  0  0  0  0  0
  -25.4494  -12.0133   19.3648 C   0  0  0  0  0  0  0  0  0  0  0  0
  -22.3653  -29.9949   22.6991 C   0  0  0  0  0  0  0  0  0  0  0  0
  -24.1970  -32.5747   23.4147 C   0  0  0  0  0  0  0  0  0  0  0  0
  -27.2008  -33.7868   24.4891 C   0  0  0  0  0  0  0  0  0  0  0  0
  -22.0592  -18.5109   22.6372 C   0  0  0  0  0  0  0  0  0  0  0  0
  -17.4013  -28.9991   22.0473 C   0  0  0  0  0  0  0  0  0  0  0  0
  -23.1891  -29.4026   25.0070 C   0  0  0  0  0  0  0  0  0  0  0  0
  -25.3842  -30.3533   23.2685 C   0  0  0  0  0  0  0  0  0  0  0  0
  -18.2940  -30.2306   21.9177 C   0  0  0  0  0  0  0  0  0  0  0  0
  -23.1595  -16.0402   25.1644 C   0  0  0  0  0  0  0  0  0  0  0  0
  -19.5366  -29.9050   21.0951 C   0  0  0  0  0  0  0  0  0  0  0  0
  -23.4287  -14.7964   24.3191 C   0  0  0  0  0  0  0  0  0  0  0  0
  -22.0949  -16.9339   24.5355 C   0  0  0  0  0  0  0  0  0  0  0  0
  -22.6585  -16.0800   22.2844 C   0  0  0  0  0  0  0  0  0  0  0  0
  -20.3782  -28.8175   21.7739 C   0  0  1  0  0  0  0  0  0  0  0  0
  -22.9755  -30.5047   23.9740 C   0  0  1  0  0  0  0  0  0  0  0  0
  -23.7599  -15.1813   22.8667 C   0  0  2  0  0  0  0  0  0  0  0  0
  -28.4107  -35.9397   24.9349 C   0  0  0  0  0  0  0  0  0  0  0  0
  -24.5820  -32.9767   20.4146 C   0  0  0  0  0  0  0  0  0  0  0  0
  -26.5047  -34.4934   20.9352 C   0  0  0  0  0  0  0  0  0  0  0  0
  -24.2080  -35.0831   21.7100 C   0  0  0  0  0  0  0  0  0  0  0  0
  -22.5573  -20.3601   21.0842 C   0  0  0  0  0  0  0  0  0  0  0  0
  -27.5567  -33.1287   27.3525 C   0  0  0  0  0  0  0  0  0  0  0  0
  -24.1927  -18.5233   21.2769 C   0  0  0  0  0  0  0  0  0  0  0  0
  -28.3434  -22.5379   21.6085 C   0  0  0  0  0  0  0  0  0  0  0  0
  -28.8918  -24.9031   22.1949 C   0  0  0  0  0  0  0  0  0  0  0  0
  -28.2519  -26.2098   22.6206 C   0  0  0  0  0  0  0  0  0  1  0  0
  -25.4486  -33.1904   22.8373 C   0  0  1  0  0  0  0  0  0  0  0  0
  -27.5498  -34.8359   25.5293 C   0  0  2  0  0  0  0  0  0  0  0  0
  -25.1855  -33.9091   21.4839 C   0  0  0  0  0  0  0  0  0  0  0  0
  -23.3399  -12.8273   22.2633 N   0  0  0  0  0  0  0  0  0  0  0  0
  -24.0087  -13.9623   21.9980 N   0  0  0  0  0  0  0  0  0  0  0  0
  -24.2192  -31.1863   23.6094 N   0  0  0  0  0  0  0  0  0  0  0  0
  -22.4127  -17.2489   23.1423 N   0  0  0  0  0  0  0  0  0  0  0  0
  -25.6094  -14.9132   20.5337 N   0  0  0  0  0  0  0  0  0  0  0  0
  -25.2067  -10.6750   19.0266 N   0  0  0  0  0  0  0  0  0  0  0  0
  -21.1404  -29.3782   22.8689 N   0  0  0  0  0  0  0  0  0  0  0  0
  -25.9948  -34.0558   23.8771 N   0  0  0  0  0  0  0  0  0  0  0  0
  -22.8763  -19.0492   21.6316 N   0  0  0  0  0  0  0  0  0  0  0  0
  -28.2960  -34.2156   26.6604 N   0  3  0  0  0  0  0  0  0  0  0  0
  -27.8396  -23.8653   22.0533 N   0  3  0  0  0  0  0  0  0  0  0  0
  -26.2865  -12.6719   18.7021 O   0  0  0  0  0  0  0  0  0  0  0  0
  -22.9609  -30.1509   21.6395 O   0  0  0  0  0  0  0  0  0  0  0  0
  -23.2377  -33.2998   23.6896 O   0  0  0  0  0  0  0  0  0  0  0  0
  -27.9273  -32.8269   24.2413 O   0  0  0  0  0  0  0  0  0  0  0  0
  -21.0751  -19.1259   23.0677 O   0  0  0  0  0  0  0  0  0  0  0  0
  -21.8848   -6.7314   21.1356 O   0  0  0  0  0  0  0  0  0  0  0  0
  -27.6035  -26.0360   23.8799 O   0  0  0  0  0  0  0  0  0  1  0  0
  -21.5146   -3.9549   25.8851 F   0  0  0  0  0  0  0  0  0  0  0  0
  -20.2850   -7.6501   23.1946 F   0  0  0  0  0  0  0  0  0  0  0  0
  -25.1609  -19.2806   24.1033 Cl  0  0  0  0  0  0  0  0  0  0  0  0
  1  2  1  0  0  0  0
  1  5  2  0  0  0  0
  2  6  2  0  0  0  0
  3 10  2  0  0  0  0
  3 18  1  0  0  0  0
  4 11  1  0  0  0  0
  4 18  2  0  0  0  0
  5 20  1  0  0  0  0
  6 22  1  0  0  0  0
  7 12  2  0  0  0  0
  7 21  1  0  0  0  0
  8  9  2  0  0  0  0
  8 24  1  0  0  0  0
  9 25  1  0  0  0  0
 10 26  1  0  0  0  0
 11 26  2  0  0  0  0
 12 27  1  0  0  0  0
 13 14  2  0  0  0  0
 13 28  1  0  0  0  0
 14 29  1  0  0  0  0
 15 23  1  0  0  0  0
 15 27  2  0  0  0  0
 16 24  2  0  0  0  0
 16 31  1  0  0  0  0
 17 29  2  0  0  0  0
 17 30  1  0  0  0  0
 18 32  1  0  0  0  0
 19 32  1  0  0  0  0
 19 33  2  0  0  0  0
 19 34  1  0  0  0  0
 20 22  2  0  0  0  0
 20 39  1  0  0  0  0
 21 23  2  0  0  0  0
 21 40  1  0  0  0  0
 22 48  1  0  0  0  0
 23 41  1  0  0  0  0
 24 58  1  0  0  0  0
 25 31  2  0  0  0  0
 25 57  1  0  0  0  0
 26 80  1  0  0  0  0
 27 81  1  0  0  0  0
 28 30  2  0  0  0  0
 28 80  1  0  0  0  0
 29 82  1  0  0  0  0
 30 83  1  0  0  0  0
 31 84  1  0  0  0  0
 32 64  2  0  0  0  0
 33 65  1  0  0  0  0
 33 68  1  0  0  0  0
 34 69  1  0  0  0  0
 34 75  2  0  0  0  0
 35 49  1  0  0  0  0
 35 70  1  0  0  0  0
 35 76  2  0  0  0  0
 36 61  1  0  0  0  0
 36 66  1  0  0  0  0
 36 77  2  0  0  0  0
 37 62  1  0  0  0  0
 37 71  1  0  0  0  0
 37 78  2  0  0  0  0
 38 67  1  0  0  0  0
 38 72  1  0  0  0  0
 38 79  2  0  0  0  0
 39 42  1  0  0  0  0
 40 49  1  0  0  0  0
 41 66  1  0  0  0  0
 42 44  1  0  0  0  0
 43 45  1  0  0  0  0
 43 46  1  0  0  0  0
 44 48  1  0  0  0  0
 45 50  1  0  0  0  0
 46 67  1  0  0  0  0
 47 50  1  0  0  0  0
 47 67  1  0  0  0  0
 48 70  1  0  0  0  0
 49 66  1  0  0  0  0
 50 65  1  0  0  0  0
 51 62  1  0  0  0  0
 52 63  1  0  0  0  0
 53 63  1  0  0  0  0
 54 63  1  0  0  0  0
 55 72  1  0  0  0  0
 56 73  1  0  0  0  0
 57 72  1  0  0  0  0
 58 74  1  0  0  0  0
 59 60  1  0  0  0  0
 59 74  1  0  0  0  0
 60 81  1  0  0  0  0
 61 63  1  0  0  0  0
 61 71  1  0  0  0  0
 62 73  1  0  0  0  0
 64 65  1  0  0  0  0
M  CHG  2  73   1  74   1
M  ISO  4  38 100  60 101  72 100  81 101
M  END
> <Batch ID>
0036

> <Smiles>
CNC(C)C(=O)NC(C(=O)N1Cc2cc([101O:1][101CH2:1]CNCc3ccc(C[100N:0](C)[100C:0](=O)N4CCCC(n5nc(-c6ccc(Oc7ccc(F)cc7F)cc6)c(C(N)=O)c5N)C4)c(Cl)c3)ccc2CC1C(=O)NC1CCCc2ccccc21)C(C)(C)C

> <Shape>
0.250

> <Color>
0.137

> <Negative vol penalty>
0.000

$$$$

  -OEChem-04042321543D

 85 93  0     1  0  0  0  0  0999 V2000
  -18.5721  -33.4582   20.9551 C   0  0  0  0  0  0  0  0  0  0  0  0
  -19.9176  -33.3028   20.6373 C   0  0  0  0  0  0  0  0  0  0  0  0
  -24.2062  -11.5990   19.5849 C   0  0  0  0  0  0  0  0  0  0  0  0
  -25.3936  -11.7353   21.6845 C   0  0  0  0  0  0  0  0  0  0  0  0
  -18.0154  -32.7261   22.0030 C   0  0  0  0  0  0  0  0  0  0  0  0
  -20.7075  -32.4159   21.3680 C   0  0  0  0  0  0  0  0  0  0  0  0
  -25.3262  -28.9969   19.2508 C   0  0  0  0  0  0  0  0  0  0  0  0
  -24.3869  -10.2160   19.5725 C   0  0  0  0  0  0  0  0  0  0  0  0
  -25.5743  -10.3522   21.6721 C   0  0  0  0  0  0  0  0  0  0  0  0
  -26.7095  -29.1696   19.2762 C   0  0  0  0  0  0  0  0  0  0  0  0
  -26.0348   -6.8147   22.3738 C   0  0  0  0  0  0  0  0  0  0  0  0
  -25.7973   -6.1182   23.5587 C   0  0  0  0  0  0  0  0  0  0  0  0
  -29.6441  -24.1427   19.7005 C   0  0  0  0  0  0  0  0  0  0  0  0
  -26.8387  -27.7948   21.2542 C   0  0  0  0  0  0  0  0  0  0  0  0
  -31.6128  -22.3028   18.9781 C   0  0  0  0  0  0  0  0  0  0  0  0
  -23.5104   -6.8975   23.5585 C   0  0  0  0  0  0  0  0  0  0  0  0
  -24.7096  -12.3587   20.6410 C   0  0  0  0  0  0  0  0  0  0  0  0
  -30.7056  -24.5402   18.8876 C   0  0  0  0  0  0  0  0  0  0  0  0
  -23.4476  -14.4996   21.2167 C   0  0  0  0  0  0  0  0  0  0  0  0
  -18.7966  -31.8226   22.7407 C   0  0  0  0  0  0  0  0  0  0  0  0
  -24.6866  -28.2295   20.2349 C   0  0  0  0  0  0  0  0  0  0  0  0
  -20.1610  -31.6720   22.4276 C   0  0  0  0  0  0  0  0  0  0  0  0
  -25.4476  -27.6118   21.2376 C   0  0  0  0  0  0  0  0  0  0  0  0
  -29.5670  -22.8252   20.1523 C   0  0  0  0  0  0  0  0  0  0  0  0
  -31.6900  -23.6203   18.5264 C   0  0  0  0  0  0  0  0  0  0  0  0
  -30.5513  -21.9053   19.7911 C   0  0  0  0  0  0  0  0  0  0  0  0
  -25.0709   -9.5926   20.6161 C   0  0  0  0  0  0  0  0  0  0  0  0
  -27.4656  -28.5709   20.2797 C   0  0  0  0  0  0  0  0  0  0  0  0
  -25.0101   -7.5527   21.7812 C   0  0  0  0  0  0  0  0  0  0  0  0
  -24.5352   -6.1596   24.1511 C   0  0  0  0  0  0  0  0  0  0  0  0
  -23.7479   -7.5941   22.3735 C   0  0  0  0  0  0  0  0  0  0  0  0
  -24.5238  -13.7874   20.6541 C   0  0  0  0  0  0  0  0  0  0  0  0
  -23.7402  -15.8180   20.9667 C   0  0  0  0  0  0  0  0  0  0  0  0
  -30.7631  -25.9494   18.4207 C   0  0  0  0  0  0  0  0  0  0  0  0
  -22.2873  -14.0128   21.9041 C   0  0  0  0  0  0  0  0  0  0  0  0
  -22.5059  -28.8168   22.4717 C   0  0  0  0  0  0  0  0  0  0  0  0
  -22.6502  -25.6051   22.9039 C   0  0  0  0  0  0  0  0  0  0  0  0
  -24.4394  -22.7165   22.5855 C   0  0  0  0  0  0  0  0  0  0  0  0
  -28.8688  -18.6162   20.1166 C   0  0  0  0  0  0  0  0  0  0  0  0
  -18.1618  -31.0884   23.8950 C   0  0  0  0  0  0  0  0  0  0  0  0
  -23.1967  -28.0309   20.1780 C   0  0  0  0  0  0  0  0  0  0  0  0
  -24.8113  -26.7615   22.3056 C   0  0  0  0  0  0  0  0  0  0  0  0
  -18.9775  -29.8921   24.3785 C   0  0  0  0  0  0  0  0  0  0  0  0
  -26.0518  -18.6140   17.8447 C   0  0  0  0  0  0  0  0  0  0  0  0
  -20.4471  -30.2729   24.5268 C   0  0  0  0  0  0  0  0  0  0  0  0
  -25.2366  -17.4318   18.3721 C   0  0  0  0  0  0  0  0  0  0  0  0
  -27.5495  -18.3355   17.9318 C   0  0  0  0  0  0  0  0  0  0  0  0
  -27.2171  -16.7917   19.8239 C   0  0  0  0  0  0  0  0  0  0  0  0
  -21.0445  -30.7014   23.1810 C   0  0  1  0  0  0  0  0  0  0  0  0
  -22.5925  -27.6519   21.5266 C   0  0  1  0  0  0  0  0  0  0  0  0
  -25.6952  -17.0203   19.7836 C   0  0  2  0  0  0  0  0  0  0  0  0
  -28.4214  -22.4226   21.0218 C   0  0  0  0  0  0  0  0  0  0  0  0
  -32.8378  -24.0197   17.6576 C   0  0  0  0  0  0  0  0  0  0  0  0
  -24.9157  -20.2534   22.6498 C   0  0  0  0  0  0  0  0  0  0  0  0
  -23.1767  -26.1523   25.8591 C   0  0  0  0  0  0  0  0  0  0  0  0
  -23.9668  -23.7873   26.0846 C   0  0  0  0  0  0  0  0  0  0  0  0
  -21.6104  -24.2545   25.4124 C   0  0  0  0  0  0  0  0  0  0  0  0
  -23.4399  -22.3334   19.8264 C   0  0  0  0  0  0  0  0  0  0  0  0
  -30.4895  -20.4895   20.2624 C   0  0  0  0  0  0  0  0  0  0  0  0
  -30.8661  -28.3275   19.1206 C   0  0  0  0  0  0  0  0  0  0  0  0
  -29.4726  -28.9265   19.0544 C   0  0  0  0  0  0  0  0  0  1  0  0
  -23.4775  -24.6778   23.7611 C   0  0  1  0  0  0  0  0  0  0  0  0
  -24.0608  -21.3522   22.0378 C   0  0  2  0  0  0  0  0  0  0  0  0
  -23.0699  -24.7355   25.2605 C   0  0  0  0  0  0  0  0  0  0  0  0
  -25.4321  -14.5872   20.0890 N   0  0  0  0  0  0  0  0  0  0  0  0
  -24.9274  -15.8155   20.2953 N   0  0  0  0  0  0  0  0  0  0  0  0
  -23.3507  -26.6024   22.2107 N   0  0  0  0  0  0  0  0  0  0  0  0
  -27.9235  -17.9677   19.3047 N   0  0  0  0  0  0  0  0  0  0  0  0
  -23.0952  -16.9677   21.2577 N   0  0  0  0  0  0  0  0  0  0  0  0
  -22.1431  -12.6292   22.0745 N   0  0  0  0  0  0  0  0  0  0  0  0
  -30.8295  -26.9192   19.4132 N   0  0  0  0  0  0  0  0  0  0  0  0
  -21.3346  -29.5421   22.3647 N   0  0  0  0  0  0  0  0  0  0  0  0
  -23.3602  -23.3534   23.1606 N   0  0  0  0  0  0  0  0  0  0  0  0
  -29.4980  -19.7168   19.5477 N   0  0  0  0  0  0  0  0  0  0  0  0
  -24.2414  -21.3195   20.5589 N   0  3  0  0  0  0  0  0  0  0  0  0
  -30.7294  -26.1840   17.2155 O   0  0  0  0  0  0  0  0  0  0  0  0
  -21.3964  -14.7811   22.3393 O   0  0  0  0  0  0  0  0  0  0  0  0
  -23.4324  -29.0400   23.2420 O   0  0  0  0  0  0  0  0  0  0  0  0
  -21.4284  -25.4458   22.8456 O   0  0  0  0  0  0  0  0  0  0  0  0
  -25.5795  -23.1700   22.5140 O   0  0  0  0  0  0  0  0  0  0  0  0
  -29.1293  -18.2451   21.2662 O   0  0  0  0  0  0  0  0  0  0  0  0
  -25.2472   -8.2430   20.6044 O   0  0  0  0  0  0  0  0  0  0  0  0
  -28.8158  -28.7384   20.3072 O   0  0  0  0  0  0  0  0  0  1  0  0
  -24.3068   -5.4895   25.2882 F   0  0  0  0  0  0  0  0  0  0  0  0
  -22.7592   -8.3003   21.8083 F   0  0  0  0  0  0  0  0  0  0  0  0
  1  2  1  0  0  0  0
  1  5  2  0  0  0  0
  2  6  2  0  0  0  0
  3  8  2  0  0  0  0
  3 17  1  0  0  0  0
  4  9  1  0  0  0  0
  4 17  2  0  0  0  0
  5 20  1  0  0  0  0
  6 22  1  0  0  0  0
  7 10  2  0  0  0  0
  7 21  1  0  0  0  0
  8 27  1  0  0  0  0
  9 27  2  0  0  0  0
 10 28  1  0  0  0  0
 11 12  2  0  0  0  0
 11 29  1  0  0  0  0
 12 30  1  0  0  0  0
 13 18  1  0  0  0  0
 13 24  2  0  0  0  0
 14 23  1  0  0  0  0
 14 28  2  0  0  0  0
 15 25  1  0  0  0  0
 15 26  2  0  0  0  0
 16 30  2  0  0  0  0
 16 31  1  0  0  0  0
 17 32  1  0  0  0  0
 18 25  2  0  0  0  0
 18 34  1  0  0  0  0
 19 32  1  0  0  0  0
 19 33  2  0  0  0  0
 19 35  1  0  0  0  0
 20 22  2  0  0  0  0
 20 40  1  0  0  0  0
 21 23  2  0  0  0  0
 21 41  1  0  0  0  0
 22 49  1  0  0  0  0
 23 42  1  0  0  0  0
 24 26  1  0  0  0  0
 24 52  1  0  0  0  0
 25 53  1  0  0  0  0
 26 59  1  0  0  0  0
 27 82  1  0  0  0  0
 28 83  1  0  0  0  0
 29 31  2  0  0  0  0
 29 82  1  0  0  0  0
 30 84  1  0  0  0  0
 31 85  1  0  0  0  0
 32 65  2  0  0  0  0
 33 66  1  0  0  0  0
 33 69  1  0  0  0  0
 34 71  1  0  0  0  0
 34 76  2  0  0  0  0
 35 70  1  0  0  0  0
 35 77  2  0  0  0  0
 36 50  1  0  0  0  0
 36 72  1  0  0  0  0
 36 78  2  0  0  0  0
 37 62  1  0  0  0  0
 37 67  1  0  0  0  0
 37 79  2  0  0  0  0
 38 63  1  0  0  0  0
 38 73  1  0  0  0  0
 38 80  2  0  0  0  0
 39 68  1  0  0  0  0
 39 74  1  0  0  0  0
 39 81  2  0  0  0  0
 40 43  1  0  0  0  0
 41 50  1  0  0  0  0
 42 67  1  0  0  0  0
 43 45  1  0  0  0  0
 44 46  1  0  0  0  0
 44 47  1  0  0  0  0
 45 49  1  0  0  0  0
 46 51  1  0  0  0  0
 47 68  1  0  0  0  0
 48 51  1  0  0  0  0
 48 68  1  0  0  0  0
 49 72  1  0  0  0  0
 50 67  1  0  0  0  0
 51 66  1  0  0  0  0
 54 63  1  0  0  0  0
 55 64  1  0  0  0  0
 56 64  1  0  0  0  0
 57 64  1  0  0  0  0
 58 75  1  0  0  0  0
 59 74  1  0  0  0  0
 60 61  1  0  0  0  0
 60 71  1  0  0  0  0
 61 83  1  0  0  0  0
 62 64  1  0  0  0  0
 62 73  1  0  0  0  0
 63 75  1  0  0  0  0
 65 66  1  0  0  0  0
M  CHG  1  75   1
M  ISO  4  39 100  61 101  74 100  83 101
M  END
> <Batch ID>
0036

> <Smiles>
CNC(C)C(=O)NC(C(=O)N1Cc2cc([101O:1][101CH2:1]CNC(=O)c3cc(C)c(C[100NH:0][100C:0](=O)N4CCCC(n5nc(-c6ccc(Oc7ccc(F)cc7F)cc6)c(C(N)=O)c5N)C4)cc3C)ccc2CC1C(=O)NC1CCCc2ccccc21)C(C)(C)C

> <Shape>
0.232

> <Color>
0.089

> <Negative vol penalty>
0.000

$$$$

  -OEChem-04042321543D

 86 95  0     1  0  0  0  0  0999 V2000
  -42.9522  -29.6609   17.6555 C   0  0  0  0  0  0  0  0  0  0  0  0
  -41.7045  -30.2484   17.8386 C   0  0  0  0  0  0  0  0  0  0  0  0
  -23.4438   -9.9985   22.2182 C   0  0  0  0  0  0  0  0  0  0  0  0
  -23.5384   -9.6521   19.8291 C   0  0  0  0  0  0  0  0  0  0  0  0
  -43.1085  -28.6352   16.7241 C   0  0  0  0  0  0  0  0  0  0  0  0
  -40.6126  -29.8113   17.0895 C   0  0  0  0  0  0  0  0  0  0  0  0
  -33.6718  -27.1254   19.4639 C   0  0  0  0  0  0  0  0  0  0  0  0
  -22.7088   -8.8216   22.3598 C   0  0  0  0  0  0  0  0  0  0  0  0
  -22.8034   -8.4751   19.9707 C   0  0  0  0  0  0  0  0  0  0  0  0
  -32.4680  -26.4869   19.7629 C   0  0  0  0  0  0  0  0  0  0  0  0
  -19.5112   -7.8151   21.9276 C   0  0  0  0  0  0  0  0  0  0  0  0
  -18.3936   -7.8462   22.7616 C   0  0  0  0  0  0  0  0  0  0  0  0
  -32.5373  -25.3371   17.6366 C   0  0  0  0  0  0  0  0  0  0  0  0
  -31.6482  -18.3614   20.5548 C   0  0  0  0  0  0  0  0  0  0  0  0
  -29.2329  -19.7317   20.8217 C   0  0  0  0  0  0  0  0  0  0  0  0
  -19.3784   -6.1278   24.1453 C   0  0  0  0  0  0  0  0  0  0  0  0
  -23.8586  -10.4139   20.9528 C   0  0  0  0  0  0  0  0  0  0  0  0
  -24.2179  -12.9302   21.1683 C   0  0  0  0  0  0  0  0  0  0  0  0
  -42.0159  -28.1787   15.9701 C   0  0  0  0  0  0  0  0  0  0  0  0
  -34.3215  -26.8601   18.2552 C   0  0  0  0  0  0  0  0  0  0  0  0
  -40.7547  -28.7795   16.1462 C   0  0  0  0  0  0  0  0  0  0  0  0
  -33.7496  -25.9642   17.3370 C   0  0  0  0  0  0  0  0  0  0  0  0
  -31.4119  -19.5114   19.8017 C   0  0  0  0  0  0  0  0  0  0  0  0
  -30.6768  -17.8964   21.4413 C   0  0  0  0  0  0  0  0  0  0  0  0
  -30.2042  -20.1966   19.9352 C   0  0  0  0  0  0  0  0  0  0  0  0
  -22.3886   -8.0598   21.2361 C   0  0  0  0  0  0  0  0  0  0  0  0
  -31.9020  -25.5952   18.8514 C   0  0  0  0  0  0  0  0  0  0  0  0
  -20.5624   -6.9403   22.2024 C   0  0  0  0  0  0  0  0  0  0  0  0
  -18.3272   -7.0026   23.8705 C   0  0  0  0  0  0  0  0  0  0  0  0
  -20.4960   -6.0966   23.3112 C   0  0  0  0  0  0  0  0  0  0  0  0
  -29.4692  -18.5816   21.5748 C   0  0  0  0  0  0  0  0  0  0  0  0
  -24.6173  -11.6299   20.8059 C   0  0  0  0  0  0  0  0  0  0  0  0
  -25.2850  -13.7248   20.8273 C   0  0  0  0  0  0  0  0  0  0  0  0
  -22.9918  -13.3797   21.7604 C   0  0  0  0  0  0  0  0  0  0  0  0
  -37.2787  -27.5304   16.0458 C   0  0  0  0  0  0  0  0  0  0  0  0
  -36.6944  -24.5244   15.8648 C   0  0  0  0  0  0  0  0  0  0  0  0
  -35.9839  -21.2124   16.2686 C   0  0  0  0  0  0  0  0  0  0  0  0
  -30.7769  -14.7095   20.7061 C   0  0  0  0  0  0  0  0  0  0  0  0
  -42.2438  -27.0996   14.9415 C   0  0  0  0  0  0  0  0  0  0  0  0
  -35.5885  -27.5714   17.8646 C   0  0  0  0  0  0  0  0  0  0  0  0
  -34.4663  -25.7357   16.0342 C   0  0  0  0  0  0  0  0  0  0  0  0
  -40.9561  -26.4392   14.4558 C   0  0  0  0  0  0  0  0  0  0  0  0
  -29.4210  -12.6924   18.1043 C   0  0  0  0  0  0  0  0  0  0  0  0
  -28.9696  -22.3469   17.1531 C   0  0  0  0  0  0  0  0  0  0  0  0
  -39.9056  -27.4954   14.1274 C   0  0  0  0  0  0  0  0  0  0  0  0
  -28.0205  -12.3386   18.6079 C   0  0  0  0  0  0  0  0  0  0  0  0
  -29.2965  -23.7315   17.6917 C   0  0  0  0  0  0  0  0  0  0  0  0
  -28.7926  -21.3332   18.2812 C   0  0  0  0  0  0  0  0  0  0  0  0
  -30.4357  -12.7388   19.2445 C   0  0  0  0  0  0  0  0  0  0  0  0
  -28.6622  -13.2617   20.8739 C   0  0  0  0  0  0  0  0  0  0  0  0
  -30.3494  -22.6575   19.7207 C   0  0  0  0  0  0  0  0  0  0  0  0
  -39.5409  -28.3160   15.3704 C   0  0  1  0  0  0  0  0  0  0  0  0
  -36.5507  -26.6874   17.0511 C   0  0  1  0  0  0  0  0  0  0  0  0
  -27.5930  -13.2577   19.7680 C   0  0  2  0  0  0  0  0  0  0  0  0
  -30.5226  -23.6775   18.5944 C   0  0  2  0  0  0  0  0  0  1  0  0
  -32.4688  -19.9867   18.8584 C   0  0  0  0  0  0  0  0  0  0  0  0
  -36.7065  -18.9350   15.5013 C   0  0  0  0  0  0  0  0  0  0  0  0
  -35.2868  -24.9804   13.1974 C   0  0  0  0  0  0  0  0  0  0  0  0
  -35.1997  -22.4961   12.8995 C   0  0  0  0  0  0  0  0  0  0  0  0
  -37.4031  -23.6562   13.0477 C   0  0  0  0  0  0  0  0  0  0  0  0
  -36.6948  -20.3839   19.0194 C   0  0  0  0  0  0  0  0  0  0  0  0
  -30.9681  -16.6599   22.2288 C   0  0  0  0  0  0  0  0  0  0  0  0
  -35.9867  -23.4155   15.1280 C   0  0  1  0  0  0  0  0  0  0  0  0
  -36.8762  -20.0182   16.5552 C   0  0  2  0  0  0  0  0  0  0  0  0
  -35.9577  -23.6493   13.5912 C   0  0  0  0  0  0  0  0  0  0  0  0
  -25.8426  -11.5960   20.2751 N   0  0  0  0  0  0  0  0  0  0  0  0
  -26.2222  -12.8849   20.3014 N   0  0  0  0  0  0  0  0  0  0  0  0
  -29.9503  -21.3524   19.1862 N   0  0  1  0  0  0  0  0  0  0  0  0
  -35.9131  -25.6127   16.2717 N   0  0  0  0  0  0  0  0  0  0  0  0
  -29.9712  -13.6288   20.3112 N   0  0  0  0  0  0  0  0  0  0  0  0
  -25.5037  -15.0531   20.9288 N   0  0  0  0  0  0  0  0  0  0  0  0
  -21.9391  -13.7539   20.9142 N   0  0  0  0  0  0  0  0  0  0  0  0
  -38.6481  -27.5656   16.2273 N   0  0  0  0  0  0  0  0  0  0  0  0
  -36.6404  -22.1752   15.5315 N   0  0  0  0  0  0  0  0  0  0  0  0
  -30.2592  -15.5072   21.7192 N   0  0  0  0  0  0  0  0  0  0  0  0
  -36.5481  -19.4342   17.8865 N   0  3  0  0  0  0  0  0  0  0  0  0
  -22.8402  -13.4630   23.0028 O   0  0  0  0  0  0  0  0  0  0  0  0
  -36.6458  -28.1060   15.1684 O   0  0  0  0  0  0  0  0  0  0  0  0
  -37.9080  -24.4334   16.0703 O   0  0  0  0  0  0  0  0  0  0  0  0
  -34.8197  -21.2824   16.6563 O   0  0  0  0  0  0  0  0  0  0  0  0
  -31.8738  -14.9491   20.1900 O   0  0  0  0  0  0  0  0  0  0  0  0
  -21.6716   -6.9111   21.3739 O   0  0  0  0  0  0  0  0  0  0  0  0
  -30.7289  -24.9720   19.1516 O   0  0  0  0  0  0  0  0  0  1  0  0
  -17.2546   -7.0336   24.6722 F   0  0  0  0  0  0  0  0  0  0  0  0
  -21.5032   -5.2549   23.5810 F   0  0  0  0  0  0  0  0  0  0  0  0
  -28.2449  -18.0366   22.6629 Cl  0  0  0  0  0  0  0  0  0  0  0  0
  1  2  1  0  0  0  0
  1  5  2  0  0  0  0
  2  6  2  0  0  0  0
  3  8  2  0  0  0  0
  3 17  1  0  0  0  0
  4  9  1  0  0  0  0
  4 17  2  0  0  0  0
  5 19  1  0  0  0  0
  6 21  1  0  0  0  0
  7 10  2  0  0  0  0
  7 20  1  0  0  0  0
  8 26  1  0  0  0  0
  9 26  2  0  0  0  0
 10 27  1  0  0  0  0
 11 12  2  0  0  0  0
 11 28  1  0  0  0  0
 12 29  1  0  0  0  0
 13 22  1  0  0  0  0
 13 27  2  0  0  0  0
 14 23  1  0  0  0  0
 14 24  2  0  0  0  0
 15 25  1  0  0  0  0
 15 31  2  0  0  0  0
 16 29  2  0  0  0  0
 16 30  1  0  0  0  0
 17 32  1  0  0  0  0
 18 32  1  0  0  0  0
 18 33  2  0  0  0  0
 18 34  1  0  0  0  0
 19 21  2  0  0  0  0
 19 39  1  0  0  0  0
 20 22  2  0  0  0  0
 20 40  1  0  0  0  0
 21 52  1  0  0  0  0
 22 41  1  0  0  0  0
 23 25  2  0  0  0  0
 23 56  1  0  0  0  0
 24 31  1  0  0  0  0
 24 62  1  0  0  0  0
 25 68  1  0  0  0  0
 26 82  1  0  0  0  0
 27 83  1  0  0  0  0
 28 30  2  0  0  0  0
 28 82  1  0  0  0  0
 29 84  1  0  0  0  0
 30 85  1  0  0  0  0
 31 86  1  0  0  0  0
 32 66  2  0  0  0  0
 33 67  1  0  0  0  0
 33 71  1  0  0  0  0
 34 72  1  0  0  0  0
 34 77  2  0  0  0  0
 35 53  1  0  0  0  0
 35 73  1  0  0  0  0
 35 78  2  0  0  0  0
 36 63  1  0  0  0  0
 36 69  1  0  0  0  0
 36 79  2  0  0  0  0
 37 64  1  0  0  0  0
 37 74  1  0  0  0  0
 37 80  2  0  0  0  0
 38 70  1  0  0  0  0
 38 75  1  0  0  0  0
 38 81  2  0  0  0  0
 39 42  1  0  0  0  0
 40 53  1  0  0  0  0
 41 69  1  0  0  0  0
 42 45  1  0  0  0  0
 43 46  1  0  0  0  0
 43 49  1  0  0  0  0
 44 47  1  0  0  0  0
 44 48  1  0  0  0  0
 45 52  1  0  0  0  0
 46 54  1  0  0  0  0
 47 55  1  0  0  0  0
 48 68  1  0  0  0  0
 49 70  1  0  0  0  0
 50 54  1  0  0  0  0
 50 70  1  0  0  0  0
 51 55  1  0  0  0  0
 51 68  1  0  0  0  0
 52 73  1  0  0  0  0
 53 69  1  0  0  0  0
 54 67  1  0  0  0  0
 55 83  1  0  0  0  0
 57 64  1  0  0  0  0
 58 65  1  0  0  0  0
 59 65  1  0  0  0  0
 60 65  1  0  0  0  0
 61 76  1  0  0  0  0
 62 75  1  0  0  0  0
 63 65  1  0  0  0  0
 63 74  1  0  0  0  0
 64 76  1  0  0  0  0
 66 67  1  0  0  0  0
M  CHG  1  76   1
M  ISO  4  38 100  55 101  75 100  83 101
M  END
> <Batch ID>
0036

> <Smiles>
CNC(C)C(=O)NC(C(=O)N1Cc2cc([101O:1][101CH:1]3CCCN(c4cc(Cl)c(C[100NH:0][100C:0](=O)N5CCCC(n6nc(-c7ccc(Oc8ccc(F)cc8F)cc7)c(C(N)=O)c6N)C5)cc4C)C3)ccc2CC1C(=O)NC1CCCc2ccccc21)C(C)(C)C

> <Shape>
0.211

> <Color>
0.174

> <Negative vol penalty>
0.000

$$$$

  -OEChem-04042321543D

 89 98  0     1  0  0  0  0  0999 V2000
  -27.5441  -33.6158   26.1879 C   0  0  0  0  0  0  0  0  0  0  0  0
  -27.8172  -32.4515   25.4770 C   0  0  0  0  0  0  0  0  0  0  0  0
  -22.4755  -11.7655   21.4033 C   0  0  0  0  0  0  0  0  0  0  0  0
  -23.9873  -10.0647   22.2148 C   0  0  0  0  0  0  0  0  0  0  0  0
  -26.2393  -33.8940   26.5930 C   0  0  0  0  0  0  0  0  0  0  0  0
  -26.7857  -31.5642   25.1718 C   0  0  0  0  0  0  0  0  0  0  0  0
  -26.9789  -29.9347   20.3809 C   0  0  0  0  0  0  0  0  0  0  0  0
  -30.2935  -19.2650   21.7414 C   0  0  0  0  0  0  0  0  0  0  0  0
  -30.2384  -17.9582   21.2569 C   0  0  0  0  0  0  0  0  0  0  0  0
  -21.5776  -11.4546   22.4244 C   0  0  0  0  0  0  0  0  0  0  0  0
  -23.0895   -9.7538   23.2360 C   0  0  0  0  0  0  0  0  0  0  0  0
  -27.9114  -28.9419   20.0832 C   0  0  0  0  0  0  0  0  0  0  0  0
  -20.2186   -8.0018   23.5814 C   0  0  0  0  0  0  0  0  0  0  0  0
  -19.9619   -6.6536   23.8305 C   0  0  0  0  0  0  0  0  0  0  0  0
  -26.1663  -27.2797   20.1887 C   0  0  0  0  0  0  0  0  0  0  0  0
  -27.9320  -18.2916   20.6196 C   0  0  0  0  0  0  0  0  0  0  0  0
  -20.7784   -6.9156   26.0892 C   0  0  0  0  0  0  0  0  0  0  0  0
  -23.6803  -11.0705   21.2984 C   0  0  0  0  0  0  0  0  0  0  0  0
  -24.3761  -11.3191   18.8567 C   0  0  0  0  0  0  0  0  0  0  0  0
  -25.1898  -33.0144   26.2842 C   0  0  0  0  0  0  0  0  0  0  0  0
  -25.6329  -29.6055   20.5959 C   0  0  0  0  0  0  0  0  0  0  0  0
  -25.4659  -31.8302   25.5743 C   0  0  0  0  0  0  0  0  0  0  0  0
  -25.2183  -28.2705   20.4865 C   0  0  0  0  0  0  0  0  0  0  0  0
  -29.1677  -20.0851   21.6650 C   0  0  0  0  0  0  0  0  0  0  0  0
  -29.0577  -17.4714   20.6960 C   0  0  0  0  0  0  0  0  0  0  0  0
  -21.8846  -10.4488   23.3408 C   0  0  0  0  0  0  0  0  0  0  0  0
  -27.5057  -27.6138   19.9899 C   0  0  0  0  0  0  0  0  0  0  0  0
  -20.7553   -8.8069   24.5862 C   0  0  0  0  0  0  0  0  0  0  0  0
  -20.2418   -6.1105   25.0844 C   0  0  0  0  0  0  0  0  0  0  0  0
  -21.0351   -8.2638   25.8401 C   0  0  0  0  0  0  0  0  0  0  0  0
  -27.9870  -19.5984   21.1041 C   0  0  0  0  0  0  0  0  0  0  0  0
  -24.6080  -11.3907   20.2434 C   0  0  0  0  0  0  0  0  0  0  0  0
  -25.5596  -11.7239   18.2893 C   0  0  0  0  0  0  0  0  0  0  0  0
  -30.3990  -23.6176   22.0994 C   0  0  0  0  0  0  0  0  0  0  0  0
  -31.1907  -23.7468   23.1785 C   0  0  0  0  0  0  0  0  0  0  0  0
  -23.1963  -10.9223   18.1452 C   0  0  0  0  0  0  0  0  0  0  0  0
  -23.6244  -29.8631   23.0461 C   0  0  0  0  0  0  0  0  0  0  0  0
  -21.4533  -28.8226   20.8721 C   0  0  0  0  0  0  0  0  0  0  0  0
  -20.8392  -27.1338   17.9708 C   0  0  0  0  0  0  0  0  0  0  0  0
  -30.0272  -15.1986   20.2054 C   0  0  0  0  0  0  0  0  0  0  0  0
  -23.8034  -33.3345   26.7843 C   0  0  0  0  0  0  0  0  0  0  0  0
  -24.6345  -30.6915   20.8899 C   0  0  0  0  0  0  0  0  0  0  0  0
  -23.7812  -27.8673   20.6884 C   0  0  0  0  0  0  0  0  0  0  0  0
  -29.6304  -24.7883   21.5471 C   0  0  0  0  0  0  0  0  0  0  0  0
  -22.7060  -32.5270   26.0959 C   0  0  0  0  0  0  0  0  0  0  0  0
  -30.2744  -11.8153   19.1241 C   0  0  0  0  0  0  0  0  0  0  0  0
  -31.0688  -23.2741   19.2860 C   0  0  0  0  0  0  0  0  0  0  0  0
  -23.0917  -31.0528   26.0265 C   0  0  0  0  0  0  0  0  0  0  0  0
  -30.5095  -24.6900   19.1332 C   0  0  0  0  0  0  0  0  0  0  0  0
  -28.8275  -11.3178   19.1564 C   0  0  0  0  0  0  0  0  0  0  0  0
  -30.5701  -12.7747   20.2756 C   0  0  0  0  0  0  0  0  0  0  0  0
  -28.1942  -13.4081   20.4278 C   0  0  0  0  0  0  0  0  0  0  0  0
  -30.1111  -22.3292   20.0063 C   0  0  0  0  0  0  0  0  0  0  0  0
  -24.3698  -30.8552   25.2026 C   0  0  1  0  0  0  0  0  0  0  0  0
  -23.3839  -30.1781   21.5967 C   0  0  1  0  0  0  0  0  0  0  0  0
  -30.4092  -25.5060   20.4322 C   0  0  1  0  0  0  0  0  0  0  0  0
  -27.8306  -12.4895   19.2498 C   0  0  2  0  0  0  0  0  0  0  0  0
  -31.9737  -22.6279   23.7693 C   0  0  0  0  0  0  0  0  0  0  0  0
  -18.9614  -26.4178   16.4679 C   0  0  0  0  0  0  0  0  0  0  0  0
  -20.7088  -26.6248   22.8534 C   0  0  0  0  0  0  0  0  0  0  0  0
  -19.5668  -25.4190   20.9798 C   0  0  0  0  0  0  0  0  0  0  0  0
  -18.7652  -27.6748   21.6811 C   0  0  0  0  0  0  0  0  0  0  0  0
  -21.9221  -28.6770   15.6894 C   0  0  0  0  0  0  0  0  0  0  0  0
  -29.2685  -21.4843   22.1971 C   0  0  0  0  0  0  0  0  0  0  0  0
  -29.7567  -26.8596   20.1314 C   0  0  0  0  0  0  0  0  0  1  0  0
  -20.9504  -27.4709   20.4260 C   0  0  1  0  0  0  0  0  0  0  0  0
  -20.0009  -27.4897   16.7562 C   0  0  2  0  0  0  0  0  0  0  0  0
  -20.0253  -26.8044   21.4831 C   0  0  0  0  0  0  0  0  0  0  0  0
  -25.8419  -11.8080   20.5390 N   0  0  0  0  0  0  0  0  0  0  0  0
  -26.3960  -12.0022   19.3301 N   0  0  0  0  0  0  0  0  0  0  0  0
  -22.8440  -28.9647   20.9799 N   0  0  0  0  0  0  0  0  0  0  0  0
  -29.5881  -13.8610   20.2988 N   0  0  0  0  0  0  0  0  0  0  0  0
  -25.9561  -11.8653   17.0067 N   0  0  0  0  0  0  0  0  0  0  0  0
  -22.0692  -10.5359   18.8831 N   0  0  0  0  0  0  0  0  0  0  0  0
  -29.0016  -16.1435   20.2049 N   0  0  0  0  0  0  0  0  0  0  0  0
  -24.0770  -30.9376   23.7877 N   0  0  0  0  0  0  0  0  0  0  0  0
  -20.3205  -27.6782   19.1266 N   0  0  0  0  0  0  0  0  0  0  0  0
  -30.3241  -22.3071   21.5005 N   0  3  2  0  0  0  0  0  0  0  0  0
  -20.8685  -27.6385   15.5536 N   0  3  0  0  0  0  0  0  0  0  0  0
  -23.1486  -10.8949   16.8920 O   0  0  0  0  0  0  0  0  0  0  0  0
  -23.4134  -28.7295   23.4611 O   0  0  0  0  0  0  0  0  0  0  0  0
  -20.6425  -29.7215   21.1089 O   0  0  0  0  0  0  0  0  0  0  0  0
  -21.8506  -26.4390   17.9017 O   0  0  0  0  0  0  0  0  0  0  0  0
  -31.2233  -15.4834   20.1039 O   0  0  0  0  0  0  0  0  0  0  0  0
  -21.0088  -10.1454   24.3375 O   0  0  0  0  0  0  0  0  0  0  0  0
  -28.4139  -26.6427   19.7000 O   0  0  0  0  0  0  0  0  0  1  0  0
  -19.9938   -4.8162   25.3240 F   0  0  0  0  0  0  0  0  0  0  0  0
  -21.5497   -9.0325   26.8097 F   0  0  0  0  0  0  0  0  0  0  0  0
  -26.5742  -20.5840   20.9932 Cl  0  0  0  0  0  0  0  0  0  0  0  0
  1  2  1  0  0  0  0
  1  5  2  0  0  0  0
  2  6  2  0  0  0  0
  3 10  2  0  0  0  0
  3 18  1  0  0  0  0
  4 11  1  0  0  0  0
  4 18  2  0  0  0  0
  5 20  1  0  0  0  0
  6 22  1  0  0  0  0
  7 12  2  0  0  0  0
  7 21  1  0  0  0  0
  8  9  2  0  0  0  0
  8 24  1  0  0  0  0
  9 25  1  0  0  0  0
 10 26  1  0  0  0  0
 11 26  2  0  0  0  0
 12 27  1  0  0  0  0
 13 14  2  0  0  0  0
 13 28  1  0  0  0  0
 14 29  1  0  0  0  0
 15 23  1  0  0  0  0
 15 27  2  0  0  0  0
 16 25  2  0  0  0  0
 16 31  1  0  0  0  0
 17 29  2  0  0  0  0
 17 30  1  0  0  0  0
 18 32  1  0  0  0  0
 19 32  1  0  0  0  0
 19 33  2  0  0  0  0
 19 36  1  0  0  0  0
 20 22  2  0  0  0  0
 20 41  1  0  0  0  0
 21 23  2  0  0  0  0
 21 42  1  0  0  0  0
 22 54  1  0  0  0  0
 23 43  1  0  0  0  0
 24 31  2  0  0  0  0
 24 64  1  0  0  0  0
 25 75  1  0  0  0  0
 26 85  1  0  0  0  0
 27 86  1  0  0  0  0
 28 30  2  0  0  0  0
 28 85  1  0  0  0  0
 29 87  1  0  0  0  0
 30 88  1  0  0  0  0
 31 89  1  0  0  0  0
 32 69  2  0  0  0  0
 33 70  1  0  0  0  0
 33 73  1  0  0  0  0
 34 35  2  0  0  0  0
 34 44  1  0  0  0  0
 34 78  1  0  0  0  0
 35 58  1  0  0  0  0
 36 74  1  0  0  0  0
 36 80  2  0  0  0  0
 37 55  1  0  0  0  0
 37 76  1  0  0  0  0
 37 81  2  0  0  0  0
 38 66  1  0  0  0  0
 38 71  1  0  0  0  0
 38 82  2  0  0  0  0
 39 67  1  0  0  0  0
 39 77  1  0  0  0  0
 39 83  2  0  0  0  0
 40 72  1  0  0  0  0
 40 75  1  0  0  0  0
 40 84  2  0  0  0  0
 41 45  1  0  0  0  0
 42 55  1  0  0  0  0
 43 71  1  0  0  0  0
 44 56  1  0  0  0  0
 45 48  1  0  0  0  0
 46 50  1  0  0  0  0
 46 51  1  0  0  0  0
 47 49  1  0  0  0  0
 47 53  1  0  0  0  0
 48 54  1  0  0  0  0
 49 56  1  0  0  0  0
 50 57  1  0  0  0  0
 51 72  1  0  0  0  0
 52 57  1  0  0  0  0
 52 72  1  0  0  0  0
 53 78  1  0  0  0  0
 54 76  1  0  0  0  0
 55 71  1  0  0  0  0
 56 65  1  0  0  0  0
 57 70  1  0  0  0  0
 59 67  1  0  0  0  0
 60 68  1  0  0  0  0
 61 68  1  0  0  0  0
 62 68  1  0  0  0  0
 63 79  1  0  0  0  0
 64 78  1  0  0  0  0
 65 86  1  0  0  0  0
 66 68  1  0  0  0  0
 66 77  1  0  0  0  0
 67 79  1  0  0  0  0
 69 70  1  0  0  0  0
M  CHG  2  78   1  79   1
M  ISO  4  40 100  65 101  75 100  86 101
M  END
> <Batch ID>
0036

> <Smiles>
CC=C1CC([101CH2:1][101O:1]c2ccc3c(c2)CN(C(=O)C(NC(=O)C(C)NC)C(C)(C)C)C(C(=O)NC2CCCc4ccccc42)C3)CCCN1Cc1ccc([100NH:0][100C:0](=O)N2CCCC(n3nc(-c4ccc(Oc5ccc(F)cc5F)cc4)c(C(N)=O)c3N)C2)cc1Cl

> <Shape>
0.332

> <Color>
0.100

> <Negative vol penalty>
0.000

$$$$

  -OEChem-04042321543D

 83 91  0     1  0  0  0  0  0999 V2000
  -28.1648  -22.6904   18.7050 C   0  0  0  0  0  0  0  0  0  0  0  0
  -27.0722  -22.9625   19.5220 C   0  0  0  0  0  0  0  0  0  0  0  0
  -28.2128  -14.5144   21.0943 C   0  0  0  0  0  0  0  0  0  0  0  0
  -26.1124  -15.4258   20.3233 C   0  0  0  0  0  0  0  0  0  0  0  0
  -29.3282  -23.4498   18.8229 C   0  0  0  0  0  0  0  0  0  0  0  0
  -27.1427  -23.9936   20.4582 C   0  0  0  0  0  0  0  0  0  0  0  0
  -22.9815  -26.8795   20.4870 C   0  0  0  0  0  0  0  0  0  0  0  0
  -27.6968  -13.2240   20.9749 C   0  0  0  0  0  0  0  0  0  0  0  0
  -25.5963  -14.1354   20.2038 C   0  0  0  0  0  0  0  0  0  0  0  0
  -21.8594  -26.3723   21.1408 C   0  0  0  0  0  0  0  0  0  0  0  0
  -24.3291  -11.7598   22.2486 C   0  0  0  0  0  0  0  0  0  0  0  0
  -23.0447  -11.5274   22.7402 C   0  0  0  0  0  0  0  0  0  0  0  0
  -22.3705  -27.7366   23.0635 C   0  0  0  0  0  0  0  0  0  0  0  0
  -23.7108  -22.8951   25.6363 C   0  0  0  0  0  0  0  0  0  0  0  0
  -23.0882  -22.3348   23.3701 C   0  0  0  0  0  0  0  0  0  0  0  0
  -22.3195  -10.8656   20.5327 C   0  0  0  0  0  0  0  0  0  0  0  0
  -27.4206  -15.6153   20.7686 C   0  0  0  0  0  0  0  0  0  0  0  0
  -21.4597  -23.3108   24.8642 C   0  0  0  0  0  0  0  0  0  0  0  0
  -28.6348  -17.6865   19.9064 C   0  0  0  0  0  0  0  0  0  0  0  0
  -29.4096  -24.4969   19.7543 C   0  0  0  0  0  0  0  0  0  0  0  0
  -23.8140  -27.8124   21.1218 C   0  0  0  0  0  0  0  0  0  0  0  0
  -28.3087  -24.7668   20.5896 C   0  0  0  0  0  0  0  0  0  0  0  0
  -23.5011  -28.2560   22.4146 C   0  0  0  0  0  0  0  0  0  0  0  0
  -22.4176  -23.3591   25.8769 C   0  0  0  0  0  0  0  0  0  0  0  0
  -24.0462  -22.3830   24.3829 C   0  0  0  0  0  0  0  0  0  0  0  0
  -26.3885  -13.0345   20.5296 C   0  0  0  0  0  0  0  0  0  0  0  0
  -21.5554  -26.7986   22.4304 C   0  0  0  0  0  0  0  0  0  0  0  0
  -24.6088  -11.5451   20.8990 C   0  0  0  0  0  0  0  0  0  0  0  0
  -22.0398  -11.0803   21.8823 C   0  0  0  0  0  0  0  0  0  0  0  0
  -23.6040  -11.0980   20.0411 C   0  0  0  0  0  0  0  0  0  0  0  0
  -21.7950  -22.7987   23.6108 C   0  0  0  0  0  0  0  0  0  0  0  0
  -27.9529  -16.9485   20.8924 C   0  0  0  0  0  0  0  0  0  0  0  0
  -28.9294  -18.8821   20.5149 C   0  0  0  0  0  0  0  0  0  0  0  0
  -20.1064  -23.8051   25.1387 C   0  0  0  0  0  0  0  0  0  0  0  0
  -28.9718  -17.3237   18.5609 C   0  0  0  0  0  0  0  0  0  0  0  0
  -19.6724  -25.0684   24.9630 C   0  0  0  0  0  0  0  0  0  0  0  0
  -26.8638  -27.8537   22.0165 C   0  0  0  0  0  0  0  0  0  0  0  0
  -26.2019  -30.9431   22.7509 C   0  0  0  0  0  0  0  0  0  0  0  0
  -23.8621  -33.2901   23.5658 C   0  0  0  0  0  0  0  0  0  0  0  0
  -26.4291  -21.8881   25.0335 C   0  0  0  0  0  0  0  0  0  0  0  0
  -30.7049  -25.2595   19.8778 C   0  0  0  0  0  0  0  0  0  0  0  0
  -25.0057  -28.3700   20.3928 C   0  0  0  0  0  0  0  0  0  0  0  0
  -24.3514  -29.2712   23.1322 C   0  0  0  0  0  0  0  0  0  0  0  0
  -30.5661  -26.5770   20.6362 C   0  0  0  0  0  0  0  0  0  0  0  0
  -29.8046  -20.7744   24.8262 C   0  0  0  0  0  0  0  0  0  0  0  0
  -29.7594  -26.3746   21.9149 C   0  0  0  0  0  0  0  0  0  0  0  0
  -29.7761  -19.7385   23.7000 C   0  0  0  0  0  0  0  0  0  0  0  0
  -28.5326  -20.7289   25.6710 C   0  0  0  0  0  0  0  0  0  0  0  0
  -27.2509  -19.7942   23.7862 C   0  0  0  0  0  0  0  0  0  0  0  0
  -28.3380  -25.8930   21.6000 C   0  0  1  0  0  0  0  0  0  0  0  0
  -26.0713  -28.9299   21.3300 C   0  0  1  0  0  0  0  0  0  0  0  0
  -28.4830  -19.8459   22.8681 C   0  0  2  0  0  0  0  0  0  0  0  0
  -22.1005  -23.9012   27.2341 C   0  0  0  0  0  0  0  0  0  0  0  0
  -18.2427  -25.4242   25.2790 C   0  0  0  0  0  0  0  0  0  0  0  0
  -23.6284  -35.7209   24.1439 C   0  0  0  0  0  0  0  0  0  0  0  0
  -27.2857  -30.3798   25.5470 C   0  0  0  0  0  0  0  0  0  0  0  0
  -26.1738  -32.4834   26.3261 C   0  0  0  0  0  0  0  0  0  0  0  0
  -27.9631  -32.5893   24.5912 C   0  0  0  0  0  0  0  0  0  0  0  0
  -22.1268  -33.7998   21.2232 C   0  0  0  0  0  0  0  0  0  0  0  0
  -20.5256  -26.2181   24.4940 C   0  0  0  0  0  0  0  0  0  1  0  0
  -25.6919  -31.6655   23.9745 C   0  0  1  0  0  0  0  0  0  0  0  0
  -23.6071  -34.6869   23.0289 C   0  0  2  0  0  0  0  0  0  0  0  0
  -26.7635  -31.7589   25.0972 C   0  0  0  0  0  0  0  0  0  0  0  0
  -27.8220  -17.6191   22.0401 N   0  0  0  0  0  0  0  0  0  0  0  0
  -28.4259  -18.7910   21.7791 N   0  0  0  0  0  0  0  0  0  0  0  0
  -25.5093  -29.7819   22.3799 N   0  0  0  0  0  0  0  0  0  0  0  0
  -27.3487  -20.8403   24.8162 N   0  0  0  0  0  0  0  0  0  0  0  0
  -29.5674  -19.9920   20.0864 N   0  0  0  0  0  0  0  0  0  0  0  0
  -28.5937  -16.0568   18.0958 N   0  0  0  0  0  0  0  0  0  0  0  0
  -25.3599  -21.9117   24.1385 N   0  0  0  0  0  0  0  0  0  0  0  0
  -27.5179  -26.9977   21.1511 N   0  0  0  0  0  0  0  0  0  0  0  0
  -25.1992  -32.9577   23.5098 N   0  0  0  0  0  0  0  0  0  0  0  0
  -22.2787  -34.7487   22.3561 N   0  3  0  0  0  0  0  0  0  0  0  0
  -29.6044  -18.0937   17.7990 O   0  0  0  0  0  0  0  0  0  0  0  0
  -26.8819  -27.8045   23.2409 O   0  0  0  0  0  0  0  0  0  0  0  0
  -27.1745  -31.3965   22.1425 O   0  0  0  0  0  0  0  0  0  0  0  0
  -22.9655  -32.5677   23.9955 O   0  0  0  0  0  0  0  0  0  0  0  0
  -26.5933  -22.7203   25.9292 O   0  0  0  0  0  0  0  0  0  0  0  0
  -25.8847  -11.7755   20.4126 O   0  0  0  0  0  0  0  0  0  0  0  0
  -20.4611  -26.3047   23.0711 O   0  0  0  0  0  0  0  0  0  1  0  0
  -20.8068  -10.8557   22.3549 F   0  0  0  0  0  0  0  0  0  0  0  0
  -23.8669  -10.8888   18.7438 F   0  0  0  0  0  0  0  0  0  0  0  0
  -20.6502  -22.7131   22.3164 Cl  0  0  0  0  0  0  0  0  0  0  0  0
  1  2  1  0  0  0  0
  1  5  2  0  0  0  0
  2  6  2  0  0  0  0
  3  8  2  0  0  0  0
  3 17  1  0  0  0  0
  4  9  1  0  0  0  0
  4 17  2  0  0  0  0
  5 20  1  0  0  0  0
  6 22  1  0  0  0  0
  7 10  2  0  0  0  0
  7 21  1  0  0  0  0
  8 26  1  0  0  0  0
  9 26  2  0  0  0  0
 10 27  1  0  0  0  0
 11 12  2  0  0  0  0
 11 28  1  0  0  0  0
 12 29  1  0  0  0  0
 13 23  1  0  0  0  0
 13 27  2  0  0  0  0
 14 24  2  0  0  0  0
 14 25  1  0  0  0  0
 15 25  2  0  0  0  0
 15 31  1  0  0  0  0
 16 29  2  0  0  0  0
 16 30  1  0  0  0  0
 17 32  1  0  0  0  0
 18 24  1  0  0  0  0
 18 31  2  0  0  0  0
 18 34  1  0  0  0  0
 19 32  1  0  0  0  0
 19 33  2  0  0  0  0
 19 35  1  0  0  0  0
 20 22  2  0  0  0  0
 20 41  1  0  0  0  0
 21 23  2  0  0  0  0
 21 42  1  0  0  0  0
 22 50  1  0  0  0  0
 23 43  1  0  0  0  0
 24 53  1  0  0  0  0
 25 70  1  0  0  0  0
 26 79  1  0  0  0  0
 27 80  1  0  0  0  0
 28 30  2  0  0  0  0
 28 79  1  0  0  0  0
 29 81  1  0  0  0  0
 30 82  1  0  0  0  0
 31 83  1  0  0  0  0
 32 64  2  0  0  0  0
 33 65  1  0  0  0  0
 33 68  1  0  0  0  0
 34 36  2  0  0  0  0
 35 69  1  0  0  0  0
 35 74  2  0  0  0  0
 36 54  1  0  0  0  0
 36 60  1  0  0  0  0
 37 51  1  0  0  0  0
 37 71  1  0  0  0  0
 37 75  2  0  0  0  0
 38 61  1  0  0  0  0
 38 66  1  0  0  0  0
 38 76  2  0  0  0  0
 39 62  1  0  0  0  0
 39 72  1  0  0  0  0
 39 77  2  0  0  0  0
 40 67  1  0  0  0  0
 40 70  1  0  0  0  0
 40 78  2  0  0  0  0
 41 44  1  0  0  0  0
 42 51  1  0  0  0  0
 43 66  1  0  0  0  0
 44 46  1  0  0  0  0
 45 47  1  0  0  0  0
 45 48  1  0  0  0  0
 46 50  1  0  0  0  0
 47 52  1  0  0  0  0
 48 67  1  0  0  0  0
 49 52  1  0  0  0  0
 49 67  1  0  0  0  0
 50 71  1  0  0  0  0
 51 66  1  0  0  0  0
 52 65  1  0  0  0  0
 55 62  1  0  0  0  0
 56 63  1  0  0  0  0
 57 63  1  0  0  0  0
 58 63  1  0  0  0  0
 59 73  1  0  0  0  0
 60 80  1  0  0  0  0
 61 63  1  0  0  0  0
 61 72  1  0  0  0  0
 62 73  1  0  0  0  0
 64 65  1  0  0  0  0
M  CHG  1  73   1
M  ISO  4  40 100  60 101  70 100  80 101
M  END
> <Batch ID>
0036

> <Smiles>
CNC(C)C(=O)NC(C(=O)N1Cc2cc([101O:1][101CH2:1]C(C)=Cc3c(C)cc([100NH:0][100C:0](=O)N4CCCC(n5nc(-c6ccc(Oc7ccc(F)cc7F)cc6)c(C(N)=O)c5N)C4)cc3Cl)ccc2CC1C(=O)NC1CCCc2ccccc21)C(C)(C)C

> <Shape>
0.250

> <Color>
0.065

> <Negative vol penalty>
0.000

$$$$

  -OEChem-04042321543D

 89 98  0     1  0  0  0  0  0999 V2000
  -22.8797  -11.3841   18.2580 C   0  0  0  0  0  0  0  0  0  0  0  0
  -22.3006  -12.6249   18.5037 C   0  0  0  0  0  0  0  0  0  0  0  0
  -24.9073  -28.4931   21.7719 C   0  0  0  0  0  0  0  0  0  0  0  0
  -24.7774  -29.7044   19.6855 C   0  0  0  0  0  0  0  0  0  0  0  0
  -24.0603  -11.0261   18.9076 C   0  0  0  0  0  0  0  0  0  0  0  0
  -22.9012  -13.5082   19.4001 C   0  0  0  0  0  0  0  0  0  0  0  0
  -23.8637  -20.5154   20.5354 C   0  0  0  0  0  0  0  0  0  0  0  0
  -24.8355  -29.6957   22.4747 C   0  0  0  0  0  0  0  0  0  0  0  0
  -24.7056  -30.9071   20.3883 C   0  0  0  0  0  0  0  0  0  0  0  0
  -23.7001  -21.4777   21.5309 C   0  0  0  0  0  0  0  0  0  0  0  0
  -25.0484  -32.4747   24.8104 C   0  0  0  0  0  0  0  0  0  0  0  0
  -25.9314  -32.6596   25.8743 C   0  0  0  0  0  0  0  0  0  0  0  0
  -25.7808  -20.7836   22.5351 C   0  0  0  0  0  0  0  0  0  0  0  0
  -20.3234  -20.2687   22.3148 C   0  0  0  0  0  0  0  0  0  0  0  0
  -27.8017  -32.4138   24.3648 C   0  0  0  0  0  0  0  0  0  0  0  0
  -24.8783  -28.4974   20.3773 C   0  0  0  0  0  0  0  0  0  0  0  0
  -25.9964  -26.3110   19.6865 C   0  0  0  0  0  0  0  0  0  0  0  0
  -24.6809  -11.9093   19.8051 C   0  0  0  0  0  0  0  0  0  0  0  0
  -24.9834  -19.6713   20.5384 C   0  0  0  0  0  0  0  0  0  0  0  0
  -24.0905  -13.1612   20.0634 C   0  0  0  0  0  0  0  0  0  0  0  0
  -25.9575  -19.8132   21.5370 C   0  0  0  0  0  0  0  0  0  0  0  0
  -19.8447  -21.5774   22.3761 C   0  0  0  0  0  0  0  0  0  0  0  0
  -19.4937  -21.5608   19.9857 C   0  0  0  0  0  0  0  0  0  0  0  0
  -24.7346  -30.9028   21.7829 C   0  0  0  0  0  0  0  0  0  0  0  0
  -24.6573  -21.6099   22.5326 C   0  0  0  0  0  0  0  0  0  0  0  0
  -25.5421  -32.2592   23.5237 C   0  0  0  0  0  0  0  0  0  0  0  0
  -27.3080  -32.6292   25.6515 C   0  0  0  0  0  0  0  0  0  0  0  0
  -26.9187  -32.2288   23.3009 C   0  0  0  0  0  0  0  0  0  0  0  0
  -20.3873  -19.6060   21.0890 C   0  0  0  0  0  0  0  0  0  0  0  0
  -19.4299  -22.2235   21.2115 C   0  0  0  0  0  0  0  0  0  0  0  0
  -19.9724  -20.2521   19.9245 C   0  0  0  0  0  0  0  0  0  0  0  0
  -24.9530  -27.2554   19.6507 C   0  0  0  0  0  0  0  0  0  0  0  0
  -25.5906  -25.3183   18.8284 C   0  0  0  0  0  0  0  0  0  0  0  0
  -27.2228  -26.3294   20.4290 C   0  0  0  0  0  0  0  0  0  0  0  0
  -25.4256  -16.5324   20.7741 C   0  0  0  0  0  0  0  0  0  0  0  0
  -28.5164  -17.3163   20.1785 C   0  0  0  0  0  0  0  0  0  0  0  0
  -30.9760  -19.6803   20.2742 C   0  0  0  0  0  0  0  0  0  0  0  0
  -20.2039  -23.5149   16.9356 C   0  0  0  0  0  0  0  0  0  0  0  0
  -25.9308  -11.4592   20.5192 C   0  0  0  0  0  0  0  0  0  0  0  0
  -25.1585  -18.6562   19.4423 C   0  0  0  0  0  0  0  0  0  0  0  0
  -27.1878  -18.9452   21.5738 C   0  0  0  0  0  0  0  0  0  0  0  0
  -26.7051  -12.6021   21.1707 C   0  0  0  0  0  0  0  0  0  0  0  0
  -22.5018  -25.7090   24.1471 C   0  0  0  0  0  0  0  0  0  0  0  0
  -22.9271  -24.6063   14.9182 C   0  0  0  0  0  0  0  0  0  0  0  0
  -21.5593  -25.3084   25.2782 C   0  0  0  0  0  0  0  0  0  0  0  0
  -25.7591  -13.5153   21.9439 C   0  0  0  0  0  0  0  0  0  0  0  0
  -23.8492  -25.3238   15.9055 C   0  0  0  0  0  0  0  0  0  0  0  0
  -23.6747  -24.7438   23.9971 C   0  0  0  0  0  0  0  0  0  0  0  0
  -21.4548  -24.8345   15.2532 C   0  0  0  0  0  0  0  0  0  0  0  0
  -21.9981  -25.2180   17.6262 C   0  0  0  0  0  0  0  0  0  0  0  0
  -20.4658  -24.3110   24.9147 C   0  0  0  0  0  0  0  0  0  0  0  0
  -22.2185  -22.6231   24.1788 C   0  0  0  0  0  0  0  0  0  0  0  0
  -24.7254  -14.1565   21.0101 C   0  0  1  0  0  0  0  0  0  0  0  0
  -26.0801  -17.5057   19.8350 C   0  0  1  0  0  0  0  0  0  0  0  0
  -23.4934  -24.9717   17.3625 C   0  0  2  0  0  0  0  0  0  0  0  0
  -23.3271  -23.3648   23.4394 C   0  0  2  0  0  0  0  0  0  1  0  0
  -33.4084  -20.0143   19.7555 C   0  0  0  0  0  0  0  0  0  0  0  0
  -29.2640  -15.7683   22.6994 C   0  0  0  0  0  0  0  0  0  0  0  0
  -31.4920  -16.9095   22.6554 C   0  0  0  0  0  0  0  0  0  0  0  0
  -30.8147  -15.4268   20.7672 C   0  0  0  0  0  0  0  0  0  0  0  0
  -30.3819  -21.7947   18.2905 C   0  0  0  0  0  0  0  0  0  0  0  0
  -19.0465  -22.2589   18.7361 C   0  0  0  0  0  0  0  0  0  0  0  0
  -19.7936  -22.2496   23.7164 C   0  0  0  0  0  0  0  0  0  0  0  0
  -29.7086  -17.6853   21.0280 C   0  0  1  0  0  0  0  0  0  0  0  0
  -31.9851  -20.1267   19.2317 C   0  0  2  0  0  0  0  0  0  0  0  0
  -30.2958  -16.4627   21.7882 C   0  0  0  0  0  0  0  0  0  0  0  0
  -23.9592  -26.8950   18.8343 N   0  0  0  0  0  0  0  0  0  0  0  0
  -24.3763  -25.7132   18.3492 N   0  0  0  0  0  0  0  0  0  0  0  0
  -27.3106  -17.9633   20.4837 N   0  0  0  0  0  0  0  0  0  0  0  0
  -21.1833  -24.4800   16.6483 N   0  0  0  0  0  0  0  0  0  0  0  0
  -26.1577  -24.1549   18.4445 N   0  0  0  0  0  0  0  0  0  0  0  0
  -27.2375  -25.7583   21.7089 N   0  0  0  0  0  0  0  0  0  0  0  0
  -25.3207  -15.2495   20.2716 N   0  0  0  0  0  0  0  0  0  0  0  0
  -30.6560  -18.3461   20.1368 N   0  0  0  0  0  0  0  0  0  0  0  0
  -20.0139  -23.2333   18.2829 N   0  0  0  0  0  0  0  0  0  0  0  0
  -20.8849  -23.2751   23.9057 N   0  3  1  0  0  0  0  0  0  0  0  0
  -31.7373  -21.5443   18.8446 N   0  3  0  0  0  0  0  0  0  0  0  0
  -28.2701  -26.8519   19.9778 O   0  0  0  0  0  0  0  0  0  0  0  0
  -25.0454  -16.9165   21.8739 O   0  0  0  0  0  0  0  0  0  0  0  0
  -28.6519  -16.4899   19.2728 O   0  0  0  0  0  0  0  0  0  0  0  0
  -30.5201  -20.4383   21.1275 O   0  0  0  0  0  0  0  0  0  0  0  0
  -19.5512  -22.9426   16.0562 O   0  0  0  0  0  0  0  0  0  0  0  0
  -24.6642  -32.0766   22.4684 O   0  0  0  0  0  0  0  0  0  0  0  0
  -24.4998  -22.5479   23.5059 O   0  0  0  0  0  0  0  0  0  1  0  0
  -28.1557  -32.8084   26.6729 F   0  0  0  0  0  0  0  0  0  0  0  0
  -27.3989  -32.0234   22.0668 F   0  0  0  0  0  0  0  0  0  0  0  0
  -20.9913  -17.9851   21.0872 Cl  0  0  0  0  0  0  0  0  0  0  0  0
  -18.8358  -23.8495   21.2963 Cl  0  0  0  0  0  0  0  0  0  0  0  0
  -20.0462  -19.4428   18.3902 Cl  0  0  0  0  0  0  0  0  0  0  0  0
  1  2  1  0  0  0  0
  1  5  2  0  0  0  0
  2  6  2  0  0  0  0
  3  8  2  0  0  0  0
  3 16  1  0  0  0  0
  4  9  1  0  0  0  0
  4 16  2  0  0  0  0
  5 18  1  0  0  0  0
  6 20  1  0  0  0  0
  7 10  2  0  0  0  0
  7 19  1  0  0  0  0
  8 24  1  0  0  0  0
  9 24  2  0  0  0  0
 10 25  1  0  0  0  0
 11 12  2  0  0  0  0
 11 26  1  0  0  0  0
 12 27  1  0  0  0  0
 13 21  1  0  0  0  0
 13 25  2  0  0  0  0
 14 22  1  0  0  0  0
 14 29  2  0  0  0  0
 15 27  2  0  0  0  0
 15 28  1  0  0  0  0
 16 32  1  0  0  0  0
 17 32  1  0  0  0  0
 17 33  2  0  0  0  0
 17 34  1  0  0  0  0
 18 20  2  0  0  0  0
 18 39  1  0  0  0  0
 19 21  2  0  0  0  0
 19 40  1  0  0  0  0
 20 53  1  0  0  0  0
 21 41  1  0  0  0  0
 22 30  2  0  0  0  0
 22 63  1  0  0  0  0
 23 30  1  0  0  0  0
 23 31  2  0  0  0  0
 23 62  1  0  0  0  0
 24 83  1  0  0  0  0
 25 84  1  0  0  0  0
 26 28  2  0  0  0  0
 26 83  1  0  0  0  0
 27 85  1  0  0  0  0
 28 86  1  0  0  0  0
 29 31  1  0  0  0  0
 29 87  1  0  0  0  0
 30 88  1  0  0  0  0
 31 89  1  0  0  0  0
 32 67  2  0  0  0  0
 33 68  1  0  0  0  0
 33 71  1  0  0  0  0
 34 72  1  0  0  0  0
 34 78  2  0  0  0  0
 35 54  1  0  0  0  0
 35 73  1  0  0  0  0
 35 79  2  0  0  0  0
 36 64  1  0  0  0  0
 36 69  1  0  0  0  0
 36 80  2  0  0  0  0
 37 65  1  0  0  0  0
 37 74  1  0  0  0  0
 37 81  2  0  0  0  0
 38 70  1  0  0  0  0
 38 75  1  0  0  0  0
 38 82  2  0  0  0  0
 39 42  1  0  0  0  0
 40 54  1  0  0  0  0
 41 69  1  0  0  0  0
 42 46  1  0  0  0  0
 43 45  1  0  0  0  0
 43 48  1  0  0  0  0
 44 47  1  0  0  0  0
 44 49  1  0  0  0  0
 45 51  1  0  0  0  0
 46 53  1  0  0  0  0
 47 55  1  0  0  0  0
 48 56  1  0  0  0  0
 49 70  1  0  0  0  0
 50 55  1  0  0  0  0
 50 70  1  0  0  0  0
 51 76  1  0  0  0  0
 52 56  1  0  0  0  0
 52 76  1  0  0  0  0
 53 73  1  0  0  0  0
 54 69  1  0  0  0  0
 55 68  1  0  0  0  0
 56 84  1  0  0  0  0
 57 65  1  0  0  0  0
 58 66  1  0  0  0  0
 59 66  1  0  0  0  0
 60 66  1  0  0  0  0
 61 77  1  0  0  0  0
 62 75  1  0  0  0  0
 63 76  1  0  0  0  0
 64 66  1  0  0  0  0
 64 74  1  0  0  0  0
 65 77  1  0  0  0  0
 67 68  1  0  0  0  0
M  CHG  2  76   1  77   1
M  ISO  4  38 100  56 101  75 100  84 101
M  END
> <Batch ID>
0036

> <Smiles>
CNC(C)C(=O)NC(C(=O)N1Cc2cc([101O:1][101CH:1]3CCCCN(Cc4cc(Cl)c(Cl)c(C[100NH:0][100C:0](=O)N5CCCC(n6nc(-c7ccc(Oc8ccc(F)cc8F)cc7)c(C(N)=O)c6N)C5)c4Cl)C3)ccc2CC1C(=O)NC1CCCc2ccccc21)C(C)(C)C

> <Shape>
0.190

> <Color>
0.073

> <Negative vol penalty>
0.000

$$$$

  -OEChem-04042321543D

 84 92  0     1  0  0  0  0  0999 V2000
  -28.3199  -24.7715   16.5698 C   0  0  0  0  0  0  0  0  0  0  0  0
  -27.1397  -24.9096   17.2932 C   0  0  0  0  0  0  0  0  0  0  0  0
  -28.6678  -17.6564   21.3101 C   0  0  0  0  0  0  0  0  0  0  0  0
  -26.2896  -17.8684   20.9411 C   0  0  0  0  0  0  0  0  0  0  0  0
  -29.5035  -25.3244   17.0569 C   0  0  0  0  0  0  0  0  0  0  0  0
  -27.1426  -25.5997   18.5048 C   0  0  0  0  0  0  0  0  0  0  0  0
  -23.2387  -28.7975   18.9285 C   0  0  0  0  0  0  0  0  0  0  0  0
  -28.6393  -16.3759   20.7578 C   0  0  0  0  0  0  0  0  0  0  0  0
  -26.2611  -16.5879   20.3888 C   0  0  0  0  0  0  0  0  0  0  0  0
  -21.9985  -28.2489   19.2522 C   0  0  0  0  0  0  0  0  0  0  0  0
  -26.2583  -13.3948   21.5002 C   0  0  0  0  0  0  0  0  0  0  0  0
  -25.2335  -12.5382   21.9023 C   0  0  0  0  0  0  0  0  0  0  0  0
  -22.3123  -28.9110   21.5506 C   0  0  0  0  0  0  0  0  0  0  0  0
  -21.4644  -24.2563   26.0848 C   0  0  0  0  0  0  0  0  0  0  0  0
  -20.2316  -22.4863   24.3156 C   0  0  0  0  0  0  0  0  0  0  0  0
  -24.4714  -12.3764   19.6153 C   0  0  0  0  0  0  0  0  0  0  0  0
  -27.4929  -18.4027   21.4018 C   0  0  0  0  0  0  0  0  0  0  0  0
  -27.7349  -20.9399   21.2938 C   0  0  0  0  0  0  0  0  0  0  0  0
  -29.5190  -26.0300   18.2704 C   0  0  0  0  0  0  0  0  0  0  0  0
  -24.0312  -29.3983   19.9172 C   0  0  0  0  0  0  0  0  0  0  0  0
  -28.3277  -26.1614   19.0094 C   0  0  0  0  0  0  0  0  0  0  0  0
  -23.5610  -29.4687   21.2363 C   0  0  0  0  0  0  0  0  0  0  0  0
  -20.6552  -24.7456   25.0594 C   0  0  0  0  0  0  0  0  0  0  0  0
  -21.0408  -21.9970   25.3410 C   0  0  0  0  0  0  0  0  0  0  0  0
  -21.6572  -22.8819   26.2255 C   0  0  0  0  0  0  0  0  0  0  0  0
  -20.0388  -23.8606   24.1748 C   0  0  0  0  0  0  0  0  0  0  0  0
  -27.4360  -15.8416   20.2971 C   0  0  0  0  0  0  0  0  0  0  0  0
  -21.5364  -28.3030   20.5640 C   0  0  0  0  0  0  0  0  0  0  0  0
  -26.3895  -13.7423   20.1556 C   0  0  0  0  0  0  0  0  0  0  0  0
  -24.3401  -12.0290   20.9599 C   0  0  0  0  0  0  0  0  0  0  0  0
  -25.4961  -13.2331   19.2132 C   0  0  0  0  0  0  0  0  0  0  0  0
  -27.5215  -19.7253   21.9728 C   0  0  0  0  0  0  0  0  0  0  0  0
  -27.6673  -21.8984   22.2752 C   0  0  0  0  0  0  0  0  0  0  0  0
  -27.9730  -21.1802   19.9005 C   0  0  0  0  0  0  0  0  0  0  0  0
  -26.9085  -28.8254   21.1405 C   0  0  0  0  0  0  0  0  0  0  0  0
  -26.3650  -31.6096   22.7137 C   0  0  0  0  0  0  0  0  0  0  0  0
  -24.1020  -33.8561   23.9301 C   0  0  0  0  0  0  0  0  0  0  0  0
  -24.9746  -22.0782   27.6202 C   0  0  0  0  0  0  0  0  0  0  0  0
  -30.8321  -26.5694   18.7798 C   0  0  0  0  0  0  0  0  0  0  0  0
  -25.3548  -30.0091   19.5466 C   0  0  0  0  0  0  0  0  0  0  0  0
  -24.3645  -30.1208   22.3307 C   0  0  0  0  0  0  0  0  0  0  0  0
  -30.6754  -27.6078   19.8877 C   0  0  0  0  0  0  0  0  0  0  0  0
  -28.4432  -22.5278   26.9542 C   0  0  0  0  0  0  0  0  0  0  0  0
  -29.6746  -27.1261   20.9332 C   0  0  0  0  0  0  0  0  0  0  0  0
  -28.6196  -21.9701   25.5407 C   0  0  0  0  0  0  0  0  0  0  0  0
  -27.4224  -21.7227   27.7553 C   0  0  0  0  0  0  0  0  0  0  0  0
  -26.2857  -21.0060   25.6894 C   0  0  0  0  0  0  0  0  0  0  0  0
  -28.2856  -26.9244   20.3156 C   0  0  1  0  0  0  0  0  0  0  0  0
  -26.3055  -30.1398   20.7325 C   0  0  1  0  0  0  0  0  0  0  0  0
  -27.2641  -21.8189   24.8244 C   0  0  2  0  0  0  0  0  0  0  0  0
  -20.4629  -26.2208   24.9287 C   0  0  0  0  0  0  0  0  0  0  0  0
  -21.2332  -20.5217   25.4715 C   0  0  0  0  0  0  0  0  0  0  0  0
  -23.9575  -36.0140   25.2027 C   0  0  0  0  0  0  0  0  0  0  0  0
  -26.9766  -30.1195   25.3052 C   0  0  0  0  0  0  0  0  0  0  0  0
  -25.9128  -32.0069   26.5598 C   0  0  0  0  0  0  0  0  0  0  0  0
  -27.9440  -32.4219   25.1725 C   0  0  0  0  0  0  0  0  0  0  0  0
  -22.7763  -35.2339   21.6711 C   0  0  0  0  0  0  0  0  0  0  0  0
  -22.5286  -22.3814   27.3304 C   0  0  0  0  0  0  0  0  0  0  0  0
  -19.1637  -24.3635   23.0648 C   0  0  0  0  0  0  0  0  0  0  0  0
  -19.0559  -25.7283   20.9756 C   0  0  0  0  0  0  0  0  0  0  0  0
  -19.8841  -26.6546   20.1072 C   0  0  0  0  0  0  0  0  0  1  0  0
  -25.7306  -31.9873   24.0305 C   0  0  1  0  0  0  0  0  0  0  0  0
  -24.0296  -35.3689   23.8274 C   0  0  2  0  0  0  0  0  0  0  0  0
  -26.6265  -31.6199   25.2470 C   0  0  0  0  0  0  0  0  0  0  0  0
  -27.3326  -19.8939   23.2842 N   0  0  0  0  0  0  0  0  0  0  0  0
  -27.4272  -21.2258   23.4372 N   0  0  0  0  0  0  0  0  0  0  0  0
  -25.6549  -30.6980   21.9196 N   0  0  0  0  0  0  0  0  0  0  0  0
  -26.1590  -21.6179   27.0214 N   0  0  0  0  0  0  0  0  0  0  0  0
  -27.7905  -23.2424   22.2490 N   0  0  0  0  0  0  0  0  0  0  0  0
  -28.0109  -20.0824   19.0301 N   0  0  0  0  0  0  0  0  0  0  0  0
  -27.6220  -28.1980   20.1372 N   0  0  0  0  0  0  0  0  0  0  0  0
  -25.4055  -33.4063   23.9348 N   0  0  0  0  0  0  0  0  0  0  0  0
  -23.8230  -21.9476   26.8538 N   0  0  0  0  0  0  0  0  0  0  0  0
  -22.8243  -35.7784   23.0525 N   0  3  0  0  0  0  0  0  0  0  0  0
  -19.8799  -25.2616   22.1191 N   0  3  0  0  0  0  0  0  0  0  0  0
  -28.1632  -22.3329   19.4436 O   0  0  0  0  0  0  0  0  0  0  0  0
  -26.7401  -28.4118   22.2817 O   0  0  0  0  0  0  0  0  0  0  0  0
  -27.4471  -32.1106   22.3981 O   0  0  0  0  0  0  0  0  0  0  0  0
  -23.1024  -33.1447   24.0028 O   0  0  0  0  0  0  0  0  0  0  0  0
  -24.9466  -22.5741   28.7517 O   0  0  0  0  0  0  0  0  0  0  0  0
  -27.4079  -14.5922   19.7579 O   0  0  0  0  0  0  0  0  0  0  0  0
  -20.3266  -27.7677   20.8828 O   0  0  0  0  0  0  0  0  0  1  0  0
  -23.3570  -11.2052   21.3460 F   0  0  0  0  0  0  0  0  0  0  0  0
  -25.6179  -13.5624   17.9200 F   0  0  0  0  0  0  0  0  0  0  0  0
  1  2  1  0  0  0  0
  1  5  2  0  0  0  0
  2  6  2  0  0  0  0
  3  8  2  0  0  0  0
  3 17  1  0  0  0  0
  4  9  1  0  0  0  0
  4 17  2  0  0  0  0
  5 19  1  0  0  0  0
  6 21  1  0  0  0  0
  7 10  2  0  0  0  0
  7 20  1  0  0  0  0
  8 27  1  0  0  0  0
  9 27  2  0  0  0  0
 10 28  1  0  0  0  0
 11 12  2  0  0  0  0
 11 29  1  0  0  0  0
 12 30  1  0  0  0  0
 13 22  1  0  0  0  0
 13 28  2  0  0  0  0
 14 23  1  0  0  0  0
 14 25  2  0  0  0  0
 15 24  2  0  0  0  0
 15 26  1  0  0  0  0
 16 30  2  0  0  0  0
 16 31  1  0  0  0  0
 17 32  1  0  0  0  0
 18 32  1  0  0  0  0
 18 33  2  0  0  0  0
 18 34  1  0  0  0  0
 19 21  2  0  0  0  0
 19 39  1  0  0  0  0
 20 22  2  0  0  0  0
 20 40  1  0  0  0  0
 21 48  1  0  0  0  0
 22 41  1  0  0  0  0
 23 26  2  0  0  0  0
 23 51  1  0  0  0  0
 24 25  1  0  0  0  0
 24 52  1  0  0  0  0
 25 58  1  0  0  0  0
 26 59  1  0  0  0  0
 27 81  1  0  0  0  0
 28 82  1  0  0  0  0
 29 31  2  0  0  0  0
 29 81  1  0  0  0  0
 30 83  1  0  0  0  0
 31 84  1  0  0  0  0
 32 65  2  0  0  0  0
 33 66  1  0  0  0  0
 33 69  1  0  0  0  0
 34 70  1  0  0  0  0
 34 76  2  0  0  0  0
 35 49  1  0  0  0  0
 35 71  1  0  0  0  0
 35 77  2  0  0  0  0
 36 62  1  0  0  0  0
 36 67  1  0  0  0  0
 36 78  2  0  0  0  0
 37 63  1  0  0  0  0
 37 72  1  0  0  0  0
 37 79  2  0  0  0  0
 38 68  1  0  0  0  0
 38 73  1  0  0  0  0
 38 80  2  0  0  0  0
 39 42  1  0  0  0  0
 40 49  1  0  0  0  0
 41 67  1  0  0  0  0
 42 44  1  0  0  0  0
 43 45  1  0  0  0  0
 43 46  1  0  0  0  0
 44 48  1  0  0  0  0
 45 50  1  0  0  0  0
 46 68  1  0  0  0  0
 47 50  1  0  0  0  0
 47 68  1  0  0  0  0
 48 71  1  0  0  0  0
 49 67  1  0  0  0  0
 50 66  1  0  0  0  0
 53 63  1  0  0  0  0
 54 64  1  0  0  0  0
 55 64  1  0  0  0  0
 56 64  1  0  0  0  0
 57 74  1  0  0  0  0
 58 73  1  0  0  0  0
 59 75  1  0  0  0  0
 60 61  1  0  0  0  0
 60 75  1  0  0  0  0
 61 82  1  0  0  0  0
 62 64  1  0  0  0  0
 62 72  1  0  0  0  0
 63 74  1  0  0  0  0
 65 66  1  0  0  0  0
M  CHG  2  74   1  75   1
M  ISO  4  38 100  61 101  73 100  82 101
M  END
> <Batch ID>
0036

> <Smiles>
CNC(C)C(=O)NC(C(=O)N1Cc2cc([101O:1][101CH2:1]CNCc3cc(C)c(C[100NH:0][100C:0](=O)N4CCCC(n5nc(-c6ccc(Oc7ccc(F)cc7F)cc6)c(C(N)=O)c5N)C4)cc3C)ccc2CC1C(=O)NC1CCCc2ccccc21)C(C)(C)C

> <Shape>
0.268

> <Color>
0.077

> <Negative vol penalty>
0.000

$$$$

  -OEChem-04042321543D

 95105  0     1  0  0  0  0  0999 V2000
  -19.7363  -20.1329   20.7040 C   0  0  0  0  0  0  0  0  0  0  0  0
  -20.9377  -20.6046   20.1847 C   0  0  0  0  0  0  0  0  0  0  0  0
  -23.4231  -10.0560   22.2476 C   0  0  0  0  0  0  0  0  0  0  0  0
  -24.3591  -11.5112   23.9339 C   0  0  0  0  0  0  0  0  0  0  0  0
  -18.9860  -20.9359   21.5620 C   0  0  0  0  0  0  0  0  0  0  0  0
  -21.3890  -21.8800   20.5224 C   0  0  0  0  0  0  0  0  0  0  0  0
  -26.3184  -21.9532   21.6801 C   0  0  0  0  0  0  0  0  0  0  0  0
  -22.8336   -9.2794   23.2451 C   0  0  0  0  0  0  0  0  0  0  0  0
  -23.7696  -10.7346   24.9313 C   0  0  0  0  0  0  0  0  0  0  0  0
  -27.2222  -21.9222   20.6190 C   0  0  0  0  0  0  0  0  0  0  0  0
  -20.1173   -9.4449   25.2519 C   0  0  0  0  0  0  0  0  0  0  0  0
  -18.7888   -9.0593   25.0729 C   0  0  0  0  0  0  0  0  0  0  0  0
  -27.5201  -24.3084   20.8110 C   0  0  0  0  0  0  0  0  0  0  0  0
  -30.8169  -18.5738   16.6630 C   0  0  0  0  0  0  0  0  0  0  0  0
  -19.4517   -6.7375   25.1545 C   0  0  0  0  0  0  0  0  0  0  0  0
  -24.1860  -11.1719   22.5920 C   0  0  0  0  0  0  0  0  0  0  0  0
  -24.2362  -13.0896   20.9105 C   0  0  0  0  0  0  0  0  0  0  0  0
  -19.4331  -22.2181   21.9180 C   0  0  0  0  0  0  0  0  0  0  0  0
  -25.9999  -23.1657   22.3086 C   0  0  0  0  0  0  0  0  0  0  0  0
  -20.6433  -22.7014   21.3850 C   0  0  0  0  0  0  0  0  0  0  0  0
  -26.6140  -24.3517   21.8815 C   0  0  0  0  0  0  0  0  0  0  0  0
  -30.4239  -17.3191   17.1285 C   0  0  0  0  0  0  0  0  0  0  0  0
  -31.0276  -19.6175   17.5641 C   0  0  0  0  0  0  0  0  0  0  0  0
  -30.4521  -18.1517   19.3964 C   0  0  0  0  0  0  0  0  0  0  0  0
  -30.2414  -17.1080   18.4952 C   0  0  0  0  0  0  0  0  0  0  0  0
  -23.0068   -9.6186   24.5869 C   0  0  0  0  0  0  0  0  0  0  0  0
  -27.8210  -23.1003   20.1824 C   0  0  0  0  0  0  0  0  0  0  0  0
  -21.1131   -8.4768   25.3821 C   0  0  0  0  0  0  0  0  0  0  0  0
  -18.4560   -7.7056   25.0243 C   0  0  0  0  0  0  0  0  0  0  0  0
  -20.7803   -7.1231   25.3334 C   0  0  0  0  0  0  0  0  0  0  0  0
  -30.8451  -19.4064   18.9308 C   0  0  0  0  0  0  0  0  0  0  0  0
  -24.7957  -11.9742   21.5622 C   0  0  0  0  0  0  0  0  0  0  0  0
  -25.2062  -13.4925   20.0255 C   0  0  0  0  0  0  0  0  0  0  0  0
  -32.3978  -26.2142   15.8457 C   0  0  0  0  0  0  0  0  0  0  0  0
  -32.6088  -24.9034   16.0323 C   0  0  0  0  0  0  0  0  0  0  0  0
  -22.9543  -13.7063   21.0892 C   0  0  0  0  0  0  0  0  0  0  0  0
  -23.3405  -24.8651   22.6874 C   0  0  0  0  0  0  0  0  0  0  0  0
  -25.2413  -26.6921   24.5772 C   0  0  0  0  0  0  0  0  0  0  0  0
  -28.3922  -27.7316   25.3760 C   0  0  0  0  0  0  0  0  0  0  0  0
  -30.5199  -14.6235   18.8052 C   0  0  0  0  0  0  0  0  0  0  0  0
  -18.5644  -23.0677   22.8114 C   0  0  0  0  0  0  0  0  0  0  0  0
  -25.0433  -23.1783   23.4693 C   0  0  0  0  0  0  0  0  0  0  0  0
  -26.3214  -25.6763   22.5359 C   0  0  0  0  0  0  0  0  0  0  0  0
  -31.1232  -26.8903   15.4298 C   0  0  0  0  0  0  0  0  0  0  0  0
  -31.6354  -23.7790   15.8240 C   0  0  0  0  0  0  0  0  0  0  0  0
  -19.2975  -24.2621   23.4167 C   0  0  0  0  0  0  0  0  0  0  0  0
  -30.5123  -27.7152   16.5688 C   0  0  0  0  0  0  0  0  0  0  0  0
  -29.5740  -26.9694   17.5313 C   0  0  0  0  0  0  0  0  0  0  0  0
  -29.4924  -11.2221   18.5777 C   0  0  0  0  0  0  0  0  0  0  0  0
  -27.9105  -21.6939   16.6102 C   0  0  0  0  0  0  0  0  0  0  0  0
  -20.1077  -24.9887   22.3478 C   0  0  0  0  0  0  0  0  0  0  0  0
  -30.1170  -25.6575   18.1138 C   0  0  0  0  0  0  0  0  0  0  0  0
  -28.1328  -11.2063   19.2803 C   0  0  0  0  0  0  0  0  0  0  0  0
  -27.4357  -23.0721   17.0577 C   0  0  0  0  0  0  0  0  0  0  0  0
  -30.4701  -12.1802   19.2558 C   0  0  0  0  0  0  0  0  0  0  0  0
  -28.6118  -13.5334   20.1418 C   0  0  0  0  0  0  0  0  0  0  0  0
  -29.2894  -21.6748   15.9705 C   0  0  0  0  0  0  0  0  0  0  0  0
  -21.1784  -24.0698   21.7474 C   0  0  1  0  0  0  0  0  0  0  0  0
  -24.4024  -24.5433   23.7005 C   0  0  1  0  0  0  0  0  0  0  0  0
  -29.6321  -24.4086   17.3127 C   0  0  1  0  0  0  0  0  0  0  0  0
  -27.5727  -12.6314   19.4560 C   0  0  2  0  0  0  0  0  0  0  0  0
  -30.8202  -23.4171   17.0935 C   0  0  1  0  0  0  0  0  0  0  0  0
  -28.3596  -23.8502   18.0040 C   0  0  2  0  0  0  0  0  0  1  0  0
  -30.2060  -16.2210   16.1383 C   0  0  0  0  0  0  0  0  0  0  0  0
  -30.2522  -17.9100   20.8618 C   0  0  0  0  0  0  0  0  0  0  0  0
  -29.6258  -29.2573   26.9406 C   0  0  0  0  0  0  0  0  0  0  0  0
  -24.3673  -29.0979   22.9165 C   0  0  0  0  0  0  0  0  0  0  0  0
  -26.2983  -30.3721   23.8736 C   0  0  0  0  0  0  0  0  0  0  0  0
  -24.4991  -29.5217   25.3777 C   0  0  0  0  0  0  0  0  0  0  0  0
  -29.8941  -25.4799   26.5730 C   0  0  0  0  0  0  0  0  0  0  0  0
  -31.4496  -20.9495   17.0177 C   0  0  0  0  0  0  0  0  0  0  0  0
  -26.1360  -27.8878   24.3564 C   0  0  1  0  0  0  0  0  0  0  0  0
  -29.1071  -27.8464   26.7103 C   0  0  2  0  0  0  0  0  0  0  0  0
  -25.3294  -29.1954   24.1172 C   0  0  0  0  0  0  0  0  0  0  0  0
  -26.0258  -11.6868   21.1281 N   0  0  0  0  0  0  0  0  0  0  0  0
  -26.2471  -12.6274   20.1941 N   0  0  0  0  0  0  0  0  0  0  0  0
  -25.3745  -25.6378   23.6626 N   0  0  0  0  0  0  0  0  0  0  0  0
  -29.8729  -13.5113   19.3842 N   0  0  0  0  0  0  0  0  0  0  0  0
  -25.2618  -14.4987   19.1273 N   0  0  0  0  0  0  0  0  0  0  0  0
  -22.0792  -13.1651   22.0409 N   0  0  0  0  0  0  0  0  0  0  0  0
  -29.8421  -15.8318   18.9639 N   0  0  0  0  0  0  0  0  0  0  0  0
  -22.3051  -23.9509   22.6479 N   0  0  0  0  0  0  0  0  0  0  0  0
  -27.0355  -27.9420   25.5038 N   0  0  0  0  0  0  0  0  0  0  0  0
  -30.3353  -21.9703   17.0197 N   0  3  2  0  0  0  0  0  0  0  0  0
  -30.2626  -26.9067   26.7614 N   0  3  0  0  0  0  0  0  0  0  0  0
  -22.5890  -14.6977   20.4130 O   0  0  0  0  0  0  0  0  0  0  0  0
  -23.4516  -25.8693   21.9939 O   0  0  0  0  0  0  0  0  0  0  0  0
  -24.4583  -26.6905   25.5304 O   0  0  0  0  0  0  0  0  0  0  0  0
  -28.9792  -27.4841   24.3250 O   0  0  0  0  0  0  0  0  0  0  0  0
  -31.5822  -14.5079   18.1888 O   0  0  0  0  0  0  0  0  0  0  0  0
  -22.4314   -8.8612   25.5604 O   0  0  0  0  0  0  0  0  0  0  0  0
  -28.7049  -23.0729   19.1442 O   0  0  0  0  0  0  0  0  0  1  0  0
  -17.1800   -7.3355   24.8540 F   0  0  0  0  0  0  0  0  0  0  0  0
  -21.7323   -6.1884   25.4591 F   0  0  0  0  0  0  0  0  0  0  0  0
  -31.1081  -20.7060   20.0461 Cl  0  0  0  0  0  0  0  0  0  0  0  0
  1  2  1  0  0  0  0
  1  5  2  0  0  0  0
  2  6  2  0  0  0  0
  3  8  2  0  0  0  0
  3 16  1  0  0  0  0
  4  9  1  0  0  0  0
  4 16  2  0  0  0  0
  5 18  1  0  0  0  0
  6 20  1  0  0  0  0
  7 10  2  0  0  0  0
  7 19  1  0  0  0  0
  8 26  1  0  0  0  0
  9 26  2  0  0  0  0
 10 27  1  0  0  0  0
 11 12  2  0  0  0  0
 11 28  1  0  0  0  0
 12 29  1  0  0  0  0
 13 21  1  0  0  0  0
 13 27  2  0  0  0  0
 14 22  2  0  0  0  0
 14 23  1  0  0  0  0
 15 29  2  0  0  0  0
 15 30  1  0  0  0  0
 16 32  1  0  0  0  0
 17 32  1  0  0  0  0
 17 33  2  0  0  0  0
 17 36  1  0  0  0  0
 18 20  2  0  0  0  0
 18 41  1  0  0  0  0
 19 21  2  0  0  0  0
 19 42  1  0  0  0  0
 20 58  1  0  0  0  0
 21 43  1  0  0  0  0
 22 25  1  0  0  0  0
 22 64  1  0  0  0  0
 23 31  2  0  0  0  0
 23 71  1  0  0  0  0
 24 25  2  0  0  0  0
 24 31  1  0  0  0  0
 24 65  1  0  0  0  0
 25 81  1  0  0  0  0
 26 91  1  0  0  0  0
 27 92  1  0  0  0  0
 28 30  2  0  0  0  0
 28 91  1  0  0  0  0
 29 93  1  0  0  0  0
 30 94  1  0  0  0  0
 31 95  1  0  0  0  0
 32 75  2  0  0  0  0
 33 76  1  0  0  0  0
 33 79  1  0  0  0  0
 34 35  2  0  0  0  0
 34 44  1  0  0  0  0
 35 45  1  0  0  0  0
 36 80  1  0  0  0  0
 36 86  2  0  0  0  0
 37 59  1  0  0  0  0
 37 82  1  0  0  0  0
 37 87  2  0  0  0  0
 38 72  1  0  0  0  0
 38 77  1  0  0  0  0
 38 88  2  0  0  0  0
 39 73  1  0  0  0  0
 39 83  1  0  0  0  0
 39 89  2  0  0  0  0
 40 78  1  0  0  0  0
 40 81  1  0  0  0  0
 40 90  2  0  0  0  0
 41 46  1  0  0  0  0
 42 59  1  0  0  0  0
 43 77  1  0  0  0  0
 44 47  1  0  0  0  0
 45 62  1  0  0  0  0
 46 51  1  0  0  0  0
 47 48  1  0  0  0  0
 48 52  1  0  0  0  0
 49 53  1  0  0  0  0
 49 55  1  0  0  0  0
 50 54  1  0  0  0  0
 50 57  1  0  0  0  0
 51 58  1  0  0  0  0
 52 60  1  0  0  0  0
 53 61  1  0  0  0  0
 54 63  1  0  0  0  0
 55 78  1  0  0  0  0
 56 61  1  0  0  0  0
 56 78  1  0  0  0  0
 57 84  1  0  0  0  0
 58 82  1  0  0  0  0
 59 77  1  0  0  0  0
 60 62  1  0  0  0  0
 60 63  1  0  0  0  0
 61 76  1  0  0  0  0
 62 84  1  0  0  0  0
 63 92  1  0  0  0  0
 66 73  1  0  0  0  0
 67 74  1  0  0  0  0
 68 74  1  0  0  0  0
 69 74  1  0  0  0  0
 70 85  1  0  0  0  0
 71 84  1  0  0  0  0
 72 74  1  0  0  0  0
 72 83  1  0  0  0  0
 73 85  1  0  0  0  0
 75 76  1  0  0  0  0
M  CHG  2  84   1  85   1
M  ISO  4  40 100  63 101  81 100  92 101
M  END
> <Batch ID>
0036

> <Smiles>
CNC(C)C(=O)NC(C(=O)N1Cc2cc([101O:1][101CH:1]3CCCN(Cc4cc(C)c([100NH:0][100C:0](=O)N5CCCC(n6nc(-c7ccc(Oc8ccc(F)cc8F)cc7)c(C(N)=O)c6N)C5)c(C)c4Cl)C4CC=CCCCCC43)ccc2CC1C(=O)NC1CCCc2ccccc21)C(C)(C)C

> <Shape>
0.172

> <Color>
0.105

> <Negative vol penalty>
0.000

$$$$

  -OEChem-04042321543D

 87 96  0     1  0  0  0  0  0999 V2000
  -16.6638  -27.9478   20.2668 C   0  0  0  0  0  0  0  0  0  0  0  0
  -17.9133  -28.2264   19.7223 C   0  0  0  0  0  0  0  0  0  0  0  0
  -26.5365  -12.8016   21.5696 C   0  0  0  0  0  0  0  0  0  0  0  0
  -26.1777  -13.6906   19.3519 C   0  0  0  0  0  0  0  0  0  0  0  0
  -16.4570  -28.0820   21.6391 C   0  0  0  0  0  0  0  0  0  0  0  0
  -18.9566  -28.6404   20.5497 C   0  0  0  0  0  0  0  0  0  0  0  0
  -23.3149  -26.2811   19.5086 C   0  0  0  0  0  0  0  0  0  0  0  0
  -28.9929  -23.5901   18.0718 C   0  0  0  0  0  0  0  0  0  0  0  0
  -29.4415  -22.5703   18.9110 C   0  0  0  0  0  0  0  0  0  0  0  0
  -25.2534  -12.2545   21.5579 C   0  0  0  0  0  0  0  0  0  0  0  0
  -24.8946  -13.1434   19.3401 C   0  0  0  0  0  0  0  0  0  0  0  0
  -24.0297  -26.7254   18.3971 C   0  0  0  0  0  0  0  0  0  0  0  0
  -23.7098   -9.5520   20.2362 C   0  0  0  0  0  0  0  0  0  0  0  0
  -23.5607   -8.2395   20.6839 C   0  0  0  0  0  0  0  0  0  0  0  0
  -25.4874  -27.9877   19.8465 C   0  0  0  0  0  0  0  0  0  0  0  0
  -22.0560   -9.0006   22.4142 C   0  0  0  0  0  0  0  0  0  0  0  0
  -26.9986  -13.5197   20.4666 C   0  0  0  0  0  0  0  0  0  0  0  0
  -29.5133  -13.4735   20.0403 C   0  0  0  0  0  0  0  0  0  0  0  0
  -17.5010  -28.4886   22.4850 C   0  0  0  0  0  0  0  0  0  0  0  0
  -23.6749  -26.6962   20.7987 C   0  0  0  0  0  0  0  0  0  0  0  0
  -18.7633  -28.7814   21.9344 C   0  0  0  0  0  0  0  0  0  0  0  0
  -24.7771  -27.5453   20.9730 C   0  0  0  0  0  0  0  0  0  0  0  0
  -28.6059  -23.2976   16.7640 C   0  0  0  0  0  0  0  0  0  0  0  0
  -28.6675  -21.9853   16.2954 C   0  0  0  0  0  0  0  0  0  0  0  0
  -29.1162  -20.9654   17.1346 C   0  0  0  0  0  0  0  0  0  0  0  0
  -29.5032  -21.2580   18.4425 C   0  0  0  0  0  0  0  0  0  0  0  0
  -24.4325  -12.4254   20.4432 C   0  0  0  0  0  0  0  0  0  0  0  0
  -25.1143  -27.5811   18.5657 C   0  0  0  0  0  0  0  0  0  0  0  0
  -23.0321  -10.5890   20.8775 C   0  0  0  0  0  0  0  0  0  0  0  0
  -22.7338   -7.9637   21.7729 C   0  0  0  0  0  0  0  0  0  0  0  0
  -22.2052  -10.3132   21.9664 C   0  0  0  0  0  0  0  0  0  0  0  0
  -28.3236  -14.0855   20.4783 C   0  0  0  0  0  0  0  0  0  0  0  0
  -30.4863  -14.4175   20.2604 C   0  0  0  0  0  0  0  0  0  0  0  0
  -28.3841  -26.7783   15.3977 C   0  0  0  0  0  0  0  0  0  0  0  0
  -29.3541  -26.8937   14.4838 C   0  0  0  0  0  0  0  0  0  0  0  0
  -29.7203  -12.1683   19.4841 C   0  0  0  0  0  0  0  0  0  0  0  0
  -22.2402  -28.3453   23.1065 C   0  0  0  0  0  0  0  0  0  0  0  0
  -24.8886  -27.5367   24.7960 C   0  0  0  0  0  0  0  0  0  0  0  0
  -28.1726  -26.6086   24.7666 C   0  0  0  0  0  0  0  0  0  0  0  0
  -30.3787  -20.3801   20.6354 C   0  0  0  0  0  0  0  0  0  0  0  0
  -17.2168  -28.6649   23.9557 C   0  0  0  0  0  0  0  0  0  0  0  0
  -22.9101  -26.1867   21.9895 C   0  0  0  0  0  0  0  0  0  0  0  0
  -25.2167  -28.0040   22.3385 C   0  0  0  0  0  0  0  0  0  0  0  0
  -27.2041  -27.6871   15.5378 C   0  0  0  0  0  0  0  0  0  0  0  0
  -18.4765  -28.7476   24.8139 C   0  0  0  0  0  0  0  0  0  0  0  0
  -31.5420  -18.1109   23.1203 C   0  0  0  0  0  0  0  0  0  0  0  0
  -19.4879  -29.7019   24.1868 C   0  0  0  0  0  0  0  0  0  0  0  0
  -30.9620  -16.7643   22.6815 C   0  0  0  0  0  0  0  0  0  0  0  0
  -30.5752  -19.2614   22.8456 C   0  0  0  0  0  0  0  0  0  0  0  0
  -29.5010  -17.9943   21.0263 C   0  0  0  0  0  0  0  0  0  0  0  0
  -27.4832  -26.2664   17.4660 C   0  0  0  0  0  0  0  0  0  0  0  0
  -19.9267  -29.2091   22.8025 C   0  0  1  0  0  0  0  0  0  0  0  0
  -23.0479  -27.0831   23.2163 C   0  0  1  0  0  0  0  0  0  0  0  0
  -30.4651  -16.8130   21.2234 C   0  0  2  0  0  0  0  0  0  0  0  0
  -26.4307  -27.0306   16.6743 C   0  0  1  0  0  0  0  0  0  1  0  0
  -28.2517  -21.6746   14.8923 C   0  0  0  0  0  0  0  0  0  0  0  0
  -29.1815  -19.5577   16.6297 C   0  0  0  0  0  0  0  0  0  0  0  0
  -30.5156  -25.9640   14.3785 C   0  0  0  0  0  0  0  0  0  0  0  0
  -30.0775  -26.0566   26.3041 C   0  0  0  0  0  0  0  0  0  0  0  0
  -25.2516  -30.5039   25.4077 C   0  0  0  0  0  0  0  0  0  0  0  0
  -27.6048  -30.0019   26.0996 C   0  0  0  0  0  0  0  0  0  0  0  0
  -25.6971  -28.9785   27.3388 C   0  0  0  0  0  0  0  0  0  0  0  0
  -28.4071  -23.8658   23.6799 C   0  0  0  0  0  0  0  0  0  0  0  0
  -28.1272  -24.4132   15.8824 C   0  0  0  0  0  0  0  0  0  0  0  0
  -26.2485  -28.1552   25.0129 C   0  0  1  0  0  0  0  0  0  0  0  0
  -28.9135  -25.5031   25.4969 C   0  0  2  0  0  0  0  0  0  0  0  0
  -26.1913  -29.4030   25.9387 C   0  0  0  0  0  0  0  0  0  0  0  0
  -28.5206  -15.3226   20.9418 N   0  0  0  0  0  0  0  0  0  0  0  0
  -29.8454  -15.4955   20.7963 N   0  0  0  0  0  0  0  0  0  0  0  0
  -24.4332  -27.4834   23.4710 N   0  0  0  0  0  0  0  0  0  0  0  0
  -30.1505  -19.2466   21.4441 N   0  0  0  0  0  0  0  0  0  0  0  0
  -31.8191  -14.4223   20.0459 N   0  0  0  0  0  0  0  0  0  0  0  0
  -28.6115  -11.3256   19.3265 N   0  0  0  0  0  0  0  0  0  0  0  0
  -29.9619  -20.2379   19.3123 N   0  0  0  0  0  0  0  0  0  0  0  0
  -20.8862  -28.1332   22.9298 N   0  0  0  0  0  0  0  0  0  0  0  0
  -27.1098  -27.0853   25.5046 N   0  0  0  0  0  0  0  0  0  0  0  0
  -28.4627  -25.7745   16.4213 N   0  3  1  0  0  0  0  0  0  0  0  0
  -29.4469  -24.5073   24.5249 N   0  3  0  0  0  0  0  0  0  0  0  0
  -30.8573  -11.7553   19.1524 O   0  0  0  0  0  0  0  0  0  0  0  0
  -22.8034  -29.4312   23.1784 O   0  0  0  0  0  0  0  0  0  0  0  0
  -24.2568  -27.1099   25.7657 O   0  0  0  0  0  0  0  0  0  0  0  0
  -28.5057  -27.0118   23.6544 O   0  0  0  0  0  0  0  0  0  0  0  0
  -30.9298  -21.3918   21.0768 O   0  0  0  0  0  0  0  0  0  0  0  0
  -23.1806  -11.8915   20.4313 O   0  0  0  0  0  0  0  0  0  0  0  0
  -25.8133  -28.0168   17.4824 O   0  0  0  0  0  0  0  0  0  1  0  0
  -22.5895   -6.7030   22.2018 F   0  0  0  0  0  0  0  0  0  0  0  0
  -21.5507  -11.3051   22.5858 F   0  0  0  0  0  0  0  0  0  0  0  0
  1  2  1  0  0  0  0
  1  5  2  0  0  0  0
  2  6  2  0  0  0  0
  3 10  2  0  0  0  0
  3 17  1  0  0  0  0
  4 11  1  0  0  0  0
  4 17  2  0  0  0  0
  5 19  1  0  0  0  0
  6 21  1  0  0  0  0
  7 12  2  0  0  0  0
  7 20  1  0  0  0  0
  8  9  2  0  0  0  0
  8 23  1  0  0  0  0
  9 26  1  0  0  0  0
 10 27  1  0  0  0  0
 11 27  2  0  0  0  0
 12 28  1  0  0  0  0
 13 14  2  0  0  0  0
 13 29  1  0  0  0  0
 14 30  1  0  0  0  0
 15 22  1  0  0  0  0
 15 28  2  0  0  0  0
 16 30  2  0  0  0  0
 16 31  1  0  0  0  0
 17 32  1  0  0  0  0
 18 32  1  0  0  0  0
 18 33  2  0  0  0  0
 18 36  1  0  0  0  0
 19 21  2  0  0  0  0
 19 41  1  0  0  0  0
 20 22  2  0  0  0  0
 20 42  1  0  0  0  0
 21 52  1  0  0  0  0
 22 43  1  0  0  0  0
 23 24  2  0  0  0  0
 23 64  1  0  0  0  0
 24 25  1  0  0  0  0
 24 56  1  0  0  0  0
 25 26  2  0  0  0  0
 25 57  1  0  0  0  0
 26 74  1  0  0  0  0
 27 84  1  0  0  0  0
 28 85  1  0  0  0  0
 29 31  2  0  0  0  0
 29 84  1  0  0  0  0
 30 86  1  0  0  0  0
 31 87  1  0  0  0  0
 32 68  2  0  0  0  0
 33 69  1  0  0  0  0
 33 72  1  0  0  0  0
 34 35  2  0  0  0  0
 34 44  1  0  0  0  0
 34 77  1  0  0  0  0
 35 58  1  0  0  0  0
 36 73  1  0  0  0  0
 36 79  2  0  0  0  0
 37 53  1  0  0  0  0
 37 75  1  0  0  0  0
 37 80  2  0  0  0  0
 38 65  1  0  0  0  0
 38 70  1  0  0  0  0
 38 81  2  0  0  0  0
 39 66  1  0  0  0  0
 39 76  1  0  0  0  0
 39 82  2  0  0  0  0
 40 71  1  0  0  0  0
 40 74  1  0  0  0  0
 40 83  2  0  0  0  0
 41 45  1  0  0  0  0
 42 53  1  0  0  0  0
 43 70  1  0  0  0  0
 44 55  1  0  0  0  0
 45 47  1  0  0  0  0
 46 48  1  0  0  0  0
 46 49  1  0  0  0  0
 47 52  1  0  0  0  0
 48 54  1  0  0  0  0
 49 71  1  0  0  0  0
 50 54  1  0  0  0  0
 50 71  1  0  0  0  0
 51 55  1  0  0  0  0
 51 77  1  0  0  0  0
 52 75  1  0  0  0  0
 53 70  1  0  0  0  0
 54 69  1  0  0  0  0
 55 85  1  0  0  0  0
 59 66  1  0  0  0  0
 60 67  1  0  0  0  0
 61 67  1  0  0  0  0
 62 67  1  0  0  0  0
 63 78  1  0  0  0  0
 64 77  1  0  0  0  0
 65 67  1  0  0  0  0
 65 76  1  0  0  0  0
 66 78  1  0  0  0  0
 68 69  1  0  0  0  0
M  CHG  2  77   1  78   1
M  ISO  4  40 100  55 101  74 100  85 101
M  END
> <Batch ID>
0036

> <Smiles>
CC=C1C[101CH:1]([101O:1]c2ccc3c(c2)CN(C(=O)C(NC(=O)C(C)NC)C(C)(C)C)C(C(=O)NC2CCCc4ccccc42)C3)CN1Cc1ccc([100NH:0][100C:0](=O)N2CCCC(n3nc(-c4ccc(Oc5ccc(F)cc5F)cc4)c(C(N)=O)c3N)C2)c(C)c1C

> <Shape>
0.256

> <Color>
0.068

> <Negative vol penalty>
0.000

$$$$

  -OEChem-04042321543D

 89 98  0     1  0  0  0  0  0999 V2000
  -22.5786  -37.4191   23.0050 C   0  0  0  0  0  0  0  0  0  0  0  0
  -23.7567  -36.7140   22.7808 C   0  0  0  0  0  0  0  0  0  0  0  0
  -25.3520  -13.6597   21.6533 C   0  0  0  0  0  0  0  0  0  0  0  0
  -26.6655  -13.3697   19.6464 C   0  0  0  0  0  0  0  0  0  0  0  0
  -21.4662  -36.7655   23.5334 C   0  0  0  0  0  0  0  0  0  0  0  0
  -23.8234  -35.3550   23.0859 C   0  0  0  0  0  0  0  0  0  0  0  0
  -26.9726  -31.0549   20.0697 C   0  0  0  0  0  0  0  0  0  0  0  0
  -25.1047  -12.2875   21.6898 C   0  0  0  0  0  0  0  0  0  0  0  0
  -26.4182  -11.9974   19.6828 C   0  0  0  0  0  0  0  0  0  0  0  0
  -28.2133  -30.4634   20.3038 C   0  0  0  0  0  0  0  0  0  0  0  0
  -23.8297   -8.9077   22.1084 C   0  0  0  0  0  0  0  0  0  0  0  0
  -22.5244   -8.4891   22.3660 C   0  0  0  0  0  0  0  0  0  0  0  0
  -30.2549  -23.7689   18.1045 C   0  0  0  0  0  0  0  0  0  0  0  0
  -27.1194  -28.6238   21.4167 C   0  0  0  0  0  0  0  0  0  0  0  0
  -27.4978  -23.9886   17.7404 C   0  0  0  0  0  0  0  0  0  0  0  0
  -21.7598   -9.6611   20.3965 C   0  0  0  0  0  0  0  0  0  0  0  0
  -26.1324  -14.2008   20.6316 C   0  0  0  0  0  0  0  0  0  0  0  0
  -29.4948  -22.6318   17.8312 C   0  0  0  0  0  0  0  0  0  0  0  0
  -29.6365  -25.0159   18.1959 C   0  0  0  0  0  0  0  0  0  0  0  0
  -27.4590  -16.3058   21.1945 C   0  0  0  0  0  0  0  0  0  0  0  0
  -21.5162  -35.3957   23.8361 C   0  0  0  0  0  0  0  0  0  0  0  0
  -25.7949  -30.4396   20.5177 C   0  0  0  0  0  0  0  0  0  0  0  0
  -22.7110  -34.6828   23.6201 C   0  0  0  0  0  0  0  0  0  0  0  0
  -25.8649  -29.2082   21.1848 C   0  0  0  0  0  0  0  0  0  0  0  0
  -28.2580  -25.1257   18.0138 C   0  0  0  0  0  0  0  0  0  0  0  0
  -28.1162  -22.7416   17.6491 C   0  0  0  0  0  0  0  0  0  0  0  0
  -25.6377  -11.4563   20.7045 C   0  0  0  0  0  0  0  0  0  0  0  0
  -28.2870  -29.2491   20.9799 C   0  0  0  0  0  0  0  0  0  0  0  0
  -24.1002   -9.7030   20.9948 C   0  0  0  0  0  0  0  0  0  0  0  0
  -21.4894   -8.8657   21.5101 C   0  0  0  0  0  0  0  0  0  0  0  0
  -23.0652  -10.0797   20.1389 C   0  0  0  0  0  0  0  0  0  0  0  0
  -26.3878  -15.6184   20.5931 C   0  0  0  0  0  0  0  0  0  0  0  0
  -27.2495  -17.6229   20.8661 C   0  0  0  0  0  0  0  0  0  0  0  0
  -30.3514  -20.5466   18.8290 C   0  0  0  0  0  0  0  0  0  0  0  0
  -30.1880  -21.3235   17.7408 C   0  0  0  0  0  0  0  0  0  0  0  0
  -30.4590  -26.2073   18.4865 C   0  0  0  0  0  0  0  0  0  0  0  0
  -28.5463  -15.7991   21.9799 C   0  0  0  0  0  0  0  0  0  0  0  0
  -23.4846  -31.2310   22.5523 C   0  0  0  0  0  0  0  0  0  0  0  0
  -22.1150  -28.5044   21.4513 C   0  0  0  0  0  0  0  0  0  0  0  0
  -22.5164  -25.4436   19.9964 C   0  0  0  0  0  0  0  0  0  0  0  0
  -25.9388  -21.5708   17.1648 C   0  0  0  0  0  0  0  0  0  0  0  0
  -20.3029  -34.7431   24.4498 C   0  0  0  0  0  0  0  0  0  0  0  0
  -24.4626  -31.0773   20.2338 C   0  0  0  0  0  0  0  0  0  0  0  0
  -24.6286  -28.4968   21.6683 C   0  0  0  0  0  0  0  0  0  0  0  0
  -31.0538  -19.2193   18.8115 C   0  0  0  0  0  0  0  0  0  0  0  0
  -30.7120  -20.8997   16.3869 C   0  0  0  0  0  0  0  0  0  0  0  0
  -20.3388  -33.2179   24.3958 C   0  0  0  0  0  0  0  0  0  0  0  0
  -31.8249  -18.9504   17.5202 C   0  0  0  0  0  0  0  0  0  0  0  0
  -31.0291  -19.4039   16.3028 C   0  0  0  0  0  0  0  0  0  0  0  0
  -23.2400  -19.8990   18.7768 C   0  0  0  0  0  0  0  0  0  0  0  0
  -21.7020  -32.6998   24.8430 C   0  0  0  0  0  0  0  0  0  0  0  0
  -23.9065  -18.6928   19.4425 C   0  0  0  0  0  0  0  0  0  0  0  0
  -23.8697  -20.2189   17.4222 C   0  0  0  0  0  0  0  0  0  0  0  0
  -25.9953  -19.1774   18.1050 C   0  0  0  0  0  0  0  0  0  0  0  0
  -22.8147  -33.2021   23.9151 C   0  0  1  0  0  0  0  0  0  0  0  0
  -23.3641  -30.6161   21.1867 C   0  0  1  0  0  0  0  0  0  0  0  0
  -25.4379  -18.8565   19.5014 C   0  0  2  0  0  0  0  0  0  0  0  0
  -27.5733  -26.4498   18.1062 C   0  0  0  0  0  0  0  0  0  0  0  0
  -21.2169  -23.4277   19.2582 C   0  0  0  0  0  0  0  0  0  0  0  0
  -21.8624  -27.6064   24.3564 C   0  0  0  0  0  0  0  0  0  0  0  0
  -21.4643  -25.2773   23.5289 C   0  0  0  0  0  0  0  0  0  0  0  0
  -19.8705  -27.1008   22.9312 C   0  0  0  0  0  0  0  0  0  0  0  0
  -23.3441  -25.7985   17.1772 C   0  0  0  0  0  0  0  0  0  0  0  0
  -31.4406  -27.7135   20.1791 C   0  0  0  0  0  0  0  0  0  0  0  0
  -30.5291  -28.9213   20.2578 C   0  0  0  0  0  0  0  0  0  1  0  0
  -22.1565  -27.0497   21.8525 C   0  0  1  0  0  0  0  0  0  0  0  0
  -21.7911  -24.7734   18.8434 C   0  0  2  0  0  0  0  0  0  0  0  0
  -21.3620  -26.7727   23.1600 C   0  0  0  0  0  0  0  0  0  0  0  0
  -25.5592  -16.4315   19.9326 N   0  0  0  0  0  0  0  0  0  0  0  0
  -26.1097  -17.6435   20.1173 N   0  0  0  0  0  0  0  0  0  0  0  0
  -23.3499  -29.1637   21.3721 N   0  0  0  0  0  0  0  0  0  0  0  0
  -25.3208  -20.3643   17.5564 N   0  0  0  0  0  0  0  0  0  0  0  0
  -27.9308  -18.7538   21.1476 N   0  0  0  0  0  0  0  0  0  0  0  0
  -30.9746  -26.8807   17.4581 N   0  0  0  0  0  0  0  0  0  0  0  0
  -28.6100  -14.4200   22.2217 N   0  0  0  0  0  0  0  0  0  0  0  0
  -27.3179  -21.6050   17.3691 N   0  0  0  0  0  0  0  0  0  0  0  0
  -22.8290  -32.4402   22.6847 N   0  0  0  0  0  0  0  0  0  0  0  0
  -21.6868  -26.2939   20.6964 N   0  0  0  0  0  0  0  0  0  0  0  0
  -30.6490  -26.5521   19.7657 N   0  3  0  0  0  0  0  0  0  0  0  0
  -22.7238  -24.5547   17.7018 N   0  3  0  0  0  0  0  0  0  0  0  0
  -29.4260  -16.5491   22.4669 O   0  0  0  0  0  0  0  0  0  0  0  0
  -24.1236  -30.6506   23.4221 O   0  0  0  0  0  0  0  0  0  0  0  0
  -21.0276  -29.0344   21.2098 O   0  0  0  0  0  0  0  0  0  0  0  0
  -23.6994  -25.2310   20.2528 O   0  0  0  0  0  0  0  0  0  0  0  0
  -25.2886  -22.5149   16.7091 O   0  0  0  0  0  0  0  0  0  0  0  0
  -25.3968  -10.1172   20.7399 O   0  0  0  0  0  0  0  0  0  0  0  0
  -29.4967  -28.6699   21.2103 O   0  0  0  0  0  0  0  0  0  1  0  0
  -20.2362   -8.4624   21.7568 F   0  0  0  0  0  0  0  0  0  0  0  0
  -23.3190  -10.8427   19.0668 F   0  0  0  0  0  0  0  0  0  0  0  0
  1  2  1  0  0  0  0
  1  5  2  0  0  0  0
  2  6  2  0  0  0  0
  3  8  2  0  0  0  0
  3 17  1  0  0  0  0
  4  9  1  0  0  0  0
  4 17  2  0  0  0  0
  5 21  1  0  0  0  0
  6 23  1  0  0  0  0
  7 10  2  0  0  0  0
  7 22  1  0  0  0  0
  8 27  1  0  0  0  0
  9 27  2  0  0  0  0
 10 28  1  0  0  0  0
 11 12  2  0  0  0  0
 11 29  1  0  0  0  0
 12 30  1  0  0  0  0
 13 18  2  0  0  0  0
 13 19  1  0  0  0  0
 14 24  1  0  0  0  0
 14 28  2  0  0  0  0
 15 25  1  0  0  0  0
 15 26  2  0  0  0  0
 16 30  2  0  0  0  0
 16 31  1  0  0  0  0
 17 32  1  0  0  0  0
 18 26  1  0  0  0  0
 18 35  1  0  0  0  0
 19 25  2  0  0  0  0
 19 36  1  0  0  0  0
 20 32  1  0  0  0  0
 20 33  2  0  0  0  0
 20 37  1  0  0  0  0
 21 23  2  0  0  0  0
 21 42  1  0  0  0  0
 22 24  2  0  0  0  0
 22 43  1  0  0  0  0
 23 55  1  0  0  0  0
 24 44  1  0  0  0  0
 25 58  1  0  0  0  0
 26 76  1  0  0  0  0
 27 86  1  0  0  0  0
 28 87  1  0  0  0  0
 29 31  2  0  0  0  0
 29 86  1  0  0  0  0
 30 88  1  0  0  0  0
 31 89  1  0  0  0  0
 32 69  2  0  0  0  0
 33 70  1  0  0  0  0
 33 73  1  0  0  0  0
 34 35  2  0  0  0  0
 34 45  1  0  0  0  0
 35 46  1  0  0  0  0
 36 74  1  0  0  0  0
 36 79  2  0  0  0  0
 37 75  1  0  0  0  0
 37 81  2  0  0  0  0
 38 56  1  0  0  0  0
 38 77  1  0  0  0  0
 38 82  2  0  0  0  0
 39 66  1  0  0  0  0
 39 71  1  0  0  0  0
 39 83  2  0  0  0  0
 40 67  1  0  0  0  0
 40 78  1  0  0  0  0
 40 84  2  0  0  0  0
 41 72  1  0  0  0  0
 41 76  1  0  0  0  0
 41 85  2  0  0  0  0
 42 47  1  0  0  0  0
 43 56  1  0  0  0  0
 44 71  1  0  0  0  0
 45 48  1  0  0  0  0
 46 49  1  0  0  0  0
 47 51  1  0  0  0  0
 48 49  1  0  0  0  0
 50 52  1  0  0  0  0
 50 53  1  0  0  0  0
 51 55  1  0  0  0  0
 52 57  1  0  0  0  0
 53 72  1  0  0  0  0
 54 57  1  0  0  0  0
 54 72  1  0  0  0  0
 55 77  1  0  0  0  0
 56 71  1  0  0  0  0
 57 70  1  0  0  0  0
 59 67  1  0  0  0  0
 60 68  1  0  0  0  0
 61 68  1  0  0  0  0
 62 68  1  0  0  0  0
 63 80  1  0  0  0  0
 64 65  1  0  0  0  0
 64 79  1  0  0  0  0
 65 87  1  0  0  0  0
 66 68  1  0  0  0  0
 66 78  1  0  0  0  0
 67 80  1  0  0  0  0
 69 70  1  0  0  0  0
M  CHG  2  79   1  80   1
M  ISO  4  41 100  65 101  76 100  87 101
M  END
> <Batch ID>
0036

> <Smiles>
CNC(C)C(=O)NC(C(=O)N1Cc2cc([101O:1][101CH2:1]CNC(=N)c3cc(C4=CCCCC4)c([100NH:0][100C:0](=O)N4CCCC(n5nc(-c6ccc(Oc7ccc(F)cc7F)cc6)c(C(N)=O)c5N)C4)cc3C)ccc2CC1C(=O)NC1CCCc2ccccc21)C(C)(C)C

> <Shape>
0.255

> <Color>
0.050

> <Negative vol penalty>
0.000

$$$$

  -OEChem-04042321543D

 86 94  0     1  0  0  0  0  0999 V2000
  -27.1634  -10.7582   18.8143 C   0  0  0  0  0  0  0  0  0  0  0  0
  -27.2453  -11.9280   18.0658 C   0  0  0  0  0  0  0  0  0  0  0  0
  -29.1864  -25.8359   20.6490 C   0  0  0  0  0  0  0  0  0  0  0  0
  -27.2611  -24.3970   20.8931 C   0  0  0  0  0  0  0  0  0  0  0  0
  -26.3264  -10.7017   19.9279 C   0  0  0  0  0  0  0  0  0  0  0  0
  -26.4893  -13.0417   18.4299 C   0  0  0  0  0  0  0  0  0  0  0  0
  -26.7250  -20.2013   18.4006 C   0  0  0  0  0  0  0  0  0  0  0  0
  -19.1301  -26.8975   23.5757 C   0  0  0  0  0  0  0  0  0  0  0  0
  -29.9928  -24.8549   21.2260 C   0  0  0  0  0  0  0  0  0  0  0  0
  -28.0675  -23.4159   21.4701 C   0  0  0  0  0  0  0  0  0  0  0  0
  -25.9741  -21.3020   17.9902 C   0  0  0  0  0  0  0  0  0  0  0  0
  -31.4689  -21.9660   20.2730 C   0  0  0  0  0  0  0  0  0  0  0  0
  -32.6918  -21.6899   19.6616 C   0  0  0  0  0  0  0  0  0  0  0  0
  -18.6627  -25.5954   23.3976 C   0  0  0  0  0  0  0  0  0  0  0  0
  -24.6226  -21.1143   19.9795 C   0  0  0  0  0  0  0  0  0  0  0  0
  -33.8466  -22.3101   21.6911 C   0  0  0  0  0  0  0  0  0  0  0  0
  -27.8205  -25.6070   20.4826 C   0  0  0  0  0  0  0  0  0  0  0  0
  -19.2281  -25.7133   21.0517 C   0  0  0  0  0  0  0  0  0  0  0  0
  -26.6918  -26.7830   18.5203 C   0  0  0  0  0  0  0  0  0  0  0  0
  -25.5670  -11.8184   20.3115 C   0  0  0  0  0  0  0  0  0  0  0  0
  -26.4228  -19.5410   19.6003 C   0  0  0  0  0  0  0  0  0  0  0  0
  -25.6402  -12.9997   19.5489 C   0  0  0  0  0  0  0  0  0  0  0  0
  -25.3728  -20.0070   20.4042 C   0  0  0  0  0  0  0  0  0  0  0  0
  -19.6464  -27.6075   22.4917 C   0  0  0  0  0  0  0  0  0  0  0  0
  -29.4333  -23.6449   21.6365 C   0  0  0  0  0  0  0  0  0  0  0  0
  -24.9209  -21.7569   18.7782 C   0  0  0  0  0  0  0  0  0  0  0  0
  -31.4349  -22.4143   21.5935 C   0  0  0  0  0  0  0  0  0  0  0  0
  -33.8806  -21.8619   20.3706 C   0  0  0  0  0  0  0  0  0  0  0  0
  -32.6237  -22.5863   22.3025 C   0  0  0  0  0  0  0  0  0  0  0  0
  -18.7117  -25.0033   22.1356 C   0  0  0  0  0  0  0  0  0  0  0  0
  -19.6954  -27.0154   21.2297 C   0  0  0  0  0  0  0  0  0  0  0  0
  -26.9869  -26.6202   19.8871 C   0  0  0  0  0  0  0  0  0  0  0  0
  -25.8657  -27.8794   18.4756 C   0  0  0  0  0  0  0  0  0  0  0  0
  -19.2772  -25.0824   19.7174 C   0  0  0  0  0  0  0  0  0  0  0  0
  -27.1255  -26.0121   17.3920 C   0  0  0  0  0  0  0  0  0  0  0  0
  -25.4964  -16.5994   20.3699 C   0  0  0  0  0  0  0  0  0  0  0  0
  -25.8924  -17.6870   23.4001 C   0  0  0  0  0  0  0  0  0  0  0  0
  -26.0131  -20.3512   25.5296 C   0  0  0  0  0  0  0  0  0  0  0  0
  -22.1851  -30.3774   22.4837 C   0  0  0  0  0  0  0  0  0  0  0  0
  -24.6405  -11.6944   21.4951 C   0  0  0  0  0  0  0  0  0  0  0  0
  -27.2593  -18.3716   20.0421 C   0  0  0  0  0  0  0  0  0  0  0  0
  -25.0206  -19.3457   21.7108 C   0  0  0  0  0  0  0  0  0  0  0  0
  -24.1568  -13.0385   22.0333 C   0  0  0  0  0  0  0  0  0  0  0  0
  -24.9090  -31.9446   20.8102 C   0  0  0  0  0  0  0  0  0  0  0  0
  -23.6992  -13.9381   20.8896 C   0  0  0  0  0  0  0  0  0  0  0  0
  -25.7238  -30.7724   20.2605 C   0  0  0  0  0  0  0  0  0  0  0  0
  -24.3050  -31.6212   22.1749 C   0  0  0  0  0  0  0  0  0  0  0  0
  -24.3232  -29.2087   21.6718 C   0  0  0  0  0  0  0  0  0  0  0  0
  -24.8546  -14.2367   19.9265 C   0  0  1  0  0  0  0  0  0  0  0  0
  -26.5372  -17.4595   21.0291 C   0  0  1  0  0  0  0  0  0  0  0  0
  -24.9060  -29.4669   20.2718 C   0  0  2  0  0  0  0  0  0  0  0  0
  -26.3149  -20.9228   27.9543 C   0  0  0  0  0  0  0  0  0  0  0  0
  -23.0390  -16.7684   23.9693 C   0  0  0  0  0  0  0  0  0  0  0  0
  -23.0687  -18.1853   26.0332 C   0  0  0  0  0  0  0  0  0  0  0  0
  -24.6737  -16.2899   25.8004 C   0  0  0  0  0  0  0  0  0  0  0  0
  -28.4442  -21.9439   24.9711 C   0  0  0  0  0  0  0  0  0  0  0  0
  -20.1357  -28.9997   22.7308 C   0  0  0  0  0  0  0  0  0  0  0  0
  -22.0187  -23.6433   17.7470 C   0  0  0  0  0  0  0  0  0  0  0  0
  -20.5399  -23.7239   18.0875 C   0  0  0  0  0  0  0  0  0  0  0  0
  -22.8189  -22.8693   18.7868 C   0  0  0  0  0  0  0  0  0  1  0  0
  -25.0098  -18.3763   24.4125 C   0  0  1  0  0  0  0  0  0  0  0  0
  -27.0060  -20.7301   26.6135 C   0  0  2  0  0  0  0  0  0  0  0  0
  -23.9530  -17.4165   25.0284 C   0  0  0  0  0  0  0  0  0  0  0  0
  -26.3965  -27.5397   20.6552 N   0  0  0  0  0  0  0  0  0  0  0  0
  -25.7221  -28.2908   19.7680 N   0  0  0  0  0  0  0  0  0  0  0  0
  -25.8639  -18.2021   22.0965 N   0  0  0  0  0  0  0  0  0  0  0  0
  -23.5410  -30.3726   22.1170 N   0  0  0  0  0  0  0  0  0  0  0  0
  -25.2554  -28.5220   17.4573 N   0  0  0  0  0  0  0  0  0  0  0  0
  -18.2251  -25.2322   18.9127 N   0  0  0  0  0  0  0  0  0  0  0  0
  -27.9725  -24.9181   17.6160 N   0  0  0  0  0  0  0  0  0  0  0  0
  -25.7318  -15.2427   20.4859 N   0  0  0  0  0  0  0  0  0  0  0  0
  -25.9069  -18.9835   25.3898 N   0  0  0  0  0  0  0  0  0  0  0  0
  -21.5334  -29.1535   22.3939 N   0  0  0  0  0  0  0  0  0  0  0  0
  -20.3724  -24.3892   19.3798 N   0  3  0  0  0  0  0  0  0  0  0  0
  -27.7026  -21.9985   26.2573 N   0  3  0  0  0  0  0  0  0  0  0  0
  -26.7857  -26.2951   16.2181 O   0  0  0  0  0  0  0  0  0  0  0  0
  -24.5490  -17.1275   19.7995 O   0  0  0  0  0  0  0  0  0  0  0  0
  -26.5871  -16.7313   23.7547 O   0  0  0  0  0  0  0  0  0  0  0  0
  -25.3909  -21.1849   24.8751 O   0  0  0  0  0  0  0  0  0  0  0  0
  -21.5974  -31.3979   22.8580 O   0  0  0  0  0  0  0  0  0  0  0  0
  -30.2199  -22.6873   22.1994 O   0  0  0  0  0  0  0  0  0  0  0  0
  -24.1861  -22.8306   18.3796 O   0  0  0  0  0  0  0  0  0  1  0  0
  -35.0548  -21.5952   19.7838 F   0  0  0  0  0  0  0  0  0  0  0  0
  -32.5973  -23.0156   23.5717 F   0  0  0  0  0  0  0  0  0  0  0  0
  -18.1222  -23.3888   21.9613 Cl  0  0  0  0  0  0  0  0  0  0  0  0
  -20.3381  -27.9033   19.8873 Cl  0  0  0  0  0  0  0  0  0  0  0  0
  1  2  1  0  0  0  0
  1  5  2  0  0  0  0
  2  6  2  0  0  0  0
  3  9  2  0  0  0  0
  3 17  1  0  0  0  0
  4 10  1  0  0  0  0
  4 17  2  0  0  0  0
  5 20  1  0  0  0  0
  6 22  1  0  0  0  0
  7 11  2  0  0  0  0
  7 21  1  0  0  0  0
  8 14  1  0  0  0  0
  8 24  2  0  0  0  0
  9 25  1  0  0  0  0
 10 25  2  0  0  0  0
 11 26  1  0  0  0  0
 12 13  2  0  0  0  0
 12 27  1  0  0  0  0
 13 28  1  0  0  0  0
 14 30  2  0  0  0  0
 15 23  1  0  0  0  0
 15 26  2  0  0  0  0
 16 28  2  0  0  0  0
 16 29  1  0  0  0  0
 17 32  1  0  0  0  0
 18 30  1  0  0  0  0
 18 31  2  0  0  0  0
 18 34  1  0  0  0  0
 19 32  1  0  0  0  0
 19 33  2  0  0  0  0
 19 35  1  0  0  0  0
 20 22  2  0  0  0  0
 20 40  1  0  0  0  0
 21 23  2  0  0  0  0
 21 41  1  0  0  0  0
 22 49  1  0  0  0  0
 23 42  1  0  0  0  0
 24 31  1  0  0  0  0
 24 57  1  0  0  0  0
 25 81  1  0  0  0  0
 26 82  1  0  0  0  0
 27 29  2  0  0  0  0
 27 81  1  0  0  0  0
 28 83  1  0  0  0  0
 29 84  1  0  0  0  0
 30 85  1  0  0  0  0
 31 86  1  0  0  0  0
 32 64  2  0  0  0  0
 33 65  1  0  0  0  0
 33 68  1  0  0  0  0
 34 69  1  0  0  0  0
 34 74  2  0  0  0  0
 35 70  1  0  0  0  0
 35 76  2  0  0  0  0
 36 50  1  0  0  0  0
 36 71  1  0  0  0  0
 36 77  2  0  0  0  0
 37 61  1  0  0  0  0
 37 66  1  0  0  0  0
 37 78  2  0  0  0  0
 38 62  1  0  0  0  0
 38 72  1  0  0  0  0
 38 79  2  0  0  0  0
 39 67  1  0  0  0  0
 39 73  1  0  0  0  0
 39 80  2  0  0  0  0
 40 43  1  0  0  0  0
 41 50  1  0  0  0  0
 42 66  1  0  0  0  0
 43 45  1  0  0  0  0
 44 46  1  0  0  0  0
 44 47  1  0  0  0  0
 45 49  1  0  0  0  0
 46 51  1  0  0  0  0
 47 67  1  0  0  0  0
 48 51  1  0  0  0  0
 48 67  1  0  0  0  0
 49 71  1  0  0  0  0
 50 66  1  0  0  0  0
 51 65  1  0  0  0  0
 52 62  1  0  0  0  0
 53 63  1  0  0  0  0
 54 63  1  0  0  0  0
 55 63  1  0  0  0  0
 56 75  1  0  0  0  0
 57 73  1  0  0  0  0
 58 59  1  0  0  0  0
 58 60  1  0  0  0  0
 59 74  1  0  0  0  0
 60 82  1  0  0  0  0
 61 63  1  0  0  0  0
 61 72  1  0  0  0  0
 62 75  1  0  0  0  0
 64 65  1  0  0  0  0
M  CHG  2  74   1  75   1
M  ISO  4  39 100  60 101  73 100  82 101
M  END
> <Batch ID>
0036

> <Smiles>
CNC(C)C(=O)NC(C(=O)N1Cc2cc([101O:1][101CH2:1]CCNC(=N)c3c(Cl)ccc(C[100NH:0][100C:0](=O)N4CCCC(n5nc(-c6ccc(Oc7ccc(F)cc7F)cc6)c(C(N)=O)c5N)C4)c3Cl)ccc2CC1C(=O)NC1CCCc2ccccc21)C(C)(C)C

> <Shape>
0.180

> <Color>
0.072

> <Negative vol penalty>
0.000

$$$$

  -OEChem-04042321543D

 89 98  0     1  0  0  0  0  0999 V2000
  -18.6235  -29.1747   22.7711 C   0  0  0  0  0  0  0  0  0  0  0  0
  -19.9876  -29.0672   23.0222 C   0  0  0  0  0  0  0  0  0  0  0  0
  -26.1442  -13.0196   22.3047 C   0  0  0  0  0  0  0  0  0  0  0  0
  -25.9602  -14.1183   20.1609 C   0  0  0  0  0  0  0  0  0  0  0  0
  -17.9442  -28.1240   22.1558 C   0  0  0  0  0  0  0  0  0  0  0  0
  -20.6730  -27.9084   22.6591 C   0  0  0  0  0  0  0  0  0  0  0  0
  -25.0937  -28.8952   20.3943 C   0  0  0  0  0  0  0  0  0  0  0  0
  -25.7298  -11.8202   21.7257 C   0  0  0  0  0  0  0  0  0  0  0  0
  -25.5458  -12.9189   19.5818 C   0  0  0  0  0  0  0  0  0  0  0  0
  -26.1609  -29.2612   21.2133 C   0  0  0  0  0  0  0  0  0  0  0  0
  -24.3740   -8.5528   20.8834 C   0  0  0  0  0  0  0  0  0  0  0  0
  -23.4176   -7.7990   21.5635 C   0  0  0  0  0  0  0  0  0  0  0  0
  -27.0211  -27.0110   21.0879 C   0  0  0  0  0  0  0  0  0  0  0  0
  -31.2929  -24.6023   21.6793 C   0  0  0  0  0  0  0  0  0  0  0  0
  -21.8649   -9.6450   21.4260 C   0  0  0  0  0  0  0  0  0  0  0  0
  -26.2594  -14.1687   21.5223 C   0  0  0  0  0  0  0  0  0  0  0  0
  -26.0569  -16.1096   23.1653 C   0  0  0  0  0  0  0  0  0  0  0  0
  -18.6235  -26.9556   21.7763 C   0  0  0  0  0  0  0  0  0  0  0  0
  -24.9760  -27.5793   19.9241 C   0  0  0  0  0  0  0  0  0  0  0  0
  -20.0019  -26.8406   22.0394 C   0  0  0  0  0  0  0  0  0  0  0  0
  -25.9527  -26.6314   20.2610 C   0  0  0  0  0  0  0  0  0  0  0  0
  -31.4206  -25.7834   22.4102 C   0  0  0  0  0  0  0  0  0  0  0  0
  -31.0022  -24.5642   24.4536 C   0  0  0  0  0  0  0  0  0  0  0  0
  -31.2752  -25.7644   23.7973 C   0  0  0  0  0  0  0  0  0  0  0  0
  -30.8745  -23.3830   23.7227 C   0  0  0  0  0  0  0  0  0  0  0  0
  -31.0198  -23.4021   22.3356 C   0  0  0  0  0  0  0  0  0  0  0  0
  -25.4306  -11.7699   20.3643 C   0  0  0  0  0  0  0  0  0  0  0  0
  -27.1233  -28.3184   21.5626 C   0  0  0  0  0  0  0  0  0  0  0  0
  -24.0760   -9.8528   20.4746 C   0  0  0  0  0  0  0  0  0  0  0  0
  -22.1630   -8.3451   21.8348 C   0  0  0  0  0  0  0  0  0  0  0  0
  -22.8214  -10.3988   20.7459 C   0  0  0  0  0  0  0  0  0  0  0  0
  -26.6870  -15.4081   22.1200 C   0  0  0  0  0  0  0  0  0  0  0  0
  -26.8493  -17.2137   23.3643 C   0  0  0  0  0  0  0  0  0  0  0  0
  -24.8622  -15.7917   23.8914 C   0  0  0  0  0  0  0  0  0  0  0  0
  -22.8314  -25.2583   20.2665 C   0  0  0  0  0  0  0  0  0  0  0  0
  -24.6991  -23.7432   18.0896 C   0  0  0  0  0  0  0  0  0  0  0  0
  -28.2318  -23.3329   17.4822 C   0  0  0  0  0  0  0  0  0  0  0  0
  -29.6976  -21.4402   21.5649 C   0  0  0  0  0  0  0  0  0  0  0  0
  -17.8373  -25.8275   21.1568 C   0  0  0  0  0  0  0  0  0  0  0  0
  -23.8332  -27.2071   19.0197 C   0  0  0  0  0  0  0  0  0  0  0  0
  -25.8832  -25.2107   19.7659 C   0  0  0  0  0  0  0  0  0  0  0  0
  -18.7109  -24.7848   20.4640 C   0  0  0  0  0  0  0  0  0  0  0  0
  -31.4433  -18.3427   21.5967 C   0  0  0  0  0  0  0  0  0  0  0  0
  -19.8884  -24.3987   21.3536 C   0  0  0  0  0  0  0  0  0  0  0  0
  -30.2997  -17.3520   21.8122 C   0  0  0  0  0  0  0  0  0  0  0  0
  -28.1120  -29.8785   24.4617 C   0  0  0  0  0  0  0  0  0  0  0  0
  -29.5388  -30.4104   24.3906 C   0  0  0  0  0  0  0  0  0  0  0  0
  -31.0457  -19.4801   20.6553 C   0  0  0  0  0  0  0  0  0  0  0  0
  -28.6662  -19.1998   21.2750 C   0  0  0  0  0  0  0  0  0  0  0  0
  -28.9990  -27.5240   24.2929 C   0  0  0  0  0  0  0  0  0  0  0  0
  -20.7853  -25.6096   21.6379 C   0  0  1  0  0  0  0  0  0  0  0  0
  -23.5351  -25.7109   19.0185 C   0  0  1  0  0  0  0  0  0  0  0  0
  -29.0190  -18.0766   22.2626 C   0  0  1  0  0  0  0  0  0  0  0  0
  -27.9830  -28.5278   23.7690 C   0  0  2  0  0  0  0  0  0  1  0  0
  -30.5615  -29.4060   24.9348 C   0  0  2  0  0  0  0  0  0  0  0  0
  -31.7094  -27.0558   21.6829 C   0  0  0  0  0  0  0  0  0  0  0  0
  -30.8462  -24.5446   25.9417 C   0  0  0  0  0  0  0  0  0  0  0  0
  -30.5798  -22.0966   24.4291 C   0  0  0  0  0  0  0  0  0  0  0  0
  -31.9734  -29.9631   24.7637 C   0  0  0  0  0  0  0  0  0  0  0  0
  -29.4804  -22.8937   15.3502 C   0  0  0  0  0  0  0  0  0  0  0  0
  -24.4709  -20.8104   18.9000 C   0  0  0  0  0  0  0  0  0  0  0  0
  -26.7896  -20.4599   18.0231 C   0  0  0  0  0  0  0  0  0  0  0  0
  -24.9708  -21.1879   16.4788 C   0  0  0  0  0  0  0  0  0  0  0  0
  -31.9336  -21.8794   20.5736 C   0  0  0  0  0  0  0  0  0  0  0  0
  -29.9612  -25.7030   17.8706 C   0  0  0  0  0  0  0  0  0  0  0  0
  -31.4119  -27.0369   24.5802 C   0  0  0  0  0  0  0  0  0  0  0  0
  -25.8994  -22.8304   18.1616 C   0  0  1  0  0  0  0  0  0  0  0  0
  -29.0371  -23.9484   16.3520 C   0  0  2  0  0  0  0  0  0  0  0  0
  -25.5276  -21.3417   17.9110 C   0  0  0  0  0  0  0  0  0  0  0  0
  -27.7942  -16.0156   21.6853 N   0  0  0  0  0  0  0  0  0  0  0  0
  -27.8660  -17.1105   22.4611 N   0  0  0  0  0  0  0  0  0  0  0  0
  -24.7435  -24.8940   18.8894 N   0  0  0  0  0  0  0  0  0  0  0  0
  -29.7975  -20.1143   21.1026 N   0  0  0  0  0  0  0  0  0  0  0  0
  -26.7685  -18.2531   24.2220 N   0  0  0  0  0  0  0  0  0  0  0  0
  -23.6378  -16.2711   23.4062 N   0  0  0  0  0  0  0  0  0  0  0  0
  -21.6265  -25.8948   20.4953 N   0  0  0  0  0  0  0  0  0  0  0  0
  -26.8780  -23.3682   17.2228 N   0  0  0  0  0  0  0  0  0  0  0  0
  -30.8927  -22.1912   21.5590 N   0  0  0  0  0  0  0  0  0  0  0  0
  -30.4054  -28.0890   24.1798 N   0  3  1  0  0  0  0  0  0  0  0  0
  -30.2509  -24.6254   16.8899 N   0  3  0  0  0  0  0  0  0  0  0  0
  -24.8817  -15.1167   24.9486 O   0  0  0  0  0  0  0  0  0  0  0  0
  -23.3430  -24.3943   20.9690 O   0  0  0  0  0  0  0  0  0  0  0  0
  -23.7599  -23.4498   17.3456 O   0  0  0  0  0  0  0  0  0  0  0  0
  -28.7519  -22.8641   18.4922 O   0  0  0  0  0  0  0  0  0  0  0  0
  -28.6193  -21.9240   21.9299 O   0  0  0  0  0  0  0  0  0  0  0  0
  -25.0263  -10.5996   19.7988 O   0  0  0  0  0  0  0  0  0  0  0  0
  -28.1657  -28.6728   22.3624 O   0  0  0  0  0  0  0  0  0  1  0  0
  -21.2441   -7.6205   22.4866 F   0  0  0  0  0  0  0  0  0  0  0  0
  -22.5289  -11.6467   20.3547 F   0  0  0  0  0  0  0  0  0  0  0  0
  1  2  1  0  0  0  0
  1  5  2  0  0  0  0
  2  6  2  0  0  0  0
  3  8  2  0  0  0  0
  3 16  1  0  0  0  0
  4  9  1  0  0  0  0
  4 16  2  0  0  0  0
  5 18  1  0  0  0  0
  6 20  1  0  0  0  0
  7 10  2  0  0  0  0
  7 19  1  0  0  0  0
  8 27  1  0  0  0  0
  9 27  2  0  0  0  0
 10 28  1  0  0  0  0
 11 12  2  0  0  0  0
 11 29  1  0  0  0  0
 12 30  1  0  0  0  0
 13 21  1  0  0  0  0
 13 28  2  0  0  0  0
 14 22  2  0  0  0  0
 14 26  1  0  0  0  0
 15 30  2  0  0  0  0
 15 31  1  0  0  0  0
 16 32  1  0  0  0  0
 17 32  1  0  0  0  0
 17 33  2  0  0  0  0
 17 34  1  0  0  0  0
 18 20  2  0  0  0  0
 18 39  1  0  0  0  0
 19 21  2  0  0  0  0
 19 40  1  0  0  0  0
 20 51  1  0  0  0  0
 21 41  1  0  0  0  0
 22 24  1  0  0  0  0
 22 56  1  0  0  0  0
 23 24  2  0  0  0  0
 23 25  1  0  0  0  0
 23 57  1  0  0  0  0
 24 66  1  0  0  0  0
 25 26  2  0  0  0  0
 25 58  1  0  0  0  0
 26 78  1  0  0  0  0
 27 86  1  0  0  0  0
 28 87  1  0  0  0  0
 29 31  2  0  0  0  0
 29 86  1  0  0  0  0
 30 88  1  0  0  0  0
 31 89  1  0  0  0  0
 32 70  2  0  0  0  0
 33 71  1  0  0  0  0
 33 74  1  0  0  0  0
 34 75  1  0  0  0  0
 34 81  2  0  0  0  0
 35 52  1  0  0  0  0
 35 76  1  0  0  0  0
 35 82  2  0  0  0  0
 36 67  1  0  0  0  0
 36 72  1  0  0  0  0
 36 83  2  0  0  0  0
 37 68  1  0  0  0  0
 37 77  1  0  0  0  0
 37 84  2  0  0  0  0
 38 73  1  0  0  0  0
 38 78  1  0  0  0  0
 38 85  2  0  0  0  0
 39 42  1  0  0  0  0
 40 52  1  0  0  0  0
 41 72  1  0  0  0  0
 42 44  1  0  0  0  0
 43 45  1  0  0  0  0
 43 48  1  0  0  0  0
 44 51  1  0  0  0  0
 45 53  1  0  0  0  0
 46 47  1  0  0  0  0
 46 54  1  0  0  0  0
 47 55  1  0  0  0  0
 48 73  1  0  0  0  0
 49 53  1  0  0  0  0
 49 73  1  0  0  0  0
 50 54  1  0  0  0  0
 50 79  1  0  0  0  0
 51 76  1  0  0  0  0
 52 72  1  0  0  0  0
 53 71  1  0  0  0  0
 54 87  1  0  0  0  0
 55 59  1  0  0  0  0
 55 79  1  0  0  0  0
 60 68  1  0  0  0  0
 61 69  1  0  0  0  0
 62 69  1  0  0  0  0
 63 69  1  0  0  0  0
 64 78  1  0  0  0  0
 65 80  1  0  0  0  0
 66 79  1  0  0  0  0
 67 69  1  0  0  0  0
 67 77  1  0  0  0  0
 68 80  1  0  0  0  0
 70 71  1  0  0  0  0
M  CHG  2  79   1  80   1
M  ISO  4  38 100  54 101  78 100  87 101
M  END
> <Batch ID>
0036

> <Smiles>
CNC(C)C(=O)NC(C(=O)N1Cc2cc([101O:1][101CH:1]3CCC(C)N(Cc4c(C)cc([100N:0](C)[100C:0](=O)N5CCCC(n6nc(-c7ccc(Oc8ccc(F)cc8F)cc7)c(C(N)=O)c6N)C5)c(C)c4C)C3)ccc2CC1C(=O)NC1CCCc2ccccc21)C(C)(C)C

> <Shape>
0.217

> <Color>
0.076

> <Negative vol penalty>
0.000

$$$$

  -OEChem-04042321543D

 87 96  0     1  0  0  0  0  0999 V2000
  -25.1172  -35.7189   21.9883 C   0  0  0  0  0  0  0  0  0  0  0  0
  -25.8449  -34.5338   21.9524 C   0  0  0  0  0  0  0  0  0  0  0  0
  -23.9606  -10.7958   23.5451 C   0  0  0  0  0  0  0  0  0  0  0  0
  -24.5872   -9.2600   21.7884 C   0  0  0  0  0  0  0  0  0  0  0  0
  -23.8169  -35.7222   22.4915 C   0  0  0  0  0  0  0  0  0  0  0  0
  -25.2732  -33.3514   22.4208 C   0  0  0  0  0  0  0  0  0  0  0  0
  -26.0987  -29.4331   19.3207 C   0  0  0  0  0  0  0  0  0  0  0  0
  -23.5791   -9.7212   24.3485 C   0  0  0  0  0  0  0  0  0  0  0  0
  -24.2058   -8.1854   22.5919 C   0  0  0  0  0  0  0  0  0  0  0  0
  -27.3575  -28.8358   19.3708 C   0  0  0  0  0  0  0  0  0  0  0  0
  -21.3324   -6.6612   23.5144 C   0  0  0  0  0  0  0  0  0  0  0  0
  -20.5713   -5.6508   22.9267 C   0  0  0  0  0  0  0  0  0  0  0  0
  -26.4604  -27.0755   20.7550 C   0  0  0  0  0  0  0  0  0  0  0  0
  -30.3836  -18.8480   20.1987 C   0  0  0  0  0  0  0  0  0  0  0  0
  -22.2969   -4.0442   23.4543 C   0  0  0  0  0  0  0  0  0  0  0  0
  -24.4646  -10.5652   22.2650 C   0  0  0  0  0  0  0  0  0  0  0  0
  -24.0448  -12.7339   20.9891 C   0  0  0  0  0  0  0  0  0  0  0  0
  -23.2254  -34.5373   22.9574 C   0  0  0  0  0  0  0  0  0  0  0  0
  -25.0120  -28.8610   19.9975 C   0  0  0  0  0  0  0  0  0  0  0  0
  -23.9642  -33.3390   22.9320 C   0  0  0  0  0  0  0  0  0  0  0  0
  -25.1883  -27.6661   20.7098 C   0  0  0  0  0  0  0  0  0  0  0  0
  -30.6613  -20.1690   20.5501 C   0  0  0  0  0  0  0  0  0  0  0  0
  -29.6214  -21.0321   20.8954 C   0  0  0  0  0  0  0  0  0  0  0  0
  -28.3037  -20.5742   20.8892 C   0  0  0  0  0  0  0  0  0  0  0  0
  -29.0660  -18.3901   20.1924 C   0  0  0  0  0  0  0  0  0  0  0  0
  -23.7018   -8.4160   23.8719 C   0  0  0  0  0  0  0  0  0  0  0  0
  -27.5392  -27.6584   20.0904 C   0  0  0  0  0  0  0  0  0  0  0  0
  -22.5758   -6.3631   24.0719 C   0  0  0  0  0  0  0  0  0  0  0  0
  -21.0535   -4.3423   22.8967 C   0  0  0  0  0  0  0  0  0  0  0  0
  -23.0580   -5.0546   24.0419 C   0  0  0  0  0  0  0  0  0  0  0  0
  -28.0261  -19.2533   20.5377 C   0  0  0  0  0  0  0  0  0  0  0  0
  -24.8582  -11.6748   21.4344 C   0  0  0  0  0  0  0  0  0  0  0  0
  -24.8844  -13.5192   20.2376 C   0  0  0  0  0  0  0  0  0  0  0  0
  -22.6545  -12.9855   21.2331 C   0  0  0  0  0  0  0  0  0  0  0  0
  -23.0914  -29.7959   22.3515 C   0  0  0  0  0  0  0  0  0  0  0  0
  -21.5361  -27.0359   21.6544 C   0  0  0  0  0  0  0  0  0  0  0  0
  -22.4376  -23.6395   20.8365 C   0  0  0  0  0  0  0  0  0  0  0  0
  -29.7677  -16.0814   19.4687 C   0  0  0  0  0  0  0  0  0  0  0  0
  -21.8341  -34.5994   23.5361 C   0  0  0  0  0  0  0  0  0  0  0  0
  -23.6546  -29.5033   19.9116 C   0  0  0  0  0  0  0  0  0  0  0  0
  -24.0494  -27.0008   21.4369 C   0  0  0  0  0  0  0  0  0  0  0  0
  -21.1670  -33.2325   23.6662 C   0  0  0  0  0  0  0  0  0  0  0  0
  -29.5755  -12.6474   18.5479 C   0  0  0  0  0  0  0  0  0  0  0  0
  -30.1263  -24.3486   17.9545 C   0  0  0  0  0  0  0  0  0  0  0  0
  -22.1294  -32.2258   24.2885 C   0  0  0  0  0  0  0  0  0  0  0  0
  -28.2642  -12.1754   19.1801 C   0  0  0  0  0  0  0  0  0  0  0  0
  -29.8527  -25.7579   18.4628 C   0  0  0  0  0  0  0  0  0  0  0  0
  -30.3030  -13.6550   19.4362 C   0  0  0  0  0  0  0  0  0  0  0  0
  -28.1836  -14.3332   20.4933 C   0  0  0  0  0  0  0  0  0  0  0  0
  -30.5902  -23.4273   19.0738 C   0  0  0  0  0  0  0  0  0  0  0  0
  -29.3408  -24.8175   20.7460 C   0  0  0  0  0  0  0  0  0  0  0  0
  -23.3697  -32.0313   23.4080 C   0  0  1  0  0  0  0  0  0  0  0  0
  -22.7338  -29.1108   21.0629 C   0  0  1  0  0  0  0  0  0  0  0  0
  -27.3831  -13.3662   19.6058 C   0  0  2  0  0  0  0  0  0  0  0  0
  -28.8749  -25.7476   19.6336 C   0  0  1  0  0  0  0  0  0  1  0  0
  -32.0809  -20.6344   20.5480 C   0  0  0  0  0  0  0  0  0  0  0  0
  -27.2015  -21.5174   21.2613 C   0  0  0  0  0  0  0  0  0  0  0  0
  -21.2085  -21.8995   19.5102 C   0  0  0  0  0  0  0  0  0  0  0  0
  -20.4789  -26.1295   24.3693 C   0  0  0  0  0  0  0  0  0  0  0  0
  -20.6805  -23.7623   23.5795 C   0  0  0  0  0  0  0  0  0  0  0  0
  -19.1396  -25.3381   22.4111 C   0  0  0  0  0  0  0  0  0  0  0  0
  -24.7317  -23.2455   19.0087 C   0  0  0  0  0  0  0  0  0  0  0  0
  -29.9245  -22.4528   21.2703 C   0  0  0  0  0  0  0  0  0  0  0  0
  -21.6372  -25.6042   22.1224 C   0  0  1  0  0  0  0  0  0  0  0  0
  -22.2963  -22.9619   19.4854 C   0  0  2  0  0  0  0  0  0  0  0  0
  -20.5067  -25.2258   23.1205 C   0  0  0  0  0  0  0  0  0  0  0  0
  -26.1179  -11.7750   21.0017 N   0  0  0  0  0  0  0  0  0  0  0  0
  -26.1022  -12.9063   20.2766 N   0  0  0  0  0  0  0  0  0  0  0  0
  -22.7429  -27.6707   21.3281 N   0  0  0  0  0  0  0  0  0  0  0  0
  -29.4079  -14.7569   19.7959 N   0  0  0  0  0  0  0  0  0  0  0  0
  -24.6924  -14.6671   19.5537 N   0  0  0  0  0  0  0  0  0  0  0  0
  -21.9405  -12.0777   22.0271 N   0  0  0  0  0  0  0  0  0  0  0  0
  -28.8237  -17.0416   19.8311 N   0  0  0  0  0  0  0  0  0  0  0  0
  -23.0613  -31.1756   22.2823 N   0  0  0  0  0  0  0  0  0  0  0  0
  -21.6704  -24.7823   20.9175 N   0  0  0  0  0  0  0  0  0  0  0  0
  -29.5712  -23.4359   20.1884 N   0  3  2  0  0  0  0  0  0  0  0  0
  -23.5794  -22.3119   19.0953 N   0  3  0  0  0  0  0  0  0  0  0  0
  -22.0589  -13.9769   20.7475 O   0  0  0  0  0  0  0  0  0  0  0  0
  -23.3723  -29.1225   23.3361 O   0  0  0  0  0  0  0  0  0  0  0  0
  -20.4266  -27.5690   21.5742 O   0  0  0  0  0  0  0  0  0  0  0  0
  -23.1539  -23.1970   21.7319 O   0  0  0  0  0  0  0  0  0  0  0  0
  -30.8223  -16.3417   18.8838 O   0  0  0  0  0  0  0  0  0  0  0  0
  -23.3299   -7.3673   24.6557 O   0  0  0  0  0  0  0  0  0  0  0  0
  -28.7669  -27.0736   20.1414 O   0  0  0  0  0  0  0  0  0  1  0  0
  -20.3218   -3.3718   22.3337 F   0  0  0  0  0  0  0  0  0  0  0  0
  -24.2513   -4.7620   24.5769 F   0  0  0  0  0  0  0  0  0  0  0  0
  -26.3873  -18.6852   20.5317 Cl  0  0  0  0  0  0  0  0  0  0  0  0
  1  2  1  0  0  0  0
  1  5  2  0  0  0  0
  2  6  2  0  0  0  0
  3  8  2  0  0  0  0
  3 16  1  0  0  0  0
  4  9  1  0  0  0  0
  4 16  2  0  0  0  0
  5 18  1  0  0  0  0
  6 20  1  0  0  0  0
  7 10  2  0  0  0  0
  7 19  1  0  0  0  0
  8 26  1  0  0  0  0
  9 26  2  0  0  0  0
 10 27  1  0  0  0  0
 11 12  2  0  0  0  0
 11 28  1  0  0  0  0
 12 29  1  0  0  0  0
 13 21  1  0  0  0  0
 13 27  2  0  0  0  0
 14 22  2  0  0  0  0
 14 25  1  0  0  0  0
 15 29  2  0  0  0  0
 15 30  1  0  0  0  0
 16 32  1  0  0  0  0
 17 32  1  0  0  0  0
 17 33  2  0  0  0  0
 17 34  1  0  0  0  0
 18 20  2  0  0  0  0
 18 39  1  0  0  0  0
 19 21  2  0  0  0  0
 19 40  1  0  0  0  0
 20 52  1  0  0  0  0
 21 41  1  0  0  0  0
 22 23  1  0  0  0  0
 22 56  1  0  0  0  0
 23 24  2  0  0  0  0
 23 63  1  0  0  0  0
 24 31  1  0  0  0  0
 24 57  1  0  0  0  0
 25 31  2  0  0  0  0
 25 73  1  0  0  0  0
 26 83  1  0  0  0  0
 27 84  1  0  0  0  0
 28 30  2  0  0  0  0
 28 83  1  0  0  0  0
 29 85  1  0  0  0  0
 30 86  1  0  0  0  0
 31 87  1  0  0  0  0
 32 67  2  0  0  0  0
 33 68  1  0  0  0  0
 33 71  1  0  0  0  0
 34 72  1  0  0  0  0
 34 78  2  0  0  0  0
 35 53  1  0  0  0  0
 35 74  1  0  0  0  0
 35 79  2  0  0  0  0
 36 64  1  0  0  0  0
 36 69  1  0  0  0  0
 36 80  2  0  0  0  0
 37 65  1  0  0  0  0
 37 75  1  0  0  0  0
 37 81  2  0  0  0  0
 38 70  1  0  0  0  0
 38 73  1  0  0  0  0
 38 82  2  0  0  0  0
 39 42  1  0  0  0  0
 40 53  1  0  0  0  0
 41 69  1  0  0  0  0
 42 45  1  0  0  0  0
 43 46  1  0  0  0  0
 43 48  1  0  0  0  0
 44 47  1  0  0  0  0
 44 50  1  0  0  0  0
 45 52  1  0  0  0  0
 46 54  1  0  0  0  0
 47 55  1  0  0  0  0
 48 70  1  0  0  0  0
 49 54  1  0  0  0  0
 49 70  1  0  0  0  0
 50 76  1  0  0  0  0
 51 55  1  0  0  0  0
 51 76  1  0  0  0  0
 52 74  1  0  0  0  0
 53 69  1  0  0  0  0
 54 68  1  0  0  0  0
 55 84  1  0  0  0  0
 58 65  1  0  0  0  0
 59 66  1  0  0  0  0
 60 66  1  0  0  0  0
 61 66  1  0  0  0  0
 62 77  1  0  0  0  0
 63 76  1  0  0  0  0
 64 66  1  0  0  0  0
 64 75  1  0  0  0  0
 65 77  1  0  0  0  0
 67 68  1  0  0  0  0
M  CHG  2  76   1  77   1
M  ISO  4  38 100  55 101  73 100  84 101
M  END
> <Batch ID>
0036

> <Smiles>
CNC(C)C(=O)NC(C(=O)N1Cc2cc([101O:1][101CH:1]3CCCN(Cc4c(C)cc([100NH:0][100C:0](=O)N5CCCC(n6nc(-c7ccc(Oc8ccc(F)cc8F)cc7)c(C(N)=O)c6N)C5)c(Cl)c4C)C3)ccc2CC1C(=O)NC1CCCc2ccccc21)C(C)(C)C

> <Shape>
0.336

> <Color>
0.154

> <Negative vol penalty>
0.000

$$$$

  -OEChem-04042321543D

 88 97  0     1  0  0  0  0  0999 V2000
  -34.1854  -14.1704   16.8580 C   0  0  0  0  0  0  0  0  0  0  0  0
  -33.8024  -15.3419   17.5032 C   0  0  0  0  0  0  0  0  0  0  0  0
  -23.2559  -10.2116   22.1515 C   0  0  0  0  0  0  0  0  0  0  0  0
  -23.6640   -9.5280   19.8704 C   0  0  0  0  0  0  0  0  0  0  0  0
  -33.8223  -13.9571   15.5289 C   0  0  0  0  0  0  0  0  0  0  0  0
  -33.0568  -16.3014   16.8192 C   0  0  0  0  0  0  0  0  0  0  0  0
  -29.2055  -18.0962   19.5745 C   0  0  0  0  0  0  0  0  0  0  0  0
  -32.0938  -17.6701   22.9211 C   0  0  0  0  0  0  0  0  0  0  0  0
  -31.7270  -16.4699   22.3126 C   0  0  0  0  0  0  0  0  0  0  0  0
  -22.5357   -9.0380   22.3743 C   0  0  0  0  0  0  0  0  0  0  0  0
  -22.9439   -8.3544   20.0933 C   0  0  0  0  0  0  0  0  0  0  0  0
  -29.5092  -19.0409   20.5538 C   0  0  0  0  0  0  0  0  0  0  0  0
  -23.2077   -5.7830   22.9955 C   0  0  0  0  0  0  0  0  0  0  0  0
  -23.4603   -5.0814   24.1743 C   0  0  0  0  0  0  0  0  0  0  0  0
  -28.7850  -20.8012   19.0720 C   0  0  0  0  0  0  0  0  0  0  0  0
  -21.1503   -5.3504   24.8292 C   0  0  0  0  0  0  0  0  0  0  0  0
  -23.8200  -10.4566   20.8995 C   0  0  0  0  0  0  0  0  0  0  0  0
  -24.0915  -12.9904   20.7817 C   0  0  0  0  0  0  0  0  0  0  0  0
  -33.0636  -14.9102   14.8312 C   0  0  0  0  0  0  0  0  0  0  0  0
  -28.6987  -18.4985   18.3304 C   0  0  0  0  0  0  0  0  0  0  0  0
  -32.6842  -16.1013   15.4791 C   0  0  0  0  0  0  0  0  0  0  0  0
  -28.4733  -19.8595   18.0794 C   0  0  0  0  0  0  0  0  0  0  0  0
  -31.5230  -18.0371   24.1399 C   0  0  0  0  0  0  0  0  0  0  0  0
  -30.5854  -17.2038   24.7499 C   0  0  0  0  0  0  0  0  0  0  0  0
  -30.2186  -16.0036   24.1413 C   0  0  0  0  0  0  0  0  0  0  0  0
  -30.7894  -15.6366   22.9226 C   0  0  0  0  0  0  0  0  0  0  0  0
  -22.3797   -8.1094   21.3452 C   0  0  0  0  0  0  0  0  0  0  0  0
  -29.3017  -20.3938   20.3017 C   0  0  0  0  0  0  0  0  0  0  0  0
  -21.9265   -6.2684   22.7335 C   0  0  0  0  0  0  0  0  0  0  0  0
  -22.4316   -4.8651   25.0911 C   0  0  0  0  0  0  0  0  0  0  0  0
  -20.8978   -6.0521   23.6504 C   0  0  0  0  0  0  0  0  0  0  0  0
  -24.5635  -11.6690   20.6685 C   0  0  0  0  0  0  0  0  0  0  0  0
  -25.1752  -13.7709   20.4610 C   0  0  0  0  0  0  0  0  0  0  0  0
  -22.7897  -13.4696   21.1444 C   0  0  0  0  0  0  0  0  0  0  0  0
  -29.6978  -18.2714   15.3214 C   0  0  0  0  0  0  0  0  0  0  0  0
  -26.7779  -19.5240   14.6675 C   0  0  0  0  0  0  0  0  0  0  0  0
  -24.1052  -21.3557   15.7388 C   0  0  0  0  0  0  0  0  0  0  0  0
  -30.9161  -13.9279   21.0758 C   0  0  0  0  0  0  0  0  0  0  0  0
  -32.7352  -14.6565   13.3812 C   0  0  0  0  0  0  0  0  0  0  0  0
  -28.3510  -17.4651   17.2942 C   0  0  0  0  0  0  0  0  0  0  0  0
  -27.9121  -20.3417   16.7676 C   0  0  0  0  0  0  0  0  0  0  0  0
  -31.6251  -15.5549   12.8419 C   0  0  0  0  0  0  0  0  0  0  0  0
  -28.5446  -22.1599   25.7985 C   0  0  0  0  0  0  0  0  0  0  0  0
  -27.9278  -21.3658   24.6448 C   0  0  0  0  0  0  0  0  0  0  0  0
  -29.3945  -13.0275   17.9853 C   0  0  0  0  0  0  0  0  0  0  0  0
  -30.0152  -22.5568   25.6988 C   0  0  0  0  0  0  0  0  0  0  0  0
  -31.8647  -17.0044   13.2523 C   0  0  0  0  0  0  0  0  0  0  0  0
  -27.9471  -12.7143   18.3715 C   0  0  0  0  0  0  0  0  0  0  0  0
  -28.3737  -21.7746   23.2420 C   0  0  0  0  0  0  0  0  0  0  0  0
  -30.3793  -12.5748   19.0618 C   0  0  0  0  0  0  0  0  0  0  0  0
  -28.6434  -12.7553   20.8006 C   0  0  0  0  0  0  0  0  0  0  0  0
  -31.0344  -21.4253   25.7531 C   0  0  0  0  0  0  0  0  0  0  0  0
  -30.8655  -21.0029   23.2530 C   0  0  0  0  0  0  0  0  0  0  0  0
  -31.8540  -17.1547   14.7783 C   0  0  1  0  0  0  0  0  0  0  0  0
  -28.3230  -18.0268   15.8761 C   0  0  1  0  0  0  0  0  0  0  0  0
  -27.6098  -13.2514   19.7763 C   0  0  2  0  0  0  0  0  0  0  0  0
  -29.4763  -20.9058   22.6237 C   0  0  2  0  0  0  0  0  0  1  0  0
  -29.9750  -17.6001   26.0571 C   0  0  0  0  0  0  0  0  0  0  0  0
  -29.2122  -15.1108   24.7978 C   0  0  0  0  0  0  0  0  0  0  0  0
  -21.8876  -22.2413   14.9672 C   0  0  0  0  0  0  0  0  0  0  0  0
  -28.2050  -21.6865   13.0559 C   0  0  0  0  0  0  0  0  0  0  0  0
  -26.0932  -23.0297   13.1198 C   0  0  0  0  0  0  0  0  0  0  0  0
  -26.1189  -20.8022   11.9972 C   0  0  0  0  0  0  0  0  0  0  0  0
  -22.6447  -19.8368   17.8169 C   0  0  0  0  0  0  0  0  0  0  0  0
  -31.9353  -19.3334   24.7729 C   0  0  0  0  0  0  0  0  0  0  0  0
  -26.2219  -20.9197   14.5207 C   0  0  1  0  0  0  0  0  0  0  0  0
  -22.6112  -21.0978   15.6612 C   0  0  2  0  0  0  0  0  0  0  0  0
  -26.6722  -21.6009   13.1975 C   0  0  0  0  0  0  0  0  0  0  0  0
  -25.8472  -11.6095   20.3042 N   0  0  0  0  0  0  0  0  0  0  0  0
  -26.1909  -12.9033   20.1856 N   0  0  0  0  0  0  0  0  0  0  0  0
  -27.5939  -19.2933   15.7841 N   0  0  0  0  0  0  0  0  0  0  0  0
  -29.9991  -13.1254   20.3646 N   0  0  0  0  0  0  0  0  0  0  0  0
  -25.3489  -15.1078   20.3904 N   0  0  0  0  0  0  0  0  0  0  0  0
  -21.7919  -12.5318   21.4433 N   0  0  0  0  0  0  0  0  0  0  0  0
  -30.4317  -14.4220   22.2866 N   0  0  0  0  0  0  0  0  0  0  0  0
  -30.4957  -17.1440   15.2777 N   0  0  0  0  0  0  0  0  0  0  0  0
  -24.7755  -20.8006   14.6693 N   0  0  0  0  0  0  0  0  0  0  0  0
  -30.8873  -20.4144   24.6450 N   0  3  1  0  0  0  0  0  0  0  0  0
  -22.0407  -20.9420   17.0291 N   0  3  0  0  0  0  0  0  0  0  0  0
  -22.5148  -14.6928   21.1858 O   0  0  0  0  0  0  0  0  0  0  0  0
  -30.0111  -19.3992   14.9586 O   0  0  0  0  0  0  0  0  0  0  0  0
  -26.4929  -18.6679   13.8264 O   0  0  0  0  0  0  0  0  0  0  0  0
  -24.6250  -21.9896   16.6545 O   0  0  0  0  0  0  0  0  0  0  0  0
  -32.0380  -14.1820   20.6300 O   0  0  0  0  0  0  0  0  0  0  0  0
  -21.6772   -6.9640   21.5624 O   0  0  0  0  0  0  0  0  0  0  0  0
  -29.5979  -21.3180   21.2556 O   0  0  0  0  0  0  0  0  0  1  0  0
  -22.6739   -4.1900   26.2224 F   0  0  0  0  0  0  0  0  0  0  0  0
  -19.6646   -6.5149   23.4037 F   0  0  0  0  0  0  0  0  0  0  0  0
  1  2  1  0  0  0  0
  1  5  2  0  0  0  0
  2  6  2  0  0  0  0
  3 10  2  0  0  0  0
  3 17  1  0  0  0  0
  4 11  1  0  0  0  0
  4 17  2  0  0  0  0
  5 19  1  0  0  0  0
  6 21  1  0  0  0  0
  7 12  2  0  0  0  0
  7 20  1  0  0  0  0
  8  9  2  0  0  0  0
  8 23  1  0  0  0  0
  9 26  1  0  0  0  0
 10 27  1  0  0  0  0
 11 27  2  0  0  0  0
 12 28  1  0  0  0  0
 13 14  2  0  0  0  0
 13 29  1  0  0  0  0
 14 30  1  0  0  0  0
 15 22  1  0  0  0  0
 15 28  2  0  0  0  0
 16 30  2  0  0  0  0
 16 31  1  0  0  0  0
 17 32  1  0  0  0  0
 18 32  1  0  0  0  0
 18 33  2  0  0  0  0
 18 34  1  0  0  0  0
 19 21  2  0  0  0  0
 19 39  1  0  0  0  0
 20 22  2  0  0  0  0
 20 40  1  0  0  0  0
 21 54  1  0  0  0  0
 22 41  1  0  0  0  0
 23 24  2  0  0  0  0
 23 65  1  0  0  0  0
 24 25  1  0  0  0  0
 24 58  1  0  0  0  0
 25 26  2  0  0  0  0
 25 59  1  0  0  0  0
 26 75  1  0  0  0  0
 27 85  1  0  0  0  0
 28 86  1  0  0  0  0
 29 31  2  0  0  0  0
 29 85  1  0  0  0  0
 30 87  1  0  0  0  0
 31 88  1  0  0  0  0
 32 69  2  0  0  0  0
 33 70  1  0  0  0  0
 33 73  1  0  0  0  0
 34 74  1  0  0  0  0
 34 80  2  0  0  0  0
 35 55  1  0  0  0  0
 35 76  1  0  0  0  0
 35 81  2  0  0  0  0
 36 66  1  0  0  0  0
 36 71  1  0  0  0  0
 36 82  2  0  0  0  0
 37 67  1  0  0  0  0
 37 77  1  0  0  0  0
 37 83  2  0  0  0  0
 38 72  1  0  0  0  0
 38 75  1  0  0  0  0
 38 84  2  0  0  0  0
 39 42  1  0  0  0  0
 40 55  1  0  0  0  0
 41 71  1  0  0  0  0
 42 47  1  0  0  0  0
 43 44  1  0  0  0  0
 43 46  1  0  0  0  0
 44 49  1  0  0  0  0
 45 48  1  0  0  0  0
 45 50  1  0  0  0  0
 46 52  1  0  0  0  0
 47 54  1  0  0  0  0
 48 56  1  0  0  0  0
 49 57  1  0  0  0  0
 50 72  1  0  0  0  0
 51 56  1  0  0  0  0
 51 72  1  0  0  0  0
 52 78  1  0  0  0  0
 53 57  1  0  0  0  0
 53 78  1  0  0  0  0
 54 76  1  0  0  0  0
 55 71  1  0  0  0  0
 56 70  1  0  0  0  0
 57 86  1  0  0  0  0
 60 67  1  0  0  0  0
 61 68  1  0  0  0  0
 62 68  1  0  0  0  0
 63 68  1  0  0  0  0
 64 79  1  0  0  0  0
 65 78  1  0  0  0  0
 66 68  1  0  0  0  0
 66 77  1  0  0  0  0
 67 79  1  0  0  0  0
 69 70  1  0  0  0  0
M  CHG  2  78   1  79   1
M  ISO  4  38 100  57 101  75 100  86 101
M  END
> <Batch ID>
0036

> <Smiles>
CNC(C)C(=O)NC(C(=O)N1Cc2cc([101O:1][101CH:1]3CCCCCN(Cc4ccc([100NH:0][100C:0](=O)N5CCCC(n6nc(-c7ccc(Oc8ccc(F)cc8F)cc7)c(C(N)=O)c6N)C5)c(C)c4C)C3)ccc2CC1C(=O)NC1CCCc2ccccc21)C(C)(C)C

> <Shape>
0.206

> <Color>
0.200

> <Negative vol penalty>
0.000

$$$$

  -OEChem-04042321543D

 91100  0     1  0  0  0  0  0999 V2000
  -31.1385  -21.9804   17.4169 C   0  0  0  0  0  0  0  0  0  0  0  0
  -30.5644  -22.1756   18.6690 C   0  0  0  0  0  0  0  0  0  0  0  0
  -26.6400  -12.3809   21.2389 C   0  0  0  0  0  0  0  0  0  0  0  0
  -25.0867  -13.8983   20.1799 C   0  0  0  0  0  0  0  0  0  0  0  0
  -31.3024  -23.0603   16.5504 C   0  0  0  0  0  0  0  0  0  0  0  0
  -30.1548  -23.4512   19.0557 C   0  0  0  0  0  0  0  0  0  0  0  0
  -25.5853  -23.4458   21.2386 C   0  0  0  0  0  0  0  0  0  0  0  0
  -25.6780  -11.3716   21.2039 C   0  0  0  0  0  0  0  0  0  0  0  0
  -24.1246  -12.8890   20.1449 C   0  0  0  0  0  0  0  0  0  0  0  0
  -25.5147  -23.0282   22.5669 C   0  0  0  0  0  0  0  0  0  0  0  0
  -24.4183   -9.2088   18.9305 C   0  0  0  0  0  0  0  0  0  0  0  0
  -24.8230   -7.9418   18.5104 C   0  0  0  0  0  0  0  0  0  0  0  0
  -25.4447  -25.3314   23.2808 C   0  0  0  0  0  0  0  0  0  0  0  0
  -29.0292  -20.8340   27.3408 C   0  0  0  0  0  0  0  0  0  0  0  0
  -24.1577   -7.0221   20.6432 C   0  0  0  0  0  0  0  0  0  0  0  0
  -26.3444  -13.6443   20.7270 C   0  0  0  0  0  0  0  0  0  0  0  0
  -28.2976  -14.9821   19.7768 C   0  0  0  0  0  0  0  0  0  0  0  0
  -30.8858  -24.3481   16.9229 C   0  0  0  0  0  0  0  0  0  0  0  0
  -25.5972  -24.8117   20.9215 C   0  0  0  0  0  0  0  0  0  0  0  0
  -30.3145  -24.5496   18.1939 C   0  0  0  0  0  0  0  0  0  0  0  0
  -25.5129  -25.7636   21.9476 C   0  0  0  0  0  0  0  0  0  0  0  0
  -27.9134  -21.5415   27.7881 C   0  0  0  0  0  0  0  0  0  0  0  0
  -26.7367  -19.4614   28.1428 C   0  0  0  0  0  0  0  0  0  0  0  0
  -26.7672  -20.8552   28.1891 C   0  0  0  0  0  0  0  0  0  0  0  0
  -27.8525  -18.7539   27.6955 C   0  0  0  0  0  0  0  0  0  0  0  0
  -28.9987  -19.4402   27.2945 C   0  0  0  0  0  0  0  0  0  0  0  0
  -24.4202  -11.6256   20.6569 C   0  0  0  0  0  0  0  0  0  0  0  0
  -25.4473  -23.9711   23.5885 C   0  0  0  0  0  0  0  0  0  0  0  0
  -23.8833   -9.3825   20.2070 C   0  0  0  0  0  0  0  0  0  0  0  0
  -24.6927   -6.8484   19.3667 C   0  0  0  0  0  0  0  0  0  0  0  0
  -23.7530   -8.2891   21.0633 C   0  0  0  0  0  0  0  0  0  0  0  0
  -27.3376  -14.6876   20.7634 C   0  0  0  0  0  0  0  0  0  0  0  0
  -28.9947  -16.0512   20.2843 C   0  0  0  0  0  0  0  0  0  0  0  0
  -31.7162  -19.4216   29.8583 C   0  0  0  0  0  0  0  0  0  0  0  0
  -31.5323  -18.6104   28.8106 C   0  0  0  0  0  0  0  0  0  0  0  0
  -28.5378  -14.3462   18.5144 C   0  0  0  0  0  0  0  0  0  0  0  0
  -27.6583  -26.7652   19.4935 C   0  0  0  0  0  0  0  0  0  0  0  0
  -25.2324  -28.8999   19.7766 C   0  0  0  0  0  0  0  0  0  0  0  0
  -22.8818  -29.2044   22.2320 C   0  0  0  0  0  0  0  0  0  0  0  0
  -30.1053  -17.8834   25.6997 C   0  0  0  0  0  0  0  0  0  0  0  0
  -31.1268  -25.4928   15.9710 C   0  0  0  0  0  0  0  0  0  0  0  0
  -25.6467  -25.2455   19.4822 C   0  0  0  0  0  0  0  0  0  0  0  0
  -25.5019  -27.2418   21.6590 C   0  0  0  0  0  0  0  0  0  0  0  0
  -30.3239  -26.7461   16.3097 C   0  0  0  0  0  0  0  0  0  0  0  0
  -28.5032  -19.8167   23.1820 C   0  0  0  0  0  0  0  0  0  0  0  0
  -30.4207  -27.0555   17.8003 C   0  0  0  0  0  0  0  0  0  0  0  0
  -28.1040  -18.7361   22.1777 C   0  0  0  0  0  0  0  0  0  0  0  0
  -23.0977  -23.6285   25.6956 C   0  0  0  0  0  0  0  0  0  0  0  0
  -23.3997  -24.3494   27.0042 C   0  0  0  0  0  0  0  0  0  0  0  0
  -28.3212  -19.3507   24.6269 C   0  0  0  0  0  0  0  0  0  0  0  0
  -28.6053  -16.9924   23.9325 C   0  0  0  0  0  0  0  0  0  0  0  0
  -24.7019  -21.7973   26.3533 C   0  0  0  0  0  0  0  0  0  0  0  0
  -29.8349  -25.9138   18.6399 C   0  0  1  0  0  0  0  0  0  0  0  0
  -26.1709  -26.6671   19.3043 C   0  0  1  0  0  0  0  0  0  0  0  0
  -28.8322  -17.4127   22.4719 C   0  0  1  0  0  0  0  0  0  0  0  0
  -24.2658  -22.7554   25.2549 C   0  0  2  0  0  0  0  0  0  1  0  0
  -23.8223  -23.3824   28.1166 C   0  0  2  0  0  0  0  0  0  0  0  0
  -27.9706  -23.0337   27.8244 C   0  0  0  0  0  0  0  0  0  0  0  0
  -25.5066  -18.7259   28.5730 C   0  0  0  0  0  0  0  0  0  0  0  0
  -27.8167  -17.2583   27.6451 C   0  0  0  0  0  0  0  0  0  0  0  0
  -24.1862  -24.1696   29.3740 C   0  0  0  0  0  0  0  0  0  0  0  0
  -20.7747  -29.1996   23.5948 C   0  0  0  0  0  0  0  0  0  0  0  0
  -26.6849  -31.5504   20.1951 C   0  0  0  0  0  0  0  0  0  0  0  0
  -24.7340  -32.3241   21.5603 C   0  0  0  0  0  0  0  0  0  0  0  0
  -24.4212  -31.7547   19.1518 C   0  0  0  0  0  0  0  0  0  0  0  0
  -21.4780  -27.4922   20.2682 C   0  0  0  0  0  0  0  0  0  0  0  0
  -25.5684  -21.6195   28.6684 C   0  0  0  0  0  0  0  0  0  0  0  0
  -31.4723  -19.0803   27.3951 C   0  0  0  0  0  0  0  0  0  0  0  0
  -24.8036  -29.8981   20.8248 C   0  0  1  0  0  0  0  0  0  0  0  0
  -21.3701  -29.0701   22.2014 C   0  0  2  0  0  0  0  0  0  0  0  0
  -25.1749  -31.3581   20.4399 C   0  0  0  0  0  0  0  0  0  0  0  0
  -27.4149  -15.5036   21.8180 N   0  0  0  0  0  0  0  0  0  0  0  0
  -28.4319  -16.3213   21.4969 N   0  0  0  0  0  0  0  0  0  0  0  0
  -25.5585  -27.6161   20.2362 N   0  0  0  0  0  0  0  0  0  0  0  0
  -28.9986  -18.0654   24.8490 N   0  0  0  0  0  0  0  0  0  0  0  0
  -30.0280  -16.7771   19.8071 N   0  0  0  0  0  0  0  0  0  0  0  0
  -27.7292  -13.2616   18.1480 N   0  0  0  0  0  0  0  0  0  0  0  0
  -28.3888  -25.9704   18.6308 N   0  0  0  0  0  0  0  0  0  0  0  0
  -23.3766  -29.6804   21.0362 N   0  0  0  0  0  0  0  0  0  0  0  0
  -30.1656  -18.7282   26.8289 N   0  0  0  0  0  0  0  0  0  0  0  0
  -25.0138  -22.5634   27.6284 N   0  3  1  0  0  0  0  0  0  0  0  0
  -20.9790  -27.7442   21.6446 N   0  3  0  0  0  0  0  0  0  0  0  0
  -29.4532  -14.7180   17.7416 O   0  0  0  0  0  0  0  0  0  0  0  0
  -28.1098  -27.5081   20.3571 O   0  0  0  0  0  0  0  0  0  0  0  0
  -25.2696  -29.2445   18.5927 O   0  0  0  0  0  0  0  0  0  0  0  0
  -23.5561  -28.9194   23.2192 O   0  0  0  0  0  0  0  0  0  0  0  0
  -30.9596  -17.0159   25.4819 O   0  0  0  0  0  0  0  0  0  0  0  0
  -23.4813  -10.6408   20.6223 O   0  0  0  0  0  0  0  0  0  0  0  0
  -25.3790  -23.5663   24.8859 O   0  0  0  0  0  0  0  0  0  1  0  0
  -25.0799   -5.6315   18.9626 F   0  0  0  0  0  0  0  0  0  0  0  0
  -23.2387   -8.4495   22.2903 F   0  0  0  0  0  0  0  0  0  0  0  0
  1  2  1  0  0  0  0
  1  5  2  0  0  0  0
  2  6  2  0  0  0  0
  3  8  2  0  0  0  0
  3 16  1  0  0  0  0
  4  9  1  0  0  0  0
  4 16  2  0  0  0  0
  5 18  1  0  0  0  0
  6 20  1  0  0  0  0
  7 10  2  0  0  0  0
  7 19  1  0  0  0  0
  8 27  1  0  0  0  0
  9 27  2  0  0  0  0
 10 28  1  0  0  0  0
 11 12  2  0  0  0  0
 11 29  1  0  0  0  0
 12 30  1  0  0  0  0
 13 21  1  0  0  0  0
 13 28  2  0  0  0  0
 14 22  2  0  0  0  0
 14 26  1  0  0  0  0
 15 30  2  0  0  0  0
 15 31  1  0  0  0  0
 16 32  1  0  0  0  0
 17 32  1  0  0  0  0
 17 33  2  0  0  0  0
 17 36  1  0  0  0  0
 18 20  2  0  0  0  0
 18 41  1  0  0  0  0
 19 21  2  0  0  0  0
 19 42  1  0  0  0  0
 20 53  1  0  0  0  0
 21 43  1  0  0  0  0
 22 24  1  0  0  0  0
 22 58  1  0  0  0  0
 23 24  2  0  0  0  0
 23 25  1  0  0  0  0
 23 59  1  0  0  0  0
 24 67  1  0  0  0  0
 25 26  2  0  0  0  0
 25 60  1  0  0  0  0
 26 80  1  0  0  0  0
 27 88  1  0  0  0  0
 28 89  1  0  0  0  0
 29 31  2  0  0  0  0
 29 88  1  0  0  0  0
 30 90  1  0  0  0  0
 31 91  1  0  0  0  0
 32 72  2  0  0  0  0
 33 73  1  0  0  0  0
 33 76  1  0  0  0  0
 34 35  2  0  0  0  0
 35 68  1  0  0  0  0
 36 77  1  0  0  0  0
 36 83  2  0  0  0  0
 37 54  1  0  0  0  0
 37 78  1  0  0  0  0
 37 84  2  0  0  0  0
 38 69  1  0  0  0  0
 38 74  1  0  0  0  0
 38 85  2  0  0  0  0
 39 70  1  0  0  0  0
 39 79  1  0  0  0  0
 39 86  2  0  0  0  0
 40 75  1  0  0  0  0
 40 80  1  0  0  0  0
 40 87  2  0  0  0  0
 41 44  1  0  0  0  0
 42 54  1  0  0  0  0
 43 74  1  0  0  0  0
 44 46  1  0  0  0  0
 45 47  1  0  0  0  0
 45 50  1  0  0  0  0
 46 53  1  0  0  0  0
 47 55  1  0  0  0  0
 48 49  1  0  0  0  0
 48 56  1  0  0  0  0
 49 57  1  0  0  0  0
 50 75  1  0  0  0  0
 51 55  1  0  0  0  0
 51 75  1  0  0  0  0
 52 56  1  0  0  0  0
 52 81  1  0  0  0  0
 53 78  1  0  0  0  0
 54 74  1  0  0  0  0
 55 73  1  0  0  0  0
 56 89  1  0  0  0  0
 57 61  1  0  0  0  0
 57 81  1  0  0  0  0
 62 70  1  0  0  0  0
 63 71  1  0  0  0  0
 64 71  1  0  0  0  0
 65 71  1  0  0  0  0
 66 82  1  0  0  0  0
 67 81  1  0  0  0  0
 68 80  1  0  0  0  0
 69 71  1  0  0  0  0
 69 79  1  0  0  0  0
 70 82  1  0  0  0  0
 72 73  1  0  0  0  0
M  CHG  2  81   1  82   1
M  ISO  4  40 100  56 101  80 100  89 101
M  END
> <Batch ID>
0036

> <Smiles>
C=CC[100N:0](c1cc(C)c(CN2C[101CH:1]([101O:1]c3ccc4c(c3)CN(C(=O)C(NC(=O)C(C)NC)C(C)(C)C)C(C(=O)NC3CCCc5ccccc53)C4)CCC2C)c(C)c1C)[100C:0](=O)N1CCCC(n2nc(-c3ccc(Oc4ccc(F)cc4F)cc3)c(C(N)=O)c2N)C1

> <Shape>
0.205

> <Color>
0.053

> <Negative vol penalty>
0.000

$$$$

  -OEChem-04042321543D

 85 93  0     1  0  0  0  0  0999 V2000
  -27.5435  -24.7022   16.6612 C   0  0  0  0  0  0  0  0  0  0  0  0
  -26.3664  -25.0011   17.3399 C   0  0  0  0  0  0  0  0  0  0  0  0
  -26.9781  -17.9364   21.8538 C   0  0  0  0  0  0  0  0  0  0  0  0
  -24.6596  -18.3880   21.3462 C   0  0  0  0  0  0  0  0  0  0  0  0
  -28.7726  -25.0802   17.1999 C   0  0  0  0  0  0  0  0  0  0  0  0
  -26.4179  -25.6773   18.5583 C   0  0  0  0  0  0  0  0  0  0  0  0
  -22.9883  -29.3905   18.8660 C   0  0  0  0  0  0  0  0  0  0  0  0
  -26.8338  -16.6401   21.3596 C   0  0  0  0  0  0  0  0  0  0  0  0
  -24.5153  -17.0916   20.8519 C   0  0  0  0  0  0  0  0  0  0  0  0
  -21.6715  -29.0202   19.1354 C   0  0  0  0  0  0  0  0  0  0  0  0
  -26.7325  -15.1225   18.3397 C   0  0  0  0  0  0  0  0  0  0  0  0
  -27.7308  -14.6356   17.4960 C   0  0  0  0  0  0  0  0  0  0  0  0
  -18.9973  -23.8072   24.1713 C   0  0  0  0  0  0  0  0  0  0  0  0
  -21.9833  -29.6188   21.4514 C   0  0  0  0  0  0  0  0  0  0  0  0
  -20.3316  -25.5201   25.9229 C   0  0  0  0  0  0  0  0  0  0  0  0
  -28.1709  -12.8409   19.0525 C   0  0  0  0  0  0  0  0  0  0  0  0
  -25.8909  -18.8104   21.8472 C   0  0  0  0  0  0  0  0  0  0  0  0
  -18.9664  -25.1853   23.9578 C   0  0  0  0  0  0  0  0  0  0  0  0
  -26.4203  -21.2970   21.6373 C   0  0  0  0  0  0  0  0  0  0  0  0
  -28.8387  -25.7699   18.4208 C   0  0  0  0  0  0  0  0  0  0  0  0
  -23.8173  -29.8682   19.8912 C   0  0  0  0  0  0  0  0  0  0  0  0
  -27.6492  -26.0637   19.1145 C   0  0  0  0  0  0  0  0  0  0  0  0
  -23.3095  -29.9969   21.1919 C   0  0  0  0  0  0  0  0  0  0  0  0
  -19.6952  -23.2856   25.2605 C   0  0  0  0  0  0  0  0  0  0  0  0
  -19.6336  -26.0417   24.8336 C   0  0  0  0  0  0  0  0  0  0  0  0
  -20.3624  -24.1420   26.1363 C   0  0  0  0  0  0  0  0  0  0  0  0
  -25.6025  -16.2177   20.8586 C   0  0  0  0  0  0  0  0  0  0  0  0
  -21.1696  -29.1316   20.4288 C   0  0  0  0  0  0  0  0  0  0  0  0
  -26.4534  -14.4687   19.5398 C   0  0  0  0  0  0  0  0  0  0  0  0
  -28.4500  -13.4948   17.8524 C   0  0  0  0  0  0  0  0  0  0  0  0
  -27.1725  -13.3278   19.8962 C   0  0  0  0  0  0  0  0  0  0  0  0
  -26.0392  -20.1494   22.3581 C   0  0  0  0  0  0  0  0  0  0  0  0
  -26.4120  -22.3062   22.5690 C   0  0  0  0  0  0  0  0  0  0  0  0
  -18.2217  -25.7157   22.7983 C   0  0  0  0  0  0  0  0  0  0  0  0
  -26.7520  -21.4382   20.2496 C   0  0  0  0  0  0  0  0  0  0  0  0
  -26.5345  -28.8891   21.2186 C   0  0  0  0  0  0  0  0  0  0  0  0
  -26.3253  -31.7134   22.8003 C   0  0  0  0  0  0  0  0  0  0  0  0
  -24.3537  -34.2494   23.9530 C   0  0  0  0  0  0  0  0  0  0  0  0
  -23.4963  -23.0530   27.7451 C   0  0  0  0  0  0  0  0  0  0  0  0
  -30.1932  -26.1161   18.9866 C   0  0  0  0  0  0  0  0  0  0  0  0
  -25.2273  -30.2886   19.5789 C   0  0  0  0  0  0  0  0  0  0  0  0
  -24.1523  -30.5232   22.3237 C   0  0  0  0  0  0  0  0  0  0  0  0
  -30.1399  -27.1601   20.0990 C   0  0  0  0  0  0  0  0  0  0  0  0
  -27.0220  -23.0860   27.2499 C   0  0  0  0  0  0  0  0  0  0  0  0
  -29.0404  -26.8184   21.0996 C   0  0  0  0  0  0  0  0  0  0  0  0
  -27.2043  -22.4406   25.8750 C   0  0  0  0  0  0  0  0  0  0  0  0
  -25.8794  -22.4393   28.0298 C   0  0  0  0  0  0  0  0  0  0  0  0
  -24.7727  -21.7463   25.9396 C   0  0  0  0  0  0  0  0  0  0  0  0
  -27.6626  -26.8177   20.4265 C   0  0  1  0  0  0  0  0  0  0  0  0
  -26.1389  -30.2776   20.8021 C   0  0  1  0  0  0  0  0  0  0  0  0
  -25.8773  -22.4020   25.0933 C   0  0  2  0  0  0  0  0  0  0  0  0
  -19.7149  -21.8069   25.4690 C   0  0  0  0  0  0  0  0  0  0  0  0
  -19.6154  -27.5206   24.6252 C   0  0  0  0  0  0  0  0  0  0  0  0
  -24.4632  -36.3991   25.2429 C   0  0  0  0  0  0  0  0  0  0  0  0
  -26.6177  -30.1377   25.3968 C   0  0  0  0  0  0  0  0  0  0  0  0
  -25.7804  -32.1492   26.6302 C   0  0  0  0  0  0  0  0  0  0  0  0
  -27.9034  -32.2817   25.3271 C   0  0  0  0  0  0  0  0  0  0  0  0
  -23.3258  -35.8126   21.6598 C   0  0  0  0  0  0  0  0  0  0  0  0
  -21.1168  -23.6064   27.3086 C   0  0  0  0  0  0  0  0  0  0  0  0
  -18.2651  -27.0003   20.6900 C   0  0  0  0  0  0  0  0  0  0  0  0
  -19.3217  -27.7349   19.8902 C   0  0  0  0  0  0  0  0  0  1  0  0
  -25.6982  -32.1694   24.0957 C   0  0  1  0  0  0  0  0  0  0  0  0
  -24.4987  -35.7579   23.8644 C   0  0  2  0  0  0  0  0  0  0  0  0
  -26.4844  -31.6727   25.3417 C   0  0  0  0  0  0  0  0  0  0  0  0
  -25.8059  -20.4047   23.6483 N   0  0  0  0  0  0  0  0  0  0  0  0
  -26.0412  -21.7243   23.7455 N   0  0  0  0  0  0  0  0  0  0  0  0
  -25.5264  -30.9153   21.9693 N   0  0  0  0  0  0  0  0  0  0  0  0
  -24.6498  -22.4359   27.2335 N   0  0  0  0  0  0  0  0  0  0  0  0
  -26.6858  -23.6256   22.4885 N   0  0  0  0  0  0  0  0  0  0  0  0
  -16.9149  -25.4639   22.7225 N   0  0  0  0  0  0  0  0  0  0  0  0
  -26.7098  -20.2997   19.4334 N   0  0  0  0  0  0  0  0  0  0  0  0
  -27.1922  -28.1731   20.2367 N   0  0  0  0  0  0  0  0  0  0  0  0
  -25.5798  -33.6206   24.0032 N   0  0  0  0  0  0  0  0  0  0  0  0
  -22.3764  -23.0099   26.9237 N   0  0  0  0  0  0  0  0  0  0  0  0
  -18.8932  -26.4205   21.8798 N   0  3  0  0  0  0  0  0  0  0  0  0
  -23.3947  -36.3373   23.0480 N   0  3  0  0  0  0  0  0  0  0  0  0
  -27.0923  -22.5382   19.7518 O   0  0  0  0  0  0  0  0  0  0  0  0
  -26.2643  -28.4970   22.3477 O   0  0  0  0  0  0  0  0  0  0  0  0
  -27.4788  -32.0588   22.5324 O   0  0  0  0  0  0  0  0  0  0  0  0
  -23.2620  -33.6855   23.9791 O   0  0  0  0  0  0  0  0  0  0  0  0
  -23.4682  -23.6062   28.8497 O   0  0  0  0  0  0  0  0  0  0  0  0
  -25.4614  -14.9529   20.3760 O   0  0  0  0  0  0  0  0  0  0  0  0
  -19.8849  -28.7703   20.6946 O   0  0  0  0  0  0  0  0  0  1  0  0
  -29.4076  -13.0264   17.0413 F   0  0  0  0  0  0  0  0  0  0  0  0
  -26.9081  -12.6947   21.0473 F   0  0  0  0  0  0  0  0  0  0  0  0
  1  2  1  0  0  0  0
  1  5  2  0  0  0  0
  2  6  2  0  0  0  0
  3  8  2  0  0  0  0
  3 17  1  0  0  0  0
  4  9  1  0  0  0  0
  4 17  2  0  0  0  0
  5 20  1  0  0  0  0
  6 22  1  0  0  0  0
  7 10  2  0  0  0  0
  7 21  1  0  0  0  0
  8 27  1  0  0  0  0
  9 27  2  0  0  0  0
 10 28  1  0  0  0  0
 11 12  2  0  0  0  0
 11 29  1  0  0  0  0
 12 30  1  0  0  0  0
 13 18  1  0  0  0  0
 13 24  2  0  0  0  0
 14 23  1  0  0  0  0
 14 28  2  0  0  0  0
 15 25  1  0  0  0  0
 15 26  2  0  0  0  0
 16 30  2  0  0  0  0
 16 31  1  0  0  0  0
 17 32  1  0  0  0  0
 18 25  2  0  0  0  0
 18 34  1  0  0  0  0
 19 32  1  0  0  0  0
 19 33  2  0  0  0  0
 19 35  1  0  0  0  0
 20 22  2  0  0  0  0
 20 40  1  0  0  0  0
 21 23  2  0  0  0  0
 21 41  1  0  0  0  0
 22 49  1  0  0  0  0
 23 42  1  0  0  0  0
 24 26  1  0  0  0  0
 24 52  1  0  0  0  0
 25 53  1  0  0  0  0
 26 59  1  0  0  0  0
 27 82  1  0  0  0  0
 28 83  1  0  0  0  0
 29 31  2  0  0  0  0
 29 82  1  0  0  0  0
 30 84  1  0  0  0  0
 31 85  1  0  0  0  0
 32 65  2  0  0  0  0
 33 66  1  0  0  0  0
 33 69  1  0  0  0  0
 34 70  1  0  0  0  0
 34 75  2  0  0  0  0
 35 71  1  0  0  0  0
 35 77  2  0  0  0  0
 36 50  1  0  0  0  0
 36 72  1  0  0  0  0
 36 78  2  0  0  0  0
 37 62  1  0  0  0  0
 37 67  1  0  0  0  0
 37 79  2  0  0  0  0
 38 63  1  0  0  0  0
 38 73  1  0  0  0  0
 38 80  2  0  0  0  0
 39 68  1  0  0  0  0
 39 74  1  0  0  0  0
 39 81  2  0  0  0  0
 40 43  1  0  0  0  0
 41 50  1  0  0  0  0
 42 67  1  0  0  0  0
 43 45  1  0  0  0  0
 44 46  1  0  0  0  0
 44 47  1  0  0  0  0
 45 49  1  0  0  0  0
 46 51  1  0  0  0  0
 47 68  1  0  0  0  0
 48 51  1  0  0  0  0
 48 68  1  0  0  0  0
 49 72  1  0  0  0  0
 50 67  1  0  0  0  0
 51 66  1  0  0  0  0
 54 63  1  0  0  0  0
 55 64  1  0  0  0  0
 56 64  1  0  0  0  0
 57 64  1  0  0  0  0
 58 76  1  0  0  0  0
 59 74  1  0  0  0  0
 60 61  1  0  0  0  0
 60 75  1  0  0  0  0
 61 83  1  0  0  0  0
 62 64  1  0  0  0  0
 62 73  1  0  0  0  0
 63 76  1  0  0  0  0
 65 66  1  0  0  0  0
M  CHG  2  75   1  76   1
M  ISO  4  39 100  61 101  74 100  83 101
M  END
> <Batch ID>
0036

> <Smiles>
CNC(C)C(=O)NC(C(=O)N1Cc2cc([101O:1][101CH2:1]CNC(=N)c3cc(C)c(C[100NH:0][100C:0](=O)N4CCCC(n5nc(-c6ccc(Oc7ccc(F)cc7F)cc6)c(C(N)=O)c5N)C4)cc3C)ccc2CC1C(=O)NC1CCCc2ccccc21)C(C)(C)C

> <Shape>
0.259

> <Color>
0.071

> <Negative vol penalty>
0.000

$$$$

  -OEChem-04042321543D

 87 96  0     1  0  0  0  0  0999 V2000
  -25.1035  -36.5088   23.2923 C   0  0  0  0  0  0  0  0  0  0  0  0
  -26.2356  -35.7825   22.9370 C   0  0  0  0  0  0  0  0  0  0  0  0
  -22.8631   -9.6026   19.9485 C   0  0  0  0  0  0  0  0  0  0  0  0
  -24.5765   -8.7678   21.4332 C   0  0  0  0  0  0  0  0  0  0  0  0
  -23.9494  -35.8423   23.7021 C   0  0  0  0  0  0  0  0  0  0  0  0
  -26.2147  -34.3894   22.9923 C   0  0  0  0  0  0  0  0  0  0  0  0
  -28.9223  -28.6303   19.7032 C   0  0  0  0  0  0  0  0  0  0  0  0
  -21.8804   -9.0736   20.7852 C   0  0  0  0  0  0  0  0  0  0  0  0
  -23.5938   -8.2388   22.2699 C   0  0  0  0  0  0  0  0  0  0  0  0
  -29.6097  -27.4512   19.9878 C   0  0  0  0  0  0  0  0  0  0  0  0
  -21.5793   -5.5245   22.3410 C   0  0  0  0  0  0  0  0  0  0  0  0
  -21.7638   -4.2266   22.8176 C   0  0  0  0  0  0  0  0  0  0  0  0
  -27.5347  -26.4049   20.6349 C   0  0  0  0  0  0  0  0  0  0  0  0
  -27.5734  -18.3374   20.1857 C   0  0  0  0  0  0  0  0  0  0  0  0
  -21.7315   -5.0553   25.0868 C   0  0  0  0  0  0  0  0  0  0  0  0
  -24.2112   -9.4496   20.2725 C   0  0  0  0  0  0  0  0  0  0  0  0
  -25.4532   -9.6769   18.0559 C   0  0  0  0  0  0  0  0  0  0  0  0
  -23.9112  -34.4400   23.7533 C   0  0  0  0  0  0  0  0  0  0  0  0
  -27.5352  -28.7091   19.8930 C   0  0  0  0  0  0  0  0  0  0  0  0
  -25.0595  -33.7036   23.4045 C   0  0  0  0  0  0  0  0  0  0  0  0
  -26.8317  -27.5853   20.3496 C   0  0  0  0  0  0  0  0  0  0  0  0
  -27.0291  -19.6068   20.3804 C   0  0  0  0  0  0  0  0  0  0  0  0
  -25.7608  -19.9057   19.8826 C   0  0  0  0  0  0  0  0  0  0  0  0
  -25.0369  -18.9352   19.1899 C   0  0  0  0  0  0  0  0  0  0  0  0
  -25.5813  -17.6657   18.9952 C   0  0  0  0  0  0  0  0  0  0  0  0
  -26.8495  -17.3669   19.4930 C   0  0  0  0  0  0  0  0  0  0  0  0
  -22.2457   -8.3917   21.9459 C   0  0  0  0  0  0  0  0  0  0  0  0
  -28.9163  -26.3391   20.4565 C   0  0  0  0  0  0  0  0  0  0  0  0
  -21.4710   -6.5878   23.2374 C   0  0  0  0  0  0  0  0  0  0  0  0
  -21.8399   -3.9920   24.1905 C   0  0  0  0  0  0  0  0  0  0  0  0
  -21.5470   -6.3532   24.6102 C   0  0  0  0  0  0  0  0  0  0  0  0
  -25.2268   -9.9954   19.4083 C   0  0  0  0  0  0  0  0  0  0  0  0
  -26.5223  -10.4591   17.6933 C   0  0  0  0  0  0  0  0  0  0  0  0
  -24.7591   -8.7562   17.2036 C   0  0  0  0  0  0  0  0  0  0  0  0
  -25.6180  -30.4584   21.7283 C   0  0  0  0  0  0  0  0  0  0  0  0
  -23.2847  -28.9796   20.0280 C   0  0  0  0  0  0  0  0  0  0  0  0
  -22.6315  -25.6527   18.7941 C   0  0  0  0  0  0  0  0  0  0  0  0
  -28.6696  -15.6436   19.7464 C   0  0  0  0  0  0  0  0  0  0  0  0
  -22.6562  -33.7655   24.2478 C   0  0  0  0  0  0  0  0  0  0  0  0
  -26.8046  -29.9799   19.5559 C   0  0  0  0  0  0  0  0  0  0  0  0
  -25.3393  -27.6119   20.5509 C   0  0  0  0  0  0  0  0  0  0  0  0
  -22.5957  -32.2758   23.9202 C   0  0  0  0  0  0  0  0  0  0  0  0
  -30.4220  -12.5524   19.5223 C   0  0  0  0  0  0  0  0  0  0  0  0
  -30.1194  -22.2215   18.5051 C   0  0  0  0  0  0  0  0  0  0  0  0
  -23.9213  -31.6007   24.2578 C   0  0  0  0  0  0  0  0  0  0  0  0
  -29.3096  -11.5175   19.3384 C   0  0  0  0  0  0  0  0  0  0  0  0
  -30.4090  -23.5434   19.2038 C   0  0  0  0  0  0  0  0  0  0  0  0
  -30.0017  -13.6746   20.4698 C   0  0  0  0  0  0  0  0  0  0  0  0
  -27.6244  -13.3016   19.9419 C   0  0  0  0  0  0  0  0  0  0  0  0
  -29.6305  -21.1634   19.4839 C   0  0  0  0  0  0  0  0  0  0  0  0
  -28.7156  -22.9577   20.9783 C   0  0  0  0  0  0  0  0  0  0  0  0
  -25.0679  -32.1905   23.4277 C   0  0  1  0  0  0  0  0  0  0  0  0
  -25.4653  -30.1080   20.2752 C   0  0  1  0  0  0  0  0  0  0  0  0
  -27.9776  -12.1858   18.9450 C   0  0  2  0  0  0  0  0  0  0  0  0
  -29.2046  -24.0242   20.0071 C   0  0  1  0  0  0  0  0  0  1  0  0
  -25.1805  -21.2687   20.0921 C   0  0  0  0  0  0  0  0  0  0  0  0
  -23.6765  -19.2565   18.6560 C   0  0  0  0  0  0  0  0  0  0  0  0
  -24.8032  -16.6265   18.2501 C   0  0  0  0  0  0  0  0  0  0  0  0
  -21.2844  -24.8787   16.8234 C   0  0  0  0  0  0  0  0  0  0  0  0
  -21.0193  -28.7019   22.0530 C   0  0  0  0  0  0  0  0  0  0  0  0
  -20.3052  -26.6177   20.8638 C   0  0  0  0  0  0  0  0  0  0  0  0
  -20.2784  -28.8061   19.6667 C   0  0  0  0  0  0  0  0  0  0  0  0
  -24.9193  -24.1453   17.6751 C   0  0  0  0  0  0  0  0  0  0  0  0
  -27.8299  -20.6337   21.1255 C   0  0  0  0  0  0  0  0  0  0  0  0
  -22.4939  -27.7031   20.1838 C   0  0  1  0  0  0  0  0  0  0  0  0
  -22.6766  -25.1948   17.3475 C   0  0  2  0  0  0  0  0  0  0  0  0
  -21.0506  -27.9597   20.7021 C   0  0  0  0  0  0  0  0  0  0  0  0
  -26.0833  -10.9086   19.8734 N   0  0  0  0  0  0  0  0  0  0  0  0
  -26.8584  -11.1707   18.8072 N   0  0  0  0  0  0  0  0  0  0  0  0
  -24.6709  -28.8795   20.2134 N   0  0  0  0  0  0  0  0  0  0  0  0
  -28.7342  -14.2634   20.0319 N   0  0  0  0  0  0  0  0  0  0  0  0
  -27.1984  -10.6008   16.5334 N   0  0  0  0  0  0  0  0  0  0  0  0
  -23.6834   -8.0331   17.7368 N   0  0  0  0  0  0  0  0  0  0  0  0
  -27.4213  -16.0837   19.3075 N   0  0  0  0  0  0  0  0  0  0  0  0
  -25.0397  -31.6630   22.0803 N   0  0  0  0  0  0  0  0  0  0  0  0
  -22.5537  -27.0258   18.8930 N   0  0  0  0  0  0  0  0  0  0  0  0
  -28.4232  -21.6838   20.2271 N   0  3  2  0  0  0  0  0  0  0  0  0
  -23.5168  -23.9708   17.2176 N   0  3  0  0  0  0  0  0  0  0  0  0
  -25.0936   -8.5680   16.0094 O   0  0  0  0  0  0  0  0  0  0  0  0
  -26.2150  -29.6919   22.4751 O   0  0  0  0  0  0  0  0  0  0  0  0
  -22.6952  -30.0255   19.7449 O   0  0  0  0  0  0  0  0  0  0  0  0
  -22.6585  -24.8703   19.7416 O   0  0  0  0  0  0  0  0  0  0  0  0
  -29.6565  -16.3758   19.8553 O   0  0  0  0  0  0  0  0  0  0  0  0
  -21.2870   -7.8756   22.7627 O   0  0  0  0  0  0  0  0  0  0  0  0
  -29.5848  -25.1872   20.7357 O   0  0  0  0  0  0  0  0  0  1  0  0
  -22.0155   -2.7454   24.6480 F   0  0  0  0  0  0  0  0  0  0  0  0
  -21.4424   -7.3705   25.4762 F   0  0  0  0  0  0  0  0  0  0  0  0
  1  2  1  0  0  0  0
  1  5  2  0  0  0  0
  2  6  2  0  0  0  0
  3  8  2  0  0  0  0
  3 16  1  0  0  0  0
  4  9  1  0  0  0  0
  4 16  2  0  0  0  0
  5 18  1  0  0  0  0
  6 20  1  0  0  0  0
  7 10  2  0  0  0  0
  7 19  1  0  0  0  0
  8 27  1  0  0  0  0
  9 27  2  0  0  0  0
 10 28  1  0  0  0  0
 11 12  2  0  0  0  0
 11 29  1  0  0  0  0
 12 30  1  0  0  0  0
 13 21  1  0  0  0  0
 13 28  2  0  0  0  0
 14 22  1  0  0  0  0
 14 26  2  0  0  0  0
 15 30  2  0  0  0  0
 15 31  1  0  0  0  0
 16 32  1  0  0  0  0
 17 32  1  0  0  0  0
 17 33  2  0  0  0  0
 17 34  1  0  0  0  0
 18 20  2  0  0  0  0
 18 39  1  0  0  0  0
 19 21  2  0  0  0  0
 19 40  1  0  0  0  0
 20 52  1  0  0  0  0
 21 41  1  0  0  0  0
 22 23  2  0  0  0  0
 22 64  1  0  0  0  0
 23 24  1  0  0  0  0
 23 56  1  0  0  0  0
 24 25  2  0  0  0  0
 24 57  1  0  0  0  0
 25 26  1  0  0  0  0
 25 58  1  0  0  0  0
 26 74  1  0  0  0  0
 27 84  1  0  0  0  0
 28 85  1  0  0  0  0
 29 31  2  0  0  0  0
 29 84  1  0  0  0  0
 30 86  1  0  0  0  0
 31 87  1  0  0  0  0
 32 68  2  0  0  0  0
 33 69  1  0  0  0  0
 33 72  1  0  0  0  0
 34 73  1  0  0  0  0
 34 79  2  0  0  0  0
 35 53  1  0  0  0  0
 35 75  1  0  0  0  0
 35 80  2  0  0  0  0
 36 65  1  0  0  0  0
 36 70  1  0  0  0  0
 36 81  2  0  0  0  0
 37 66  1  0  0  0  0
 37 76  1  0  0  0  0
 37 82  2  0  0  0  0
 38 71  1  0  0  0  0
 38 74  1  0  0  0  0
 38 83  2  0  0  0  0
 39 42  1  0  0  0  0
 40 53  1  0  0  0  0
 41 70  1  0  0  0  0
 42 45  1  0  0  0  0
 43 46  1  0  0  0  0
 43 48  1  0  0  0  0
 44 47  1  0  0  0  0
 44 50  1  0  0  0  0
 45 52  1  0  0  0  0
 46 54  1  0  0  0  0
 47 55  1  0  0  0  0
 48 71  1  0  0  0  0
 49 54  1  0  0  0  0
 49 71  1  0  0  0  0
 50 77  1  0  0  0  0
 51 55  1  0  0  0  0
 51 77  1  0  0  0  0
 52 75  1  0  0  0  0
 53 70  1  0  0  0  0
 54 69  1  0  0  0  0
 55 85  1  0  0  0  0
 59 66  1  0  0  0  0
 60 67  1  0  0  0  0
 61 67  1  0  0  0  0
 62 67  1  0  0  0  0
 63 78  1  0  0  0  0
 64 77  1  0  0  0  0
 65 67  1  0  0  0  0
 65 76  1  0  0  0  0
 66 78  1  0  0  0  0
 68 69  1  0  0  0  0
M  CHG  2  77   1  78   1
M  ISO  4  38 100  55 101  74 100  85 101
M  END
> <Batch ID>
0036

> <Smiles>
CNC(C)C(=O)NC(C(=O)N1Cc2cc([101O:1][101CH:1]3CCCN(Cc4cc([100NH:0][100C:0](=O)N5CCCC(n6nc(-c7ccc(Oc8ccc(F)cc8F)cc7)c(C(N)=O)c6N)C5)c(C)c(C)c4C)C3)ccc2CC1C(=O)NC1CCCc2ccccc21)C(C)(C)C

> <Shape>
0.332

> <Color>
0.078

> <Negative vol penalty>
0.000

$$$$

  -OEChem-04042321543D

 85 93  0     1  0  0  0  0  0999 V2000
  -28.0310  -11.5787   18.6138 C   0  0  0  0  0  0  0  0  0  0  0  0
  -27.5763  -12.6358   17.8320 C   0  0  0  0  0  0  0  0  0  0  0  0
  -28.8981  -25.3726   19.4173 C   0  0  0  0  0  0  0  0  0  0  0  0
  -26.9172  -24.0187   19.7005 C   0  0  0  0  0  0  0  0  0  0  0  0
  -27.4217  -11.3060   19.8379 C   0  0  0  0  0  0  0  0  0  0  0  0
  -26.5112  -13.4202   18.2734 C   0  0  0  0  0  0  0  0  0  0  0  0
  -24.0532  -20.1444   18.0294 C   0  0  0  0  0  0  0  0  0  0  0  0
  -29.6930  -24.2856   19.7806 C   0  0  0  0  0  0  0  0  0  0  0  0
  -27.7122  -22.9316   20.0638 C   0  0  0  0  0  0  0  0  0  0  0  0
  -22.9010  -20.8588   17.7043 C   0  0  0  0  0  0  0  0  0  0  0  0
  -29.6186  -20.6130   18.5113 C   0  0  0  0  0  0  0  0  0  0  0  0
  -29.3189  -19.3746   17.9439 C   0  0  0  0  0  0  0  0  0  0  0  0
  -21.9771  -20.3438   19.8723 C   0  0  0  0  0  0  0  0  0  0  0  0
  -19.2840  -26.5788   23.5311 C   0  0  0  0  0  0  0  0  0  0  0  0
  -28.9385  -18.4574   20.1465 C   0  0  0  0  0  0  0  0  0  0  0  0
  -27.5102  -25.2392   19.3773 C   0  0  0  0  0  0  0  0  0  0  0  0
  -26.2648  -26.7102   17.7061 C   0  0  0  0  0  0  0  0  0  0  0  0
  -26.3549  -12.0934   20.2989 C   0  0  0  0  0  0  0  0  0  0  0  0
  -24.1717  -19.5141   19.2765 C   0  0  0  0  0  0  0  0  0  0  0  0
  -25.8862  -13.1569   19.5041 C   0  0  0  0  0  0  0  0  0  0  0  0
  -23.1329  -19.6241   20.2118 C   0  0  0  0  0  0  0  0  0  0  0  0
  -19.7376  -27.4054   22.5032 C   0  0  0  0  0  0  0  0  0  0  0  0
  -19.6238  -26.9936   21.1754 C   0  0  0  0  0  0  0  0  0  0  0  0
  -19.0564  -25.7551   20.8755 C   0  0  0  0  0  0  0  0  0  0  0  0
  -18.6028  -24.9285   21.9034 C   0  0  0  0  0  0  0  0  0  0  0  0
  -29.1001  -23.0651   20.1038 C   0  0  0  0  0  0  0  0  0  0  0  0
  -21.8615  -20.9562   18.6247 C   0  0  0  0  0  0  0  0  0  0  0  0
  -29.5784  -20.7737   19.8964 C   0  0  0  0  0  0  0  0  0  0  0  0
  -28.9788  -18.2968   18.7614 C   0  0  0  0  0  0  0  0  0  0  0  0
  -29.2383  -19.6959   20.7139 C   0  0  0  0  0  0  0  0  0  0  0  0
  -18.7166  -25.3403   23.2312 C   0  0  0  0  0  0  0  0  0  0  0  0
  -26.6884  -26.3619   19.0027 C   0  0  0  0  0  0  0  0  0  0  0  0
  -25.5130  -27.8458   17.8840 C   0  0  0  0  0  0  0  0  0  0  0  0
  -26.5273  -26.0648   16.4530 C   0  0  0  0  0  0  0  0  0  0  0  0
  -24.5135  -16.5063   20.2461 C   0  0  0  0  0  0  0  0  0  0  0  0
  -24.8506  -17.8939   23.1587 C   0  0  0  0  0  0  0  0  0  0  0  0
  -24.2337  -20.5733   25.1802 C   0  0  0  0  0  0  0  0  0  0  0  0
  -22.4409  -30.0136   22.5438 C   0  0  0  0  0  0  0  0  0  0  0  0
  -25.6973  -11.7309   21.6069 C   0  0  0  0  0  0  0  0  0  0  0  0
  -25.4322  -18.7696   19.6220 C   0  0  0  0  0  0  0  0  0  0  0  0
  -23.2192  -18.9828   21.5719 C   0  0  0  0  0  0  0  0  0  0  0  0
  -24.8184  -12.8420   22.1753 C   0  0  0  0  0  0  0  0  0  0  0  0
  -25.0748  -31.6313   20.7769 C   0  0  0  0  0  0  0  0  0  0  0  0
  -23.9192  -13.4207   21.0875 C   0  0  0  0  0  0  0  0  0  0  0  0
  -25.7488  -30.4957   20.0048 C   0  0  0  0  0  0  0  0  0  0  0  0
  -24.5952  -31.1720   22.1520 C   0  0  0  0  0  0  0  0  0  0  0  0
  -24.4012  -28.8440   21.3667 C   0  0  0  0  0  0  0  0  0  0  0  0
  -24.7496  -14.0459   19.9601 C   0  0  1  0  0  0  0  0  0  0  0  0
  -25.2319  -17.7357   20.7258 C   0  0  1  0  0  0  0  0  0  0  0  0
  -24.8519  -29.2444   19.9514 C   0  0  2  0  0  0  0  0  0  0  0  0
  -20.1115  -27.8824   20.0752 C   0  0  0  0  0  0  0  0  0  0  0  0
  -17.9958  -23.6014   21.5669 C   0  0  0  0  0  0  0  0  0  0  0  0
  -24.3525  -22.0242   27.2243 C   0  0  0  0  0  0  0  0  0  0  0  0
  -22.6411  -16.0419   24.1579 C   0  0  0  0  0  0  0  0  0  0  0  0
  -22.3978  -17.5263   26.1593 C   0  0  0  0  0  0  0  0  0  0  0  0
  -24.5514  -16.3376   25.7446 C   0  0  0  0  0  0  0  0  0  0  0  0
  -26.6730  -21.9400   24.2103 C   0  0  0  0  0  0  0  0  0  0  0  0
  -20.3412  -28.7266   22.8510 C   0  0  0  0  0  0  0  0  0  0  0  0
  -18.9344  -25.3139   19.4467 C   0  0  0  0  0  0  0  0  0  0  0  0
  -19.7969  -23.7746   17.6788 C   0  0  0  0  0  0  0  0  0  0  0  0
  -20.8810  -22.7498   17.4092 C   0  0  0  0  0  0  0  0  0  1  0  0
  -23.9086  -18.2884   24.2704 C   0  0  1  0  0  0  0  0  0  0  0  0
  -25.1406  -21.3718   26.0991 C   0  0  2  0  0  0  0  0  0  0  0  0
  -23.3720  -17.0591   25.0568 C   0  0  0  0  0  0  0  0  0  0  0  0
  -26.2429  -27.2079   19.9353 N   0  0  0  0  0  0  0  0  0  0  0  0
  -25.5316  -28.0990   19.2240 N   0  0  0  0  0  0  0  0  0  0  0  0
  -24.4692  -18.2606   21.8603 N   0  0  0  0  0  0  0  0  0  0  0  0
  -23.7482  -29.9829   22.0311 N   0  0  0  0  0  0  0  0  0  0  0  0
  -24.8446  -28.6425   17.0233 N   0  0  0  0  0  0  0  0  0  0  0  0
  -27.3185  -24.9080   16.4501 N   0  0  0  0  0  0  0  0  0  0  0  0
  -25.2506  -15.3431   20.3611 N   0  0  0  0  0  0  0  0  0  0  0  0
  -24.6288  -19.2553   25.0919 N   0  0  0  0  0  0  0  0  0  0  0  0
  -21.7036  -28.8470   22.3819 N   0  0  0  0  0  0  0  0  0  0  0  0
  -25.8408  -22.4419   25.3339 N   0  3  0  0  0  0  0  0  0  0  0  0
  -19.9307  -24.2750   19.0702 N   0  3  0  0  0  0  0  0  0  0  0  0
  -26.0873  -26.5104   15.3661 O   0  0  0  0  0  0  0  0  0  0  0  0
  -23.3743  -16.6054   19.8057 O   0  0  0  0  0  0  0  0  0  0  0  0
  -25.8901  -17.2891   23.4330 O   0  0  0  0  0  0  0  0  0  0  0  0
  -23.2689  -21.0684   24.6018 O   0  0  0  0  0  0  0  0  0  0  0  0
  -21.9640  -31.0089   23.0996 O   0  0  0  0  0  0  0  0  0  0  0  0
  -29.8755  -22.0040   20.4581 O   0  0  0  0  0  0  0  0  0  0  0  0
  -20.7355  -21.6524   18.3096 O   0  0  0  0  0  0  0  0  0  1  0  0
  -28.6894  -17.1080   18.2163 F   0  0  0  0  0  0  0  0  0  0  0  0
  -29.1968  -19.8445   22.0451 F   0  0  0  0  0  0  0  0  0  0  0  0
  -18.1667  -24.3474   24.5325 Cl  0  0  0  0  0  0  0  0  0  0  0  0
  1  2  1  0  0  0  0
  1  5  2  0  0  0  0
  2  6  2  0  0  0  0
  3  8  2  0  0  0  0
  3 16  1  0  0  0  0
  4  9  1  0  0  0  0
  4 16  2  0  0  0  0
  5 18  1  0  0  0  0
  6 20  1  0  0  0  0
  7 10  2  0  0  0  0
  7 19  1  0  0  0  0
  8 26  1  0  0  0  0
  9 26  2  0  0  0  0
 10 27  1  0  0  0  0
 11 12  2  0  0  0  0
 11 28  1  0  0  0  0
 12 29  1  0  0  0  0
 13 21  1  0  0  0  0
 13 27  2  0  0  0  0
 14 22  2  0  0  0  0
 14 31  1  0  0  0  0
 15 29  2  0  0  0  0
 15 30  1  0  0  0  0
 16 32  1  0  0  0  0
 17 32  1  0  0  0  0
 17 33  2  0  0  0  0
 17 34  1  0  0  0  0
 18 20  2  0  0  0  0
 18 39  1  0  0  0  0
 19 21  2  0  0  0  0
 19 40  1  0  0  0  0
 20 48  1  0  0  0  0
 21 41  1  0  0  0  0
 22 23  1  0  0  0  0
 22 58  1  0  0  0  0
 23 24  2  0  0  0  0
 23 51  1  0  0  0  0
 24 25  1  0  0  0  0
 24 59  1  0  0  0  0
 25 31  2  0  0  0  0
 25 52  1  0  0  0  0
 26 81  1  0  0  0  0
 27 82  1  0  0  0  0
 28 30  2  0  0  0  0
 28 81  1  0  0  0  0
 29 83  1  0  0  0  0
 30 84  1  0  0  0  0
 31 85  1  0  0  0  0
 32 65  2  0  0  0  0
 33 66  1  0  0  0  0
 33 69  1  0  0  0  0
 34 70  1  0  0  0  0
 34 76  2  0  0  0  0
 35 49  1  0  0  0  0
 35 71  1  0  0  0  0
 35 77  2  0  0  0  0
 36 62  1  0  0  0  0
 36 67  1  0  0  0  0
 36 78  2  0  0  0  0
 37 63  1  0  0  0  0
 37 72  1  0  0  0  0
 37 79  2  0  0  0  0
 38 68  1  0  0  0  0
 38 73  1  0  0  0  0
 38 80  2  0  0  0  0
 39 42  1  0  0  0  0
 40 49  1  0  0  0  0
 41 67  1  0  0  0  0
 42 44  1  0  0  0  0
 43 45  1  0  0  0  0
 43 46  1  0  0  0  0
 44 48  1  0  0  0  0
 45 50  1  0  0  0  0
 46 68  1  0  0  0  0
 47 50  1  0  0  0  0
 47 68  1  0  0  0  0
 48 71  1  0  0  0  0
 49 67  1  0  0  0  0
 50 66  1  0  0  0  0
 53 63  1  0  0  0  0
 54 64  1  0  0  0  0
 55 64  1  0  0  0  0
 56 64  1  0  0  0  0
 57 74  1  0  0  0  0
 58 73  1  0  0  0  0
 59 75  1  0  0  0  0
 60 61  1  0  0  0  0
 60 75  1  0  0  0  0
 61 82  1  0  0  0  0
 62 64  1  0  0  0  0
 62 72  1  0  0  0  0
 63 74  1  0  0  0  0
 65 66  1  0  0  0  0
M  CHG  2  74   1  75   1
M  ISO  4  38 100  61 101  73 100  82 101
M  END
> <Batch ID>
0036

> <Smiles>
CNC(C)C(=O)NC(C(=O)N1Cc2cc([101O:1][101CH2:1]CNCc3c(C)c(Cl)cc(C[100NH:0][100C:0](=O)N4CCCC(n5nc(-c6ccc(Oc7ccc(F)cc7F)cc6)c(C(N)=O)c5N)C4)c3C)ccc2CC1C(=O)NC1CCCc2ccccc21)C(C)(C)C

> <Shape>
0.219

> <Color>
0.074

> <Negative vol penalty>
0.000

$$$$

  -OEChem-04042321543D

 88 97  0     1  0  0  0  0  0999 V2000
  -24.4511  -36.0458   17.7535 C   0  0  0  0  0  0  0  0  0  0  0  0
  -25.1995  -35.0036   18.2912 C   0  0  0  0  0  0  0  0  0  0  0  0
  -24.0927   -9.1954   21.0575 C   0  0  0  0  0  0  0  0  0  0  0  0
  -25.4643   -9.8282   22.9430 C   0  0  0  0  0  0  0  0  0  0  0  0
  -23.4054  -36.6030   18.4883 C   0  0  0  0  0  0  0  0  0  0  0  0
  -24.9033  -34.5187   19.5646 C   0  0  0  0  0  0  0  0  0  0  0  0
  -24.8735  -29.4584   19.7582 C   0  0  0  0  0  0  0  0  0  0  0  0
  -23.8845   -7.9407   21.6300 C   0  0  0  0  0  0  0  0  0  0  0  0
  -25.2560   -8.5735   23.5157 C   0  0  0  0  0  0  0  0  0  0  0  0
  -26.1098  -28.8159   19.8090 C   0  0  0  0  0  0  0  0  0  0  0  0
  -21.9518   -6.6010   24.0596 C   0  0  0  0  0  0  0  0  0  0  0  0
  -20.6518   -6.0954   24.0579 C   0  0  0  0  0  0  0  0  0  0  0  0
  -25.8616  -28.5398   22.1925 C   0  0  0  0  0  0  0  0  0  0  0  0
  -27.4096  -21.0422   22.1425 C   0  0  0  0  0  0  0  0  0  0  0  0
  -21.3937   -4.1926   22.7670 C   0  0  0  0  0  0  0  0  0  0  0  0
  -24.8827  -10.1392   21.7140 C   0  0  0  0  0  0  0  0  0  0  0  0
  -24.1209  -12.3932   20.7938 C   0  0  0  0  0  0  0  0  0  0  0  0
  -23.0900  -36.1182   19.7675 C   0  0  0  0  0  0  0  0  0  0  0  0
  -24.1258  -29.6565   20.9278 C   0  0  0  0  0  0  0  0  0  0  0  0
  -23.8532  -35.0709   20.3178 C   0  0  0  0  0  0  0  0  0  0  0  0
  -24.6150  -29.1829   22.1535 C   0  0  0  0  0  0  0  0  0  0  0  0
  -27.4972  -21.8029   20.9766 C   0  0  0  0  0  0  0  0  0  0  0  0
  -27.5852  -19.6595   22.0880 C   0  0  0  0  0  0  0  0  0  0  0  0
  -27.7602  -21.1809   19.7562 C   0  0  0  0  0  0  0  0  0  0  0  0
  -27.9358  -19.7981   19.7016 C   0  0  0  0  0  0  0  0  0  0  0  0
  -27.8482  -19.0375   20.8675 C   0  0  0  0  0  0  0  0  0  0  0  0
  -24.4661   -7.6297   22.8591 C   0  0  0  0  0  0  0  0  0  0  0  0
  -26.6054  -28.3591   21.0267 C   0  0  0  0  0  0  0  0  0  0  0  0
  -22.9727   -5.9026   23.4150 C   0  0  0  0  0  0  0  0  0  0  0  0
  -20.3728   -4.8912   23.4116 C   0  0  0  0  0  0  0  0  0  0  0  0
  -22.6937   -4.6984   22.7687 C   0  0  0  0  0  0  0  0  0  0  0  0
  -25.0987  -11.4353   21.1227 C   0  0  0  0  0  0  0  0  0  0  0  0
  -24.8323  -13.4422   20.2645 C   0  0  0  0  0  0  0  0  0  0  0  0
  -28.3412  -25.4205   20.5342 C   0  0  0  0  0  0  0  0  0  0  0  0
  -28.6080  -25.7266   19.2537 C   0  0  0  0  0  0  0  0  0  0  0  0
  -22.6970  -12.3397   20.9527 C   0  0  0  0  0  0  0  0  0  0  0  0
  -23.0721  -32.2026   22.5124 C   0  0  0  0  0  0  0  0  0  0  0  0
  -21.5594  -29.9701   24.3151 C   0  0  0  0  0  0  0  0  0  0  0  0
  -22.3495  -26.7410   25.7174 C   0  0  0  0  0  0  0  0  0  0  0  0
  -29.1605  -16.9431   20.3799 C   0  0  0  0  0  0  0  0  0  0  0  0
  -21.9809  -36.7840   20.5430 C   0  0  0  0  0  0  0  0  0  0  0  0
  -22.7818  -30.3276   20.8522 C   0  0  0  0  0  0  0  0  0  0  0  0
  -23.8418  -29.3526   23.4349 C   0  0  0  0  0  0  0  0  0  0  0  0
  -21.4916  -35.9625   21.7330 C   0  0  0  0  0  0  0  0  0  0  0  0
  -29.6890  -13.7601   18.8744 C   0  0  0  0  0  0  0  0  0  0  0  0
  -28.9001  -24.9045   23.2984 C   0  0  0  0  0  0  0  0  0  0  0  0
  -22.6739  -35.4311   22.5371 C   0  0  0  0  0  0  0  0  0  0  0  0
  -28.6963  -26.3393   22.8251 C   0  0  0  0  0  0  0  0  0  0  0  0
  -28.4615  -12.9503   19.2980 C   0  0  0  0  0  0  0  0  0  0  0  0
  -30.1573  -14.7018   19.9824 C   0  0  0  0  0  0  0  0  0  0  0  0
  -27.8918  -14.7788   20.9471 C   0  0  0  0  0  0  0  0  0  0  0  0
  -29.4573  -24.0243   22.1844 C   0  0  0  0  0  0  0  0  0  0  0  0
  -23.5467  -34.5010   21.6858 C   0  0  1  0  0  0  0  0  0  0  0  0
  -27.8272  -26.3954   21.5696 C   0  0  1  0  0  0  0  0  0  1  0  0
  -22.3404  -30.9327   22.1813 C   0  0  1  0  0  0  0  0  0  0  0  0
  -27.3440  -13.8630   19.8403 C   0  0  2  0  0  0  0  0  0  0  0  0
  -27.4867  -18.8719   23.3544 C   0  0  0  0  0  0  0  0  0  0  0  0
  -27.8534  -21.9997   18.5076 C   0  0  0  0  0  0  0  0  0  0  0  0
  -28.2177  -19.1355   18.3892 C   0  0  0  0  0  0  0  0  0  0  0  0
  -20.8585  -24.8134   26.3163 C   0  0  0  0  0  0  0  0  0  0  0  0
  -21.5612  -31.2106   27.1027 C   0  0  0  0  0  0  0  0  0  0  0  0
  -21.6365  -28.8969   28.0563 C   0  0  0  0  0  0  0  0  0  0  0  0
  -19.6869  -29.6113   26.6737 C   0  0  0  0  0  0  0  0  0  0  0  0
  -23.8976  -24.8682   24.0278 C   0  0  0  0  0  0  0  0  0  0  0  0
  -27.3058  -23.2885   21.0632 C   0  0  0  0  0  0  0  0  0  0  0  0
  -21.9101  -29.1769   25.5508 C   0  0  1  0  0  0  0  0  0  0  0  0
  -21.7985  -25.3980   25.2734 C   0  0  2  0  0  0  0  0  0  0  0  0
  -21.2187  -29.7327   26.8277 C   0  0  0  0  0  0  0  0  0  0  0  0
  -26.3368  -11.8397   20.8270 N   0  0  0  0  0  0  0  0  0  0  0  0
  -26.1418  -13.0634   20.3066 N   0  0  0  0  0  0  0  0  0  0  0  0
  -22.5359  -30.0207   23.3101 N   0  0  0  0  0  0  0  0  0  0  0  0
  -29.0470  -15.5381   20.4436 N   0  0  0  0  0  0  0  0  0  0  0  0
  -24.4591  -14.6423   19.7718 N   0  0  0  0  0  0  0  0  0  0  0  0
  -22.1401  -12.8094   22.1501 N   0  0  0  0  0  0  0  0  0  0  0  0
  -28.0296  -17.6332   20.8153 N   0  0  0  0  0  0  0  0  0  0  0  0
  -22.9283  -33.1981   21.5649 N   0  0  0  0  0  0  0  0  0  0  0  0
  -21.5823  -27.7874   25.2506 N   0  0  0  0  0  0  0  0  0  0  0  0
  -28.5935  -24.0564   20.9447 N   0  3  1  0  0  0  0  0  0  0  0  0
  -22.9099  -24.4311   25.0478 N   0  3  0  0  0  0  0  0  0  0  0  0
  -21.9421  -11.8736   20.0659 O   0  0  0  0  0  0  0  0  0  0  0  0
  -23.7181  -32.2745   23.5512 O   0  0  0  0  0  0  0  0  0  0  0  0
  -20.4569  -30.5184   24.2410 O   0  0  0  0  0  0  0  0  0  0  0  0
  -23.3573  -26.8508   26.4122 O   0  0  0  0  0  0  0  0  0  0  0  0
  -30.1750  -17.4931   19.9438 O   0  0  0  0  0  0  0  0  0  0  0  0
  -24.2629   -6.4055   23.4183 O   0  0  0  0  0  0  0  0  0  0  0  0
  -27.8121  -27.7322   21.0792 O   0  0  0  0  0  0  0  0  0  1  0  0
  -19.1247   -4.4049   23.4113 F   0  0  0  0  0  0  0  0  0  0  0  0
  -23.6705   -4.0222   22.1487 F   0  0  0  0  0  0  0  0  0  0  0  0
  1  2  1  0  0  0  0
  1  5  2  0  0  0  0
  2  6  2  0  0  0  0
  3  8  2  0  0  0  0
  3 16  1  0  0  0  0
  4  9  1  0  0  0  0
  4 16  2  0  0  0  0
  5 18  1  0  0  0  0
  6 20  1  0  0  0  0
  7 10  2  0  0  0  0
  7 19  1  0  0  0  0
  8 27  1  0  0  0  0
  9 27  2  0  0  0  0
 10 28  1  0  0  0  0
 11 12  2  0  0  0  0
 11 29  1  0  0  0  0
 12 30  1  0  0  0  0
 13 21  1  0  0  0  0
 13 28  2  0  0  0  0
 14 22  1  0  0  0  0
 14 23  2  0  0  0  0
 15 30  2  0  0  0  0
 15 31  1  0  0  0  0
 16 32  1  0  0  0  0
 17 32  1  0  0  0  0
 17 33  2  0  0  0  0
 17 36  1  0  0  0  0
 18 20  2  0  0  0  0
 18 41  1  0  0  0  0
 19 21  2  0  0  0  0
 19 42  1  0  0  0  0
 20 53  1  0  0  0  0
 21 43  1  0  0  0  0
 22 24  2  0  0  0  0
 22 65  1  0  0  0  0
 23 26  1  0  0  0  0
 23 57  1  0  0  0  0
 24 25  1  0  0  0  0
 24 58  1  0  0  0  0
 25 26  2  0  0  0  0
 25 59  1  0  0  0  0
 26 75  1  0  0  0  0
 27 85  1  0  0  0  0
 28 86  1  0  0  0  0
 29 31  2  0  0  0  0
 29 85  1  0  0  0  0
 30 87  1  0  0  0  0
 31 88  1  0  0  0  0
 32 69  2  0  0  0  0
 33 70  1  0  0  0  0
 33 73  1  0  0  0  0
 34 35  2  0  0  0  0
 34 54  1  0  0  0  0
 34 78  1  0  0  0  0
 36 74  1  0  0  0  0
 36 80  2  0  0  0  0
 37 55  1  0  0  0  0
 37 76  1  0  0  0  0
 37 81  2  0  0  0  0
 38 66  1  0  0  0  0
 38 71  1  0  0  0  0
 38 82  2  0  0  0  0
 39 67  1  0  0  0  0
 39 77  1  0  0  0  0
 39 83  2  0  0  0  0
 40 72  1  0  0  0  0
 40 75  1  0  0  0  0
 40 84  2  0  0  0  0
 41 44  1  0  0  0  0
 42 55  1  0  0  0  0
 43 71  1  0  0  0  0
 44 47  1  0  0  0  0
 45 49  1  0  0  0  0
 45 50  1  0  0  0  0
 46 48  1  0  0  0  0
 46 52  1  0  0  0  0
 47 53  1  0  0  0  0
 48 54  1  0  0  0  0
 49 56  1  0  0  0  0
 50 72  1  0  0  0  0
 51 56  1  0  0  0  0
 51 72  1  0  0  0  0
 52 78  1  0  0  0  0
 53 76  1  0  0  0  0
 54 86  1  0  0  0  0
 55 71  1  0  0  0  0
 56 70  1  0  0  0  0
 60 67  1  0  0  0  0
 61 68  1  0  0  0  0
 62 68  1  0  0  0  0
 63 68  1  0  0  0  0
 64 79  1  0  0  0  0
 65 78  1  0  0  0  0
 66 68  1  0  0  0  0
 66 77  1  0  0  0  0
 67 79  1  0  0  0  0
 69 70  1  0  0  0  0
M  CHG  2  78   1  79   1
M  ISO  4  40 100  54 101  75 100  86 101
M  END
> <Batch ID>
0036

> <Smiles>
C=C1N(Cc2cc(C)c([100NH:0][100C:0](=O)N3CCCC(n4nc(-c5ccc(Oc6ccc(F)cc6F)cc5)c(C(N)=O)c4N)C3)c(C)c2C)CCC[101CH:1]1[101O:1]c1ccc2c(c1)CN(C(=O)C(NC(=O)C(C)NC)C(C)(C)C)C(C(=O)NC1CCCc3ccccc31)C2

> <Shape>
0.258

> <Color>
0.128

> <Negative vol penalty>
0.000

$$$$

  -OEChem-04042321543D

 91100  0     1  0  0  0  0  0999 V2000
  -28.2853  -32.6886   26.0910 C   0  0  0  0  0  0  0  0  0  0  0  0
  -28.4633  -31.3883   25.6296 C   0  0  0  0  0  0  0  0  0  0  0  0
  -23.0986   -9.5853   19.7166 C   0  0  0  0  0  0  0  0  0  0  0  0
  -24.6111   -9.0577   21.5252 C   0  0  0  0  0  0  0  0  0  0  0  0
  -27.0253  -33.2825   26.0298 C   0  0  0  0  0  0  0  0  0  0  0  0
  -27.3810  -30.6806   25.1076 C   0  0  0  0  0  0  0  0  0  0  0  0
  -28.5395  -28.2406   20.8240 C   0  0  0  0  0  0  0  0  0  0  0  0
  -22.0280   -9.1084   20.4728 C   0  0  0  0  0  0  0  0  0  0  0  0
  -23.5405   -8.5809   22.2815 C   0  0  0  0  0  0  0  0  0  0  0  0
  -29.2523  -27.0483   20.9432 C   0  0  0  0  0  0  0  0  0  0  0  0
  -21.2574   -6.8926   24.5502 C   0  0  0  0  0  0  0  0  0  0  0  0
  -21.4272   -5.6830   25.2237 C   0  0  0  0  0  0  0  0  0  0  0  0
  -27.2052  -25.8034   20.6632 C   0  0  0  0  0  0  0  0  0  0  0  0
  -27.3540  -18.5447   19.4154 C   0  0  0  0  0  0  0  0  0  0  0  0
  -21.8274   -4.5669   23.1187 C   0  0  0  0  0  0  0  0  0  0  0  0
  -24.3902   -9.5599   20.2427 C   0  0  0  0  0  0  0  0  0  0  0  0
  -25.9319   -9.5761   18.2104 C   0  0  0  0  0  0  0  0  0  0  0  0
  -25.9292  -32.5852   25.4979 C   0  0  0  0  0  0  0  0  0  0  0  0
  -27.1502  -28.2233   20.6341 C   0  0  0  0  0  0  0  0  0  0  0  0
  -26.1049  -31.2652   25.0404 C   0  0  0  0  0  0  0  0  0  0  0  0
  -26.4774  -26.9967   20.5393 C   0  0  0  0  0  0  0  0  0  0  0  0
  -26.7447  -19.7985   19.3669 C   0  0  0  0  0  0  0  0  0  0  0  0
  -25.5507  -19.9670   18.6659 C   0  0  0  0  0  0  0  0  0  0  0  0
  -24.9658  -18.8818   18.0133 C   0  0  0  0  0  0  0  0  0  0  0  0
  -26.7692  -17.4594   18.7628 C   0  0  0  0  0  0  0  0  0  0  0  0
  -22.2489   -8.6063   21.7553 C   0  0  0  0  0  0  0  0  0  0  0  0
  -28.5848  -25.8295   20.8657 C   0  0  0  0  0  0  0  0  0  0  0  0
  -21.3725   -6.9393   23.1608 C   0  0  0  0  0  0  0  0  0  0  0  0
  -21.7123   -4.5202   24.5080 C   0  0  0  0  0  0  0  0  0  0  0  0
  -21.6575   -5.7765   22.4451 C   0  0  0  0  0  0  0  0  0  0  0  0
  -25.5751  -17.6279   18.0618 C   0  0  0  0  0  0  0  0  0  0  0  0
  -25.4967  -10.0518   19.4618 C   0  0  0  0  0  0  0  0  0  0  0  0
  -27.0077  -10.3702   17.8965 C   0  0  0  0  0  0  0  0  0  0  0  0
  -29.3639  -22.3288   20.3353 C   0  0  0  0  0  0  0  0  0  0  0  0
  -30.8169  -20.2567   22.9961 C   0  0  0  0  0  0  0  0  0  0  0  0
  -30.0276  -21.9737   21.4511 C   0  0  0  0  0  0  0  0  0  0  0  0
  -30.1572  -20.6089   21.8869 C   0  0  0  0  0  0  0  0  0  0  0  0
  -25.4104   -8.5117   17.4038 C   0  0  0  0  0  0  0  0  0  0  0  0
  -24.6479  -29.2888   22.2793 C   0  0  0  0  0  0  0  0  0  0  0  0
  -23.0056  -28.3327   19.6505 C   0  0  0  0  0  0  0  0  0  0  0  0
  -23.0539  -25.5170   17.3950 C   0  0  0  0  0  0  0  0  0  0  0  0
  -28.6054  -15.9002   19.5000 C   0  0  0  0  0  0  0  0  0  0  0  0
  -24.5763  -33.2519   25.4959 C   0  0  0  0  0  0  0  0  0  0  0  0
  -26.3996  -29.5177   20.4807 C   0  0  0  0  0  0  0  0  0  0  0  0
  -24.9897  -26.9235   20.3159 C   0  0  0  0  0  0  0  0  0  0  0  0
  -23.5615  -32.5679   24.5835 C   0  0  0  0  0  0  0  0  0  0  0  0
  -30.2898  -23.4745   17.5477 C   0  0  0  0  0  0  0  0  0  0  0  0
  -30.5039  -12.9214   19.9466 C   0  0  0  0  0  0  0  0  0  0  0  0
  -30.1512  -21.9514   17.5590 C   0  0  0  0  0  0  0  0  0  0  0  0
  -23.5866  -31.0574   24.7948 C   0  0  0  0  0  0  0  0  0  0  0  0
  -30.3603  -24.1408   18.9198 C   0  0  0  0  0  0  0  0  0  0  0  0
  -29.4761  -11.8040   19.7530 C   0  0  0  0  0  0  0  0  0  0  0  0
  -29.9014  -14.1281   20.6640 C   0  0  0  0  0  0  0  0  0  0  0  0
  -27.6452  -13.5424   19.8666 C   0  0  0  0  0  0  0  0  0  0  0  0
  -28.7949  -21.4785   18.0772 C   0  0  0  0  0  0  0  0  0  0  0  0
  -24.9608  -30.4741   24.4445 C   0  0  1  0  0  0  0  0  0  0  0  0
  -29.2257  -23.7621   19.8741 C   0  0  2  0  0  0  0  0  0  1  0  0
  -24.9143  -29.3890   20.8040 C   0  0  1  0  0  0  0  0  0  0  0  0
  -28.1883  -12.3315   19.0905 C   0  0  2  0  0  0  0  0  0  0  0  0
  -24.9020  -21.3146   18.6145 C   0  0  0  0  0  0  0  0  0  0  0  0
  -23.6846  -19.0842   17.2646 C   0  0  0  0  0  0  0  0  0  0  0  0
  -22.3527  -25.3392   14.9921 C   0  0  0  0  0  0  0  0  0  0  0  0
  -20.3372  -27.4002   20.7995 C   0  0  0  0  0  0  0  0  0  0  0  0
  -20.1823  -25.7540   18.9196 C   0  0  0  0  0  0  0  0  0  0  0  0
  -20.2312  -28.2000   18.4324 C   0  0  0  0  0  0  0  0  0  0  0  0
  -25.7012  -24.4756   16.5789 C   0  0  0  0  0  0  0  0  0  0  0  0
  -27.3949  -20.9493   20.0767 C   0  0  0  0  0  0  0  0  0  0  0  0
  -22.3429  -27.0490   19.2121 C   0  0  1  0  0  0  0  0  0  0  0  0
  -23.5201  -25.5178   15.9503 C   0  0  2  0  0  0  0  0  0  0  0  0
  -20.7959  -27.1007   19.3584 C   0  0  0  0  0  0  0  0  0  0  0  0
  -26.2357  -11.0692   19.9122 N   0  0  0  0  0  0  0  0  0  0  0  0
  -27.1463  -11.2392   18.9385 N   0  0  0  0  0  0  0  0  0  0  0  0
  -24.2992  -28.2165   20.1784 N   0  0  0  0  0  0  0  0  0  0  0  0
  -28.6873  -14.5752   19.9778 N   0  0  0  0  0  0  0  0  0  0  0  0
  -27.8393  -10.4029   16.8335 N   0  0  0  0  0  0  0  0  0  0  0  0
  -25.9195   -7.2195   17.5921 N   0  0  0  0  0  0  0  0  0  0  0  0
  -27.4169  -16.2012   18.8357 N   0  0  0  0  0  0  0  0  0  0  0  0
  -25.1130  -30.3659   23.0094 N   0  0  0  0  0  0  0  0  0  0  0  0
  -22.8064  -26.7940   17.8525 N   0  0  0  0  0  0  0  0  0  0  0  0
  -28.7841  -21.2475   19.5701 N   0  3  2  0  0  0  0  0  0  0  0  0
  -24.4915  -24.4116   15.7189 N   0  3  0  0  0  0  0  0  0  0  0  0
  -24.5309   -8.7037   16.5302 O   0  0  0  0  0  0  0  0  0  0  0  0
  -24.0624  -28.3077   22.7223 O   0  0  0  0  0  0  0  0  0  0  0  0
  -22.4005  -29.4000   19.5223 O   0  0  0  0  0  0  0  0  0  0  0  0
  -22.9190  -24.4864   18.0509 O   0  0  0  0  0  0  0  0  0  0  0  0
  -29.5333  -16.7005   19.6440 O   0  0  0  0  0  0  0  0  0  0  0  0
  -21.2043   -8.1411   22.4936 O   0  0  0  0  0  0  0  0  0  0  0  0
  -29.2781  -24.6644   20.9823 O   0  0  0  0  0  0  0  0  0  1  0  0
  -21.8769   -3.3590   25.1551 F   0  0  0  0  0  0  0  0  0  0  0  0
  -21.7705   -5.8154   21.1103 F   0  0  0  0  0  0  0  0  0  0  0  0
  -24.8459  -16.2793   17.2509 Cl  0  0  0  0  0  0  0  0  0  0  0  0
  1  2  1  0  0  0  0
  1  5  2  0  0  0  0
  2  6  2  0  0  0  0
  3  8  2  0  0  0  0
  3 16  1  0  0  0  0
  4  9  1  0  0  0  0
  4 16  2  0  0  0  0
  5 18  1  0  0  0  0
  6 20  1  0  0  0  0
  7 10  2  0  0  0  0
  7 19  1  0  0  0  0
  8 26  1  0  0  0  0
  9 26  2  0  0  0  0
 10 27  1  0  0  0  0
 11 12  2  0  0  0  0
 11 28  1  0  0  0  0
 12 29  1  0  0  0  0
 13 21  1  0  0  0  0
 13 27  2  0  0  0  0
 14 22  1  0  0  0  0
 14 25  2  0  0  0  0
 15 29  2  0  0  0  0
 15 30  1  0  0  0  0
 16 32  1  0  0  0  0
 17 32  1  0  0  0  0
 17 33  2  0  0  0  0
 17 38  1  0  0  0  0
 18 20  2  0  0  0  0
 18 43  1  0  0  0  0
 19 21  2  0  0  0  0
 19 44  1  0  0  0  0
 20 56  1  0  0  0  0
 21 45  1  0  0  0  0
 22 23  2  0  0  0  0
 22 67  1  0  0  0  0
 23 24  1  0  0  0  0
 23 60  1  0  0  0  0
 24 31  2  0  0  0  0
 24 61  1  0  0  0  0
 25 31  1  0  0  0  0
 25 77  1  0  0  0  0
 26 87  1  0  0  0  0
 27 88  1  0  0  0  0
 28 30  2  0  0  0  0
 28 87  1  0  0  0  0
 29 89  1  0  0  0  0
 30 90  1  0  0  0  0
 31 91  1  0  0  0  0
 32 71  2  0  0  0  0
 33 72  1  0  0  0  0
 33 75  1  0  0  0  0
 34 36  2  0  0  0  0
 34 57  1  0  0  0  0
 34 80  1  0  0  0  0
 35 37  2  0  0  0  0
 36 37  1  0  0  0  0
 38 76  1  0  0  0  0
 38 82  2  0  0  0  0
 39 58  1  0  0  0  0
 39 78  1  0  0  0  0
 39 83  2  0  0  0  0
 40 68  1  0  0  0  0
 40 73  1  0  0  0  0
 40 84  2  0  0  0  0
 41 69  1  0  0  0  0
 41 79  1  0  0  0  0
 41 85  2  0  0  0  0
 42 74  1  0  0  0  0
 42 77  1  0  0  0  0
 42 86  2  0  0  0  0
 43 46  1  0  0  0  0
 44 58  1  0  0  0  0
 45 73  1  0  0  0  0
 46 50  1  0  0  0  0
 47 49  1  0  0  0  0
 47 51  1  0  0  0  0
 48 52  1  0  0  0  0
 48 53  1  0  0  0  0
 49 55  1  0  0  0  0
 50 56  1  0  0  0  0
 51 57  1  0  0  0  0
 52 59  1  0  0  0  0
 53 74  1  0  0  0  0
 54 59  1  0  0  0  0
 54 74  1  0  0  0  0
 55 80  1  0  0  0  0
 56 78  1  0  0  0  0
 57 88  1  0  0  0  0
 58 73  1  0  0  0  0
 59 72  1  0  0  0  0
 62 69  1  0  0  0  0
 63 70  1  0  0  0  0
 64 70  1  0  0  0  0
 65 70  1  0  0  0  0
 66 81  1  0  0  0  0
 67 80  1  0  0  0  0
 68 70  1  0  0  0  0
 68 79  1  0  0  0  0
 69 81  1  0  0  0  0
 71 72  1  0  0  0  0
M  CHG  2  80   1  81   1
M  ISO  4  42 100  57 101  77 100  88 101
M  END
> <Batch ID>
0036

> <Smiles>
C=CC=C1N(Cc2cc([100NH:0][100C:0](=O)N3CCCC(n4nc(-c5ccc(Oc6ccc(F)cc6F)cc5)c(C(N)=O)c4N)C3)c(Cl)c(C)c2C)CCCC[101CH:1]1[101O:1]c1ccc2c(c1)CN(C(=O)C(NC(=O)C(C)NC)C(C)(C)C)C(C(=O)NC1CCCc3ccccc31)C2

> <Shape>
0.320

> <Color>
0.078

> <Negative vol penalty>
0.000

$$$$

  -OEChem-04042321543D

 89 98  0     1  0  0  0  0  0999 V2000
  -24.9149  -29.1126   20.3483 C   0  0  0  0  0  0  0  0  0  0  0  0
  -24.9107  -28.0238   19.4824 C   0  0  0  0  0  0  0  0  0  0  0  0
  -23.1334  -14.5226   22.5667 C   0  0  0  0  0  0  0  0  0  0  0  0
  -23.7183  -15.6871   20.5323 C   0  0  0  0  0  0  0  0  0  0  0  0
  -26.0742  -29.4386   21.0510 C   0  0  0  0  0  0  0  0  0  0  0  0
  -26.0663  -27.2609   19.3178 C   0  0  0  0  0  0  0  0  0  0  0  0
  -25.1359  -22.2837   19.3959 C   0  0  0  0  0  0  0  0  0  0  0  0
  -22.3908  -15.6267   22.9852 C   0  0  0  0  0  0  0  0  0  0  0  0
  -22.9757  -16.7912   20.9508 C   0  0  0  0  0  0  0  0  0  0  0  0
  -24.6054  -21.7168   18.2379 C   0  0  0  0  0  0  0  0  0  0  0  0
  -20.6355  -18.2767   24.7517 C   0  0  0  0  0  0  0  0  0  0  0  0
  -20.7853  -18.6977   26.0730 C   0  0  0  0  0  0  0  0  0  0  0  0
  -26.8001  -20.9221   17.6287 C   0  0  0  0  0  0  0  0  0  0  0  0
  -26.7910  -14.5957   12.6025 C   0  0  0  0  0  0  0  0  0  0  0  0
  -23.1395  -19.0777   25.6851 C   0  0  0  0  0  0  0  0  0  0  0  0
  -23.7971  -14.5528   21.3402 C   0  0  0  0  0  0  0  0  0  0  0  0
  -24.0940  -12.1042   20.6892 C   0  0  0  0  0  0  0  0  0  0  0  0
  -27.2417  -28.6735   20.9022 C   0  0  0  0  0  0  0  0  0  0  0  0
  -26.5066  -22.1832   19.6741 C   0  0  0  0  0  0  0  0  0  0  0  0
  -27.2427  -27.5778   20.0181 C   0  0  0  0  0  0  0  0  0  0  0  0
  -27.3450  -21.4864   18.7923 C   0  0  0  0  0  0  0  0  0  0  0  0
  -27.2715  -13.2866   12.6334 C   0  0  0  0  0  0  0  0  0  0  0  0
  -27.3417  -15.5609   13.4457 C   0  0  0  0  0  0  0  0  0  0  0  0
  -28.3727  -15.2169   14.3200 C   0  0  0  0  0  0  0  0  0  0  0  0
  -28.3025  -12.9426   13.5077 C   0  0  0  0  0  0  0  0  0  0  0  0
  -28.8531  -13.9077   14.3510 C   0  0  0  0  0  0  0  0  0  0  0  0
  -22.3120  -16.7610   22.1773 C   0  0  0  0  0  0  0  0  0  0  0  0
  -25.4380  -21.0384   17.3526 C   0  0  0  0  0  0  0  0  0  0  0  0
  -21.7378  -18.2560   23.8970 C   0  0  0  0  0  0  0  0  0  0  0  0
  -22.0372  -19.0982   26.5397 C   0  0  0  0  0  0  0  0  0  0  0  0
  -22.9897  -18.6566   24.3637 C   0  0  0  0  0  0  0  0  0  0  0  0
  -24.5648  -13.4128   20.9076 C   0  0  0  0  0  0  0  0  0  0  0  0
  -25.2050  -11.4016   20.2911 C   0  0  0  0  0  0  0  0  0  0  0  0
  -22.7707  -11.5715   20.8332 C   0  0  0  0  0  0  0  0  0  0  0  0
  -28.8807  -24.2658   20.0352 C   0  0  0  0  0  0  0  0  0  0  0  0
  -30.5599  -21.6159   20.8602 C   0  0  0  0  0  0  0  0  0  0  0  0
  -30.9054  -18.2265   20.6616 C   0  0  0  0  0  0  0  0  0  0  0  0
  -30.3443  -13.0324   17.6876 C   0  0  0  0  0  0  0  0  0  0  0  0
  -28.4843  -29.0930   21.6471 C   0  0  0  0  0  0  0  0  0  0  0  0
  -27.0587  -22.7771   20.9409 C   0  0  0  0  0  0  0  0  0  0  0  0
  -28.8201  -21.3328   19.0551 C   0  0  0  0  0  0  0  0  0  0  0  0
  -29.5576  -28.0088   21.7005 C   0  0  0  0  0  0  0  0  0  0  0  0
  -29.9629  -11.3238   20.7878 C   0  0  0  0  0  0  0  0  0  0  0  0
  -23.7517  -16.9626   15.6931 C   0  0  0  0  0  0  0  0  0  0  0  0
  -29.7559  -27.3857   20.3224 C   0  0  0  0  0  0  0  0  0  0  0  0
  -28.4937  -11.5473   21.1504 C   0  0  0  0  0  0  0  0  0  0  0  0
  -23.6783  -18.4526   15.9998 C   0  0  0  0  0  0  0  0  0  0  0  0
  -30.5689  -12.5489   20.1067 C   0  0  0  0  0  0  0  0  0  0  0  0
  -28.3535  -13.2601   19.2942 C   0  0  0  0  0  0  0  0  0  0  0  0
  -24.5570  -16.6871   14.4312 C   0  0  0  0  0  0  0  0  0  0  0  0
  -25.8718  -18.7904   14.8022 C   0  0  0  0  0  0  0  0  0  0  0  0
  -28.4692  -26.7112   19.8315 C   0  0  1  0  0  0  0  0  0  0  0  0
  -28.5566  -23.0568   20.8664 C   0  0  1  0  0  0  0  0  0  0  0  0
  -27.6833  -12.0318   19.9331 C   0  0  2  0  0  0  0  0  0  0  0  0
  -25.0687  -19.0769   16.0642 C   0  0  1  0  0  0  0  0  0  1  0  0
  -26.6645  -12.2720   11.7205 C   0  0  0  0  0  0  0  0  0  0  0  0
  -28.9625  -16.2540   15.2224 C   0  0  0  0  0  0  0  0  0  0  0  0
  -30.1471  -11.3942   12.8101 C   0  0  0  0  0  0  0  0  0  0  0  0
  -32.3967  -16.3513   21.4081 C   0  0  0  0  0  0  0  0  0  0  0  0
  -32.6159  -22.4149   18.7519 C   0  0  0  0  0  0  0  0  0  0  0  0
  -33.5385  -20.0905   18.8711 C   0  0  0  0  0  0  0  0  0  0  0  0
  -33.5921  -21.5568   20.8885 C   0  0  0  0  0  0  0  0  0  0  0  0
  -28.7130  -16.9272   22.1663 C   0  0  0  0  0  0  0  0  0  0  0  0
  -28.8156  -11.5377   13.5390 C   0  0  0  0  0  0  0  0  0  0  0  0
  -29.9593  -13.5385   15.2887 C   0  0  0  0  0  0  0  0  0  0  0  0
  -26.8070  -16.9617   13.3921 C   0  0  0  0  0  0  0  0  0  0  0  0
  -31.3856  -20.5974   20.1118 C   0  0  1  0  0  0  0  0  0  0  0  0
  -31.1593  -17.1757   21.7274 C   0  0  2  0  0  0  0  0  0  0  0  0
  -32.7556  -21.1693   19.6496 C   0  0  0  0  0  0  0  0  0  0  0  0
  -25.8730  -13.5368   20.6682 N   0  0  0  0  0  0  0  0  0  0  0  0
  -26.2337  -12.2971   20.2954 N   0  0  0  0  0  0  0  0  0  0  0  0
  -29.3135  -21.9365   20.3039 N   0  0  0  0  0  0  0  0  0  0  0  0
  -29.7537  -12.9560   18.9597 N   0  0  0  0  0  0  0  0  0  0  0  0
  -25.3925  -10.1112   19.9414 N   0  0  0  0  0  0  0  0  0  0  0  0
  -21.9123  -11.6062   19.7259 N   0  0  0  0  0  0  0  0  0  0  0  0
  -28.2891  -25.4315   20.4830 N   0  0  0  0  0  0  0  0  0  0  0  0
  -31.4881  -19.4335   20.9854 N   0  0  0  0  0  0  0  0  0  0  0  0
  -29.4998  -13.4201   16.6545 N   0  0  0  0  0  0  0  0  0  0  0  0
  -25.9296  -17.3028   14.5650 N   0  3  2  0  0  0  0  0  0  0  0  0
  -29.9940  -16.2527   21.8328 N   0  3  0  0  0  0  0  0  0  0  0  0
  -22.3561  -11.0941   21.9167 O   0  0  0  0  0  0  0  0  0  0  0  0
  -29.6145  -24.1499   19.0606 O   0  0  0  0  0  0  0  0  0  0  0  0
  -31.0014  -22.1035   21.9037 O   0  0  0  0  0  0  0  0  0  0  0  0
  -30.2583  -17.9982   19.6420 O   0  0  0  0  0  0  0  0  0  0  0  0
  -31.5348  -12.7691   17.4864 O   0  0  0  0  0  0  0  0  0  0  0  0
  -21.5873  -17.8385   22.5853 O   0  0  0  0  0  0  0  0  0  0  0  0
  -24.9229  -20.4848   16.2212 O   0  0  0  0  0  0  0  0  0  1  0  0
  -22.1806  -19.5040   27.8081 F   0  0  0  0  0  0  0  0  0  0  0  0
  -24.0521  -18.6401   23.5471 F   0  0  0  0  0  0  0  0  0  0  0  0
  1  2  1  0  0  0  0
  1  5  2  0  0  0  0
  2  6  2  0  0  0  0
  3  8  2  0  0  0  0
  3 16  1  0  0  0  0
  4  9  1  0  0  0  0
  4 16  2  0  0  0  0
  5 18  1  0  0  0  0
  6 20  1  0  0  0  0
  7 10  2  0  0  0  0
  7 19  1  0  0  0  0
  8 27  1  0  0  0  0
  9 27  2  0  0  0  0
 10 28  1  0  0  0  0
 11 12  2  0  0  0  0
 11 29  1  0  0  0  0
 12 30  1  0  0  0  0
 13 21  1  0  0  0  0
 13 28  2  0  0  0  0
 14 22  2  0  0  0  0
 14 23  1  0  0  0  0
 15 30  2  0  0  0  0
 15 31  1  0  0  0  0
 16 32  1  0  0  0  0
 17 32  1  0  0  0  0
 17 33  2  0  0  0  0
 17 34  1  0  0  0  0
 18 20  2  0  0  0  0
 18 39  1  0  0  0  0
 19 21  2  0  0  0  0
 19 40  1  0  0  0  0
 20 52  1  0  0  0  0
 21 41  1  0  0  0  0
 22 25  1  0  0  0  0
 22 56  1  0  0  0  0
 23 24  2  0  0  0  0
 23 66  1  0  0  0  0
 24 26  1  0  0  0  0
 24 57  1  0  0  0  0
 25 26  2  0  0  0  0
 25 64  1  0  0  0  0
 26 65  1  0  0  0  0
 27 86  1  0  0  0  0
 28 87  1  0  0  0  0
 29 31  2  0  0  0  0
 29 86  1  0  0  0  0
 30 88  1  0  0  0  0
 31 89  1  0  0  0  0
 32 70  2  0  0  0  0
 33 71  1  0  0  0  0
 33 74  1  0  0  0  0
 34 75  1  0  0  0  0
 34 81  2  0  0  0  0
 35 53  1  0  0  0  0
 35 76  1  0  0  0  0
 35 82  2  0  0  0  0
 36 67  1  0  0  0  0
 36 72  1  0  0  0  0
 36 83  2  0  0  0  0
 37 68  1  0  0  0  0
 37 77  1  0  0  0  0
 37 84  2  0  0  0  0
 38 73  1  0  0  0  0
 38 78  1  0  0  0  0
 38 85  2  0  0  0  0
 39 42  1  0  0  0  0
 40 53  1  0  0  0  0
 41 72  1  0  0  0  0
 42 45  1  0  0  0  0
 43 46  1  0  0  0  0
 43 48  1  0  0  0  0
 44 47  1  0  0  0  0
 44 50  1  0  0  0  0
 45 52  1  0  0  0  0
 46 54  1  0  0  0  0
 47 55  1  0  0  0  0
 48 73  1  0  0  0  0
 49 54  1  0  0  0  0
 49 73  1  0  0  0  0
 50 79  1  0  0  0  0
 51 55  1  0  0  0  0
 51 79  1  0  0  0  0
 52 76  1  0  0  0  0
 53 72  1  0  0  0  0
 54 71  1  0  0  0  0
 55 87  1  0  0  0  0
 58 64  1  0  0  0  0
 59 68  1  0  0  0  0
 60 69  1  0  0  0  0
 61 69  1  0  0  0  0
 62 69  1  0  0  0  0
 63 80  1  0  0  0  0
 65 78  1  0  0  0  0
 66 79  1  0  0  0  0
 67 69  1  0  0  0  0
 67 77  1  0  0  0  0
 68 80  1  0  0  0  0
 70 71  1  0  0  0  0
M  CHG  2  79   1  80   1
M  ISO  4  38 100  55 101  78 100  87 101
M  END
> <Batch ID>
0036

> <Smiles>
CCc1c(C)cc(CN2CCC[101CH:1]([101O:1]c3ccc4c(c3)CN(C(=O)C(NC(=O)C(C)NC)C(C)(C)C)C(C(=O)NC3CCCc5ccccc53)C4)C2)c(C)c1C[100NH:0][100C:0](=O)N1CCCC(n2nc(-c3ccc(Oc4ccc(F)cc4F)cc3)c(C(N)=O)c2N)C1

> <Shape>
0.208

> <Color>
0.070

> <Negative vol penalty>
0.000

$$$$

  -OEChem-04042321543D

 89 98  0     1  0  0  0  0  0999 V2000
  -28.1786  -22.3750   19.3985 C   0  0  0  0  0  0  0  0  0  0  0  0
  -27.3224  -23.4673   19.3170 C   0  0  0  0  0  0  0  0  0  0  0  0
  -29.2867  -12.5254   20.2898 C   0  0  0  0  0  0  0  0  0  0  0  0
  -27.5919  -13.0385   18.6462 C   0  0  0  0  0  0  0  0  0  0  0  0
  -29.0236  -22.2371   20.4977 C   0  0  0  0  0  0  0  0  0  0  0  0
  -27.3193  -24.4282   20.3287 C   0  0  0  0  0  0  0  0  0  0  0  0
  -24.5996  -28.4580   19.5752 C   0  0  0  0  0  0  0  0  0  0  0  0
  -29.1218  -11.1640   20.0350 C   0  0  0  0  0  0  0  0  0  0  0  0
  -27.4269  -11.6770   18.3913 C   0  0  0  0  0  0  0  0  0  0  0  0
  -23.2060  -28.4445   19.6118 C   0  0  0  0  0  0  0  0  0  0  0  0
  -29.0207   -9.2599   16.6484 C   0  0  0  0  0  0  0  0  0  0  0  0
  -28.9463   -8.8560   15.3154 C   0  0  0  0  0  0  0  0  0  0  0  0
  -23.2597  -29.4586   21.7999 C   0  0  0  0  0  0  0  0  0  0  0  0
  -21.8919  -24.5507   22.0293 C   0  0  0  0  0  0  0  0  0  0  0  0
  -26.7418   -7.9508   15.7128 C   0  0  0  0  0  0  0  0  0  0  0  0
  -28.5217  -13.4627   19.5955 C   0  0  0  0  0  0  0  0  0  0  0  0
  -29.8679  -15.6267   19.7062 C   0  0  0  0  0  0  0  0  0  0  0  0
  -29.0213  -23.1907   21.5290 C   0  0  0  0  0  0  0  0  0  0  0  0
  -25.3353  -28.9628   20.6570 C   0  0  0  0  0  0  0  0  0  0  0  0
  -28.1818  -24.3193   21.4345 C   0  0  0  0  0  0  0  0  0  0  0  0
  -24.6626  -29.4798   21.7734 C   0  0  0  0  0  0  0  0  0  0  0  0
  -22.6198  -23.6503   21.2516 C   0  0  0  0  0  0  0  0  0  0  0  0
  -20.5182  -24.3758   22.1972 C   0  0  0  0  0  0  0  0  0  0  0  0
  -19.8725  -23.3003   21.5872 C   0  0  0  0  0  0  0  0  0  0  0  0
  -20.6004  -22.3998   20.8094 C   0  0  0  0  0  0  0  0  0  0  0  0
  -21.9740  -22.5748   20.6416 C   0  0  0  0  0  0  0  0  0  0  0  0
  -28.1919  -10.7398   19.0857 C   0  0  0  0  0  0  0  0  0  0  0  0
  -22.5359  -28.9422   20.7255 C   0  0  0  0  0  0  0  0  0  0  0  0
  -27.9557   -9.0092   17.5137 C   0  0  0  0  0  0  0  0  0  0  0  0
  -27.8069   -8.2015   14.8476 C   0  0  0  0  0  0  0  0  0  0  0  0
  -26.8163   -8.3546   17.0458 C   0  0  0  0  0  0  0  0  0  0  0  0
  -28.6913  -14.8691   19.8587 C   0  0  0  0  0  0  0  0  0  0  0  0
  -29.5091  -16.8979   20.0828 C   0  0  0  0  0  0  0  0  0  0  0  0
  -18.1978  -27.2120   23.0866 C   0  0  0  0  0  0  0  0  0  0  0  0
  -16.8865  -26.9853   23.2561 C   0  0  0  0  0  0  0  0  0  0  0  0
  -31.1690  -15.2180   19.2636 C   0  0  0  0  0  0  0  0  0  0  0  0
  -27.4514  -27.7464   22.6932 C   0  0  0  0  0  0  0  0  0  0  0  0
  -27.6942  -30.8283   23.6758 C   0  0  0  0  0  0  0  0  0  0  0  0
  -25.4434  -33.5776   24.3022 C   0  0  0  0  0  0  0  0  0  0  0  0
  -24.3059  -19.6874   20.0541 C   0  0  0  0  0  0  0  0  0  0  0  0
  -29.9619  -22.9963   22.6920 C   0  0  0  0  0  0  0  0  0  0  0  0
  -26.8376  -28.9948   20.5907 C   0  0  0  0  0  0  0  0  0  0  0  0
  -25.4054  -30.0515   22.9523 C   0  0  0  0  0  0  0  0  0  0  0  0
  -18.9183  -28.3713   23.7195 C   0  0  0  0  0  0  0  0  0  0  0  0
  -29.5728  -23.8197   23.9154 C   0  0  0  0  0  0  0  0  0  0  0  0
  -19.7168  -29.1359   22.6706 C   0  0  0  0  0  0  0  0  0  0  0  0
  -26.4562  -19.2387   22.9303 C   0  0  0  0  0  0  0  0  0  0  0  0
  -29.3210  -25.2645   23.5109 C   0  0  0  0  0  0  0  0  0  0  0  0
  -27.3895  -18.1292   22.4421 C   0  0  0  0  0  0  0  0  0  0  0  0
  -25.0321  -19.0247   22.4261 C   0  0  0  0  0  0  0  0  0  0  0  0
  -25.8470  -17.7885   20.4560 C   0  0  0  0  0  0  0  0  0  0  0  0
  -19.7095  -27.0904   21.1940 C   0  0  0  0  0  0  0  0  0  0  0  0
  -28.1392  -25.3611   22.5378 C   0  0  1  0  0  0  0  0  0  0  0  0
  -27.4951  -29.0604   21.9657 C   0  0  1  0  0  0  0  0  0  0  0  0
  -27.3070  -17.9598   20.9135 C   0  0  2  0  0  0  0  0  0  0  0  0
  -20.5636  -28.1910   21.8181 C   0  0  1  0  0  0  0  0  0  1  0  0
  -24.0895  -23.8607   21.0875 C   0  0  0  0  0  0  0  0  0  0  0  0
  -18.3990  -23.1155   21.7682 C   0  0  0  0  0  0  0  0  0  0  0  0
  -19.9078  -21.2459   20.1555 C   0  0  0  0  0  0  0  0  0  0  0  0
  -25.8289  -36.0555   24.2090 C   0  0  0  0  0  0  0  0  0  0  0  0
  -28.2442  -30.5629   26.6653 C   0  0  0  0  0  0  0  0  0  0  0  0
  -27.0637  -32.7444   27.0053 C   0  0  0  0  0  0  0  0  0  0  0  0
  -29.1374  -32.6528   25.6218 C   0  0  0  0  0  0  0  0  0  0  0  0
  -23.2142  -33.9697   22.3954 C   0  0  0  0  0  0  0  0  0  0  0  0
  -22.7571  -21.6104   19.8081 C   0  0  0  0  0  0  0  0  0  0  0  0
  -19.7588  -25.3580   23.0394 C   0  0  0  0  0  0  0  0  0  0  0  0
  -26.9913  -31.6810   24.7042 C   0  0  1  0  0  0  0  0  0  0  0  0
  -25.2950  -34.8384   23.4698 C   0  0  2  0  0  0  0  0  0  0  0  0
  -27.8460  -31.8885   25.9863 C   0  0  0  0  0  0  0  0  0  0  0  0
  -27.6619  -15.5981   20.2980 N   0  0  0  0  0  0  0  0  0  0  0  0
  -28.1907  -16.8271   20.4249 N   0  0  0  0  0  0  0  0  0  0  0  0
  -26.8736  -30.0548   22.8426 N   0  0  0  0  0  0  0  0  0  0  0  0
  -25.0212  -18.8896   20.9626 N   0  0  0  0  0  0  0  0  0  0  0  0
  -30.1958  -18.0581   20.1514 N   0  0  0  0  0  0  0  0  0  0  0  0
  -31.4599  -15.2832   17.8941 N   0  0  0  0  0  0  0  0  0  0  0  0
  -28.0648  -26.7087   22.0177 N   0  0  0  0  0  0  0  0  0  0  0  0
  -26.6224  -32.9185   24.0252 N   0  0  0  0  0  0  0  0  0  0  0  0
  -23.5428  -20.7039   20.6155 N   0  0  0  0  0  0  0  0  0  0  0  0
  -18.9299  -26.3139   22.2269 N   0  3  1  0  0  0  0  0  0  0  0  0
  -23.8607  -35.0781   23.1440 N   0  3  0  0  0  0  0  0  0  0  0  0
  -32.0420  -14.7916   20.0571 O   0  0  0  0  0  0  0  0  0  0  0  0
  -26.9031  -27.6794   23.7871 O   0  0  0  0  0  0  0  0  0  0  0  0
  -28.9257  -30.8531   23.6093 O   0  0  0  0  0  0  0  0  0  0  0  0
  -24.5996  -33.2157   25.1194 O   0  0  0  0  0  0  0  0  0  0  0  0
  -24.3484  -19.5104   18.8319 O   0  0  0  0  0  0  0  0  0  0  0  0
  -28.0308   -9.4114   18.8366 O   0  0  0  0  0  0  0  0  0  0  0  0
  -21.1757  -28.9295   20.7642 O   0  0  0  0  0  0  0  0  0  1  0  0
  -27.7349   -7.8151   13.5671 F   0  0  0  0  0  0  0  0  0  0  0  0
  -25.7895   -8.1120   17.8720 F   0  0  0  0  0  0  0  0  0  0  0  0
  1  2  1  0  0  0  0
  1  5  2  0  0  0  0
  2  6  2  0  0  0  0
  3  8  2  0  0  0  0
  3 16  1  0  0  0  0
  4  9  1  0  0  0  0
  4 16  2  0  0  0  0
  5 18  1  0  0  0  0
  6 20  1  0  0  0  0
  7 10  2  0  0  0  0
  7 19  1  0  0  0  0
  8 27  1  0  0  0  0
  9 27  2  0  0  0  0
 10 28  1  0  0  0  0
 11 12  2  0  0  0  0
 11 29  1  0  0  0  0
 12 30  1  0  0  0  0
 13 21  1  0  0  0  0
 13 28  2  0  0  0  0
 14 22  2  0  0  0  0
 14 23  1  0  0  0  0
 15 30  2  0  0  0  0
 15 31  1  0  0  0  0
 16 32  1  0  0  0  0
 17 32  1  0  0  0  0
 17 33  2  0  0  0  0
 17 36  1  0  0  0  0
 18 20  2  0  0  0  0
 18 41  1  0  0  0  0
 19 21  2  0  0  0  0
 19 42  1  0  0  0  0
 20 53  1  0  0  0  0
 21 43  1  0  0  0  0
 22 26  1  0  0  0  0
 22 57  1  0  0  0  0
 23 24  2  0  0  0  0
 23 66  1  0  0  0  0
 24 25  1  0  0  0  0
 24 58  1  0  0  0  0
 25 26  2  0  0  0  0
 25 59  1  0  0  0  0
 26 65  1  0  0  0  0
 27 86  1  0  0  0  0
 28 87  1  0  0  0  0
 29 31  2  0  0  0  0
 29 86  1  0  0  0  0
 30 88  1  0  0  0  0
 31 89  1  0  0  0  0
 32 70  2  0  0  0  0
 33 71  1  0  0  0  0
 33 74  1  0  0  0  0
 34 35  2  0  0  0  0
 34 44  1  0  0  0  0
 34 79  1  0  0  0  0
 36 75  1  0  0  0  0
 36 81  2  0  0  0  0
 37 54  1  0  0  0  0
 37 76  1  0  0  0  0
 37 82  2  0  0  0  0
 38 67  1  0  0  0  0
 38 72  1  0  0  0  0
 38 83  2  0  0  0  0
 39 68  1  0  0  0  0
 39 77  1  0  0  0  0
 39 84  2  0  0  0  0
 40 73  1  0  0  0  0
 40 78  1  0  0  0  0
 40 85  2  0  0  0  0
 41 45  1  0  0  0  0
 42 54  1  0  0  0  0
 43 72  1  0  0  0  0
 44 46  1  0  0  0  0
 45 48  1  0  0  0  0
 46 56  1  0  0  0  0
 47 49  1  0  0  0  0
 47 50  1  0  0  0  0
 48 53  1  0  0  0  0
 49 55  1  0  0  0  0
 50 73  1  0  0  0  0
 51 55  1  0  0  0  0
 51 73  1  0  0  0  0
 52 56  1  0  0  0  0
 52 79  1  0  0  0  0
 53 76  1  0  0  0  0
 54 72  1  0  0  0  0
 55 71  1  0  0  0  0
 56 87  1  0  0  0  0
 60 68  1  0  0  0  0
 61 69  1  0  0  0  0
 62 69  1  0  0  0  0
 63 69  1  0  0  0  0
 64 80  1  0  0  0  0
 65 78  1  0  0  0  0
 66 79  1  0  0  0  0
 67 69  1  0  0  0  0
 67 77  1  0  0  0  0
 68 80  1  0  0  0  0
 70 71  1  0  0  0  0
M  CHG  2  79   1  80   1
M  ISO  4  40 100  56 101  78 100  87 101
M  END
> <Batch ID>
0036

> <Smiles>
C=C1CC[101CH:1]([101O:1]c2ccc3c(c2)CN(C(=O)C(NC(=O)C(C)NC)C(C)(C)C)C(C(=O)NC2CCCc4ccccc42)C3)CN1Cc1cc(C)c(C[100NH:0][100C:0](=O)N2CCCC(n3nc(-c4ccc(Oc5ccc(F)cc5F)cc4)c(C(N)=O)c3N)C2)c(C)c1C

> <Shape>
0.251

> <Color>
0.065

> <Negative vol penalty>
0.000

$$$$

  -OEChem-04042321543D

 87 96  0     1  0  0  0  0  0999 V2000
  -25.1452  -36.5125   23.2987 C   0  0  0  0  0  0  0  0  0  0  0  0
  -26.2752  -35.7814   22.9467 C   0  0  0  0  0  0  0  0  0  0  0  0
  -22.8671   -9.5838   19.9356 C   0  0  0  0  0  0  0  0  0  0  0  0
  -24.5762   -8.7649   21.4341 C   0  0  0  0  0  0  0  0  0  0  0  0
  -23.9862  -35.8509   23.7025 C   0  0  0  0  0  0  0  0  0  0  0  0
  -26.2473  -34.3883   22.9992 C   0  0  0  0  0  0  0  0  0  0  0  0
  -28.9402  -28.6223   19.7101 C   0  0  0  0  0  0  0  0  0  0  0  0
  -21.8823   -9.0527   20.7685 C   0  0  0  0  0  0  0  0  0  0  0  0
  -23.5914   -8.2338   22.2671 C   0  0  0  0  0  0  0  0  0  0  0  0
  -29.6206  -27.4393   19.9952 C   0  0  0  0  0  0  0  0  0  0  0  0
  -21.5919   -5.5084   22.3372 C   0  0  0  0  0  0  0  0  0  0  0  0
  -21.7809   -4.2136   22.8203 C   0  0  0  0  0  0  0  0  0  0  0  0
  -27.5378  -26.4019   20.6318 C   0  0  0  0  0  0  0  0  0  0  0  0
  -27.5391  -18.3353   20.1671 C   0  0  0  0  0  0  0  0  0  0  0  0
  -21.7301   -5.0514   25.0858 C   0  0  0  0  0  0  0  0  0  0  0  0
  -24.2141   -9.4399   20.2684 C   0  0  0  0  0  0  0  0  0  0  0  0
  -25.4683   -9.6650   18.0584 C   0  0  0  0  0  0  0  0  0  0  0  0
  -23.9410  -34.4487   23.7508 C   0  0  0  0  0  0  0  0  0  0  0  0
  -27.5526  -28.7075   19.8943 C   0  0  0  0  0  0  0  0  0  0  0  0
  -25.0870  -33.7073   23.4053 C   0  0  0  0  0  0  0  0  0  0  0  0
  -26.8418  -27.5863   20.3458 C   0  0  0  0  0  0  0  0  0  0  0  0
  -27.0000  -19.6069   20.3620 C   0  0  0  0  0  0  0  0  0  0  0  0
  -25.7342  -19.9120   19.8618 C   0  0  0  0  0  0  0  0  0  0  0  0
  -25.0074  -18.9455   19.1667 C   0  0  0  0  0  0  0  0  0  0  0  0
  -26.8123  -17.3687   19.4720 C   0  0  0  0  0  0  0  0  0  0  0  0
  -22.2445   -8.3777   21.9342 C   0  0  0  0  0  0  0  0  0  0  0  0
  -28.9198  -26.3298   20.4589 C   0  0  0  0  0  0  0  0  0  0  0  0
  -21.4721   -6.5747   23.2285 C   0  0  0  0  0  0  0  0  0  0  0  0
  -21.8499   -3.9851   24.1946 C   0  0  0  0  0  0  0  0  0  0  0  0
  -21.5412   -6.3462   24.6027 C   0  0  0  0  0  0  0  0  0  0  0  0
  -25.5464  -17.6738   18.9718 C   0  0  0  0  0  0  0  0  0  0  0  0
  -25.2318   -9.9878   19.4081 C   0  0  0  0  0  0  0  0  0  0  0  0
  -26.5351  -10.4519   17.6990 C   0  0  0  0  0  0  0  0  0  0  0  0
  -24.7846   -8.7370   17.2058 C   0  0  0  0  0  0  0  0  0  0  0  0
  -25.6365  -30.4627   21.7251 C   0  0  0  0  0  0  0  0  0  0  0  0
  -23.3030  -28.9986   20.0124 C   0  0  0  0  0  0  0  0  0  0  0  0
  -22.6386  -25.6773   18.7694 C   0  0  0  0  0  0  0  0  0  0  0  0
  -28.6404  -15.6569   19.7436 C   0  0  0  0  0  0  0  0  0  0  0  0
  -22.6806  -33.7794   24.2389 C   0  0  0  0  0  0  0  0  0  0  0  0
  -26.8297  -29.9826   19.5567 C   0  0  0  0  0  0  0  0  0  0  0  0
  -25.3487  -27.6198   20.5411 C   0  0  0  0  0  0  0  0  0  0  0  0
  -22.6142  -32.2906   23.9081 C   0  0  0  0  0  0  0  0  0  0  0  0
  -30.4117  -12.5748   19.5429 C   0  0  0  0  0  0  0  0  0  0  0  0
  -30.1107  -22.2100   18.5045 C   0  0  0  0  0  0  0  0  0  0  0  0
  -23.9350  -31.6084   24.2498 C   0  0  0  0  0  0  0  0  0  0  0  0
  -29.3063  -11.5328   19.3567 C   0  0  0  0  0  0  0  0  0  0  0  0
  -30.4039  -23.5292   19.2069 C   0  0  0  0  0  0  0  0  0  0  0  0
  -29.9793  -13.6984   20.4832 C   0  0  0  0  0  0  0  0  0  0  0  0
  -27.6074  -13.3098   19.9424 C   0  0  0  0  0  0  0  0  0  0  0  0
  -29.6127  -21.1524   19.4792 C   0  0  0  0  0  0  0  0  0  0  0  0
  -28.7004  -22.9484   20.9733 C   0  0  0  0  0  0  0  0  0  0  0  0
  -25.0879  -32.1942   23.4256 C   0  0  1  0  0  0  0  0  0  0  0  0
  -25.4881  -30.1158   20.2707 C   0  0  1  0  0  0  0  0  0  0  0  0
  -27.9730  -12.1919   18.9523 C   0  0  2  0  0  0  0  0  0  0  0  0
  -29.1986  -24.0143   20.0062 C   0  0  1  0  0  0  0  0  0  1  0  0
  -25.1610  -21.2784   20.0710 C   0  0  0  0  0  0  0  0  0  0  0  0
  -23.6508  -19.2937   18.6361 C   0  0  0  0  0  0  0  0  0  0  0  0
  -21.2959  -24.9137   16.7917 C   0  0  0  0  0  0  0  0  0  0  0  0
  -21.0280  -28.7281   22.0276 C   0  0  0  0  0  0  0  0  0  0  0  0
  -20.3086  -26.6497   20.8314 C   0  0  0  0  0  0  0  0  0  0  0  0
  -20.2975  -28.8405   19.6384 C   0  0  0  0  0  0  0  0  0  0  0  0
  -24.9237  -24.1608   17.6568 C   0  0  0  0  0  0  0  0  0  0  0  0
  -27.8028  -20.6284   21.1123 C   0  0  0  0  0  0  0  0  0  0  0  0
  -22.5053  -27.7257   20.1625 C   0  0  1  0  0  0  0  0  0  0  0  0
  -22.6874  -25.2220   17.3221 C   0  0  2  0  0  0  0  0  0  0  0  0
  -21.0612  -27.9883   20.6753 C   0  0  0  0  0  0  0  0  0  0  0  0
  -26.0803  -10.9079   19.8745 N   0  0  0  0  0  0  0  0  0  0  0  0
  -26.8604  -11.1699   18.8120 N   0  0  0  0  0  0  0  0  0  0  0  0
  -24.6879  -28.8913   20.2033 N   0  0  0  0  0  0  0  0  0  0  0  0
  -28.7112  -14.2782   20.0352 N   0  0  0  0  0  0  0  0  0  0  0  0
  -27.2174  -10.5926   16.5427 N   0  0  0  0  0  0  0  0  0  0  0  0
  -23.7098   -8.0099   17.7354 N   0  0  0  0  0  0  0  0  0  0  0  0
  -27.3924  -16.0881   19.2952 N   0  0  0  0  0  0  0  0  0  0  0  0
  -25.0627  -31.6694   22.0771 N   0  0  0  0  0  0  0  0  0  0  0  0
  -22.5671  -27.0506   18.8707 N   0  0  0  0  0  0  0  0  0  0  0  0
  -28.4049  -21.6773   20.2185 N   0  3  2  0  0  0  0  0  0  0  0  0
  -23.5221  -23.9941   17.1933 N   0  3  0  0  0  0  0  0  0  0  0  0
  -25.1274   -8.5457   16.0144 O   0  0  0  0  0  0  0  0  0  0  0  0
  -26.2267  -29.6918   22.4729 O   0  0  0  0  0  0  0  0  0  0  0  0
  -22.7198  -30.0479   19.7289 O   0  0  0  0  0  0  0  0  0  0  0  0
  -22.6579  -24.8930   19.7155 O   0  0  0  0  0  0  0  0  0  0  0  0
  -29.6226  -16.3951   19.8553 O   0  0  0  0  0  0  0  0  0  0  0  0
  -21.2838   -7.8595   22.7473 O   0  0  0  0  0  0  0  0  0  0  0  0
  -29.5816  -25.1740   20.7386 O   0  0  0  0  0  0  0  0  0  1  0  0
  -22.0298   -2.7414   24.6584 F   0  0  0  0  0  0  0  0  0  0  0  0
  -21.4255   -7.3665   25.4638 F   0  0  0  0  0  0  0  0  0  0  0  0
  -24.6408  -16.4727   18.1083 Cl  0  0  0  0  0  0  0  0  0  0  0  0
  1  2  1  0  0  0  0
  1  5  2  0  0  0  0
  2  6  2  0  0  0  0
  3  8  2  0  0  0  0
  3 16  1  0  0  0  0
  4  9  1  0  0  0  0
  4 16  2  0  0  0  0
  5 18  1  0  0  0  0
  6 20  1  0  0  0  0
  7 10  2  0  0  0  0
  7 19  1  0  0  0  0
  8 26  1  0  0  0  0
  9 26  2  0  0  0  0
 10 27  1  0  0  0  0
 11 12  2  0  0  0  0
 11 28  1  0  0  0  0
 12 29  1  0  0  0  0
 13 21  1  0  0  0  0
 13 27  2  0  0  0  0
 14 22  1  0  0  0  0
 14 25  2  0  0  0  0
 15 29  2  0  0  0  0
 15 30  1  0  0  0  0
 16 32  1  0  0  0  0
 17 32  1  0  0  0  0
 17 33  2  0  0  0  0
 17 34  1  0  0  0  0
 18 20  2  0  0  0  0
 18 39  1  0  0  0  0
 19 21  2  0  0  0  0
 19 40  1  0  0  0  0
 20 52  1  0  0  0  0
 21 41  1  0  0  0  0
 22 23  2  0  0  0  0
 22 63  1  0  0  0  0
 23 24  1  0  0  0  0
 23 56  1  0  0  0  0
 24 31  2  0  0  0  0
 24 57  1  0  0  0  0
 25 31  1  0  0  0  0
 25 73  1  0  0  0  0
 26 83  1  0  0  0  0
 27 84  1  0  0  0  0
 28 30  2  0  0  0  0
 28 83  1  0  0  0  0
 29 85  1  0  0  0  0
 30 86  1  0  0  0  0
 31 87  1  0  0  0  0
 32 67  2  0  0  0  0
 33 68  1  0  0  0  0
 33 71  1  0  0  0  0
 34 72  1  0  0  0  0
 34 78  2  0  0  0  0
 35 53  1  0  0  0  0
 35 74  1  0  0  0  0
 35 79  2  0  0  0  0
 36 64  1  0  0  0  0
 36 69  1  0  0  0  0
 36 80  2  0  0  0  0
 37 65  1  0  0  0  0
 37 75  1  0  0  0  0
 37 81  2  0  0  0  0
 38 70  1  0  0  0  0
 38 73  1  0  0  0  0
 38 82  2  0  0  0  0
 39 42  1  0  0  0  0
 40 53  1  0  0  0  0
 41 69  1  0  0  0  0
 42 45  1  0  0  0  0
 43 46  1  0  0  0  0
 43 48  1  0  0  0  0
 44 47  1  0  0  0  0
 44 50  1  0  0  0  0
 45 52  1  0  0  0  0
 46 54  1  0  0  0  0
 47 55  1  0  0  0  0
 48 70  1  0  0  0  0
 49 54  1  0  0  0  0
 49 70  1  0  0  0  0
 50 76  1  0  0  0  0
 51 55  1  0  0  0  0
 51 76  1  0  0  0  0
 52 74  1  0  0  0  0
 53 69  1  0  0  0  0
 54 68  1  0  0  0  0
 55 84  1  0  0  0  0
 58 65  1  0  0  0  0
 59 66  1  0  0  0  0
 60 66  1  0  0  0  0
 61 66  1  0  0  0  0
 62 77  1  0  0  0  0
 63 76  1  0  0  0  0
 64 66  1  0  0  0  0
 64 75  1  0  0  0  0
 65 77  1  0  0  0  0
 67 68  1  0  0  0  0
M  CHG  2  76   1  77   1
M  ISO  4  38 100  55 101  73 100  84 101
M  END
> <Batch ID>
0036

> <Smiles>
CNC(C)C(=O)NC(C(=O)N1Cc2cc([101O:1][101CH:1]3CCCN(Cc4cc([100NH:0][100C:0](=O)N5CCCC(n6nc(-c7ccc(Oc8ccc(F)cc8F)cc7)c(C(N)=O)c6N)C5)c(Cl)c(C)c4C)C3)ccc2CC1C(=O)NC1CCCc2ccccc21)C(C)(C)C

> <Shape>
0.332

> <Color>
0.078

> <Negative vol penalty>
0.000

$$$$

  -OEChem-04042321543D

 90 99  0     1  0  0  0  0  0999 V2000
  -18.5612  -25.9003   23.6710 C   0  0  0  0  0  0  0  0  0  0  0  0
  -19.6124  -25.6565   22.7930 C   0  0  0  0  0  0  0  0  0  0  0  0
  -24.3056  -15.3086   18.6465 C   0  0  0  0  0  0  0  0  0  0  0  0
  -22.9458  -16.8980   19.8556 C   0  0  0  0  0  0  0  0  0  0  0  0
  -18.0968  -27.2018   23.8564 C   0  0  0  0  0  0  0  0  0  0  0  0
  -20.1992  -26.7140   22.0989 C   0  0  0  0  0  0  0  0  0  0  0  0
  -26.5149  -28.8527   19.4809 C   0  0  0  0  0  0  0  0  0  0  0  0
  -23.5055  -14.2670   19.1158 C   0  0  0  0  0  0  0  0  0  0  0  0
  -22.1456  -15.8563   20.3250 C   0  0  0  0  0  0  0  0  0  0  0  0
  -27.0905  -29.3106   18.2966 C   0  0  0  0  0  0  0  0  0  0  0  0
  -23.1592  -12.4819   21.9651 C   0  0  0  0  0  0  0  0  0  0  0  0
  -23.7995  -11.3388   22.4435 C   0  0  0  0  0  0  0  0  0  0  0  0
  -26.2579  -31.5275   18.7561 C   0  0  0  0  0  0  0  0  0  0  0  0
  -27.0433  -26.5374   15.3433 C   0  0  0  0  0  0  0  0  0  0  0  0
  -22.6788  -10.0091   20.7663 C   0  0  0  0  0  0  0  0  0  0  0  0
  -24.0258  -16.6241   19.0164 C   0  0  0  0  0  0  0  0  0  0  0  0
  -29.2841  -25.9936   16.0642 C   0  0  0  0  0  0  0  0  0  0  0  0
  -25.0780  -18.0619   17.1906 C   0  0  0  0  0  0  0  0  0  0  0  0
  -18.6846  -28.2770   23.1716 C   0  0  0  0  0  0  0  0  0  0  0  0
  -25.7959  -29.7278   20.3077 C   0  0  0  0  0  0  0  0  0  0  0  0
  -19.7414  -28.0310   22.2743 C   0  0  0  0  0  0  0  0  0  0  0  0
  -25.6763  -31.0787   19.9517 C   0  0  0  0  0  0  0  0  0  0  0  0
  -28.4243  -26.6641   15.1943 C   0  0  0  0  0  0  0  0  0  0  0  0
  -26.5220  -25.7404   16.3625 C   0  0  0  0  0  0  0  0  0  0  0  0
  -27.3818  -25.0699   17.2325 C   0  0  0  0  0  0  0  0  0  0  0  0
  -22.4255  -14.5408   19.9550 C   0  0  0  0  0  0  0  0  0  0  0  0
  -26.9596  -30.6476   17.9325 C   0  0  0  0  0  0  0  0  0  0  0  0
  -22.2786  -12.3887   20.8873 C   0  0  0  0  0  0  0  0  0  0  0  0
  -23.5594  -10.1024   21.8441 C   0  0  0  0  0  0  0  0  0  0  0  0
  -22.0384  -11.1523   20.2879 C   0  0  0  0  0  0  0  0  0  0  0  0
  -28.7629  -25.1965   17.0834 C   0  0  0  0  0  0  0  0  0  0  0  0
  -24.8524  -17.7006   18.5324 C   0  0  0  0  0  0  0  0  0  0  0  0
  -25.9285  -19.1379   17.2631 C   0  0  0  0  0  0  0  0  0  0  0  0
  -30.7297  -26.1105   15.9256 C   0  0  0  0  0  0  0  0  0  0  0  0
  -24.5646  -17.4771   15.9863 C   0  0  0  0  0  0  0  0  0  0  0  0
  -22.7882  -29.8922   21.3226 C   0  0  0  0  0  0  0  0  0  0  0  0
  -23.9378  -32.3375   23.1174 C   0  0  0  0  0  0  0  0  0  0  0  0
  -26.3114  -34.7524   23.5433 C   0  0  0  0  0  0  0  0  0  0  0  0
  -27.4536  -23.9983   19.5112 C   0  0  0  0  0  0  0  0  0  0  0  0
  -18.1173  -29.6605   23.3688 C   0  0  0  0  0  0  0  0  0  0  0  0
  -25.2038  -29.2240   21.5954 C   0  0  0  0  0  0  0  0  0  0  0  0
  -24.9317  -32.0633   20.8148 C   0  0  0  0  0  0  0  0  0  0  0  0
  -19.0404  -30.7730   22.8783 C   0  0  0  0  0  0  0  0  0  0  0  0
  -31.1592  -30.9763   15.7034 C   0  0  0  0  0  0  0  0  0  0  0  0
  -28.5118  -21.0365   21.1802 C   0  0  0  0  0  0  0  0  0  0  0  0
  -19.5864  -30.4417   21.4931 C   0  0  0  0  0  0  0  0  0  0  0  0
  -27.6727  -19.9343   20.5297 C   0  0  0  0  0  0  0  0  0  0  0  0
  -29.8446  -31.4574   16.3133 C   0  0  0  0  0  0  0  0  0  0  0  0
  -31.0705  -30.8047   14.1879 C   0  0  0  0  0  0  0  0  0  0  0  0
  -27.7206  -22.3339   21.3370 C   0  0  0  0  0  0  0  0  0  0  0  0
  -26.2496  -21.7260   19.4566 C   0  0  0  0  0  0  0  0  0  0  0  0
  -28.3885  -29.7988   14.9804 C   0  0  0  0  0  0  0  0  0  0  0  0
  -20.4201  -29.1550   21.5220 C   0  0  1  0  0  0  0  0  0  0  0  0
  -24.0559  -30.0904   22.1044 C   0  0  1  0  0  0  0  0  0  0  0  0
  -27.0241  -20.4195   19.2184 C   0  0  2  0  0  0  0  0  0  0  0  0
  -28.7074  -30.4367   16.3289 C   0  0  2  0  0  0  0  0  0  1  0  0
  -30.5804  -29.4353   13.6925 C   0  0  2  0  0  0  0  0  0  0  0  0
  -25.0384  -25.6237   16.4992 C   0  0  0  0  0  0  0  0  0  0  0  0
  -30.1355  -29.5213   12.2315 C   0  0  0  0  0  0  0  0  0  0  0  0
  -26.9652  -36.6219   25.0843 C   0  0  0  0  0  0  0  0  0  0  0  0
  -21.7160  -34.0731   21.9506 C   0  0  0  0  0  0  0  0  0  0  0  0
  -22.9641  -36.0892   22.7541 C   0  0  0  0  0  0  0  0  0  0  0  0
  -22.1261  -34.4074   24.3949 C   0  0  0  0  0  0  0  0  0  0  0  0
  -28.9054  -33.4769   24.1783 C   0  0  0  0  0  0  0  0  0  0  0  0
  -28.9580  -27.5286   14.0902 C   0  0  0  0  0  0  0  0  0  0  0  0
  -24.0959  -33.8259   22.9205 C   0  0  1  0  0  0  0  0  0  0  0  0
  -27.1401  -35.1482   24.7520 C   0  0  2  0  0  0  0  0  0  0  0  0
  -22.7380  -34.5802   22.9876 C   0  0  0  0  0  0  0  0  0  0  0  0
  -25.5069  -18.4834   19.3942 N   0  0  0  0  0  0  0  0  0  0  0  0
  -31.5729  -25.5079   16.7080 N   0  0  0  0  0  0  0  0  0  0  0  0
  -26.1522  -19.3473   18.5921 N   0  0  0  0  0  0  0  0  0  0  0  0
  -24.3652  -31.5211   22.0608 N   0  0  0  0  0  0  0  0  0  0  0  0
  -27.1390  -22.7344   20.0540 N   0  0  0  0  0  0  0  0  0  0  0  0
  -26.4995  -19.9158   16.3191 N   0  0  0  0  0  0  0  0  0  0  0  0
  -23.3581  -17.9665   15.4676 N   0  0  0  0  0  0  0  0  0  0  0  0
  -26.8681  -24.2555   18.2720 N   0  0  0  0  0  0  0  0  0  0  0  0
  -21.7320  -29.4150   22.0751 N   0  0  0  0  0  0  0  0  0  0  0  0
  -25.0738  -34.2668   23.9093 N   0  0  0  0  0  0  0  0  0  0  0  0
  -29.4966  -28.8507   14.5819 N   0  3  2  0  0  0  0  0  0  0  0  0
  -28.5856  -34.8927   24.4951 N   0  3  0  0  0  0  0  0  0  0  0  0
  -25.1499  -16.5371   15.3970 O   0  0  0  0  0  0  0  0  0  0  0  0
  -22.7692  -30.1543   20.1257 O   0  0  0  0  0  0  0  0  0  0  0  0
  -23.4594  -31.9146   24.1728 O   0  0  0  0  0  0  0  0  0  0  0  0
  -26.7195  -34.8662   22.3896 O   0  0  0  0  0  0  0  0  0  0  0  0
  -28.2100  -24.7828   20.0894 O   0  0  0  0  0  0  0  0  0  0  0  0
  -21.6443  -13.5246   20.4130 O   0  0  0  0  0  0  0  0  0  0  0  0
  -27.5199  -31.0970   16.7767 O   0  0  0  0  0  0  0  0  0  1  0  0
  -24.1755   -9.0050   22.3026 F   0  0  0  0  0  0  0  0  0  0  0  0
  -21.1944  -11.0566   19.2514 F   0  0  0  0  0  0  0  0  0  0  0  0
  -29.5899  -24.5507   17.9200 F   0  0  0  0  0  0  0  0  0  0  0  0
  1  2  1  0  0  0  0
  1  5  2  0  0  0  0
  2  6  2  0  0  0  0
  3  8  2  0  0  0  0
  3 16  1  0  0  0  0
  4  9  1  0  0  0  0
  4 16  2  0  0  0  0
  5 19  1  0  0  0  0
  6 21  1  0  0  0  0
  7 10  2  0  0  0  0
  7 20  1  0  0  0  0
  8 26  1  0  0  0  0
  9 26  2  0  0  0  0
 10 27  1  0  0  0  0
 11 12  2  0  0  0  0
 11 28  1  0  0  0  0
 12 29  1  0  0  0  0
 13 22  1  0  0  0  0
 13 27  2  0  0  0  0
 14 23  1  0  0  0  0
 14 24  2  0  0  0  0
 15 29  2  0  0  0  0
 15 30  1  0  0  0  0
 16 32  1  0  0  0  0
 17 23  2  0  0  0  0
 17 31  1  0  0  0  0
 17 34  1  0  0  0  0
 18 32  1  0  0  0  0
 18 33  2  0  0  0  0
 18 35  1  0  0  0  0
 19 21  2  0  0  0  0
 19 40  1  0  0  0  0
 20 22  2  0  0  0  0
 20 41  1  0  0  0  0
 21 53  1  0  0  0  0
 22 42  1  0  0  0  0
 23 65  1  0  0  0  0
 24 25  1  0  0  0  0
 24 58  1  0  0  0  0
 25 31  2  0  0  0  0
 25 76  1  0  0  0  0
 26 86  1  0  0  0  0
 27 87  1  0  0  0  0
 28 30  2  0  0  0  0
 28 86  1  0  0  0  0
 29 88  1  0  0  0  0
 30 89  1  0  0  0  0
 31 90  1  0  0  0  0
 32 69  2  0  0  0  0
 33 71  1  0  0  0  0
 33 74  1  0  0  0  0
 34 70  2  0  0  0  0
 35 75  1  0  0  0  0
 35 81  2  0  0  0  0
 36 54  1  0  0  0  0
 36 77  1  0  0  0  0
 36 82  2  0  0  0  0
 37 66  1  0  0  0  0
 37 72  1  0  0  0  0
 37 83  2  0  0  0  0
 38 67  1  0  0  0  0
 38 78  1  0  0  0  0
 38 84  2  0  0  0  0
 39 73  1  0  0  0  0
 39 76  1  0  0  0  0
 39 85  2  0  0  0  0
 40 43  1  0  0  0  0
 41 54  1  0  0  0  0
 42 72  1  0  0  0  0
 43 46  1  0  0  0  0
 44 48  1  0  0  0  0
 44 49  1  0  0  0  0
 45 47  1  0  0  0  0
 45 50  1  0  0  0  0
 46 53  1  0  0  0  0
 47 55  1  0  0  0  0
 48 56  1  0  0  0  0
 49 57  1  0  0  0  0
 50 73  1  0  0  0  0
 51 55  1  0  0  0  0
 51 73  1  0  0  0  0
 52 56  1  0  0  0  0
 52 79  1  0  0  0  0
 53 77  1  0  0  0  0
 54 72  1  0  0  0  0
 55 71  1  0  0  0  0
 56 87  1  0  0  0  0
 57 59  1  0  0  0  0
 57 79  1  0  0  0  0
 60 67  1  0  0  0  0
 61 68  1  0  0  0  0
 62 68  1  0  0  0  0
 63 68  1  0  0  0  0
 64 80  1  0  0  0  0
 65 79  1  0  0  0  0
 66 68  1  0  0  0  0
 66 78  1  0  0  0  0
 67 80  1  0  0  0  0
 69 71  1  0  0  0  0
M  CHG  2  79   1  80   1
M  ISO  4  39 100  56 101  76 100  87 101
M  END
> <Batch ID>
0036

> <Smiles>
CNC(C)C(=O)NC(C(=O)N1Cc2cc([101O:1][101CH:1]3CCCC(C)N(Cc4cc(C)c([100NH:0][100C:0](=O)N5CCCC(n6nc(-c7ccc(Oc8ccc(F)cc8F)cc7)c(C(N)=O)c6N)C5)c(F)c4C=N)C3)ccc2CC1C(=O)NC1CCCc2ccccc21)C(C)(C)C

> <Shape>
0.221

> <Color>
0.088

> <Negative vol penalty>
0.000

$$$$

  -OEChem-04042321543D

 95105  0     1  0  0  0  0  0999 V2000
  -28.5672  -32.1175   26.3341 C   0  0  0  0  0  0  0  0  0  0  0  0
  -28.4944  -30.8496   25.7661 C   0  0  0  0  0  0  0  0  0  0  0  0
  -24.6729  -14.9522   24.5697 C   0  0  0  0  0  0  0  0  0  0  0  0
  -25.4509  -12.6780   24.8145 C   0  0  0  0  0  0  0  0  0  0  0  0
  -27.4144  -32.8918   26.4581 C   0  0  0  0  0  0  0  0  0  0  0  0
  -27.2685  -30.3549   25.3226 C   0  0  0  0  0  0  0  0  0  0  0  0
  -27.5936  -28.1494   20.7756 C   0  0  0  0  0  0  0  0  0  0  0  0
  -24.4476  -15.0231   25.9444 C   0  0  0  0  0  0  0  0  0  0  0  0
  -25.2256  -12.7489   26.1892 C   0  0  0  0  0  0  0  0  0  0  0  0
  -28.1223  -26.8602   20.7296 C   0  0  0  0  0  0  0  0  0  0  0  0
  -22.5882  -12.5485   28.2952 C   0  0  0  0  0  0  0  0  0  0  0  0
  -21.9485  -11.4686   28.9036 C   0  0  0  0  0  0  0  0  0  0  0  0
  -25.8898  -25.9559   20.5982 C   0  0  0  0  0  0  0  0  0  0  0  0
  -23.8742  -11.1271   30.3222 C   0  0  0  0  0  0  0  0  0  0  0  0
  -25.1745  -13.7796   24.0047 C   0  0  0  0  0  0  0  0  0  0  0  0
  -24.4568  -13.8654   21.5582 C   0  0  0  0  0  0  0  0  0  0  0  0
  -26.1753  -32.4101   26.0071 C   0  0  0  0  0  0  0  0  0  0  0  0
  -26.2063  -28.3513   20.7442 C   0  0  0  0  0  0  0  0  0  0  0  0
  -26.0977  -31.1230   25.4418 C   0  0  0  0  0  0  0  0  0  0  0  0
  -25.3461  -27.2488   20.6414 C   0  0  0  0  0  0  0  0  0  0  0  0
  -29.6691  -18.5896   19.0086 C   0  0  0  0  0  0  0  0  0  0  0  0
  -30.9664  -18.1998   19.3415 C   0  0  0  0  0  0  0  0  0  0  0  0
  -31.7768  -19.0468   20.0974 C   0  0  0  0  0  0  0  0  0  0  0  0
  -29.1823  -19.8265   19.4316 C   0  0  0  0  0  0  0  0  0  0  0  0
  -31.2900  -20.2837   20.5204 C   0  0  0  0  0  0  0  0  0  0  0  0
  -29.9927  -20.6735   20.1875 C   0  0  0  0  0  0  0  0  0  0  0  0
  -24.7240  -13.9215   26.7541 C   0  0  0  0  0  0  0  0  0  0  0  0
  -27.2703  -25.7630   20.6438 C   0  0  0  0  0  0  0  0  0  0  0  0
  -23.8710  -12.9177   28.7001 C   0  0  0  0  0  0  0  0  0  0  0  0
  -22.5915  -10.7580   29.9171 C   0  0  0  0  0  0  0  0  0  0  0  0
  -24.5140  -12.2070   29.7137 C   0  0  0  0  0  0  0  0  0  0  0  0
  -25.4069  -13.7055   22.5846 C   0  0  0  0  0  0  0  0  0  0  0  0
  -25.1741  -13.7043   20.3981 C   0  0  0  0  0  0  0  0  0  0  0  0
  -29.6135  -23.1255   19.8911 C   0  0  0  0  0  0  0  0  0  0  0  0
  -30.0380  -23.2685   18.6213 C   0  0  0  0  0  0  0  0  0  0  0  0
  -23.0514  -14.1355   21.6457 C   0  0  0  0  0  0  0  0  0  0  0  0
  -24.0793  -29.6250   22.7335 C   0  0  0  0  0  0  0  0  0  0  0  0
  -22.0498  -29.1482   20.2484 C   0  0  0  0  0  0  0  0  0  0  0  0
  -20.3985  -28.1310   17.4403 C   0  0  0  0  0  0  0  0  0  0  0  0
  -30.9581  -14.4536   19.0434 C   0  0  0  0  0  0  0  0  0  0  0  0
  -24.9485  -33.2647   26.2055 C   0  0  0  0  0  0  0  0  0  0  0  0
  -25.6528  -29.7497   20.7677 C   0  0  0  0  0  0  0  0  0  0  0  0
  -23.8500  -27.4128   20.5841 C   0  0  0  0  0  0  0  0  0  0  0  0
  -23.7526  -32.8170   25.3690 C   0  0  0  0  0  0  0  0  0  0  0  0
  -34.1616  -16.2276   23.9291 C   0  0  0  0  0  0  0  0  0  0  0  0
  -29.1879  -23.0433   22.8163 C   0  0  0  0  0  0  0  0  0  0  0  0
  -29.0382  -11.4794   18.6634 C   0  0  0  0  0  0  0  0  0  0  0  0
  -34.4408  -15.6824   22.5326 C   0  0  0  0  0  0  0  0  0  0  0  0
  -32.9044  -17.0904   23.9439 C   0  0  0  0  0  0  0  0  0  0  0  0
  -23.5657  -31.3065   25.4704 C   0  0  0  0  0  0  0  0  0  0  0  0
  -29.6779  -24.3027   22.0947 C   0  0  0  0  0  0  0  0  0  0  0  0
  -27.8041  -11.7271   19.5327 C   0  0  0  0  0  0  0  0  0  0  0  0
  -28.7584  -21.9014   21.8897 C   0  0  0  0  0  0  0  0  0  0  0  0
  -30.2970  -12.0787   19.2865 C   0  0  0  0  0  0  0  0  0  0  0  0
  -28.9620  -13.7566   20.5016 C   0  0  0  0  0  0  0  0  0  0  0  0
  -34.4989  -16.7941   21.4948 C   0  0  0  0  0  0  0  0  0  0  0  0
  -32.9676  -18.1969   22.9009 C   0  0  0  0  0  0  0  0  0  0  0  0
  -24.7905  -30.5613   24.9263 C   0  0  1  0  0  0  0  0  0  0  0  0
  -29.2036  -24.3794   20.6447 C   0  0  2  0  0  0  0  0  0  1  0  0
  -24.2061  -29.8117   21.2480 C   0  0  1  0  0  0  0  0  0  0  0  0
  -27.6582  -13.2192   19.8871 C   0  0  2  0  0  0  0  0  0  0  0  0
  -28.7995  -17.6803   18.1983 C   0  0  0  0  0  0  0  0  0  0  0  0
  -27.7894  -20.2410   19.0728 C   0  0  0  0  0  0  0  0  0  0  0  0
  -32.1629  -21.1906   21.3312 C   0  0  0  0  0  0  0  0  0  0  0  0
  -18.1079  -28.0636   16.4175 C   0  0  0  0  0  0  0  0  0  0  0  0
  -21.2977  -26.8353   22.0909 C   0  0  0  0  0  0  0  0  0  0  0  0
  -19.5009  -26.2135   20.4621 C   0  0  0  0  0  0  0  0  0  0  0  0
  -19.4337  -28.4301   21.6045 C   0  0  0  0  0  0  0  0  0  0  0  0
  -21.2474  -29.7962   15.1457 C   0  0  0  0  0  0  0  0  0  0  0  0
  -31.4886  -16.8730   18.8875 C   0  0  0  0  0  0  0  0  0  0  0  0
  -33.1687  -18.6288   20.4532 C   0  0  0  0  0  0  0  0  0  0  0  0
  -21.1558  -28.0174   19.8000 C   0  0  1  0  0  0  0  0  0  0  0  0
  -19.4064  -28.8456   16.5406 C   0  0  2  0  0  0  0  0  0  0  0  0
  -20.3742  -27.3758   20.9810 C   0  0  0  0  0  0  0  0  0  0  0  0
  -26.6342  -13.4614   22.1177 N   0  0  0  0  0  0  0  0  0  0  0  0
  -26.4602  -13.4666   20.7851 N   0  0  0  0  0  0  0  0  0  0  0  0
  -29.4975  -21.9308   20.6180 N   0  0  0  0  0  0  0  0  0  0  0  0
  -23.3570  -28.7997   20.6164 N   0  0  0  0  0  0  0  0  0  0  0  0
  -30.0930  -13.4957   19.5973 N   0  0  0  0  0  0  0  0  0  0  0  0
  -24.8240  -13.7442   19.0950 N   0  0  0  0  0  0  0  0  0  0  0  0
  -22.1655  -13.0515   21.7117 N   0  0  0  0  0  0  0  0  0  0  0  0
  -24.7771  -30.5559   23.4792 N   0  0  0  0  0  0  0  0  0  0  0  0
  -20.3058  -28.5621   18.7467 N   0  0  0  0  0  0  0  0  0  0  0  0
  -30.6907  -15.7740   19.3838 N   0  0  0  0  0  0  0  0  0  0  0  0
  -33.2162  -17.5905   21.5401 N   0  3  0  0  0  0  0  0  0  0  0  0
  -19.9791  -29.0233   15.1763 N   0  3  0  0  0  0  0  0  0  0  0  0
  -22.5937  -15.3035   21.6482 O   0  0  0  0  0  0  0  0  0  0  0  0
  -23.3976  -28.7053   23.1708 O   0  0  0  0  0  0  0  0  0  0  0  0
  -21.6068  -30.2993   20.2645 O   0  0  0  0  0  0  0  0  0  0  0  0
  -21.1753  -27.2732   17.0263 O   0  0  0  0  0  0  0  0  0  0  0  0
  -31.8959  -14.1549   18.2962 O   0  0  0  0  0  0  0  0  0  0  0  0
  -24.5045  -13.9905   28.0956 O   0  0  0  0  0  0  0  0  0  0  0  0
  -27.7837  -24.5035   20.5995 O   0  0  0  0  0  0  0  0  0  1  0  0
  -21.9764   -9.7219   30.5024 F   0  0  0  0  0  0  0  0  0  0  0  0
  -25.7458  -12.5577   30.1078 F   0  0  0  0  0  0  0  0  0  0  0  0
  1  2  1  0  0  0  0
  1  5  2  0  0  0  0
  2  6  2  0  0  0  0
  3  8  2  0  0  0  0
  3 15  1  0  0  0  0
  4  9  1  0  0  0  0
  4 15  2  0  0  0  0
  5 17  1  0  0  0  0
  6 19  1  0  0  0  0
  7 10  2  0  0  0  0
  7 18  1  0  0  0  0
  8 27  1  0  0  0  0
  9 27  2  0  0  0  0
 10 28  1  0  0  0  0
 11 12  2  0  0  0  0
 11 29  1  0  0  0  0
 12 30  1  0  0  0  0
 13 20  1  0  0  0  0
 13 28  2  0  0  0  0
 14 30  2  0  0  0  0
 14 31  1  0  0  0  0
 15 32  1  0  0  0  0
 16 32  1  0  0  0  0
 16 33  2  0  0  0  0
 16 36  1  0  0  0  0
 17 19  2  0  0  0  0
 17 41  1  0  0  0  0
 18 20  2  0  0  0  0
 18 42  1  0  0  0  0
 19 58  1  0  0  0  0
 20 43  1  0  0  0  0
 21 22  1  0  0  0  0
 21 24  2  0  0  0  0
 21 62  1  0  0  0  0
 22 23  2  0  0  0  0
 22 70  1  0  0  0  0
 23 25  1  0  0  0  0
 23 71  1  0  0  0  0
 24 26  1  0  0  0  0
 24 63  1  0  0  0  0
 25 26  2  0  0  0  0
 25 64  1  0  0  0  0
 26 77  1  0  0  0  0
 27 92  1  0  0  0  0
 28 93  1  0  0  0  0
 29 31  2  0  0  0  0
 29 92  1  0  0  0  0
 30 94  1  0  0  0  0
 31 95  1  0  0  0  0
 32 75  2  0  0  0  0
 33 76  1  0  0  0  0
 33 80  1  0  0  0  0
 34 35  2  0  0  0  0
 34 59  1  0  0  0  0
 34 77  1  0  0  0  0
 36 81  1  0  0  0  0
 36 87  2  0  0  0  0
 37 60  1  0  0  0  0
 37 82  1  0  0  0  0
 37 88  2  0  0  0  0
 38 72  1  0  0  0  0
 38 78  1  0  0  0  0
 38 89  2  0  0  0  0
 39 73  1  0  0  0  0
 39 83  1  0  0  0  0
 39 90  2  0  0  0  0
 40 79  1  0  0  0  0
 40 84  1  0  0  0  0
 40 91  2  0  0  0  0
 41 44  1  0  0  0  0
 42 60  1  0  0  0  0
 43 78  1  0  0  0  0
 44 50  1  0  0  0  0
 45 48  1  0  0  0  0
 45 49  1  0  0  0  0
 46 51  1  0  0  0  0
 46 53  1  0  0  0  0
 47 52  1  0  0  0  0
 47 54  1  0  0  0  0
 48 56  1  0  0  0  0
 49 57  1  0  0  0  0
 50 58  1  0  0  0  0
 51 59  1  0  0  0  0
 52 61  1  0  0  0  0
 53 77  1  0  0  0  0
 54 79  1  0  0  0  0
 55 61  1  0  0  0  0
 55 79  1  0  0  0  0
 56 85  1  0  0  0  0
 57 85  1  0  0  0  0
 58 82  1  0  0  0  0
 59 93  1  0  0  0  0
 60 78  1  0  0  0  0
 61 76  1  0  0  0  0
 65 73  1  0  0  0  0
 66 74  1  0  0  0  0
 67 74  1  0  0  0  0
 68 74  1  0  0  0  0
 69 86  1  0  0  0  0
 70 84  1  0  0  0  0
 71 85  1  0  0  0  0
 72 74  1  0  0  0  0
 72 83  1  0  0  0  0
 73 86  1  0  0  0  0
 75 76  1  0  0  0  0
M  CHG  2  85   1  86   1
M  ISO  4  40 100  59 101  84 100  93 101
M  END
> <Batch ID>
0036

> <Smiles>
C=C1N(c2c(C)c(C)c(C[100NH:0][100C:0](=O)N3CCCC(n4nc(-c5ccc(Oc6ccc(F)cc6F)cc5)c(C(N)=O)c4N)C3)c(CN3CCCCC3)c2C)CCC[101CH:1]1[101O:1]c1ccc2c(c1)CN(C(=O)C(NC(=O)C(C)NC)C(C)(C)C)C(C(=O)NC1CCCc3ccccc31)C2

> <Shape>
0.273

> <Color>
0.065

> <Negative vol penalty>
0.000

$$$$

  -OEChem-04042321543D

 88 97  0     1  0  0  0  0  0999 V2000
  -21.9417  -32.9732   22.0635 C   0  0  0  0  0  0  0  0  0  0  0  0
  -21.8320  -31.8541   21.2444 C   0  0  0  0  0  0  0  0  0  0  0  0
  -28.1388  -12.7812   21.4962 C   0  0  0  0  0  0  0  0  0  0  0  0
  -26.5177  -13.1212   19.7374 C   0  0  0  0  0  0  0  0  0  0  0  0
  -23.1785  -33.5949   22.2304 C   0  0  0  0  0  0  0  0  0  0  0  0
  -22.9588  -31.3567   20.5907 C   0  0  0  0  0  0  0  0  0  0  0  0
  -23.3132  -26.3142   20.8943 C   0  0  0  0  0  0  0  0  0  0  0  0
  -27.6598  -11.4852   21.6871 C   0  0  0  0  0  0  0  0  0  0  0  0
  -26.0387  -11.8251   19.9283 C   0  0  0  0  0  0  0  0  0  0  0  0
  -22.4991  -25.5664   20.0446 C   0  0  0  0  0  0  0  0  0  0  0  0
  -24.0103  -10.2134   22.1005 C   0  0  0  0  0  0  0  0  0  0  0  0
  -22.6278  -10.0329   22.1418 C   0  0  0  0  0  0  0  0  0  0  0  0
  -24.3671  -25.2379   18.5540 C   0  0  0  0  0  0  0  0  0  0  0  0
  -21.6917  -20.4505   17.7424 C   0  0  0  0  0  0  0  0  0  0  0  0
  -21.8800  -18.0931   17.2484 C   0  0  0  0  0  0  0  0  0  0  0  0
  -22.7644   -8.5509   20.2386 C   0  0  0  0  0  0  0  0  0  0  0  0
  -27.5676  -13.5993   20.5214 C   0  0  0  0  0  0  0  0  0  0  0  0
  -29.3683  -15.3180   19.9634 C   0  0  0  0  0  0  0  0  0  0  0  0
  -24.3229  -33.0992   21.5861 C   0  0  0  0  0  0  0  0  0  0  0  0
  -24.6598  -26.5390   20.5742 C   0  0  0  0  0  0  0  0  0  0  0  0
  -24.2118  -31.9732   20.7481 C   0  0  0  0  0  0  0  0  0  0  0  0
  -25.1967  -25.9867   19.4025 C   0  0  0  0  0  0  0  0  0  0  0  0
  -20.5058  -20.5092   17.0104 C   0  0  0  0  0  0  0  0  0  0  0  0
  -20.0070  -19.3599   16.3974 C   0  0  0  0  0  0  0  0  0  0  0  0
  -22.3788  -19.2424   17.8614 C   0  0  0  0  0  0  0  0  0  0  0  0
  -26.6098  -11.0071   20.9031 C   0  0  0  0  0  0  0  0  0  0  0  0
  -23.0253  -25.0306   18.8728 C   0  0  0  0  0  0  0  0  0  0  0  0
  -24.7699   -9.5628   21.1282 C   0  0  0  0  0  0  0  0  0  0  0  0
  -22.0049   -9.2017   21.2109 C   0  0  0  0  0  0  0  0  0  0  0  0
  -24.1470   -8.7315   20.1973 C   0  0  0  0  0  0  0  0  0  0  0  0
  -20.6941  -18.1518   16.5164 C   0  0  0  0  0  0  0  0  0  0  0  0
  -28.0615  -14.9384   20.3241 C   0  0  0  0  0  0  0  0  0  0  0  0
  -29.3237  -16.6895   19.9050 C   0  0  0  0  0  0  0  0  0  0  0  0
  -30.5195  -14.5036   19.7043 C   0  0  0  0  0  0  0  0  0  0  0  0
  -26.4243  -29.1153   19.9800 C   0  0  0  0  0  0  0  0  0  0  0  0
  -28.8533  -26.9656   19.9497 C   0  0  0  0  0  0  0  0  0  0  0  0
  -29.8548  -23.7315   19.5206 C   0  0  0  0  0  0  0  0  0  0  0  0
  -24.2230  -20.2274   19.2786 C   0  0  0  0  0  0  0  0  0  0  0  0
  -25.6290  -33.8332   21.7596 C   0  0  0  0  0  0  0  0  0  0  0  0
  -25.5315  -27.3253   21.5146 C   0  0  0  0  0  0  0  0  0  0  0  0
  -26.6413  -26.1820   19.0234 C   0  0  0  0  0  0  0  0  0  0  0  0
  -26.8467  -33.0198   21.3283 C   0  0  0  0  0  0  0  0  0  0  0  0
  -18.8776  -24.1466   13.9966 C   0  0  0  0  0  0  0  0  0  0  0  0
  -18.0404  -24.3022   15.2592 C   0  0  0  0  0  0  0  0  0  0  0  0
  -26.7669  -20.2576   21.9594 C   0  0  0  0  0  0  0  0  0  0  0  0
  -19.5982  -22.8027   13.9191 C   0  0  0  0  0  0  0  0  0  0  0  0
  -26.5980  -32.3637   19.9739 C   0  0  0  0  0  0  0  0  0  0  0  0
  -27.6809  -19.0613   21.6898 C   0  0  0  0  0  0  0  0  0  0  0  0
  -18.7971  -24.6577   16.5389 C   0  0  0  0  0  0  0  0  0  0  0  0
  -26.1715  -20.8464   20.6879 C   0  0  0  0  0  0  0  0  0  0  0  0
  -25.9838  -18.4817   19.8854 C   0  0  0  0  0  0  0  0  0  0  0  0
  -20.8502  -22.6820   14.7729 C   0  0  0  0  0  0  0  0  0  0  0  0
  -25.4160  -31.3891   20.0418 C   0  0  1  0  0  0  0  0  0  0  0  0
  -26.7579  -27.9241   20.8328 C   0  0  1  0  0  0  0  0  0  0  0  0
  -27.4621  -18.4351   20.3024 C   0  0  2  0  0  0  0  0  0  0  0  0
  -20.2896  -24.3305   16.6170 C   0  0  1  0  0  0  0  0  0  0  0  0
  -18.7335  -19.4402   15.6142 C   0  0  0  0  0  0  0  0  0  0  0  0
  -31.4034  -21.7569   19.4981 C   0  0  0  0  0  0  0  0  0  0  0  0
  -29.6164  -28.0547   17.2035 C   0  0  0  0  0  0  0  0  0  0  0  0
  -31.0130  -26.0060   16.8562 C   0  0  0  0  0  0  0  0  0  0  0  0
  -31.5533  -27.5816   18.7131 C   0  0  0  0  0  0  0  0  0  0  0  0
  -29.3092  -23.1243   22.3653 C   0  0  0  0  0  0  0  0  0  0  0  0
  -19.7877  -21.8217   16.8978 C   0  0  0  0  0  0  0  0  0  0  0  0
  -20.8446  -24.6300   18.0127 C   0  0  0  0  0  0  0  0  0  1  0  0
  -29.5078  -26.1068   18.8946 C   0  0  1  0  0  0  0  0  0  0  0  0
  -30.7584  -22.8381   20.3512 C   0  0  2  0  0  0  0  0  0  0  0  0
  -30.3949  -26.9350   17.9228 C   0  0  0  0  0  0  0  0  0  0  0  0
  -27.2463  -15.9843   20.4837 N   0  0  0  0  0  0  0  0  0  0  0  0
  -28.0429  -17.0346   20.2222 N   0  0  0  0  0  0  0  0  0  0  0  0
  -27.4515  -26.9636   19.9722 N   0  0  0  0  0  0  0  0  0  0  0  0
  -25.4190  -19.8413   19.9316 N   0  0  0  0  0  0  0  0  0  0  0  0
  -30.2555  -17.6219   19.6138 N   0  0  0  0  0  0  0  0  0  0  0  0
  -30.7451  -14.0634   18.3929 N   0  0  0  0  0  0  0  0  0  0  0  0
  -23.5837  -19.1836   18.6049 N   0  0  0  0  0  0  0  0  0  0  0  0
  -25.8189  -30.1488   20.6692 N   0  0  0  0  0  0  0  0  0  0  0  0
  -30.2248  -25.0568   19.6101 N   0  0  0  0  0  0  0  0  0  0  0  0
  -20.6196  -22.8956   16.2483 N   0  3  1  0  0  0  0  0  0  0  0  0
  -29.9786  -22.1780   21.4361 N   0  3  0  0  0  0  0  0  0  0  0  0
  -31.3154  -14.1624   20.6118 O   0  0  0  0  0  0  0  0  0  0  0  0
  -26.6973  -29.0987   18.7855 O   0  0  0  0  0  0  0  0  0  0  0  0
  -29.5600  -27.6088   20.7298 O   0  0  0  0  0  0  0  0  0  0  0  0
  -28.9171  -23.2966   18.8556 O   0  0  0  0  0  0  0  0  0  0  0  0
  -23.8012  -21.3847   19.3311 O   0  0  0  0  0  0  0  0  0  0  0  0
  -26.1424   -9.7424   21.0890 O   0  0  0  0  0  0  0  0  0  0  0  0
  -22.2328  -24.3008   18.0414 O   0  0  0  0  0  0  0  0  0  1  0  0
  -20.6774   -9.0272   21.2517 F   0  0  0  0  0  0  0  0  0  0  0  0
  -24.8716   -8.1028   19.2616 F   0  0  0  0  0  0  0  0  0  0  0  0
  -20.1088  -16.7064   15.7750 Cl  0  0  0  0  0  0  0  0  0  0  0  0
  1  2  1  0  0  0  0
  1  5  2  0  0  0  0
  2  6  2  0  0  0  0
  3  8  2  0  0  0  0
  3 17  1  0  0  0  0
  4  9  1  0  0  0  0
  4 17  2  0  0  0  0
  5 19  1  0  0  0  0
  6 21  1  0  0  0  0
  7 10  2  0  0  0  0
  7 20  1  0  0  0  0
  8 26  1  0  0  0  0
  9 26  2  0  0  0  0
 10 27  1  0  0  0  0
 11 12  2  0  0  0  0
 11 28  1  0  0  0  0
 12 29  1  0  0  0  0
 13 22  1  0  0  0  0
 13 27  2  0  0  0  0
 14 23  1  0  0  0  0
 14 25  2  0  0  0  0
 15 25  1  0  0  0  0
 15 31  2  0  0  0  0
 16 29  2  0  0  0  0
 16 30  1  0  0  0  0
 17 32  1  0  0  0  0
 18 32  1  0  0  0  0
 18 33  2  0  0  0  0
 18 34  1  0  0  0  0
 19 21  2  0  0  0  0
 19 39  1  0  0  0  0
 20 22  2  0  0  0  0
 20 40  1  0  0  0  0
 21 53  1  0  0  0  0
 22 41  1  0  0  0  0
 23 24  2  0  0  0  0
 23 63  1  0  0  0  0
 24 31  1  0  0  0  0
 24 57  1  0  0  0  0
 25 74  1  0  0  0  0
 26 84  1  0  0  0  0
 27 85  1  0  0  0  0
 28 30  2  0  0  0  0
 28 84  1  0  0  0  0
 29 86  1  0  0  0  0
 30 87  1  0  0  0  0
 31 88  1  0  0  0  0
 32 68  2  0  0  0  0
 33 69  1  0  0  0  0
 33 72  1  0  0  0  0
 34 73  1  0  0  0  0
 34 79  2  0  0  0  0
 35 54  1  0  0  0  0
 35 75  1  0  0  0  0
 35 80  2  0  0  0  0
 36 65  1  0  0  0  0
 36 70  1  0  0  0  0
 36 81  2  0  0  0  0
 37 66  1  0  0  0  0
 37 76  1  0  0  0  0
 37 82  2  0  0  0  0
 38 71  1  0  0  0  0
 38 74  1  0  0  0  0
 38 83  2  0  0  0  0
 39 42  1  0  0  0  0
 40 54  1  0  0  0  0
 41 70  1  0  0  0  0
 42 47  1  0  0  0  0
 43 44  1  0  0  0  0
 43 46  1  0  0  0  0
 44 49  1  0  0  0  0
 45 48  1  0  0  0  0
 45 50  1  0  0  0  0
 46 52  1  0  0  0  0
 47 53  1  0  0  0  0
 48 55  1  0  0  0  0
 49 56  1  0  0  0  0
 50 71  1  0  0  0  0
 51 55  1  0  0  0  0
 51 71  1  0  0  0  0
 52 77  1  0  0  0  0
 53 75  1  0  0  0  0
 54 70  1  0  0  0  0
 55 69  1  0  0  0  0
 56 64  1  0  0  0  0
 56 77  1  0  0  0  0
 58 66  1  0  0  0  0
 59 67  1  0  0  0  0
 60 67  1  0  0  0  0
 61 67  1  0  0  0  0
 62 78  1  0  0  0  0
 63 77  1  0  0  0  0
 64 85  1  0  0  0  0
 65 67  1  0  0  0  0
 65 76  1  0  0  0  0
 66 78  1  0  0  0  0
 68 69  1  0  0  0  0
M  CHG  2  77   1  78   1
M  ISO  4  38 100  64 101  74 100  85 101
M  END
> <Batch ID>
0036

> <Smiles>
CNC(C)C(=O)NC(C(=O)N1Cc2cc([101O:1][101CH2:1]C3CCCCCN3Cc3cc([100NH:0][100C:0](=O)N4CCCC(n5nc(-c6ccc(Oc7ccc(F)cc7F)cc6)c(C(N)=O)c5N)C4)cc(Cl)c3C)ccc2CC1C(=O)NC1CCCc2ccccc21)C(C)(C)C

> <Shape>
0.208

> <Color>
0.064

> <Negative vol penalty>
0.000

$$$$

  -OEChem-04042321543D

 84 92  0     1  0  0  0  0  0999 V2000
  -26.6726  -35.3219   23.1731 C   0  0  0  0  0  0  0  0  0  0  0  0
  -27.0992  -34.0102   22.9915 C   0  0  0  0  0  0  0  0  0  0  0  0
  -24.3118   -9.5354   22.0671 C   0  0  0  0  0  0  0  0  0  0  0  0
  -23.1844  -10.2649   20.0586 C   0  0  0  0  0  0  0  0  0  0  0  0
  -25.3693  -35.5774   23.5972 C   0  0  0  0  0  0  0  0  0  0  0  0
  -26.2229  -32.9532   23.2349 C   0  0  0  0  0  0  0  0  0  0  0  0
  -26.3807  -29.4239   19.6067 C   0  0  0  0  0  0  0  0  0  0  0  0
  -29.1407  -20.5191   16.8286 C   0  0  0  0  0  0  0  0  0  0  0  0
  -28.4633  -19.4403   16.2606 C   0  0  0  0  0  0  0  0  0  0  0  0
  -23.4073   -8.4809   22.1918 C   0  0  0  0  0  0  0  0  0  0  0  0
  -22.2799   -9.2103   20.1833 C   0  0  0  0  0  0  0  0  0  0  0  0
  -27.4520  -28.5321   19.6320 C   0  0  0  0  0  0  0  0  0  0  0  0
  -22.9317   -5.4308   20.8121 C   0  0  0  0  0  0  0  0  0  0  0  0
  -23.4443   -4.1695   21.1150 C   0  0  0  0  0  0  0  0  0  0  0  0
  -26.0395  -26.8742   20.6691 C   0  0  0  0  0  0  0  0  0  0  0  0
  -28.3055  -19.8960   19.0083 C   0  0  0  0  0  0  0  0  0  0  0  0
  -22.1286   -4.1210   23.1407 C   0  0  0  0  0  0  0  0  0  0  0  0
  -24.2003  -10.4275   21.0005 C   0  0  0  0  0  0  0  0  0  0  0  0
  -26.3601  -11.5089   20.1799 C   0  0  0  0  0  0  0  0  0  0  0  0
  -24.4736  -34.5233   23.8367 C   0  0  0  0  0  0  0  0  0  0  0  0
  -25.1315  -29.0507   20.1231 C   0  0  0  0  0  0  0  0  0  0  0  0
  -24.9068  -33.1948   23.6639 C   0  0  0  0  0  0  0  0  0  0  0  0
  -24.9532  -27.7622   20.6467 C   0  0  0  0  0  0  0  0  0  0  0  0
  -29.0619  -20.7470   18.2025 C   0  0  0  0  0  0  0  0  0  0  0  0
  -27.7069  -18.5893   17.0663 C   0  0  0  0  0  0  0  0  0  0  0  0
  -27.6280  -18.8171   18.4403 C   0  0  0  0  0  0  0  0  0  0  0  0
  -22.3914   -8.3183   21.2499 C   0  0  0  0  0  0  0  0  0  0  0  0
  -27.2823  -27.2580   20.1659 C   0  0  0  0  0  0  0  0  0  0  0  0
  -22.0175   -6.0373   21.6736 C   0  0  0  0  0  0  0  0  0  0  0  0
  -23.0428   -3.5145   22.2792 C   0  0  0  0  0  0  0  0  0  0  0  0
  -21.6159   -5.3824   22.8379 C   0  0  0  0  0  0  0  0  0  0  0  0
  -25.1339  -11.5173   20.8715 C   0  0  0  0  0  0  0  0  0  0  0  0
  -26.8626  -12.7748   20.3566 C   0  0  0  0  0  0  0  0  0  0  0  0
  -26.9886  -10.4513   19.4436 C   0  0  0  0  0  0  0  0  0  0  0  0
  -23.2774  -30.0954   22.4842 C   0  0  0  0  0  0  0  0  0  0  0  0
  -21.1843  -27.9323   21.2750 C   0  0  0  0  0  0  0  0  0  0  0  0
  -29.1509  -24.2308   19.4640 C   0  0  0  0  0  0  0  0  0  0  0  0
  -20.6860  -25.0760   19.4750 C   0  0  0  0  0  0  0  0  0  0  0  0
  -26.2112  -18.3037   20.4590 C   0  0  0  0  0  0  0  0  0  0  0  0
  -23.0890  -34.8472   24.3395 C   0  0  0  0  0  0  0  0  0  0  0  0
  -23.9787  -30.0151   20.0639 C   0  0  0  0  0  0  0  0  0  0  0  0
  -23.6269  -27.3056   21.1952 C   0  0  0  0  0  0  0  0  0  0  0  0
  -22.1082  -33.6841   24.2150 C   0  0  0  0  0  0  0  0  0  0  0  0
  -25.3642  -16.5159   23.4194 C   0  0  0  0  0  0  0  0  0  0  0  0
  -22.7431  -32.3937   24.7235 C   0  0  0  0  0  0  0  0  0  0  0  0
  -25.3297  -15.0554   22.9635 C   0  0  0  0  0  0  0  0  0  0  0  0
  -24.8288  -17.4588   22.3432 C   0  0  0  0  0  0  0  0  0  0  0  0
  -25.4249  -15.8572   20.5687 C   0  0  0  0  0  0  0  0  0  0  0  0
  -23.9781  -32.0223   23.8938 C   0  0  1  0  0  0  0  0  0  0  0  0
  -22.8887  -29.7068   21.0858 C   0  0  1  0  0  0  0  0  0  0  0  0
  -26.0150  -14.8759   21.5947 C   0  0  2  0  0  0  0  0  0  0  0  0
  -26.9910  -17.4420   16.4304 C   0  0  0  0  0  0  0  0  0  0  0  0
  -30.8284  -21.4796   19.8562 C   0  0  0  0  0  0  0  0  0  0  0  0
  -18.8683  -23.5345   18.6894 C   0  0  0  0  0  0  0  0  0  0  0  0
  -20.9745  -26.7534   24.0814 C   0  0  0  0  0  0  0  0  0  0  0  0
  -19.9411  -24.7095   23.0700 C   0  0  0  0  0  0  0  0  0  0  0  0
  -18.8018  -26.9180   22.8539 C   0  0  0  0  0  0  0  0  0  0  0  0
  -21.3240  -25.5853   16.6303 C   0  0  0  0  0  0  0  0  0  0  0  0
  -28.0142  -24.9960   20.1075 C   0  0  0  0  0  0  0  0  0  1  0  0
  -29.7974  -21.9178   18.8181 C   0  0  2  0  0  0  0  0  0  0  0  0
  -20.8998  -26.4695   21.5163 C   0  0  1  0  0  0  0  0  0  0  0  0
  -19.7188  -24.7492   18.3516 C   0  0  2  0  0  0  0  0  0  0  0  0
  -20.1799  -26.2216   22.8719 C   0  0  0  0  0  0  0  0  0  0  0  0
  -24.8734  -12.6952   21.4449 N   0  0  0  0  0  0  0  0  0  0  0  0
  -25.9429  -13.4386   21.1140 N   0  0  0  0  0  0  0  0  0  0  0  0
  -22.5320  -28.2870   21.1207 N   0  0  0  0  0  0  0  0  0  0  0  0
  -25.5274  -17.2346   21.0757 N   0  0  0  0  0  0  0  0  0  0  0  0
  -27.9972  -13.3738   19.9365 N   0  0  0  0  0  0  0  0  0  0  0  0
  -26.3351   -9.2140   19.3619 N   0  0  0  0  0  0  0  0  0  0  0  0
  -26.8654  -17.9635   19.2755 N   0  0  0  0  0  0  0  0  0  0  0  0
  -23.5814  -31.4353   22.6319 N   0  0  0  0  0  0  0  0  0  0  0  0
  -28.8769  -22.8742   19.3880 N   0  0  0  0  0  0  0  0  0  0  0  0
  -20.1577  -26.0004   20.3511 N   0  0  0  0  0  0  0  0  0  0  0  0
  -20.4640  -24.4656   17.0925 N   0  3  0  0  0  0  0  0  0  0  0  0
  -28.1045  -10.5940   18.8887 O   0  0  0  0  0  0  0  0  0  0  0  0
  -23.2985  -29.2430   23.3644 O   0  0  0  0  0  0  0  0  0  0  0  0
  -20.2449  -28.7298   21.2181 O   0  0  0  0  0  0  0  0  0  0  0  0
  -30.1784  -24.7750   19.0690 O   0  0  0  0  0  0  0  0  0  0  0  0
  -21.7975  -24.5599   19.5682 O   0  0  0  0  0  0  0  0  0  0  0  0
  -26.2387  -19.4311   20.9592 O   0  0  0  0  0  0  0  0  0  0  0  0
  -21.5088   -7.2893   21.3712 O   0  0  0  0  0  0  0  0  0  0  0  0
  -28.3265  -26.3858   20.1925 O   0  0  0  0  0  0  0  0  0  1  0  0
  -23.5340   -2.3026   22.5691 F   0  0  0  0  0  0  0  0  0  0  0  0
  -20.7371   -5.9595   23.6688 F   0  0  0  0  0  0  0  0  0  0  0  0
  1  2  1  0  0  0  0
  1  5  2  0  0  0  0
  2  6  2  0  0  0  0
  3 10  2  0  0  0  0
  3 18  1  0  0  0  0
  4 11  1  0  0  0  0
  4 18  2  0  0  0  0
  5 20  1  0  0  0  0
  6 22  1  0  0  0  0
  7 12  2  0  0  0  0
  7 21  1  0  0  0  0
  8  9  2  0  0  0  0
  8 24  1  0  0  0  0
  9 25  1  0  0  0  0
 10 27  1  0  0  0  0
 11 27  2  0  0  0  0
 12 28  1  0  0  0  0
 13 14  2  0  0  0  0
 13 29  1  0  0  0  0
 14 30  1  0  0  0  0
 15 23  1  0  0  0  0
 15 28  2  0  0  0  0
 16 24  2  0  0  0  0
 16 26  1  0  0  0  0
 17 30  2  0  0  0  0
 17 31  1  0  0  0  0
 18 32  1  0  0  0  0
 19 32  1  0  0  0  0
 19 33  2  0  0  0  0
 19 34  1  0  0  0  0
 20 22  2  0  0  0  0
 20 40  1  0  0  0  0
 21 23  2  0  0  0  0
 21 41  1  0  0  0  0
 22 49  1  0  0  0  0
 23 42  1  0  0  0  0
 24 60  1  0  0  0  0
 25 26  2  0  0  0  0
 25 52  1  0  0  0  0
 26 70  1  0  0  0  0
 27 81  1  0  0  0  0
 28 82  1  0  0  0  0
 29 31  2  0  0  0  0
 29 81  1  0  0  0  0
 30 83  1  0  0  0  0
 31 84  1  0  0  0  0
 32 64  2  0  0  0  0
 33 65  1  0  0  0  0
 33 68  1  0  0  0  0
 34 69  1  0  0  0  0
 34 75  2  0  0  0  0
 35 50  1  0  0  0  0
 35 71  1  0  0  0  0
 35 76  2  0  0  0  0
 36 61  1  0  0  0  0
 36 66  1  0  0  0  0
 36 77  2  0  0  0  0
 37 59  1  0  0  0  0
 37 72  1  0  0  0  0
 37 78  2  0  0  0  0
 38 62  1  0  0  0  0
 38 73  1  0  0  0  0
 38 79  2  0  0  0  0
 39 67  1  0  0  0  0
 39 70  1  0  0  0  0
 39 80  2  0  0  0  0
 40 43  1  0  0  0  0
 41 50  1  0  0  0  0
 42 66  1  0  0  0  0
 43 45  1  0  0  0  0
 44 46  1  0  0  0  0
 44 47  1  0  0  0  0
 45 49  1  0  0  0  0
 46 51  1  0  0  0  0
 47 67  1  0  0  0  0
 48 51  1  0  0  0  0
 48 67  1  0  0  0  0
 49 71  1  0  0  0  0
 50 66  1  0  0  0  0
 51 65  1  0  0  0  0
 53 60  1  0  0  0  0
 54 62  1  0  0  0  0
 55 63  1  0  0  0  0
 56 63  1  0  0  0  0
 57 63  1  0  0  0  0
 58 74  1  0  0  0  0
 59 82  1  0  0  0  0
 60 72  1  0  0  0  0
 61 63  1  0  0  0  0
 61 73  1  0  0  0  0
 62 74  1  0  0  0  0
 64 65  1  0  0  0  0
M  CHG  1  74   1
M  ISO  4  39 100  59 101  70 100  82 101
M  END
> <Batch ID>
0036

> <Smiles>
CNC(C)C(=O)NC(C(=O)N1Cc2cc([101O:1][101CH2:1]C(=O)NC(C)c3ccc(C)c([100NH:0][100C:0](=O)N4CCCC(n5nc(-c6ccc(Oc7ccc(F)cc7F)cc6)c(C(N)=O)c5N)C4)c3)ccc2CC1C(=O)NC1CCCc2ccccc21)C(C)(C)C

> <Shape>
0.314

> <Color>
0.113

> <Negative vol penalty>
0.000

$$$$

  -OEChem-04042321543D

 87 96  0     1  0  0  0  0  0999 V2000
  -16.4103  -30.7912   23.9016 C   0  0  0  0  0  0  0  0  0  0  0  0
  -16.1721  -29.7322   23.0314 C   0  0  0  0  0  0  0  0  0  0  0  0
  -22.7199  -10.2677   20.1907 C   0  0  0  0  0  0  0  0  0  0  0  0
  -24.2971   -9.4294   21.8176 C   0  0  0  0  0  0  0  0  0  0  0  0
  -17.7148  -31.2316   24.1213 C   0  0  0  0  0  0  0  0  0  0  0  0
  -17.2384  -29.1136   22.3796 C   0  0  0  0  0  0  0  0  0  0  0  0
  -19.3253  -22.7169   19.9213 C   0  0  0  0  0  0  0  0  0  0  0  0
  -21.9636   -9.1032   20.3238 C   0  0  0  0  0  0  0  0  0  0  0  0
  -23.5408   -8.2649   21.9508 C   0  0  0  0  0  0  0  0  0  0  0  0
  -19.8080  -22.1143   18.7604 C   0  0  0  0  0  0  0  0  0  0  0  0
  -22.0906   -5.9113   19.2192 C   0  0  0  0  0  0  0  0  0  0  0  0
  -21.6324   -5.3001   18.0522 C   0  0  0  0  0  0  0  0  0  0  0  0
  -22.0263  -22.9082   19.2778 C   0  0  0  0  0  0  0  0  0  0  0  0
  -26.2888  -19.4347   15.2972 C   0  0  0  0  0  0  0  0  0  0  0  0
  -25.8008  -19.2957   17.6593 C   0  0  0  0  0  0  0  0  0  0  0  0
  -19.3523   -5.5828   18.7994 C   0  0  0  0  0  0  0  0  0  0  0  0
  -23.8867  -10.4307   20.9375 C   0  0  0  0  0  0  0  0  0  0  0  0
  -27.7366  -18.1661   16.7571 C   0  0  0  0  0  0  0  0  0  0  0  0
  -24.2499  -12.9531   21.0532 C   0  0  0  0  0  0  0  0  0  0  0  0
  -18.7984  -30.6117   23.4793 C   0  0  0  0  0  0  0  0  0  0  0  0
  -20.1890  -23.4301   20.7650 C   0  0  0  0  0  0  0  0  0  0  0  0
  -18.5585  -29.5469   22.5900 C   0  0  0  0  0  0  0  0  0  0  0  0
  -21.5526  -23.5168   20.4502 C   0  0  0  0  0  0  0  0  0  0  0  0
  -27.4167  -18.6354   15.4831 C   0  0  0  0  0  0  0  0  0  0  0  0
  -25.4809  -19.7649   16.3853 C   0  0  0  0  0  0  0  0  0  0  0  0
  -22.3740   -8.1019   21.2039 C   0  0  0  0  0  0  0  0  0  0  0  0
  -21.1581  -22.2124   18.4370 C   0  0  0  0  0  0  0  0  0  0  0  0
  -21.1797   -6.3582   20.1764 C   0  0  0  0  0  0  0  0  0  0  0  0
  -20.2632   -5.1358   17.8423 C   0  0  0  0  0  0  0  0  0  0  0  0
  -19.8106   -6.1940   19.9665 C   0  0  0  0  0  0  0  0  0  0  0  0
  -26.9287  -18.4963   17.8453 C   0  0  0  0  0  0  0  0  0  0  0  0
  -24.6686  -11.6331   20.8000 C   0  0  0  0  0  0  0  0  0  0  0  0
  -25.3529  -13.7226   20.7747 C   0  0  0  0  0  0  0  0  0  0  0  0
  -23.5328  -20.6765   15.0711 C   0  0  0  0  0  0  0  0  0  0  0  0
  -23.3334  -19.8190   14.0598 C   0  0  0  0  0  0  0  0  0  0  0  0
  -28.9418  -17.3160   16.9352 C   0  0  0  0  0  0  0  0  0  0  0  0
  -22.9776  -13.4401   21.5003 C   0  0  0  0  0  0  0  0  0  0  0  0
  -20.3844  -26.4487   21.7414 C   0  0  0  0  0  0  0  0  0  0  0  0
  -22.7478  -25.2764   23.6288 C   0  0  0  0  0  0  0  0  0  0  0  0
  -25.0979  -22.8605   24.1647 C   0  0  0  0  0  0  0  0  0  0  0  0
  -29.6921  -15.0526   17.5966 C   0  0  0  0  0  0  0  0  0  0  0  0
  -20.1866  -31.1535   23.7120 C   0  0  0  0  0  0  0  0  0  0  0  0
  -19.6577  -24.0517   22.0274 C   0  0  0  0  0  0  0  0  0  0  0  0
  -22.5250  -24.2538   21.3331 C   0  0  0  0  0  0  0  0  0  0  0  0
  -22.7326  -21.9569   15.1727 C   0  0  0  0  0  0  0  0  0  0  0  0
  -21.2943  -30.2006   23.2702 C   0  0  0  0  0  0  0  0  0  0  0  0
  -30.1586  -12.3956   19.8813 C   0  0  0  0  0  0  0  0  0  0  0  0
  -20.9952  -29.6407   21.8832 C   0  0  0  0  0  0  0  0  0  0  0  0
  -28.7385  -12.0716   20.3531 C   0  0  0  0  0  0  0  0  0  0  0  0
  -30.1942  -12.7610   18.3980 C   0  0  0  0  0  0  0  0  0  0  0  0
  -27.8452  -13.4929   18.4648 C   0  0  0  0  0  0  0  0  0  0  0  0
  -24.0554  -21.6214   17.1878 C   0  0  0  0  0  0  0  0  0  0  0  0
  -19.6910  -28.8341   21.8833 C   0  0  1  0  0  0  0  0  0  0  0  0
  -20.5315  -25.1890   22.5471 C   0  0  1  0  0  0  0  0  0  0  0  0
  -27.7462  -13.1871   19.9681 C   0  0  1  0  0  0  0  0  0  0  0  0
  -22.7513  -22.2422   16.6738 C   0  0  2  0  0  0  0  0  0  1  0  0
  -28.2615  -18.2997   14.2969 C   0  0  0  0  0  0  0  0  0  0  0  0
  -26.9042  -22.1917   25.7733 C   0  0  0  0  0  0  0  0  0  0  0  0
  -24.5651  -27.4444   22.4857 C   0  0  0  0  0  0  0  0  0  0  0  0
  -26.5285  -26.1675   23.3703 C   0  0  0  0  0  0  0  0  0  0  0  0
  -24.8141  -27.0642   24.9449 C   0  0  0  0  0  0  0  0  0  0  0  0
  -23.7493  -20.3029   24.7962 C   0  0  0  0  0  0  0  0  0  0  0  0
  -24.2380  -25.0849   23.4813 C   0  0  1  0  0  0  0  0  0  0  0  0
  -25.4383  -22.0421   25.3971 C   0  0  2  0  0  0  0  0  0  0  0  0
  -25.0180  -26.4279   23.5527 C   0  0  0  0  0  0  0  0  0  0  0  0
  -25.9385  -11.5644   20.3918 N   0  0  0  0  0  0  0  0  0  0  0  0
  -26.3272  -12.8508   20.3864 N   0  0  0  0  0  0  0  0  0  0  0  0
  -24.3415  -20.5726   16.1972 N   0  0  0  0  0  0  0  0  0  0  0  0
  -21.9560  -24.8499   22.5531 N   0  0  0  0  0  0  0  0  0  0  0  0
  -29.2340  -13.8300   18.1177 N   0  0  0  0  0  0  0  0  0  0  0  0
  -25.5747  -15.0533   20.8264 N   0  0  0  0  0  0  0  0  0  0  0  0
  -22.7550  -13.5600   22.8789 N   0  0  0  0  0  0  0  0  0  0  0  0
  -28.7033  -16.0238   17.4038 N   0  0  0  0  0  0  0  0  0  0  0  0
  -19.9061  -27.5256   22.4631 N   0  0  0  0  0  0  0  0  0  0  0  0
  -24.6272  -24.1131   24.4974 N   0  0  0  0  0  0  0  0  0  0  0  0
  -25.1608  -20.5983   25.1531 N   0  3  0  0  0  0  0  0  0  0  0  0
  -30.0426  -17.7682   16.6324 O   0  0  0  0  0  0  0  0  0  0  0  0
  -22.0594  -13.7439   20.7015 O   0  0  0  0  0  0  0  0  0  0  0  0
  -20.6842  -26.4444   20.5531 O   0  0  0  0  0  0  0  0  0  0  0  0
  -22.3022  -25.7790   24.6634 O   0  0  0  0  0  0  0  0  0  0  0  0
  -25.2393  -22.4328   23.0212 O   0  0  0  0  0  0  0  0  0  0  0  0
  -30.8837  -15.2741   17.3592 O   0  0  0  0  0  0  0  0  0  0  0  0
  -21.6362   -6.9656   21.3342 O   0  0  0  0  0  0  0  0  0  0  0  0
  -21.6317  -21.6257   17.3041 O   0  0  0  0  0  0  0  0  0  1  0  0
  -19.8233   -4.5502   16.7208 F   0  0  0  0  0  0  0  0  0  0  0  0
  -18.9306   -6.6224   20.8819 F   0  0  0  0  0  0  0  0  0  0  0  0
  -27.2861  -17.9379   19.4407 Cl  0  0  0  0  0  0  0  0  0  0  0  0
  1  2  1  0  0  0  0
  1  5  2  0  0  0  0
  2  6  2  0  0  0  0
  3  8  2  0  0  0  0
  3 17  1  0  0  0  0
  4  9  1  0  0  0  0
  4 17  2  0  0  0  0
  5 20  1  0  0  0  0
  6 22  1  0  0  0  0
  7 10  2  0  0  0  0
  7 21  1  0  0  0  0
  8 26  1  0  0  0  0
  9 26  2  0  0  0  0
 10 27  1  0  0  0  0
 11 12  2  0  0  0  0
 11 28  1  0  0  0  0
 12 29  1  0  0  0  0
 13 23  1  0  0  0  0
 13 27  2  0  0  0  0
 14 24  2  0  0  0  0
 14 25  1  0  0  0  0
 15 25  2  0  0  0  0
 15 31  1  0  0  0  0
 16 29  2  0  0  0  0
 16 30  1  0  0  0  0
 17 32  1  0  0  0  0
 18 24  1  0  0  0  0
 18 31  2  0  0  0  0
 18 36  1  0  0  0  0
 19 32  1  0  0  0  0
 19 33  2  0  0  0  0
 19 37  1  0  0  0  0
 20 22  2  0  0  0  0
 20 42  1  0  0  0  0
 21 23  2  0  0  0  0
 21 43  1  0  0  0  0
 22 53  1  0  0  0  0
 23 44  1  0  0  0  0
 24 57  1  0  0  0  0
 25 68  1  0  0  0  0
 26 83  1  0  0  0  0
 27 84  1  0  0  0  0
 28 30  2  0  0  0  0
 28 83  1  0  0  0  0
 29 85  1  0  0  0  0
 30 86  1  0  0  0  0
 31 87  1  0  0  0  0
 32 66  2  0  0  0  0
 33 67  1  0  0  0  0
 33 71  1  0  0  0  0
 34 35  2  0  0  0  0
 34 45  1  0  0  0  0
 34 68  1  0  0  0  0
 36 73  1  0  0  0  0
 36 77  2  0  0  0  0
 37 72  1  0  0  0  0
 37 78  2  0  0  0  0
 38 54  1  0  0  0  0
 38 74  1  0  0  0  0
 38 79  2  0  0  0  0
 39 63  1  0  0  0  0
 39 69  1  0  0  0  0
 39 80  2  0  0  0  0
 40 64  1  0  0  0  0
 40 75  1  0  0  0  0
 40 81  2  0  0  0  0
 41 70  1  0  0  0  0
 41 73  1  0  0  0  0
 41 82  2  0  0  0  0
 42 46  1  0  0  0  0
 43 54  1  0  0  0  0
 44 69  1  0  0  0  0
 45 56  1  0  0  0  0
 46 48  1  0  0  0  0
 47 49  1  0  0  0  0
 47 50  1  0  0  0  0
 48 53  1  0  0  0  0
 49 55  1  0  0  0  0
 50 70  1  0  0  0  0
 51 55  1  0  0  0  0
 51 70  1  0  0  0  0
 52 56  1  0  0  0  0
 52 68  1  0  0  0  0
 53 74  1  0  0  0  0
 54 69  1  0  0  0  0
 55 67  1  0  0  0  0
 56 84  1  0  0  0  0
 58 64  1  0  0  0  0
 59 65  1  0  0  0  0
 60 65  1  0  0  0  0
 61 65  1  0  0  0  0
 62 76  1  0  0  0  0
 63 65  1  0  0  0  0
 63 75  1  0  0  0  0
 64 76  1  0  0  0  0
 66 67  1  0  0  0  0
M  CHG  1  76   1
M  ISO  4  41 100  56 101  73 100  84 101
M  END
> <Batch ID>
0036

> <Smiles>
C=C1C[101CH:1]([101O:1]c2ccc3c(c2)CN(C(=O)C(NC(=O)C(C)NC)C(C)(C)C)C(C(=O)NC2CCCc4ccccc42)C3)CN1c1cc(C)c(C(=O)[100NH:0][100C:0](=O)N2CCCC(n3nc(-c4ccc(Oc5ccc(F)cc5F)cc4)c(C(N)=O)c3N)C2)c(Cl)c1

> <Shape>
0.193

> <Color>
0.153

> <Negative vol penalty>
0.000

$$$$

  -OEChem-04042321543D

 91100  0     1  0  0  0  0  0999 V2000
  -29.5377  -23.5906   20.1585 C   0  0  0  0  0  0  0  0  0  0  0  0
  -28.5335  -24.4296   19.6888 C   0  0  0  0  0  0  0  0  0  0  0  0
  -24.0455  -12.9189   20.1826 C   0  0  0  0  0  0  0  0  0  0  0  0
  -26.4268  -13.0308   20.5748 C   0  0  0  0  0  0  0  0  0  0  0  0
  -29.9200  -23.6490   21.4970 C   0  0  0  0  0  0  0  0  0  0  0  0
  -27.9197  -25.3356   20.5545 C   0  0  0  0  0  0  0  0  0  0  0  0
  -23.2711  -29.1659   19.6347 C   0  0  0  0  0  0  0  0  0  0  0  0
  -21.7188  -25.5209   23.3957 C   0  0  0  0  0  0  0  0  0  0  0  0
  -22.6266  -24.5113   23.0763 C   0  0  0  0  0  0  0  0  0  0  0  0
  -23.9613  -11.8011   21.0126 C   0  0  0  0  0  0  0  0  0  0  0  0
  -26.3426  -11.9129   21.4048 C   0  0  0  0  0  0  0  0  0  0  0  0
  -21.8840  -29.1532   19.7749 C   0  0  0  0  0  0  0  0  0  0  0  0
  -23.8991  -11.1624   24.3324 C   0  0  0  0  0  0  0  0  0  0  0  0
  -22.8628  -11.1242   25.2652 C   0  0  0  0  0  0  0  0  0  0  0  0
  -22.0981  -30.2166   21.9295 C   0  0  0  0  0  0  0  0  0  0  0  0
  -22.0245   -9.0980   24.2509 C   0  0  0  0  0  0  0  0  0  0  0  0
  -25.2783  -13.5338   19.9637 C   0  0  0  0  0  0  0  0  0  0  0  0
  -25.0181  -14.7638   17.7440 C   0  0  0  0  0  0  0  0  0  0  0  0
  -29.3015  -24.5477   22.3817 C   0  0  0  0  0  0  0  0  0  0  0  0
  -24.0840  -29.6951   20.6474 C   0  0  0  0  0  0  0  0  0  0  0  0
  -28.3083  -25.4263   21.9033 C   0  0  0  0  0  0  0  0  0  0  0  0
  -23.4951  -30.2372   21.7986 C   0  0  0  0  0  0  0  0  0  0  0  0
  -20.3790  -25.2072   23.6249 C   0  0  0  0  0  0  0  0  0  0  0  0
  -22.1948  -23.1881   22.9859 C   0  0  0  0  0  0  0  0  0  0  0  0
  -19.9472  -23.8840   23.5345 C   0  0  0  0  0  0  0  0  0  0  0  0
  -20.8551  -22.8744   23.2150 C   0  0  0  0  0  0  0  0  0  0  0  0
  -25.1098  -11.2980   21.6237 C   0  0  0  0  0  0  0  0  0  0  0  0
  -21.2975  -29.6759   20.9237 C   0  0  0  0  0  0  0  0  0  0  0  0
  -23.9981  -10.1684   23.3587 C   0  0  0  0  0  0  0  0  0  0  0  0
  -21.9255  -10.0920   25.2245 C   0  0  0  0  0  0  0  0  0  0  0  0
  -23.0608   -9.1362   23.3180 C   0  0  0  0  0  0  0  0  0  0  0  0
  -25.3660  -14.6882   19.1060 C   0  0  0  0  0  0  0  0  0  0  0  0
  -25.2837  -16.0650   17.3934 C   0  0  0  0  0  0  0  0  0  0  0  0
  -17.3340  -27.3502   23.3096 C   0  0  0  0  0  0  0  0  0  0  0  0
  -16.1914  -26.6481   23.3459 C   0  0  0  0  0  0  0  0  0  0  0  0
  -24.5010  -13.7486   16.8735 C   0  0  0  0  0  0  0  0  0  0  0  0
  -26.3473  -28.5250   22.5479 C   0  0  0  0  0  0  0  0  0  0  0  0
  -26.6571  -31.6283   23.4401 C   0  0  0  0  0  0  0  0  0  0  0  0
  -24.4543  -34.3911   24.1695 C   0  0  0  0  0  0  0  0  0  0  0  0
  -25.5626  -21.1572   20.5306 C   0  0  0  0  0  0  0  0  0  0  0  0
  -29.7597  -24.5744   23.8186 C   0  0  0  0  0  0  0  0  0  0  0  0
  -25.5772  -29.7256   20.4691 C   0  0  0  0  0  0  0  0  0  0  0  0
  -24.3223  -30.8354   22.9060 C   0  0  0  0  0  0  0  0  0  0  0  0
  -17.4210  -28.7969   23.7136 C   0  0  0  0  0  0  0  0  0  0  0  0
  -28.7553  -25.2443   24.7506 C   0  0  0  0  0  0  0  0  0  0  0  0
  -18.1099  -29.6110   22.6251 C   0  0  0  0  0  0  0  0  0  0  0  0
  -28.1348  -19.7387   18.5185 C   0  0  0  0  0  0  0  0  0  0  0  0
  -28.3261  -26.5854   24.1746 C   0  0  0  0  0  0  0  0  0  0  0  0
  -27.6854  -18.2903   18.3180 C   0  0  0  0  0  0  0  0  0  0  0  0
  -27.7839  -20.2504   19.9139 C   0  0  0  0  0  0  0  0  0  0  0  0
  -25.9164  -18.6519   20.0896 C   0  0  0  0  0  0  0  0  0  0  0  0
  -19.1820  -27.5032   21.7464 C   0  0  0  0  0  0  0  0  0  0  0  0
  -27.6053  -26.3984   22.8336 C   0  0  1  0  0  0  0  0  0  0  0  0
  -26.3348  -29.8222   21.7898 C   0  0  1  0  0  0  0  0  0  0  0  0
  -26.1985  -18.1095   18.6780 C   0  0  2  0  0  0  0  0  0  0  0  0
  -19.4128  -28.9497   22.1762 C   0  0  1  0  0  0  0  0  0  1  0  0
  -18.5102  -23.5504   23.7820 C   0  0  0  0  0  0  0  0  0  0  0  0
  -20.3935  -21.4548   23.1160 C   0  0  0  0  0  0  0  0  0  0  0  0
  -24.8277  -36.8663   23.9920 C   0  0  0  0  0  0  0  0  0  0  0  0
  -27.4277  -31.4307   26.3858 C   0  0  0  0  0  0  0  0  0  0  0  0
  -26.2720  -33.6193   26.7631 C   0  0  0  0  0  0  0  0  0  0  0  0
  -28.2375  -33.4964   25.2320 C   0  0  0  0  0  0  0  0  0  0  0  0
  -22.0892  -34.7400   22.4249 C   0  0  0  0  0  0  0  0  0  0  0  0
  -19.4235  -26.3121   23.9673 C   0  0  0  0  0  0  0  0  0  0  0  0
  -23.2758  -21.9161   21.1254 C   0  0  0  0  0  0  0  0  0  0  0  0
  -26.0309  -32.5041   24.4983 C   0  0  1  0  0  0  0  0  0  0  0  0
  -24.2425  -35.6327   23.3222 C   0  0  2  0  0  0  0  0  0  0  0  0
  -23.1873  -22.1263   22.6402 C   0  0  0  0  0  0  0  0  0  0  0  0
  -26.9780  -32.7406   25.7085 C   0  0  0  0  0  0  0  0  0  0  0  0
  -25.8182  -15.8490   19.5878 N   0  0  0  0  0  0  0  0  0  0  0  0
  -25.7564  -16.6662   18.5227 N   0  0  0  0  0  0  0  0  0  0  0  0
  -25.7783  -30.8363   22.6877 N   0  0  0  0  0  0  0  0  0  0  0  0
  -26.3595  -20.0511   20.1922 N   0  0  0  0  0  0  0  0  0  0  0  0
  -25.1567  -16.7420   16.2324 N   0  0  0  0  0  0  0  0  0  0  0  0
  -24.2871  -12.4659   17.3962 N   0  0  0  0  0  0  0  0  0  0  0  0
  -27.4017  -27.6933   22.2224 N   0  0  0  0  0  0  0  0  0  0  0  0
  -25.6107  -33.7259   23.8207 N   0  0  0  0  0  0  0  0  0  0  0  0
  -24.2224  -20.8815   20.7726 N   0  0  0  0  0  0  0  0  0  0  0  0
  -18.5182  -26.6830   22.8254 N   0  3  1  0  0  0  0  0  0  0  0  0
  -22.7876  -35.8651   23.0983 N   0  3  0  0  0  0  0  0  0  0  0  0
  -24.2520  -13.9680   15.6638 O   0  0  0  0  0  0  0  0  0  0  0  0
  -25.4665  -28.2964   23.3686 O   0  0  0  0  0  0  0  0  0  0  0  0
  -27.8803  -31.6517   23.2819 O   0  0  0  0  0  0  0  0  0  0  0  0
  -23.6741  -34.0478   25.0549 O   0  0  0  0  0  0  0  0  0  0  0  0
  -26.0112  -22.3062   20.6061 O   0  0  0  0  0  0  0  0  0  0  0  0
  -25.0280  -10.2074   22.4338 O   0  0  0  0  0  0  0  0  0  0  0  0
  -19.9439  -29.6642   21.0634 O   0  0  0  0  0  0  0  0  0  1  0  0
  -20.9313  -10.0545   26.1213 F   0  0  0  0  0  0  0  0  0  0  0  0
  -23.1514   -8.1779   22.3857 F   0  0  0  0  0  0  0  0  0  0  0  0
  -24.4489  -22.4149   23.0938 F   0  0  0  0  0  0  0  0  0  0  0  0
  -22.8852  -20.9161   23.2103 F   0  0  0  0  0  0  0  0  0  0  0  0
  1  2  1  0  0  0  0
  1  5  2  0  0  0  0
  2  6  2  0  0  0  0
  3 10  2  0  0  0  0
  3 17  1  0  0  0  0
  4 11  1  0  0  0  0
  4 17  2  0  0  0  0
  5 19  1  0  0  0  0
  6 21  1  0  0  0  0
  7 12  2  0  0  0  0
  7 20  1  0  0  0  0
  8  9  2  0  0  0  0
  8 23  1  0  0  0  0
  9 24  1  0  0  0  0
 10 27  1  0  0  0  0
 11 27  2  0  0  0  0
 12 28  1  0  0  0  0
 13 14  2  0  0  0  0
 13 29  1  0  0  0  0
 14 30  1  0  0  0  0
 15 22  1  0  0  0  0
 15 28  2  0  0  0  0
 16 30  2  0  0  0  0
 16 31  1  0  0  0  0
 17 32  1  0  0  0  0
 18 32  1  0  0  0  0
 18 33  2  0  0  0  0
 18 36  1  0  0  0  0
 19 21  2  0  0  0  0
 19 41  1  0  0  0  0
 20 22  2  0  0  0  0
 20 42  1  0  0  0  0
 21 53  1  0  0  0  0
 22 43  1  0  0  0  0
 23 25  2  0  0  0  0
 23 64  1  0  0  0  0
 24 26  2  0  0  0  0
 24 68  1  0  0  0  0
 25 26  1  0  0  0  0
 25 57  1  0  0  0  0
 26 58  1  0  0  0  0
 27 86  1  0  0  0  0
 28 87  1  0  0  0  0
 29 31  2  0  0  0  0
 29 86  1  0  0  0  0
 30 88  1  0  0  0  0
 31 89  1  0  0  0  0
 32 70  2  0  0  0  0
 33 71  1  0  0  0  0
 33 74  1  0  0  0  0
 34 35  2  0  0  0  0
 34 44  1  0  0  0  0
 34 79  1  0  0  0  0
 36 75  1  0  0  0  0
 36 81  2  0  0  0  0
 37 54  1  0  0  0  0
 37 76  1  0  0  0  0
 37 82  2  0  0  0  0
 38 66  1  0  0  0  0
 38 72  1  0  0  0  0
 38 83  2  0  0  0  0
 39 67  1  0  0  0  0
 39 77  1  0  0  0  0
 39 84  2  0  0  0  0
 40 73  1  0  0  0  0
 40 78  1  0  0  0  0
 40 85  2  0  0  0  0
 41 45  1  0  0  0  0
 42 54  1  0  0  0  0
 43 72  1  0  0  0  0
 44 46  1  0  0  0  0
 45 48  1  0  0  0  0
 46 56  1  0  0  0  0
 47 49  1  0  0  0  0
 47 50  1  0  0  0  0
 48 53  1  0  0  0  0
 49 55  1  0  0  0  0
 50 73  1  0  0  0  0
 51 55  1  0  0  0  0
 51 73  1  0  0  0  0
 52 56  1  0  0  0  0
 52 79  1  0  0  0  0
 53 76  1  0  0  0  0
 54 72  1  0  0  0  0
 55 71  1  0  0  0  0
 56 87  1  0  0  0  0
 59 67  1  0  0  0  0
 60 69  1  0  0  0  0
 61 69  1  0  0  0  0
 62 69  1  0  0  0  0
 63 80  1  0  0  0  0
 64 79  1  0  0  0  0
 65 68  1  0  0  0  0
 65 78  1  0  0  0  0
 66 69  1  0  0  0  0
 66 77  1  0  0  0  0
 67 80  1  0  0  0  0
 68 90  1  0  0  0  0
 68 91  1  0  0  0  0
 70 71  1  0  0  0  0
M  CHG  2  79   1  80   1
M  ISO  4  40 100  56 101  78 100  87 101
M  END
> <Batch ID>
0036

> <Smiles>
C=C1CC[101CH:1]([101O:1]c2ccc3c(c2)CN(C(=O)C(NC(=O)C(C)NC)C(C)(C)C)C(C(=O)NC2CCCc4ccccc42)C3)CN1Cc1ccc(C(F)(F)C[100NH:0][100C:0](=O)N2CCCC(n3nc(-c4ccc(Oc5ccc(F)cc5F)cc4)c(C(N)=O)c3N)C2)c(C)c1C

> <Shape>
0.249

> <Color>
0.057

> <Negative vol penalty>
0.000

$$$$

  -OEChem-04042321543D

 88 97  0     1  0  0  0  0  0999 V2000
  -18.9037  -29.2358   26.8379 C   0  0  0  0  0  0  0  0  0  0  0  0
  -20.1338  -28.6122   26.6550 C   0  0  0  0  0  0  0  0  0  0  0  0
  -24.4222   -9.5002   21.8663 C   0  0  0  0  0  0  0  0  0  0  0  0
  -22.5331  -10.6508   20.8944 C   0  0  0  0  0  0  0  0  0  0  0  0
  -18.1025  -29.5313   25.7358 C   0  0  0  0  0  0  0  0  0  0  0  0
  -20.5629  -28.2826   25.3698 C   0  0  0  0  0  0  0  0  0  0  0  0
  -26.5330  -27.7115   21.4522 C   0  0  0  0  0  0  0  0  0  0  0  0
  -23.7264   -8.2937   21.7907 C   0  0  0  0  0  0  0  0  0  0  0  0
  -21.8373   -9.4442   20.8187 C   0  0  0  0  0  0  0  0  0  0  0  0
  -27.1973  -26.8049   20.6272 C   0  0  0  0  0  0  0  0  0  0  0  0
  -21.2970   -6.7070   23.5241 C   0  0  0  0  0  0  0  0  0  0  0  0
  -21.3298   -5.8698   24.6393 C   0  0  0  0  0  0  0  0  0  0  0  0
  -25.7647  -27.4351   18.7915 C   0  0  0  0  0  0  0  0  0  0  0  0
  -30.5041  -19.4629   19.9329 C   0  0  0  0  0  0  0  0  0  0  0  0
  -22.3431   -4.1302   23.3034 C   0  0  0  0  0  0  0  0  0  0  0  0
  -23.8256  -10.6788   21.4183 C   0  0  0  0  0  0  0  0  0  0  0  0
  -25.0425  -12.5476   22.6568 C   0  0  0  0  0  0  0  0  0  0  0  0
  -18.5263  -29.2139   24.4357 C   0  0  0  0  0  0  0  0  0  0  0  0
  -25.4707  -28.4801   20.9551 C   0  0  0  0  0  0  0  0  0  0  0  0
  -19.7660  -28.5729   24.2494 C   0  0  0  0  0  0  0  0  0  0  0  0
  -25.0903  -28.3525   19.6116 C   0  0  0  0  0  0  0  0  0  0  0  0
  -30.1920  -20.6737   20.5512 C   0  0  0  0  0  0  0  0  0  0  0  0
  -30.4879  -18.2788   20.6700 C   0  0  0  0  0  0  0  0  0  0  0  0
  -29.8638  -20.7004   21.9066 C   0  0  0  0  0  0  0  0  0  0  0  0
  -29.8477  -19.5163   22.6438 C   0  0  0  0  0  0  0  0  0  0  0  0
  -22.4339   -8.2657   21.2668 C   0  0  0  0  0  0  0  0  0  0  0  0
  -26.8113  -26.6645   19.2974 C   0  0  0  0  0  0  0  0  0  0  0  0
  -21.7872   -6.2558   22.2986 C   0  0  0  0  0  0  0  0  0  0  0  0
  -21.8529   -4.5814   24.5289 C   0  0  0  0  0  0  0  0  0  0  0  0
  -22.3103   -4.9675   22.1883 C   0  0  0  0  0  0  0  0  0  0  0  0
  -30.1597  -18.3055   22.0255 C   0  0  0  0  0  0  0  0  0  0  0  0
  -24.5437  -11.9255   21.4967 C   0  0  0  0  0  0  0  0  0  0  0  0
  -25.6388  -13.6976   22.2003 C   0  0  0  0  0  0  0  0  0  0  0  0
  -24.9732  -12.1238   24.0248 C   0  0  0  0  0  0  0  0  0  0  0  0
  -22.3781  -28.7421   21.6415 C   0  0  0  0  0  0  0  0  0  0  0  0
  -22.5062  -31.1698   19.4940 C   0  0  0  0  0  0  0  0  0  0  0  0
  -24.0715  -32.5863   16.8125 C   0  0  0  0  0  0  0  0  0  0  0  0
  -28.8995  -16.3671   18.5414 C   0  0  0  0  0  0  0  0  0  0  0  0
  -17.6047  -29.5102   23.2792 C   0  0  0  0  0  0  0  0  0  0  0  0
  -24.7819  -29.4729   21.8508 C   0  0  0  0  0  0  0  0  0  0  0  0
  -23.9693  -29.1689   19.0238 C   0  0  0  0  0  0  0  0  0  0  0  0
  -18.2990  -29.4666   21.9204 C   0  0  0  0  0  0  0  0  0  0  0  0
  -25.4832  -15.9047   17.6516 C   0  0  0  0  0  0  0  0  0  0  0  0
  -26.7831  -22.1168   18.0612 C   0  0  0  0  0  0  0  0  0  0  0  0
  -19.1714  -28.2205   21.8064 C   0  0  0  0  0  0  0  0  0  0  0  0
  -24.9776  -14.8755   18.6640 C   0  0  0  0  0  0  0  0  0  0  0  0
  -26.7281  -23.6131   17.7824 C   0  0  0  0  0  0  0  0  0  0  0  0
  -26.9269  -15.6276   17.2381 C   0  0  0  0  0  0  0  0  0  0  0  0
  -27.3733  -14.4749   19.3702 C   0  0  0  0  0  0  0  0  0  0  0  0
  -28.2107  -21.6385   18.2845 C   0  0  0  0  0  0  0  0  0  0  0  0
  -28.8554  -23.9205   19.1013 C   0  0  0  0  0  0  0  0  0  0  0  0
  -20.2772  -28.2221   22.8689 C   0  0  1  0  0  0  0  0  0  0  0  0
  -23.3774  -29.8323   21.3758 C   0  0  1  0  0  0  0  0  0  0  0  0
  -25.9402  -14.7452   19.8596 C   0  0  2  0  0  0  0  0  0  0  0  0
  -27.4306  -24.4097   18.8774 C   0  0  1  0  0  0  0  0  0  1  0  0
  -29.5285  -22.0016   22.5648 C   0  0  0  0  0  0  0  0  0  0  0  0
  -29.4917  -19.5655   24.0976 C   0  0  0  0  0  0  0  0  0  0  0  0
  -23.9228  -34.5484   15.2550 C   0  0  0  0  0  0  0  0  0  0  0  0
  -20.1957  -29.8246   18.0237 C   0  0  0  0  0  0  0  0  0  0  0  0
  -20.7189  -31.2550   16.0366 C   0  0  0  0  0  0  0  0  0  0  0  0
  -20.0213  -32.3142   18.1847 C   0  0  0  0  0  0  0  0  0  0  0  0
  -26.7247  -33.5977   17.6470 C   0  0  0  0  0  0  0  0  0  0  0  0
  -30.8294  -17.0050   19.9654 C   0  0  0  0  0  0  0  0  0  0  0  0
  -30.2169  -21.9328   19.7357 C   0  0  0  0  0  0  0  0  0  0  0  0
  -22.3238  -31.2863   17.9999 C   0  0  1  0  0  0  0  0  0  0  0  0
  -24.5213  -34.0115   16.5459 C   0  0  2  0  0  0  0  0  0  0  0  0
  -20.8348  -31.1531   17.5725 C   0  0  0  0  0  0  0  0  0  0  0  0
  -24.8005  -12.6226   20.3867 N   0  0  0  0  0  0  0  0  0  0  0  0
  -25.4672  -13.6947   20.8473 N   0  0  0  0  0  0  0  0  0  0  0  0
  -23.3226  -30.1214   19.9414 N   0  0  0  0  0  0  0  0  0  0  0  0
  -27.7881  -15.5170   18.4180 N   0  0  0  0  0  0  0  0  0  0  0  0
  -26.2878  -14.7010   22.8283 N   0  0  0  0  0  0  0  0  0  0  0  0
  -24.3243  -10.9168   24.3182 N   0  0  0  0  0  0  0  0  0  0  0  0
  -21.3477  -29.1162   22.4828 N   0  0  0  0  0  0  0  0  0  0  0  0
  -22.9471  -32.5463   17.6096 N   0  0  0  0  0  0  0  0  0  0  0  0
  -29.6592  -16.2006   19.6929 N   0  0  0  0  0  0  0  0  0  0  0  0
  -28.8433  -22.4420   19.3959 N   0  3  2  0  0  0  0  0  0  0  0  0
  -26.0063  -34.0742   16.4371 N   0  3  0  0  0  0  0  0  0  0  0  0
  -25.4577  -12.8038   24.9610 O   0  0  0  0  0  0  0  0  0  0  0  0
  -22.5298  -27.6433   21.1205 O   0  0  0  0  0  0  0  0  0  0  0  0
  -21.9508  -31.9835   20.2363 O   0  0  0  0  0  0  0  0  0  0  0  0
  -24.6567  -31.6067   16.3559 O   0  0  0  0  0  0  0  0  0  0  0  0
  -29.1899  -17.2154   17.6912 O   0  0  0  0  0  0  0  0  0  0  0  0
  -21.7547   -7.0885   21.1926 O   0  0  0  0  0  0  0  0  0  0  0  0
  -27.4575  -25.7799   18.4901 O   0  0  0  0  0  0  0  0  0  1  0  0
  -21.8857   -3.7780   25.6003 F   0  0  0  0  0  0  0  0  0  0  0  0
  -22.7838   -4.5289   21.0139 F   0  0  0  0  0  0  0  0  0  0  0  0
  -30.1416  -16.8330   22.9380 Cl  0  0  0  0  0  0  0  0  0  0  0  0
  1  2  1  0  0  0  0
  1  5  2  0  0  0  0
  2  6  2  0  0  0  0
  3  8  2  0  0  0  0
  3 16  1  0  0  0  0
  4  9  1  0  0  0  0
  4 16  2  0  0  0  0
  5 18  1  0  0  0  0
  6 20  1  0  0  0  0
  7 10  2  0  0  0  0
  7 19  1  0  0  0  0
  8 26  1  0  0  0  0
  9 26  2  0  0  0  0
 10 27  1  0  0  0  0
 11 12  2  0  0  0  0
 11 28  1  0  0  0  0
 12 29  1  0  0  0  0
 13 21  1  0  0  0  0
 13 27  2  0  0  0  0
 14 22  1  0  0  0  0
 14 23  2  0  0  0  0
 15 29  2  0  0  0  0
 15 30  1  0  0  0  0
 16 32  1  0  0  0  0
 17 32  1  0  0  0  0
 17 33  2  0  0  0  0
 17 34  1  0  0  0  0
 18 20  2  0  0  0  0
 18 39  1  0  0  0  0
 19 21  2  0  0  0  0
 19 40  1  0  0  0  0
 20 52  1  0  0  0  0
 21 41  1  0  0  0  0
 22 24  2  0  0  0  0
 22 64  1  0  0  0  0
 23 31  1  0  0  0  0
 23 63  1  0  0  0  0
 24 25  1  0  0  0  0
 24 56  1  0  0  0  0
 25 31  2  0  0  0  0
 25 57  1  0  0  0  0
 26 84  1  0  0  0  0
 27 85  1  0  0  0  0
 28 30  2  0  0  0  0
 28 84  1  0  0  0  0
 29 86  1  0  0  0  0
 30 87  1  0  0  0  0
 31 88  1  0  0  0  0
 32 68  2  0  0  0  0
 33 69  1  0  0  0  0
 33 72  1  0  0  0  0
 34 73  1  0  0  0  0
 34 79  2  0  0  0  0
 35 53  1  0  0  0  0
 35 74  1  0  0  0  0
 35 80  2  0  0  0  0
 36 65  1  0  0  0  0
 36 70  1  0  0  0  0
 36 81  2  0  0  0  0
 37 66  1  0  0  0  0
 37 75  1  0  0  0  0
 37 82  2  0  0  0  0
 38 71  1  0  0  0  0
 38 76  1  0  0  0  0
 38 83  2  0  0  0  0
 39 42  1  0  0  0  0
 40 53  1  0  0  0  0
 41 70  1  0  0  0  0
 42 45  1  0  0  0  0
 43 46  1  0  0  0  0
 43 48  1  0  0  0  0
 44 47  1  0  0  0  0
 44 50  1  0  0  0  0
 45 52  1  0  0  0  0
 46 54  1  0  0  0  0
 47 55  1  0  0  0  0
 48 71  1  0  0  0  0
 49 54  1  0  0  0  0
 49 71  1  0  0  0  0
 50 77  1  0  0  0  0
 51 55  1  0  0  0  0
 51 77  1  0  0  0  0
 52 74  1  0  0  0  0
 53 70  1  0  0  0  0
 54 69  1  0  0  0  0
 55 85  1  0  0  0  0
 58 66  1  0  0  0  0
 59 67  1  0  0  0  0
 60 67  1  0  0  0  0
 61 67  1  0  0  0  0
 62 78  1  0  0  0  0
 63 76  1  0  0  0  0
 64 77  1  0  0  0  0
 65 67  1  0  0  0  0
 65 75  1  0  0  0  0
 66 78  1  0  0  0  0
 68 69  1  0  0  0  0
M  CHG  2  77   1  78   1
M  ISO  4  38 100  55 101  76 100  85 101
M  END
> <Batch ID>
0036

> <Smiles>
CNC(C)C(=O)NC(C(=O)N1Cc2cc([101O:1][101CH:1]3CCCN(Cc4cc(C[100NH:0][100C:0](=O)N5CCCC(n6nc(-c7ccc(Oc8ccc(F)cc8F)cc7)c(C(N)=O)c6N)C5)c(Cl)c(C)c4C)C3)ccc2CC1C(=O)NC1CCCc2ccccc21)C(C)(C)C

> <Shape>
0.275

> <Color>
0.106

> <Negative vol penalty>
0.000

$$$$

  -OEChem-04042321543D

 86 95  0     1  0  0  0  0  0999 V2000
  -17.3373  -31.3703   21.1491 C   0  0  0  0  0  0  0  0  0  0  0  0
  -18.6464  -31.8061   20.9706 C   0  0  0  0  0  0  0  0  0  0  0  0
  -24.2349  -10.8218   23.8413 C   0  0  0  0  0  0  0  0  0  0  0  0
  -24.6281   -9.3724   21.9488 C   0  0  0  0  0  0  0  0  0  0  0  0
  -17.0665  -30.3222   22.0278 C   0  0  0  0  0  0  0  0  0  0  0  0
  -19.6853  -31.1947   21.6715 C   0  0  0  0  0  0  0  0  0  0  0  0
  -26.1953  -27.7959   19.0078 C   0  0  0  0  0  0  0  0  0  0  0  0
  -23.8183   -9.7246   24.5951 C   0  0  0  0  0  0  0  0  0  0  0  0
  -24.2116   -8.2751   22.7026 C   0  0  0  0  0  0  0  0  0  0  0  0
  -27.3042  -27.0291   18.6493 C   0  0  0  0  0  0  0  0  0  0  0  0
  -21.2869   -6.9109   23.7106 C   0  0  0  0  0  0  0  0  0  0  0  0
  -20.4129   -6.0056   23.1090 C   0  0  0  0  0  0  0  0  0  0  0  0
  -27.1216  -25.7808   20.7123 C   0  0  0  0  0  0  0  0  0  0  0  0
  -30.8248  -20.3241   20.5590 C   0  0  0  0  0  0  0  0  0  0  0  0
  -22.0331   -4.2393   23.4129 C   0  0  0  0  0  0  0  0  0  0  0  0
  -24.6397  -10.6457   22.5181 C   0  0  0  0  0  0  0  0  0  0  0  0
  -24.3180  -12.9256   21.4198 C   0  0  0  0  0  0  0  0  0  0  0  0
  -18.1037  -29.6912   22.7325 C   0  0  0  0  0  0  0  0  0  0  0  0
  -25.5352  -27.5474   20.2145 C   0  0  0  0  0  0  0  0  0  0  0  0
  -19.4279  -30.1380   22.5614 C   0  0  0  0  0  0  0  0  0  0  0  0
  -26.0028  -26.5373   21.0711 C   0  0  0  0  0  0  0  0  0  0  0  0
  -28.7363  -20.4797   19.3546 C   0  0  0  0  0  0  0  0  0  0  0  0
  -28.5680  -19.0997   19.4681 C   0  0  0  0  0  0  0  0  0  0  0  0
  -29.8648  -21.0919   19.9000 C   0  0  0  0  0  0  0  0  0  0  0  0
  -29.5281  -18.3319   20.1271 C   0  0  0  0  0  0  0  0  0  0  0  0
  -23.8067   -8.4513   24.0258 C   0  0  0  0  0  0  0  0  0  0  0  0
  -27.7663  -26.0243   19.4995 C   0  0  0  0  0  0  0  0  0  0  0  0
  -22.5341   -6.4805   24.1634 C   0  0  0  0  0  0  0  0  0  0  0  0
  -20.7859   -4.6698   22.9602 C   0  0  0  0  0  0  0  0  0  0  0  0
  -22.9072   -5.1447   24.0145 C   0  0  0  0  0  0  0  0  0  0  0  0
  -30.6566  -18.9441   20.6725 C   0  0  0  0  0  0  0  0  0  0  0  0
  -25.0696  -11.7788   21.7388 C   0  0  0  0  0  0  0  0  0  0  0  0
  -25.1704  -13.6967   20.6680 C   0  0  0  0  0  0  0  0  0  0  0  0
  -31.0982  -23.1719   19.1891 C   0  0  0  0  0  0  0  0  0  0  0  0
  -31.9547  -22.7867   18.2321 C   0  0  0  0  0  0  0  0  0  0  0  0
  -22.9698  -13.2636   21.7718 C   0  0  0  0  0  0  0  0  0  0  0  0
  -22.7193  -28.4594   22.5199 C   0  0  0  0  0  0  0  0  0  0  0  0
  -22.9217  -25.3985   22.5279 C   0  0  0  0  0  0  0  0  0  0  0  0
  -23.2020  -22.0511   21.9331 C   0  0  0  0  0  0  0  0  0  0  0  0
  -30.1873  -15.9301   19.7484 C   0  0  0  0  0  0  0  0  0  0  0  0
  -17.7564  -28.5937   23.7069 C   0  0  0  0  0  0  0  0  0  0  0  0
  -24.3741  -28.3892   20.6697 C   0  0  0  0  0  0  0  0  0  0  0  0
  -25.2823  -26.3285   22.3750 C   0  0  0  0  0  0  0  0  0  0  0  0
  -31.1004  -24.5940   19.7066 C   0  0  0  0  0  0  0  0  0  0  0  0
  -18.9574  -27.7512   24.1288 C   0  0  0  0  0  0  0  0  0  0  0  0
  -29.6648  -12.5951   18.6163 C   0  0  0  0  0  0  0  0  0  0  0  0
  -20.1377  -28.6474   24.4902 C   0  0  0  0  0  0  0  0  0  0  0  0
  -28.3609  -12.1798   19.3015 C   0  0  0  0  0  0  0  0  0  0  0  0
  -30.5235  -13.4787   19.5194 C   0  0  0  0  0  0  0  0  0  0  0  0
  -28.5337  -14.2382   20.7576 C   0  0  0  0  0  0  0  0  0  0  0  0
  -29.1965  -23.3692   20.5999 C   0  0  0  0  0  0  0  0  0  0  0  0
  -20.5847  -29.4836   23.2850 C   0  0  1  0  0  0  0  0  0  0  0  0
  -23.3200  -27.5889   21.4556 C   0  0  1  0  0  0  0  0  0  0  0  0
  -27.6056  -13.4004   19.8629 C   0  0  2  0  0  0  0  0  0  0  0  0
  -29.6633  -24.7721   20.1946 C   0  0  2  0  0  0  0  0  0  1  0  0
  -27.7055  -21.3029   18.6474 C   0  0  0  0  0  0  0  0  0  0  0  0
  -27.3546  -18.4481   18.8806 C   0  0  0  0  0  0  0  0  0  0  0  0
  -22.2088  -19.8432   22.5935 C   0  0  0  0  0  0  0  0  0  0  0  0
  -24.4149  -25.5256   25.1847 C   0  0  0  0  0  0  0  0  0  0  0  0
  -24.1918  -23.0373   25.3480 C   0  0  0  0  0  0  0  0  0  0  0  0
  -22.1507  -24.4709   25.3095 C   0  0  0  0  0  0  0  0  0  0  0  0
  -22.3515  -21.4723   19.1581 C   0  0  0  0  0  0  0  0  0  0  0  0
  -23.4945  -24.1704   23.1891 C   0  0  1  0  0  0  0  0  0  0  0  0
  -22.1619  -20.9959   21.6027 C   0  0  2  0  0  0  0  0  0  0  0  0
  -23.5755  -24.3130   24.7353 C   0  0  0  0  0  0  0  0  0  0  0  0
  -26.3045  -11.8140   21.2310 N   0  0  0  0  0  0  0  0  0  0  0  0
  -26.3353  -12.9922   20.5852 N   0  0  0  0  0  0  0  0  0  0  0  0
  -30.0528  -22.4846   19.7954 N   0  0  0  0  0  0  0  0  0  0  0  0
  -23.8282  -26.4012   22.1628 N   0  0  0  0  0  0  0  0  0  0  0  0
  -29.7432  -14.6167   20.0101 N   0  0  0  0  0  0  0  0  0  0  0  0
  -25.0297  -14.9018   20.0761 N   0  0  0  0  0  0  0  0  0  0  0  0
  -21.9360  -12.8703   20.9111 N   0  0  0  0  0  0  0  0  0  0  0  0
  -29.3471  -16.9307   20.2357 N   0  0  0  0  0  0  0  0  0  0  0  0
  -21.3628  -28.6761   22.3702 N   0  0  0  0  0  0  0  0  0  0  0  0
  -22.6834  -23.0462   22.7344 N   0  0  0  0  0  0  0  0  0  0  0  0
  -22.3938  -20.4503   20.2355 N   0  3  0  0  0  0  0  0  0  0  0  0
  -22.6917  -13.9101   22.8102 O   0  0  0  0  0  0  0  0  0  0  0  0
  -23.4327  -28.9015   23.4128 O   0  0  0  0  0  0  0  0  0  0  0  0
  -21.7035  -25.4719   22.3442 O   0  0  0  0  0  0  0  0  0  0  0  0
  -24.3599  -21.9960   21.5246 O   0  0  0  0  0  0  0  0  0  0  0  0
  -31.2217  -16.1510   19.1134 O   0  0  0  0  0  0  0  0  0  0  0  0
  -23.4005   -7.3804   24.7611 O   0  0  0  0  0  0  0  0  0  0  0  0
  -28.8467  -25.2765   19.1412 O   0  0  0  0  0  0  0  0  0  1  0  0
  -19.9458   -3.8002   22.3838 F   0  0  0  0  0  0  0  0  0  0  0  0
  -24.1036   -4.7251   24.4485 F   0  0  0  0  0  0  0  0  0  0  0  0
  -31.8728  -18.0338   21.4965 Cl  0  0  0  0  0  0  0  0  0  0  0  0
  1  2  1  0  0  0  0
  1  5  2  0  0  0  0
  2  6  2  0  0  0  0
  3  8  2  0  0  0  0
  3 16  1  0  0  0  0
  4  9  1  0  0  0  0
  4 16  2  0  0  0  0
  5 18  1  0  0  0  0
  6 20  1  0  0  0  0
  7 10  2  0  0  0  0
  7 19  1  0  0  0  0
  8 26  1  0  0  0  0
  9 26  2  0  0  0  0
 10 27  1  0  0  0  0
 11 12  2  0  0  0  0
 11 28  1  0  0  0  0
 12 29  1  0  0  0  0
 13 21  1  0  0  0  0
 13 27  2  0  0  0  0
 14 24  1  0  0  0  0
 14 31  2  0  0  0  0
 15 29  2  0  0  0  0
 15 30  1  0  0  0  0
 16 32  1  0  0  0  0
 17 32  1  0  0  0  0
 17 33  2  0  0  0  0
 17 36  1  0  0  0  0
 18 20  2  0  0  0  0
 18 41  1  0  0  0  0
 19 21  2  0  0  0  0
 19 42  1  0  0  0  0
 20 52  1  0  0  0  0
 21 43  1  0  0  0  0
 22 23  1  0  0  0  0
 22 24  2  0  0  0  0
 22 56  1  0  0  0  0
 23 25  2  0  0  0  0
 23 57  1  0  0  0  0
 24 68  1  0  0  0  0
 25 31  1  0  0  0  0
 25 73  1  0  0  0  0
 26 82  1  0  0  0  0
 27 83  1  0  0  0  0
 28 30  2  0  0  0  0
 28 82  1  0  0  0  0
 29 84  1  0  0  0  0
 30 85  1  0  0  0  0
 31 86  1  0  0  0  0
 32 66  2  0  0  0  0
 33 67  1  0  0  0  0
 33 71  1  0  0  0  0
 34 35  2  0  0  0  0
 34 44  1  0  0  0  0
 34 68  1  0  0  0  0
 36 72  1  0  0  0  0
 36 77  2  0  0  0  0
 37 53  1  0  0  0  0
 37 74  1  0  0  0  0
 37 78  2  0  0  0  0
 38 63  1  0  0  0  0
 38 69  1  0  0  0  0
 38 79  2  0  0  0  0
 39 64  1  0  0  0  0
 39 75  1  0  0  0  0
 39 80  2  0  0  0  0
 40 70  1  0  0  0  0
 40 73  1  0  0  0  0
 40 81  2  0  0  0  0
 41 45  1  0  0  0  0
 42 53  1  0  0  0  0
 43 69  1  0  0  0  0
 44 55  1  0  0  0  0
 45 47  1  0  0  0  0
 46 48  1  0  0  0  0
 46 49  1  0  0  0  0
 47 52  1  0  0  0  0
 48 54  1  0  0  0  0
 49 70  1  0  0  0  0
 50 54  1  0  0  0  0
 50 70  1  0  0  0  0
 51 55  1  0  0  0  0
 51 68  1  0  0  0  0
 52 74  1  0  0  0  0
 53 69  1  0  0  0  0
 54 67  1  0  0  0  0
 55 83  1  0  0  0  0
 58 64  1  0  0  0  0
 59 65  1  0  0  0  0
 60 65  1  0  0  0  0
 61 65  1  0  0  0  0
 62 76  1  0  0  0  0
 63 65  1  0  0  0  0
 63 75  1  0  0  0  0
 64 76  1  0  0  0  0
 66 67  1  0  0  0  0
M  CHG  1  76   1
M  ISO  4  40 100  55 101  73 100  83 101
M  END
> <Batch ID>
0036

> <Smiles>
C=C1C[101CH:1]([101O:1]c2ccc3c(c2)CN(C(=O)C(NC(=O)C(C)NC)C(C)(C)C)C(C(=O)NC2CCCc4ccccc42)C3)CN1c1cc(Cl)c([100NH:0][100C:0](=O)N2CCCC(n3nc(-c4ccc(Oc5ccc(F)cc5F)cc4)c(C(N)=O)c3N)C2)c(C)c1C

> <Shape>
0.283

> <Color>
0.137

> <Negative vol penalty>
0.000

$$$$

  -OEChem-04042321543D

 91100  0     1  0  0  0  0  0999 V2000
  -18.1925  -26.5829   23.7625 C   0  0  0  0  0  0  0  0  0  0  0  0
  -19.1439  -26.2806   22.7935 C   0  0  0  0  0  0  0  0  0  0  0  0
  -31.5871  -20.1618   21.1520 C   0  0  0  0  0  0  0  0  0  0  0  0
  -23.1189  -10.7880   23.0699 C   0  0  0  0  0  0  0  0  0  0  0  0
  -24.3265  -11.8318   24.8835 C   0  0  0  0  0  0  0  0  0  0  0  0
  -17.8844  -27.9132   24.0442 C   0  0  0  0  0  0  0  0  0  0  0  0
  -19.7869  -27.3085   22.1048 C   0  0  0  0  0  0  0  0  0  0  0  0
  -24.7799  -26.5586   21.7139 C   0  0  0  0  0  0  0  0  0  0  0  0
  -30.5934  -21.1187   20.9455 C   0  0  0  0  0  0  0  0  0  0  0  0
  -31.2694  -18.8045   21.1021 C   0  0  0  0  0  0  0  0  0  0  0  0
  -22.4173  -10.0058   23.9872 C   0  0  0  0  0  0  0  0  0  0  0  0
  -23.6249  -11.0496   25.8009 C   0  0  0  0  0  0  0  0  0  0  0  0
  -25.2137  -25.6505   20.7491 C   0  0  0  0  0  0  0  0  0  0  0  0
  -22.9682   -7.2191   25.8190 C   0  0  0  0  0  0  0  0  0  0  0  0
  -22.8228   -5.8614   25.5343 C   0  0  0  0  0  0  0  0  0  0  0  0
  -25.7471  -27.4826   19.2732 C   0  0  0  0  0  0  0  0  0  0  0  0
  -20.4203   -6.1167   25.5439 C   0  0  0  0  0  0  0  0  0  0  0  0
  -24.0736  -11.7010   23.5180 C   0  0  0  0  0  0  0  0  0  0  0  0
  -24.2618  -13.4298   21.6516 C   0  0  0  0  0  0  0  0  0  0  0  0
  -18.5309  -28.9581   23.3654 C   0  0  0  0  0  0  0  0  0  0  0  0
  -24.8162  -27.9374   21.4611 C   0  0  0  0  0  0  0  0  0  0  0  0
  -19.4862  -28.6540   22.3767 C   0  0  0  0  0  0  0  0  0  0  0  0
  -25.3155  -28.4062   20.2375 C   0  0  0  0  0  0  0  0  0  0  0  0
  -29.2821  -20.7183   20.6892 C   0  0  0  0  0  0  0  0  0  0  0  0
  -28.9644  -19.3610   20.6393 C   0  0  0  0  0  0  0  0  0  0  0  0
  -29.9581  -18.4041   20.8458 C   0  0  0  0  0  0  0  0  0  0  0  0
  -22.6703  -10.1365   25.3526 C   0  0  0  0  0  0  0  0  0  0  0  0
  -25.6947  -26.1123   19.5274 C   0  0  0  0  0  0  0  0  0  0  0  0
  -21.8396   -8.0257   25.9662 C   0  0  0  0  0  0  0  0  0  0  0  0
  -21.5489   -5.3102   25.3967 C   0  0  0  0  0  0  0  0  0  0  0  0
  -20.5657   -7.4744   25.8286 C   0  0  0  0  0  0  0  0  0  0  0  0
  -24.7991  -12.5089   22.5709 C   0  0  0  0  0  0  0  0  0  0  0  0
  -25.3554  -13.9309   20.9887 C   0  0  0  0  0  0  0  0  0  0  0  0
  -26.7983  -22.9105   18.8785 C   0  0  0  0  0  0  0  0  0  0  0  0
  -25.5494  -22.4611   18.6725 C   0  0  0  0  0  0  0  0  0  0  0  0
  -25.2132  -21.0597   18.6226 C   0  0  0  0  0  0  0  0  0  0  0  0
  -23.9630  -20.6189   18.4163 C   0  0  0  0  0  0  0  0  0  0  0  0
  -23.6210  -19.2147   18.3653 C   0  0  0  0  0  0  0  0  0  0  0  0
  -22.3724  -18.7707   18.1593 C   0  0  0  0  0  0  0  0  0  0  0  0
  -22.8963  -13.7991   21.4178 C   0  0  0  0  0  0  0  0  0  0  0  0
  -22.6349  -30.2418   21.2735 C   0  0  0  0  0  0  0  0  0  0  0  0
  -25.2424  -32.1525   21.0043 C   0  0  0  0  0  0  0  0  0  0  0  0
  -28.4152  -32.0517   19.2896 C   0  0  0  0  0  0  0  0  0  0  0  0
  -30.5416  -15.9573   20.9841 C   0  0  0  0  0  0  0  0  0  0  0  0
  -18.1303  -30.3796   23.6709 C   0  0  0  0  0  0  0  0  0  0  0  0
  -24.3695  -28.9050   22.5225 C   0  0  0  0  0  0  0  0  0  0  0  0
  -25.3942  -29.8774   19.9245 C   0  0  0  0  0  0  0  0  0  0  0  0
  -19.1278  -31.4166   23.1607 C   0  0  0  0  0  0  0  0  0  0  0  0
  -30.1847  -12.4148   20.9844 C   0  0  0  0  0  0  0  0  0  0  0  0
  -29.4931  -23.6237   18.2084 C   0  0  0  0  0  0  0  0  0  0  0  0
  -19.5313  -31.1068   21.7227 C   0  0  0  0  0  0  0  0  0  0  0  0
  -28.3709  -24.6341   17.9982 C   0  0  0  0  0  0  0  0  0  0  0  0
  -28.7076  -12.1992   21.3215 C   0  0  0  0  0  0  0  0  0  0  0  0
  -30.7724  -13.6027   21.7441 C   0  0  0  0  0  0  0  0  0  0  0  0
  -28.5484  -14.6439   21.9421 C   0  0  0  0  0  0  0  0  0  0  0  0
  -28.9833  -22.1915   18.0863 C   0  0  0  0  0  0  0  0  0  0  0  0
  -20.2232  -29.7417   21.6257 C   0  0  1  0  0  0  0  0  0  0  0  0
  -27.1963  -24.3681   18.9386 C   0  0  1  0  0  0  0  0  0  1  0  0
  -23.9710  -30.2662   21.9606 C   0  0  1  0  0  0  0  0  0  0  0  0
  -27.8954  -13.4981   21.1519 C   0  0  2  0  0  0  0  0  0  0  0  0
  -27.5560  -18.9362   20.3638 C   0  0  0  0  0  0  0  0  0  0  0  0
  -22.0064  -17.3238   18.1043 C   0  0  0  0  0  0  0  0  0  0  0  0
  -30.6078  -33.1363   19.8498 C   0  0  0  0  0  0  0  0  0  0  0  0
  -24.2829  -34.3803   19.1533 C   0  0  0  0  0  0  0  0  0  0  0  0
  -26.6318  -34.6003   18.3149 C   0  0  0  0  0  0  0  0  0  0  0  0
  -26.1200  -35.0414   20.7162 C   0  0  0  0  0  0  0  0  0  0  0  0
  -29.8447  -29.4609   19.2287 C   0  0  0  0  0  0  0  0  0  0  0  0
  -28.2328  -21.7682   20.4706 C   0  0  0  0  0  0  0  0  0  0  0  0
  -26.0790  -32.6641   19.8566 C   0  0  1  0  0  0  0  0  0  0  0  0
  -29.7831  -31.8604   19.9196 C   0  0  2  0  0  0  0  0  0  0  0  0
  -25.7648  -34.1466   19.5088 C   0  0  0  0  0  0  0  0  0  0  0  0
  -26.1305  -12.4278   22.5011 N   0  0  0  0  0  0  0  0  0  0  0  0
  -26.4389  -13.3040   21.5300 N   0  0  0  0  0  0  0  0  0  0  0  0
  -24.9398  -30.7836   20.9921 N   0  0  0  0  0  0  0  0  0  0  0  0
  -29.9533  -14.7983   21.5330 N   0  0  0  0  0  0  0  0  0  0  0  0
  -25.4861  -14.8423   20.0014 N   0  0  0  0  0  0  0  0  0  0  0  0
  -21.8975  -13.1875   22.1876 N   0  0  0  0  0  0  0  0  0  0  0  0
  -29.6579  -17.0201   20.7991 N   0  0  0  0  0  0  0  0  0  0  0  0
  -21.5925  -29.8353   22.0845 N   0  0  0  0  0  0  0  0  0  0  0  0
  -27.4694  -32.4182   20.2236 N   0  0  0  0  0  0  0  0  0  0  0  0
  -27.8344  -21.9118   19.0275 N   0  3  1  0  0  0  0  0  0  0  0  0
  -30.5302  -30.7789   19.2175 N   0  3  0  0  0  0  0  0  0  0  0  0
  -22.5702  -14.6344   20.5406 O   0  0  0  0  0  0  0  0  0  0  0  0
  -22.5554  -30.5691   20.0953 O   0  0  0  0  0  0  0  0  0  0  0  0
  -24.8771  -32.9373   21.8832 O   0  0  0  0  0  0  0  0  0  0  0  0
  -28.2074  -31.8954   18.0884 O   0  0  0  0  0  0  0  0  0  0  0  0
  -31.7350  -15.9946   20.6739 O   0  0  0  0  0  0  0  0  0  0  0  0
  -21.9856   -9.3736   26.2480 O   0  0  0  0  0  0  0  0  0  0  0  0
  -26.1182  -25.2281   18.5837 O   0  0  0  0  0  0  0  0  0  1  0  0
  -21.4095   -4.0067   25.1218 F   0  0  0  0  0  0  0  0  0  0  0  0
  -19.4778   -8.2445   25.9677 F   0  0  0  0  0  0  0  0  0  0  0  0
  1  2  1  0  0  0  0
  1  6  2  0  0  0  0
  2  7  2  0  0  0  0
  3  9  2  0  0  0  0
  3 10  1  0  0  0  0
  4 11  2  0  0  0  0
  4 18  1  0  0  0  0
  5 12  1  0  0  0  0
  5 18  2  0  0  0  0
  6 20  1  0  0  0  0
  7 22  1  0  0  0  0
  8 13  2  0  0  0  0
  8 21  1  0  0  0  0
  9 24  1  0  0  0  0
 10 26  2  0  0  0  0
 11 27  1  0  0  0  0
 12 27  2  0  0  0  0
 13 28  1  0  0  0  0
 14 15  2  0  0  0  0
 14 29  1  0  0  0  0
 15 30  1  0  0  0  0
 16 23  1  0  0  0  0
 16 28  2  0  0  0  0
 17 30  2  0  0  0  0
 17 31  1  0  0  0  0
 18 32  1  0  0  0  0
 19 32  1  0  0  0  0
 19 33  2  0  0  0  0
 19 40  1  0  0  0  0
 20 22  2  0  0  0  0
 20 45  1  0  0  0  0
 21 23  2  0  0  0  0
 21 46  1  0  0  0  0
 22 57  1  0  0  0  0
 23 47  1  0  0  0  0
 24 25  2  0  0  0  0
 24 68  1  0  0  0  0
 25 26  1  0  0  0  0
 25 61  1  0  0  0  0
 26 78  1  0  0  0  0
 27 88  1  0  0  0  0
 28 89  1  0  0  0  0
 29 31  2  0  0  0  0
 29 88  1  0  0  0  0
 30 90  1  0  0  0  0
 31 91  1  0  0  0  0
 32 72  2  0  0  0  0
 33 73  1  0  0  0  0
 33 76  1  0  0  0  0
 34 35  2  0  0  0  0
 34 58  1  0  0  0  0
 34 81  1  0  0  0  0
 35 36  1  0  0  0  0
 36 37  2  0  0  0  0
 37 38  1  0  0  0  0
 38 39  2  0  0  0  0
 39 62  1  0  0  0  0
 40 77  1  0  0  0  0
 40 83  2  0  0  0  0
 41 59  1  0  0  0  0
 41 79  1  0  0  0  0
 41 84  2  0  0  0  0
 42 69  1  0  0  0  0
 42 74  1  0  0  0  0
 42 85  2  0  0  0  0
 43 70  1  0  0  0  0
 43 80  1  0  0  0  0
 43 86  2  0  0  0  0
 44 75  1  0  0  0  0
 44 78  1  0  0  0  0
 44 87  2  0  0  0  0
 45 48  1  0  0  0  0
 46 59  1  0  0  0  0
 47 74  1  0  0  0  0
 48 51  1  0  0  0  0
 49 53  1  0  0  0  0
 49 54  1  0  0  0  0
 50 52  1  0  0  0  0
 50 56  1  0  0  0  0
 51 57  1  0  0  0  0
 52 58  1  0  0  0  0
 53 60  1  0  0  0  0
 54 75  1  0  0  0  0
 55 60  1  0  0  0  0
 55 75  1  0  0  0  0
 56 81  1  0  0  0  0
 57 79  1  0  0  0  0
 58 89  1  0  0  0  0
 59 74  1  0  0  0  0
 60 73  1  0  0  0  0
 63 70  1  0  0  0  0
 64 71  1  0  0  0  0
 65 71  1  0  0  0  0
 66 71  1  0  0  0  0
 67 82  1  0  0  0  0
 68 81  1  0  0  0  0
 69 71  1  0  0  0  0
 69 80  1  0  0  0  0
 70 82  1  0  0  0  0
 72 73  1  0  0  0  0
M  CHG  2  81   1  82   1
M  ISO  4  44 100  58 101  78 100  89 101
M  END
> <Batch ID>
0036

> <Smiles>
CC=CC=CC=C1N(Cc2cccc([100NH:0][100C:0](=O)N3CCCC(n4nc(-c5ccc(Oc6ccc(F)cc6F)cc5)c(C(N)=O)c4N)C3)c2C)CCC[101CH:1]1[101O:1]c1ccc2c(c1)CN(C(=O)C(NC(=O)C(C)NC)C(C)(C)C)C(C(=O)NC1CCCc3ccccc31)C2

> <Shape>
0.267

> <Color>
0.108

> <Negative vol penalty>
0.000

$$$$

  -OEChem-04042321543D

 90 99  0     1  0  0  0  0  0999 V2000
  -16.4893  -29.7858   23.4980 C   0  0  0  0  0  0  0  0  0  0  0  0
  -17.5285  -30.7038   23.5984 C   0  0  0  0  0  0  0  0  0  0  0  0
  -25.3050  -16.4758   21.0539 C   0  0  0  0  0  0  0  0  0  0  0  0
  -23.5589  -16.9193   19.4441 C   0  0  0  0  0  0  0  0  0  0  0  0
  -16.7703  -28.4467   23.2353 C   0  0  0  0  0  0  0  0  0  0  0  0
  -18.8482  -30.2854   23.4244 C   0  0  0  0  0  0  0  0  0  0  0  0
  -26.7657  -30.8954   23.0195 C   0  0  0  0  0  0  0  0  0  0  0  0
  -25.5226  -15.2262   20.4737 C   0  0  0  0  0  0  0  0  0  0  0  0
  -23.7766  -15.6697   18.8638 C   0  0  0  0  0  0  0  0  0  0  0  0
  -27.9433  -30.1514   23.0778 C   0  0  0  0  0  0  0  0  0  0  0  0
  -24.0794  -12.1703   20.5271 C   0  0  0  0  0  0  0  0  0  0  0  0
  -24.2225  -11.0764   21.3805 C   0  0  0  0  0  0  0  0  0  0  0  0
  -27.1308  -28.7373   21.3004 C   0  0  0  0  0  0  0  0  0  0  0  0
  -31.4530  -24.1886   18.0980 C   0  0  0  0  0  0  0  0  0  0  0  0
  -29.1925  -24.9578   18.4658 C   0  0  0  0  0  0  0  0  0  0  0  0
  -26.4350  -10.6761   20.4964 C   0  0  0  0  0  0  0  0  0  0  0  0
  -24.3231  -17.3224   20.5392 C   0  0  0  0  0  0  0  0  0  0  0  0
  -23.7153  -18.8784   22.4671 C   0  0  0  0  0  0  0  0  0  0  0  0
  -18.0952  -28.0102   23.0704 C   0  0  0  0  0  0  0  0  0  0  0  0
  -25.7555  -30.5587   22.1071 C   0  0  0  0  0  0  0  0  0  0  0  0
  -19.1506  -28.9425   23.1348 C   0  0  0  0  0  0  0  0  0  0  0  0
  -25.9424  -29.4802   21.2307 C   0  0  0  0  0  0  0  0  0  0  0  0
  -30.5587  -25.2232   18.3722 C   0  0  0  0  0  0  0  0  0  0  0  0
  -30.9812  -22.8884   17.9173 C   0  0  0  0  0  0  0  0  0  0  0  0
  -29.6150  -22.6229   18.0109 C   0  0  0  0  0  0  0  0  0  0  0  0
  -28.7207  -23.6576   18.2852 C   0  0  0  0  0  0  0  0  0  0  0  0
  -24.7584  -14.8231   19.3786 C   0  0  0  0  0  0  0  0  0  0  0  0
  -28.1248  -29.0704   22.2201 C   0  0  0  0  0  0  0  0  0  0  0  0
  -25.1140  -12.5171   19.6582 C   0  0  0  0  0  0  0  0  0  0  0  0
  -25.4003  -10.3293   21.3652 C   0  0  0  0  0  0  0  0  0  0  0  0
  -26.2918  -11.7701   19.6429 C   0  0  0  0  0  0  0  0  0  0  0  0
  -24.0975  -18.6131   21.1385 C   0  0  0  0  0  0  0  0  0  0  0  0
  -23.6344  -20.2478   22.5343 C   0  0  0  0  0  0  0  0  0  0  0  0
  -32.6187  -27.9679   19.8510 C   0  0  0  0  0  0  0  0  0  0  0  0
  -33.9376  -27.7351   19.7733 C   0  0  0  0  0  0  0  0  0  0  0  0
  -23.4567  -17.9682   23.5444 C   0  0  0  0  0  0  0  0  0  0  0  0
  -22.7270  -29.6261   22.3570 C   0  0  0  0  0  0  0  0  0  0  0  0
  -22.7784  -29.9169   19.1266 C   0  0  0  0  0  0  0  0  0  0  0  0
  -25.0588  -29.1194   16.4469 C   0  0  0  0  0  0  0  0  0  0  0  0
  -26.3147  -24.3325   18.6540 C   0  0  0  0  0  0  0  0  0  0  0  0
  -18.3419  -26.5507   22.7800 C   0  0  0  0  0  0  0  0  0  0  0  0
  -24.5023  -31.3876   22.0385 C   0  0  0  0  0  0  0  0  0  0  0  0
  -24.8969  -29.0900   20.2191 C   0  0  0  0  0  0  0  0  0  0  0  0
  -32.0333  -29.3517   19.9295 C   0  0  0  0  0  0  0  0  0  0  0  0
  -19.7813  -26.1256   23.0514 C   0  0  0  0  0  0  0  0  0  0  0  0
  -31.0593  -29.4499   21.0974 C   0  0  0  0  0  0  0  0  0  0  0  0
  -22.7398  -23.9132   19.4923 C   0  0  0  0  0  0  0  0  0  0  0  0
  -20.7444  -27.0978   22.3868 C   0  0  0  0  0  0  0  0  0  0  0  0
  -22.6508  -22.6496   20.3494 C   0  0  0  0  0  0  0  0  0  0  0  0
  -24.0640  -24.6468   19.6545 C   0  0  0  0  0  0  0  0  0  0  0  0
  -25.1122  -22.3753   19.7671 C   0  0  0  0  0  0  0  0  0  0  0  0
  -30.7836  -26.9424   21.0604 C   0  0  0  0  0  0  0  0  0  0  0  0
  -20.5958  -28.5048   22.9796 C   0  0  1  0  0  0  0  0  0  0  0  0
  -23.3241  -30.6396   21.4222 C   0  0  1  0  0  0  0  0  0  0  0  0
  -24.0233  -22.1464   20.8270 C   0  0  2  0  0  0  0  0  0  0  0  0
  -30.0649  -28.2889   21.0918 C   0  0  1  0  0  0  0  0  0  1  0  0
  -31.9599  -21.7991   17.6228 C   0  0  0  0  0  0  0  0  0  0  0  0
  -25.3402  -30.1591   14.1803 C   0  0  0  0  0  0  0  0  0  0  0  0
  -20.8789  -27.7159   18.2007 C   0  0  0  0  0  0  0  0  0  0  0  0
  -22.2398  -27.5177   16.1086 C   0  0  0  0  0  0  0  0  0  0  0  0
  -21.0691  -29.6566   16.6349 C   0  0  0  0  0  0  0  0  0  0  0  0
  -27.9357  -29.6349   16.9126 C   0  0  0  0  0  0  0  0  0  0  0  0
  -31.0660  -26.6219   18.5651 C   0  0  0  0  0  0  0  0  0  0  0  0
  -23.1088  -28.9977   17.9756 C   0  0  1  0  0  0  0  0  0  0  0  0
  -25.8567  -30.1027   15.6096 C   0  0  2  0  0  0  0  0  0  0  0  0
  -29.1139  -21.2263   17.8153 C   0  0  0  0  0  0  0  0  0  0  0  0
  -21.8363  -28.4688   17.2555 C   0  0  0  0  0  0  0  0  0  0  0  0
  -24.2487  -19.7248   20.4137 N   0  0  0  0  0  0  0  0  0  0  0  0
  -23.9600  -20.7019   21.2901 N   0  0  0  0  0  0  0  0  0  0  0  0
  -23.6863  -29.9274   20.1950 N   0  0  0  0  0  0  0  0  0  0  0  0
  -25.2013  -23.7800   19.3328 N   0  0  0  0  0  0  0  0  0  0  0  0
  -23.3172  -21.0959   23.5356 N   0  0  0  0  0  0  0  0  0  0  0  0
  -22.1504  -17.4902   23.7161 N   0  0  0  0  0  0  0  0  0  0  0  0
  -27.3290  -23.4098   18.3858 N   0  0  0  0  0  0  0  0  0  0  0  0
  -21.3690  -29.4351   22.1868 N   0  0  0  0  0  0  0  0  0  0  0  0
  -24.0207  -29.7383   17.1105 N   0  0  0  0  0  0  0  0  0  0  0  0
  -31.7360  -26.8274   19.8954 N   0  3  1  0  0  0  0  0  0  0  0  0
  -27.2931  -29.7074   15.5751 N   0  3  0  0  0  0  0  0  0  0  0  0
  -24.3538  -17.6029   24.3413 O   0  0  0  0  0  0  0  0  0  0  0  0
  -23.4454  -29.0583   23.1713 O   0  0  0  0  0  0  0  0  0  0  0  0
  -21.7563  -30.6057   19.0763 O   0  0  0  0  0  0  0  0  0  0  0  0
  -25.3273  -27.9213   16.5034 O   0  0  0  0  0  0  0  0  0  0  0  0
  -26.3500  -25.5211   18.3284 O   0  0  0  0  0  0  0  0  0  0  0  0
  -24.9707  -13.6039   18.8120 O   0  0  0  0  0  0  0  0  0  0  0  0
  -29.2731  -28.3421   22.2754 O   0  0  0  0  0  0  0  0  0  1  0  0
  -25.5383   -9.2798   22.1860 F   0  0  0  0  0  0  0  0  0  0  0  0
  -27.2898  -12.0991   18.8112 F   0  0  0  0  0  0  0  0  0  0  0  0
  -30.1048  -20.3262   17.5540 F   0  0  0  0  0  0  0  0  0  0  0  0
  -28.4537  -20.7308   18.9010 F   0  0  0  0  0  0  0  0  0  0  0  0
  -28.2403  -21.1285   16.7738 F   0  0  0  0  0  0  0  0  0  0  0  0
  1  2  1  0  0  0  0
  1  5  2  0  0  0  0
  2  6  2  0  0  0  0
  3  8  2  0  0  0  0
  3 17  1  0  0  0  0
  4  9  1  0  0  0  0
  4 17  2  0  0  0  0
  5 19  1  0  0  0  0
  6 21  1  0  0  0  0
  7 10  2  0  0  0  0
  7 20  1  0  0  0  0
  8 27  1  0  0  0  0
  9 27  2  0  0  0  0
 10 28  1  0  0  0  0
 11 12  2  0  0  0  0
 11 29  1  0  0  0  0
 12 30  1  0  0  0  0
 13 22  1  0  0  0  0
 13 28  2  0  0  0  0
 14 23  1  0  0  0  0
 14 24  2  0  0  0  0
 15 23  2  0  0  0  0
 15 26  1  0  0  0  0
 16 30  2  0  0  0  0
 16 31  1  0  0  0  0
 17 32  1  0  0  0  0
 18 32  1  0  0  0  0
 18 33  2  0  0  0  0
 18 36  1  0  0  0  0
 19 21  2  0  0  0  0
 19 41  1  0  0  0  0
 20 22  2  0  0  0  0
 20 42  1  0  0  0  0
 21 53  1  0  0  0  0
 22 43  1  0  0  0  0
 23 63  1  0  0  0  0
 24 25  1  0  0  0  0
 24 57  1  0  0  0  0
 25 26  2  0  0  0  0
 25 66  1  0  0  0  0
 26 74  1  0  0  0  0
 27 84  1  0  0  0  0
 28 85  1  0  0  0  0
 29 31  2  0  0  0  0
 29 84  1  0  0  0  0
 30 86  1  0  0  0  0
 31 87  1  0  0  0  0
 32 68  2  0  0  0  0
 33 69  1  0  0  0  0
 33 72  1  0  0  0  0
 34 35  2  0  0  0  0
 34 44  1  0  0  0  0
 34 77  1  0  0  0  0
 36 73  1  0  0  0  0
 36 79  2  0  0  0  0
 37 54  1  0  0  0  0
 37 75  1  0  0  0  0
 37 80  2  0  0  0  0
 38 64  1  0  0  0  0
 38 70  1  0  0  0  0
 38 81  2  0  0  0  0
 39 65  1  0  0  0  0
 39 76  1  0  0  0  0
 39 82  2  0  0  0  0
 40 71  1  0  0  0  0
 40 74  1  0  0  0  0
 40 83  2  0  0  0  0
 41 45  1  0  0  0  0
 42 54  1  0  0  0  0
 43 70  1  0  0  0  0
 44 46  1  0  0  0  0
 45 48  1  0  0  0  0
 46 56  1  0  0  0  0
 47 49  1  0  0  0  0
 47 50  1  0  0  0  0
 48 53  1  0  0  0  0
 49 55  1  0  0  0  0
 50 71  1  0  0  0  0
 51 55  1  0  0  0  0
 51 71  1  0  0  0  0
 52 56  1  0  0  0  0
 52 77  1  0  0  0  0
 53 75  1  0  0  0  0
 54 70  1  0  0  0  0
 55 69  1  0  0  0  0
 56 85  1  0  0  0  0
 58 65  1  0  0  0  0
 59 67  1  0  0  0  0
 60 67  1  0  0  0  0
 61 67  1  0  0  0  0
 62 78  1  0  0  0  0
 63 77  1  0  0  0  0
 64 67  1  0  0  0  0
 64 76  1  0  0  0  0
 65 78  1  0  0  0  0
 66 88  1  0  0  0  0
 66 89  1  0  0  0  0
 66 90  1  0  0  0  0
 68 69  1  0  0  0  0
M  CHG  2  77   1  78   1
M  ISO  4  40 100  56 101  74 100  85 101
M  END
> <Batch ID>
0036

> <Smiles>
C=C1CC[101CH:1]([101O:1]c2ccc3c(c2)CN(C(=O)C(NC(=O)C(C)NC)C(C)(C)C)C(C(=O)NC2CCCc4ccccc42)C3)CN1Cc1cc(C)c(C(F)(F)F)c([100NH:0][100C:0](=O)N2CCCC(n3nc(-c4ccc(Oc5ccc(F)cc5F)cc4)c(C(N)=O)c3N)C2)c1

> <Shape>
0.253

> <Color>
0.095

> <Negative vol penalty>
0.000

$$$$

  -OEChem-04042321543D

 88 97  0     1  0  0  0  0  0999 V2000
  -20.6958  -16.7699   25.6239 C   0  0  0  0  0  0  0  0  0  0  0  0
  -20.5808  -18.0804   26.0764 C   0  0  0  0  0  0  0  0  0  0  0  0
  -28.4600  -13.9164   21.2002 C   0  0  0  0  0  0  0  0  0  0  0  0
  -26.6175  -14.9842   20.0592 C   0  0  0  0  0  0  0  0  0  0  0  0
  -21.5324  -16.4760   24.5480 C   0  0  0  0  0  0  0  0  0  0  0  0
  -21.3033  -19.0977   25.4539 C   0  0  0  0  0  0  0  0  0  0  0  0
  -20.8578  -26.0528   23.7976 C   0  0  0  0  0  0  0  0  0  0  0  0
  -27.7316  -12.7286   21.2649 C   0  0  0  0  0  0  0  0  0  0  0  0
  -25.8890  -13.7964   20.1238 C   0  0  0  0  0  0  0  0  0  0  0  0
  -21.5767  -27.2400   23.9309 C   0  0  0  0  0  0  0  0  0  0  0  0
  -24.0735  -12.1093   22.4235 C   0  0  0  0  0  0  0  0  0  0  0  0
  -22.7361  -12.1896   22.8115 C   0  0  0  0  0  0  0  0  0  0  0  0
  -22.9301  -26.6267   22.0305 C   0  0  0  0  0  0  0  0  0  0  0  0
  -27.5230  -27.5376   20.3095 C   0  0  0  0  0  0  0  0  0  0  0  0
  -28.6948  -28.2374   22.7426 C   0  0  0  0  0  0  0  0  0  0  0  0
  -22.0655  -11.2296   20.6982 C   0  0  0  0  0  0  0  0  0  0  0  0
  -27.9029  -15.0442   20.5974 C   0  0  0  0  0  0  0  0  0  0  0  0
  -29.8973  -16.4743   19.9012 C   0  0  0  0  0  0  0  0  0  0  0  0
  -22.2581  -17.4917   23.9058 C   0  0  0  0  0  0  0  0  0  0  0  0
  -21.1773  -25.1371   22.7848 C   0  0  0  0  0  0  0  0  0  0  0  0
  -22.1515  -18.8169   24.3692 C   0  0  0  0  0  0  0  0  0  0  0  0
  -22.2121  -25.4298   21.8850 C   0  0  0  0  0  0  0  0  0  0  0  0
  -28.5285  -26.7392   20.8545 C   0  0  0  0  0  0  0  0  0  0  0  0
  -27.6893  -29.0359   22.1975 C   0  0  0  0  0  0  0  0  0  0  0  0
  -26.4461  -12.6686   20.7267 C   0  0  0  0  0  0  0  0  0  0  0  0
  -22.6149  -27.5257   23.0491 C   0  0  0  0  0  0  0  0  0  0  0  0
  -24.4069  -11.5893   21.1728 C   0  0  0  0  0  0  0  0  0  0  0  0
  -21.7321  -11.7497   21.9489 C   0  0  0  0  0  0  0  0  0  0  0  0
  -23.4029  -11.1494   20.3102 C   0  0  0  0  0  0  0  0  0  0  0  0
  -29.1143  -27.0890   22.0710 C   0  0  0  0  0  0  0  0  0  0  0  0
  -27.1034  -28.6860   20.9809 C   0  0  0  0  0  0  0  0  0  0  0  0
  -28.6546  -16.2716   20.5308 C   0  0  0  0  0  0  0  0  0  0  0  0
  -30.1814  -17.8000   20.1209 C   0  0  0  0  0  0  0  0  0  0  0  0
  -30.7212  -15.5471   19.1820 C   0  0  0  0  0  0  0  0  0  0  0  0
  -22.1885  -22.1243   22.7221 C   0  0  0  0  0  0  0  0  0  0  0  0
  -21.7561  -22.4553   19.5244 C   0  0  0  0  0  0  0  0  0  0  0  0
  -21.5541  -24.5379   16.8283 C   0  0  0  0  0  0  0  0  0  0  0  0
  -28.6506  -23.0539   20.1347 C   0  0  0  0  0  0  0  0  0  0  0  0
  -23.1861  -17.1183   22.7770 C   0  0  0  0  0  0  0  0  0  0  0  0
  -20.3749  -23.8734   22.6379 C   0  0  0  0  0  0  0  0  0  0  0  0
  -22.5815  -24.4893   20.7681 C   0  0  0  0  0  0  0  0  0  0  0  0
  -23.6294  -18.3107   21.9332 C   0  0  0  0  0  0  0  0  0  0  0  0
  -27.9646  -21.1852   23.1570 C   0  0  0  0  0  0  0  0  0  0  0  0
  -24.0621  -19.4671   22.8289 C   0  0  0  0  0  0  0  0  0  0  0  0
  -28.1884  -19.7479   22.6834 C   0  0  0  0  0  0  0  0  0  0  0  0
  -23.4814  -30.1422   25.1032 C   0  0  0  0  0  0  0  0  0  0  0  0
  -23.8443  -31.4056   24.3313 C   0  0  0  0  0  0  0  0  0  0  0  0
  -27.3081  -22.0298   22.0691 C   0  0  0  0  0  0  0  0  0  0  0  0
  -28.2689  -20.6105   20.2981 C   0  0  0  0  0  0  0  0  0  0  0  0
  -25.4980  -28.9858   24.1259 C   0  0  0  0  0  0  0  0  0  0  0  0
  -22.8999  -19.9517   23.7042 C   0  0  1  0  0  0  0  0  0  0  0  0
  -21.1219  -22.7751   21.8876 C   0  0  1  0  0  0  0  0  0  0  0  0
  -28.9504  -19.7111   21.3454 C   0  0  2  0  0  0  0  0  0  0  0  0
  -24.0061  -28.8918   24.4089 C   0  0  2  0  0  0  0  0  0  1  0  0
  -25.3500  -31.5095   24.0611 C   0  0  2  0  0  0  0  0  0  0  0  0
  -25.6388  -32.7510   23.2193 C   0  0  0  0  0  0  0  0  0  0  0  0
  -21.2320  -24.5132   14.3398 C   0  0  0  0  0  0  0  0  0  0  0  0
  -24.6344  -21.5091   19.1637 C   0  0  0  0  0  0  0  0  0  0  0  0
  -24.5599  -22.3981   16.8244 C   0  0  0  0  0  0  0  0  0  0  0  0
  -23.0116  -20.5666   17.5106 C   0  0  0  0  0  0  0  0  0  0  0  0
  -19.0782  -26.1484   17.0162 C   0  0  0  0  0  0  0  0  0  0  0  0
  -28.9489  -25.5170   20.1038 C   0  0  0  0  0  0  0  0  0  0  0  0
  -27.2665  -30.2631   22.9499 C   0  0  0  0  0  0  0  0  0  0  0  0
  -22.6165  -22.9110   18.3707 C   0  0  1  0  0  0  0  0  0  0  0  0
  -20.5488  -24.6226   15.6940 C   0  0  2  0  0  0  0  0  0  0  0  0
  -23.7002  -21.8633   17.9895 C   0  0  0  0  0  0  0  0  0  0  0  0
  -28.1819  -17.3798   21.1073 N   0  0  0  0  0  0  0  0  0  0  0  0
  -29.1326  -18.2916   20.8410 N   0  0  0  0  0  0  0  0  0  0  0  0
  -21.7715  -23.2638   20.6697 N   0  0  0  0  0  0  0  0  0  0  0  0
  -28.0926  -21.9669   20.8278 N   0  0  0  0  0  0  0  0  0  0  0  0
  -31.2236  -18.5815   19.7666 N   0  0  0  0  0  0  0  0  0  0  0  0
  -30.5266  -15.4125   17.8006 N   0  0  0  0  0  0  0  0  0  0  0  0
  -21.9928  -20.7724   22.9309 N   0  0  0  0  0  0  0  0  0  0  0  0
  -21.7006  -23.2453   17.2855 N   0  0  0  0  0  0  0  0  0  0  0  0
  -28.4320  -24.3047   20.6989 N   0  0  0  0  0  0  0  0  0  0  0  0
  -25.8066  -30.2469   23.3358 N   0  3  1  0  0  0  0  0  0  0  0  0
  -19.8159  -25.9191   15.7472 N   0  3  0  0  0  0  0  0  0  0  0  0
  -31.5927  -14.8464   19.7504 O   0  0  0  0  0  0  0  0  0  0  0  0
  -23.1208  -22.7984   23.1441 O   0  0  0  0  0  0  0  0  0  0  0  0
  -21.0892  -21.4238   19.4108 O   0  0  0  0  0  0  0  0  0  0  0  0
  -22.1526  -25.5196   17.2627 O   0  0  0  0  0  0  0  0  0  0  0  0
  -29.3006  -22.9193   19.0923 O   0  0  0  0  0  0  0  0  0  0  0  0
  -25.7352  -11.5096   20.7894 O   0  0  0  0  0  0  0  0  0  0  0  0
  -23.3186  -28.6834   23.1773 O   0  0  0  0  0  0  0  0  0  1  0  0
  -20.4479  -11.8254   22.3222 F   0  0  0  0  0  0  0  0  0  0  0  0
  -23.7171  -10.6478   19.1080 F   0  0  0  0  0  0  0  0  0  0  0  0
  -30.3599  -26.1243   22.7760 Cl  0  0  0  0  0  0  0  0  0  0  0  0
  -25.8569  -29.6499   20.2763 Cl  0  0  0  0  0  0  0  0  0  0  0  0
  1  2  1  0  0  0  0
  1  5  2  0  0  0  0
  2  6  2  0  0  0  0
  3  8  2  0  0  0  0
  3 17  1  0  0  0  0
  4  9  1  0  0  0  0
  4 17  2  0  0  0  0
  5 19  1  0  0  0  0
  6 21  1  0  0  0  0
  7 10  2  0  0  0  0
  7 20  1  0  0  0  0
  8 25  1  0  0  0  0
  9 25  2  0  0  0  0
 10 26  1  0  0  0  0
 11 12  2  0  0  0  0
 11 27  1  0  0  0  0
 12 28  1  0  0  0  0
 13 22  1  0  0  0  0
 13 26  2  0  0  0  0
 14 23  2  0  0  0  0
 14 31  1  0  0  0  0
 15 24  1  0  0  0  0
 15 30  2  0  0  0  0
 16 28  2  0  0  0  0
 16 29  1  0  0  0  0
 17 32  1  0  0  0  0
 18 32  1  0  0  0  0
 18 33  2  0  0  0  0
 18 34  1  0  0  0  0
 19 21  2  0  0  0  0
 19 39  1  0  0  0  0
 20 22  2  0  0  0  0
 20 40  1  0  0  0  0
 21 51  1  0  0  0  0
 22 41  1  0  0  0  0
 23 30  1  0  0  0  0
 23 62  1  0  0  0  0
 24 31  2  0  0  0  0
 24 63  1  0  0  0  0
 25 83  1  0  0  0  0
 26 84  1  0  0  0  0
 27 29  2  0  0  0  0
 27 83  1  0  0  0  0
 28 85  1  0  0  0  0
 29 86  1  0  0  0  0
 30 87  1  0  0  0  0
 31 88  1  0  0  0  0
 32 67  2  0  0  0  0
 33 68  1  0  0  0  0
 33 71  1  0  0  0  0
 34 72  1  0  0  0  0
 34 78  2  0  0  0  0
 35 52  1  0  0  0  0
 35 73  1  0  0  0  0
 35 79  2  0  0  0  0
 36 64  1  0  0  0  0
 36 69  1  0  0  0  0
 36 80  2  0  0  0  0
 37 65  1  0  0  0  0
 37 74  1  0  0  0  0
 37 81  2  0  0  0  0
 38 70  1  0  0  0  0
 38 75  1  0  0  0  0
 38 82  2  0  0  0  0
 39 42  1  0  0  0  0
 40 52  1  0  0  0  0
 41 69  1  0  0  0  0
 42 44  1  0  0  0  0
 43 45  1  0  0  0  0
 43 48  1  0  0  0  0
 44 51  1  0  0  0  0
 45 53  1  0  0  0  0
 46 47  1  0  0  0  0
 46 54  1  0  0  0  0
 47 55  1  0  0  0  0
 48 70  1  0  0  0  0
 49 53  1  0  0  0  0
 49 70  1  0  0  0  0
 50 54  1  0  0  0  0
 50 76  1  0  0  0  0
 51 73  1  0  0  0  0
 52 69  1  0  0  0  0
 53 68  1  0  0  0  0
 54 84  1  0  0  0  0
 55 56  1  0  0  0  0
 55 76  1  0  0  0  0
 57 65  1  0  0  0  0
 58 66  1  0  0  0  0
 59 66  1  0  0  0  0
 60 66  1  0  0  0  0
 61 77  1  0  0  0  0
 62 75  1  0  0  0  0
 63 76  1  0  0  0  0
 64 66  1  0  0  0  0
 64 74  1  0  0  0  0
 65 77  1  0  0  0  0
 67 68  1  0  0  0  0
M  CHG  2  76   1  77   1
M  ISO  4  38 100  54 101  75 100  84 101
M  END
> <Batch ID>
0036

> <Smiles>
CNC(C)C(=O)NC(C(=O)N1Cc2cc([101O:1][101CH:1]3CCC(C)N(Cc4cc(Cl)c(C[100NH:0][100C:0](=O)N5CCCC(n6nc(-c7ccc(Oc8ccc(F)cc8F)cc7)c(C(N)=O)c6N)C5)cc4Cl)C3)ccc2CC1C(=O)NC1CCCc2ccccc21)C(C)(C)C

> <Shape>
0.211

> <Color>
0.071

> <Negative vol penalty>
0.000

$$$$

  -OEChem-04042321543D

 83 91  0     1  0  0  0  0  0999 V2000
  -23.1545  -35.5954   15.5392 C   0  0  0  0  0  0  0  0  0  0  0  0
  -23.8484  -34.3913   15.6022 C   0  0  0  0  0  0  0  0  0  0  0  0
  -26.7745  -10.7383   21.0146 C   0  0  0  0  0  0  0  0  0  0  0  0
  -25.6458  -12.7015   20.1726 C   0  0  0  0  0  0  0  0  0  0  0  0
  -23.1352  -36.4462   16.6436 C   0  0  0  0  0  0  0  0  0  0  0  0
  -24.5244  -34.0377   16.7694 C   0  0  0  0  0  0  0  0  0  0  0  0
  -25.2232  -28.3990   19.0547 C   0  0  0  0  0  0  0  0  0  0  0  0
  -25.5647  -10.2575   21.5153 C   0  0  0  0  0  0  0  0  0  0  0  0
  -24.4359  -12.2206   20.6733 C   0  0  0  0  0  0  0  0  0  0  0  0
  -26.2733  -27.4842   18.9901 C   0  0  0  0  0  0  0  0  0  0  0  0
  -22.7112   -8.3417   22.6996 C   0  0  0  0  0  0  0  0  0  0  0  0
  -22.4076   -6.9978   22.4820 C   0  0  0  0  0  0  0  0  0  0  0  0
  -27.0682  -28.2547   21.1334 C   0  0  0  0  0  0  0  0  0  0  0  0
  -30.8288  -20.4054   22.0394 C   0  0  0  0  0  0  0  0  0  0  0  0
  -22.5069   -7.3618   20.0956 C   0  0  0  0  0  0  0  0  0  0  0  0
  -26.8151  -11.9604   20.3433 C   0  0  0  0  0  0  0  0  0  0  0  0
  -29.3014  -22.1825   21.4509 C   0  0  0  0  0  0  0  0  0  0  0  0
  -28.6098  -12.2241   18.5496 C   0  0  0  0  0  0  0  0  0  0  0  0
  -23.8033  -36.0984   17.8282 C   0  0  0  0  0  0  0  0  0  0  0  0
  -25.0937  -29.2575   20.1560 C   0  0  0  0  0  0  0  0  0  0  0  0
  -24.5152  -34.8852   17.8903 C   0  0  0  0  0  0  0  0  0  0  0  0
  -26.0141  -29.1777   21.2108 C   0  0  0  0  0  0  0  0  0  0  0  0
  -28.7045  -21.3546   20.5001 C   0  0  0  0  0  0  0  0  0  0  0  0
  -29.1698  -20.0521   20.3190 C   0  0  0  0  0  0  0  0  0  0  0  0
  -30.2319  -19.5776   21.0886 C   0  0  0  0  0  0  0  0  0  0  0  0
  -24.3954  -10.9986   21.3446 C   0  0  0  0  0  0  0  0  0  0  0  0
  -27.1977  -27.4139   20.0282 C   0  0  0  0  0  0  0  0  0  0  0  0
  -22.9126   -9.1957   21.6152 C   0  0  0  0  0  0  0  0  0  0  0  0
  -22.3055   -6.5079   21.1800 C   0  0  0  0  0  0  0  0  0  0  0  0
  -22.8104   -8.7058   20.3132 C   0  0  0  0  0  0  0  0  0  0  0  0
  -30.3635  -21.7079   22.2206 C   0  0  0  0  0  0  0  0  0  0  0  0
  -28.0646  -12.4579   19.8263 C   0  0  0  0  0  0  0  0  0  0  0  0
  -29.7994  -12.9106   18.5532 C   0  0  0  0  0  0  0  0  0  0  0  0
  -28.7965  -23.5542   21.6288 C   0  0  0  0  0  0  0  0  0  0  0  0
  -29.2539  -24.6375   20.9817 C   0  0  0  0  0  0  0  0  0  0  0  0
  -28.0876  -11.4551   17.4580 C   0  0  0  0  0  0  0  0  0  0  0  0
  -25.1431  -32.4099   20.5607 C   0  0  0  0  0  0  0  0  0  0  0  0
  -24.3322  -31.6401   23.6057 C   0  0  0  0  0  0  0  0  0  0  0  0
  -24.3364  -29.3174   26.1060 C   0  0  0  0  0  0  0  0  0  0  0  0
  -31.7676  -17.6507   21.6131 C   0  0  0  0  0  0  0  0  0  0  0  0
  -23.7934  -37.0722   18.9799 C   0  0  0  0  0  0  0  0  0  0  0  0
  -23.9400  -30.2202   20.2229 C   0  0  0  0  0  0  0  0  0  0  0  0
  -25.9080  -30.0631   22.4245 C   0  0  0  0  0  0  0  0  0  0  0  0
  -24.2233  -36.4510   20.3064 C   0  0  0  0  0  0  0  0  0  0  0  0
  -33.2467  -14.4134   21.5183 C   0  0  0  0  0  0  0  0  0  0  0  0
  -25.4853  -35.6147   20.1202 C   0  0  0  0  0  0  0  0  0  0  0  0
  -32.1373  -13.5243   20.9518 C   0  0  0  0  0  0  0  0  0  0  0  0
  -32.6900  -15.4967   22.4404 C   0  0  0  0  0  0  0  0  0  0  0  0
  -30.5117  -15.4292   21.2918 C   0  0  0  0  0  0  0  0  0  0  0  0
  -25.2401  -34.4552   19.1471 C   0  0  1  0  0  0  0  0  0  0  0  0
  -24.2003  -31.4010   21.1532 C   0  0  1  0  0  0  0  0  0  0  0  0
  -31.0173  -14.3634   20.3059 C   0  0  2  0  0  0  0  0  0  0  0  0
  -27.5627  -21.8493   19.6650 C   0  0  0  0  0  0  0  0  0  0  0  0
  -28.5292  -19.1638   19.2982 C   0  0  0  0  0  0  0  0  0  0  0  0
  -23.6351  -28.9916   28.4934 C   0  0  0  0  0  0  0  0  0  0  0  0
  -26.7065  -33.3190   24.5297 C   0  0  0  0  0  0  0  0  0  0  0  0
  -26.5329  -32.2075   26.7663 C   0  0  0  0  0  0  0  0  0  0  0  0
  -24.6389  -33.5871   25.9108 C   0  0  0  0  0  0  0  0  0  0  0  0
  -22.5110  -27.1009   25.3890 C   0  0  0  0  0  0  0  0  0  0  0  0
  -28.7178  -26.0150   21.2064 C   0  0  0  0  0  0  0  0  0  1  0  0
  -25.0969  -31.3292   24.8697 C   0  0  1  0  0  0  0  0  0  0  0  0
  -23.2365  -28.8345   27.0342 C   0  0  2  0  0  0  0  0  0  0  0  0
  -25.7472  -32.5952   25.4955 C   0  0  0  0  0  0  0  0  0  0  0  0
  -28.8439  -13.2324   20.5858 N   0  0  0  0  0  0  0  0  0  0  0  0
  -29.8910  -13.4911   19.7840 N   0  0  0  0  0  0  0  0  0  0  0  0
  -24.7662  -30.9923   22.4404 N   0  0  0  0  0  0  0  0  0  0  0  0
  -31.6369  -16.2535   21.7599 N   0  0  0  0  0  0  0  0  0  0  0  0
  -30.7655  -13.0683   17.6237 N   0  0  0  0  0  0  0  0  0  0  0  0
  -26.8520  -10.8144   17.6229 N   0  0  0  0  0  0  0  0  0  0  0  0
  -30.7205  -18.2581   20.9209 N   0  0  0  0  0  0  0  0  0  0  0  0
  -24.5210  -33.3860   19.8060 N   0  0  0  0  0  0  0  0  0  0  0  0
  -24.1629  -30.6388   25.7524 N   0  0  0  0  0  0  0  0  0  0  0  0
  -22.9388  -27.3965   26.7806 N   0  3  0  0  0  0  0  0  0  0  0  0
  -28.7063  -11.3260   16.3745 O   0  0  0  0  0  0  0  0  0  0  0  0
  -26.3458  -32.3109   20.7738 O   0  0  0  0  0  0  0  0  0  0  0  0
  -23.3802  -32.4232   23.6520 O   0  0  0  0  0  0  0  0  0  0  0  0
  -25.2594  -28.5956   25.7349 O   0  0  0  0  0  0  0  0  0  0  0  0
  -32.7502  -18.2594   22.0442 O   0  0  0  0  0  0  0  0  0  0  0  0
  -23.2147  -10.5295   21.8329 O   0  0  0  0  0  0  0  0  0  0  0  0
  -28.2240  -26.5224   19.9674 O   0  0  0  0  0  0  0  0  0  1  0  0
  -22.0155   -5.2170   20.9712 F   0  0  0  0  0  0  0  0  0  0  0  0
  -23.0040   -9.5211   19.2675 F   0  0  0  0  0  0  0  0  0  0  0  0
  -31.1430  -22.6870   23.4155 Cl  0  0  0  0  0  0  0  0  0  0  0  0
  1  2  1  0  0  0  0
  1  5  2  0  0  0  0
  2  6  2  0  0  0  0
  3  8  2  0  0  0  0
  3 16  1  0  0  0  0
  4  9  1  0  0  0  0
  4 16  2  0  0  0  0
  5 19  1  0  0  0  0
  6 21  1  0  0  0  0
  7 10  2  0  0  0  0
  7 20  1  0  0  0  0
  8 26  1  0  0  0  0
  9 26  2  0  0  0  0
 10 27  1  0  0  0  0
 11 12  2  0  0  0  0
 11 28  1  0  0  0  0
 12 29  1  0  0  0  0
 13 22  1  0  0  0  0
 13 27  2  0  0  0  0
 14 25  1  0  0  0  0
 14 31  2  0  0  0  0
 15 29  2  0  0  0  0
 15 30  1  0  0  0  0
 16 32  1  0  0  0  0
 17 23  2  0  0  0  0
 17 31  1  0  0  0  0
 17 34  1  0  0  0  0
 18 32  1  0  0  0  0
 18 33  2  0  0  0  0
 18 36  1  0  0  0  0
 19 21  2  0  0  0  0
 19 41  1  0  0  0  0
 20 22  2  0  0  0  0
 20 42  1  0  0  0  0
 21 50  1  0  0  0  0
 22 43  1  0  0  0  0
 23 24  1  0  0  0  0
 23 53  1  0  0  0  0
 24 25  2  0  0  0  0
 24 54  1  0  0  0  0
 25 70  1  0  0  0  0
 26 79  1  0  0  0  0
 27 80  1  0  0  0  0
 28 30  2  0  0  0  0
 28 79  1  0  0  0  0
 29 81  1  0  0  0  0
 30 82  1  0  0  0  0
 31 83  1  0  0  0  0
 32 64  2  0  0  0  0
 33 65  1  0  0  0  0
 33 68  1  0  0  0  0
 34 35  2  0  0  0  0
 35 60  1  0  0  0  0
 36 69  1  0  0  0  0
 36 74  2  0  0  0  0
 37 51  1  0  0  0  0
 37 71  1  0  0  0  0
 37 75  2  0  0  0  0
 38 61  1  0  0  0  0
 38 66  1  0  0  0  0
 38 76  2  0  0  0  0
 39 62  1  0  0  0  0
 39 72  1  0  0  0  0
 39 77  2  0  0  0  0
 40 67  1  0  0  0  0
 40 70  1  0  0  0  0
 40 78  2  0  0  0  0
 41 44  1  0  0  0  0
 42 51  1  0  0  0  0
 43 66  1  0  0  0  0
 44 46  1  0  0  0  0
 45 47  1  0  0  0  0
 45 48  1  0  0  0  0
 46 50  1  0  0  0  0
 47 52  1  0  0  0  0
 48 67  1  0  0  0  0
 49 52  1  0  0  0  0
 49 67  1  0  0  0  0
 50 71  1  0  0  0  0
 51 66  1  0  0  0  0
 52 65  1  0  0  0  0
 55 62  1  0  0  0  0
 56 63  1  0  0  0  0
 57 63  1  0  0  0  0
 58 63  1  0  0  0  0
 59 73  1  0  0  0  0
 60 80  1  0  0  0  0
 61 63  1  0  0  0  0
 61 72  1  0  0  0  0
 62 73  1  0  0  0  0
 64 65  1  0  0  0  0
M  CHG  1  73   1
M  ISO  4  40 100  60 101  70 100  80 101
M  END
> <Batch ID>
0036

> <Smiles>
CNC(C)C(=O)NC(C(=O)N1Cc2cc([101O:1][101CH2:1]C=Cc3c(Cl)cc([100NH:0][100C:0](=O)N4CCCC(n5nc(-c6ccc(Oc7ccc(F)cc7F)cc6)c(C(N)=O)c5N)C4)c(C)c3C)ccc2CC1C(=O)NC1CCCc2ccccc21)C(C)(C)C

> <Shape>
0.309

> <Color>
0.103

> <Negative vol penalty>
0.000

$$$$

  -OEChem-04042321543D

 89 98  0     1  0  0  0  0  0999 V2000
  -29.8589  -26.5105   28.2501 C   0  0  0  0  0  0  0  0  0  0  0  0
  -28.8273  -27.0484   27.4873 C   0  0  0  0  0  0  0  0  0  0  0  0
  -23.7756   -9.8542   21.7656 C   0  0  0  0  0  0  0  0  0  0  0  0
  -21.7812  -10.3698   20.5033 C   0  0  0  0  0  0  0  0  0  0  0  0
  -30.9668  -25.9439   27.6213 C   0  0  0  0  0  0  0  0  0  0  0  0
  -28.9035  -27.0210   26.0952 C   0  0  0  0  0  0  0  0  0  0  0  0
  -24.5541  -25.5788   23.9394 C   0  0  0  0  0  0  0  0  0  0  0  0
  -23.3478   -8.5336   21.9022 C   0  0  0  0  0  0  0  0  0  0  0  0
  -21.3534   -9.0491   20.6398 C   0  0  0  0  0  0  0  0  0  0  0  0
  -23.5379  -26.5298   23.8578 C   0  0  0  0  0  0  0  0  0  0  0  0
  -21.1535   -6.8115   23.8111 C   0  0  0  0  0  0  0  0  0  0  0  0
  -21.2613   -6.2232   25.0712 C   0  0  0  0  0  0  0  0  0  0  0  0
  -24.1157  -26.9405   21.5520 C   0  0  0  0  0  0  0  0  0  0  0  0
  -18.9872  -23.8480   20.4771 C   0  0  0  0  0  0  0  0  0  0  0  0
  -20.6061  -23.8557   22.2704 C   0  0  0  0  0  0  0  0  0  0  0  0
  -22.7152   -4.5255   24.1541 C   0  0  0  0  0  0  0  0  0  0  0  0
  -22.9923  -10.7723   21.0662 C   0  0  0  0  0  0  0  0  0  0  0  0
  -24.6175  -12.5883   20.3122 C   0  0  0  0  0  0  0  0  0  0  0  0
  -31.0523  -25.9008   26.2208 C   0  0  0  0  0  0  0  0  0  0  0  0
  -25.3672  -25.3089   22.8292 C   0  0  0  0  0  0  0  0  0  0  0  0
  -30.0143  -26.4545   25.4472 C   0  0  0  0  0  0  0  0  0  0  0  0
  -25.1399  -25.9838   21.6213 C   0  0  0  0  0  0  0  0  0  0  0  0
  -19.4573  -24.3799   21.6778 C   0  0  0  0  0  0  0  0  0  0  0  0
  -20.8145  -22.2676   20.4617 C   0  0  0  0  0  0  0  0  0  0  0  0
  -22.1367   -8.1311   21.3393 C   0  0  0  0  0  0  0  0  0  0  0  0
  -23.3204  -27.2129   22.6648 C   0  0  0  0  0  0  0  0  0  0  0  0
  -21.8265   -6.2568   22.7225 C   0  0  0  0  0  0  0  0  0  0  0  0
  -22.0422   -5.0802   25.2427 C   0  0  0  0  0  0  0  0  0  0  0  0
  -22.6074   -5.1138   22.8940 C   0  0  0  0  0  0  0  0  0  0  0  0
  -19.6657  -22.7918   19.8691 C   0  0  0  0  0  0  0  0  0  0  0  0
  -21.2847  -22.7996   21.6624 C   0  0  0  0  0  0  0  0  0  0  0  0
  -23.4334  -12.1367   20.9252 C   0  0  0  0  0  0  0  0  0  0  0  0
  -24.5695  -13.9552   20.4380 C   0  0  0  0  0  0  0  0  0  0  0  0
  -18.1994  -27.8812   22.2931 C   0  0  0  0  0  0  0  0  0  0  0  0
  -17.0790  -28.3124   21.6942 C   0  0  0  0  0  0  0  0  0  0  0  0
  -25.6668  -11.8392   19.6850 C   0  0  0  0  0  0  0  0  0  0  0  0
  -28.4735  -25.5696   22.2074 C   0  0  0  0  0  0  0  0  0  0  0  0
  -27.6472  -24.0876   19.4428 C   0  0  0  0  0  0  0  0  0  0  0  0
  -24.9526  -24.2865   17.0518 C   0  0  0  0  0  0  0  0  0  0  0  0
  -21.8366  -18.6777   20.0184 C   0  0  0  0  0  0  0  0  0  0  0  0
  -32.2915  -25.3205   25.5866 C   0  0  0  0  0  0  0  0  0  0  0  0
  -26.4419  -24.2609   22.9257 C   0  0  0  0  0  0  0  0  0  0  0  0
  -25.9718  -25.7162   20.3946 C   0  0  0  0  0  0  0  0  0  0  0  0
  -18.7180  -28.4638   23.5796 C   0  0  0  0  0  0  0  0  0  0  0  0
  -32.1219  -24.9946   24.1049 C   0  0  0  0  0  0  0  0  0  0  0  0
  -20.1877  -28.8407   23.4366 C   0  0  0  0  0  0  0  0  0  0  0  0
  -21.4892  -16.9075   23.1558 C   0  0  0  0  0  0  0  0  0  0  0  0
  -31.4522  -26.1554   23.3763 C   0  0  0  0  0  0  0  0  0  0  0  0
  -22.0671  -15.5372   22.7975 C   0  0  0  0  0  0  0  0  0  0  0  0
  -20.6966  -17.4948   21.9918 C   0  0  0  0  0  0  0  0  0  0  0  0
  -22.0391  -16.2308   20.3566 C   0  0  0  0  0  0  0  0  0  0  0  0
  -20.3991  -27.2284   21.5078 C   0  0  0  0  0  0  0  0  0  0  0  0
  -30.0490  -26.4213   23.9346 C   0  0  1  0  0  0  0  0  0  0  0  0
  -27.5422  -24.4358   21.8835 C   0  0  1  0  0  0  0  0  0  0  0  0
  -22.8707  -15.5938   21.4848 C   0  0  2  0  0  0  0  0  0  0  0  0
  -20.9994  -27.6956   22.8313 C   0  0  1  0  0  0  0  0  0  1  0  0
  -16.5483  -27.7498   20.4211 C   0  0  0  0  0  0  0  0  0  0  0  0
  -24.0185  -22.5511   15.4983 C   0  0  0  0  0  0  0  0  0  0  0  0
  -29.5773  -25.2883   17.4073 C   0  0  0  0  0  0  0  0  0  0  0  0
  -27.8177  -24.9697   15.6550 C   0  0  0  0  0  0  0  0  0  0  0  0
  -28.7634  -22.9915   16.8445 C   0  0  0  0  0  0  0  0  0  0  0  0
  -22.2142  -24.6394   18.1175 C   0  0  0  0  0  0  0  0  0  0  0  0
  -21.5430  -21.1326   19.8089 C   0  0  0  0  0  0  0  0  0  0  0  0
  -18.7271  -25.5155   22.3321 C   0  0  0  0  0  0  0  0  0  0  0  0
  -27.1966  -24.5465   18.0771 C   0  0  1  0  0  0  0  0  0  0  0  0
  -23.8544  -23.2615   16.8329 C   0  0  2  0  0  0  0  0  0  0  0  0
  -28.3333  -24.4643   17.0194 C   0  0  0  0  0  0  0  0  0  0  0  0
  -22.6878  -13.1357   21.4050 N   0  0  0  0  0  0  0  0  0  0  0  0
  -23.4052  -14.2285   21.0935 N   0  0  0  0  0  0  0  0  0  0  0  0
  -27.0144  -24.6870   20.5410 N   0  0  0  0  0  0  0  0  0  0  0  0
  -21.5243  -17.5379   20.7780 N   0  0  0  0  0  0  0  0  0  0  0  0
  -25.4103  -14.9379   20.0509 N   0  0  0  0  0  0  0  0  0  0  0  0
  -25.5670  -11.5689   18.3134 N   0  0  0  0  0  0  0  0  0  0  0  0
  -29.1097  -25.4440   23.4277 N   0  0  0  0  0  0  0  0  0  0  0  0
  -26.0165  -23.7541   17.7489 N   0  0  0  0  0  0  0  0  0  0  0  0
  -21.3043  -19.8748   20.4812 N   0  0  0  0  0  0  0  0  0  0  0  0
  -18.9488  -26.8335   21.6431 N   0  3  1  0  0  0  0  0  0  0  0  0
  -22.5184  -23.9216   16.8528 N   0  3  0  0  0  0  0  0  0  0  0  0
  -26.6554  -11.4078   20.3254 O   0  0  0  0  0  0  0  0  0  0  0  0
  -28.6062  -26.4895   21.4088 O   0  0  0  0  0  0  0  0  0  0  0  0
  -28.5232  -23.2236   19.5319 O   0  0  0  0  0  0  0  0  0  0  0  0
  -24.8761  -25.4426   16.6420 O   0  0  0  0  0  0  0  0  0  0  0  0
  -22.5425  -18.6327   19.0051 O   0  0  0  0  0  0  0  0  0  0  0  0
  -21.7191   -6.8425   21.4722 O   0  0  0  0  0  0  0  0  0  0  0  0
  -22.3296  -28.1421   22.5826 O   0  0  0  0  0  0  0  0  0  1  0  0
  -22.1469   -4.5163   26.4532 F   0  0  0  0  0  0  0  0  0  0  0  0
  -23.2572   -4.5770   21.8522 F   0  0  0  0  0  0  0  0  0  0  0  0
  -19.0487  -22.1631   18.3836 Cl  0  0  0  0  0  0  0  0  0  0  0  0
  -22.7021  -22.1804   22.4306 Cl  0  0  0  0  0  0  0  0  0  0  0  0
  1  2  1  0  0  0  0
  1  5  2  0  0  0  0
  2  6  2  0  0  0  0
  3  8  2  0  0  0  0
  3 17  1  0  0  0  0
  4  9  1  0  0  0  0
  4 17  2  0  0  0  0
  5 19  1  0  0  0  0
  6 21  1  0  0  0  0
  7 10  2  0  0  0  0
  7 20  1  0  0  0  0
  8 25  1  0  0  0  0
  9 25  2  0  0  0  0
 10 26  1  0  0  0  0
 11 12  2  0  0  0  0
 11 27  1  0  0  0  0
 12 28  1  0  0  0  0
 13 22  1  0  0  0  0
 13 26  2  0  0  0  0
 14 23  1  0  0  0  0
 14 30  2  0  0  0  0
 15 23  2  0  0  0  0
 15 31  1  0  0  0  0
 16 28  2  0  0  0  0
 16 29  1  0  0  0  0
 17 32  1  0  0  0  0
 18 32  1  0  0  0  0
 18 33  2  0  0  0  0
 18 36  1  0  0  0  0
 19 21  2  0  0  0  0
 19 41  1  0  0  0  0
 20 22  2  0  0  0  0
 20 42  1  0  0  0  0
 21 53  1  0  0  0  0
 22 43  1  0  0  0  0
 23 64  1  0  0  0  0
 24 30  1  0  0  0  0
 24 31  2  0  0  0  0
 24 63  1  0  0  0  0
 25 84  1  0  0  0  0
 26 85  1  0  0  0  0
 27 29  2  0  0  0  0
 27 84  1  0  0  0  0
 28 86  1  0  0  0  0
 29 87  1  0  0  0  0
 30 88  1  0  0  0  0
 31 89  1  0  0  0  0
 32 68  2  0  0  0  0
 33 69  1  0  0  0  0
 33 72  1  0  0  0  0
 34 35  2  0  0  0  0
 34 44  1  0  0  0  0
 34 77  1  0  0  0  0
 35 57  1  0  0  0  0
 36 73  1  0  0  0  0
 36 79  2  0  0  0  0
 37 54  1  0  0  0  0
 37 74  1  0  0  0  0
 37 80  2  0  0  0  0
 38 65  1  0  0  0  0
 38 70  1  0  0  0  0
 38 81  2  0  0  0  0
 39 66  1  0  0  0  0
 39 75  1  0  0  0  0
 39 82  2  0  0  0  0
 40 71  1  0  0  0  0
 40 76  1  0  0  0  0
 40 83  2  0  0  0  0
 41 45  1  0  0  0  0
 42 54  1  0  0  0  0
 43 70  1  0  0  0  0
 44 46  1  0  0  0  0
 45 48  1  0  0  0  0
 46 56  1  0  0  0  0
 47 49  1  0  0  0  0
 47 50  1  0  0  0  0
 48 53  1  0  0  0  0
 49 55  1  0  0  0  0
 50 71  1  0  0  0  0
 51 55  1  0  0  0  0
 51 71  1  0  0  0  0
 52 56  1  0  0  0  0
 52 77  1  0  0  0  0
 53 74  1  0  0  0  0
 54 70  1  0  0  0  0
 55 69  1  0  0  0  0
 56 85  1  0  0  0  0
 58 66  1  0  0  0  0
 59 67  1  0  0  0  0
 60 67  1  0  0  0  0
 61 67  1  0  0  0  0
 62 78  1  0  0  0  0
 63 76  1  0  0  0  0
 64 77  1  0  0  0  0
 65 67  1  0  0  0  0
 65 75  1  0  0  0  0
 66 78  1  0  0  0  0
 68 69  1  0  0  0  0
M  CHG  2  77   1  78   1
M  ISO  4  40 100  56 101  76 100  85 101
M  END
> <Batch ID>
0036

> <Smiles>
CC=C1CC[101CH:1]([101O:1]c2ccc3c(c2)CN(C(=O)C(NC(=O)C(C)NC)C(C)(C)C)C(C(=O)NC2CCCc4ccccc42)C3)CN1Cc1cc(Cl)c(C[100NH:0][100C:0](=O)N2CCCC(n3nc(-c4ccc(Oc5ccc(F)cc5F)cc4)c(C(N)=O)c3N)C2)c(Cl)c1

> <Shape>
0.188

> <Color>
0.120

> <Negative vol penalty>
0.000

$$$$

  -OEChem-04042321543D

 88 97  0     1  0  0  0  0  0999 V2000
  -20.6958  -16.7699   25.6239 C   0  0  0  0  0  0  0  0  0  0  0  0
  -20.5808  -18.0804   26.0764 C   0  0  0  0  0  0  0  0  0  0  0  0
  -28.4600  -13.9164   21.2002 C   0  0  0  0  0  0  0  0  0  0  0  0
  -26.6175  -14.9842   20.0592 C   0  0  0  0  0  0  0  0  0  0  0  0
  -21.5324  -16.4760   24.5480 C   0  0  0  0  0  0  0  0  0  0  0  0
  -21.3033  -19.0977   25.4539 C   0  0  0  0  0  0  0  0  0  0  0  0
  -20.8578  -26.0528   23.7976 C   0  0  0  0  0  0  0  0  0  0  0  0
  -27.7316  -12.7286   21.2649 C   0  0  0  0  0  0  0  0  0  0  0  0
  -25.8890  -13.7964   20.1238 C   0  0  0  0  0  0  0  0  0  0  0  0
  -21.5767  -27.2400   23.9309 C   0  0  0  0  0  0  0  0  0  0  0  0
  -24.0735  -12.1093   22.4235 C   0  0  0  0  0  0  0  0  0  0  0  0
  -22.7361  -12.1896   22.8115 C   0  0  0  0  0  0  0  0  0  0  0  0
  -22.9301  -26.6267   22.0305 C   0  0  0  0  0  0  0  0  0  0  0  0
  -27.5230  -27.5376   20.3095 C   0  0  0  0  0  0  0  0  0  0  0  0
  -28.6948  -28.2374   22.7426 C   0  0  0  0  0  0  0  0  0  0  0  0
  -22.0655  -11.2296   20.6982 C   0  0  0  0  0  0  0  0  0  0  0  0
  -27.9029  -15.0442   20.5974 C   0  0  0  0  0  0  0  0  0  0  0  0
  -29.8973  -16.4743   19.9012 C   0  0  0  0  0  0  0  0  0  0  0  0
  -22.2581  -17.4917   23.9058 C   0  0  0  0  0  0  0  0  0  0  0  0
  -21.1773  -25.1371   22.7848 C   0  0  0  0  0  0  0  0  0  0  0  0
  -22.1515  -18.8169   24.3692 C   0  0  0  0  0  0  0  0  0  0  0  0
  -22.2121  -25.4298   21.8850 C   0  0  0  0  0  0  0  0  0  0  0  0
  -28.5285  -26.7392   20.8545 C   0  0  0  0  0  0  0  0  0  0  0  0
  -27.6893  -29.0359   22.1975 C   0  0  0  0  0  0  0  0  0  0  0  0
  -26.4461  -12.6686   20.7267 C   0  0  0  0  0  0  0  0  0  0  0  0
  -22.6149  -27.5257   23.0491 C   0  0  0  0  0  0  0  0  0  0  0  0
  -24.4069  -11.5893   21.1728 C   0  0  0  0  0  0  0  0  0  0  0  0
  -21.7321  -11.7497   21.9489 C   0  0  0  0  0  0  0  0  0  0  0  0
  -23.4029  -11.1494   20.3102 C   0  0  0  0  0  0  0  0  0  0  0  0
  -29.1143  -27.0890   22.0710 C   0  0  0  0  0  0  0  0  0  0  0  0
  -27.1034  -28.6860   20.9809 C   0  0  0  0  0  0  0  0  0  0  0  0
  -28.6546  -16.2716   20.5308 C   0  0  0  0  0  0  0  0  0  0  0  0
  -30.1814  -17.8000   20.1209 C   0  0  0  0  0  0  0  0  0  0  0  0
  -30.7212  -15.5471   19.1820 C   0  0  0  0  0  0  0  0  0  0  0  0
  -22.1885  -22.1243   22.7221 C   0  0  0  0  0  0  0  0  0  0  0  0
  -21.7561  -22.4553   19.5244 C   0  0  0  0  0  0  0  0  0  0  0  0
  -21.5541  -24.5379   16.8283 C   0  0  0  0  0  0  0  0  0  0  0  0
  -28.6506  -23.0539   20.1347 C   0  0  0  0  0  0  0  0  0  0  0  0
  -23.1861  -17.1183   22.7770 C   0  0  0  0  0  0  0  0  0  0  0  0
  -20.3749  -23.8734   22.6379 C   0  0  0  0  0  0  0  0  0  0  0  0
  -22.5815  -24.4893   20.7681 C   0  0  0  0  0  0  0  0  0  0  0  0
  -23.6294  -18.3107   21.9332 C   0  0  0  0  0  0  0  0  0  0  0  0
  -27.9646  -21.1852   23.1570 C   0  0  0  0  0  0  0  0  0  0  0  0
  -24.0621  -19.4671   22.8289 C   0  0  0  0  0  0  0  0  0  0  0  0
  -28.1884  -19.7479   22.6834 C   0  0  0  0  0  0  0  0  0  0  0  0
  -23.4814  -30.1422   25.1032 C   0  0  0  0  0  0  0  0  0  0  0  0
  -23.8443  -31.4056   24.3313 C   0  0  0  0  0  0  0  0  0  0  0  0
  -27.3081  -22.0298   22.0691 C   0  0  0  0  0  0  0  0  0  0  0  0
  -28.2689  -20.6105   20.2981 C   0  0  0  0  0  0  0  0  0  0  0  0
  -25.4980  -28.9858   24.1259 C   0  0  0  0  0  0  0  0  0  0  0  0
  -22.8999  -19.9517   23.7042 C   0  0  1  0  0  0  0  0  0  0  0  0
  -21.1219  -22.7751   21.8876 C   0  0  1  0  0  0  0  0  0  0  0  0
  -28.9504  -19.7111   21.3454 C   0  0  2  0  0  0  0  0  0  0  0  0
  -24.0061  -28.8918   24.4089 C   0  0  2  0  0  0  0  0  0  1  0  0
  -25.3500  -31.5095   24.0611 C   0  0  2  0  0  0  0  0  0  0  0  0
  -25.6388  -32.7510   23.2193 C   0  0  0  0  0  0  0  0  0  0  0  0
  -21.2320  -24.5132   14.3398 C   0  0  0  0  0  0  0  0  0  0  0  0
  -24.6344  -21.5091   19.1637 C   0  0  0  0  0  0  0  0  0  0  0  0
  -24.5599  -22.3981   16.8244 C   0  0  0  0  0  0  0  0  0  0  0  0
  -23.0116  -20.5666   17.5106 C   0  0  0  0  0  0  0  0  0  0  0  0
  -19.0782  -26.1484   17.0162 C   0  0  0  0  0  0  0  0  0  0  0  0
  -28.9489  -25.5170   20.1038 C   0  0  0  0  0  0  0  0  0  0  0  0
  -27.2665  -30.2631   22.9499 C   0  0  0  0  0  0  0  0  0  0  0  0
  -22.6165  -22.9110   18.3707 C   0  0  1  0  0  0  0  0  0  0  0  0
  -20.5488  -24.6226   15.6940 C   0  0  2  0  0  0  0  0  0  0  0  0
  -23.7002  -21.8633   17.9895 C   0  0  0  0  0  0  0  0  0  0  0  0
  -28.1819  -17.3798   21.1073 N   0  0  0  0  0  0  0  0  0  0  0  0
  -29.1326  -18.2916   20.8410 N   0  0  0  0  0  0  0  0  0  0  0  0
  -21.7715  -23.2638   20.6697 N   0  0  0  0  0  0  0  0  0  0  0  0
  -28.0926  -21.9669   20.8278 N   0  0  0  0  0  0  0  0  0  0  0  0
  -31.2236  -18.5815   19.7666 N   0  0  0  0  0  0  0  0  0  0  0  0
  -30.5266  -15.4125   17.8006 N   0  0  0  0  0  0  0  0  0  0  0  0
  -21.9928  -20.7724   22.9309 N   0  0  0  0  0  0  0  0  0  0  0  0
  -21.7006  -23.2453   17.2855 N   0  0  0  0  0  0  0  0  0  0  0  0
  -28.4320  -24.3047   20.6989 N   0  0  0  0  0  0  0  0  0  0  0  0
  -25.8066  -30.2469   23.3358 N   0  3  1  0  0  0  0  0  0  0  0  0
  -19.8159  -25.9191   15.7472 N   0  3  0  0  0  0  0  0  0  0  0  0
  -31.5927  -14.8464   19.7504 O   0  0  0  0  0  0  0  0  0  0  0  0
  -23.1208  -22.7984   23.1441 O   0  0  0  0  0  0  0  0  0  0  0  0
  -21.0892  -21.4238   19.4108 O   0  0  0  0  0  0  0  0  0  0  0  0
  -22.1526  -25.5196   17.2627 O   0  0  0  0  0  0  0  0  0  0  0  0
  -29.3006  -22.9193   19.0923 O   0  0  0  0  0  0  0  0  0  0  0  0
  -25.7352  -11.5096   20.7894 O   0  0  0  0  0  0  0  0  0  0  0  0
  -23.3186  -28.6834   23.1773 O   0  0  0  0  0  0  0  0  0  1  0  0
  -20.4479  -11.8254   22.3222 F   0  0  0  0  0  0  0  0  0  0  0  0
  -23.7171  -10.6478   19.1080 F   0  0  0  0  0  0  0  0  0  0  0  0
  -30.3599  -26.1243   22.7760 Cl  0  0  0  0  0  0  0  0  0  0  0  0
  -25.8569  -29.6499   20.2763 Cl  0  0  0  0  0  0  0  0  0  0  0  0
  1  2  1  0  0  0  0
  1  5  2  0  0  0  0
  2  6  2  0  0  0  0
  3  8  2  0  0  0  0
  3 17  1  0  0  0  0
  4  9  1  0  0  0  0
  4 17  2  0  0  0  0
  5 19  1  0  0  0  0
  6 21  1  0  0  0  0
  7 10  2  0  0  0  0
  7 20  1  0  0  0  0
  8 25  1  0  0  0  0
  9 25  2  0  0  0  0
 10 26  1  0  0  0  0
 11 12  2  0  0  0  0
 11 27  1  0  0  0  0
 12 28  1  0  0  0  0
 13 22  1  0  0  0  0
 13 26  2  0  0  0  0
 14 23  2  0  0  0  0
 14 31  1  0  0  0  0
 15 24  1  0  0  0  0
 15 30  2  0  0  0  0
 16 28  2  0  0  0  0
 16 29  1  0  0  0  0
 17 32  1  0  0  0  0
 18 32  1  0  0  0  0
 18 33  2  0  0  0  0
 18 34  1  0  0  0  0
 19 21  2  0  0  0  0
 19 39  1  0  0  0  0
 20 22  2  0  0  0  0
 20 40  1  0  0  0  0
 21 51  1  0  0  0  0
 22 41  1  0  0  0  0
 23 30  1  0  0  0  0
 23 62  1  0  0  0  0
 24 31  2  0  0  0  0
 24 63  1  0  0  0  0
 25 83  1  0  0  0  0
 26 84  1  0  0  0  0
 27 29  2  0  0  0  0
 27 83  1  0  0  0  0
 28 85  1  0  0  0  0
 29 86  1  0  0  0  0
 30 87  1  0  0  0  0
 31 88  1  0  0  0  0
 32 67  2  0  0  0  0
 33 68  1  0  0  0  0
 33 71  1  0  0  0  0
 34 72  1  0  0  0  0
 34 78  2  0  0  0  0
 35 52  1  0  0  0  0
 35 73  1  0  0  0  0
 35 79  2  0  0  0  0
 36 64  1  0  0  0  0
 36 69  1  0  0  0  0
 36 80  2  0  0  0  0
 37 65  1  0  0  0  0
 37 74  1  0  0  0  0
 37 81  2  0  0  0  0
 38 70  1  0  0  0  0
 38 75  1  0  0  0  0
 38 82  2  0  0  0  0
 39 42  1  0  0  0  0
 40 52  1  0  0  0  0
 41 69  1  0  0  0  0
 42 44  1  0  0  0  0
 43 45  1  0  0  0  0
 43 48  1  0  0  0  0
 44 51  1  0  0  0  0
 45 53  1  0  0  0  0
 46 47  1  0  0  0  0
 46 54  1  0  0  0  0
 47 55  1  0  0  0  0
 48 70  1  0  0  0  0
 49 53  1  0  0  0  0
 49 70  1  0  0  0  0
 50 54  1  0  0  0  0
 50 76  1  0  0  0  0
 51 73  1  0  0  0  0
 52 69  1  0  0  0  0
 53 68  1  0  0  0  0
 54 84  1  0  0  0  0
 55 56  1  0  0  0  0
 55 76  1  0  0  0  0
 57 65  1  0  0  0  0
 58 66  1  0  0  0  0
 59 66  1  0  0  0  0
 60 66  1  0  0  0  0
 61 77  1  0  0  0  0
 62 75  1  0  0  0  0
 63 76  1  0  0  0  0
 64 66  1  0  0  0  0
 64 74  1  0  0  0  0
 65 77  1  0  0  0  0
 67 68  1  0  0  0  0
M  CHG  2  76   1  77   1
M  ISO  4  38 100  54 101  75 100  84 101
M  END
> <Batch ID>
0036

> <Smiles>
CNC(C)C(=O)NC(C(=O)N1Cc2cc([101O:1][101CH:1]3CCC(C)N(Cc4cc(Cl)c(C[100NH:0][100C:0](=O)N5CCCC(n6nc(-c7ccc(Oc8ccc(F)cc8F)cc7)c(C(N)=O)c6N)C5)cc4Cl)C3)ccc2CC1C(=O)NC1CCCc2ccccc21)C(C)(C)C

> <Shape>
0.211

> <Color>
0.071

> <Negative vol penalty>
0.000

$$$$

  -OEChem-04042321543D

 89 98  0     1  0  0  0  0  0999 V2000
  -16.9941  -26.8359   20.7679 C   0  0  0  0  0  0  0  0  0  0  0  0
  -18.1226  -27.0525   19.9837 C   0  0  0  0  0  0  0  0  0  0  0  0
  -26.1034  -13.1945   21.0145 C   0  0  0  0  0  0  0  0  0  0  0  0
  -24.3659  -14.7219   20.3179 C   0  0  0  0  0  0  0  0  0  0  0  0
  -16.8931  -27.4351   22.0227 C   0  0  0  0  0  0  0  0  0  0  0  0
  -19.1504  -27.8695   20.4535 C   0  0  0  0  0  0  0  0  0  0  0  0
  -23.7355  -25.8678   19.6694 C   0  0  0  0  0  0  0  0  0  0  0  0
  -25.2890  -12.1138   20.6762 C   0  0  0  0  0  0  0  0  0  0  0  0
  -23.5515  -13.6412   19.9796 C   0  0  0  0  0  0  0  0  0  0  0  0
  -24.2595  -25.9620   18.3809 C   0  0  0  0  0  0  0  0  0  0  0  0
  -23.5292   -8.9503   20.3318 C   0  0  0  0  0  0  0  0  0  0  0  0
  -23.4494   -7.8891   21.2336 C   0  0  0  0  0  0  0  0  0  0  0  0
  -25.6049  -27.8412   19.0718 C   0  0  0  0  0  0  0  0  0  0  0  0
  -30.5365  -23.4138   20.6280 C   0  0  0  0  0  0  0  0  0  0  0  0
  -22.5893   -9.3884   22.9217 C   0  0  0  0  0  0  0  0  0  0  0  0
  -25.6418  -14.4986   20.8354 C   0  0  0  0  0  0  0  0  0  0  0  0
  -27.7483  -15.9259   20.6535 C   0  0  0  0  0  0  0  0  0  0  0  0
  -17.9245  -28.2520   22.5123 C   0  0  0  0  0  0  0  0  0  0  0  0
  -24.1348  -26.7680   20.6677 C   0  0  0  0  0  0  0  0  0  0  0  0
  -19.0625  -28.4812   21.7156 C   0  0  0  0  0  0  0  0  0  0  0  0
  -25.0865  -27.7548   20.3729 C   0  0  0  0  0  0  0  0  0  0  0  0
  -31.2852  -23.3575   19.4526 C   0  0  0  0  0  0  0  0  0  0  0  0
  -29.1484  -23.5374   20.5657 C   0  0  0  0  0  0  0  0  0  0  0  0
  -30.6460  -23.4249   18.2146 C   0  0  0  0  0  0  0  0  0  0  0  0
  -28.5092  -23.6048   19.3277 C   0  0  0  0  0  0  0  0  0  0  0  0
  -29.2579  -23.5486   18.1522 C   0  0  0  0  0  0  0  0  0  0  0  0
  -24.0131  -12.3371   20.1587 C   0  0  0  0  0  0  0  0  0  0  0  0
  -25.1922  -26.9506   18.0812 C   0  0  0  0  0  0  0  0  0  0  0  0
  -23.1392  -10.2305   20.7250 C   0  0  0  0  0  0  0  0  0  0  0  0
  -22.9794   -8.1082   22.5285 C   0  0  0  0  0  0  0  0  0  0  0  0
  -22.6692  -10.4496   22.0199 C   0  0  0  0  0  0  0  0  0  0  0  0
  -26.4823  -15.6154   21.1852 C   0  0  0  0  0  0  0  0  0  0  0  0
  -28.1243  -17.0727   21.3093 C   0  0  0  0  0  0  0  0  0  0  0  0
  -28.5160  -24.8335   14.7225 C   0  0  0  0  0  0  0  0  0  0  0  0
  -29.5916  -24.8427   13.9209 C   0  0  0  0  0  0  0  0  0  0  0  0
  -28.5157  -15.2392   19.6559 C   0  0  0  0  0  0  0  0  0  0  0  0
  -22.6547  -28.9498   22.4433 C   0  0  0  0  0  0  0  0  0  0  0  0
  -25.5450  -29.1588   23.9009 C   0  0  0  0  0  0  0  0  0  0  0  0
  -29.0078  -29.2005   22.8887 C   0  0  0  0  0  0  0  0  0  0  0  0
  -26.9487  -22.1594   23.2813 C   0  0  0  0  0  0  0  0  0  0  0  0
  -17.7492  -28.9161   23.8550 C   0  0  0  0  0  0  0  0  0  0  0  0
  -23.5802  -26.6364   22.0596 C   0  0  0  0  0  0  0  0  0  0  0  0
  -25.5633  -28.7329   21.4142 C   0  0  0  0  0  0  0  0  0  0  0  0
  -27.1068  -24.7415   14.2033 C   0  0  0  0  0  0  0  0  0  0  0  0
  -19.0489  -29.4663   24.4366 C   0  0  0  0  0  0  0  0  0  0  0  0
  -26.2465  -25.8456   14.8059 C   0  0  0  0  0  0  0  0  0  0  0  0
  -26.1050  -19.3758   25.3348 C   0  0  0  0  0  0  0  0  0  0  0  0
  -19.8205  -30.2456   23.3763 C   0  0  0  0  0  0  0  0  0  0  0  0
  -26.2263  -18.1765   24.3931 C   0  0  0  0  0  0  0  0  0  0  0  0
  -25.5550  -20.6052   24.6150 C   0  0  0  0  0  0  0  0  0  0  0  0
  -26.4102  -19.7888   22.4526 C   0  0  0  0  0  0  0  0  0  0  0  0
  -27.8778  -26.0534   16.7191 C   0  0  0  0  0  0  0  0  0  0  0  0
  -20.2094  -29.3409   22.2008 C   0  0  1  0  0  0  0  0  0  0  0  0
  -23.6733  -27.9289   22.8647 C   0  0  1  0  0  0  0  0  0  0  0  0
  -27.0132  -18.5407   23.1198 C   0  0  2  0  0  0  0  0  0  0  0  0
  -26.4100  -25.9122   16.3243 C   0  0  1  0  0  0  0  0  0  1  0  0
  -32.7701  -23.2255   19.5472 C   0  0  0  0  0  0  0  0  0  0  0  0
  -31.4514  -23.3641   16.9553 C   0  0  0  0  0  0  0  0  0  0  0  0
  -27.0205  -23.7382   19.2638 C   0  0  0  0  0  0  0  0  0  0  0  0
  -31.0775  -28.5038   24.1251 C   0  0  0  0  0  0  0  0  0  0  0  0
  -25.7132  -32.1011   24.6913 C   0  0  0  0  0  0  0  0  0  0  0  0
  -28.1988  -31.9577   24.4280 C   0  0  0  0  0  0  0  0  0  0  0  0
  -27.0444  -30.5547   26.1373 C   0  0  0  0  0  0  0  0  0  0  0  0
  -29.8140  -27.3453   20.7284 C   0  0  0  0  0  0  0  0  0  0  0  0
  -28.3699  -23.5945   21.8392 C   0  0  0  0  0  0  0  0  0  0  0  0
  -28.5704  -23.6205   16.8206 C   0  0  0  0  0  0  0  0  0  0  0  0
  -26.7928  -29.9813   23.6878 C   0  0  1  0  0  0  0  0  0  0  0  0
  -30.0297  -28.0981   23.1002 C   0  0  2  0  0  0  0  0  0  0  0  0
  -26.9201  -31.1420   24.7145 C   0  0  0  0  0  0  0  0  0  0  0  0
  -26.0810  -16.4939   22.1079 N   0  0  0  0  0  0  0  0  0  0  0  0
  -27.1007  -17.3676   22.1611 N   0  0  0  0  0  0  0  0  0  0  0  0
  -24.9869  -28.5673   22.7588 N   0  0  0  0  0  0  0  0  0  0  0  0
  -26.3466  -20.8977   23.4175 N   0  0  0  0  0  0  0  0  0  0  0  0
  -29.2273  -17.8473   21.2348 N   0  0  0  0  0  0  0  0  0  0  0  0
  -28.3381  -15.5972   18.3126 N   0  0  0  0  0  0  0  0  0  0  0  0
  -21.3467  -28.5175   22.5515 N   0  0  0  0  0  0  0  0  0  0  0  0
  -27.9090  -29.0420   23.7064 N   0  0  0  0  0  0  0  0  0  0  0  0
  -27.6864  -22.3516   22.1196 N   0  0  0  0  0  0  0  0  0  0  0  0
  -28.7353  -24.9529   16.1436 N   0  3  1  0  0  0  0  0  0  0  0  0
  -30.7229  -27.7817   21.8194 N   0  3  0  0  0  0  0  0  0  0  0  0
  -29.3227  -14.3236   19.9457 O   0  0  0  0  0  0  0  0  0  0  0  0
  -23.0277  -30.0490   22.0504 O   0  0  0  0  0  0  0  0  0  0  0  0
  -25.0865  -29.0395   25.0399 O   0  0  0  0  0  0  0  0  0  0  0  0
  -29.1699  -30.1132   22.0817 O   0  0  0  0  0  0  0  0  0  0  0  0
  -26.8416  -23.0468   24.1345 O   0  0  0  0  0  0  0  0  0  0  0  0
  -23.2183  -11.2828   19.8283 O   0  0  0  0  0  0  0  0  0  0  0  0
  -25.7047  -27.0451   16.8241 O   0  0  0  0  0  0  0  0  0  1  0  0
  -22.9013   -7.0888   23.3939 F   0  0  0  0  0  0  0  0  0  0  0  0
  -22.2919  -11.6770   22.4030 F   0  0  0  0  0  0  0  0  0  0  0  0
  1  2  1  0  0  0  0
  1  5  2  0  0  0  0
  2  6  2  0  0  0  0
  3  8  2  0  0  0  0
  3 16  1  0  0  0  0
  4  9  1  0  0  0  0
  4 16  2  0  0  0  0
  5 18  1  0  0  0  0
  6 20  1  0  0  0  0
  7 10  2  0  0  0  0
  7 19  1  0  0  0  0
  8 27  1  0  0  0  0
  9 27  2  0  0  0  0
 10 28  1  0  0  0  0
 11 12  2  0  0  0  0
 11 29  1  0  0  0  0
 12 30  1  0  0  0  0
 13 21  1  0  0  0  0
 13 28  2  0  0  0  0
 14 22  1  0  0  0  0
 14 23  2  0  0  0  0
 15 30  2  0  0  0  0
 15 31  1  0  0  0  0
 16 32  1  0  0  0  0
 17 32  1  0  0  0  0
 17 33  2  0  0  0  0
 17 36  1  0  0  0  0
 18 20  2  0  0  0  0
 18 41  1  0  0  0  0
 19 21  2  0  0  0  0
 19 42  1  0  0  0  0
 20 53  1  0  0  0  0
 21 43  1  0  0  0  0
 22 24  2  0  0  0  0
 22 57  1  0  0  0  0
 23 25  1  0  0  0  0
 23 65  1  0  0  0  0
 24 26  1  0  0  0  0
 24 58  1  0  0  0  0
 25 26  2  0  0  0  0
 25 59  1  0  0  0  0
 26 66  1  0  0  0  0
 27 86  1  0  0  0  0
 28 87  1  0  0  0  0
 29 31  2  0  0  0  0
 29 86  1  0  0  0  0
 30 88  1  0  0  0  0
 31 89  1  0  0  0  0
 32 70  2  0  0  0  0
 33 71  1  0  0  0  0
 33 74  1  0  0  0  0
 34 35  2  0  0  0  0
 34 44  1  0  0  0  0
 34 79  1  0  0  0  0
 36 75  1  0  0  0  0
 36 81  2  0  0  0  0
 37 54  1  0  0  0  0
 37 76  1  0  0  0  0
 37 82  2  0  0  0  0
 38 67  1  0  0  0  0
 38 72  1  0  0  0  0
 38 83  2  0  0  0  0
 39 68  1  0  0  0  0
 39 77  1  0  0  0  0
 39 84  2  0  0  0  0
 40 73  1  0  0  0  0
 40 78  1  0  0  0  0
 40 85  2  0  0  0  0
 41 45  1  0  0  0  0
 42 54  1  0  0  0  0
 43 72  1  0  0  0  0
 44 46  1  0  0  0  0
 45 48  1  0  0  0  0
 46 56  1  0  0  0  0
 47 49  1  0  0  0  0
 47 50  1  0  0  0  0
 48 53  1  0  0  0  0
 49 55  1  0  0  0  0
 50 73  1  0  0  0  0
 51 55  1  0  0  0  0
 51 73  1  0  0  0  0
 52 56  1  0  0  0  0
 52 79  1  0  0  0  0
 53 76  1  0  0  0  0
 54 72  1  0  0  0  0
 55 71  1  0  0  0  0
 56 87  1  0  0  0  0
 60 68  1  0  0  0  0
 61 69  1  0  0  0  0
 62 69  1  0  0  0  0
 63 69  1  0  0  0  0
 64 80  1  0  0  0  0
 65 78  1  0  0  0  0
 66 79  1  0  0  0  0
 67 69  1  0  0  0  0
 67 77  1  0  0  0  0
 68 80  1  0  0  0  0
 70 71  1  0  0  0  0
M  CHG  2  79   1  80   1
M  ISO  4  40 100  56 101  78 100  87 101
M  END
> <Batch ID>
0036

> <Smiles>
C=C1CC[101CH:1]([101O:1]c2ccc3c(c2)CN(C(=O)C(NC(=O)C(C)NC)C(C)(C)C)C(C(=O)NC2CCCc4ccccc42)C3)CN1Cc1c(C)c(C)cc(C[100NH:0][100C:0](=O)N2CCCC(n3nc(-c4ccc(Oc5ccc(F)cc5F)cc4)c(C(N)=O)c3N)C2)c1C

> <Shape>
0.276

> <Color>
0.055

> <Negative vol penalty>
0.000

$$$$

  -OEChem-04042321543D

 85 93  0     1  0  0  0  0  0999 V2000
  -30.2020  -23.6278   14.2960 C   0  0  0  0  0  0  0  0  0  0  0  0
  -29.9393  -24.9931   14.2896 C   0  0  0  0  0  0  0  0  0  0  0  0
  -26.1180  -13.5771   18.8967 C   0  0  0  0  0  0  0  0  0  0  0  0
  -25.2881  -13.9121   21.1408 C   0  0  0  0  0  0  0  0  0  0  0  0
  -29.4741  -22.7858   15.1341 C   0  0  0  0  0  0  0  0  0  0  0  0
  -28.9569  -25.5183   15.1298 C   0  0  0  0  0  0  0  0  0  0  0  0
  -24.2457  -30.1608   20.1948 C   0  0  0  0  0  0  0  0  0  0  0  0
  -25.9816  -12.1977   19.0522 C   0  0  0  0  0  0  0  0  0  0  0  0
  -25.1517  -12.5327   21.2963 C   0  0  0  0  0  0  0  0  0  0  0  0
  -23.4606  -29.8997   21.3169 C   0  0  0  0  0  0  0  0  0  0  0  0
  -24.2446   -9.1185   22.1559 C   0  0  0  0  0  0  0  0  0  0  0  0
  -23.0664   -8.6435   22.7318 C   0  0  0  0  0  0  0  0  0  0  0  0
  -25.1289  -28.3515   22.1165 C   0  0  0  0  0  0  0  0  0  0  0  0
  -25.0486  -24.4850   21.3207 C   0  0  0  0  0  0  0  0  0  0  0  0
  -23.4196  -23.6358   23.4201 C   0  0  0  0  0  0  0  0  0  0  0  0
  -21.7877   -9.6494   20.9458 C   0  0  0  0  0  0  0  0  0  0  0  0
  -25.7713  -14.4343   19.9410 C   0  0  0  0  0  0  0  0  0  0  0  0
  -24.9478  -16.7594   19.2903 C   0  0  0  0  0  0  0  0  0  0  0  0
  -28.4739  -23.3001   15.9756 C   0  0  0  0  0  0  0  0  0  0  0  0
  -25.4754  -29.5100   20.0194 C   0  0  0  0  0  0  0  0  0  0  0  0
  -28.2279  -24.6880   16.0004 C   0  0  0  0  0  0  0  0  0  0  0  0
  -25.9289  -28.6081   20.9925 C   0  0  0  0  0  0  0  0  0  0  0  0
  -25.6062  -23.8122   22.4078 C   0  0  0  0  0  0  0  0  0  0  0  0
  -22.8620  -24.3086   22.3329 C   0  0  0  0  0  0  0  0  0  0  0  0
  -25.4985  -11.6754   20.2520 C   0  0  0  0  0  0  0  0  0  0  0  0
  -23.9008  -28.9928   22.2765 C   0  0  0  0  0  0  0  0  0  0  0  0
  -24.1944   -9.8592   20.9749 C   0  0  0  0  0  0  0  0  0  0  0  0
  -21.8379   -8.9089   22.1268 C   0  0  0  0  0  0  0  0  0  0  0  0
  -22.9659  -10.1246   20.3699 C   0  0  0  0  0  0  0  0  0  0  0  0
  -24.7917  -23.3875   23.4576 C   0  0  0  0  0  0  0  0  0  0  0  0
  -23.6765  -24.7333   21.2832 C   0  0  0  0  0  0  0  0  0  0  0  0
  -25.9125  -15.8593   19.7812 C   0  0  0  0  0  0  0  0  0  0  0  0
  -25.5663  -17.9849   19.3370 C   0  0  0  0  0  0  0  0  0  0  0  0
  -23.6119  -16.5101   18.8331 C   0  0  0  0  0  0  0  0  0  0  0  0
  -26.6713  -27.5220   17.8465 C   0  0  0  0  0  0  0  0  0  0  0  0
  -29.4039  -27.9286   19.5465 C   0  0  0  0  0  0  0  0  0  0  0  0
  -30.3361  -28.1221   23.0266 C   0  0  0  0  0  0  0  0  0  0  0  0
  -28.7178  -21.7476   21.9931 C   0  0  0  0  0  0  0  0  0  0  0  0
  -27.7219  -22.3446   16.8681 C   0  0  0  0  0  0  0  0  0  0  0  0
  -26.3228  -29.8227   18.8167 C   0  0  0  0  0  0  0  0  0  0  0  0
  -27.2508  -27.8983   20.8613 C   0  0  0  0  0  0  0  0  0  0  0  0
  -26.4110  -22.9246   17.3892 C   0  0  0  0  0  0  0  0  0  0  0  0
  -30.4059  -19.2005   20.1659 C   0  0  0  0  0  0  0  0  0  0  0  0
  -26.6497  -24.3113   17.9676 C   0  0  0  0  0  0  0  0  0  0  0  0
  -29.3095  -18.1761   19.8682 C   0  0  0  0  0  0  0  0  0  0  0  0
  -30.2264  -19.8350   21.5433 C   0  0  0  0  0  0  0  0  0  0  0  0
  -27.8008  -19.4027   21.4862 C   0  0  0  0  0  0  0  0  0  0  0  0
  -27.1431  -25.2778   16.8834 C   0  0  1  0  0  0  0  0  0  0  0  0
  -27.3205  -28.7173   18.4850 C   0  0  1  0  0  0  0  0  0  0  0  0
  -27.9074  -18.7764   20.0853 C   0  0  2  0  0  0  0  0  0  0  0  0
  -32.2699  -29.2741   24.1360 C   0  0  0  0  0  0  0  0  0  0  0  0
  -30.7850  -25.2190   19.3000 C   0  0  0  0  0  0  0  0  0  0  0  0
  -31.8022  -25.6106   21.5538 C   0  0  0  0  0  0  0  0  0  0  0  0
  -32.3327  -27.1495   19.6636 C   0  0  0  0  0  0  0  0  0  0  0  0
  -28.5469  -29.6408   24.8297 C   0  0  0  0  0  0  0  0  0  0  0  0
  -27.0804  -23.5656   22.4093 C   0  0  0  0  0  0  0  0  0  0  0  0
  -21.3824  -24.5570   22.3304 C   0  0  0  0  0  0  0  0  0  0  0  0
  -21.0459  -27.8879   24.1886 C   0  0  0  0  0  0  0  0  0  0  0  0
  -21.4360  -26.4325   23.9791 C   0  0  0  0  0  0  0  0  0  0  0  0
  -21.7219  -28.8495   23.2189 C   0  0  0  0  0  0  0  0  0  1  0  0
  -30.0410  -27.2374   20.7277 C   0  0  1  0  0  0  0  0  0  0  0  0
  -30.7945  -29.3594   23.7771 C   0  0  2  0  0  0  0  0  0  0  0  0
  -31.2120  -26.3047   20.3079 C   0  0  0  0  0  0  0  0  0  0  0  0
  -27.0570  -16.4616   20.1151 N   0  0  0  0  0  0  0  0  0  0  0  0
  -26.8154  -17.7533   19.8334 N   0  0  0  0  0  0  0  0  0  0  0  0
  -28.0404  -28.2329   19.6646 N   0  0  0  0  0  0  0  0  0  0  0  0
  -28.8767  -20.3867   21.6840 N   0  0  0  0  0  0  0  0  0  0  0  0
  -25.1582  -19.2271   19.0014 N   0  0  0  0  0  0  0  0  0  0  0  0
  -23.1341  -15.1927   18.8523 N   0  0  0  0  0  0  0  0  0  0  0  0
  -27.5555  -26.5159   17.5068 N   0  0  0  0  0  0  0  0  0  0  0  0
  -30.4222  -28.2920   21.6609 N   0  0  0  0  0  0  0  0  0  0  0  0
  -27.4053  -22.1905   22.1022 N   0  0  0  0  0  0  0  0  0  0  0  0
  -30.0132  -29.5208   25.0359 N   0  3  0  0  0  0  0  0  0  0  0  0
  -21.0277  -25.9716   22.6314 N   0  3  0  0  0  0  0  0  0  0  0  0
  -22.8699  -17.4261   18.4043 O   0  0  0  0  0  0  0  0  0  0  0  0
  -25.4578  -27.5126   17.6761 O   0  0  0  0  0  0  0  0  0  0  0  0
  -30.0925  -28.1952   18.5583 O   0  0  0  0  0  0  0  0  0  0  0  0
  -29.9446  -27.1052   23.5949 O   0  0  0  0  0  0  0  0  0  0  0  0
  -29.6747  -22.5127   22.1544 O   0  0  0  0  0  0  0  0  0  0  0  0
  -25.3650  -10.3295   20.4040 O   0  0  0  0  0  0  0  0  0  0  0  0
  -23.1361  -28.7356   23.3724 O   0  0  0  0  0  0  0  0  0  1  0  0
  -20.7067   -8.4513   22.6791 F   0  0  0  0  0  0  0  0  0  0  0  0
  -22.9114  -10.8345   19.2346 F   0  0  0  0  0  0  0  0  0  0  0  0
  -25.4466  -22.5511   24.8180 Cl  0  0  0  0  0  0  0  0  0  0  0  0
  -23.0218  -25.5686   19.9219 Cl  0  0  0  0  0  0  0  0  0  0  0  0
  1  2  1  0  0  0  0
  1  5  2  0  0  0  0
  2  6  2  0  0  0  0
  3  8  2  0  0  0  0
  3 17  1  0  0  0  0
  4  9  1  0  0  0  0
  4 17  2  0  0  0  0
  5 19  1  0  0  0  0
  6 21  1  0  0  0  0
  7 10  2  0  0  0  0
  7 20  1  0  0  0  0
  8 25  1  0  0  0  0
  9 25  2  0  0  0  0
 10 26  1  0  0  0  0
 11 12  2  0  0  0  0
 11 27  1  0  0  0  0
 12 28  1  0  0  0  0
 13 22  1  0  0  0  0
 13 26  2  0  0  0  0
 14 23  2  0  0  0  0
 14 31  1  0  0  0  0
 15 24  1  0  0  0  0
 15 30  2  0  0  0  0
 16 28  2  0  0  0  0
 16 29  1  0  0  0  0
 17 32  1  0  0  0  0
 18 32  1  0  0  0  0
 18 33  2  0  0  0  0
 18 34  1  0  0  0  0
 19 21  2  0  0  0  0
 19 39  1  0  0  0  0
 20 22  2  0  0  0  0
 20 40  1  0  0  0  0
 21 48  1  0  0  0  0
 22 41  1  0  0  0  0
 23 30  1  0  0  0  0
 23 56  1  0  0  0  0
 24 31  2  0  0  0  0
 24 57  1  0  0  0  0
 25 80  1  0  0  0  0
 26 81  1  0  0  0  0
 27 29  2  0  0  0  0
 27 80  1  0  0  0  0
 28 82  1  0  0  0  0
 29 83  1  0  0  0  0
 30 84  1  0  0  0  0
 31 85  1  0  0  0  0
 32 64  2  0  0  0  0
 33 65  1  0  0  0  0
 33 68  1  0  0  0  0
 34 69  1  0  0  0  0
 34 75  2  0  0  0  0
 35 49  1  0  0  0  0
 35 70  1  0  0  0  0
 35 76  2  0  0  0  0
 36 61  1  0  0  0  0
 36 66  1  0  0  0  0
 36 77  2  0  0  0  0
 37 62  1  0  0  0  0
 37 71  1  0  0  0  0
 37 78  2  0  0  0  0
 38 67  1  0  0  0  0
 38 72  1  0  0  0  0
 38 79  2  0  0  0  0
 39 42  1  0  0  0  0
 40 49  1  0  0  0  0
 41 66  1  0  0  0  0
 42 44  1  0  0  0  0
 43 45  1  0  0  0  0
 43 46  1  0  0  0  0
 44 48  1  0  0  0  0
 45 50  1  0  0  0  0
 46 67  1  0  0  0  0
 47 50  1  0  0  0  0
 47 67  1  0  0  0  0
 48 70  1  0  0  0  0
 49 66  1  0  0  0  0
 50 65  1  0  0  0  0
 51 62  1  0  0  0  0
 52 63  1  0  0  0  0
 53 63  1  0  0  0  0
 54 63  1  0  0  0  0
 55 73  1  0  0  0  0
 56 72  1  0  0  0  0
 57 74  1  0  0  0  0
 58 59  1  0  0  0  0
 58 60  1  0  0  0  0
 59 74  1  0  0  0  0
 60 81  1  0  0  0  0
 61 63  1  0  0  0  0
 61 71  1  0  0  0  0
 62 73  1  0  0  0  0
 64 65  1  0  0  0  0
M  CHG  2  73   1  74   1
M  ISO  4  38 100  60 101  72 100  81 101
M  END
> <Batch ID>
0036

> <Smiles>
CNC(C)C(=O)NC(C(=O)N1Cc2cc([101O:1][101CH2:1]CCNCc3cc(Cl)c(C[100NH:0][100C:0](=O)N4CCCC(n5nc(-c6ccc(Oc7ccc(F)cc7F)cc6)c(C(N)=O)c5N)C4)cc3Cl)ccc2CC1C(=O)NC1CCCc2ccccc21)C(C)(C)C

> <Shape>
0.214

> <Color>
0.063

> <Negative vol penalty>
0.000

$$$$

  -OEChem-04042321543D

 88 97  0     1  0  0  0  0  0999 V2000
  -20.0379  -23.2859   29.6667 C   0  0  0  0  0  0  0  0  0  0  0  0
  -21.1199  -22.4653   29.9689 C   0  0  0  0  0  0  0  0  0  0  0  0
  -22.6680  -10.1993   20.1648 C   0  0  0  0  0  0  0  0  0  0  0  0
  -24.3221   -9.4111   21.7396 C   0  0  0  0  0  0  0  0  0  0  0  0
  -19.9163  -23.8355   28.3911 C   0  0  0  0  0  0  0  0  0  0  0  0
  -22.0803  -22.1929   28.9954 C   0  0  0  0  0  0  0  0  0  0  0  0
  -28.0890  -21.3981   29.8724 C   0  0  0  0  0  0  0  0  0  0  0  0
  -21.9323   -9.0291   20.3520 C   0  0  0  0  0  0  0  0  0  0  0  0
  -23.5863   -8.2409   21.9268 C   0  0  0  0  0  0  0  0  0  0  0  0
  -28.8771  -20.2536   29.9860 C   0  0  0  0  0  0  0  0  0  0  0  0
  -20.8405   -7.2749   23.6437 C   0  0  0  0  0  0  0  0  0  0  0  0
  -20.6574   -6.8287   24.9525 C   0  0  0  0  0  0  0  0  0  0  0  0
  -29.4239  -20.4047   27.6414 C   0  0  0  0  0  0  0  0  0  0  0  0
  -30.6180  -18.0601   24.3107 C   0  0  0  0  0  0  0  0  0  0  0  0
  -32.1383  -16.4293   22.6338 C   0  0  0  0  0  0  0  0  0  0  0  0
  -21.7772   -4.7594   24.4036 C   0  0  0  0  0  0  0  0  0  0  0  0
  -23.8630  -10.3902   20.8586 C   0  0  0  0  0  0  0  0  0  0  0  0
  -24.2000  -12.9184   20.9106 C   0  0  0  0  0  0  0  0  0  0  0  0
  -20.8808  -23.5776   27.4043 C   0  0  0  0  0  0  0  0  0  0  0  0
  -27.9536  -22.0493   28.6379 C   0  0  0  0  0  0  0  0  0  0  0  0
  -21.9707  -22.7385   27.7050 C   0  0  0  0  0  0  0  0  0  0  0  0
  -28.6356  -21.5587   27.5153 C   0  0  0  0  0  0  0  0  0  0  0  0
  -32.0089  -18.0565   24.4150 C   0  0  0  0  0  0  0  0  0  0  0  0
  -29.9872  -17.2482   23.3679 C   0  0  0  0  0  0  0  0  0  0  0  0
  -32.7691  -17.2411   23.5765 C   0  0  0  0  0  0  0  0  0  0  0  0
  -30.7473  -16.4329   22.5295 C   0  0  0  0  0  0  0  0  0  0  0  0
  -22.3914   -8.0500   21.2330 C   0  0  0  0  0  0  0  0  0  0  0  0
  -29.5423  -19.7550   28.8698 C   0  0  0  0  0  0  0  0  0  0  0  0
  -21.4919   -6.4634   22.7148 C   0  0  0  0  0  0  0  0  0  0  0  0
  -21.1258   -5.5710   25.3324 C   0  0  0  0  0  0  0  0  0  0  0  0
  -21.9602   -5.2056   23.0948 C   0  0  0  0  0  0  0  0  0  0  0  0
  -24.6238  -11.5985   20.6653 C   0  0  0  0  0  0  0  0  0  0  0  0
  -25.2809  -13.6948   20.5711 C   0  0  0  0  0  0  0  0  0  0  0  0
  -32.0762  -17.8483   27.5134 C   0  0  0  0  0  0  0  0  0  0  0  0
  -31.4391  -16.6906   27.2578 C   0  0  0  0  0  0  0  0  0  0  0  0
  -22.9417  -13.3995   21.4015 C   0  0  0  0  0  0  0  0  0  0  0  0
  -25.5228  -22.6794   26.6890 C   0  0  0  0  0  0  0  0  0  0  0  0
  -27.7689  -24.3655   25.0659 C   0  0  0  0  0  0  0  0  0  0  0  0
  -31.2223  -23.9210   24.1205 C   0  0  0  0  0  0  0  0  0  0  0  0
  -30.7493  -14.7392   20.6646 C   0  0  0  0  0  0  0  0  0  0  0  0
  -20.6816  -24.1559   26.0258 C   0  0  0  0  0  0  0  0  0  0  0  0
  -27.1212  -23.2981   28.5379 C   0  0  0  0  0  0  0  0  0  0  0  0
  -28.5393  -22.2326   26.1718 C   0  0  0  0  0  0  0  0  0  0  0  0
  -21.9403  -24.1209   25.1628 C   0  0  0  0  0  0  0  0  0  0  0  0
  -33.9813  -18.7932   29.8411 C   0  0  0  0  0  0  0  0  0  0  0  0
  -29.5688  -12.4988   18.1618 C   0  0  0  0  0  0  0  0  0  0  0  0
  -34.7351  -18.2479   28.6272 C   0  0  0  0  0  0  0  0  0  0  0  0
  -22.6076  -22.7518   25.2474 C   0  0  0  0  0  0  0  0  0  0  0  0
  -32.4988  -18.4346   29.9129 C   0  0  0  0  0  0  0  0  0  0  0  0
  -28.1422  -12.1734   18.6102 C   0  0  0  0  0  0  0  0  0  0  0  0
  -30.5178  -12.6431   19.3502 C   0  0  0  0  0  0  0  0  0  0  0  0
  -28.6508  -13.2616   20.8337 C   0  0  0  0  0  0  0  0  0  0  0  0
  -34.3102  -18.9043   27.3156 C   0  0  0  0  0  0  0  0  0  0  0  0
  -23.0462  -22.4397   26.6832 C   0  0  1  0  0  0  0  0  0  0  0  0
  -31.6980  -18.7681   28.6523 C   0  0  2  0  0  0  0  0  0  1  0  0
  -26.6424  -23.5850   27.1181 C   0  0  1  0  0  0  0  0  0  0  0  0
  -27.6448  -13.1708   19.6747 C   0  0  2  0  0  0  0  0  0  0  0  0
  -28.4958  -17.2723   23.2782 C   0  0  0  0  0  0  0  0  0  0  0  0
  -34.2595  -17.2205   23.6702 C   0  0  0  0  0  0  0  0  0  0  0  0
  -33.0168  -25.6121   23.6544 C   0  0  0  0  0  0  0  0  0  0  0  0
  -26.9046  -24.0524   22.1565 C   0  0  0  0  0  0  0  0  0  0  0  0
  -29.3133  -24.2227   21.4954 C   0  0  0  0  0  0  0  0  0  0  0  0
  -28.1982  -26.1370   22.6419 C   0  0  0  0  0  0  0  0  0  0  0  0
  -33.0364  -22.7206   26.1272 C   0  0  0  0  0  0  0  0  0  0  0  0
  -32.6651  -18.9377   25.4367 C   0  0  0  0  0  0  0  0  0  0  0  0
  -28.7501  -24.0526   23.9621 C   0  0  1  0  0  0  0  0  0  0  0  0
  -32.4212  -24.6633   24.6828 C   0  0  2  0  0  0  0  0  0  0  0  0
  -28.2829  -24.5962   22.5823 C   0  0  0  0  0  0  0  0  0  0  0  0
  -25.8762  -11.5362   20.2053 N   0  0  0  0  0  0  0  0  0  0  0  0
  -26.2486  -12.8266   20.1588 N   0  0  0  0  0  0  0  0  0  0  0  0
  -27.7082  -23.4469   26.1235 N   0  0  0  0  0  0  0  0  0  0  0  0
  -29.9837  -13.6068   20.3149 N   0  0  0  0  0  0  0  0  0  0  0  0
  -25.4884  -15.0286   20.5880 N   0  0  0  0  0  0  0  0  0  0  0  0
  -22.7757  -13.5439   22.7857 N   0  0  0  0  0  0  0  0  0  0  0  0
  -30.1251  -15.6014   21.5655 N   0  0  0  0  0  0  0  0  0  0  0  0
  -24.2637  -23.1524   27.0060 N   0  0  0  0  0  0  0  0  0  0  0  0
  -30.0401  -24.5719   24.4033 N   0  0  0  0  0  0  0  0  0  0  0  0
  -33.1762  -18.1755   26.6338 N   0  3  2  0  0  0  0  0  0  0  0  0
  -33.4781  -23.6991   25.1004 N   0  3  0  0  0  0  0  0  0  0  0  0
  -21.9872  -13.6771   20.6365 O   0  0  0  0  0  0  0  0  0  0  0  0
  -25.7820  -21.6300   26.1118 O   0  0  0  0  0  0  0  0  0  0  0  0
  -27.0868  -25.3909   24.9960 O   0  0  0  0  0  0  0  0  0  0  0  0
  -31.3246  -22.8710   23.4900 O   0  0  0  0  0  0  0  0  0  0  0  0
  -31.8645  -14.9439   20.1783 O   0  0  0  0  0  0  0  0  0  0  0  0
  -21.6736   -6.9082   21.4160 O   0  0  0  0  0  0  0  0  0  0  0  0
  -30.3116  -18.6377   28.9777 O   0  0  0  0  0  0  0  0  0  1  0  0
  -20.9512   -5.1432   26.5897 F   0  0  0  0  0  0  0  0  0  0  0  0
  -22.5878   -4.4220   22.2071 F   0  0  0  0  0  0  0  0  0  0  0  0
  1  2  1  0  0  0  0
  1  5  2  0  0  0  0
  2  6  2  0  0  0  0
  3  8  2  0  0  0  0
  3 17  1  0  0  0  0
  4  9  1  0  0  0  0
  4 17  2  0  0  0  0
  5 19  1  0  0  0  0
  6 21  1  0  0  0  0
  7 10  2  0  0  0  0
  7 20  1  0  0  0  0
  8 27  1  0  0  0  0
  9 27  2  0  0  0  0
 10 28  1  0  0  0  0
 11 12  2  0  0  0  0
 11 29  1  0  0  0  0
 12 30  1  0  0  0  0
 13 22  1  0  0  0  0
 13 28  2  0  0  0  0
 14 23  1  0  0  0  0
 14 24  2  0  0  0  0
 15 25  1  0  0  0  0
 15 26  2  0  0  0  0
 16 30  2  0  0  0  0
 16 31  1  0  0  0  0
 17 32  1  0  0  0  0
 18 32  1  0  0  0  0
 18 33  2  0  0  0  0
 18 36  1  0  0  0  0
 19 21  2  0  0  0  0
 19 41  1  0  0  0  0
 20 22  2  0  0  0  0
 20 42  1  0  0  0  0
 21 54  1  0  0  0  0
 22 43  1  0  0  0  0
 23 25  2  0  0  0  0
 23 65  1  0  0  0  0
 24 26  1  0  0  0  0
 24 58  1  0  0  0  0
 25 59  1  0  0  0  0
 26 75  1  0  0  0  0
 27 85  1  0  0  0  0
 28 86  1  0  0  0  0
 29 31  2  0  0  0  0
 29 85  1  0  0  0  0
 30 87  1  0  0  0  0
 31 88  1  0  0  0  0
 32 69  2  0  0  0  0
 33 70  1  0  0  0  0
 33 73  1  0  0  0  0
 34 35  2  0  0  0  0
 34 55  1  0  0  0  0
 34 78  1  0  0  0  0
 36 74  1  0  0  0  0
 36 80  2  0  0  0  0
 37 56  1  0  0  0  0
 37 76  1  0  0  0  0
 37 81  2  0  0  0  0
 38 66  1  0  0  0  0
 38 71  1  0  0  0  0
 38 82  2  0  0  0  0
 39 67  1  0  0  0  0
 39 77  1  0  0  0  0
 39 83  2  0  0  0  0
 40 72  1  0  0  0  0
 40 75  1  0  0  0  0
 40 84  2  0  0  0  0
 41 44  1  0  0  0  0
 42 56  1  0  0  0  0
 43 71  1  0  0  0  0
 44 48  1  0  0  0  0
 45 47  1  0  0  0  0
 45 49  1  0  0  0  0
 46 50  1  0  0  0  0
 46 51  1  0  0  0  0
 47 53  1  0  0  0  0
 48 54  1  0  0  0  0
 49 55  1  0  0  0  0
 50 57  1  0  0  0  0
 51 72  1  0  0  0  0
 52 57  1  0  0  0  0
 52 72  1  0  0  0  0
 53 78  1  0  0  0  0
 54 76  1  0  0  0  0
 55 86  1  0  0  0  0
 56 71  1  0  0  0  0
 57 70  1  0  0  0  0
 60 67  1  0  0  0  0
 61 68  1  0  0  0  0
 62 68  1  0  0  0  0
 63 68  1  0  0  0  0
 64 79  1  0  0  0  0
 65 78  1  0  0  0  0
 66 68  1  0  0  0  0
 66 77  1  0  0  0  0
 67 79  1  0  0  0  0
 69 70  1  0  0  0  0
M  CHG  2  78   1  79   1
M  ISO  4  40 100  55 101  75 100  86 101
M  END
> <Batch ID>
0036

> <Smiles>
C=C1N(Cc2cc(C)c([100NH:0][100C:0](=O)N3CCCC(n4nc(-c5ccc(Oc6ccc(F)cc6F)cc5)c(C(N)=O)c4N)C3)cc2C)CCCC[101CH:1]1[101O:1]c1ccc2c(c1)CN(C(=O)C(NC(=O)C(C)NC)C(C)(C)C)C(C(=O)NC1CCCc3ccccc31)C2

> <Shape>
0.185

> <Color>
0.175

> <Negative vol penalty>
0.000

$$$$
