
  -OEChem-04042321573D

 88 97  0     1  0  0  0  0  0999 V2000
  -20.3245  -18.7404   27.6500 C   0  0  0  0  0  0  0  0  0  0  0  0
  -20.6467  -20.0917   27.5748 C   0  0  0  0  0  0  0  0  0  0  0  0
  -28.4517  -13.9292   21.2017 C   0  0  0  0  0  0  0  0  0  0  0  0
  -26.6153  -14.9897   20.0441 C   0  0  0  0  0  0  0  0  0  0  0  0
  -20.7520  -17.8663   26.6514 C   0  0  0  0  0  0  0  0  0  0  0  0
  -21.3976  -20.5695   26.5013 C   0  0  0  0  0  0  0  0  0  0  0  0
  -20.8736  -26.0331   23.7847 C   0  0  0  0  0  0  0  0  0  0  0  0
  -27.7249  -12.7404   21.2656 C   0  0  0  0  0  0  0  0  0  0  0  0
  -25.8885  -13.8009   20.1079 C   0  0  0  0  0  0  0  0  0  0  0  0
  -21.5896  -27.2215   23.9221 C   0  0  0  0  0  0  0  0  0  0  0  0
  -24.0600  -12.1187   22.4009 C   0  0  0  0  0  0  0  0  0  0  0  0
  -22.7198  -12.1980   22.7793 C   0  0  0  0  0  0  0  0  0  0  0  0
  -22.9520  -26.6128   22.0267 C   0  0  0  0  0  0  0  0  0  0  0  0
  -27.1021  -28.7127   20.9991 C   0  0  0  0  0  0  0  0  0  0  0  0
  -28.7072  -28.2097   22.7333 C   0  0  0  0  0  0  0  0  0  0  0  0
  -22.0655  -11.2294   20.6648 C   0  0  0  0  0  0  0  0  0  0  0  0
  -27.8969  -15.0539   20.5911 C   0  0  0  0  0  0  0  0  0  0  0  0
  -29.8936  -16.4851   19.9037 C   0  0  0  0  0  0  0  0  0  0  0  0
  -21.5003  -18.3354   25.5602 C   0  0  0  0  0  0  0  0  0  0  0  0
  -21.1991  -25.1191   22.7723 C   0  0  0  0  0  0  0  0  0  0  0  0
  -21.8366  -19.7007   25.4878 C   0  0  0  0  0  0  0  0  0  0  0  0
  -22.2369  -25.4147   21.8770 C   0  0  0  0  0  0  0  0  0  0  0  0
  -27.7058  -29.0311   22.2156 C   0  0  0  0  0  0  0  0  0  0  0  0
  -28.5013  -26.7515   20.8181 C   0  0  0  0  0  0  0  0  0  0  0  0
  -26.4434  -12.6762   20.7186 C   0  0  0  0  0  0  0  0  0  0  0  0
  -22.6308  -27.5102   23.0449 C   0  0  0  0  0  0  0  0  0  0  0  0
  -24.4030  -11.5949   21.1544 C   0  0  0  0  0  0  0  0  0  0  0  0
  -21.7225  -11.7533   21.9113 C   0  0  0  0  0  0  0  0  0  0  0  0
  -23.4057  -11.1502   20.2864 C   0  0  0  0  0  0  0  0  0  0  0  0
  -27.4998  -27.5729   20.3004 C   0  0  0  0  0  0  0  0  0  0  0  0
  -29.1050  -27.0699   22.0345 C   0  0  0  0  0  0  0  0  0  0  0  0
  -28.6469  -16.2824   20.5253 C   0  0  0  0  0  0  0  0  0  0  0  0
  -30.1738  -17.8120   20.1208 C   0  0  0  0  0  0  0  0  0  0  0  0
  -30.7241  -15.5568   19.1936 C   0  0  0  0  0  0  0  0  0  0  0  0
  -22.2164  -22.1083   22.7107 C   0  0  0  0  0  0  0  0  0  0  0  0
  -21.7965  -22.4417   19.5116 C   0  0  0  0  0  0  0  0  0  0  0  0
  -21.6015  -24.5267   16.8168 C   0  0  0  0  0  0  0  0  0  0  0  0
  -28.6338  -23.0632   20.1053 C   0  0  0  0  0  0  0  0  0  0  0  0
  -21.9803  -17.3444   24.5295 C   0  0  0  0  0  0  0  0  0  0  0  0
  -20.3997  -23.8540   22.6209 C   0  0  0  0  0  0  0  0  0  0  0  0
  -22.6127  -24.4761   20.7607 C   0  0  0  0  0  0  0  0  0  0  0  0
  -22.4529  -17.9956   23.2323 C   0  0  0  0  0  0  0  0  0  0  0  0
  -27.9301  -21.2039   23.1294 C   0  0  0  0  0  0  0  0  0  0  0  0
  -23.3681  -19.1787   23.5314 C   0  0  0  0  0  0  0  0  0  0  0  0
  -28.1597  -19.7654   22.6624 C   0  0  0  0  0  0  0  0  0  0  0  0
  -23.4839  -30.1263   25.1052 C   0  0  0  0  0  0  0  0  0  0  0  0
  -23.8474  -31.3911   24.3360 C   0  0  0  0  0  0  0  0  0  0  0  0
  -27.2797  -22.0436   22.0339 C   0  0  0  0  0  0  0  0  0  0  0  0
  -28.2552  -20.6198   20.2747 C   0  0  0  0  0  0  0  0  0  0  0  0
  -25.5067  -28.9748   24.1349 C   0  0  0  0  0  0  0  0  0  0  0  0
  -22.6282  -20.2614   24.3263 C   0  0  1  0  0  0  0  0  0  0  0  0
  -21.1519  -22.7578   21.8725 C   0  0  1  0  0  0  0  0  0  0  0  0
  -28.9310  -19.7253   21.3299 C   0  0  2  0  0  0  0  0  0  0  0  0
  -24.0139  -28.8776   24.4117 C   0  0  2  0  0  0  0  0  0  1  0  0
  -25.3540  -31.4983   24.0721 C   0  0  2  0  0  0  0  0  0  0  0  0
  -25.6439  -32.7412   23.2328 C   0  0  0  0  0  0  0  0  0  0  0  0
  -21.2896  -24.5038   14.3269 C   0  0  0  0  0  0  0  0  0  0  0  0
  -24.6781  -21.5015   19.1617 C   0  0  0  0  0  0  0  0  0  0  0  0
  -24.6114  -22.3927   16.8230 C   0  0  0  0  0  0  0  0  0  0  0  0
  -23.0638  -20.5575   17.5011 C   0  0  0  0  0  0  0  0  0  0  0  0
  -19.1217  -26.1321   16.9961 C   0  0  0  0  0  0  0  0  0  0  0  0
  -28.9281  -25.5268   20.0678 C   0  0  0  0  0  0  0  0  0  0  0  0
  -27.2775  -30.2567   22.9675 C   0  0  0  0  0  0  0  0  0  0  0  0
  -22.6607  -22.9003   18.3619 C   0  0  1  0  0  0  0  0  0  0  0  0
  -20.6007  -24.6106   15.6785 C   0  0  2  0  0  0  0  0  0  0  0  0
  -23.7479  -21.8550   17.9841 C   0  0  0  0  0  0  0  0  0  0  0  0
  -28.1682  -17.3918   21.0947 N   0  0  0  0  0  0  0  0  0  0  0  0
  -29.1192  -18.3043   20.8318 N   0  0  0  0  0  0  0  0  0  0  0  0
  -21.8056  -23.2491   20.6578 N   0  0  0  0  0  0  0  0  0  0  0  0
  -28.0729  -21.9776   20.7984 N   0  0  0  0  0  0  0  0  0  0  0  0
  -31.2171  -18.5941   19.7709 N   0  0  0  0  0  0  0  0  0  0  0  0
  -30.5393  -15.4170   17.8113 N   0  0  0  0  0  0  0  0  0  0  0  0
  -21.7693  -21.0317   23.4527 N   0  0  0  0  0  0  0  0  0  0  0  0
  -21.7486  -23.2339   17.2733 N   0  0  0  0  0  0  0  0  0  0  0  0
  -28.4091  -24.3157   20.6636 N   0  0  0  0  0  0  0  0  0  0  0  0
  -25.8161  -30.2373   23.3474 N   0  3  1  0  0  0  0  0  0  0  0  0
  -19.8650  -25.9056   15.7300 N   0  3  0  0  0  0  0  0  0  0  0  0
  -31.5928  -14.8596   19.7704 O   0  0  0  0  0  0  0  0  0  0  0  0
  -23.3591  -22.5501   22.6851 O   0  0  0  0  0  0  0  0  0  0  0  0
  -21.1320  -21.4090   19.3942 O   0  0  0  0  0  0  0  0  0  0  0  0
  -22.1962  -25.5091   17.2547 O   0  0  0  0  0  0  0  0  0  0  0  0
  -29.2913  -22.9261   19.0680 O   0  0  0  0  0  0  0  0  0  0  0  0
  -25.7340  -11.5162   20.7805 O   0  0  0  0  0  0  0  0  0  0  0  0
  -23.3317  -28.6691   23.1772 O   0  0  0  0  0  0  0  0  0  1  0  0
  -20.4357  -11.8280   22.2754 F   0  0  0  0  0  0  0  0  0  0  0  0
  -23.7292  -10.6449   19.0881 F   0  0  0  0  0  0  0  0  0  0  0  0
  -26.7257  -27.2158   18.7984 Cl  0  0  0  0  0  0  0  0  0  0  0  0
  -30.3478  -26.0805   22.7121 Cl  0  0  0  0  0  0  0  0  0  0  0  0
  1  2  1  0  0  0  0
  1  5  2  0  0  0  0
  2  6  2  0  0  0  0
  3  8  2  0  0  0  0
  3 17  1  0  0  0  0
  4  9  1  0  0  0  0
  4 17  2  0  0  0  0
  5 19  1  0  0  0  0
  6 21  1  0  0  0  0
  7 10  2  0  0  0  0
  7 20  1  0  0  0  0
  8 25  1  0  0  0  0
  9 25  2  0  0  0  0
 10 26  1  0  0  0  0
 11 12  2  0  0  0  0
 11 27  1  0  0  0  0
 12 28  1  0  0  0  0
 13 22  1  0  0  0  0
 13 26  2  0  0  0  0
 14 23  1  0  0  0  0
 14 30  2  0  0  0  0
 15 23  2  0  0  0  0
 15 31  1  0  0  0  0
 16 28  2  0  0  0  0
 16 29  1  0  0  0  0
 17 32  1  0  0  0  0
 18 32  1  0  0  0  0
 18 33  2  0  0  0  0
 18 34  1  0  0  0  0
 19 21  2  0  0  0  0
 19 39  1  0  0  0  0
 20 22  2  0  0  0  0
 20 40  1  0  0  0  0
 21 51  1  0  0  0  0
 22 41  1  0  0  0  0
 23 63  1  0  0  0  0
 24 30  1  0  0  0  0
 24 31  2  0  0  0  0
 24 62  1  0  0  0  0
 25 83  1  0  0  0  0
 26 84  1  0  0  0  0
 27 29  2  0  0  0  0
 27 83  1  0  0  0  0
 28 85  1  0  0  0  0
 29 86  1  0  0  0  0
 30 87  1  0  0  0  0
 31 88  1  0  0  0  0
 32 67  2  0  0  0  0
 33 68  1  0  0  0  0
 33 71  1  0  0  0  0
 34 72  1  0  0  0  0
 34 78  2  0  0  0  0
 35 52  1  0  0  0  0
 35 73  1  0  0  0  0
 35 79  2  0  0  0  0
 36 64  1  0  0  0  0
 36 69  1  0  0  0  0
 36 80  2  0  0  0  0
 37 65  1  0  0  0  0
 37 74  1  0  0  0  0
 37 81  2  0  0  0  0
 38 70  1  0  0  0  0
 38 75  1  0  0  0  0
 38 82  2  0  0  0  0
 39 42  1  0  0  0  0
 40 52  1  0  0  0  0
 41 69  1  0  0  0  0
 42 44  1  0  0  0  0
 43 45  1  0  0  0  0
 43 48  1  0  0  0  0
 44 51  1  0  0  0  0
 45 53  1  0  0  0  0
 46 47  1  0  0  0  0
 46 54  1  0  0  0  0
 47 55  1  0  0  0  0
 48 70  1  0  0  0  0
 49 53  1  0  0  0  0
 49 70  1  0  0  0  0
 50 54  1  0  0  0  0
 50 76  1  0  0  0  0
 51 73  1  0  0  0  0
 52 69  1  0  0  0  0
 53 68  1  0  0  0  0
 54 84  1  0  0  0  0
 55 56  1  0  0  0  0
 55 76  1  0  0  0  0
 57 65  1  0  0  0  0
 58 66  1  0  0  0  0
 59 66  1  0  0  0  0
 60 66  1  0  0  0  0
 61 77  1  0  0  0  0
 62 75  1  0  0  0  0
 63 76  1  0  0  0  0
 64 66  1  0  0  0  0
 64 74  1  0  0  0  0
 65 77  1  0  0  0  0
 67 68  1  0  0  0  0
M  CHG  2  76   1  77   1
M  ISO  4  38 100  54 101  75 100  84 101
M  END
> <Batch ID>
0037

> <Smiles>
CNC(C)C(=O)NC(C(=O)N1Cc2cc([101O:1][101CH:1]3CCC(C)N(Cc4cc(Cl)c(C[100NH:0][100C:0](=O)N5CCCC(n6nc(-c7ccc(Oc8ccc(F)cc8F)cc7)c(C(N)=O)c6N)C5)c(Cl)c4)C3)ccc2CC1C(=O)NC1CCCc2ccccc21)C(C)(C)C

> <Shape>
0.208

> <Color>
0.071

> <Negative vol penalty>
0.000

$$$$

  -OEChem-04042321573D

 91100  0     1  0  0  0  0  0999 V2000
  -37.6380  -31.0985   20.2605 C   0  0  0  0  0  0  0  0  0  0  0  0
  -36.9465  -29.8978   20.3852 C   0  0  0  0  0  0  0  0  0  0  0  0
  -23.0752   -9.8677   19.9378 C   0  0  0  0  0  0  0  0  0  0  0  0
  -23.8384   -9.8685   22.2301 C   0  0  0  0  0  0  0  0  0  0  0  0
  -37.0374  -32.2922   20.6584 C   0  0  0  0  0  0  0  0  0  0  0  0
  -35.6542  -29.8900   20.9090 C   0  0  0  0  0  0  0  0  0  0  0  0
  -31.0462  -26.1969   19.2864 C   0  0  0  0  0  0  0  0  0  0  0  0
  -22.3320   -8.7136   20.1856 C   0  0  0  0  0  0  0  0  0  0  0  0
  -23.0952   -8.7144   22.4779 C   0  0  0  0  0  0  0  0  0  0  0  0
  -30.5399  -25.0260   19.8489 C   0  0  0  0  0  0  0  0  0  0  0  0
  -19.8682   -7.9140   23.0830 C   0  0  0  0  0  0  0  0  0  0  0  0
  -19.1130   -7.8705   24.2549 C   0  0  0  0  0  0  0  0  0  0  0  0
  -28.8596  -26.3146   21.0043 C   0  0  0  0  0  0  0  0  0  0  0  0
  -32.4902  -17.0697   23.9193 C   0  0  0  0  0  0  0  0  0  0  0  0
  -20.3561   -5.9314   24.9841 C   0  0  0  0  0  0  0  0  0  0  0  0
  -23.8284  -10.4451   20.9600 C   0  0  0  0  0  0  0  0  0  0  0  0
  -24.1693  -12.9707   20.8465 C   0  0  0  0  0  0  0  0  0  0  0  0
  -35.7335  -32.3002   21.1784 C   0  0  0  0  0  0  0  0  0  0  0  0
  -30.4687  -27.4388   19.5877 C   0  0  0  0  0  0  0  0  0  0  0  0
  -35.0361  -31.0848   21.3156 C   0  0  0  0  0  0  0  0  0  0  0  0
  -29.3587  -27.4996   20.4423 C   0  0  0  0  0  0  0  0  0  0  0  0
  -31.9100  -18.3023   24.2187 C   0  0  0  0  0  0  0  0  0  0  0  0
  -30.7139  -18.6771   23.6068 C   0  0  0  0  0  0  0  0  0  0  0  0
  -30.6781  -16.5867   22.3961 C   0  0  0  0  0  0  0  0  0  0  0  0
  -22.3420   -8.1370   21.4557 C   0  0  0  0  0  0  0  0  0  0  0  0
  -29.4483  -25.0850   20.7102 C   0  0  0  0  0  0  0  0  0  0  0  0
  -20.8673   -6.9661   22.8616 C   0  0  0  0  0  0  0  0  0  0  0  0
  -19.3570   -6.8793   25.2055 C   0  0  0  0  0  0  0  0  0  0  0  0
  -31.8743  -16.2119   23.0080 C   0  0  0  0  0  0  0  0  0  0  0  0
  -21.1113   -5.9748   23.8121 C   0  0  0  0  0  0  0  0  0  0  0  0
  -30.0979  -17.8193   22.6955 C   0  0  0  0  0  0  0  0  0  0  0  0
  -24.5968  -11.6369   20.7045 C   0  0  0  0  0  0  0  0  0  0  0  0
  -25.2607  -13.7215   20.4838 C   0  0  0  0  0  0  0  0  0  0  0  0
  -22.8993  -13.4849   21.2688 C   0  0  0  0  0  0  0  0  0  0  0  0
  -31.4884  -30.1079   20.9805 C   0  0  0  0  0  0  0  0  0  0  0  0
  -28.5798  -31.2266   20.0800 C   0  0  0  0  0  0  0  0  0  0  0  0
  -29.4296  -22.0271   22.6587 C   0  0  0  0  0  0  0  0  0  0  0  0
  -25.3455  -30.5387   19.2356 C   0  0  0  0  0  0  0  0  0  0  0  0
  -30.7269  -14.7683   20.6533 C   0  0  0  0  0  0  0  0  0  0  0  0
  -35.1438  -33.6096   21.6391 C   0  0  0  0  0  0  0  0  0  0  0  0
  -31.0099  -28.6898   18.9517 C   0  0  0  0  0  0  0  0  0  0  0  0
  -28.6899  -28.8057   20.7818 C   0  0  0  0  0  0  0  0  0  0  0  0
  -33.6307  -33.5605   21.8357 C   0  0  0  0  0  0  0  0  0  0  0  0
  -32.6682  -18.6834   29.5323 C   0  0  0  0  0  0  0  0  0  0  0  0
  -32.4014  -17.4589   28.6624 C   0  0  0  0  0  0  0  0  0  0  0  0
  -31.9995  -19.9314   28.9644 C   0  0  0  0  0  0  0  0  0  0  0  0
  -29.6097  -12.3607   18.2800 C   0  0  0  0  0  0  0  0  0  0  0  0
  -33.2341  -32.3118   22.6168 C   0  0  0  0  0  0  0  0  0  0  0  0
  -32.8075  -17.7000   27.2103 C   0  0  0  0  0  0  0  0  0  0  0  0
  -32.4047  -20.1767   27.5127 C   0  0  0  0  0  0  0  0  0  0  0  0
  -28.1708  -12.0675   18.7108 C   0  0  0  0  0  0  0  0  0  0  0  0
  -30.5265  -12.5864   19.4809 C   0  0  0  0  0  0  0  0  0  0  0  0
  -28.6214  -13.3065   20.8670 C   0  0  0  0  0  0  0  0  0  0  0  0
  -33.6234  -31.0384   21.8561 C   0  0  1  0  0  0  0  0  0  0  0  0
  -30.6655  -29.9542   19.7328 C   0  0  1  0  0  0  0  0  0  0  0  0
  -32.1297  -18.9499   26.6326 C   0  0  0  0  0  0  0  0  0  0  0  0
  -27.6469  -13.1362   19.6901 C   0  0  2  0  0  0  0  0  0  0  0  0
  -23.1973  -31.6620   18.5872 C   0  0  0  0  0  0  0  0  0  0  0  0
  -28.1351  -32.0475   22.9849 C   0  0  0  0  0  0  0  0  0  0  0  0
  -25.6938  -32.2690   22.4757 C   0  0  0  0  0  0  0  0  0  0  0  0
  -27.3483  -33.7167   21.2970 C   0  0  0  0  0  0  0  0  0  0  0  0
  -25.2865  -29.1699   16.6122 C   0  0  0  0  0  0  0  0  0  0  0  0
  -32.5922  -19.2002   25.1985 C   0  0  0  0  0  0  0  0  0  0  0  0
  -30.1079  -20.0087   23.9440 C   0  0  0  0  0  0  0  0  0  0  0  0
  -29.8748  -22.8788   21.4892 C   0  0  0  0  0  0  0  0  0  1  0  0
  -27.2071  -31.2623   20.7071 C   0  0  1  0  0  0  0  0  0  0  0  0
  -24.4809  -31.0199   18.0844 C   0  0  2  0  0  0  0  0  0  0  0  0
  -27.1097  -32.2993   21.8615 C   0  0  0  0  0  0  0  0  0  0  0  0
  -25.8611  -11.5426   20.2841 N   0  0  0  0  0  0  0  0  0  0  0  0
  -26.2374  -12.8267   20.1588 N   0  0  0  0  0  0  0  0  0  0  0  0
  -29.2597  -30.0018   20.1399 N   0  0  0  0  0  0  0  0  0  0  0  0
  -29.9685  -13.6147   20.3620 N   0  0  0  0  0  0  0  0  0  0  0  0
  -25.4706  -15.0532   20.4142 N   0  0  0  0  0  0  0  0  0  0  0  0
  -21.8882  -12.5745   21.6050 N   0  0  0  0  0  0  0  0  0  0  0  0
  -30.0804  -15.6908   21.4753 N   0  0  0  0  0  0  0  0  0  0  0  0
  -32.6809  -30.7792   20.7889 N   0  0  0  0  0  0  0  0  0  0  0  0
  -30.3017  -20.9742   22.8869 N   0  0  0  0  0  0  0  0  0  0  0  0
  -26.2658  -31.4922   19.6164 N   0  0  0  0  0  0  0  0  0  0  0  0
  -24.1191  -29.8791   17.1962 N   0  3  0  0  0  0  0  0  0  0  0  0
  -22.6628  -14.7153   21.3299 O   0  0  0  0  0  0  0  0  0  0  0  0
  -31.0715  -29.6524   22.0391 O   0  0  0  0  0  0  0  0  0  0  0  0
  -29.0292  -32.2458   19.5500 O   0  0  0  0  0  0  0  0  0  0  0  0
  -28.4135  -22.2656   23.3056 O   0  0  0  0  0  0  0  0  0  0  0  0
  -25.2149  -29.4293   19.7483 O   0  0  0  0  0  0  0  0  0  0  0  0
  -31.8552  -14.9386   20.1845 O   0  0  0  0  0  0  0  0  0  0  0  0
  -21.6168   -7.0110   21.6980 O   0  0  0  0  0  0  0  0  0  0  0  0
  -28.9526  -23.9437   21.2611 O   0  0  0  0  0  0  0  0  0  1  0  0
  -18.6327   -6.8386   26.3315 F   0  0  0  0  0  0  0  0  0  0  0  0
  -32.4425  -15.0299   22.7288 F   0  0  0  0  0  0  0  0  0  0  0  0
  -22.0706   -5.0622   23.6055 F   0  0  0  0  0  0  0  0  0  0  0  0
  -28.6099  -18.2878   21.9373 Cl  0  0  0  0  0  0  0  0  0  0  0  0
  1  2  1  0  0  0  0
  1  5  2  0  0  0  0
  2  6  2  0  0  0  0
  3  8  2  0  0  0  0
  3 16  1  0  0  0  0
  4  9  1  0  0  0  0
  4 16  2  0  0  0  0
  5 18  1  0  0  0  0
  6 20  1  0  0  0  0
  7 10  2  0  0  0  0
  7 19  1  0  0  0  0
  8 25  1  0  0  0  0
  9 25  2  0  0  0  0
 10 26  1  0  0  0  0
 11 12  2  0  0  0  0
 11 27  1  0  0  0  0
 12 28  1  0  0  0  0
 13 21  1  0  0  0  0
 13 26  2  0  0  0  0
 14 22  2  0  0  0  0
 14 29  1  0  0  0  0
 15 28  2  0  0  0  0
 15 30  1  0  0  0  0
 16 32  1  0  0  0  0
 17 32  1  0  0  0  0
 17 33  2  0  0  0  0
 17 34  1  0  0  0  0
 18 20  2  0  0  0  0
 18 40  1  0  0  0  0
 19 21  2  0  0  0  0
 19 41  1  0  0  0  0
 20 54  1  0  0  0  0
 21 42  1  0  0  0  0
 22 23  1  0  0  0  0
 22 63  1  0  0  0  0
 23 31  2  0  0  0  0
 23 64  1  0  0  0  0
 24 29  2  0  0  0  0
 24 31  1  0  0  0  0
 24 75  1  0  0  0  0
 25 86  1  0  0  0  0
 26 87  1  0  0  0  0
 27 30  2  0  0  0  0
 27 86  1  0  0  0  0
 28 88  1  0  0  0  0
 29 89  1  0  0  0  0
 30 90  1  0  0  0  0
 31 91  1  0  0  0  0
 32 69  2  0  0  0  0
 33 70  1  0  0  0  0
 33 73  1  0  0  0  0
 34 74  1  0  0  0  0
 34 80  2  0  0  0  0
 35 55  1  0  0  0  0
 35 76  1  0  0  0  0
 35 81  2  0  0  0  0
 36 66  1  0  0  0  0
 36 71  1  0  0  0  0
 36 82  2  0  0  0  0
 37 65  1  0  0  0  0
 37 77  1  0  0  0  0
 37 83  2  0  0  0  0
 38 67  1  0  0  0  0
 38 78  1  0  0  0  0
 38 84  2  0  0  0  0
 39 72  1  0  0  0  0
 39 75  1  0  0  0  0
 39 85  2  0  0  0  0
 40 43  1  0  0  0  0
 41 55  1  0  0  0  0
 42 71  1  0  0  0  0
 43 48  1  0  0  0  0
 44 45  1  0  0  0  0
 44 46  1  0  0  0  0
 45 49  1  0  0  0  0
 46 50  1  0  0  0  0
 47 51  1  0  0  0  0
 47 52  1  0  0  0  0
 48 54  1  0  0  0  0
 49 56  1  0  0  0  0
 50 56  1  0  0  0  0
 51 57  1  0  0  0  0
 52 72  1  0  0  0  0
 53 57  1  0  0  0  0
 53 72  1  0  0  0  0
 54 76  1  0  0  0  0
 55 71  1  0  0  0  0
 56 63  1  0  0  0  0
 57 70  1  0  0  0  0
 58 67  1  0  0  0  0
 59 68  1  0  0  0  0
 60 68  1  0  0  0  0
 61 68  1  0  0  0  0
 62 79  1  0  0  0  0
 64 77  1  0  0  0  0
 65 87  1  0  0  0  0
 66 68  1  0  0  0  0
 66 78  1  0  0  0  0
 67 79  1  0  0  0  0
 69 70  1  0  0  0  0
M  CHG  1  79   1
M  ISO  4  39 100  65 101  75 100  87 101
M  END
> <Batch ID>
0037

> <Smiles>
CNC(C)C(=O)NC(C(=O)N1Cc2cc([101O:1][101CH2:1]C(=O)NCc3c(CC4CCCCC4)cc(F)c([100NH:0][100C:0](=O)N4CCCC(n5nc(-c6ccc(Oc7ccc(F)cc7F)cc6)c(C(N)=O)c5N)C4)c3Cl)ccc2CC1C(=O)NC1CCCc2ccccc21)C(C)(C)C

> <Shape>
0.259

> <Color>
0.188

> <Negative vol penalty>
0.000

$$$$

  -OEChem-04042321573D

 88 97  0     1  0  0  0  0  0999 V2000
  -20.1383  -23.3884   29.7201 C   0  0  0  0  0  0  0  0  0  0  0  0
  -21.2165  -22.5610   30.0175 C   0  0  0  0  0  0  0  0  0  0  0  0
  -22.6684  -10.1995   20.1649 C   0  0  0  0  0  0  0  0  0  0  0  0
  -24.3216   -9.4124   21.7411 C   0  0  0  0  0  0  0  0  0  0  0  0
  -20.0114  -23.9344   28.4435 C   0  0  0  0  0  0  0  0  0  0  0  0
  -22.1679  -22.2784   29.0380 C   0  0  0  0  0  0  0  0  0  0  0  0
  -28.1770  -21.4434   29.8746 C   0  0  0  0  0  0  0  0  0  0  0  0
  -21.9325   -9.0296   20.3525 C   0  0  0  0  0  0  0  0  0  0  0  0
  -23.5857   -8.2425   21.9287 C   0  0  0  0  0  0  0  0  0  0  0  0
  -28.9576  -20.2936   29.9866 C   0  0  0  0  0  0  0  0  0  0  0  0
  -20.8389   -7.2778   23.6449 C   0  0  0  0  0  0  0  0  0  0  0  0
  -20.6551   -6.8325   24.9539 C   0  0  0  0  0  0  0  0  0  0  0  0
  -29.4885  -20.4326   27.6376 C   0  0  0  0  0  0  0  0  0  0  0  0
  -32.1383  -16.4214   22.6239 C   0  0  0  0  0  0  0  0  0  0  0  0
  -30.6416  -18.0679   24.3067 C   0  0  0  0  0  0  0  0  0  0  0  0
  -21.7751   -4.7627   24.4071 C   0  0  0  0  0  0  0  0  0  0  0  0
  -23.8630  -10.3910   20.8592 C   0  0  0  0  0  0  0  0  0  0  0  0
  -24.2000  -12.9191   20.9096 C   0  0  0  0  0  0  0  0  0  0  0  0
  -20.9669  -23.6661   27.4507 C   0  0  0  0  0  0  0  0  0  0  0  0
  -28.0373  -22.0912   28.6388 C   0  0  0  0  0  0  0  0  0  0  0  0
  -22.0530  -22.8202   27.7465 C   0  0  0  0  0  0  0  0  0  0  0  0
  -28.7077  -21.5919   27.5131 C   0  0  0  0  0  0  0  0  0  0  0  0
  -32.7816  -17.2314   23.5596 C   0  0  0  0  0  0  0  0  0  0  0  0
  -32.0333  -18.0546   24.4010 C   0  0  0  0  0  0  0  0  0  0  0  0
  -30.7466  -16.4346   22.5295 C   0  0  0  0  0  0  0  0  0  0  0  0
  -22.3911   -8.0510   21.2344 C   0  0  0  0  0  0  0  0  0  0  0  0
  -29.6112  -19.7864   28.8674 C   0  0  0  0  0  0  0  0  0  0  0  0
  -21.4908   -6.4655   22.7169 C   0  0  0  0  0  0  0  0  0  0  0  0
  -21.1232   -5.5750   25.3350 C   0  0  0  0  0  0  0  0  0  0  0  0
  -21.9589   -5.2080   23.0980 C   0  0  0  0  0  0  0  0  0  0  0  0
  -29.9983  -17.2579   23.3709 C   0  0  0  0  0  0  0  0  0  0  0  0
  -24.6239  -11.5991   20.6654 C   0  0  0  0  0  0  0  0  0  0  0  0
  -25.2812  -13.6953   20.5701 C   0  0  0  0  0  0  0  0  0  0  0  0
  -32.1214  -17.8568   27.4996 C   0  0  0  0  0  0  0  0  0  0  0  0
  -31.4743  -16.7028   27.2527 C   0  0  0  0  0  0  0  0  0  0  0  0
  -22.9415  -13.4006   21.3995 C   0  0  0  0  0  0  0  0  0  0  0  0
  -25.5971  -22.7320   26.7053 C   0  0  0  0  0  0  0  0  0  0  0  0
  -27.8435  -24.3962   25.0601 C   0  0  0  0  0  0  0  0  0  0  0  0
  -31.2867  -23.9237   24.0914 C   0  0  0  0  0  0  0  0  0  0  0  0
  -30.7495  -14.7396   20.6659 C   0  0  0  0  0  0  0  0  0  0  0  0
  -20.7619  -24.2411   26.0716 C   0  0  0  0  0  0  0  0  0  0  0  0
  -27.2132  -23.3457   28.5404 C   0  0  0  0  0  0  0  0  0  0  0  0
  -28.6065  -22.2618   26.1679 C   0  0  0  0  0  0  0  0  0  0  0  0
  -22.0141  -24.1940   25.1997 C   0  0  0  0  0  0  0  0  0  0  0  0
  -34.0501  -18.7960   29.8102 C   0  0  0  0  0  0  0  0  0  0  0  0
  -29.5704  -12.4974   18.1640 C   0  0  0  0  0  0  0  0  0  0  0  0
  -34.7911  -18.2411   28.5928 C   0  0  0  0  0  0  0  0  0  0  0  0
  -22.6721  -22.8204   25.2843 C   0  0  0  0  0  0  0  0  0  0  0  0
  -32.5656  -18.4484   29.8939 C   0  0  0  0  0  0  0  0  0  0  0  0
  -28.1435  -12.1724   18.6118 C   0  0  0  0  0  0  0  0  0  0  0  0
  -30.5187  -12.6425   19.3528 C   0  0  0  0  0  0  0  0  0  0  0  0
  -28.6509  -13.2622   20.8349 C   0  0  0  0  0  0  0  0  0  0  0  0
  -34.3615  -18.8960   27.2819 C   0  0  0  0  0  0  0  0  0  0  0  0
  -23.1189  -22.5101   26.7181 C   0  0  1  0  0  0  0  0  0  0  0  0
  -31.7581  -18.7833   28.6379 C   0  0  2  0  0  0  0  0  0  1  0  0
  -26.7262  -23.6310   27.1230 C   0  0  1  0  0  0  0  0  0  0  0  0
  -27.6455  -13.1706   19.6754 C   0  0  2  0  0  0  0  0  0  0  0  0
  -34.2727  -17.2028   23.6396 C   0  0  0  0  0  0  0  0  0  0  0  0
  -33.0899  -25.6001   23.6065 C   0  0  0  0  0  0  0  0  0  0  0  0
  -26.9560  -24.0793   22.1581 C   0  0  0  0  0  0  0  0  0  0  0  0
  -29.3610  -24.2299   21.4790 C   0  0  0  0  0  0  0  0  0  0  0  0
  -28.2679  -26.1561   22.6268 C   0  0  0  0  0  0  0  0  0  0  0  0
  -33.1066  -22.7172   26.0892 C   0  0  0  0  0  0  0  0  0  0  0  0
  -32.7031  -18.9347   25.4148 C   0  0  0  0  0  0  0  0  0  0  0  0
  -28.8144  -24.0725   23.9504 C   0  0  1  0  0  0  0  0  0  0  0  0
  -32.4949  -24.6592   24.6425 C   0  0  2  0  0  0  0  0  0  0  0  0
  -28.3412  -24.6146   22.5721 C   0  0  0  0  0  0  0  0  0  0  0  0
  -25.8766  -11.5364   20.2062 N   0  0  0  0  0  0  0  0  0  0  0  0
  -26.2491  -12.8268   20.1590 N   0  0  0  0  0  0  0  0  0  0  0  0
  -27.7838  -23.4818   26.1213 N   0  0  0  0  0  0  0  0  0  0  0  0
  -29.9841  -13.6070   20.3166 N   0  0  0  0  0  0  0  0  0  0  0  0
  -25.4887  -15.0291   20.5862 N   0  0  0  0  0  0  0  0  0  0  0  0
  -22.7747  -13.5461   22.7834 N   0  0  0  0  0  0  0  0  0  0  0  0
  -30.1249  -15.6025   21.5658 N   0  0  0  0  0  0  0  0  0  0  0  0
  -24.3438  -23.2152   27.0296 N   0  0  0  0  0  0  0  0  0  0  0  0
  -30.1112  -24.5840   24.3804 N   0  0  0  0  0  0  0  0  0  0  0  0
  -33.2174  -18.1730   26.6109 N   0  3  2  0  0  0  0  0  0  0  0  0
  -33.5478  -23.6889   25.0558 N   0  3  0  0  0  0  0  0  0  0  0  0
  -21.9874  -13.6777   20.6337 O   0  0  0  0  0  0  0  0  0  0  0  0
  -25.8446  -21.6787   26.1299 O   0  0  0  0  0  0  0  0  0  0  0  0
  -27.1682  -25.4262   24.9915 O   0  0  0  0  0  0  0  0  0  0  0  0
  -31.3769  -22.8708   23.4639 O   0  0  0  0  0  0  0  0  0  0  0  0
  -31.8650  -14.9439   20.1800 O   0  0  0  0  0  0  0  0  0  0  0  0
  -21.6732   -6.9093   21.4179 O   0  0  0  0  0  0  0  0  0  0  0  0
  -30.3732  -18.6640   28.9738 O   0  0  0  0  0  0  0  0  0  1  0  0
  -20.9480   -5.1481   26.5925 F   0  0  0  0  0  0  0  0  0  0  0  0
  -22.5869   -4.4237   22.2113 F   0  0  0  0  0  0  0  0  0  0  0  0
  -28.2731  -17.3047   23.2880 Cl  0  0  0  0  0  0  0  0  0  0  0  0
  1  2  1  0  0  0  0
  1  5  2  0  0  0  0
  2  6  2  0  0  0  0
  3  8  2  0  0  0  0
  3 17  1  0  0  0  0
  4  9  1  0  0  0  0
  4 17  2  0  0  0  0
  5 19  1  0  0  0  0
  6 21  1  0  0  0  0
  7 10  2  0  0  0  0
  7 20  1  0  0  0  0
  8 26  1  0  0  0  0
  9 26  2  0  0  0  0
 10 27  1  0  0  0  0
 11 12  2  0  0  0  0
 11 28  1  0  0  0  0
 12 29  1  0  0  0  0
 13 22  1  0  0  0  0
 13 27  2  0  0  0  0
 14 23  1  0  0  0  0
 14 25  2  0  0  0  0
 15 24  1  0  0  0  0
 15 31  2  0  0  0  0
 16 29  2  0  0  0  0
 16 30  1  0  0  0  0
 17 32  1  0  0  0  0
 18 32  1  0  0  0  0
 18 33  2  0  0  0  0
 18 36  1  0  0  0  0
 19 21  2  0  0  0  0
 19 41  1  0  0  0  0
 20 22  2  0  0  0  0
 20 42  1  0  0  0  0
 21 54  1  0  0  0  0
 22 43  1  0  0  0  0
 23 24  2  0  0  0  0
 23 58  1  0  0  0  0
 24 64  1  0  0  0  0
 25 31  1  0  0  0  0
 25 74  1  0  0  0  0
 26 84  1  0  0  0  0
 27 85  1  0  0  0  0
 28 30  2  0  0  0  0
 28 84  1  0  0  0  0
 29 86  1  0  0  0  0
 30 87  1  0  0  0  0
 31 88  1  0  0  0  0
 32 68  2  0  0  0  0
 33 69  1  0  0  0  0
 33 72  1  0  0  0  0
 34 35  2  0  0  0  0
 34 55  1  0  0  0  0
 34 77  1  0  0  0  0
 36 73  1  0  0  0  0
 36 79  2  0  0  0  0
 37 56  1  0  0  0  0
 37 75  1  0  0  0  0
 37 80  2  0  0  0  0
 38 65  1  0  0  0  0
 38 70  1  0  0  0  0
 38 81  2  0  0  0  0
 39 66  1  0  0  0  0
 39 76  1  0  0  0  0
 39 82  2  0  0  0  0
 40 71  1  0  0  0  0
 40 74  1  0  0  0  0
 40 83  2  0  0  0  0
 41 44  1  0  0  0  0
 42 56  1  0  0  0  0
 43 70  1  0  0  0  0
 44 48  1  0  0  0  0
 45 47  1  0  0  0  0
 45 49  1  0  0  0  0
 46 50  1  0  0  0  0
 46 51  1  0  0  0  0
 47 53  1  0  0  0  0
 48 54  1  0  0  0  0
 49 55  1  0  0  0  0
 50 57  1  0  0  0  0
 51 71  1  0  0  0  0
 52 57  1  0  0  0  0
 52 71  1  0  0  0  0
 53 77  1  0  0  0  0
 54 75  1  0  0  0  0
 55 85  1  0  0  0  0
 56 70  1  0  0  0  0
 57 69  1  0  0  0  0
 59 66  1  0  0  0  0
 60 67  1  0  0  0  0
 61 67  1  0  0  0  0
 62 67  1  0  0  0  0
 63 78  1  0  0  0  0
 64 77  1  0  0  0  0
 65 67  1  0  0  0  0
 65 76  1  0  0  0  0
 66 78  1  0  0  0  0
 68 69  1  0  0  0  0
M  CHG  2  77   1  78   1
M  ISO  4  40 100  55 101  74 100  85 101
M  END
> <Batch ID>
0037

> <Smiles>
C=C1N(Cc2cc(Cl)c([100NH:0][100C:0](=O)N3CCCC(n4nc(-c5ccc(Oc6ccc(F)cc6F)cc5)c(C(N)=O)c4N)C3)cc2C)CCCC[101CH:1]1[101O:1]c1ccc2c(c1)CN(C(=O)C(NC(=O)C(C)NC)C(C)(C)C)C(C(=O)NC1CCCc3ccccc31)C2

> <Shape>
0.185

> <Color>
0.175

> <Negative vol penalty>
0.000

$$$$

  -OEChem-04042321573D

 87 96  0     1  0  0  0  0  0999 V2000
  -18.2698  -26.5600   22.2777 C   0  0  0  0  0  0  0  0  0  0  0  0
  -18.8427  -27.4138   21.3405 C   0  0  0  0  0  0  0  0  0  0  0  0
  -26.3949  -13.1908   20.2367 C   0  0  0  0  0  0  0  0  0  0  0  0
  -24.8498  -14.9061   20.9489 C   0  0  0  0  0  0  0  0  0  0  0  0
  -18.8876  -26.3670   23.5126 C   0  0  0  0  0  0  0  0  0  0  0  0
  -20.0332  -28.0759   21.6382 C   0  0  0  0  0  0  0  0  0  0  0  0
  -25.8897  -27.1994   17.5363 C   0  0  0  0  0  0  0  0  0  0  0  0
  -32.0011  -23.1764   19.0380 C   0  0  0  0  0  0  0  0  0  0  0  0
  -31.9214  -22.8695   20.3963 C   0  0  0  0  0  0  0  0  0  0  0  0
  -25.3338  -12.2987   20.0829 C   0  0  0  0  0  0  0  0  0  0  0  0
  -23.7886  -14.0141   20.7951 C   0  0  0  0  0  0  0  0  0  0  0  0
  -26.9903  -27.2481   16.6805 C   0  0  0  0  0  0  0  0  0  0  0  0
  -23.4006  -10.3624   22.0674 C   0  0  0  0  0  0  0  0  0  0  0  0
  -23.5629   -9.0709   22.5686 C   0  0  0  0  0  0  0  0  0  0  0  0
  -28.1575  -28.6751   18.2456 C   0  0  0  0  0  0  0  0  0  0  0  0
  -29.6748  -23.8285   19.0489 C   0  0  0  0  0  0  0  0  0  0  0  0
  -23.2337   -8.1691   20.3515 C   0  0  0  0  0  0  0  0  0  0  0  0
  -26.1530  -14.4945   20.6697 C   0  0  0  0  0  0  0  0  0  0  0  0
  -28.1476  -15.8486   19.8357 C   0  0  0  0  0  0  0  0  0  0  0  0
  -20.0914  -27.0196   23.8218 C   0  0  0  0  0  0  0  0  0  0  0  0
  -25.9248  -27.8766   18.7584 C   0  0  0  0  0  0  0  0  0  0  0  0
  -20.6670  -27.8925   22.8789 C   0  0  0  0  0  0  0  0  0  0  0  0
  -27.0629  -28.6197   19.1125 C   0  0  0  0  0  0  0  0  0  0  0  0
  -30.8778  -23.6559   18.3643 C   0  0  0  0  0  0  0  0  0  0  0  0
  -30.7185  -23.0420   21.0809 C   0  0  0  0  0  0  0  0  0  0  0  0
  -29.5951  -23.5215   20.4072 C   0  0  0  0  0  0  0  0  0  0  0  0
  -24.0306  -12.7103   20.3621 C   0  0  0  0  0  0  0  0  0  0  0  0
  -28.1213  -27.9843   17.0342 C   0  0  0  0  0  0  0  0  0  0  0  0
  -23.1549  -10.5573   20.7082 C   0  0  0  0  0  0  0  0  0  0  0  0
  -23.4794   -7.9742   21.7107 C   0  0  0  0  0  0  0  0  0  0  0  0
  -23.0714   -9.4606   19.8503 C   0  0  0  0  0  0  0  0  0  0  0  0
  -27.2488  -15.4164   20.8293 C   0  0  0  0  0  0  0  0  0  0  0  0
  -28.9924  -16.7122   20.4892 C   0  0  0  0  0  0  0  0  0  0  0  0
  -32.1853  -25.3011   15.2744 C   0  0  0  0  0  0  0  0  0  0  0  0
  -33.4945  -25.0843   15.0775 C   0  0  0  0  0  0  0  0  0  0  0  0
  -28.2130  -15.5006   18.4464 C   0  0  0  0  0  0  0  0  0  0  0  0
  -24.1414  -28.7353   21.9456 C   0  0  0  0  0  0  0  0  0  0  0  0
  -27.0705  -28.1966   22.6808 C   0  0  0  0  0  0  0  0  0  0  0  0
  -29.9898  -27.3497   24.2291 C   0  0  0  0  0  0  0  0  0  0  0  0
  -29.8457  -20.9196   24.0550 C   0  0  0  0  0  0  0  0  0  0  0  0
  -20.6973  -26.8161   25.1879 C   0  0  0  0  0  0  0  0  0  0  0  0
  -24.7386  -27.9023   19.6837 C   0  0  0  0  0  0  0  0  0  0  0  0
  -27.0425  -29.3607   20.4215 C   0  0  0  0  0  0  0  0  0  0  0  0
  -31.2272  -25.6069   14.1553 C   0  0  0  0  0  0  0  0  0  0  0  0
  -22.1533  -27.2652   25.2814 C   0  0  0  0  0  0  0  0  0  0  0  0
  -30.4146  -26.8547   14.4790 C   0  0  0  0  0  0  0  0  0  0  0  0
  -29.5718  -17.6454   25.4268 C   0  0  0  0  0  0  0  0  0  0  0  0
  -22.3297  -28.6405   24.6457 C   0  0  0  0  0  0  0  0  0  0  0  0
  -29.0116  -16.8113   24.2734 C   0  0  0  0  0  0  0  0  0  0  0  0
  -28.9851  -19.0552   25.4407 C   0  0  0  0  0  0  0  0  0  0  0  0
  -28.5535  -18.9580   23.0162 C   0  0  0  0  0  0  0  0  0  0  0  0
  -30.8976  -26.5161   16.9319 C   0  0  0  0  0  0  0  0  0  0  0  0
  -21.9707  -28.6095   23.1552 C   0  0  1  0  0  0  0  0  0  0  0  0
  -25.1339  -27.9188   21.1712 C   0  0  1  0  0  0  0  0  0  0  0  0
  -29.1577  -17.5461   22.9273 C   0  0  2  0  0  0  0  0  0  0  0  0
  -29.8189  -26.7816   15.8849 C   0  0  1  0  0  0  0  0  0  1  0  0
  -28.2965  -23.7140   21.1194 C   0  0  0  0  0  0  0  0  0  0  0  0
  -31.7145  -27.2427   26.0489 C   0  0  0  0  0  0  0  0  0  0  0  0
  -27.9158  -30.8954   21.5380 C   0  0  0  0  0  0  0  0  0  0  0  0
  -29.8803  -30.8573   23.0897 C   0  0  0  0  0  0  0  0  0  0  0  0
  -27.5633  -30.8748   24.0138 C   0  0  0  0  0  0  0  0  0  0  0  0
  -28.7200  -24.9726   25.4523 C   0  0  0  0  0  0  0  0  0  0  0  0
  -30.6570  -22.7055   22.5348 C   0  0  0  0  0  0  0  0  0  0  0  0
  -30.9636  -23.9855   16.9031 C   0  0  0  0  0  0  0  0  0  0  0  0
  -28.4432  -28.7752   22.9138 C   0  0  1  0  0  0  0  0  0  0  0  0
  -30.2849  -26.9091   25.6516 C   0  0  2  0  0  0  0  0  0  0  0  0
  -28.4464  -30.3294   22.8703 C   0  0  0  0  0  0  0  0  0  0  0  0
  -27.4993  -15.9604   22.0231 N   0  0  0  0  0  0  0  0  0  0  0  0
  -28.5651  -16.7432   21.7840 N   0  0  0  0  0  0  0  0  0  0  0  0
  -26.4473  -28.5152   21.4681 N   0  0  0  0  0  0  0  0  0  0  0  0
  -29.1577  -19.6976   24.1355 N   0  0  0  0  0  0  0  0  0  0  0  0
  -30.0517  -17.4404   20.0767 N   0  0  0  0  0  0  0  0  0  0  0  0
  -27.4930  -16.2774   17.5285 N   0  0  0  0  0  0  0  0  0  0  0  0
  -23.0464  -28.0182   22.3885 N   0  0  0  0  0  0  0  0  0  0  0  0
  -28.9151  -28.2118   24.1741 N   0  0  0  0  0  0  0  0  0  0  0  0
  -29.9702  -21.4569   22.7797 N   0  0  0  0  0  0  0  0  0  0  0  0
  -31.6952  -25.2708   16.6310 N   0  3  1  0  0  0  0  0  0  0  0  0
  -30.0900  -25.4380   25.7892 N   0  3  0  0  0  0  0  0  0  0  0  0
  -28.8767  -14.5197   18.0330 O   0  0  0  0  0  0  0  0  0  0  0  0
  -24.3531  -29.9282   22.1298 O   0  0  0  0  0  0  0  0  0  0  0  0
  -26.5599  -27.4858   23.5510 O   0  0  0  0  0  0  0  0  0  0  0  0
  -30.6493  -26.9702   23.2639 O   0  0  0  0  0  0  0  0  0  0  0  0
  -30.3189  -21.4868   25.0456 O   0  0  0  0  0  0  0  0  0  0  0  0
  -22.9948  -11.8402   20.2120 O   0  0  0  0  0  0  0  0  0  0  0  0
  -29.1940  -28.0239   16.1961 O   0  0  0  0  0  0  0  0  0  1  0  0
  -23.6368   -6.7341   22.1920 F   0  0  0  0  0  0  0  0  0  0  0  0
  -22.8367   -9.6416   18.5434 F   0  0  0  0  0  0  0  0  0  0  0  0
  1  2  1  0  0  0  0
  1  5  2  0  0  0  0
  2  6  2  0  0  0  0
  3 10  2  0  0  0  0
  3 18  1  0  0  0  0
  4 11  1  0  0  0  0
  4 18  2  0  0  0  0
  5 20  1  0  0  0  0
  6 22  1  0  0  0  0
  7 12  2  0  0  0  0
  7 21  1  0  0  0  0
  8  9  2  0  0  0  0
  8 24  1  0  0  0  0
  9 25  1  0  0  0  0
 10 27  1  0  0  0  0
 11 27  2  0  0  0  0
 12 28  1  0  0  0  0
 13 14  2  0  0  0  0
 13 29  1  0  0  0  0
 14 30  1  0  0  0  0
 15 23  1  0  0  0  0
 15 28  2  0  0  0  0
 16 24  2  0  0  0  0
 16 26  1  0  0  0  0
 17 30  2  0  0  0  0
 17 31  1  0  0  0  0
 18 32  1  0  0  0  0
 19 32  1  0  0  0  0
 19 33  2  0  0  0  0
 19 36  1  0  0  0  0
 20 22  2  0  0  0  0
 20 41  1  0  0  0  0
 21 23  2  0  0  0  0
 21 42  1  0  0  0  0
 22 53  1  0  0  0  0
 23 43  1  0  0  0  0
 24 64  1  0  0  0  0
 25 26  2  0  0  0  0
 25 63  1  0  0  0  0
 26 57  1  0  0  0  0
 27 84  1  0  0  0  0
 28 85  1  0  0  0  0
 29 31  2  0  0  0  0
 29 84  1  0  0  0  0
 30 86  1  0  0  0  0
 31 87  1  0  0  0  0
 32 68  2  0  0  0  0
 33 69  1  0  0  0  0
 33 72  1  0  0  0  0
 34 35  2  0  0  0  0
 34 44  1  0  0  0  0
 34 77  1  0  0  0  0
 36 73  1  0  0  0  0
 36 79  2  0  0  0  0
 37 54  1  0  0  0  0
 37 74  1  0  0  0  0
 37 80  2  0  0  0  0
 38 65  1  0  0  0  0
 38 70  1  0  0  0  0
 38 81  2  0  0  0  0
 39 66  1  0  0  0  0
 39 75  1  0  0  0  0
 39 82  2  0  0  0  0
 40 71  1  0  0  0  0
 40 76  1  0  0  0  0
 40 83  2  0  0  0  0
 41 45  1  0  0  0  0
 42 54  1  0  0  0  0
 43 70  1  0  0  0  0
 44 46  1  0  0  0  0
 45 48  1  0  0  0  0
 46 56  1  0  0  0  0
 47 49  1  0  0  0  0
 47 50  1  0  0  0  0
 48 53  1  0  0  0  0
 49 55  1  0  0  0  0
 50 71  1  0  0  0  0
 51 55  1  0  0  0  0
 51 71  1  0  0  0  0
 52 56  1  0  0  0  0
 52 77  1  0  0  0  0
 53 74  1  0  0  0  0
 54 70  1  0  0  0  0
 55 69  1  0  0  0  0
 56 85  1  0  0  0  0
 58 66  1  0  0  0  0
 59 67  1  0  0  0  0
 60 67  1  0  0  0  0
 61 67  1  0  0  0  0
 62 78  1  0  0  0  0
 63 76  1  0  0  0  0
 64 77  1  0  0  0  0
 65 67  1  0  0  0  0
 65 75  1  0  0  0  0
 66 78  1  0  0  0  0
 68 69  1  0  0  0  0
M  CHG  2  77   1  78   1
M  ISO  4  40 100  56 101  76 100  85 101
M  END
> <Batch ID>
0037

> <Smiles>
C=C1CC[101CH:1]([101O:1]c2ccc3c(c2)CN(C(=O)C(NC(=O)C(C)NC)C(C)(C)C)C(C(=O)NC2CCCc4ccccc42)C3)CN1Cc1ccc(C[100NH:0][100C:0](=O)N2CCCC(n3nc(-c4ccc(Oc5ccc(F)cc5F)cc4)c(C(N)=O)c3N)C2)c(C)c1

> <Shape>
0.231

> <Color>
0.077

> <Negative vol penalty>
0.000

$$$$

  -OEChem-04042321573D

 87 96  0     1  0  0  0  0  0999 V2000
  -16.6909  -30.6405   25.0111 C   0  0  0  0  0  0  0  0  0  0  0  0
  -17.5689  -30.2315   24.0125 C   0  0  0  0  0  0  0  0  0  0  0  0
  -24.1953   -9.2394   21.3708 C   0  0  0  0  0  0  0  0  0  0  0  0
  -25.2363  -10.2324   23.3117 C   0  0  0  0  0  0  0  0  0  0  0  0
  -17.1067  -31.5663   25.9671 C   0  0  0  0  0  0  0  0  0  0  0  0
  -18.8630  -30.7491   23.9686 C   0  0  0  0  0  0  0  0  0  0  0  0
  -22.3564  -27.1778   23.1395 C   0  0  0  0  0  0  0  0  0  0  0  0
  -23.9230   -8.0862   22.1068 C   0  0  0  0  0  0  0  0  0  0  0  0
  -24.9640   -9.0792   24.0478 C   0  0  0  0  0  0  0  0  0  0  0  0
  -22.5022  -26.7216   21.8302 C   0  0  0  0  0  0  0  0  0  0  0  0
  -21.6544   -7.0723   24.3999 C   0  0  0  0  0  0  0  0  0  0  0  0
  -20.3815   -6.5142   24.2830 C   0  0  0  0  0  0  0  0  0  0  0  0
  -24.4284  -28.1474   21.5543 C   0  0  0  0  0  0  0  0  0  0  0  0
  -27.7816  -21.0019   18.6480 C   0  0  0  0  0  0  0  0  0  0  0  0
  -21.3566   -4.4629   23.4593 C   0  0  0  0  0  0  0  0  0  0  0  0
  -24.8520  -10.3124   21.9733 C   0  0  0  0  0  0  0  0  0  0  0  0
  -24.2026  -12.3497   20.5820 C   0  0  0  0  0  0  0  0  0  0  0  0
  -18.4096  -32.0881   25.9406 C   0  0  0  0  0  0  0  0  0  0  0  0
  -23.2404  -28.1320   23.6634 C   0  0  0  0  0  0  0  0  0  0  0  0
  -19.2962  -31.6837   24.9243 C   0  0  0  0  0  0  0  0  0  0  0  0
  -24.2932  -28.6122   22.8714 C   0  0  0  0  0  0  0  0  0  0  0  0
  -27.3121  -21.8047   19.6875 C   0  0  0  0  0  0  0  0  0  0  0  0
  -27.9955  -19.6400   18.8606 C   0  0  0  0  0  0  0  0  0  0  0  0
  -27.0566  -21.2458   20.9396 C   0  0  0  0  0  0  0  0  0  0  0  0
  -27.2706  -19.8839   21.1523 C   0  0  0  0  0  0  0  0  0  0  0  0
  -27.7400  -19.0810   20.1128 C   0  0  0  0  0  0  0  0  0  0  0  0
  -24.3074   -8.0061   23.4452 C   0  0  0  0  0  0  0  0  0  0  0  0
  -23.5366  -27.2085   21.0364 C   0  0  0  0  0  0  0  0  0  0  0  0
  -22.7785   -6.3258   24.0464 C   0  0  0  0  0  0  0  0  0  0  0  0
  -20.2326   -5.2095   23.8128 C   0  0  0  0  0  0  0  0  0  0  0  0
  -22.6295   -5.0211   23.5762 C   0  0  0  0  0  0  0  0  0  0  0  0
  -25.1340  -11.5037   21.2134 C   0  0  0  0  0  0  0  0  0  0  0  0
  -24.9686  -13.3301   20.0001 C   0  0  0  0  0  0  0  0  0  0  0  0
  -22.7729  -12.2576   20.5266 C   0  0  0  0  0  0  0  0  0  0  0  0
  -22.9408  -31.0925   24.7812 C   0  0  0  0  0  0  0  0  0  0  0  0
  -26.0749  -30.7117   25.5258 C   0  0  0  0  0  0  0  0  0  0  0  0
  -28.9993  -29.2906   23.9618 C   0  0  0  0  0  0  0  0  0  0  0  0
  -29.1539  -16.9974   20.1911 C   0  0  0  0  0  0  0  0  0  0  0  0
  -18.7984  -33.1221   26.9674 C   0  0  0  0  0  0  0  0  0  0  0  0
  -23.0856  -28.5941   25.0864 C   0  0  0  0  0  0  0  0  0  0  0  0
  -25.2812  -29.6222   23.3931 C   0  0  0  0  0  0  0  0  0  0  0  0
  -20.3058  -33.3397   27.0722 C   0  0  0  0  0  0  0  0  0  0  0  0
  -29.9776  -13.6396   19.3403 C   0  0  0  0  0  0  0  0  0  0  0  0
  -23.5847  -23.5005   17.9172 C   0  0  0  0  0  0  0  0  0  0  0  0
  -20.9228  -33.4789   25.6842 C   0  0  0  0  0  0  0  0  0  0  0  0
  -28.7143  -12.8542   19.6998 C   0  0  0  0  0  0  0  0  0  0  0  0
  -23.2736  -24.9544   18.2470 C   0  0  0  0  0  0  0  0  0  0  0  0
  -30.2449  -14.7693   20.3333 C   0  0  0  0  0  0  0  0  0  0  0  0
  -27.8536  -14.8984   20.9113 C   0  0  0  0  0  0  0  0  0  0  0  0
  -25.0808  -23.2231   17.9544 C   0  0  0  0  0  0  0  0  0  0  0  0
  -25.3918  -25.0814   19.6096 C   0  0  0  0  0  0  0  0  0  0  0  0
  -20.7158  -32.2037   24.8580 C   0  0  1  0  0  0  0  0  0  0  0  0
  -23.7345  -29.9497   25.3483 C   0  0  1  0  0  0  0  0  0  0  0  0
  -27.5071  -13.7908   19.9029 C   0  0  2  0  0  0  0  0  0  0  0  0
  -23.8966  -25.3695   19.5762 C   0  0  1  0  0  0  0  0  0  1  0  0
  -28.4978  -18.8056   17.7268 C   0  0  0  0  0  0  0  0  0  0  0  0
  -26.5533  -22.1098   22.0524 C   0  0  0  0  0  0  0  0  0  0  0  0
  -26.9950  -19.2891   22.4981 C   0  0  0  0  0  0  0  0  0  0  0  0
  -31.0775  -28.3126   24.9726 C   0  0  0  0  0  0  0  0  0  0  0  0
  -27.2184  -33.5186   25.1740 C   0  0  0  0  0  0  0  0  0  0  0  0
  -29.4028  -32.4736   24.5380 C   0  0  0  0  0  0  0  0  0  0  0  0
  -28.4525  -32.0871   26.8118 C   0  0  0  0  0  0  0  0  0  0  0  0
  -28.6531  -26.7431   22.4957 C   0  0  0  0  0  0  0  0  0  0  0  0
  -27.0890  -23.2662   19.4318 C   0  0  0  0  0  0  0  0  0  0  0  0
  -27.3815  -30.9672   24.8141 C   0  0  1  0  0  0  0  0  0  0  0  0
  -29.7158  -28.0144   24.3647 C   0  0  2  0  0  0  0  0  0  0  0  0
  -28.0900  -32.2554   25.3201 C   0  0  0  0  0  0  0  0  0  0  0  0
  -26.3953  -11.9109   21.0480 N   0  0  0  0  0  0  0  0  0  0  0  0
  -26.2618  -13.0235   20.3061 N   0  0  0  0  0  0  0  0  0  0  0  0
  -25.0841  -30.0479   24.7886 N   0  0  0  0  0  0  0  0  0  0  0  0
  -29.0592  -15.6178   20.4713 N   0  0  0  0  0  0  0  0  0  0  0  0
  -24.6553  -14.4158   19.2616 N   0  0  0  0  0  0  0  0  0  0  0  0
  -22.0233  -12.8897   21.5281 N   0  0  0  0  0  0  0  0  0  0  0  0
  -27.9549  -17.6967   20.3253 N   0  0  0  0  0  0  0  0  0  0  0  0
  -21.6506  -31.1780   25.2688 N   0  0  0  0  0  0  0  0  0  0  0  0
  -28.1732  -29.7512   24.9652 N   0  0  0  0  0  0  0  0  0  0  0  0
  -25.6347  -23.6261   19.3003 N   0  3  2  0  0  0  0  0  0  0  0  0
  -29.9133  -27.1345   23.1782 N   0  3  0  0  0  0  0  0  0  0  0  0
  -22.1782  -11.6195   19.6251 O   0  0  0  0  0  0  0  0  0  0  0  0
  -23.4608  -31.8421   23.9630 O   0  0  0  0  0  0  0  0  0  0  0  0
  -25.9410  -31.0810   26.6951 O   0  0  0  0  0  0  0  0  0  0  0  0
  -29.1594  -29.8274   22.8679 O   0  0  0  0  0  0  0  0  0  0  0  0
  -30.2140  -17.5151   19.8303 O   0  0  0  0  0  0  0  0  0  0  0  0
  -24.0416   -6.8811   24.1638 O   0  0  0  0  0  0  0  0  0  0  0  0
  -23.6808  -26.7653   19.7579 O   0  0  0  0  0  0  0  0  0  1  0  0
  -19.0102   -4.6730   23.7020 F   0  0  0  0  0  0  0  0  0  0  0  0
  -23.7057   -4.2986   23.2361 F   0  0  0  0  0  0  0  0  0  0  0  0
  1  2  1  0  0  0  0
  1  5  2  0  0  0  0
  2  6  2  0  0  0  0
  3  8  2  0  0  0  0
  3 16  1  0  0  0  0
  4  9  1  0  0  0  0
  4 16  2  0  0  0  0
  5 18  1  0  0  0  0
  6 20  1  0  0  0  0
  7 10  2  0  0  0  0
  7 19  1  0  0  0  0
  8 27  1  0  0  0  0
  9 27  2  0  0  0  0
 10 28  1  0  0  0  0
 11 12  2  0  0  0  0
 11 29  1  0  0  0  0
 12 30  1  0  0  0  0
 13 21  1  0  0  0  0
 13 28  2  0  0  0  0
 14 22  1  0  0  0  0
 14 23  2  0  0  0  0
 15 30  2  0  0  0  0
 15 31  1  0  0  0  0
 16 32  1  0  0  0  0
 17 32  1  0  0  0  0
 17 33  2  0  0  0  0
 17 34  1  0  0  0  0
 18 20  2  0  0  0  0
 18 39  1  0  0  0  0
 19 21  2  0  0  0  0
 19 40  1  0  0  0  0
 20 52  1  0  0  0  0
 21 41  1  0  0  0  0
 22 24  2  0  0  0  0
 22 64  1  0  0  0  0
 23 26  1  0  0  0  0
 23 56  1  0  0  0  0
 24 25  1  0  0  0  0
 24 57  1  0  0  0  0
 25 26  2  0  0  0  0
 25 58  1  0  0  0  0
 26 74  1  0  0  0  0
 27 84  1  0  0  0  0
 28 85  1  0  0  0  0
 29 31  2  0  0  0  0
 29 84  1  0  0  0  0
 30 86  1  0  0  0  0
 31 87  1  0  0  0  0
 32 68  2  0  0  0  0
 33 69  1  0  0  0  0
 33 72  1  0  0  0  0
 34 73  1  0  0  0  0
 34 79  2  0  0  0  0
 35 53  1  0  0  0  0
 35 75  1  0  0  0  0
 35 80  2  0  0  0  0
 36 65  1  0  0  0  0
 36 70  1  0  0  0  0
 36 81  2  0  0  0  0
 37 66  1  0  0  0  0
 37 76  1  0  0  0  0
 37 82  2  0  0  0  0
 38 71  1  0  0  0  0
 38 74  1  0  0  0  0
 38 83  2  0  0  0  0
 39 42  1  0  0  0  0
 40 53  1  0  0  0  0
 41 70  1  0  0  0  0
 42 45  1  0  0  0  0
 43 46  1  0  0  0  0
 43 48  1  0  0  0  0
 44 47  1  0  0  0  0
 44 50  1  0  0  0  0
 45 52  1  0  0  0  0
 46 54  1  0  0  0  0
 47 55  1  0  0  0  0
 48 71  1  0  0  0  0
 49 54  1  0  0  0  0
 49 71  1  0  0  0  0
 50 77  1  0  0  0  0
 51 55  1  0  0  0  0
 51 77  1  0  0  0  0
 52 75  1  0  0  0  0
 53 70  1  0  0  0  0
 54 69  1  0  0  0  0
 55 85  1  0  0  0  0
 59 66  1  0  0  0  0
 60 67  1  0  0  0  0
 61 67  1  0  0  0  0
 62 67  1  0  0  0  0
 63 78  1  0  0  0  0
 64 77  1  0  0  0  0
 65 67  1  0  0  0  0
 65 76  1  0  0  0  0
 66 78  1  0  0  0  0
 68 69  1  0  0  0  0
M  CHG  2  77   1  78   1
M  ISO  4  38 100  55 101  74 100  85 101
M  END
> <Batch ID>
0037

> <Smiles>
CNC(C)C(=O)NC(C(=O)N1Cc2cc([101O:1][101CH:1]3CCCN(Cc4cc(C)c([100NH:0][100C:0](=O)N5CCCC(n6nc(-c7ccc(Oc8ccc(F)cc8F)cc7)c(C(N)=O)c6N)C5)c(C)c4C)C3)ccc2CC1C(=O)NC1CCCc2ccccc21)C(C)(C)C

> <Shape>
0.268

> <Color>
0.098

> <Negative vol penalty>
0.000

$$$$

  -OEChem-04042321573D

 87 96  0     1  0  0  0  0  0999 V2000
  -24.7287  -35.3485   23.4277 C   0  0  0  0  0  0  0  0  0  0  0  0
  -25.5150  -34.2331   23.1574 C   0  0  0  0  0  0  0  0  0  0  0  0
  -23.8842  -13.4914   20.3993 C   0  0  0  0  0  0  0  0  0  0  0  0
  -26.2911  -13.5208   20.6062 C   0  0  0  0  0  0  0  0  0  0  0  0
  -23.4271  -35.1845   23.8998 C   0  0  0  0  0  0  0  0  0  0  0  0
  -25.0004  -32.9530   23.3600 C   0  0  0  0  0  0  0  0  0  0  0  0
  -26.0383  -29.8127   19.5251 C   0  0  0  0  0  0  0  0  0  0  0  0
  -23.9133  -12.1041   20.2575 C   0  0  0  0  0  0  0  0  0  0  0  0
  -26.3202  -12.1335   20.4645 C   0  0  0  0  0  0  0  0  0  0  0  0
  -27.3250  -29.2789   19.4697 C   0  0  0  0  0  0  0  0  0  0  0  0
  -24.2234   -9.4010   22.2651 C   0  0  0  0  0  0  0  0  0  0  0  0
  -23.2950   -8.6556   22.9916 C   0  0  0  0  0  0  0  0  0  0  0  0
  -26.5093  -27.2275   20.4422 C   0  0  0  0  0  0  0  0  0  0  0  0
  -29.0187  -23.4760   24.4149 C   0  0  0  0  0  0  0  0  0  0  0  0
  -29.7329  -23.4236   21.7187 C   0  0  0  0  0  0  0  0  0  0  0  0
  -22.3940   -7.7704   20.9321 C   0  0  0  0  0  0  0  0  0  0  0  0
  -25.0731  -14.1998   20.5736 C   0  0  0  0  0  0  0  0  0  0  0  0
  -24.3857  -16.3722   21.7206 C   0  0  0  0  0  0  0  0  0  0  0  0
  -22.8930  -33.9017   24.0991 C   0  0  0  0  0  0  0  0  0  0  0  0
  -24.9777  -29.0606   20.0505 C   0  0  0  0  0  0  0  0  0  0  0  0
  -23.6909  -32.7718   23.8364 C   0  0  0  0  0  0  0  0  0  0  0  0
  -25.2096  -27.7532   20.5008 C   0  0  0  0  0  0  0  0  0  0  0  0
  -30.0737  -24.2655   23.9574 C   0  0  0  0  0  0  0  0  0  0  0  0
  -28.3208  -22.6602   23.5243 C   0  0  0  0  0  0  0  0  0  0  0  0
  -30.4308  -24.2393   22.6093 C   0  0  0  0  0  0  0  0  0  0  0  0
  -28.6779  -22.6341   22.1762 C   0  0  0  0  0  0  0  0  0  0  0  0
  -25.1313  -11.4251   20.2902 C   0  0  0  0  0  0  0  0  0  0  0  0
  -27.5613  -27.9872   19.9309 C   0  0  0  0  0  0  0  0  0  0  0  0
  -24.2371   -9.3312   20.8720 C   0  0  0  0  0  0  0  0  0  0  0  0
  -22.3803   -7.8402   22.3251 C   0  0  0  0  0  0  0  0  0  0  0  0
  -23.3225   -8.5159   20.2055 C   0  0  0  0  0  0  0  0  0  0  0  0
  -25.0437  -15.6330   20.7195 C   0  0  0  0  0  0  0  0  0  0  0  0
  -24.6623  -17.6829   21.4173 C   0  0  0  0  0  0  0  0  0  0  0  0
  -23.5952  -15.9150   22.8259 C   0  0  0  0  0  0  0  0  0  0  0  0
  -22.9996  -29.3905   22.5167 C   0  0  0  0  0  0  0  0  0  0  0  0
  -21.5882  -26.7660   21.2351 C   0  0  0  0  0  0  0  0  0  0  0  0
  -22.6630  -23.6623   19.7421 C   0  0  0  0  0  0  0  0  0  0  0  0
  -28.2220  -21.6822   19.8887 C   0  0  0  0  0  0  0  0  0  0  0  0
  -21.4970  -33.7750   24.6558 C   0  0  0  0  0  0  0  0  0  0  0  0
  -23.5904  -29.6412   20.0786 C   0  0  0  0  0  0  0  0  0  0  0  0
  -24.1013  -26.8971   21.0552 C   0  0  0  0  0  0  0  0  0  0  0  0
  -20.8985  -32.3808   24.4876 C   0  0  0  0  0  0  0  0  0  0  0  0
  -26.7539  -19.7387   17.2917 C   0  0  0  0  0  0  0  0  0  0  0  0
  -21.9065  -31.3135   24.9018 C   0  0  0  0  0  0  0  0  0  0  0  0
  -26.1240  -18.5581   18.0343 C   0  0  0  0  0  0  0  0  0  0  0  0
  -30.9266  -28.6297   19.6509 C   0  0  0  0  0  0  0  0  0  0  0  0
  -31.7046  -27.4616   19.0561 C   0  0  0  0  0  0  0  0  0  0  0  0
  -28.0767  -20.1664   17.9250 C   0  0  0  0  0  0  0  0  0  0  0  0
  -27.3850  -19.2602   20.1089 C   0  0  0  0  0  0  0  0  0  0  0  0
  -30.3874  -27.2203   21.6713 C   0  0  0  0  0  0  0  0  0  0  0  0
  -23.1599  -31.3666   24.0200 C   0  0  1  0  0  0  0  0  0  0  0  0
  -22.6840  -28.9734   21.1081 C   0  0  1  0  0  0  0  0  0  0  0  0
  -26.0186  -18.8352   19.5468 C   0  0  2  0  0  0  0  0  0  0  0  0
  -29.8363  -28.1503   20.6008 C   0  0  2  0  0  0  0  0  0  1  0  0
  -32.2752  -26.5336   20.1352 C   0  0  2  0  0  0  0  0  0  0  0  0
  -30.8066  -25.1307   24.9295 C   0  0  0  0  0  0  0  0  0  0  0  0
  -27.1950  -21.8252   24.0421 C   0  0  0  0  0  0  0  0  0  0  0  0
  -32.9732  -25.3449   19.4771 C   0  0  0  0  0  0  0  0  0  0  0  0
  -21.5299  -22.1811   18.0630 C   0  0  0  0  0  0  0  0  0  0  0  0
  -20.5624  -25.2631   23.6845 C   0  0  0  0  0  0  0  0  0  0  0  0
  -20.8865  -23.1254   22.4221 C   0  0  0  0  0  0  0  0  0  0  0  0
  -19.2753  -24.8352   21.5833 C   0  0  0  0  0  0  0  0  0  0  0  0
  -24.9841  -23.7687   17.9091 C   0  0  0  0  0  0  0  0  0  0  0  0
  -31.5620  -25.0795   22.0943 C   0  0  0  0  0  0  0  0  0  0  0  0
  -21.7581  -25.2746   21.3962 C   0  0  1  0  0  0  0  0  0  0  0  0
  -22.5633  -23.2759   18.2774 C   0  0  2  0  0  0  0  0  0  0  0  0
  -20.6423  -24.6425   22.2754 C   0  0  0  0  0  0  0  0  0  0  0  0
  -25.6895  -16.4095   19.8455 N   0  0  0  0  0  0  0  0  0  0  0  0
  -25.4386  -17.6504   20.2964 N   0  0  0  0  0  0  0  0  0  0  0  0
  -22.7636  -27.5118   21.0676 N   0  0  0  0  0  0  0  0  0  0  0  0
  -27.8991  -20.4158   19.3572 N   0  0  0  0  0  0  0  0  0  0  0  0
  -24.3146  -18.8486   22.0027 N   0  0  0  0  0  0  0  0  0  0  0  0
  -23.4116  -14.5353   22.9906 N   0  0  0  0  0  0  0  0  0  0  0  0
  -27.9810  -21.8122   21.2560 N   0  0  0  0  0  0  0  0  0  0  0  0
  -22.9009  -30.7512   22.7360 N   0  0  0  0  0  0  0  0  0  0  0  0
  -21.8391  -24.7250   20.0472 N   0  0  0  0  0  0  0  0  0  0  0  0
  -31.1331  -26.0615   21.0303 N   0  3  1  0  0  0  0  0  0  0  0  0
  -23.8794  -22.7837   17.7808 N   0  3  0  0  0  0  0  0  0  0  0  0
  -23.0537  -16.7071   23.6339 O   0  0  0  0  0  0  0  0  0  0  0  0
  -23.3083  -28.5405   23.3437 O   0  0  0  0  0  0  0  0  0  0  0  0
  -20.4539  -27.2505   21.2501 O   0  0  0  0  0  0  0  0  0  0  0  0
  -23.3954  -23.0773   20.5370 O   0  0  0  0  0  0  0  0  0  0  0  0
  -28.6532  -22.5936   19.1778 O   0  0  0  0  0  0  0  0  0  0  0  0
  -25.1600  -10.0713   20.1521 O   0  0  0  0  0  0  0  0  0  0  0  0
  -28.8164  -27.4639   19.8786 O   0  0  0  0  0  0  0  0  0  1  0  0
  -21.4898   -7.1232   23.0230 F   0  0  0  0  0  0  0  0  0  0  0  0
  -23.3316   -8.4438   18.8674 F   0  0  0  0  0  0  0  0  0  0  0  0
  1  2  1  0  0  0  0
  1  5  2  0  0  0  0
  2  6  2  0  0  0  0
  3  8  2  0  0  0  0
  3 17  1  0  0  0  0
  4  9  1  0  0  0  0
  4 17  2  0  0  0  0
  5 19  1  0  0  0  0
  6 21  1  0  0  0  0
  7 10  2  0  0  0  0
  7 20  1  0  0  0  0
  8 27  1  0  0  0  0
  9 27  2  0  0  0  0
 10 28  1  0  0  0  0
 11 12  2  0  0  0  0
 11 29  1  0  0  0  0
 12 30  1  0  0  0  0
 13 22  1  0  0  0  0
 13 28  2  0  0  0  0
 14 23  1  0  0  0  0
 14 24  2  0  0  0  0
 15 25  1  0  0  0  0
 15 26  2  0  0  0  0
 16 30  2  0  0  0  0
 16 31  1  0  0  0  0
 17 32  1  0  0  0  0
 18 32  1  0  0  0  0
 18 33  2  0  0  0  0
 18 34  1  0  0  0  0
 19 21  2  0  0  0  0
 19 39  1  0  0  0  0
 20 22  2  0  0  0  0
 20 40  1  0  0  0  0
 21 51  1  0  0  0  0
 22 41  1  0  0  0  0
 23 25  2  0  0  0  0
 23 56  1  0  0  0  0
 24 26  1  0  0  0  0
 24 57  1  0  0  0  0
 25 64  1  0  0  0  0
 26 74  1  0  0  0  0
 27 84  1  0  0  0  0
 28 85  1  0  0  0  0
 29 31  2  0  0  0  0
 29 84  1  0  0  0  0
 30 86  1  0  0  0  0
 31 87  1  0  0  0  0
 32 68  2  0  0  0  0
 33 69  1  0  0  0  0
 33 72  1  0  0  0  0
 34 73  1  0  0  0  0
 34 79  2  0  0  0  0
 35 52  1  0  0  0  0
 35 75  1  0  0  0  0
 35 80  2  0  0  0  0
 36 65  1  0  0  0  0
 36 70  1  0  0  0  0
 36 81  2  0  0  0  0
 37 66  1  0  0  0  0
 37 76  1  0  0  0  0
 37 82  2  0  0  0  0
 38 71  1  0  0  0  0
 38 74  1  0  0  0  0
 38 83  2  0  0  0  0
 39 42  1  0  0  0  0
 40 52  1  0  0  0  0
 41 70  1  0  0  0  0
 42 44  1  0  0  0  0
 43 45  1  0  0  0  0
 43 48  1  0  0  0  0
 44 51  1  0  0  0  0
 45 53  1  0  0  0  0
 46 47  1  0  0  0  0
 46 54  1  0  0  0  0
 47 55  1  0  0  0  0
 48 71  1  0  0  0  0
 49 53  1  0  0  0  0
 49 71  1  0  0  0  0
 50 54  1  0  0  0  0
 50 77  1  0  0  0  0
 51 75  1  0  0  0  0
 52 70  1  0  0  0  0
 53 69  1  0  0  0  0
 54 85  1  0  0  0  0
 55 58  1  0  0  0  0
 55 77  1  0  0  0  0
 59 66  1  0  0  0  0
 60 67  1  0  0  0  0
 61 67  1  0  0  0  0
 62 67  1  0  0  0  0
 63 78  1  0  0  0  0
 64 77  1  0  0  0  0
 65 67  1  0  0  0  0
 65 76  1  0  0  0  0
 66 78  1  0  0  0  0
 68 69  1  0  0  0  0
M  CHG  2  77   1  78   1
M  ISO  4  38 100  54 101  74 100  85 101
M  END
> <Batch ID>
0037

> <Smiles>
CNC(C)C(=O)NC(C(=O)N1Cc2cc([101O:1][101CH:1]3CCC(C)N(Cc4cc([100NH:0][100C:0](=O)N5CCCC(n6nc(-c7ccc(Oc8ccc(F)cc8F)cc7)c(C(N)=O)c6N)C5)c(C)cc4C)C3)ccc2CC1C(=O)NC1CCCc2ccccc21)C(C)(C)C

> <Shape>
0.245

> <Color>
0.088

> <Negative vol penalty>
0.000

$$$$

  -OEChem-04042321573D

 88 97  0     1  0  0  0  0  0999 V2000
  -17.0083  -23.8560   24.0061 C   0  0  0  0  0  0  0  0  0  0  0  0
  -18.2095  -23.1547   24.0332 C   0  0  0  0  0  0  0  0  0  0  0  0
  -29.6931  -17.9016   21.9494 C   0  0  0  0  0  0  0  0  0  0  0  0
  -29.3427  -17.6945   19.5679 C   0  0  0  0  0  0  0  0  0  0  0  0
  -16.9561  -25.1250   23.4310 C   0  0  0  0  0  0  0  0  0  0  0  0
  -19.3590  -23.7217   23.4841 C   0  0  0  0  0  0  0  0  0  0  0  0
  -25.2525  -24.7724   27.4909 C   0  0  0  0  0  0  0  0  0  0  0  0
  -30.0620  -16.5579   22.0120 C   0  0  0  0  0  0  0  0  0  0  0  0
  -29.7117  -16.3508   19.6305 C   0  0  0  0  0  0  0  0  0  0  0  0
  -26.4882  -24.8118   28.1373 C   0  0  0  0  0  0  0  0  0  0  0  0
  -28.2984  -13.4193   20.5470 C   0  0  0  0  0  0  0  0  0  0  0  0
  -27.5095  -12.4979   19.8585 C   0  0  0  0  0  0  0  0  0  0  0  0
  -27.4852  -25.8451   26.1914 C   0  0  0  0  0  0  0  0  0  0  0  0
  -33.0408  -27.0424   24.3138 C   0  0  0  0  0  0  0  0  0  0  0  0
  -34.0832  -24.8697   24.4848 C   0  0  0  0  0  0  0  0  0  0  0  0
  -29.4226  -11.8510   18.5322 C   0  0  0  0  0  0  0  0  0  0  0  0
  -29.3333  -18.4699   20.7273 C   0  0  0  0  0  0  0  0  0  0  0  0
  -27.8811  -20.4775   21.3343 C   0  0  0  0  0  0  0  0  0  0  0  0
  -18.1078  -25.7119   22.8833 C   0  0  0  0  0  0  0  0  0  0  0  0
  -25.1249  -25.2839   26.1965 C   0  0  0  0  0  0  0  0  0  0  0  0
  -19.3219  -24.9992   22.9000 C   0  0  0  0  0  0  0  0  0  0  0  0
  -26.2472  -25.8198   25.5436 C   0  0  0  0  0  0  0  0  0  0  0  0
  -33.4924  -25.9773   25.0929 C   0  0  0  0  0  0  0  0  0  0  0  0
  -33.1800  -27.0000   22.9265 C   0  0  0  0  0  0  0  0  0  0  0  0
  -33.7708  -25.8924   22.3184 C   0  0  0  0  0  0  0  0  0  0  0  0
  -30.0713  -15.7825   20.8526 C   0  0  0  0  0  0  0  0  0  0  0  0
  -27.6017  -25.3466   27.4890 C   0  0  0  0  0  0  0  0  0  0  0  0
  -29.6495  -13.5567   20.2282 C   0  0  0  0  0  0  0  0  0  0  0  0
  -28.0716  -11.7137   18.8511 C   0  0  0  0  0  0  0  0  0  0  0  0
  -30.2115  -12.7725   19.2208 C   0  0  0  0  0  0  0  0  0  0  0  0
  -34.2224  -24.8272   23.0975 C   0  0  0  0  0  0  0  0  0  0  0  0
  -28.9516  -19.8578   20.6621 C   0  0  0  0  0  0  0  0  0  0  0  0
  -27.9441  -21.7922   20.9418 C   0  0  0  0  0  0  0  0  0  0  0  0
  -30.9645  -25.6748   27.1263 C   0  0  0  0  0  0  0  0  0  0  0  0
  -26.9161  -19.9150   22.2333 C   0  0  0  0  0  0  0  0  0  0  0  0
  -22.8659  -25.9727   23.2813 C   0  0  0  0  0  0  0  0  0  0  0  0
  -24.7180  -28.4014   23.5667 C   0  0  0  0  0  0  0  0  0  0  0  0
  -26.1169  -31.5127   23.5603 C   0  0  0  0  0  0  0  0  0  0  0  0
  -32.4135  -25.2427   18.9495 C   0  0  0  0  0  0  0  0  0  0  0  0
  -17.9919  -27.0664   22.2303 C   0  0  0  0  0  0  0  0  0  0  0  0
  -23.8274  -25.2063   25.4388 C   0  0  0  0  0  0  0  0  0  0  0  0
  -26.0707  -26.3269   24.1384 C   0  0  0  0  0  0  0  0  0  0  0  0
  -19.3374  -27.7514   22.0056 C   0  0  0  0  0  0  0  0  0  0  0  0
  -31.5493  -22.9047   27.8823 C   0  0  0  0  0  0  0  0  0  0  0  0
  -29.3427  -24.5460   17.2878 C   0  0  0  0  0  0  0  0  0  0  0  0
  -20.3386  -26.7747   21.3968 C   0  0  0  0  0  0  0  0  0  0  0  0
  -30.3546  -23.6134   28.4854 C   0  0  0  0  0  0  0  0  0  0  0  0
  -28.7976  -23.3214   18.0248 C   0  0  0  0  0  0  0  0  0  0  0  0
  -32.6746  -23.8994   27.6605 C   0  0  0  0  0  0  0  0  0  0  0  0
  -30.8641  -24.4999   17.1651 C   0  0  0  0  0  0  0  0  0  0  0  0
  -31.0377  -23.0858   19.1761 C   0  0  0  0  0  0  0  0  0  0  0  0
  -20.5959  -25.5909   22.3369 C   0  0  1  0  0  0  0  0  0  0  0  0
  -29.8778  -24.6838   27.5236 C   0  0  1  0  0  0  0  0  0  1  0  0
  -23.5940  -26.4160   24.5161 C   0  0  1  0  0  0  0  0  0  0  0  0
  -29.5124  -23.1146   19.3737 C   0  0  2  0  0  0  0  0  0  0  0  0
  -32.6860  -28.1544   22.1169 C   0  0  0  0  0  0  0  0  0  0  0  0
  -26.6201  -33.4431   22.0378 C   0  0  0  0  0  0  0  0  0  0  0  0
  -27.0473  -26.8414   22.3648 C   0  0  0  0  0  0  0  0  0  0  0  0
  -28.0357  -29.0213   21.6303 C   0  0  0  0  0  0  0  0  0  0  0  0
  -25.8193  -28.2972   20.7439 C   0  0  0  0  0  0  0  0  0  0  0  0
  -24.4250  -33.3533   25.1442 C   0  0  0  0  0  0  0  0  0  0  0  0
  -33.3432  -26.0242   26.5861 C   0  0  0  0  0  0  0  0  0  0  0  0
  -33.9119  -25.8624   20.8283 C   0  0  0  0  0  0  0  0  0  0  0  0
  -26.0018  -29.0698   23.1443 C   0  0  1  0  0  0  0  0  0  0  0  0
  -25.6214  -32.8391   23.0128 C   0  0  2  0  0  0  0  0  0  0  0  0
  -26.7200  -28.3028   21.9982 C   0  0  0  0  0  0  0  0  0  0  0  0
  -29.6439  -20.7088   19.9002 N   0  0  0  0  0  0  0  0  0  0  0  0
  -29.0069  -21.8766   20.0912 N   0  0  0  0  0  0  0  0  0  0  0  0
  -32.2626  -25.1661   27.0533 N   0  0  0  0  0  0  0  0  0  0  0  0
  -24.8138  -27.0843   24.0319 N   0  0  0  0  0  0  0  0  0  0  0  0
  -31.4809  -24.3035   18.4792 N   0  0  0  0  0  0  0  0  0  0  0  0
  -27.1935  -22.8726   21.2446 N   0  0  0  0  0  0  0  0  0  0  0  0
  -25.7247  -19.4042   21.7003 N   0  0  0  0  0  0  0  0  0  0  0  0
  -21.4898  -25.9798   23.4065 N   0  0  0  0  0  0  0  0  0  0  0  0
  -25.6554  -30.4482   22.8153 N   0  0  0  0  0  0  0  0  0  0  0  0
  -32.9454  -24.9846   20.2069 N   0  0  0  0  0  0  0  0  0  0  0  0
  -25.4033  -33.8088   24.1232 N   0  3  0  0  0  0  0  0  0  0  0  0
  -30.6611  -26.8333   26.8296 O   0  0  0  0  0  0  0  0  0  0  0  0
  -27.0975  -19.8817   23.4740 O   0  0  0  0  0  0  0  0  0  0  0  0
  -23.5046  -25.6491   22.2867 O   0  0  0  0  0  0  0  0  0  0  0  0
  -23.6567  -29.0259   23.4822 O   0  0  0  0  0  0  0  0  0  0  0  0
  -26.8439  -31.4295   24.5478 O   0  0  0  0  0  0  0  0  0  0  0  0
  -32.7434  -26.2404   18.2993 O   0  0  0  0  0  0  0  0  0  0  0  0
  -30.4315  -14.4714   20.9133 O   0  0  0  0  0  0  0  0  0  0  0  0
  -28.8040  -25.3860   28.1276 O   0  0  0  0  0  0  0  0  0  1  0  0
  -27.3143  -10.8278   18.1910 F   0  0  0  0  0  0  0  0  0  0  0  0
  -31.5091  -12.8991   18.9109 F   0  0  0  0  0  0  0  0  0  0  0  0
  -34.9605  -23.4395   22.3829 Cl  0  0  0  0  0  0  0  0  0  0  0  0
  1  2  1  0  0  0  0
  1  5  2  0  0  0  0
  2  6  2  0  0  0  0
  3  8  2  0  0  0  0
  3 17  1  0  0  0  0
  4  9  1  0  0  0  0
  4 17  2  0  0  0  0
  5 19  1  0  0  0  0
  6 21  1  0  0  0  0
  7 10  2  0  0  0  0
  7 20  1  0  0  0  0
  8 26  1  0  0  0  0
  9 26  2  0  0  0  0
 10 27  1  0  0  0  0
 11 12  2  0  0  0  0
 11 28  1  0  0  0  0
 12 29  1  0  0  0  0
 13 22  1  0  0  0  0
 13 27  2  0  0  0  0
 14 23  1  0  0  0  0
 14 24  2  0  0  0  0
 15 23  2  0  0  0  0
 15 31  1  0  0  0  0
 16 29  2  0  0  0  0
 16 30  1  0  0  0  0
 17 32  1  0  0  0  0
 18 32  1  0  0  0  0
 18 33  2  0  0  0  0
 18 35  1  0  0  0  0
 19 21  2  0  0  0  0
 19 40  1  0  0  0  0
 20 22  2  0  0  0  0
 20 41  1  0  0  0  0
 21 52  1  0  0  0  0
 22 42  1  0  0  0  0
 23 62  1  0  0  0  0
 24 25  1  0  0  0  0
 24 56  1  0  0  0  0
 25 31  2  0  0  0  0
 25 63  1  0  0  0  0
 26 84  1  0  0  0  0
 27 85  1  0  0  0  0
 28 30  2  0  0  0  0
 28 84  1  0  0  0  0
 29 86  1  0  0  0  0
 30 87  1  0  0  0  0
 31 88  1  0  0  0  0
 32 67  2  0  0  0  0
 33 68  1  0  0  0  0
 33 72  1  0  0  0  0
 34 53  1  0  0  0  0
 34 69  1  0  0  0  0
 34 78  2  0  0  0  0
 35 73  1  0  0  0  0
 35 79  2  0  0  0  0
 36 54  1  0  0  0  0
 36 74  1  0  0  0  0
 36 80  2  0  0  0  0
 37 64  1  0  0  0  0
 37 70  1  0  0  0  0
 37 81  2  0  0  0  0
 38 65  1  0  0  0  0
 38 75  1  0  0  0  0
 38 82  2  0  0  0  0
 39 71  1  0  0  0  0
 39 76  1  0  0  0  0
 39 83  2  0  0  0  0
 40 43  1  0  0  0  0
 41 54  1  0  0  0  0
 42 70  1  0  0  0  0
 43 46  1  0  0  0  0
 44 47  1  0  0  0  0
 44 49  1  0  0  0  0
 45 48  1  0  0  0  0
 45 50  1  0  0  0  0
 46 52  1  0  0  0  0
 47 53  1  0  0  0  0
 48 55  1  0  0  0  0
 49 69  1  0  0  0  0
 50 71  1  0  0  0  0
 51 55  1  0  0  0  0
 51 71  1  0  0  0  0
 52 74  1  0  0  0  0
 53 85  1  0  0  0  0
 54 70  1  0  0  0  0
 55 68  1  0  0  0  0
 57 65  1  0  0  0  0
 58 66  1  0  0  0  0
 59 66  1  0  0  0  0
 60 66  1  0  0  0  0
 61 77  1  0  0  0  0
 62 69  1  0  0  0  0
 63 76  1  0  0  0  0
 64 66  1  0  0  0  0
 64 75  1  0  0  0  0
 65 77  1  0  0  0  0
 67 68  1  0  0  0  0
M  CHG  1  77   1
M  ISO  4  39 100  53 101  76 100  85 101
M  END
> <Batch ID>
0037

> <Smiles>
CNC(C)C(=O)NC(C(=O)N1Cc2cc([101O:1][101CH:1]3CCCN(Cc4cc(C)c(C[100NH:0][100C:0](=O)N5CCCC(n6nc(-c7ccc(Oc8ccc(F)cc8F)cc7)c(C(N)=O)c6N)C5)c(Cl)c4)C3=O)ccc2CC1C(=O)NC1CCCc2ccccc21)C(C)(C)C

> <Shape>
0.239

> <Color>
0.074

> <Negative vol penalty>
0.000

$$$$

  -OEChem-04042321573D

 94103  0     1  0  0  0  0  0999 V2000
  -23.1601  -27.5261   18.0128 C   0  0  0  0  0  0  0  0  0  0  0  0
  -23.9285  -26.4316   17.6328 C   0  0  0  0  0  0  0  0  0  0  0  0
  -22.5081  -23.7915   23.8173 C   0  0  0  0  0  0  0  0  0  0  0  0
  -21.8928  -22.3189   22.0035 C   0  0  0  0  0  0  0  0  0  0  0  0
  -23.6423  -28.4109   18.9750 C   0  0  0  0  0  0  0  0  0  0  0  0
  -25.1740  -26.2148   18.2233 C   0  0  0  0  0  0  0  0  0  0  0  0
  -28.4983  -20.1052   18.6540 C   0  0  0  0  0  0  0  0  0  0  0  0
  -22.0139  -24.8811   23.1004 C   0  0  0  0  0  0  0  0  0  0  0  0
  -21.3984  -23.4085   21.2866 C   0  0  0  0  0  0  0  0  0  0  0  0
  -29.2409  -18.9242   18.6459 C   0  0  0  0  0  0  0  0  0  0  0  0
  -18.9997  -26.2510   22.4141 C   0  0  0  0  0  0  0  0  0  0  0  0
  -18.2049  -27.1705   23.0985 C   0  0  0  0  0  0  0  0  0  0  0  0
  -31.0519  -20.0425   19.7938 C   0  0  0  0  0  0  0  0  0  0  0  0
  -25.4092  -13.4903   20.7880 C   0  0  0  0  0  0  0  0  0  0  0  0
  -19.7883  -28.9215   22.5845 C   0  0  0  0  0  0  0  0  0  0  0  0
  -22.4476  -22.5104   23.2689 C   0  0  0  0  0  0  0  0  0  0  0  0
  -22.5289  -20.9305   25.2701 C   0  0  0  0  0  0  0  0  0  0  0  0
  -24.8998  -28.2111   19.5681 C   0  0  0  0  0  0  0  0  0  0  0  0
  -29.0241  -21.2567   19.2465 C   0  0  0  0  0  0  0  0  0  0  0  0
  -25.6676  -27.0833   19.2136 C   0  0  0  0  0  0  0  0  0  0  0  0
  -30.3076  -21.2251   19.8160 C   0  0  0  0  0  0  0  0  0  0  0  0
  -24.9854  -12.3008   20.1955 C   0  0  0  0  0  0  0  0  0  0  0  0
  -23.6491  -12.1420   19.8282 C   0  0  0  0  0  0  0  0  0  0  0  0
  -22.7366  -13.1727   20.0536 C   0  0  0  0  0  0  0  0  0  0  0  0
  -24.4967  -14.5210   21.0134 C   0  0  0  0  0  0  0  0  0  0  0  0
  -21.4590  -24.6896   21.8351 C   0  0  0  0  0  0  0  0  0  0  0  0
  -30.5146  -18.8931   19.2142 C   0  0  0  0  0  0  0  0  0  0  0  0
  -20.1888  -26.6666   21.8150 C   0  0  0  0  0  0  0  0  0  0  0  0
  -18.5992  -28.5058   23.1836 C   0  0  0  0  0  0  0  0  0  0  0  0
  -20.5831  -28.0019   21.9002 C   0  0  0  0  0  0  0  0  0  0  0  0
  -23.1604  -14.3622   20.6462 C   0  0  0  0  0  0  0  0  0  0  0  0
  -22.9586  -21.3845   24.0087 C   0  0  0  0  0  0  0  0  0  0  0  0
  -23.3232  -19.8409   25.5317 C   0  0  0  0  0  0  0  0  0  0  0  0
  -27.7186  -12.2399   18.4716 C   0  0  0  0  0  0  0  0  0  0  0  0
  -26.8456  -12.5200   17.4808 C   0  0  0  0  0  0  0  0  0  0  0  0
  -21.5036  -21.4475   26.1286 C   0  0  0  0  0  0  0  0  0  0  0  0
  -28.5164  -24.8676   20.1292 C   0  0  0  0  0  0  0  0  0  0  0  0
  -29.9089  -23.5519   22.5251 C   0  0  0  0  0  0  0  0  0  0  0  0
  -30.4669  -21.6430   24.9639 C   0  0  0  0  0  0  0  0  0  0  0  0
  -26.2668  -15.9995   22.0268 C   0  0  0  0  0  0  0  0  0  0  0  0
  -25.3694  -29.1957   20.6099 C   0  0  0  0  0  0  0  0  0  0  0  0
  -28.2849  -22.5669   19.2237 C   0  0  0  0  0  0  0  0  0  0  0  0
  -30.8469  -22.4970   20.4114 C   0  0  0  0  0  0  0  0  0  0  0  0
  -26.8741  -29.1331   20.8515 C   0  0  0  0  0  0  0  0  0  0  0  0
  -30.4542  -11.0655   19.9825 C   0  0  0  0  0  0  0  0  0  0  0  0
  -29.2664  -10.6981   20.8622 C   0  0  0  0  0  0  0  0  0  0  0  0
  -27.6628  -18.0546   24.5773 C   0  0  0  0  0  0  0  0  0  0  0  0
  -27.3057  -27.6909   21.0711 C   0  0  0  0  0  0  0  0  0  0  0  0
  -30.1133  -11.2626   18.5079 C   0  0  0  0  0  0  0  0  0  0  0  0
  -26.5733  -19.0968   24.8400 C   0  0  0  0  0  0  0  0  0  0  0  0
  -28.1906  -11.7730   20.9171 C   0  0  0  0  0  0  0  0  0  0  0  0
  -27.7476  -17.6833   23.0979 C   0  0  0  0  0  0  0  0  0  0  0  0
  -25.3892  -18.3059   22.7521 C   0  0  0  0  0  0  0  0  0  0  0  0
  -27.0385  -26.8443   19.8201 C   0  0  1  0  0  0  0  0  0  0  0  0
  -29.1953  -12.4443   18.1552 C   0  0  2  0  0  0  0  0  0  0  0  0
  -28.5140  -23.4112   20.4901 C   0  0  1  0  0  0  0  0  0  0  0  0
  -25.2222  -18.6636   24.2380 C   0  0  2  0  0  0  0  0  0  0  0  0
  -23.1985  -10.8632   19.1952 C   0  0  0  0  0  0  0  0  0  0  0  0
  -21.3060  -12.9815   19.6537 C   0  0  0  0  0  0  0  0  0  0  0  0
  -31.0206  -20.4741   27.1143 C   0  0  0  0  0  0  0  0  0  0  0  0
  -32.5686  -24.7179   21.5922 C   0  0  0  0  0  0  0  0  0  0  0  0
  -33.5732  -23.9783   23.7629 C   0  0  0  0  0  0  0  0  0  0  0  0
  -31.7213  -25.6495   23.7529 C   0  0  0  0  0  0  0  0  0  0  0  0
  -27.8078  -22.2493   26.1130 C   0  0  0  0  0  0  0  0  0  0  0  0
  -25.9875  -11.2069   19.9648 C   0  0  0  0  0  0  0  0  0  0  0  0
  -31.0420  -14.1318   18.0708 C   0  0  0  0  0  0  0  0  0  0  0  0
  -30.6204  -16.5970   18.6024 C   0  0  0  0  0  0  0  0  0  1  0  0
  -31.2129  -23.2328   23.2116 C   0  0  1  0  0  0  0  0  0  0  0  0
  -30.1838  -21.5581   26.4529 C   0  0  2  0  0  0  0  0  0  0  0  0
  -31.5733  -15.4110   18.7117 C   0  0  1  0  0  0  0  0  0  0  0  0
  -32.2562  -24.3759   23.0627 C   0  0  0  0  0  0  0  0  0  0  0  0
  -23.9490  -20.6439   23.5041 N   0  0  0  0  0  0  0  0  0  0  0  0
  -24.1483  -19.7136   24.4532 N   0  0  0  0  0  0  0  0  0  0  0  0
  -27.3351  -11.7377   19.7272 N   0  0  3  0  0  0  0  0  0  0  0  0
  -29.7936  -23.1775   21.1808 N   0  0  0  0  0  0  0  0  0  0  0  0
  -26.4318  -17.2793   22.5976 N   0  0  0  0  0  0  0  0  0  0  0  0
  -23.3893  -18.9888   26.5767 N   0  0  0  0  0  0  0  0  0  0  0  0
  -20.7833  -22.5731   25.7063 N   0  0  0  0  0  0  0  0  0  0  0  0
  -24.9649  -15.7148   21.6163 N   0  0  0  0  0  0  0  0  0  0  0  0
  -27.2638  -25.4510   20.1361 N   0  0  0  0  0  0  0  0  0  0  0  0
  -30.8775  -22.9061   24.5933 N   0  0  0  0  0  0  0  0  0  0  0  0
  -29.7593  -13.7194   18.6931 N   0  3  0  0  0  0  0  0  0  0  0  0
  -28.7448  -21.2512   26.6898 N   0  3  0  0  0  0  0  0  0  0  0  0
  -21.2451  -20.9365   27.2447 O   0  0  0  0  0  0  0  0  0  0  0  0
  -29.5764  -25.4229   19.8652 O   0  0  0  0  0  0  0  0  0  0  0  0
  -29.0172  -24.1227   23.1594 O   0  0  0  0  0  0  0  0  0  0  0  0
  -30.3403  -20.6838   24.2060 O   0  0  0  0  0  0  0  0  0  0  0  0
  -27.2051  -15.2038   21.9356 O   0  0  0  0  0  0  0  0  0  0  0  0
  -31.8447  -15.1752   20.0942 O   0  0  0  0  0  0  0  0  0  0  0  0
  -20.9764  -25.7526   21.1353 O   0  0  0  0  0  0  0  0  0  0  0  0
  -31.2323  -17.7357   19.2069 O   0  0  0  0  0  0  0  0  0  1  0  0
  -17.8351  -29.3890   23.8395 F   0  0  0  0  0  0  0  0  0  0  0  0
  -21.7238  -28.4074   21.3256 F   0  0  0  0  0  0  0  0  0  0  0  0
  -22.0248  -15.6432   20.9245 Cl  0  0  0  0  0  0  0  0  0  0  0  0
  1  2  1  0  0  0  0
  1  5  2  0  0  0  0
  2  6  2  0  0  0  0
  3  8  2  0  0  0  0
  3 16  1  0  0  0  0
  4  9  1  0  0  0  0
  4 16  2  0  0  0  0
  5 18  1  0  0  0  0
  6 20  1  0  0  0  0
  7 10  2  0  0  0  0
  7 19  1  0  0  0  0
  8 26  1  0  0  0  0
  9 26  2  0  0  0  0
 10 27  1  0  0  0  0
 11 12  2  0  0  0  0
 11 28  1  0  0  0  0
 12 29  1  0  0  0  0
 13 21  1  0  0  0  0
 13 27  2  0  0  0  0
 14 22  1  0  0  0  0
 14 25  2  0  0  0  0
 15 29  2  0  0  0  0
 15 30  1  0  0  0  0
 16 32  1  0  0  0  0
 17 32  1  0  0  0  0
 17 33  2  0  0  0  0
 17 36  1  0  0  0  0
 18 20  2  0  0  0  0
 18 41  1  0  0  0  0
 19 21  2  0  0  0  0
 19 42  1  0  0  0  0
 20 54  1  0  0  0  0
 21 43  1  0  0  0  0
 22 23  2  0  0  0  0
 22 65  1  0  0  0  0
 23 24  1  0  0  0  0
 23 58  1  0  0  0  0
 24 31  2  0  0  0  0
 24 59  1  0  0  0  0
 25 31  1  0  0  0  0
 25 79  1  0  0  0  0
 26 90  1  0  0  0  0
 27 91  1  0  0  0  0
 28 30  2  0  0  0  0
 28 90  1  0  0  0  0
 29 92  1  0  0  0  0
 30 93  1  0  0  0  0
 31 94  1  0  0  0  0
 32 72  2  0  0  0  0
 33 73  1  0  0  0  0
 33 77  1  0  0  0  0
 34 35  2  0  0  0  0
 34 55  1  0  0  0  0
 34 74  1  0  0  0  0
 36 78  1  0  0  0  0
 36 84  2  0  0  0  0
 37 56  1  0  0  0  0
 37 80  1  0  0  0  0
 37 85  2  0  0  0  0
 38 68  1  0  0  0  0
 38 75  1  0  0  0  0
 38 86  2  0  0  0  0
 39 69  1  0  0  0  0
 39 81  1  0  0  0  0
 39 87  2  0  0  0  0
 40 76  1  0  0  0  0
 40 79  1  0  0  0  0
 40 88  2  0  0  0  0
 41 44  1  0  0  0  0
 42 56  1  0  0  0  0
 43 75  1  0  0  0  0
 44 48  1  0  0  0  0
 45 46  1  0  0  0  0
 45 49  1  0  0  0  0
 46 51  1  0  0  0  0
 47 50  1  0  0  0  0
 47 52  1  0  0  0  0
 48 54  1  0  0  0  0
 49 55  1  0  0  0  0
 50 57  1  0  0  0  0
 51 74  1  0  0  0  0
 52 76  1  0  0  0  0
 53 57  1  0  0  0  0
 53 76  1  0  0  0  0
 54 80  1  0  0  0  0
 55 82  1  0  0  0  0
 56 75  1  0  0  0  0
 57 73  1  0  0  0  0
 60 69  1  0  0  0  0
 61 71  1  0  0  0  0
 62 71  1  0  0  0  0
 63 71  1  0  0  0  0
 64 83  1  0  0  0  0
 65 74  1  0  0  0  0
 66 70  1  0  0  0  0
 66 82  1  0  0  0  0
 67 70  1  0  0  0  0
 67 91  1  0  0  0  0
 68 71  1  0  0  0  0
 68 81  1  0  0  0  0
 69 83  1  0  0  0  0
 70 89  1  0  0  0  0
 72 73  1  0  0  0  0
M  CHG  2  82   1  83   1
M  ISO  4  40 100  67 101  79 100  91 101
M  END
> <Batch ID>
0037

> <Smiles>
C=C1C(NCC(O)[101CH2:1][101O:1]c2ccc3c(c2)CN(C(=O)C(NC(=O)C(C)NC)C(C)(C)C)C(C(=O)NC2CCCc4ccccc42)C3)CCCCN1Cc1cc([100NH:0][100C:0](=O)N2CCCC(n3nc(-c4ccc(Oc5ccc(F)cc5F)cc4)c(C(N)=O)c3N)C2)c(Cl)c(C)c1C

> <Shape>
0.235

> <Color>
0.067

> <Negative vol penalty>
0.000

$$$$

  -OEChem-04042321573D

 88 97  0     1  0  0  0  0  0999 V2000
  -23.8347  -37.4555   24.5021 C   0  0  0  0  0  0  0  0  0  0  0  0
  -22.9930  -36.5980   23.8027 C   0  0  0  0  0  0  0  0  0  0  0  0
  -23.1455  -10.3059   20.4463 C   0  0  0  0  0  0  0  0  0  0  0  0
  -24.7518   -8.8120   21.4587 C   0  0  0  0  0  0  0  0  0  0  0  0
  -25.2157  -37.2909   24.4198 C   0  0  0  0  0  0  0  0  0  0  0  0
  -23.5317  -35.5683   23.0304 C   0  0  0  0  0  0  0  0  0  0  0  0
  -25.1715  -28.4991   18.9391 C   0  0  0  0  0  0  0  0  0  0  0  0
  -22.1510   -9.3397   20.5984 C   0  0  0  0  0  0  0  0  0  0  0  0
  -23.7574   -7.8458   21.6109 C   0  0  0  0  0  0  0  0  0  0  0  0
  -26.3218  -27.7482   18.7006 C   0  0  0  0  0  0  0  0  0  0  0  0
  -21.1869   -7.2295   23.7164 C   0  0  0  0  0  0  0  0  0  0  0  0
  -21.1117   -6.5664   24.9412 C   0  0  0  0  0  0  0  0  0  0  0  0
  -27.0560  -28.1665   20.9600 C   0  0  0  0  0  0  0  0  0  0  0  0
  -27.7827  -20.2830   20.2757 C   0  0  0  0  0  0  0  0  0  0  0  0
  -28.5543  -19.3963   22.8057 C   0  0  0  0  0  0  0  0  0  0  0  0
  -21.4860   -4.4579   23.8226 C   0  0  0  0  0  0  0  0  0  0  0  0
  -24.4459  -10.0420   20.8764 C   0  0  0  0  0  0  0  0  0  0  0  0
  -25.9237  -11.6139   19.5151 C   0  0  0  0  0  0  0  0  0  0  0  0
  -25.7711  -36.2662   23.6359 C   0  0  0  0  0  0  0  0  0  0  0  0
  -24.9598  -29.0994   20.1886 C   0  0  0  0  0  0  0  0  0  0  0  0
  -24.9223  -35.3710   22.9537 C   0  0  0  0  0  0  0  0  0  0  0  0
  -25.9011  -28.9224   21.2126 C   0  0  0  0  0  0  0  0  0  0  0  0
  -28.0476  -21.2060   21.2873 C   0  0  0  0  0  0  0  0  0  0  0  0
  -27.9035  -18.9166   20.5290 C   0  0  0  0  0  0  0  0  0  0  0  0
  -28.4334  -20.7626   22.5523 C   0  0  0  0  0  0  0  0  0  0  0  0
  -28.2893  -18.4733   21.7940 C   0  0  0  0  0  0  0  0  0  0  0  0
  -22.4569   -8.1097   21.1807 C   0  0  0  0  0  0  0  0  0  0  0  0
  -27.2656  -27.5843   19.7102 C   0  0  0  0  0  0  0  0  0  0  0  0
  -21.4116   -6.5068   22.5447 C   0  0  0  0  0  0  0  0  0  0  0  0
  -21.2613   -5.1806   24.9943 C   0  0  0  0  0  0  0  0  0  0  0  0
  -21.5612   -5.1210   22.5978 C   0  0  0  0  0  0  0  0  0  0  0  0
  -25.4737  -11.0395   20.7190 C   0  0  0  0  0  0  0  0  0  0  0  0
  -26.9015  -12.4979   19.9009 C   0  0  0  0  0  0  0  0  0  0  0  0
  -28.6488  -24.4330   19.4929 C   0  0  0  0  0  0  0  0  0  0  0  0
  -28.3769  -24.3425   18.1806 C   0  0  0  0  0  0  0  0  0  0  0  0
  -25.4960  -11.3701   18.1685 C   0  0  0  0  0  0  0  0  0  0  0  0
  -24.6406  -32.0909   21.2147 C   0  0  0  0  0  0  0  0  0  0  0  0
  -23.9794  -30.6390   24.0391 C   0  0  0  0  0  0  0  0  0  0  0  0
  -25.2613  -27.8444   25.9270 C   0  0  0  0  0  0  0  0  0  0  0  0
  -28.7918  -16.5008   23.2782 C   0  0  0  0  0  0  0  0  0  0  0  0
  -27.2725  -36.1286   23.5887 C   0  0  0  0  0  0  0  0  0  0  0  0
  -23.7010  -29.8840   20.4383 C   0  0  0  0  0  0  0  0  0  0  0  0
  -25.7111  -29.5293   22.5779 C   0  0  0  0  0  0  0  0  0  0  0  0
  -27.7564  -35.2986   22.4042 C   0  0  0  0  0  0  0  0  0  0  0  0
  -29.1883  -13.1356   24.3714 C   0  0  0  0  0  0  0  0  0  0  0  0
  -30.2747  -24.6274   21.8463 C   0  0  0  0  0  0  0  0  0  0  0  0
  -26.9763  -33.9946   22.3300 C   0  0  0  0  0  0  0  0  0  0  0  0
  -29.9002  -25.8920   21.0816 C   0  0  0  0  0  0  0  0  0  0  0  0
  -28.2942  -12.3375   23.4196 C   0  0  0  0  0  0  0  0  0  0  0  0
  -28.5758  -14.4903   24.7226 C   0  0  0  0  0  0  0  0  0  0  0  0
  -27.2948  -14.5161   22.6185 C   0  0  0  0  0  0  0  0  0  0  0  0
  -30.3331  -23.4148   20.9230 C   0  0  0  0  0  0  0  0  0  0  0  0
  -25.4863  -34.2629   22.0829 C   0  0  1  0  0  0  0  0  0  0  0  0
  -28.5985  -25.7091   20.3027 C   0  0  1  0  0  0  0  0  0  1  0  0
  -23.8349  -30.8786   21.5873 C   0  0  1  0  0  0  0  0  0  0  0  0
  -27.9002  -13.1711   22.1846 C   0  0  2  0  0  0  0  0  0  0  0  0
  -27.6135  -17.9505   19.4265 C   0  0  0  0  0  0  0  0  0  0  0  0
  -28.7220  -21.7323   23.6510 C   0  0  0  0  0  0  0  0  0  0  0  0
  -28.4344  -23.0714   17.4078 C   0  0  0  0  0  0  0  0  0  0  0  0
  -24.1349  -26.3519   27.6005 C   0  0  0  0  0  0  0  0  0  0  0  0
  -25.1086  -32.5840   26.1010 C   0  0  0  0  0  0  0  0  0  0  0  0
  -25.5575  -30.6278   27.5977 C   0  0  0  0  0  0  0  0  0  0  0  0
  -23.2173  -31.1709   26.9260 C   0  0  0  0  0  0  0  0  0  0  0  0
  -25.9920  -25.4060   24.4174 C   0  0  0  0  0  0  0  0  0  0  0  0
  -27.9106  -22.6705   20.9915 C   0  0  0  0  0  0  0  0  0  0  0  0
  -24.7972  -30.1769   25.2208 C   0  0  1  0  0  0  0  0  0  0  0  0
  -24.5752  -26.5094   26.1534 C   0  0  2  0  0  0  0  0  0  0  0  0
  -24.6811  -31.1409   26.4352 C   0  0  0  0  0  0  0  0  0  0  0  0
  -26.1133  -11.5183   21.7894 N   0  0  0  0  0  0  0  0  0  0  0  0
  -26.9751  -12.4028   21.2594 N   0  0  0  0  0  0  0  0  0  0  0  0
  -24.4673  -30.2929   22.7710 N   0  0  0  0  0  0  0  0  0  0  0  0
  -28.2318  -15.2255   23.5036 N   0  0  0  0  0  0  0  0  0  0  0  0
  -27.6969  -13.3396   19.2071 N   0  0  0  0  0  0  0  0  0  0  0  0
  -26.1429  -10.3676   17.4331 N   0  0  0  0  0  0  0  0  0  0  0  0
  -28.4178  -17.0896   22.0708 N   0  0  0  0  0  0  0  0  0  0  0  0
  -24.7534  -33.0244   22.2272 N   0  0  0  0  0  0  0  0  0  0  0  0
  -24.3733  -28.8093   25.5009 N   0  0  0  0  0  0  0  0  0  0  0  0
  -29.0426  -23.2127   20.1630 N   0  3  1  0  0  0  0  0  0  0  0  0
  -25.4990  -25.3889   25.8187 N   0  3  0  0  0  0  0  0  0  0  0  0
  -24.5787  -12.0331   17.6277 O   0  0  0  0  0  0  0  0  0  0  0  0
  -25.1253  -32.1726   20.0921 O   0  0  0  0  0  0  0  0  0  0  0  0
  -22.9419  -31.2772   24.2341 O   0  0  0  0  0  0  0  0  0  0  0  0
  -26.4641  -28.0153   26.1133 O   0  0  0  0  0  0  0  0  0  0  0  0
  -29.5691  -17.0198   24.0835 O   0  0  0  0  0  0  0  0  0  0  0  0
  -21.4867   -7.1667   21.3295 O   0  0  0  0  0  0  0  0  0  0  0  0
  -28.3896  -26.8524   19.4798 O   0  0  0  0  0  0  0  0  0  1  0  0
  -21.1906   -4.5441   26.1708 F   0  0  0  0  0  0  0  0  0  0  0  0
  -21.7784   -4.4215   21.4756 F   0  0  0  0  0  0  0  0  0  0  0  0
  1  2  1  0  0  0  0
  1  5  2  0  0  0  0
  2  6  2  0  0  0  0
  3  8  2  0  0  0  0
  3 17  1  0  0  0  0
  4  9  1  0  0  0  0
  4 17  2  0  0  0  0
  5 19  1  0  0  0  0
  6 21  1  0  0  0  0
  7 10  2  0  0  0  0
  7 20  1  0  0  0  0
  8 27  1  0  0  0  0
  9 27  2  0  0  0  0
 10 28  1  0  0  0  0
 11 12  2  0  0  0  0
 11 29  1  0  0  0  0
 12 30  1  0  0  0  0
 13 22  1  0  0  0  0
 13 28  2  0  0  0  0
 14 23  1  0  0  0  0
 14 24  2  0  0  0  0
 15 25  1  0  0  0  0
 15 26  2  0  0  0  0
 16 30  2  0  0  0  0
 16 31  1  0  0  0  0
 17 32  1  0  0  0  0
 18 32  1  0  0  0  0
 18 33  2  0  0  0  0
 18 36  1  0  0  0  0
 19 21  2  0  0  0  0
 19 41  1  0  0  0  0
 20 22  2  0  0  0  0
 20 42  1  0  0  0  0
 21 53  1  0  0  0  0
 22 43  1  0  0  0  0
 23 25  2  0  0  0  0
 23 65  1  0  0  0  0
 24 26  1  0  0  0  0
 24 57  1  0  0  0  0
 25 58  1  0  0  0  0
 26 75  1  0  0  0  0
 27 85  1  0  0  0  0
 28 86  1  0  0  0  0
 29 31  2  0  0  0  0
 29 85  1  0  0  0  0
 30 87  1  0  0  0  0
 31 88  1  0  0  0  0
 32 69  2  0  0  0  0
 33 70  1  0  0  0  0
 33 73  1  0  0  0  0
 34 35  2  0  0  0  0
 34 54  1  0  0  0  0
 34 78  1  0  0  0  0
 35 59  1  0  0  0  0
 36 74  1  0  0  0  0
 36 80  2  0  0  0  0
 37 55  1  0  0  0  0
 37 76  1  0  0  0  0
 37 81  2  0  0  0  0
 38 66  1  0  0  0  0
 38 71  1  0  0  0  0
 38 82  2  0  0  0  0
 39 67  1  0  0  0  0
 39 77  1  0  0  0  0
 39 83  2  0  0  0  0
 40 72  1  0  0  0  0
 40 75  1  0  0  0  0
 40 84  2  0  0  0  0
 41 44  1  0  0  0  0
 42 55  1  0  0  0  0
 43 71  1  0  0  0  0
 44 47  1  0  0  0  0
 45 49  1  0  0  0  0
 45 50  1  0  0  0  0
 46 48  1  0  0  0  0
 46 52  1  0  0  0  0
 47 53  1  0  0  0  0
 48 54  1  0  0  0  0
 49 56  1  0  0  0  0
 50 72  1  0  0  0  0
 51 56  1  0  0  0  0
 51 72  1  0  0  0  0
 52 78  1  0  0  0  0
 53 76  1  0  0  0  0
 54 86  1  0  0  0  0
 55 71  1  0  0  0  0
 56 70  1  0  0  0  0
 60 67  1  0  0  0  0
 61 68  1  0  0  0  0
 62 68  1  0  0  0  0
 63 68  1  0  0  0  0
 64 79  1  0  0  0  0
 65 78  1  0  0  0  0
 66 68  1  0  0  0  0
 66 77  1  0  0  0  0
 67 79  1  0  0  0  0
 69 70  1  0  0  0  0
M  CHG  2  78   1  79   1
M  ISO  4  40 100  54 101  75 100  86 101
M  END
> <Batch ID>
0037

> <Smiles>
CC=C1N(Cc2cc(C)c([100NH:0][100C:0](=O)N3CCCC(n4nc(-c5ccc(Oc6ccc(F)cc6F)cc5)c(C(N)=O)c4N)C3)cc2C)CCC[101CH:1]1[101O:1]c1ccc2c(c1)CN(C(=O)C(NC(=O)C(C)NC)C(C)(C)C)C(C(=O)NC1CCCc3ccccc31)C2

> <Shape>
0.324

> <Color>
0.104

> <Negative vol penalty>
0.000

$$$$

  -OEChem-04042321573D

 86 95  0     1  0  0  0  0  0999 V2000
  -20.0510  -31.7738   18.4964 C   0  0  0  0  0  0  0  0  0  0  0  0
  -20.0016  -31.4175   19.8402 C   0  0  0  0  0  0  0  0  0  0  0  0
  -22.6274  -10.2836   20.2367 C   0  0  0  0  0  0  0  0  0  0  0  0
  -24.2517   -9.5342   21.8605 C   0  0  0  0  0  0  0  0  0  0  0  0
  -20.0307  -30.7855   17.5131 C   0  0  0  0  0  0  0  0  0  0  0  0
  -19.9307  -30.0726   20.2016 C   0  0  0  0  0  0  0  0  0  0  0  0
  -24.6068  -25.8918   24.8581 C   0  0  0  0  0  0  0  0  0  0  0  0
  -21.8722   -9.1326   20.4608 C   0  0  0  0  0  0  0  0  0  0  0  0
  -23.4964   -8.3831   22.0848 C   0  0  0  0  0  0  0  0  0  0  0  0
  -25.4507  -25.0109   25.5347 C   0  0  0  0  0  0  0  0  0  0  0  0
  -22.9784   -5.4080   20.5646 C   0  0  0  0  0  0  0  0  0  0  0  0
  -23.6554   -4.1898   20.6228 C   0  0  0  0  0  0  0  0  0  0  0  0
  -24.6589  -23.1826   24.1642 C   0  0  0  0  0  0  0  0  0  0  0  0
  -28.6845  -19.6122   23.1904 C   0  0  0  0  0  0  0  0  0  0  0  0
  -29.0596  -18.0880   25.0270 C   0  0  0  0  0  0  0  0  0  0  0  0
  -22.8594   -3.8553   22.8793 C   0  0  0  0  0  0  0  0  0  0  0  0
  -23.8172  -10.4844   20.9365 C   0  0  0  0  0  0  0  0  0  0  0  0
  -24.1913  -13.0075   20.8933 C   0  0  0  0  0  0  0  0  0  0  0  0
  -19.9693  -29.4274   17.8629 C   0  0  0  0  0  0  0  0  0  0  0  0
  -23.7960  -25.4238   23.8203 C   0  0  0  0  0  0  0  0  0  0  0  0
  -19.9082  -29.0652   19.2221 C   0  0  0  0  0  0  0  0  0  0  0  0
  -23.8207  -24.0627   23.4745 C   0  0  0  0  0  0  0  0  0  0  0  0
  -29.4746  -18.8121   22.3650 C   0  0  0  0  0  0  0  0  0  0  0  0
  -30.0572  -17.6499   22.8707 C   0  0  0  0  0  0  0  0  0  0  0  0
  -28.4770  -19.2502   24.5214 C   0  0  0  0  0  0  0  0  0  0  0  0
  -22.3067   -8.1823   21.3849 C   0  0  0  0  0  0  0  0  0  0  0  0
  -25.4765  -23.6596   25.1888 C   0  0  0  0  0  0  0  0  0  0  0  0
  -22.2420   -5.8499   21.6637 C   0  0  0  0  0  0  0  0  0  0  0  0
  -23.5959   -3.4135   21.7801 C   0  0  0  0  0  0  0  0  0  0  0  0
  -22.1825   -5.0735   22.8210 C   0  0  0  0  0  0  0  0  0  0  0  0
  -29.8497  -17.2878   24.2017 C   0  0  0  0  0  0  0  0  0  0  0  0
  -24.5981  -11.6730   20.7049 C   0  0  0  0  0  0  0  0  0  0  0  0
  -25.2875  -13.7542   20.5365 C   0  0  0  0  0  0  0  0  0  0  0  0
  -27.7768  -20.2437   26.7295 C   0  0  0  0  0  0  0  0  0  0  0  0
  -28.8163  -20.0740   27.5592 C   0  0  0  0  0  0  0  0  0  0  0  0
  -22.9350  -13.5258   21.3501 C   0  0  0  0  0  0  0  0  0  0  0  0
  -21.2485  -26.2393   21.1895 C   0  0  0  0  0  0  0  0  0  0  0  0
  -23.2164  -24.2470   19.9371 C   0  0  0  0  0  0  0  0  0  0  0  0
  -25.8343  -22.3762   18.8039 C   0  0  0  0  0  0  0  0  0  0  0  0
  -30.7870  -14.6948   20.6661 C   0  0  0  0  0  0  0  0  0  0  0  0
  -19.9019  -28.3970   16.7636 C   0  0  0  0  0  0  0  0  0  0  0  0
  -22.8263  -26.3250   23.1051 C   0  0  0  0  0  0  0  0  0  0  0  0
  -22.9057  -23.5974   22.3747 C   0  0  0  0  0  0  0  0  0  0  0  0
  -26.4708  -20.8220   27.2293 C   0  0  0  0  0  0  0  0  0  0  0  0
  -20.2039  -26.9783   17.2392 C   0  0  0  0  0  0  0  0  0  0  0  0
  -29.5782  -12.4051   18.2221 C   0  0  0  0  0  0  0  0  0  0  0  0
  -19.4376  -26.6707   18.5218 C   0  0  0  0  0  0  0  0  0  0  0  0
  -28.1442  -12.1161   18.6692 C   0  0  0  0  0  0  0  0  0  0  0  0
  -30.5178  -12.5743   19.4140 C   0  0  0  0  0  0  0  0  0  0  0  0
  -28.6490  -13.2842   20.8555 C   0  0  0  0  0  0  0  0  0  0  0  0
  -26.4363  -20.6205   24.8042 C   0  0  0  0  0  0  0  0  0  0  0  0
  -19.8559  -27.6160   19.6545 C   0  0  1  0  0  0  0  0  0  0  0  0
  -22.6626  -25.9741   21.6154 C   0  0  1  0  0  0  0  0  0  0  0  0
  -27.6535  -13.1612   19.6892 C   0  0  2  0  0  0  0  0  0  0  0  0
  -25.8814  -21.4507   25.9674 C   0  0  2  0  0  0  0  0  0  1  0  0
  -29.6800  -19.2236   20.9437 C   0  0  0  0  0  0  0  0  0  0  0  0
  -26.6722  -21.1999   16.7517 C   0  0  0  0  0  0  0  0  0  0  0  0
  -21.2090  -21.9997   20.4102 C   0  0  0  0  0  0  0  0  0  0  0  0
  -22.6612  -20.5060   19.0216 C   0  0  0  0  0  0  0  0  0  0  0  0
  -21.6278  -22.5353   18.0035 C   0  0  0  0  0  0  0  0  0  0  0  0
  -28.2671  -24.0580   18.6918 C   0  0  0  0  0  0  0  0  0  0  0  0
  -30.9022  -16.8025   21.9713 C   0  0  0  0  0  0  0  0  0  0  0  0
  -23.5376  -22.8044   19.6383 C   0  0  1  0  0  0  0  0  0  0  0  0
  -26.6887  -22.4914   17.5544 C   0  0  2  0  0  0  0  0  0  0  0  0
  -22.2694  -21.9745   19.2914 C   0  0  0  0  0  0  0  0  0  0  0  0
  -25.8546  -11.5745   20.2626 N   0  0  0  0  0  0  0  0  0  0  0  0
  -26.2467  -12.8565   20.1700 N   0  0  0  0  0  0  0  0  0  0  0  0
  -27.6788  -20.0587   25.3551 N   0  0  0  0  0  0  0  0  0  0  0  0
  -22.9182  -24.5661   21.2674 N   0  0  0  0  0  0  0  0  0  0  0  0
  -29.9958  -13.5803   20.3423 N   0  0  0  0  0  0  0  0  0  0  0  0
  -25.5148  -15.0845   20.5035 N   0  0  0  0  0  0  0  0  0  0  0  0
  -22.7556  -13.7270   22.7255 N   0  0  0  0  0  0  0  0  0  0  0  0
  -21.1279  -27.2069   20.2103 N   0  0  0  0  0  0  0  0  0  0  0  0
  -24.5475  -22.8207   18.5855 N   0  0  0  0  0  0  0  0  0  0  0  0
  -30.2143  -15.6032   21.5480 N   0  0  0  0  0  0  0  0  0  0  0  0
  -28.1004  -22.8003   17.9188 N   0  3  0  0  0  0  0  0  0  0  0  0
  -21.9934  -13.7868   20.5635 O   0  0  0  0  0  0  0  0  0  0  0  0
  -20.3332  -25.6117   21.7091 O   0  0  0  0  0  0  0  0  0  0  0  0
  -23.2234  -25.0695   19.0170 O   0  0  0  0  0  0  0  0  0  0  0  0
  -26.2644  -21.9326   19.8663 O   0  0  0  0  0  0  0  0  0  0  0  0
  -31.9176  -14.8702   20.1995 O   0  0  0  0  0  0  0  0  0  0  0  0
  -21.5698   -7.0591   21.6041 O   0  0  0  0  0  0  0  0  0  0  0  0
  -26.3061  -22.8060   25.8505 O   0  0  0  0  0  0  0  0  0  1  0  0
  -24.2447   -2.2430   21.8353 F   0  0  0  0  0  0  0  0  0  0  0  0
  -21.4756   -5.4923   23.8798 F   0  0  0  0  0  0  0  0  0  0  0  0
  -30.5529  -15.8574   24.8655 Cl  0  0  0  0  0  0  0  0  0  0  0  0
  1  2  1  0  0  0  0
  1  5  2  0  0  0  0
  2  6  2  0  0  0  0
  3  8  2  0  0  0  0
  3 17  1  0  0  0  0
  4  9  1  0  0  0  0
  4 17  2  0  0  0  0
  5 19  1  0  0  0  0
  6 21  1  0  0  0  0
  7 10  2  0  0  0  0
  7 20  1  0  0  0  0
  8 26  1  0  0  0  0
  9 26  2  0  0  0  0
 10 27  1  0  0  0  0
 11 12  2  0  0  0  0
 11 28  1  0  0  0  0
 12 29  1  0  0  0  0
 13 22  1  0  0  0  0
 13 27  2  0  0  0  0
 14 23  2  0  0  0  0
 14 25  1  0  0  0  0
 15 25  2  0  0  0  0
 15 31  1  0  0  0  0
 16 29  2  0  0  0  0
 16 30  1  0  0  0  0
 17 32  1  0  0  0  0
 18 32  1  0  0  0  0
 18 33  2  0  0  0  0
 18 36  1  0  0  0  0
 19 21  2  0  0  0  0
 19 41  1  0  0  0  0
 20 22  2  0  0  0  0
 20 42  1  0  0  0  0
 21 52  1  0  0  0  0
 22 43  1  0  0  0  0
 23 24  1  0  0  0  0
 23 56  1  0  0  0  0
 24 31  2  0  0  0  0
 24 62  1  0  0  0  0
 25 68  1  0  0  0  0
 26 82  1  0  0  0  0
 27 83  1  0  0  0  0
 28 30  2  0  0  0  0
 28 82  1  0  0  0  0
 29 84  1  0  0  0  0
 30 85  1  0  0  0  0
 31 86  1  0  0  0  0
 32 66  2  0  0  0  0
 33 67  1  0  0  0  0
 33 71  1  0  0  0  0
 34 35  2  0  0  0  0
 34 44  1  0  0  0  0
 34 68  1  0  0  0  0
 36 72  1  0  0  0  0
 36 77  2  0  0  0  0
 37 53  1  0  0  0  0
 37 73  1  0  0  0  0
 37 78  2  0  0  0  0
 38 63  1  0  0  0  0
 38 69  1  0  0  0  0
 38 79  2  0  0  0  0
 39 64  1  0  0  0  0
 39 74  1  0  0  0  0
 39 80  2  0  0  0  0
 40 70  1  0  0  0  0
 40 75  1  0  0  0  0
 40 81  2  0  0  0  0
 41 45  1  0  0  0  0
 42 53  1  0  0  0  0
 43 69  1  0  0  0  0
 44 55  1  0  0  0  0
 45 47  1  0  0  0  0
 46 48  1  0  0  0  0
 46 49  1  0  0  0  0
 47 52  1  0  0  0  0
 48 54  1  0  0  0  0
 49 70  1  0  0  0  0
 50 54  1  0  0  0  0
 50 70  1  0  0  0  0
 51 55  1  0  0  0  0
 51 68  1  0  0  0  0
 52 73  1  0  0  0  0
 53 69  1  0  0  0  0
 54 67  1  0  0  0  0
 55 83  1  0  0  0  0
 57 64  1  0  0  0  0
 58 65  1  0  0  0  0
 59 65  1  0  0  0  0
 60 65  1  0  0  0  0
 61 76  1  0  0  0  0
 62 75  1  0  0  0  0
 63 65  1  0  0  0  0
 63 74  1  0  0  0  0
 64 76  1  0  0  0  0
 66 67  1  0  0  0  0
M  CHG  1  76   1
M  ISO  4  40 100  55 101  75 100  83 101
M  END
> <Batch ID>
0037

> <Smiles>
C=C1C[101CH:1]([101O:1]c2ccc3c(c2)CN(C(=O)C(NC(=O)C(C)NC)C(C)(C)C)C(C(=O)NC2CCCc4ccccc42)C3)CN1c1cc(C)c(C[100NH:0][100C:0](=O)N2CCCC(n3nc(-c4ccc(Oc5ccc(F)cc5F)cc4)c(C(N)=O)c3N)C2)c(Cl)c1

> <Shape>
0.201

> <Color>
0.177

> <Negative vol penalty>
0.000

$$$$

  -OEChem-04042321573D

 87 96  0     1  0  0  0  0  0999 V2000
  -25.1035  -36.5088   23.2923 C   0  0  0  0  0  0  0  0  0  0  0  0
  -26.2356  -35.7825   22.9370 C   0  0  0  0  0  0  0  0  0  0  0  0
  -22.8631   -9.6026   19.9485 C   0  0  0  0  0  0  0  0  0  0  0  0
  -24.5765   -8.7678   21.4332 C   0  0  0  0  0  0  0  0  0  0  0  0
  -23.9494  -35.8423   23.7021 C   0  0  0  0  0  0  0  0  0  0  0  0
  -26.2147  -34.3894   22.9923 C   0  0  0  0  0  0  0  0  0  0  0  0
  -28.9223  -28.6303   19.7032 C   0  0  0  0  0  0  0  0  0  0  0  0
  -21.8804   -9.0736   20.7852 C   0  0  0  0  0  0  0  0  0  0  0  0
  -23.5938   -8.2388   22.2699 C   0  0  0  0  0  0  0  0  0  0  0  0
  -29.6097  -27.4512   19.9878 C   0  0  0  0  0  0  0  0  0  0  0  0
  -21.5793   -5.5245   22.3410 C   0  0  0  0  0  0  0  0  0  0  0  0
  -21.7638   -4.2266   22.8176 C   0  0  0  0  0  0  0  0  0  0  0  0
  -27.5347  -26.4049   20.6349 C   0  0  0  0  0  0  0  0  0  0  0  0
  -27.5734  -18.3374   20.1857 C   0  0  0  0  0  0  0  0  0  0  0  0
  -21.7315   -5.0553   25.0868 C   0  0  0  0  0  0  0  0  0  0  0  0
  -24.2112   -9.4496   20.2725 C   0  0  0  0  0  0  0  0  0  0  0  0
  -25.4532   -9.6769   18.0559 C   0  0  0  0  0  0  0  0  0  0  0  0
  -23.9112  -34.4400   23.7533 C   0  0  0  0  0  0  0  0  0  0  0  0
  -27.5352  -28.7091   19.8930 C   0  0  0  0  0  0  0  0  0  0  0  0
  -25.0595  -33.7036   23.4045 C   0  0  0  0  0  0  0  0  0  0  0  0
  -26.8317  -27.5853   20.3496 C   0  0  0  0  0  0  0  0  0  0  0  0
  -27.0291  -19.6068   20.3804 C   0  0  0  0  0  0  0  0  0  0  0  0
  -25.7608  -19.9057   19.8826 C   0  0  0  0  0  0  0  0  0  0  0  0
  -25.0369  -18.9352   19.1899 C   0  0  0  0  0  0  0  0  0  0  0  0
  -25.5813  -17.6657   18.9952 C   0  0  0  0  0  0  0  0  0  0  0  0
  -26.8495  -17.3669   19.4930 C   0  0  0  0  0  0  0  0  0  0  0  0
  -22.2457   -8.3917   21.9459 C   0  0  0  0  0  0  0  0  0  0  0  0
  -28.9163  -26.3391   20.4565 C   0  0  0  0  0  0  0  0  0  0  0  0
  -21.4710   -6.5878   23.2374 C   0  0  0  0  0  0  0  0  0  0  0  0
  -21.8399   -3.9920   24.1905 C   0  0  0  0  0  0  0  0  0  0  0  0
  -21.5470   -6.3532   24.6102 C   0  0  0  0  0  0  0  0  0  0  0  0
  -25.2268   -9.9954   19.4083 C   0  0  0  0  0  0  0  0  0  0  0  0
  -26.5223  -10.4591   17.6933 C   0  0  0  0  0  0  0  0  0  0  0  0
  -24.7591   -8.7562   17.2036 C   0  0  0  0  0  0  0  0  0  0  0  0
  -25.6180  -30.4584   21.7283 C   0  0  0  0  0  0  0  0  0  0  0  0
  -23.2847  -28.9796   20.0280 C   0  0  0  0  0  0  0  0  0  0  0  0
  -22.6315  -25.6527   18.7941 C   0  0  0  0  0  0  0  0  0  0  0  0
  -28.6696  -15.6436   19.7464 C   0  0  0  0  0  0  0  0  0  0  0  0
  -22.6562  -33.7655   24.2478 C   0  0  0  0  0  0  0  0  0  0  0  0
  -26.8046  -29.9799   19.5559 C   0  0  0  0  0  0  0  0  0  0  0  0
  -25.3393  -27.6119   20.5509 C   0  0  0  0  0  0  0  0  0  0  0  0
  -22.5957  -32.2758   23.9202 C   0  0  0  0  0  0  0  0  0  0  0  0
  -30.4220  -12.5524   19.5223 C   0  0  0  0  0  0  0  0  0  0  0  0
  -30.1194  -22.2215   18.5051 C   0  0  0  0  0  0  0  0  0  0  0  0
  -23.9213  -31.6007   24.2578 C   0  0  0  0  0  0  0  0  0  0  0  0
  -29.3096  -11.5175   19.3384 C   0  0  0  0  0  0  0  0  0  0  0  0
  -30.4090  -23.5434   19.2038 C   0  0  0  0  0  0  0  0  0  0  0  0
  -30.0017  -13.6746   20.4698 C   0  0  0  0  0  0  0  0  0  0  0  0
  -27.6244  -13.3016   19.9419 C   0  0  0  0  0  0  0  0  0  0  0  0
  -29.6305  -21.1634   19.4839 C   0  0  0  0  0  0  0  0  0  0  0  0
  -28.7156  -22.9577   20.9783 C   0  0  0  0  0  0  0  0  0  0  0  0
  -25.0679  -32.1905   23.4277 C   0  0  1  0  0  0  0  0  0  0  0  0
  -25.4653  -30.1080   20.2752 C   0  0  1  0  0  0  0  0  0  0  0  0
  -27.9776  -12.1858   18.9450 C   0  0  2  0  0  0  0  0  0  0  0  0
  -29.2046  -24.0242   20.0071 C   0  0  1  0  0  0  0  0  0  1  0  0
  -25.1805  -21.2687   20.0921 C   0  0  0  0  0  0  0  0  0  0  0  0
  -23.6765  -19.2565   18.6560 C   0  0  0  0  0  0  0  0  0  0  0  0
  -24.8032  -16.6265   18.2501 C   0  0  0  0  0  0  0  0  0  0  0  0
  -21.2844  -24.8787   16.8234 C   0  0  0  0  0  0  0  0  0  0  0  0
  -21.0193  -28.7019   22.0530 C   0  0  0  0  0  0  0  0  0  0  0  0
  -20.3052  -26.6177   20.8638 C   0  0  0  0  0  0  0  0  0  0  0  0
  -20.2784  -28.8061   19.6667 C   0  0  0  0  0  0  0  0  0  0  0  0
  -24.9193  -24.1453   17.6751 C   0  0  0  0  0  0  0  0  0  0  0  0
  -27.8299  -20.6337   21.1255 C   0  0  0  0  0  0  0  0  0  0  0  0
  -22.4939  -27.7031   20.1838 C   0  0  1  0  0  0  0  0  0  0  0  0
  -22.6766  -25.1948   17.3475 C   0  0  2  0  0  0  0  0  0  0  0  0
  -21.0506  -27.9597   20.7021 C   0  0  0  0  0  0  0  0  0  0  0  0
  -26.0833  -10.9086   19.8734 N   0  0  0  0  0  0  0  0  0  0  0  0
  -26.8584  -11.1707   18.8072 N   0  0  0  0  0  0  0  0  0  0  0  0
  -24.6709  -28.8795   20.2134 N   0  0  0  0  0  0  0  0  0  0  0  0
  -28.7342  -14.2634   20.0319 N   0  0  0  0  0  0  0  0  0  0  0  0
  -27.1984  -10.6008   16.5334 N   0  0  0  0  0  0  0  0  0  0  0  0
  -23.6834   -8.0331   17.7368 N   0  0  0  0  0  0  0  0  0  0  0  0
  -27.4213  -16.0837   19.3075 N   0  0  0  0  0  0  0  0  0  0  0  0
  -25.0397  -31.6630   22.0803 N   0  0  0  0  0  0  0  0  0  0  0  0
  -22.5537  -27.0258   18.8930 N   0  0  0  0  0  0  0  0  0  0  0  0
  -28.4232  -21.6838   20.2271 N   0  3  2  0  0  0  0  0  0  0  0  0
  -23.5168  -23.9708   17.2176 N   0  3  0  0  0  0  0  0  0  0  0  0
  -25.0936   -8.5680   16.0094 O   0  0  0  0  0  0  0  0  0  0  0  0
  -26.2150  -29.6919   22.4751 O   0  0  0  0  0  0  0  0  0  0  0  0
  -22.6952  -30.0255   19.7449 O   0  0  0  0  0  0  0  0  0  0  0  0
  -22.6585  -24.8703   19.7416 O   0  0  0  0  0  0  0  0  0  0  0  0
  -29.6565  -16.3758   19.8553 O   0  0  0  0  0  0  0  0  0  0  0  0
  -21.2870   -7.8756   22.7627 O   0  0  0  0  0  0  0  0  0  0  0  0
  -29.5848  -25.1872   20.7357 O   0  0  0  0  0  0  0  0  0  1  0  0
  -22.0155   -2.7454   24.6480 F   0  0  0  0  0  0  0  0  0  0  0  0
  -21.4424   -7.3705   25.4762 F   0  0  0  0  0  0  0  0  0  0  0  0
  1  2  1  0  0  0  0
  1  5  2  0  0  0  0
  2  6  2  0  0  0  0
  3  8  2  0  0  0  0
  3 16  1  0  0  0  0
  4  9  1  0  0  0  0
  4 16  2  0  0  0  0
  5 18  1  0  0  0  0
  6 20  1  0  0  0  0
  7 10  2  0  0  0  0
  7 19  1  0  0  0  0
  8 27  1  0  0  0  0
  9 27  2  0  0  0  0
 10 28  1  0  0  0  0
 11 12  2  0  0  0  0
 11 29  1  0  0  0  0
 12 30  1  0  0  0  0
 13 21  1  0  0  0  0
 13 28  2  0  0  0  0
 14 22  1  0  0  0  0
 14 26  2  0  0  0  0
 15 30  2  0  0  0  0
 15 31  1  0  0  0  0
 16 32  1  0  0  0  0
 17 32  1  0  0  0  0
 17 33  2  0  0  0  0
 17 34  1  0  0  0  0
 18 20  2  0  0  0  0
 18 39  1  0  0  0  0
 19 21  2  0  0  0  0
 19 40  1  0  0  0  0
 20 52  1  0  0  0  0
 21 41  1  0  0  0  0
 22 23  2  0  0  0  0
 22 64  1  0  0  0  0
 23 24  1  0  0  0  0
 23 56  1  0  0  0  0
 24 25  2  0  0  0  0
 24 57  1  0  0  0  0
 25 26  1  0  0  0  0
 25 58  1  0  0  0  0
 26 74  1  0  0  0  0
 27 84  1  0  0  0  0
 28 85  1  0  0  0  0
 29 31  2  0  0  0  0
 29 84  1  0  0  0  0
 30 86  1  0  0  0  0
 31 87  1  0  0  0  0
 32 68  2  0  0  0  0
 33 69  1  0  0  0  0
 33 72  1  0  0  0  0
 34 73  1  0  0  0  0
 34 79  2  0  0  0  0
 35 53  1  0  0  0  0
 35 75  1  0  0  0  0
 35 80  2  0  0  0  0
 36 65  1  0  0  0  0
 36 70  1  0  0  0  0
 36 81  2  0  0  0  0
 37 66  1  0  0  0  0
 37 76  1  0  0  0  0
 37 82  2  0  0  0  0
 38 71  1  0  0  0  0
 38 74  1  0  0  0  0
 38 83  2  0  0  0  0
 39 42  1  0  0  0  0
 40 53  1  0  0  0  0
 41 70  1  0  0  0  0
 42 45  1  0  0  0  0
 43 46  1  0  0  0  0
 43 48  1  0  0  0  0
 44 47  1  0  0  0  0
 44 50  1  0  0  0  0
 45 52  1  0  0  0  0
 46 54  1  0  0  0  0
 47 55  1  0  0  0  0
 48 71  1  0  0  0  0
 49 54  1  0  0  0  0
 49 71  1  0  0  0  0
 50 77  1  0  0  0  0
 51 55  1  0  0  0  0
 51 77  1  0  0  0  0
 52 75  1  0  0  0  0
 53 70  1  0  0  0  0
 54 69  1  0  0  0  0
 55 85  1  0  0  0  0
 59 66  1  0  0  0  0
 60 67  1  0  0  0  0
 61 67  1  0  0  0  0
 62 67  1  0  0  0  0
 63 78  1  0  0  0  0
 64 77  1  0  0  0  0
 65 67  1  0  0  0  0
 65 76  1  0  0  0  0
 66 78  1  0  0  0  0
 68 69  1  0  0  0  0
M  CHG  2  77   1  78   1
M  ISO  4  38 100  55 101  74 100  85 101
M  END
> <Batch ID>
0037

> <Smiles>
CNC(C)C(=O)NC(C(=O)N1Cc2cc([101O:1][101CH:1]3CCCN(Cc4cc([100NH:0][100C:0](=O)N5CCCC(n6nc(-c7ccc(Oc8ccc(F)cc8F)cc7)c(C(N)=O)c6N)C5)c(C)c(C)c4C)C3)ccc2CC1C(=O)NC1CCCc2ccccc21)C(C)(C)C

> <Shape>
0.332

> <Color>
0.078

> <Negative vol penalty>
0.000

$$$$

  -OEChem-04042321573D

 87 96  0     1  0  0  0  0  0999 V2000
  -36.5775  -29.3132   18.1265 C   0  0  0  0  0  0  0  0  0  0  0  0
  -36.2819  -28.3109   19.0450 C   0  0  0  0  0  0  0  0  0  0  0  0
  -23.3633  -10.0958   22.1541 C   0  0  0  0  0  0  0  0  0  0  0  0
  -23.5477   -9.6742   19.7823 C   0  0  0  0  0  0  0  0  0  0  0  0
  -35.5865  -29.7819   17.2650 C   0  0  0  0  0  0  0  0  0  0  0  0
  -34.9949  -27.7776   19.1032 C   0  0  0  0  0  0  0  0  0  0  0  0
  -34.9990  -22.7234   19.4202 C   0  0  0  0  0  0  0  0  0  0  0  0
  -22.6073   -8.9329   22.3021 C   0  0  0  0  0  0  0  0  0  0  0  0
  -22.7918   -8.5113   19.9303 C   0  0  0  0  0  0  0  0  0  0  0  0
  -35.2794  -22.1638   20.6660 C   0  0  0  0  0  0  0  0  0  0  0  0
  -19.4160   -7.9531   21.7732 C   0  0  0  0  0  0  0  0  0  0  0  0
  -18.2668   -8.0239   22.5605 C   0  0  0  0  0  0  0  0  0  0  0  0
  -32.9209  -21.8158   21.0339 C   0  0  0  0  0  0  0  0  0  0  0  0
  -30.7763  -17.8624   24.5656 C   0  0  0  0  0  0  0  0  0  0  0  0
  -32.2431  -16.2753   22.8015 C   0  0  0  0  0  0  0  0  0  0  0  0
  -19.1725   -6.3373   24.0343 C   0  0  0  0  0  0  0  0  0  0  0  0
  -23.8335  -10.4664   20.8942 C   0  0  0  0  0  0  0  0  0  0  0  0
  -24.2181  -12.9837   21.0469 C   0  0  0  0  0  0  0  0  0  0  0  0
  -34.2892  -29.2473   17.3061 C   0  0  0  0  0  0  0  0  0  0  0  0
  -33.6744  -22.8436   18.9758 C   0  0  0  0  0  0  0  0  0  0  0  0
  -33.9853  -28.2405   18.2423 C   0  0  0  0  0  0  0  0  0  0  0  0
  -32.6264  -22.3750   19.7810 C   0  0  0  0  0  0  0  0  0  0  0  0
  -30.1178  -17.1019   23.5994 C   0  0  0  0  0  0  0  0  0  0  0  0
  -32.1683  -17.8295   24.6497 C   0  0  0  0  0  0  0  0  0  0  0  0
  -30.8512  -16.3083   22.7173 C   0  0  0  0  0  0  0  0  0  0  0  0
  -22.3216   -8.1407   21.1902 C   0  0  0  0  0  0  0  0  0  0  0  0
  -34.2401  -21.7126   21.4743 C   0  0  0  0  0  0  0  0  0  0  0  0
  -20.4435   -7.0743   22.1164 C   0  0  0  0  0  0  0  0  0  0  0  0
  -18.1450   -7.2161   23.6911 C   0  0  0  0  0  0  0  0  0  0  0  0
  -20.3217   -6.2665   23.2470 C   0  0  0  0  0  0  0  0  0  0  0  0
  -32.9017  -17.0359   23.7677 C   0  0  0  0  0  0  0  0  0  0  0  0
  -24.6139  -11.6679   20.7407 C   0  0  0  0  0  0  0  0  0  0  0  0
  -25.3086  -13.7540   20.7247 C   0  0  0  0  0  0  0  0  0  0  0  0
  -22.9758  -13.4664   21.5755 C   0  0  0  0  0  0  0  0  0  0  0  0
  -31.7804  -25.2758   18.2005 C   0  0  0  0  0  0  0  0  0  0  0  0
  -29.7500  -22.9054   17.3167 C   0  0  0  0  0  0  0  0  0  0  0  0
  -28.7133  -19.7043   18.6186 C   0  0  0  0  0  0  0  0  0  0  0  0
  -30.7963  -14.6947   20.7836 C   0  0  0  0  0  0  0  0  0  0  0  0
  -33.2389  -29.8191   16.3870 C   0  0  0  0  0  0  0  0  0  0  0  0
  -33.3904  -23.4251   17.6180 C   0  0  0  0  0  0  0  0  0  0  0  0
  -31.1885  -22.4625   19.3414 C   0  0  0  0  0  0  0  0  0  0  0  0
  -31.9983  -28.9390   16.2576 C   0  0  0  0  0  0  0  0  0  0  0  0
  -29.5406  -12.5831   18.2065 C   0  0  0  0  0  0  0  0  0  0  0  0
  -31.5316  -28.4690   17.6317 C   0  0  0  0  0  0  0  0  0  0  0  0
  -28.1143  -12.2650   18.6612 C   0  0  0  0  0  0  0  0  0  0  0  0
  -35.0496  -22.2970   24.7637 C   0  0  0  0  0  0  0  0  0  0  0  0
  -35.7946  -21.1323   25.4057 C   0  0  0  0  0  0  0  0  0  0  0  0
  -30.5081  -12.6602   19.3862 C   0  0  0  0  0  0  0  0  0  0  0  0
  -28.6732  -13.2494   20.9208 C   0  0  0  0  0  0  0  0  0  0  0  0
  -33.0066  -20.8379   24.5267 C   0  0  0  0  0  0  0  0  0  0  0  0
  -32.6074  -27.6194   18.3190 C   0  0  1  0  0  0  0  0  0  0  0  0
  -31.9708  -23.9679   17.4856 C   0  0  1  0  0  0  0  0  0  0  0  0
  -27.6500  -13.2256   19.7735 C   0  0  2  0  0  0  0  0  0  0  0  0
  -33.9473  -21.8106   23.8313 C   0  0  2  0  0  0  0  0  0  1  0  0
  -34.8486  -20.1610   26.1217 C   0  0  2  0  0  0  0  0  0  0  0  0
  -28.6259  -17.1582   23.5307 C   0  0  0  0  0  0  0  0  0  0  0  0
  -35.6435  -18.9793   26.6739 C   0  0  0  0  0  0  0  0  0  0  0  0
  -27.8697  -17.3943   18.1188 C   0  0  0  0  0  0  0  0  0  0  0  0
  -27.0020  -24.0774   17.9372 C   0  0  0  0  0  0  0  0  0  0  0  0
  -26.1880  -21.7521   18.3829 C   0  0  0  0  0  0  0  0  0  0  0  0
  -27.0189  -22.3671   16.1126 C   0  0  0  0  0  0  0  0  0  0  0  0
  -31.4276  -18.5429   18.8246 C   0  0  0  0  0  0  0  0  0  0  0  0
  -32.8387  -18.6625   25.7021 C   0  0  0  0  0  0  0  0  0  0  0  0
  -28.6708  -22.1086   18.0091 C   0  0  1  0  0  0  0  0  0  0  0  0
  -29.0604  -18.3383   18.0547 C   0  0  2  0  0  0  0  0  0  0  0  0
  -27.2421  -22.5869   17.6248 C   0  0  0  0  0  0  0  0  0  0  0  0
  -25.8586  -11.6023   20.2606 N   0  0  0  0  0  0  0  0  0  0  0  0
  -26.2544  -12.8867   20.2627 N   0  0  0  0  0  0  0  0  0  0  0  0
  -30.9616  -23.0447   18.0084 N   0  0  0  0  0  0  0  0  0  0  0  0
  -30.0051  -13.5920   20.3979 N   0  0  0  0  0  0  0  0  0  0  0  0
  -25.5412  -15.0820   20.7943 N   0  0  0  0  0  0  0  0  0  0  0  0
  -21.9614  -12.5392   21.8503 N   0  0  0  0  0  0  0  0  0  0  0  0
  -30.2006  -15.5294   21.7285 N   0  0  0  0  0  0  0  0  0  0  0  0
  -32.6235  -26.2814   17.7677 N   0  0  0  0  0  0  0  0  0  0  0  0
  -28.9354  -20.7078   17.6994 N   0  0  0  0  0  0  0  0  0  0  0  0
  -33.7916  -19.6845   25.1295 N   0  3  1  0  0  0  0  0  0  0  0  0
  -30.1836  -17.7308   18.8230 N   0  3  0  0  0  0  0  0  0  0  0  0
  -22.7656  -14.6857   21.7820 O   0  0  0  0  0  0  0  0  0  0  0  0
  -30.9306  -25.3661   19.0787 O   0  0  0  0  0  0  0  0  0  0  0  0
  -29.5287  -23.3805   16.2000 O   0  0  0  0  0  0  0  0  0  0  0  0
  -28.2843  -19.8647   19.7591 O   0  0  0  0  0  0  0  0  0  0  0  0
  -31.9084  -14.8995   20.2904 O   0  0  0  0  0  0  0  0  0  0  0  0
  -21.5841   -7.0058   21.3342 O   0  0  0  0  0  0  0  0  0  0  0  0
  -34.5110  -21.1666   22.6910 O   0  0  0  0  0  0  0  0  0  1  0  0
  -17.0420   -7.2853   24.4479 F   0  0  0  0  0  0  0  0  0  0  0  0
  -21.3060   -5.4211   23.5824 F   0  0  0  0  0  0  0  0  0  0  0  0
  -34.6250  -16.9701   23.8417 Cl  0  0  0  0  0  0  0  0  0  0  0  0
  1  2  1  0  0  0  0
  1  5  2  0  0  0  0
  2  6  2  0  0  0  0
  3  8  2  0  0  0  0
  3 17  1  0  0  0  0
  4  9  1  0  0  0  0
  4 17  2  0  0  0  0
  5 19  1  0  0  0  0
  6 21  1  0  0  0  0
  7 10  2  0  0  0  0
  7 20  1  0  0  0  0
  8 26  1  0  0  0  0
  9 26  2  0  0  0  0
 10 27  1  0  0  0  0
 11 12  2  0  0  0  0
 11 28  1  0  0  0  0
 12 29  1  0  0  0  0
 13 22  1  0  0  0  0
 13 27  2  0  0  0  0
 14 23  2  0  0  0  0
 14 24  1  0  0  0  0
 15 25  2  0  0  0  0
 15 31  1  0  0  0  0
 16 29  2  0  0  0  0
 16 30  1  0  0  0  0
 17 32  1  0  0  0  0
 18 32  1  0  0  0  0
 18 33  2  0  0  0  0
 18 34  1  0  0  0  0
 19 21  2  0  0  0  0
 19 39  1  0  0  0  0
 20 22  2  0  0  0  0
 20 40  1  0  0  0  0
 21 51  1  0  0  0  0
 22 41  1  0  0  0  0
 23 25  1  0  0  0  0
 23 56  1  0  0  0  0
 24 31  2  0  0  0  0
 24 63  1  0  0  0  0
 25 73  1  0  0  0  0
 26 83  1  0  0  0  0
 27 84  1  0  0  0  0
 28 30  2  0  0  0  0
 28 83  1  0  0  0  0
 29 85  1  0  0  0  0
 30 86  1  0  0  0  0
 31 87  1  0  0  0  0
 32 67  2  0  0  0  0
 33 68  1  0  0  0  0
 33 71  1  0  0  0  0
 34 72  1  0  0  0  0
 34 78  2  0  0  0  0
 35 52  1  0  0  0  0
 35 74  1  0  0  0  0
 35 79  2  0  0  0  0
 36 64  1  0  0  0  0
 36 69  1  0  0  0  0
 36 80  2  0  0  0  0
 37 65  1  0  0  0  0
 37 75  1  0  0  0  0
 37 81  2  0  0  0  0
 38 70  1  0  0  0  0
 38 73  1  0  0  0  0
 38 82  2  0  0  0  0
 39 42  1  0  0  0  0
 40 52  1  0  0  0  0
 41 69  1  0  0  0  0
 42 44  1  0  0  0  0
 43 45  1  0  0  0  0
 43 48  1  0  0  0  0
 44 51  1  0  0  0  0
 45 53  1  0  0  0  0
 46 47  1  0  0  0  0
 46 54  1  0  0  0  0
 47 55  1  0  0  0  0
 48 70  1  0  0  0  0
 49 53  1  0  0  0  0
 49 70  1  0  0  0  0
 50 54  1  0  0  0  0
 50 76  1  0  0  0  0
 51 74  1  0  0  0  0
 52 69  1  0  0  0  0
 53 68  1  0  0  0  0
 54 84  1  0  0  0  0
 55 57  1  0  0  0  0
 55 76  1  0  0  0  0
 58 65  1  0  0  0  0
 59 66  1  0  0  0  0
 60 66  1  0  0  0  0
 61 66  1  0  0  0  0
 62 77  1  0  0  0  0
 63 76  1  0  0  0  0
 64 66  1  0  0  0  0
 64 75  1  0  0  0  0
 65 77  1  0  0  0  0
 67 68  1  0  0  0  0
M  CHG  2  76   1  77   1
M  ISO  4  38 100  54 101  73 100  84 101
M  END
> <Batch ID>
0037

> <Smiles>
CNC(C)C(=O)NC(C(=O)N1Cc2cc([101O:1][101CH:1]3CCC(C)N(Cc4cc(C)c([100NH:0][100C:0](=O)N5CCCC(n6nc(-c7ccc(Oc8ccc(F)cc8F)cc7)c(C(N)=O)c6N)C5)cc4Cl)C3)ccc2CC1C(=O)NC1CCCc2ccccc21)C(C)(C)C

> <Shape>
0.215

> <Color>
0.202

> <Negative vol penalty>
0.000

$$$$

  -OEChem-04042321573D

 88 97  0     1  0  0  0  0  0999 V2000
  -34.0943  -30.6673   25.9852 C   0  0  0  0  0  0  0  0  0  0  0  0
  -33.3669  -29.5544   26.3944 C   0  0  0  0  0  0  0  0  0  0  0  0
  -22.6334  -10.3095   20.2003 C   0  0  0  0  0  0  0  0  0  0  0  0
  -24.3066   -9.4687   21.7269 C   0  0  0  0  0  0  0  0  0  0  0  0
  -33.6405  -31.4416   24.9182 C   0  0  0  0  0  0  0  0  0  0  0  0
  -32.1844  -29.2156   25.7375 C   0  0  0  0  0  0  0  0  0  0  0  0
  -31.8574  -24.2577   24.7592 C   0  0  0  0  0  0  0  0  0  0  0  0
  -21.8964   -9.1364   20.3619 C   0  0  0  0  0  0  0  0  0  0  0  0
  -23.5696   -8.2956   21.8886 C   0  0  0  0  0  0  0  0  0  0  0  0
  -31.5008  -23.4221   25.8168 C   0  0  0  0  0  0  0  0  0  0  0  0
  -23.0444   -5.4276   20.1770 C   0  0  0  0  0  0  0  0  0  0  0  0
  -23.7355   -4.2168   20.1329 C   0  0  0  0  0  0  0  0  0  0  0  0
  -29.2342  -23.3578   24.9936 C   0  0  0  0  0  0  0  0  0  0  0  0
  -31.5036  -19.0752   21.9119 C   0  0  0  0  0  0  0  0  0  0  0  0
  -23.0012   -3.7159   22.3794 C   0  0  0  0  0  0  0  0  0  0  0  0
  -23.8386  -10.4757   20.8827 C   0  0  0  0  0  0  0  0  0  0  0  0
  -24.1847  -13.0001   21.0072 C   0  0  0  0  0  0  0  0  0  0  0  0
  -32.4569  -31.1065   24.2417 C   0  0  0  0  0  0  0  0  0  0  0  0
  -30.9010  -24.6590   23.8154 C   0  0  0  0  0  0  0  0  0  0  0  0
  -31.7136  -29.9868   24.6613 C   0  0  0  0  0  0  0  0  0  0  0  0
  -29.5818  -24.1963   23.9236 C   0  0  0  0  0  0  0  0  0  0  0  0
  -31.6951  -19.1924   23.2886 C   0  0  0  0  0  0  0  0  0  0  0  0
  -30.9838  -17.8961   21.3779 C   0  0  0  0  0  0  0  0  0  0  0  0
  -31.3668  -18.1304   24.1312 C   0  0  0  0  0  0  0  0  0  0  0  0
  -30.6556  -16.8341   22.2206 C   0  0  0  0  0  0  0  0  0  0  0  0
  -22.3645   -8.1294   21.2061 C   0  0  0  0  0  0  0  0  0  0  0  0
  -30.1884  -22.9744   25.9358 C   0  0  0  0  0  0  0  0  0  0  0  0
  -22.3317   -5.7826   21.3223 C   0  0  0  0  0  0  0  0  0  0  0  0
  -23.7139   -3.3609   21.2341 C   0  0  0  0  0  0  0  0  0  0  0  0
  -22.3101   -4.9267   22.4235 C   0  0  0  0  0  0  0  0  0  0  0  0
  -30.8471  -16.9512   23.5972 C   0  0  0  0  0  0  0  0  0  0  0  0
  -24.6006  -11.6871   20.7157 C   0  0  0  0  0  0  0  0  0  0  0  0
  -25.2634  -13.7833   20.6765 C   0  0  0  0  0  0  0  0  0  0  0  0
  -30.4699  -18.1363   27.7588 C   0  0  0  0  0  0  0  0  0  0  0  0
  -29.9506  -16.9709   28.1735 C   0  0  0  0  0  0  0  0  0  0  0  0
  -22.9350  -13.4696   21.5302 C   0  0  0  0  0  0  0  0  0  0  0  0
  -29.6805  -27.4495   22.9060 C   0  0  0  0  0  0  0  0  0  0  0  0
  -28.2174  -25.6327   20.6519 C   0  0  0  0  0  0  0  0  0  0  0  0
  -26.5768  -22.4222   20.5149 C   0  0  0  0  0  0  0  0  0  0  0  0
  -30.7360  -14.8084   20.7251 C   0  0  0  0  0  0  0  0  0  0  0  0
  -31.9814  -32.0009   23.1243 C   0  0  0  0  0  0  0  0  0  0  0  0
  -31.3078  -25.5390   22.6654 C   0  0  0  0  0  0  0  0  0  0  0  0
  -28.5219  -24.5818   22.9253 C   0  0  0  0  0  0  0  0  0  0  0  0
  -31.1795  -19.0918   28.6792 C   0  0  0  0  0  0  0  0  0  0  0  0
  -30.9155  -31.3577   22.2409 C   0  0  0  0  0  0  0  0  0  0  0  0
  -30.6046  -20.4954   28.5321 C   0  0  0  0  0  0  0  0  0  0  0  0
  -29.5133  -12.6490   18.1718 C   0  0  0  0  0  0  0  0  0  0  0  0
  -29.8425  -30.6928   23.0973 C   0  0  0  0  0  0  0  0  0  0  0  0
  -28.0920  -12.3143   18.6300 C   0  0  0  0  0  0  0  0  0  0  0  0
  -30.4792  -12.7541   19.3507 C   0  0  0  0  0  0  0  0  0  0  0  0
  -28.6352  -13.3325   20.8784 C   0  0  0  0  0  0  0  0  0  0  0  0
  -29.7278  -19.8819   26.2475 C   0  0  0  0  0  0  0  0  0  0  0  0
  -30.4392  -29.5728   23.9581 C   0  0  1  0  0  0  0  0  0  0  0  0
  -30.1365  -26.3003   22.0522 C   0  0  1  0  0  0  0  0  0  0  0  0
  -27.6128  -13.2801   19.7314 C   0  0  2  0  0  0  0  0  0  0  0  0
  -30.5113  -20.9073   27.0630 C   0  0  1  0  0  0  0  0  0  1  0  0
  -32.2519  -20.4674   23.8328 C   0  0  0  0  0  0  0  0  0  0  0  0
  -30.7899  -17.8034   19.8985 C   0  0  0  0  0  0  0  0  0  0  0  0
  -26.2874  -20.8180   18.6070 C   0  0  0  0  0  0  0  0  0  0  0  0
  -25.5434  -27.0459   20.2489 C   0  0  0  0  0  0  0  0  0  0  0  0
  -24.5323  -24.8242   19.6922 C   0  0  0  0  0  0  0  0  0  0  0  0
  -26.3520  -25.7575   18.2638 C   0  0  0  0  0  0  0  0  0  0  0  0
  -27.8033  -20.2037   22.0422 C   0  0  0  0  0  0  0  0  0  0  0  0
  -31.5804  -18.2791   25.6088 C   0  0  0  0  0  0  0  0  0  0  0  0
  -26.9116  -24.8798   20.5678 C   0  0  1  0  0  0  0  0  0  0  0  0
  -27.0983  -21.1630   19.8465 C   0  0  2  0  0  0  0  0  0  0  0  0
  -25.8481  -25.6309   19.7180 C   0  0  0  0  0  0  0  0  0  0  0  0
  -25.8463  -11.6352   20.2366 N   0  0  0  0  0  0  0  0  0  0  0  0
  -26.2224  -12.9254   20.2243 N   0  0  0  0  0  0  0  0  0  0  0  0
  -28.9675  -25.4490   21.8222 N   0  0  0  0  0  0  0  0  0  0  0  0
  -29.9618  -13.6895   20.3518 N   0  0  0  0  0  0  0  0  0  0  0  0
  -25.4756  -15.1154   20.7311 N   0  0  0  0  0  0  0  0  0  0  0  0
  -22.7888  -13.5721   22.9203 N   0  0  0  0  0  0  0  0  0  0  0  0
  -30.1274  -15.6445   21.6605 N   0  0  0  0  0  0  0  0  0  0  0  0
  -30.6637  -28.3868   23.1596 N   0  0  0  0  0  0  0  0  0  0  0  0
  -27.2399  -23.5473   20.0726 N   0  0  0  0  0  0  0  0  0  0  0  0
  -30.3015  -18.4914   26.3706 N   0  3  1  0  0  0  0  0  0  0  0  0
  -27.0302  -20.0102   20.7885 N   0  3  0  0  0  0  0  0  0  0  0  0
  -21.9709  -13.7733   20.7874 O   0  0  0  0  0  0  0  0  0  0  0  0
  -28.5220  -27.4841   23.3039 O   0  0  0  0  0  0  0  0  0  0  0  0
  -28.5627  -26.3515   19.7108 O   0  0  0  0  0  0  0  0  0  0  0  0
  -25.6693  -22.4095   21.3436 O   0  0  0  0  0  0  0  0  0  0  0  0
  -31.8450  -15.0247   20.2297 O   0  0  0  0  0  0  0  0  0  0  0  0
  -21.6455   -6.9846   21.3642 O   0  0  0  0  0  0  0  0  0  0  0  0
  -29.8374  -22.1593   26.9674 O   0  0  0  0  0  0  0  0  0  1  0  0
  -24.3764   -2.1975   21.1910 F   0  0  0  0  0  0  0  0  0  0  0  0
  -21.6262   -5.2618   23.5262 F   0  0  0  0  0  0  0  0  0  0  0  0
  -30.4422  -15.6337   24.6510 Cl  0  0  0  0  0  0  0  0  0  0  0  0
  1  2  1  0  0  0  0
  1  5  2  0  0  0  0
  2  6  2  0  0  0  0
  3  8  2  0  0  0  0
  3 16  1  0  0  0  0
  4  9  1  0  0  0  0
  4 16  2  0  0  0  0
  5 18  1  0  0  0  0
  6 20  1  0  0  0  0
  7 10  2  0  0  0  0
  7 19  1  0  0  0  0
  8 26  1  0  0  0  0
  9 26  2  0  0  0  0
 10 27  1  0  0  0  0
 11 12  2  0  0  0  0
 11 28  1  0  0  0  0
 12 29  1  0  0  0  0
 13 21  1  0  0  0  0
 13 27  2  0  0  0  0
 14 22  2  0  0  0  0
 14 23  1  0  0  0  0
 15 29  2  0  0  0  0
 15 30  1  0  0  0  0
 16 32  1  0  0  0  0
 17 32  1  0  0  0  0
 17 33  2  0  0  0  0
 17 36  1  0  0  0  0
 18 20  2  0  0  0  0
 18 41  1  0  0  0  0
 19 21  2  0  0  0  0
 19 42  1  0  0  0  0
 20 53  1  0  0  0  0
 21 43  1  0  0  0  0
 22 24  1  0  0  0  0
 22 57  1  0  0  0  0
 23 25  2  0  0  0  0
 23 58  1  0  0  0  0
 24 31  2  0  0  0  0
 24 64  1  0  0  0  0
 25 31  1  0  0  0  0
 25 74  1  0  0  0  0
 26 84  1  0  0  0  0
 27 85  1  0  0  0  0
 28 30  2  0  0  0  0
 28 84  1  0  0  0  0
 29 86  1  0  0  0  0
 30 87  1  0  0  0  0
 31 88  1  0  0  0  0
 32 68  2  0  0  0  0
 33 69  1  0  0  0  0
 33 72  1  0  0  0  0
 34 35  2  0  0  0  0
 34 44  1  0  0  0  0
 34 77  1  0  0  0  0
 36 73  1  0  0  0  0
 36 79  2  0  0  0  0
 37 54  1  0  0  0  0
 37 75  1  0  0  0  0
 37 80  2  0  0  0  0
 38 65  1  0  0  0  0
 38 70  1  0  0  0  0
 38 81  2  0  0  0  0
 39 66  1  0  0  0  0
 39 76  1  0  0  0  0
 39 82  2  0  0  0  0
 40 71  1  0  0  0  0
 40 74  1  0  0  0  0
 40 83  2  0  0  0  0
 41 45  1  0  0  0  0
 42 54  1  0  0  0  0
 43 70  1  0  0  0  0
 44 46  1  0  0  0  0
 45 48  1  0  0  0  0
 46 56  1  0  0  0  0
 47 49  1  0  0  0  0
 47 50  1  0  0  0  0
 48 53  1  0  0  0  0
 49 55  1  0  0  0  0
 50 71  1  0  0  0  0
 51 55  1  0  0  0  0
 51 71  1  0  0  0  0
 52 56  1  0  0  0  0
 52 77  1  0  0  0  0
 53 75  1  0  0  0  0
 54 70  1  0  0  0  0
 55 69  1  0  0  0  0
 56 85  1  0  0  0  0
 59 66  1  0  0  0  0
 60 67  1  0  0  0  0
 61 67  1  0  0  0  0
 62 67  1  0  0  0  0
 63 78  1  0  0  0  0
 64 77  1  0  0  0  0
 65 67  1  0  0  0  0
 65 76  1  0  0  0  0
 66 78  1  0  0  0  0
 68 69  1  0  0  0  0
M  CHG  2  77   1  78   1
M  ISO  4  40 100  56 101  74 100  85 101
M  END
> <Batch ID>
0037

> <Smiles>
C=C1CC[101CH:1]([101O:1]c2ccc3c(c2)CN(C(=O)C(NC(=O)C(C)NC)C(C)(C)C)C(C(=O)NC2CCCc4ccccc42)C3)CN1Cc1c(C)cc(C)c([100NH:0][100C:0](=O)N2CCCC(n3nc(-c4ccc(Oc5ccc(F)cc5F)cc4)c(C(N)=O)c3N)C2)c1Cl

> <Shape>
0.215

> <Color>
0.181

> <Negative vol penalty>
0.000

$$$$

  -OEChem-04042321573D

 87 96  0     1  0  0  0  0  0999 V2000
  -16.3774  -29.4452   23.4686 C   0  0  0  0  0  0  0  0  0  0  0  0
  -17.0326  -29.0673   22.3020 C   0  0  0  0  0  0  0  0  0  0  0  0
  -25.9074  -13.5230   19.2433 C   0  0  0  0  0  0  0  0  0  0  0  0
  -24.3540  -13.7712   21.0770 C   0  0  0  0  0  0  0  0  0  0  0  0
  -17.1113  -29.9243   24.5516 C   0  0  0  0  0  0  0  0  0  0  0  0
  -18.4227  -29.1572   22.2223 C   0  0  0  0  0  0  0  0  0  0  0  0
  -25.6540  -28.6128   18.9611 C   0  0  0  0  0  0  0  0  0  0  0  0
  -28.7925  -25.3484   18.1089 C   0  0  0  0  0  0  0  0  0  0  0  0
  -27.8434  -24.3610   18.3729 C   0  0  0  0  0  0  0  0  0  0  0  0
  -25.3685  -12.2689   18.9564 C   0  0  0  0  0  0  0  0  0  0  0  0
  -23.8151  -12.5170   20.7901 C   0  0  0  0  0  0  0  0  0  0  0  0
  -26.9660  -29.0686   19.0817 C   0  0  0  0  0  0  0  0  0  0  0  0
  -24.6223   -9.2774   21.3232 C   0  0  0  0  0  0  0  0  0  0  0  0
  -24.3895   -8.4122   22.3922 C   0  0  0  0  0  0  0  0  0  0  0  0
  -27.0247  -28.2787   21.3602 C   0  0  0  0  0  0  0  0  0  0  0  0
  -22.0386   -8.3596   21.8377 C   0  0  0  0  0  0  0  0  0  0  0  0
  -25.4002  -14.2742   20.3036 C   0  0  0  0  0  0  0  0  0  0  0  0
  -27.2886  -15.8625   20.9507 C   0  0  0  0  0  0  0  0  0  0  0  0
  -18.5100  -30.0316   24.4798 C   0  0  0  0  0  0  0  0  0  0  0  0
  -25.0127  -27.9953   20.0445 C   0  0  0  0  0  0  0  0  0  0  0  0
  -19.1832  -29.6158   23.3131 C   0  0  0  0  0  0  0  0  0  0  0  0
  -25.7054  -27.8136   21.2500 C   0  0  0  0  0  0  0  0  0  0  0  0
  -30.1347  -25.1261   18.4172 C   0  0  0  0  0  0  0  0  0  0  0  0
  -30.5276  -23.9163   18.9895 C   0  0  0  0  0  0  0  0  0  0  0  0
  -29.5785  -22.9288   19.2536 C   0  0  0  0  0  0  0  0  0  0  0  0
  -28.2364  -23.1512   18.9453 C   0  0  0  0  0  0  0  0  0  0  0  0
  -24.3223  -11.7659   19.7298 C   0  0  0  0  0  0  0  0  0  0  0  0
  -27.6506  -28.9042   20.2823 C   0  0  0  0  0  0  0  0  0  0  0  0
  -23.5632   -9.6838   20.5115 C   0  0  0  0  0  0  0  0  0  0  0  0
  -23.0977   -7.9532   22.6495 C   0  0  0  0  0  0  0  0  0  0  0  0
  -22.2714   -9.2248   20.7687 C   0  0  0  0  0  0  0  0  0  0  0  0
  -25.9569  -15.5695   20.6007 C   0  0  0  0  0  0  0  0  0  0  0  0
  -27.3049  -17.2242   21.1295 C   0  0  0  0  0  0  0  0  0  0  0  0
  -32.5773  -27.9354   19.0177 C   0  0  0  0  0  0  0  0  0  0  0  0
  -33.8630  -27.6670   19.2912 C   0  0  0  0  0  0  0  0  0  0  0  0
  -28.4105  -14.9825   21.1007 C   0  0  0  0  0  0  0  0  0  0  0  0
  -22.4456  -28.6495   21.8013 C   0  0  0  0  0  0  0  0  0  0  0  0
  -23.0737  -25.7435   23.0987 C   0  0  0  0  0  0  0  0  0  0  0  0
  -25.9936  -23.9088   24.1596 C   0  0  0  0  0  0  0  0  0  0  0  0
  -25.9106  -22.3664   19.5119 C   0  0  0  0  0  0  0  0  0  0  0  0
  -19.2555  -30.5495   25.6845 C   0  0  0  0  0  0  0  0  0  0  0  0
  -23.6062  -27.4851   19.8899 C   0  0  0  0  0  0  0  0  0  0  0  0
  -25.0687  -27.1388   22.4366 C   0  0  0  0  0  0  0  0  0  0  0  0
  -32.1213  -29.2364   18.4151 C   0  0  0  0  0  0  0  0  0  0  0  0
  -20.6662  -31.0245   25.3517 C   0  0  0  0  0  0  0  0  0  0  0  0
  -30.9832  -29.8309   19.2358 C   0  0  0  0  0  0  0  0  0  0  0  0
  -23.5041  -20.5554   21.4108 C   0  0  0  0  0  0  0  0  0  0  0  0
  -21.3928  -29.9648   24.5372 C   0  0  0  0  0  0  0  0  0  0  0  0
  -24.0372  -19.1209   21.3982 C   0  0  0  0  0  0  0  0  0  0  0  0
  -23.7568  -21.2661   20.0824 C   0  0  0  0  0  0  0  0  0  0  0  0
  -25.6834  -19.8062   19.6072 C   0  0  0  0  0  0  0  0  0  0  0  0
  -30.4799  -27.5421   20.1701 C   0  0  0  0  0  0  0  0  0  0  0  0
  -20.6918  -29.7336   23.1925 C   0  0  1  0  0  0  0  0  0  0  0  0
  -22.8763  -27.3322   21.2208 C   0  0  1  0  0  0  0  0  0  0  0  0
  -25.5099  -19.0710   20.9463 C   0  0  2  0  0  0  0  0  0  0  0  0
  -29.8973  -28.7921   19.5155 C   0  0  1  0  0  0  0  0  0  1  0  0
  -31.9678  -23.6807   19.3190 C   0  0  0  0  0  0  0  0  0  0  0  0
  -30.0025  -21.6312   19.8679 C   0  0  0  0  0  0  0  0  0  0  0  0
  -26.4003  -21.4374   24.3148 C   0  0  0  0  0  0  0  0  0  0  0  0
  -22.1941  -26.0741   26.0016 C   0  0  0  0  0  0  0  0  0  0  0  0
  -23.9522  -24.4139   26.6505 C   0  0  0  0  0  0  0  0  0  0  0  0
  -22.0887  -23.7286   25.1403 C   0  0  0  0  0  0  0  0  0  0  0  0
  -28.4018  -24.0802   22.4479 C   0  0  0  0  0  0  0  0  0  0  0  0
  -31.1349  -26.2048   18.1228 C   0  0  0  0  0  0  0  0  0  0  0  0
  -23.9066  -25.2467   24.2556 C   0  0  1  0  0  0  0  0  0  0  0  0
  -26.5995  -22.6936   23.4810 C   0  0  2  0  0  0  0  0  0  0  0  0
  -23.0424  -24.8895   25.4977 C   0  0  0  0  0  0  0  0  0  0  0  0
  -25.1833  -16.6576   20.5592 N   0  0  0  0  0  0  0  0  0  0  0  0
  -26.0315  -17.6475   20.8856 N   0  0  0  0  0  0  0  0  0  0  0  0
  -23.6898  -26.6629   22.2379 N   0  0  0  0  0  0  0  0  0  0  0  0
  -25.1734  -21.1816   19.7205 N   0  0  0  0  0  0  0  0  0  0  0  0
  -28.2841  -18.0888   21.4701 N   0  0  0  0  0  0  0  0  0  0  0  0
  -28.6542  -14.4194   22.3608 N   0  0  0  0  0  0  0  0  0  0  0  0
  -27.2554  -22.1622   19.2047 N   0  0  0  0  0  0  0  0  0  0  0  0
  -21.2822  -28.5836   22.5439 N   0  0  0  0  0  0  0  0  0  0  0  0
  -24.6999  -24.1361   23.7401 N   0  0  0  0  0  0  0  0  0  0  0  0
  -31.5948  -26.9340   19.3548 N   0  3  1  0  0  0  0  0  0  0  0  0
  -28.0616  -22.8921   23.2723 N   0  3  0  0  0  0  0  0  0  0  0  0
  -29.1839  -14.7168   20.1496 O   0  0  0  0  0  0  0  0  0  0  0  0
  -23.1198  -29.6512   21.5922 O   0  0  0  0  0  0  0  0  0  0  0  0
  -21.9214  -25.3257   22.9597 O   0  0  0  0  0  0  0  0  0  0  0  0
  -26.6054  -24.5864   24.9825 O   0  0  0  0  0  0  0  0  0  0  0  0
  -25.3938  -23.4808   19.6259 O   0  0  0  0  0  0  0  0  0  0  0  0
  -23.7961  -10.5422   19.4501 O   0  0  0  0  0  0  0  0  0  0  0  0
  -28.9311  -29.3488   20.4029 O   0  0  0  0  0  0  0  0  0  1  0  0
  -22.8745   -7.1211   23.6751 F   0  0  0  0  0  0  0  0  0  0  0  0
  -21.2501   -9.6108   19.9916 F   0  0  0  0  0  0  0  0  0  0  0  0
  1  2  1  0  0  0  0
  1  5  2  0  0  0  0
  2  6  2  0  0  0  0
  3 10  2  0  0  0  0
  3 17  1  0  0  0  0
  4 11  1  0  0  0  0
  4 17  2  0  0  0  0
  5 19  1  0  0  0  0
  6 21  1  0  0  0  0
  7 12  2  0  0  0  0
  7 20  1  0  0  0  0
  8  9  2  0  0  0  0
  8 23  1  0  0  0  0
  9 26  1  0  0  0  0
 10 27  1  0  0  0  0
 11 27  2  0  0  0  0
 12 28  1  0  0  0  0
 13 14  2  0  0  0  0
 13 29  1  0  0  0  0
 14 30  1  0  0  0  0
 15 22  1  0  0  0  0
 15 28  2  0  0  0  0
 16 30  2  0  0  0  0
 16 31  1  0  0  0  0
 17 32  1  0  0  0  0
 18 32  1  0  0  0  0
 18 33  2  0  0  0  0
 18 36  1  0  0  0  0
 19 21  2  0  0  0  0
 19 41  1  0  0  0  0
 20 22  2  0  0  0  0
 20 42  1  0  0  0  0
 21 53  1  0  0  0  0
 22 43  1  0  0  0  0
 23 24  2  0  0  0  0
 23 64  1  0  0  0  0
 24 25  1  0  0  0  0
 24 57  1  0  0  0  0
 25 26  2  0  0  0  0
 25 58  1  0  0  0  0
 26 74  1  0  0  0  0
 27 84  1  0  0  0  0
 28 85  1  0  0  0  0
 29 31  2  0  0  0  0
 29 84  1  0  0  0  0
 30 86  1  0  0  0  0
 31 87  1  0  0  0  0
 32 68  2  0  0  0  0
 33 69  1  0  0  0  0
 33 72  1  0  0  0  0
 34 35  2  0  0  0  0
 34 44  1  0  0  0  0
 34 77  1  0  0  0  0
 36 73  1  0  0  0  0
 36 79  2  0  0  0  0
 37 54  1  0  0  0  0
 37 75  1  0  0  0  0
 37 80  2  0  0  0  0
 38 65  1  0  0  0  0
 38 70  1  0  0  0  0
 38 81  2  0  0  0  0
 39 66  1  0  0  0  0
 39 76  1  0  0  0  0
 39 82  2  0  0  0  0
 40 71  1  0  0  0  0
 40 74  1  0  0  0  0
 40 83  2  0  0  0  0
 41 45  1  0  0  0  0
 42 54  1  0  0  0  0
 43 70  1  0  0  0  0
 44 46  1  0  0  0  0
 45 48  1  0  0  0  0
 46 56  1  0  0  0  0
 47 49  1  0  0  0  0
 47 50  1  0  0  0  0
 48 53  1  0  0  0  0
 49 55  1  0  0  0  0
 50 71  1  0  0  0  0
 51 55  1  0  0  0  0
 51 71  1  0  0  0  0
 52 56  1  0  0  0  0
 52 77  1  0  0  0  0
 53 75  1  0  0  0  0
 54 70  1  0  0  0  0
 55 69  1  0  0  0  0
 56 85  1  0  0  0  0
 59 66  1  0  0  0  0
 60 67  1  0  0  0  0
 61 67  1  0  0  0  0
 62 67  1  0  0  0  0
 63 78  1  0  0  0  0
 64 77  1  0  0  0  0
 65 67  1  0  0  0  0
 65 76  1  0  0  0  0
 66 78  1  0  0  0  0
 68 69  1  0  0  0  0
M  CHG  2  77   1  78   1
M  ISO  4  40 100  56 101  74 100  85 101
M  END
> <Batch ID>
0037

> <Smiles>
C=C1CC[101CH:1]([101O:1]c2ccc3c(c2)CN(C(=O)C(NC(=O)C(C)NC)C(C)(C)C)C(C(=O)NC2CCCc4ccccc42)C3)CN1Cc1ccc([100NH:0][100C:0](=O)N2CCCC(n3nc(-c4ccc(Oc5ccc(F)cc5F)cc4)c(C(N)=O)c3N)C2)c(C)c1C

> <Shape>
0.247

> <Color>
0.070

> <Negative vol penalty>
0.000

$$$$

  -OEChem-04042321573D

 87 96  0     1  0  0  0  0  0999 V2000
  -22.5335  -28.7993   25.8519 C   0  0  0  0  0  0  0  0  0  0  0  0
  -23.5545  -28.0119   25.3294 C   0  0  0  0  0  0  0  0  0  0  0  0
  -22.6510  -10.2096   20.2527 C   0  0  0  0  0  0  0  0  0  0  0  0
  -24.2538   -9.5404   21.9321 C   0  0  0  0  0  0  0  0  0  0  0  0
  -22.7694  -30.1425   26.1418 C   0  0  0  0  0  0  0  0  0  0  0  0
  -24.8118  -28.5677   25.0954 C   0  0  0  0  0  0  0  0  0  0  0  0
  -28.5812  -25.5899   26.6983 C   0  0  0  0  0  0  0  0  0  0  0  0
  -21.9059   -9.0577   20.5048 C   0  0  0  0  0  0  0  0  0  0  0  0
  -23.5087   -8.3885   22.1843 C   0  0  0  0  0  0  0  0  0  0  0  0
  -28.9199  -24.5028   25.8937 C   0  0  0  0  0  0  0  0  0  0  0  0
  -19.6977   -7.9779   22.8266 C   0  0  0  0  0  0  0  0  0  0  0  0
  -18.3147   -8.1138   22.9465 C   0  0  0  0  0  0  0  0  0  0  0  0
  -30.7809  -25.7513   25.0009 C   0  0  0  0  0  0  0  0  0  0  0  0
  -30.5220  -18.3528   24.0373 C   0  0  0  0  0  0  0  0  0  0  0  0
  -32.0640  -16.5874   22.5246 C   0  0  0  0  0  0  0  0  0  0  0  0
  -18.0052   -6.6090   21.0818 C   0  0  0  0  0  0  0  0  0  0  0  0
  -23.8250  -10.4509   20.9663 C   0  0  0  0  0  0  0  0  0  0  0  0
  -24.1688  -12.9754   20.8382 C   0  0  0  0  0  0  0  0  0  0  0  0
  -24.0329  -30.7126   25.9203 C   0  0  0  0  0  0  0  0  0  0  0  0
  -29.3345  -26.7717   26.6521 C   0  0  0  0  0  0  0  0  0  0  0  0
  -25.0644  -29.9202   25.3813 C   0  0  0  0  0  0  0  0  0  0  0  0
  -30.4512  -26.8510   25.8077 C   0  0  0  0  0  0  0  0  0  0  0  0
  -31.9100  -18.3454   24.1746 C   0  0  0  0  0  0  0  0  0  0  0  0
  -30.6759  -16.5946   22.3873 C   0  0  0  0  0  0  0  0  0  0  0  0
  -22.3347   -8.1472   21.4706 C   0  0  0  0  0  0  0  0  0  0  0  0
  -30.0182  -24.5844   25.0427 C   0  0  0  0  0  0  0  0  0  0  0  0
  -20.2345   -7.1576   21.8343 C   0  0  0  0  0  0  0  0  0  0  0  0
  -17.4684   -7.4293   22.0742 C   0  0  0  0  0  0  0  0  0  0  0  0
  -19.3883   -6.4732   20.9619 C   0  0  0  0  0  0  0  0  0  0  0  0
  -29.9049  -17.4773   23.1437 C   0  0  0  0  0  0  0  0  0  0  0  0
  -32.6811  -17.4628   23.4182 C   0  0  0  0  0  0  0  0  0  0  0  0
  -24.5954  -11.6404   20.7060 C   0  0  0  0  0  0  0  0  0  0  0  0
  -25.2622  -13.7229   20.4745 C   0  0  0  0  0  0  0  0  0  0  0  0
  -31.4927  -21.5254   24.9275 C   0  0  0  0  0  0  0  0  0  0  0  0
  -22.8979  -13.4936   21.2529 C   0  0  0  0  0  0  0  0  0  0  0  0
  -28.7249  -29.7912   25.8680 C   0  0  0  0  0  0  0  0  0  0  0  0
  -31.7540  -30.2687   26.9259 C   0  0  0  0  0  0  0  0  0  0  0  0
  -34.9315  -28.5798   26.6646 C   0  0  0  0  0  0  0  0  0  0  0  0
  -30.7288  -14.7653   20.6562 C   0  0  0  0  0  0  0  0  0  0  0  0
  -24.2268  -32.1810   26.2048 C   0  0  0  0  0  0  0  0  0  0  0  0
  -28.9719  -27.9258   27.5459 C   0  0  0  0  0  0  0  0  0  0  0  0
  -31.3046  -28.0899   25.7358 C   0  0  0  0  0  0  0  0  0  0  0  0
  -25.6932  -32.5987   26.2786 C   0  0  0  0  0  0  0  0  0  0  0  0
  -33.7629  -22.4246   23.3073 C   0  0  0  0  0  0  0  0  0  0  0  0
  -29.6173  -12.3440   18.2941 C   0  0  0  0  0  0  0  0  0  0  0  0
  -26.4746  -32.0134   25.1065 C   0  0  0  0  0  0  0  0  0  0  0  0
  -32.4116  -23.0884   23.1439 C   0  0  0  0  0  0  0  0  0  0  0  0
  -28.1766  -12.0549   18.7219 C   0  0  0  0  0  0  0  0  0  0  0  0
  -33.5733  -20.9515   23.6223 C   0  0  0  0  0  0  0  0  0  0  0  0
  -30.5302  -12.5763   19.4967 C   0  0  0  0  0  0  0  0  0  0  0  0
  -28.6211  -13.3069   20.8718 C   0  0  0  0  0  0  0  0  0  0  0  0
  -26.4488  -30.4805   25.1368 C   0  0  1  0  0  0  0  0  0  0  0  0
  -31.6388  -22.9620   24.4420 C   0  0  1  0  0  0  0  0  0  1  0  0
  -29.5033  -29.2634   27.0399 C   0  0  1  0  0  0  0  0  0  0  0  0
  -27.6504  -13.1303   19.6927 C   0  0  2  0  0  0  0  0  0  0  0  0
  -36.9150  -28.5885   28.2018 C   0  0  0  0  0  0  0  0  0  0  0  0
  -32.7709  -32.5159   25.1299 C   0  0  0  0  0  0  0  0  0  0  0  0
  -35.0750  -31.5645   25.3619 C   0  0  0  0  0  0  0  0  0  0  0  0
  -33.8640  -32.4003   27.3762 C   0  0  0  0  0  0  0  0  0  0  0  0
  -34.9229  -25.6282   26.8811 C   0  0  0  0  0  0  0  0  0  0  0  0
  -32.5355  -19.3036   25.1466 C   0  0  0  0  0  0  0  0  0  0  0  0
  -33.1245  -30.2385   26.2936 C   0  0  1  0  0  0  0  0  0  0  0  0
  -35.6621  -27.8416   27.7718 C   0  0  2  0  0  0  0  0  0  0  0  0
  -33.6873  -31.6638   26.0305 C   0  0  0  0  0  0  0  0  0  0  0  0
  -25.8610  -11.5422   20.2905 N   0  0  0  0  0  0  0  0  0  0  0  0
  -26.2390  -12.8251   20.1584 N   0  0  0  0  0  0  0  0  0  0  0  0
  -32.5535  -20.6669   24.6333 N   0  0  0  0  0  0  0  0  0  0  0  0
  -30.9057  -29.1938   26.6246 N   0  0  0  0  0  0  0  0  0  0  0  0
  -29.9702  -13.6106   20.3694 N   0  0  0  0  0  0  0  0  0  0  0  0
  -25.4737  -15.0539   20.3972 N   0  0  0  0  0  0  0  0  0  0  0  0
  -21.8847  -12.5863   21.5913 N   0  0  0  0  0  0  0  0  0  0  0  0
  -30.0805  -15.6936   21.4701 N   0  0  0  0  0  0  0  0  0  0  0  0
  -27.3801  -29.9787   26.1243 N   0  0  0  0  0  0  0  0  0  0  0  0
  -33.9584  -29.4184   27.1656 N   0  0  0  0  0  0  0  0  0  0  0  0
  -36.0604  -26.4811   27.3121 N   0  3  0  0  0  0  0  0  0  0  0  0
  -30.5084  -21.1999   25.5964 O   0  0  0  0  0  0  0  0  0  0  0  0
  -22.6624  -14.7245   21.3055 O   0  0  0  0  0  0  0  0  0  0  0  0
  -29.3021  -30.0134   24.8101 O   0  0  0  0  0  0  0  0  0  0  0  0
  -31.4499  -31.2077   27.6659 O   0  0  0  0  0  0  0  0  0  0  0  0
  -35.2000  -28.4304   25.4746 O   0  0  0  0  0  0  0  0  0  0  0  0
  -31.8589  -14.9316   20.1901 O   0  0  0  0  0  0  0  0  0  0  0  0
  -21.6078   -7.0232   21.7170 O   0  0  0  0  0  0  0  0  0  0  0  0
  -30.3507  -23.5251   24.2559 O   0  0  0  0  0  0  0  0  0  1  0  0
  -16.1403   -7.5587   22.1904 F   0  0  0  0  0  0  0  0  0  0  0  0
  -19.8981   -5.6828   20.0074 F   0  0  0  0  0  0  0  0  0  0  0  0
  -28.1835  -17.5188   23.0050 Cl  0  0  0  0  0  0  0  0  0  0  0  0
  -34.4008  -17.4252   23.5629 Cl  0  0  0  0  0  0  0  0  0  0  0  0
  1  2  1  0  0  0  0
  1  5  2  0  0  0  0
  2  6  2  0  0  0  0
  3  8  2  0  0  0  0
  3 17  1  0  0  0  0
  4  9  1  0  0  0  0
  4 17  2  0  0  0  0
  5 19  1  0  0  0  0
  6 21  1  0  0  0  0
  7 10  2  0  0  0  0
  7 20  1  0  0  0  0
  8 25  1  0  0  0  0
  9 25  2  0  0  0  0
 10 26  1  0  0  0  0
 11 12  2  0  0  0  0
 11 27  1  0  0  0  0
 12 28  1  0  0  0  0
 13 22  1  0  0  0  0
 13 26  2  0  0  0  0
 14 23  1  0  0  0  0
 14 30  2  0  0  0  0
 15 24  2  0  0  0  0
 15 31  1  0  0  0  0
 16 28  2  0  0  0  0
 16 29  1  0  0  0  0
 17 32  1  0  0  0  0
 18 32  1  0  0  0  0
 18 33  2  0  0  0  0
 18 35  1  0  0  0  0
 19 21  2  0  0  0  0
 19 40  1  0  0  0  0
 20 22  2  0  0  0  0
 20 41  1  0  0  0  0
 21 52  1  0  0  0  0
 22 42  1  0  0  0  0
 23 31  2  0  0  0  0
 23 61  1  0  0  0  0
 24 30  1  0  0  0  0
 24 72  1  0  0  0  0
 25 82  1  0  0  0  0
 26 83  1  0  0  0  0
 27 29  2  0  0  0  0
 27 82  1  0  0  0  0
 28 84  1  0  0  0  0
 29 85  1  0  0  0  0
 30 86  1  0  0  0  0
 31 87  1  0  0  0  0
 32 65  2  0  0  0  0
 33 66  1  0  0  0  0
 33 70  1  0  0  0  0
 34 53  1  0  0  0  0
 34 67  1  0  0  0  0
 34 76  2  0  0  0  0
 35 71  1  0  0  0  0
 35 77  2  0  0  0  0
 36 54  1  0  0  0  0
 36 73  1  0  0  0  0
 36 78  2  0  0  0  0
 37 62  1  0  0  0  0
 37 68  1  0  0  0  0
 37 79  2  0  0  0  0
 38 63  1  0  0  0  0
 38 74  1  0  0  0  0
 38 80  2  0  0  0  0
 39 69  1  0  0  0  0
 39 72  1  0  0  0  0
 39 81  2  0  0  0  0
 40 43  1  0  0  0  0
 41 54  1  0  0  0  0
 42 68  1  0  0  0  0
 43 46  1  0  0  0  0
 44 47  1  0  0  0  0
 44 49  1  0  0  0  0
 45 48  1  0  0  0  0
 45 50  1  0  0  0  0
 46 52  1  0  0  0  0
 47 53  1  0  0  0  0
 48 55  1  0  0  0  0
 49 67  1  0  0  0  0
 50 69  1  0  0  0  0
 51 55  1  0  0  0  0
 51 69  1  0  0  0  0
 52 73  1  0  0  0  0
 53 83  1  0  0  0  0
 54 68  1  0  0  0  0
 55 66  1  0  0  0  0
 56 63  1  0  0  0  0
 57 64  1  0  0  0  0
 58 64  1  0  0  0  0
 59 64  1  0  0  0  0
 60 75  1  0  0  0  0
 61 67  1  0  0  0  0
 62 64  1  0  0  0  0
 62 74  1  0  0  0  0
 63 75  1  0  0  0  0
 65 66  1  0  0  0  0
M  CHG  1  75   1
M  ISO  4  39 100  53 101  72 100  83 101
M  END
> <Batch ID>
0037

> <Smiles>
CNC(C)C(=O)NC(C(=O)N1Cc2cc([101O:1][101CH:1]3CCCN(Cc4cc(Cl)c([100NH:0][100C:0](=O)N5CCCC(n6nc(-c7ccc(Oc8ccc(F)cc8F)cc7)c(C(N)=O)c6N)C5)cc4Cl)C3=O)ccc2CC1C(=O)NC1CCCc2ccccc21)C(C)(C)C

> <Shape>
0.194

> <Color>
0.191

> <Negative vol penalty>
0.000

$$$$

  -OEChem-04042321573D

 87 96  0     1  0  0  0  0  0999 V2000
  -29.2260  -32.3698   24.5546 C   0  0  0  0  0  0  0  0  0  0  0  0
  -29.0539  -31.0932   24.0291 C   0  0  0  0  0  0  0  0  0  0  0  0
  -23.8797  -11.9881   23.9806 C   0  0  0  0  0  0  0  0  0  0  0  0
  -24.6437  -14.2791   24.0489 C   0  0  0  0  0  0  0  0  0  0  0  0
  -28.1301  -33.0679   25.0600 C   0  0  0  0  0  0  0  0  0  0  0  0
  -27.7858  -30.5136   24.0096 C   0  0  0  0  0  0  0  0  0  0  0  0
  -26.7382  -28.2802   19.5870 C   0  0  0  0  0  0  0  0  0  0  0  0
  -23.4886  -12.0787   25.3164 C   0  0  0  0  0  0  0  0  0  0  0  0
  -24.2526  -14.3697   25.3847 C   0  0  0  0  0  0  0  0  0  0  0  0
  -27.3061  -27.0281   19.3557 C   0  0  0  0  0  0  0  0  0  0  0  0
  -21.3820  -14.8055   27.1139 C   0  0  0  0  0  0  0  0  0  0  0  0
  -20.6843  -15.9474   27.5074 C   0  0  0  0  0  0  0  0  0  0  0  0
  -25.2201  -25.9772   19.9587 C   0  0  0  0  0  0  0  0  0  0  0  0
  -29.9002  -19.4091   16.5819 C   0  0  0  0  0  0  0  0  0  0  0  0
  -29.8758  -20.2701   18.8390 C   0  0  0  0  0  0  0  0  0  0  0  0
  -22.4255  -16.4622   29.1012 C   0  0  0  0  0  0  0  0  0  0  0  0
  -24.4573  -13.0883   23.3468 C   0  0  0  0  0  0  0  0  0  0  0  0
  -24.0428  -12.7100   20.8583 C   0  0  0  0  0  0  0  0  0  0  0  0
  -26.8463  -32.5004   25.0379 C   0  0  0  0  0  0  0  0  0  0  0  0
  -25.4080  -28.3899   20.0171 C   0  0  0  0  0  0  0  0  0  0  0  0
  -26.6719  -31.2043   24.5164 C   0  0  0  0  0  0  0  0  0  0  0  0
  -24.6369  -27.2320   20.1923 C   0  0  0  0  0  0  0  0  0  0  0  0
  -30.0050  -20.4824   17.4665 C   0  0  0  0  0  0  0  0  0  0  0  0
  -29.6660  -18.1234   17.0698 C   0  0  0  0  0  0  0  0  0  0  0  0
  -29.6416  -18.9845   19.3270 C   0  0  0  0  0  0  0  0  0  0  0  0
  -29.5368  -17.9112   18.4423 C   0  0  0  0  0  0  0  0  0  0  0  0
  -23.6751  -13.2694   26.0185 C   0  0  0  0  0  0  0  0  0  0  0  0
  -26.5480  -25.8763   19.5443 C   0  0  0  0  0  0  0  0  0  0  0  0
  -22.6015  -14.4919   27.7142 C   0  0  0  0  0  0  0  0  0  0  0  0
  -21.2060  -16.7758   28.5009 C   0  0  0  0  0  0  0  0  0  0  0  0
  -23.1232  -15.3203   28.7078 C   0  0  0  0  0  0  0  0  0  0  0  0
  -24.8620  -12.9952   21.9671 C   0  0  0  0  0  0  0  0  0  0  0  0
  -24.8978  -12.7369   19.7837 C   0  0  0  0  0  0  0  0  0  0  0  0
  -28.8006  -23.4831   18.0978 C   0  0  0  0  0  0  0  0  0  0  0  0
  -22.6348  -12.4447   20.8045 C   0  0  0  0  0  0  0  0  0  0  0  0
  -23.9769  -29.5444   22.6099 C   0  0  0  0  0  0  0  0  0  0  0  0
  -21.2774  -28.9054   20.9285 C   0  0  0  0  0  0  0  0  0  0  0  0
  -20.0638  -26.2534   18.8046 C   0  0  0  0  0  0  0  0  0  0  0  0
  -30.1101  -15.4817   18.7820 C   0  0  0  0  0  0  0  0  0  0  0  0
  -25.6999  -33.2747   25.6388 C   0  0  0  0  0  0  0  0  0  0  0  0
  -24.8020  -29.7490   20.2365 C   0  0  0  0  0  0  0  0  0  0  0  0
  -23.1982  -27.2965   20.6334 C   0  0  0  0  0  0  0  0  0  0  0  0
  -24.3274  -32.7393   25.2390 C   0  0  0  0  0  0  0  0  0  0  0  0
  -26.9683  -23.4593   15.8111 C   0  0  0  0  0  0  0  0  0  0  0  0
  -29.4829  -11.9803   18.6267 C   0  0  0  0  0  0  0  0  0  0  0  0
  -24.2847  -31.2211   25.3805 C   0  0  0  0  0  0  0  0  0  0  0  0
  -26.4479  -23.8110   17.1891 C   0  0  0  0  0  0  0  0  0  0  0  0
  -28.1492  -11.8180   19.3595 C   0  0  0  0  0  0  0  0  0  0  0  0
  -28.0686  -22.4202   15.9307 C   0  0  0  0  0  0  0  0  0  0  0  0
  -30.3555  -13.0573   19.2689 C   0  0  0  0  0  0  0  0  0  0  0  0
  -28.3702  -14.1994   20.1764 C   0  0  0  0  0  0  0  0  0  0  0  0
  -25.3079  -30.5517   24.4551 C   0  0  1  0  0  0  0  0  0  0  0  0
  -27.5810  -24.3920   18.0117 C   0  0  1  0  0  0  0  0  0  1  0  0
  -23.5940  -29.7214   21.1678 C   0  0  1  0  0  0  0  0  0  0  0  0
  -27.4299  -13.1709   19.5269 C   0  0  2  0  0  0  0  0  0  0  0  0
  -29.5581  -16.9937   16.0971 C   0  0  0  0  0  0  0  0  0  0  0  0
  -29.5081  -18.7885   20.8027 C   0  0  0  0  0  0  0  0  0  0  0  0
  -18.3863  -26.2958   16.9387 C   0  0  0  0  0  0  0  0  0  0  0  0
  -19.2786  -28.1202   23.0959 C   0  0  0  0  0  0  0  0  0  0  0  0
  -18.1640  -26.6225   21.4278 C   0  0  0  0  0  0  0  0  0  0  0  0
  -18.2515  -29.0834   21.0291 C   0  0  0  0  0  0  0  0  0  0  0  0
  -21.9829  -25.0552   16.8966 C   0  0  0  0  0  0  0  0  0  0  0  0
  -30.2568  -21.8662   16.9413 C   0  0  0  0  0  0  0  0  0  0  0  0
  -20.3624  -27.7130   20.7882 C   0  0  1  0  0  0  0  0  0  0  0  0
  -19.8632  -26.3130   17.3011 C   0  0  2  0  0  0  0  0  0  0  0  0
  -19.0418  -27.8817   21.5913 C   0  0  0  0  0  0  0  0  0  0  0  0
  -26.1393  -13.1888   21.6282 N   0  0  0  0  0  0  0  0  0  0  0  0
  -26.1293  -13.0250   20.2944 N   0  0  0  0  0  0  0  0  0  0  0  0
  -29.0557  -22.6899   16.9775 N   0  0  0  0  0  0  0  0  0  0  0  0
  -22.6529  -28.6481   20.8411 N   0  0  0  0  0  0  0  0  0  0  0  0
  -29.6095  -14.3117   19.3913 N   0  0  0  0  0  0  0  0  0  0  0  0
  -24.7089  -12.5419   18.4614 N   0  0  0  0  0  0  0  0  0  0  0  0
  -21.9065  -12.4561   22.0019 N   0  0  0  0  0  0  0  0  0  0  0  0
  -29.2990  -16.6053   18.9382 N   0  0  0  0  0  0  0  0  0  0  0  0
  -24.8183  -30.5281   23.0934 N   0  0  0  0  0  0  0  0  0  0  0  0
  -20.1694  -27.5127   19.3561 N   0  0  0  0  0  0  0  0  0  0  0  0
  -20.5219  -25.1488   16.6440 N   0  3  0  0  0  0  0  0  0  0  0  0
  -29.5307  -23.5269   19.0914 O   0  0  0  0  0  0  0  0  0  0  0  0
  -22.0432  -12.1883   19.7285 O   0  0  0  0  0  0  0  0  0  0  0  0
  -23.5399  -28.5872   23.2380 O   0  0  0  0  0  0  0  0  0  0  0  0
  -20.7895  -30.0250   21.1019 O   0  0  0  0  0  0  0  0  0  0  0  0
  -20.1175  -25.1956   19.4280 O   0  0  0  0  0  0  0  0  0  0  0  0
  -31.1659  -15.4803   18.1439 O   0  0  0  0  0  0  0  0  0  0  0  0
  -23.2934  -13.3583   27.3220 O   0  0  0  0  0  0  0  0  0  0  0  0
  -27.1000  -24.6529   19.3199 O   0  0  0  0  0  0  0  0  0  1  0  0
  -20.5366  -17.8731   28.8775 F   0  0  0  0  0  0  0  0  0  0  0  0
  -24.2949  -15.0248   29.2872 F   0  0  0  0  0  0  0  0  0  0  0  0
  1  2  1  0  0  0  0
  1  5  2  0  0  0  0
  2  6  2  0  0  0  0
  3  8  2  0  0  0  0
  3 17  1  0  0  0  0
  4  9  1  0  0  0  0
  4 17  2  0  0  0  0
  5 19  1  0  0  0  0
  6 21  1  0  0  0  0
  7 10  2  0  0  0  0
  7 20  1  0  0  0  0
  8 27  1  0  0  0  0
  9 27  2  0  0  0  0
 10 28  1  0  0  0  0
 11 12  2  0  0  0  0
 11 29  1  0  0  0  0
 12 30  1  0  0  0  0
 13 22  1  0  0  0  0
 13 28  2  0  0  0  0
 14 23  1  0  0  0  0
 14 24  2  0  0  0  0
 15 23  2  0  0  0  0
 15 25  1  0  0  0  0
 16 30  2  0  0  0  0
 16 31  1  0  0  0  0
 17 32  1  0  0  0  0
 18 32  1  0  0  0  0
 18 33  2  0  0  0  0
 18 35  1  0  0  0  0
 19 21  2  0  0  0  0
 19 40  1  0  0  0  0
 20 22  2  0  0  0  0
 20 41  1  0  0  0  0
 21 52  1  0  0  0  0
 22 42  1  0  0  0  0
 23 63  1  0  0  0  0
 24 26  1  0  0  0  0
 24 56  1  0  0  0  0
 25 26  2  0  0  0  0
 25 57  1  0  0  0  0
 26 74  1  0  0  0  0
 27 84  1  0  0  0  0
 28 85  1  0  0  0  0
 29 31  2  0  0  0  0
 29 84  1  0  0  0  0
 30 86  1  0  0  0  0
 31 87  1  0  0  0  0
 32 67  2  0  0  0  0
 33 68  1  0  0  0  0
 33 72  1  0  0  0  0
 34 53  1  0  0  0  0
 34 69  1  0  0  0  0
 34 78  2  0  0  0  0
 35 73  1  0  0  0  0
 35 79  2  0  0  0  0
 36 54  1  0  0  0  0
 36 75  1  0  0  0  0
 36 80  2  0  0  0  0
 37 64  1  0  0  0  0
 37 70  1  0  0  0  0
 37 81  2  0  0  0  0
 38 65  1  0  0  0  0
 38 76  1  0  0  0  0
 38 82  2  0  0  0  0
 39 71  1  0  0  0  0
 39 74  1  0  0  0  0
 39 83  2  0  0  0  0
 40 43  1  0  0  0  0
 41 54  1  0  0  0  0
 42 70  1  0  0  0  0
 43 46  1  0  0  0  0
 44 47  1  0  0  0  0
 44 49  1  0  0  0  0
 45 48  1  0  0  0  0
 45 50  1  0  0  0  0
 46 52  1  0  0  0  0
 47 53  1  0  0  0  0
 48 55  1  0  0  0  0
 49 69  1  0  0  0  0
 50 71  1  0  0  0  0
 51 55  1  0  0  0  0
 51 71  1  0  0  0  0
 52 75  1  0  0  0  0
 53 85  1  0  0  0  0
 54 70  1  0  0  0  0
 55 68  1  0  0  0  0
 58 65  1  0  0  0  0
 59 66  1  0  0  0  0
 60 66  1  0  0  0  0
 61 66  1  0  0  0  0
 62 77  1  0  0  0  0
 63 69  1  0  0  0  0
 64 66  1  0  0  0  0
 64 76  1  0  0  0  0
 65 77  1  0  0  0  0
 67 68  1  0  0  0  0
M  CHG  1  77   1
M  ISO  4  39 100  53 101  74 100  85 101
M  END
> <Batch ID>
0037

> <Smiles>
CNC(C)C(=O)NC(C(=O)N1Cc2cc([101O:1][101CH:1]3CCCN(Cc4cc(C)c([100NH:0][100C:0](=O)N5CCCC(n6nc(-c7ccc(Oc8ccc(F)cc8F)cc7)c(C(N)=O)c6N)C5)c(C)c4)C3=O)ccc2CC1C(=O)NC1CCCc2ccccc21)C(C)(C)C

> <Shape>
0.262

> <Color>
0.085

> <Negative vol penalty>
0.000

$$$$

  -OEChem-04042321573D

 87 95  0     1  0  0  0  0  0999 V2000
  -23.0646  -33.9022   16.0792 C   0  0  0  0  0  0  0  0  0  0  0  0
  -24.1590  -33.0454   16.0192 C   0  0  0  0  0  0  0  0  0  0  0  0
  -24.4533   -9.1898   21.5808 C   0  0  0  0  0  0  0  0  0  0  0  0
  -24.2075  -10.7126   23.4402 C   0  0  0  0  0  0  0  0  0  0  0  0
  -22.5756  -34.3210   17.3158 C   0  0  0  0  0  0  0  0  0  0  0  0
  -24.7657  -32.6077   17.1959 C   0  0  0  0  0  0  0  0  0  0  0  0
  -27.3117  -27.1306   18.2084 C   0  0  0  0  0  0  0  0  0  0  0  0
  -24.0897   -8.1248   22.4049 C   0  0  0  0  0  0  0  0  0  0  0  0
  -23.8438   -9.6477   24.2643 C   0  0  0  0  0  0  0  0  0  0  0  0
  -28.6344  -26.6908   18.1770 C   0  0  0  0  0  0  0  0  0  0  0  0
  -22.8763   -5.0565   23.9307 C   0  0  0  0  0  0  0  0  0  0  0  0
  -21.9590   -4.1328   23.4299 C   0  0  0  0  0  0  0  0  0  0  0  0
  -28.7878  -27.0010   20.5644 C   0  0  0  0  0  0  0  0  0  0  0  0
  -26.4854  -20.9447   20.3527 C   0  0  0  0  0  0  0  0  0  0  0  0
  -28.9907  -19.7218   20.4539 C   0  0  0  0  0  0  0  0  0  0  0  0
  -20.3244   -5.8937   23.1763 C   0  0  0  0  0  0  0  0  0  0  0  0
  -24.5123  -10.4837   22.0984 C   0  0  0  0  0  0  0  0  0  0  0  0
  -24.0331  -12.3913   20.4739 C   0  0  0  0  0  0  0  0  0  0  0  0
  -23.1705  -33.8805   18.5086 C   0  0  0  0  0  0  0  0  0  0  0  0
  -26.7196  -27.5199   19.4185 C   0  0  0  0  0  0  0  0  0  0  0  0
  -24.2849  -33.0220   18.4497 C   0  0  0  0  0  0  0  0  0  0  0  0
  -27.4567  -27.4429   20.6088 C   0  0  0  0  0  0  0  0  0  0  0  0
  -27.6223  -21.7056   20.6246 C   0  0  0  0  0  0  0  0  0  0  0  0
  -26.6010  -19.5723   20.1315 C   0  0  0  0  0  0  0  0  0  0  0  0
  -28.8750  -21.0941   20.6751 C   0  0  0  0  0  0  0  0  0  0  0  0
  -27.8537  -18.9609   20.1821 C   0  0  0  0  0  0  0  0  0  0  0  0
  -23.7849   -8.3537   23.7467 C   0  0  0  0  0  0  0  0  0  0  0  0
  -29.3736  -26.6287   19.3547 C   0  0  0  0  0  0  0  0  0  0  0  0
  -22.5177   -6.3988   24.0544 C   0  0  0  0  0  0  0  0  0  0  0  0
  -20.6830   -4.5514   23.0527 C   0  0  0  0  0  0  0  0  0  0  0  0
  -21.2417   -6.8174   23.6772 C   0  0  0  0  0  0  0  0  0  0  0  0
  -24.8884  -11.5842   21.2478 C   0  0  0  0  0  0  0  0  0  0  0  0
  -24.8721  -13.2849   19.8541 C   0  0  0  0  0  0  0  0  0  0  0  0
  -22.6077  -12.3382   20.3284 C   0  0  0  0  0  0  0  0  0  0  0  0
  -25.4846  -30.2240   20.5437 C   0  0  0  0  0  0  0  0  0  0  0  0
  -24.6594  -28.3453   23.0561 C   0  0  0  0  0  0  0  0  0  0  0  0
  -25.2522  -25.5231   24.8811 C   0  0  0  0  0  0  0  0  0  0  0  0
  -29.1700  -16.8226   19.9781 C   0  0  0  0  0  0  0  0  0  0  0  0
  -22.6361  -34.3978   19.8206 C   0  0  0  0  0  0  0  0  0  0  0  0
  -25.2835  -27.9665   19.4394 C   0  0  0  0  0  0  0  0  0  0  0  0
  -26.8611  -27.8301   21.9369 C   0  0  0  0  0  0  0  0  0  0  0  0
  -23.1024  -33.5902   21.0291 C   0  0  0  0  0  0  0  0  0  0  0  0
  -29.9219  -13.3731   19.5172 C   0  0  0  0  0  0  0  0  0  0  0  0
  -24.6031  -33.3289   20.9498 C   0  0  0  0  0  0  0  0  0  0  0  0
  -28.6090  -12.6666   19.8627 C   0  0  0  0  0  0  0  0  0  0  0  0
  -30.1650  -14.5873   20.4118 C   0  0  0  0  0  0  0  0  0  0  0  0
  -27.7472  -14.8467   20.8068 C   0  0  0  0  0  0  0  0  0  0  0  0
  -24.9547  -32.5057   19.7047 C   0  0  1  0  0  0  0  0  0  0  0  0
  -24.9429  -28.8267   20.6525 C   0  0  1  0  0  0  0  0  0  0  0  0
  -27.4270  -13.6553   19.8893 C   0  0  2  0  0  0  0  0  0  0  0  0
  -27.4739  -23.1732   20.8585 C   0  0  0  0  0  0  0  0  0  0  0  0
  -24.4372  -24.2755   26.9002 C   0  0  0  0  0  0  0  0  0  0  0  0
  -24.7246  -18.2436   21.1178 C   0  0  0  0  0  0  0  0  0  0  0  0
  -26.0537  -30.3680   24.8656 C   0  0  0  0  0  0  0  0  0  0  0  0
  -26.0455  -28.6445   26.6816 C   0  0  0  0  0  0  0  0  0  0  0  0
  -23.8884  -29.4897   25.7569 C   0  0  0  0  0  0  0  0  0  0  0  0
  -24.5420  -23.1451   23.2688 C   0  0  0  0  0  0  0  0  0  0  0  0
  -30.1118  -21.8920   20.9659 C   0  0  0  0  0  0  0  0  0  0  0  0
  -32.1289  -24.3621   18.8467 C   0  0  0  0  0  0  0  0  0  0  0  0
  -31.7406  -23.5683   20.0849 C   0  0  0  0  0  0  0  0  0  0  0  0
  -31.0140  -25.2552   18.3163 C   0  0  0  0  0  0  0  0  0  1  0  0
  -25.3181  -27.9465   24.3546 C   0  0  1  0  0  0  0  0  0  0  0  0
  -24.3196  -24.4402   25.3930 C   0  0  2  0  0  0  0  0  0  0  0  0
  -25.3662  -18.7819   19.8424 C   0  0  0  0  0  0  0  0  0  0  0  0
  -25.3385  -29.1066   25.3895 C   0  0  0  0  0  0  0  0  0  0  0  0
  -26.1722  -11.9339   21.1317 N   0  0  0  0  0  0  0  0  0  0  0  0
  -26.1299  -12.9706   20.2776 N   0  0  0  0  0  0  0  0  0  0  0  0
  -25.4553  -28.2663   21.9045 N   0  0  0  0  0  0  0  0  0  0  0  0
  -29.0054  -15.4814   20.3839 N   0  0  0  0  0  0  0  0  0  0  0  0
  -24.6492  -14.3008   18.9935 N   0  0  0  0  0  0  0  0  0  0  0  0
  -21.8999  -11.3577   21.0369 N   0  0  0  0  0  0  0  0  0  0  0  0
  -27.9917  -17.5683   19.9600 N   0  0  0  0  0  0  0  0  0  0  0  0
  -24.6321  -31.1104   19.9136 N   0  0  0  0  0  0  0  0  0  0  0  0
  -24.6235  -26.7485   24.8136 N   0  0  0  0  0  0  0  0  0  0  0  0
  -24.6408  -23.1341   24.7511 N   0  3  0  0  0  0  0  0  0  0  0  0
  -30.5577  -22.7191   19.8107 N   0  3  0  0  0  0  0  0  0  0  0  0
  -21.9821  -13.1261   19.5792 O   0  0  0  0  0  0  0  0  0  0  0  0
  -26.5932  -30.4794   20.9992 O   0  0  0  0  0  0  0  0  0  0  0  0
  -23.4800  -28.7065   23.0623 O   0  0  0  0  0  0  0  0  0  0  0  0
  -26.4224  -25.3047   24.5756 O   0  0  0  0  0  0  0  0  0  0  0  0
  -30.2703  -17.2690   19.6433 O   0  0  0  0  0  0  0  0  0  0  0  0
  -23.4299   -7.3148   24.5511 O   0  0  0  0  0  0  0  0  0  0  0  0
  -30.6649  -26.2005   19.3268 O   0  0  0  0  0  0  0  0  0  1  0  0
  -19.8027   -3.6645   22.5703 F   0  0  0  0  0  0  0  0  0  0  0  0
  -20.8918   -8.1059   23.7926 F   0  0  0  0  0  0  0  0  0  0  0  0
  -25.5999  -17.7075   19.0241 F   0  0  0  0  0  0  0  0  0  0  0  0
  -24.4086  -19.5098   19.1852 F   0  0  0  0  0  0  0  0  0  0  0  0
  1  2  1  0  0  0  0
  1  5  2  0  0  0  0
  2  6  2  0  0  0  0
  3  8  2  0  0  0  0
  3 17  1  0  0  0  0
  4  9  1  0  0  0  0
  4 17  2  0  0  0  0
  5 19  1  0  0  0  0
  6 21  1  0  0  0  0
  7 10  2  0  0  0  0
  7 20  1  0  0  0  0
  8 27  1  0  0  0  0
  9 27  2  0  0  0  0
 10 28  1  0  0  0  0
 11 12  2  0  0  0  0
 11 29  1  0  0  0  0
 12 30  1  0  0  0  0
 13 22  1  0  0  0  0
 13 28  2  0  0  0  0
 14 23  1  0  0  0  0
 14 24  2  0  0  0  0
 15 25  1  0  0  0  0
 15 26  2  0  0  0  0
 16 30  2  0  0  0  0
 16 31  1  0  0  0  0
 17 32  1  0  0  0  0
 18 32  1  0  0  0  0
 18 33  2  0  0  0  0
 18 34  1  0  0  0  0
 19 21  2  0  0  0  0
 19 39  1  0  0  0  0
 20 22  2  0  0  0  0
 20 40  1  0  0  0  0
 21 48  1  0  0  0  0
 22 41  1  0  0  0  0
 23 25  2  0  0  0  0
 23 51  1  0  0  0  0
 24 26  1  0  0  0  0
 24 64  1  0  0  0  0
 25 58  1  0  0  0  0
 26 72  1  0  0  0  0
 27 82  1  0  0  0  0
 28 83  1  0  0  0  0
 29 31  2  0  0  0  0
 29 82  1  0  0  0  0
 30 84  1  0  0  0  0
 31 85  1  0  0  0  0
 32 66  2  0  0  0  0
 33 67  1  0  0  0  0
 33 70  1  0  0  0  0
 34 71  1  0  0  0  0
 34 77  2  0  0  0  0
 35 49  1  0  0  0  0
 35 73  1  0  0  0  0
 35 78  2  0  0  0  0
 36 62  1  0  0  0  0
 36 68  1  0  0  0  0
 36 79  2  0  0  0  0
 37 63  1  0  0  0  0
 37 74  1  0  0  0  0
 37 80  2  0  0  0  0
 38 69  1  0  0  0  0
 38 72  1  0  0  0  0
 38 81  2  0  0  0  0
 39 42  1  0  0  0  0
 40 49  1  0  0  0  0
 41 68  1  0  0  0  0
 42 44  1  0  0  0  0
 43 45  1  0  0  0  0
 43 46  1  0  0  0  0
 44 48  1  0  0  0  0
 45 50  1  0  0  0  0
 46 69  1  0  0  0  0
 47 50  1  0  0  0  0
 47 69  1  0  0  0  0
 48 73  1  0  0  0  0
 49 68  1  0  0  0  0
 50 67  1  0  0  0  0
 52 63  1  0  0  0  0
 53 64  1  0  0  0  0
 54 65  1  0  0  0  0
 55 65  1  0  0  0  0
 56 65  1  0  0  0  0
 57 75  1  0  0  0  0
 58 76  1  0  0  0  0
 59 60  1  0  0  0  0
 59 61  1  0  0  0  0
 60 76  1  0  0  0  0
 61 83  1  0  0  0  0
 62 65  1  0  0  0  0
 62 74  1  0  0  0  0
 63 75  1  0  0  0  0
 64 86  1  0  0  0  0
 64 87  1  0  0  0  0
 66 67  1  0  0  0  0
M  CHG  2  75   1  76   1
M  ISO  4  38 100  61 101  72 100  83 101
M  END
> <Batch ID>
0037

> <Smiles>
CNC(C)C(=O)NC(C(=O)N1Cc2cc([101O:1][101CH2:1]CCNCc3cc([100NH:0][100C:0](=O)N4CCCC(n5nc(-c6ccc(Oc7ccc(F)cc7F)cc6)c(C(N)=O)c5N)C4)c(C(C)(F)F)cc3C)ccc2CC1C(=O)NC1CCCc2ccccc21)C(C)(C)C

> <Shape>
0.269

> <Color>
0.112

> <Negative vol penalty>
0.000

$$$$

  -OEChem-04042321573D

 86 95  0     1  0  0  0  0  0999 V2000
  -30.5692   -8.4866   17.9893 C   0  0  0  0  0  0  0  0  0  0  0  0
  -30.6198   -9.0225   19.2712 C   0  0  0  0  0  0  0  0  0  0  0  0
  -24.5364  -31.5454   24.2269 C   0  0  0  0  0  0  0  0  0  0  0  0
  -25.8241  -29.6642   25.0269 C   0  0  0  0  0  0  0  0  0  0  0  0
  -30.6800   -9.3256   16.8825 C   0  0  0  0  0  0  0  0  0  0  0  0
  -30.7690  -10.3986   19.4467 C   0  0  0  0  0  0  0  0  0  0  0  0
  -30.5834  -18.3170   22.0287 C   0  0  0  0  0  0  0  0  0  0  0  0
  -27.0970  -20.8977   23.5814 C   0  0  0  0  0  0  0  0  0  0  0  0
  -24.9889  -32.3119   25.3008 C   0  0  0  0  0  0  0  0  0  0  0  0
  -26.2767  -30.4308   26.1008 C   0  0  0  0  0  0  0  0  0  0  0  0
  -30.4905  -19.5540   21.3925 C   0  0  0  0  0  0  0  0  0  0  0  0
  -28.5987  -32.8248   26.6465 C   0  0  0  0  0  0  0  0  0  0  0  0
  -29.9574  -32.7650   26.9563 C   0  0  0  0  0  0  0  0  0  0  0  0
  -26.4633  -19.7536   24.0662 C   0  0  0  0  0  0  0  0  0  0  0  0
  -28.8847  -18.6317   19.8467 C   0  0  0  0  0  0  0  0  0  0  0  0
  -24.3112  -20.7517   23.6084 C   0  0  0  0  0  0  0  0  0  0  0  0
  -29.4181  -31.9422   29.1629 C   0  0  0  0  0  0  0  0  0  0  0  0
  -24.9539  -30.2215   24.0900 C   0  0  0  0  0  0  0  0  0  0  0  0
  -24.6704  -29.6924   21.6106 C   0  0  0  0  0  0  0  0  0  0  0  0
  -30.8432  -10.7112   17.0455 C   0  0  0  0  0  0  0  0  0  0  0  0
  -29.8345  -17.2232   21.5711 C   0  0  0  0  0  0  0  0  0  0  0  0
  -30.8585  -11.2647   18.3419 C   0  0  0  0  0  0  0  0  0  0  0  0
  -28.9679  -17.3825   20.4804 C   0  0  0  0  0  0  0  0  0  0  0  0
  -26.3379  -21.9688   23.1101 C   0  0  0  0  0  0  0  0  0  0  0  0
  -24.9450  -21.8958   23.1236 C   0  0  0  0  0  0  0  0  0  0  0  0
  -25.8591  -31.7546   26.2377 C   0  0  0  0  0  0  0  0  0  0  0  0
  -29.6433  -19.7108   20.2995 C   0  0  0  0  0  0  0  0  0  0  0  0
  -27.6496  -32.4433   27.5949 C   0  0  0  0  0  0  0  0  0  0  0  0
  -30.3671  -32.3237   28.2145 C   0  0  0  0  0  0  0  0  0  0  0  0
  -28.0593  -32.0019   28.8531 C   0  0  0  0  0  0  0  0  0  0  0  0
  -25.0704  -19.6806   24.0797 C   0  0  0  0  0  0  0  0  0  0  0  0
  -24.4863  -29.4290   22.9812 C   0  0  0  0  0  0  0  0  0  0  0  0
  -24.0422  -28.6504   20.9733 C   0  0  0  0  0  0  0  0  0  0  0  0
  -27.6904  -24.4929   20.6567 C   0  0  0  0  0  0  0  0  0  0  0  0
  -26.9261  -25.5177   20.2500 C   0  0  0  0  0  0  0  0  0  0  0  0
  -25.3486  -30.7816   20.9707 C   0  0  0  0  0  0  0  0  0  0  0  0
  -30.5407  -14.3582   20.3894 C   0  0  0  0  0  0  0  0  0  0  0  0
  -27.3302  -13.9270   20.5606 C   0  0  0  0  0  0  0  0  0  0  0  0
  -24.3714  -15.8701   19.8627 C   0  0  0  0  0  0  0  0  0  0  0  0
  -22.7648  -23.0445   22.6005 C   0  0  0  0  0  0  0  0  0  0  0  0
  -30.9501  -11.5738   15.8127 C   0  0  0  0  0  0  0  0  0  0  0  0
  -29.9259  -15.9025   22.2850 C   0  0  0  0  0  0  0  0  0  0  0  0
  -28.1273  -16.2449   19.9628 C   0  0  0  0  0  0  0  0  0  0  0  0
  -29.1943  -24.5343   20.6401 C   0  0  0  0  0  0  0  0  0  0  0  0
  -31.5472  -12.9479   16.0986 C   0  0  0  0  0  0  0  0  0  0  0  0
  -29.7509  -23.3044   19.9331 C   0  0  0  0  0  0  0  0  0  0  0  0
  -20.4507  -25.5335   21.5390 C   0  0  0  0  0  0  0  0  0  0  0  0
  -30.8398  -13.5854   17.2851 C   0  0  0  0  0  0  0  0  0  0  0  0
  -21.2416  -26.8383   21.6579 C   0  0  0  0  0  0  0  0  0  0  0  0
  -20.7945  -24.5575   22.6628 C   0  0  0  0  0  0  0  0  0  0  0  0
  -23.0177  -25.5811   22.9432 C   0  0  0  0  0  0  0  0  0  0  0  0
  -27.5875  -22.0857   20.3798 C   0  0  0  0  0  0  0  0  0  0  0  0
  -31.0509  -12.7550   18.5574 C   0  0  1  0  0  0  0  0  0  0  0  0
  -29.5045  -14.7225   21.4147 C   0  0  1  0  0  0  0  0  0  0  0  0
  -22.7531  -26.5703   21.7964 C   0  0  2  0  0  0  0  0  0  0  0  0
  -29.1105  -22.0211   20.4620 C   0  0  1  0  0  0  0  0  0  1  0  0
  -22.0624  -15.7332   20.8359 C   0  0  0  0  0  0  0  0  0  0  0  0
  -26.7429  -12.1250   18.1694 C   0  0  0  0  0  0  0  0  0  0  0  0
  -24.4826  -13.1898   18.0107 C   0  0  0  0  0  0  0  0  0  0  0  0
  -25.1176  -11.9145   20.0584 C   0  0  0  0  0  0  0  0  0  0  0  0
  -24.4055  -18.7247   20.6433 C   0  0  0  0  0  0  0  0  0  0  0  0
  -27.0466  -23.1866   22.5945 C   0  0  0  0  0  0  0  0  0  0  0  0
  -26.1672  -14.1744   19.6304 C   0  0  1  0  0  0  0  0  0  0  0  0
  -23.4036  -16.4489   20.8790 C   0  0  2  0  0  0  0  0  0  0  0  0
  -25.6512  -12.8668   18.9661 C   0  0  0  0  0  0  0  0  0  0  0  0
  -23.7952  -28.3077   23.2025 N   0  0  0  0  0  0  0  0  0  0  0  0
  -23.5394  -27.8573   21.9624 N   0  0  0  0  0  0  0  0  0  0  0  0
  -28.2564  -14.9716   20.6905 N   0  0  0  0  0  0  0  0  0  0  0  0
  -22.2425  -24.3487   22.7313 N   0  0  0  0  0  0  0  0  0  0  0  0
  -23.8764  -28.3444   19.6690 N   0  0  0  0  0  0  0  0  0  0  0  0
  -25.9389  -31.7660   21.7749 N   0  0  0  0  0  0  0  0  0  0  0  0
  -24.1567  -22.9734   22.6491 N   0  0  0  0  0  0  0  0  0  0  0  0
  -30.1993  -13.2725   19.6057 N   0  0  0  0  0  0  0  0  0  0  0  0
  -25.1616  -14.8837   20.4139 N   0  0  0  0  0  0  0  0  0  0  0  0
  -27.0249  -23.2900   21.0945 N   0  3  1  0  0  0  0  0  0  0  0  0
  -23.1729  -17.8962   20.6088 N   0  3  0  0  0  0  0  0  0  0  0  0
  -25.4147  -30.8876   19.7225 O   0  0  0  0  0  0  0  0  0  0  0  0
  -31.5729  -15.0144   20.3140 O   0  0  0  0  0  0  0  0  0  0  0  0
  -27.4101  -12.8495   21.1557 O   0  0  0  0  0  0  0  0  0  0  0  0
  -24.4190  -16.2521   18.6955 O   0  0  0  0  0  0  0  0  0  0  0  0
  -22.0328  -22.0665   22.4287 O   0  0  0  0  0  0  0  0  0  0  0  0
  -26.3011  -32.5024   27.2856 O   0  0  0  0  0  0  0  0  0  0  0  0
  -29.5512  -20.9170   19.6763 O   0  0  0  0  0  0  0  0  0  1  0  0
  -31.6719  -32.2649   28.5113 F   0  0  0  0  0  0  0  0  0  0  0  0
  -27.1523  -31.6330   29.7680 F   0  0  0  0  0  0  0  0  0  0  0  0
  -24.2893  -18.2687   24.6782 Cl  0  0  0  0  0  0  0  0  0  0  0  0
  1  2  1  0  0  0  0
  1  5  2  0  0  0  0
  2  6  2  0  0  0  0
  3  9  2  0  0  0  0
  3 18  1  0  0  0  0
  4 10  1  0  0  0  0
  4 18  2  0  0  0  0
  5 20  1  0  0  0  0
  6 22  1  0  0  0  0
  7 11  2  0  0  0  0
  7 21  1  0  0  0  0
  8 14  2  0  0  0  0
  8 24  1  0  0  0  0
  9 26  1  0  0  0  0
 10 26  2  0  0  0  0
 11 27  1  0  0  0  0
 12 13  2  0  0  0  0
 12 28  1  0  0  0  0
 13 29  1  0  0  0  0
 14 31  1  0  0  0  0
 15 23  1  0  0  0  0
 15 27  2  0  0  0  0
 16 25  1  0  0  0  0
 16 31  2  0  0  0  0
 17 29  2  0  0  0  0
 17 30  1  0  0  0  0
 18 32  1  0  0  0  0
 19 32  1  0  0  0  0
 19 33  2  0  0  0  0
 19 36  1  0  0  0  0
 20 22  2  0  0  0  0
 20 41  1  0  0  0  0
 21 23  2  0  0  0  0
 21 42  1  0  0  0  0
 22 53  1  0  0  0  0
 23 43  1  0  0  0  0
 24 25  2  0  0  0  0
 24 62  1  0  0  0  0
 25 72  1  0  0  0  0
 26 82  1  0  0  0  0
 27 83  1  0  0  0  0
 28 30  2  0  0  0  0
 28 82  1  0  0  0  0
 29 84  1  0  0  0  0
 30 85  1  0  0  0  0
 31 86  1  0  0  0  0
 32 66  2  0  0  0  0
 33 67  1  0  0  0  0
 33 70  1  0  0  0  0
 34 35  2  0  0  0  0
 34 44  1  0  0  0  0
 34 75  1  0  0  0  0
 36 71  1  0  0  0  0
 36 77  2  0  0  0  0
 37 54  1  0  0  0  0
 37 73  1  0  0  0  0
 37 78  2  0  0  0  0
 38 63  1  0  0  0  0
 38 68  1  0  0  0  0
 38 79  2  0  0  0  0
 39 64  1  0  0  0  0
 39 74  1  0  0  0  0
 39 80  2  0  0  0  0
 40 69  1  0  0  0  0
 40 72  1  0  0  0  0
 40 81  2  0  0  0  0
 41 45  1  0  0  0  0
 42 54  1  0  0  0  0
 43 68  1  0  0  0  0
 44 46  1  0  0  0  0
 45 48  1  0  0  0  0
 46 56  1  0  0  0  0
 47 49  1  0  0  0  0
 47 50  1  0  0  0  0
 48 53  1  0  0  0  0
 49 55  1  0  0  0  0
 50 69  1  0  0  0  0
 51 55  1  0  0  0  0
 51 69  1  0  0  0  0
 52 56  1  0  0  0  0
 52 75  1  0  0  0  0
 53 73  1  0  0  0  0
 54 68  1  0  0  0  0
 55 67  1  0  0  0  0
 56 83  1  0  0  0  0
 57 64  1  0  0  0  0
 58 65  1  0  0  0  0
 59 65  1  0  0  0  0
 60 65  1  0  0  0  0
 61 76  1  0  0  0  0
 62 75  1  0  0  0  0
 63 65  1  0  0  0  0
 63 74  1  0  0  0  0
 64 76  1  0  0  0  0
 66 67  1  0  0  0  0
M  CHG  2  75   1  76   1
M  ISO  4  40 100  56 101  72 100  83 101
M  END
> <Batch ID>
0037

> <Smiles>
C=C1CC[101CH:1]([101O:1]c2ccc3c(c2)CN(C(=O)C(NC(=O)C(C)NC)C(C)(C)C)C(C(=O)NC2CCCc4ccccc42)C3)CN1Cc1ccc(Cl)cc1[100NH:0][100C:0](=O)N1CCCC(n2nc(-c3ccc(Oc4ccc(F)cc4F)cc3)c(C(N)=O)c2N)C1

> <Shape>
0.245

> <Color>
0.057

> <Negative vol penalty>
0.000

$$$$

  -OEChem-04042321573D

 96106  0     1  0  0  0  0  0999 V2000
  -21.7303  -19.1356   23.4326 C   0  0  0  0  0  0  0  0  0  0  0  0
  -23.0638  -19.5319   23.4238 C   0  0  0  0  0  0  0  0  0  0  0  0
  -22.7181  -10.1275   20.2846 C   0  0  0  0  0  0  0  0  0  0  0  0
  -24.2435   -9.6566   22.0979 C   0  0  0  0  0  0  0  0  0  0  0  0
  -20.7502  -19.9785   22.9102 C   0  0  0  0  0  0  0  0  0  0  0  0
  -23.4182  -20.7710   22.8914 C   0  0  0  0  0  0  0  0  0  0  0  0
  -26.7104  -23.2719   25.8157 C   0  0  0  0  0  0  0  0  0  0  0  0
  -21.9978   -8.9729   20.5907 C   0  0  0  0  0  0  0  0  0  0  0  0
  -23.5232   -8.5021   22.4041 C   0  0  0  0  0  0  0  0  0  0  0  0
  -28.0450  -22.8730   25.7569 C   0  0  0  0  0  0  0  0  0  0  0  0
  -23.2509   -5.3476   21.2183 C   0  0  0  0  0  0  0  0  0  0  0  0
  -23.9729   -4.1810   21.4701 C   0  0  0  0  0  0  0  0  0  0  0  0
  -28.5248  -24.7172   24.2777 C   0  0  0  0  0  0  0  0  0  0  0  0
  -30.9458  -17.9048   20.4531 C   0  0  0  0  0  0  0  0  0  0  0  0
  -23.0211   -4.0707   23.6880 C   0  0  0  0  0  0  0  0  0  0  0  0
  -23.8410  -10.4693   21.0381 C   0  0  0  0  0  0  0  0  0  0  0  0
  -24.1092  -12.9861   20.7197 C   0  0  0  0  0  0  0  0  0  0  0  0
  -21.0916  -21.2326   22.3799 C   0  0  0  0  0  0  0  0  0  0  0  0
  -26.2699  -24.3919   25.0960 C   0  0  0  0  0  0  0  0  0  0  0  0
  -22.4420  -21.6309   22.3602 C   0  0  0  0  0  0  0  0  0  0  0  0
  -27.1846  -25.1297   24.3311 C   0  0  0  0  0  0  0  0  0  0  0  0
  -31.0861  -19.2875   20.3353 C   0  0  0  0  0  0  0  0  0  0  0  0
  -29.3525  -19.6043   21.9880 C   0  0  0  0  0  0  0  0  0  0  0  0
  -30.2895  -20.1373   21.1027 C   0  0  0  0  0  0  0  0  0  0  0  0
  -29.2122  -18.2215   22.1058 C   0  0  0  0  0  0  0  0  0  0  0  0
  -30.0088  -17.3718   21.3384 C   0  0  0  0  0  0  0  0  0  0  0  0
  -22.4003   -8.1602   21.6505 C   0  0  0  0  0  0  0  0  0  0  0  0
  -28.9519  -23.5940   24.9855 C   0  0  0  0  0  0  0  0  0  0  0  0
  -22.4141   -5.8758   22.2014 C   0  0  0  0  0  0  0  0  0  0  0  0
  -23.8580   -3.5425   22.7049 C   0  0  0  0  0  0  0  0  0  0  0  0
  -22.2992   -5.2373   23.4362 C   0  0  0  0  0  0  0  0  0  0  0  0
  -24.5859  -11.6615   20.7220 C   0  0  0  0  0  0  0  0  0  0  0  0
  -25.1966  -13.7417   20.3549 C   0  0  0  0  0  0  0  0  0  0  0  0
  -31.4752  -22.2236   23.0748 C   0  0  0  0  0  0  0  0  0  0  0  0
  -31.7717  -21.1113   23.7722 C   0  0  0  0  0  0  0  0  0  0  0  0
  -22.8005  -13.4886   21.0206 C   0  0  0  0  0  0  0  0  0  0  0  0
  -24.1693  -24.8728   22.7595 C   0  0  0  0  0  0  0  0  0  0  0  0
  -24.8681  -27.9937   23.3017 C   0  0  0  0  0  0  0  0  0  0  0  0
  -27.0849  -30.3031   24.4845 C   0  0  0  0  0  0  0  0  0  0  0  0
  -30.6071  -14.9977   20.7450 C   0  0  0  0  0  0  0  0  0  0  0  0
  -20.0031  -22.0893   21.7834 C   0  0  0  0  0  0  0  0  0  0  0  0
  -24.8326  -24.8249   25.1913 C   0  0  0  0  0  0  0  0  0  0  0  0
  -26.7665  -26.3515   23.5559 C   0  0  0  0  0  0  0  0  0  0  0  0
  -20.4165  -23.5445   21.5788 C   0  0  0  0  0  0  0  0  0  0  0  0
  -30.4947  -18.8250   15.1543 C   0  0  0  0  0  0  0  0  0  0  0  0
  -31.8771  -18.1870   15.2794 C   0  0  0  0  0  0  0  0  0  0  0  0
  -32.8198  -25.0687   22.8789 C   0  0  0  0  0  0  0  0  0  0  0  0
  -29.7114  -12.3534   18.5353 C   0  0  0  0  0  0  0  0  0  0  0  0
  -29.8554  -19.2670   16.4670 C   0  0  0  0  0  0  0  0  0  0  0  0
  -32.9530  -19.1967   15.6677 C   0  0  0  0  0  0  0  0  0  0  0  0
  -33.2941  -24.1003   21.7943 C   0  0  0  0  0  0  0  0  0  0  0  0
  -21.7923  -23.6216   20.9246 C   0  0  0  0  0  0  0  0  0  0  0  0
  -32.1222  -24.4277   24.0765 C   0  0  0  0  0  0  0  0  0  0  0  0
  -28.2589  -12.0466   18.9071 C   0  0  0  0  0  0  0  0  0  0  0  0
  -30.5463  -12.7162   19.7622 C   0  0  0  0  0  0  0  0  0  0  0  0
  -28.5392  -13.4844   20.9665 C   0  0  0  0  0  0  0  0  0  0  0  0
  -32.1437  -23.4516   21.0278 C   0  0  0  0  0  0  0  0  0  0  0  0
  -30.7048  -20.1918   17.3312 C   0  0  0  0  0  0  0  0  0  0  0  0
  -33.1306  -19.4383   17.1618 C   0  0  0  0  0  0  0  0  0  0  0  0
  -22.8629  -22.9780   21.8140 C   0  0  1  0  0  0  0  0  0  0  0  0
  -30.9647  -23.4932   23.7180 C   0  0  2  0  0  0  0  0  0  1  0  0
  -24.3863  -25.6791   24.0087 C   0  0  1  0  0  0  0  0  0  0  0  0
  -27.6435  -13.1768   19.7554 C   0  0  2  0  0  0  0  0  0  0  0  0
  -28.4981  -20.5165   22.8108 C   0  0  0  0  0  0  0  0  0  0  0  0
  -28.2047  -17.6520   23.0552 C   0  0  0  0  0  0  0  0  0  0  0  0
  -27.3928  -32.7786   24.7579 C   0  0  0  0  0  0  0  0  0  0  0  0
  -25.4843  -28.2435   20.3238 C   0  0  0  0  0  0  0  0  0  0  0  0
  -26.6660  -30.3943   20.8198 C   0  0  0  0  0  0  0  0  0  0  0  0
  -24.2269  -30.1751   21.2945 C   0  0  0  0  0  0  0  0  0  0  0  0
  -27.2635  -30.0728   27.4297 C   0  0  0  0  0  0  0  0  0  0  0  0
  -32.0942  -19.8328   19.3773 C   0  0  0  0  0  0  0  0  0  0  0  0
  -30.4421  -21.6242   20.9725 C   0  0  0  0  0  0  0  0  0  0  0  0
  -25.8897  -28.9688   22.7683 C   0  0  1  0  0  0  0  0  0  0  0  0
  -26.9021  -31.4942   25.4078 C   0  0  2  0  0  0  0  0  0  0  0  0
  -25.5745  -29.4213   21.3145 C   0  0  0  0  0  0  0  0  0  0  0  0
  -25.8756  -11.5771   20.3852 N   0  0  0  0  0  0  0  0  0  0  0  0
  -26.2186  -12.8582   20.1678 N   0  0  0  0  0  0  0  0  0  0  0  0
  -25.3491  -26.7310   23.6760 N   0  0  0  0  0  0  0  0  0  0  0  0
  -29.9041  -13.7962   20.5145 N   0  0  0  0  0  0  0  0  0  0  0  0
  -25.3687  -15.0691   20.1790 N   0  0  0  0  0  0  0  0  0  0  0  0
  -21.7998  -12.5747   21.3779 N   0  0  0  0  0  0  0  0  0  0  0  0
  -29.8836  -15.9642   21.4428 N   0  0  0  0  0  0  0  0  0  0  0  0
  -23.2271  -23.8708   22.8931 N   0  0  0  0  0  0  0  0  0  0  0  0
  -25.9543  -30.0610   23.7333 N   0  0  0  0  0  0  0  0  0  0  0  0
  -31.6844  -22.1520   21.6459 N   0  3  2  0  0  0  0  0  0  0  0  0
  -31.8461  -19.4158   17.9478 N   0  3  0  0  0  0  0  0  0  0  0  0
  -27.6603  -31.2889   26.6743 N   0  3  0  0  0  0  0  0  0  0  0  0
  -22.5224  -14.7102   20.9580 O   0  0  0  0  0  0  0  0  0  0  0  0
  -24.8081  -25.1409   21.7487 O   0  0  0  0  0  0  0  0  0  0  0  0
  -23.6880  -28.3420   23.3898 O   0  0  0  0  0  0  0  0  0  0  0  0
  -28.1277  -29.6549   24.4320 O   0  0  0  0  0  0  0  0  0  0  0  0
  -31.7559  -15.1675   20.3286 O   0  0  0  0  0  0  0  0  0  0  0  0
  -21.6975   -7.0337   21.9497 O   0  0  0  0  0  0  0  0  0  0  0  0
  -30.2550  -23.2064   24.9259 O   0  0  0  0  0  0  0  0  0  1  0  0
  -24.5501   -2.4213   22.9459 F   0  0  0  0  0  0  0  0  0  0  0  0
  -21.4960   -5.7394   24.3842 F   0  0  0  0  0  0  0  0  0  0  0  0
  1  2  1  0  0  0  0
  1  5  2  0  0  0  0
  2  6  2  0  0  0  0
  3  8  2  0  0  0  0
  3 16  1  0  0  0  0
  4  9  1  0  0  0  0
  4 16  2  0  0  0  0
  5 18  1  0  0  0  0
  6 20  1  0  0  0  0
  7 10  2  0  0  0  0
  7 19  1  0  0  0  0
  8 27  1  0  0  0  0
  9 27  2  0  0  0  0
 10 28  1  0  0  0  0
 11 12  2  0  0  0  0
 11 29  1  0  0  0  0
 12 30  1  0  0  0  0
 13 21  1  0  0  0  0
 13 28  2  0  0  0  0
 14 22  2  0  0  0  0
 14 26  1  0  0  0  0
 15 30  2  0  0  0  0
 15 31  1  0  0  0  0
 16 32  1  0  0  0  0
 17 32  1  0  0  0  0
 17 33  2  0  0  0  0
 17 36  1  0  0  0  0
 18 20  2  0  0  0  0
 18 41  1  0  0  0  0
 19 21  2  0  0  0  0
 19 42  1  0  0  0  0
 20 60  1  0  0  0  0
 21 43  1  0  0  0  0
 22 24  1  0  0  0  0
 22 71  1  0  0  0  0
 23 24  2  0  0  0  0
 23 25  1  0  0  0  0
 23 64  1  0  0  0  0
 24 72  1  0  0  0  0
 25 26  2  0  0  0  0
 25 65  1  0  0  0  0
 26 82  1  0  0  0  0
 27 93  1  0  0  0  0
 28 94  1  0  0  0  0
 29 31  2  0  0  0  0
 29 93  1  0  0  0  0
 30 95  1  0  0  0  0
 31 96  1  0  0  0  0
 32 76  2  0  0  0  0
 33 77  1  0  0  0  0
 33 80  1  0  0  0  0
 34 35  2  0  0  0  0
 34 61  1  0  0  0  0
 34 85  1  0  0  0  0
 36 81  1  0  0  0  0
 36 88  2  0  0  0  0
 37 62  1  0  0  0  0
 37 83  1  0  0  0  0
 37 89  2  0  0  0  0
 38 73  1  0  0  0  0
 38 78  1  0  0  0  0
 38 90  2  0  0  0  0
 39 74  1  0  0  0  0
 39 84  1  0  0  0  0
 39 91  2  0  0  0  0
 40 79  1  0  0  0  0
 40 82  1  0  0  0  0
 40 92  2  0  0  0  0
 41 44  1  0  0  0  0
 42 62  1  0  0  0  0
 43 78  1  0  0  0  0
 44 52  1  0  0  0  0
 45 46  1  0  0  0  0
 45 49  1  0  0  0  0
 46 50  1  0  0  0  0
 47 51  1  0  0  0  0
 47 53  1  0  0  0  0
 48 54  1  0  0  0  0
 48 55  1  0  0  0  0
 49 58  1  0  0  0  0
 50 59  1  0  0  0  0
 51 57  1  0  0  0  0
 52 60  1  0  0  0  0
 53 61  1  0  0  0  0
 54 63  1  0  0  0  0
 55 79  1  0  0  0  0
 56 63  1  0  0  0  0
 56 79  1  0  0  0  0
 57 85  1  0  0  0  0
 58 86  1  0  0  0  0
 59 86  1  0  0  0  0
 60 83  1  0  0  0  0
 61 94  1  0  0  0  0
 62 78  1  0  0  0  0
 63 77  1  0  0  0  0
 66 74  1  0  0  0  0
 67 75  1  0  0  0  0
 68 75  1  0  0  0  0
 69 75  1  0  0  0  0
 70 87  1  0  0  0  0
 71 86  1  0  0  0  0
 72 85  1  0  0  0  0
 73 75  1  0  0  0  0
 73 84  1  0  0  0  0
 74 87  1  0  0  0  0
 76 77  1  0  0  0  0
M  CHG  3  85   1  86   1  87   1
M  ISO  4  40 100  61 101  82 100  94 101
M  END
> <Batch ID>
0037

> <Smiles>
C=C1N(Cc2c(CN3CCCCCC3)cc([100NH:0][100C:0](=O)N3CCCC(n4nc(-c5ccc(Oc6ccc(F)cc6F)cc5)c(C(N)=O)c4N)C3)c(C)c2C)CCCC[101CH:1]1[101O:1]c1ccc2c(c1)CN(C(=O)C(NC(=O)C(C)NC)C(C)(C)C)C(C(=O)NC1CCCc3ccccc31)C2

> <Shape>
0.255

> <Color>
0.186

> <Negative vol penalty>
0.000

$$$$

  -OEChem-04042321573D

 88 97  0     1  0  0  0  0  0999 V2000
  -20.6958  -16.7699   25.6239 C   0  0  0  0  0  0  0  0  0  0  0  0
  -20.5808  -18.0804   26.0764 C   0  0  0  0  0  0  0  0  0  0  0  0
  -28.4600  -13.9164   21.2002 C   0  0  0  0  0  0  0  0  0  0  0  0
  -26.6175  -14.9842   20.0592 C   0  0  0  0  0  0  0  0  0  0  0  0
  -21.5324  -16.4760   24.5480 C   0  0  0  0  0  0  0  0  0  0  0  0
  -21.3033  -19.0977   25.4539 C   0  0  0  0  0  0  0  0  0  0  0  0
  -20.8578  -26.0528   23.7976 C   0  0  0  0  0  0  0  0  0  0  0  0
  -27.7316  -12.7286   21.2649 C   0  0  0  0  0  0  0  0  0  0  0  0
  -25.8890  -13.7964   20.1238 C   0  0  0  0  0  0  0  0  0  0  0  0
  -21.5767  -27.2400   23.9309 C   0  0  0  0  0  0  0  0  0  0  0  0
  -24.0735  -12.1093   22.4235 C   0  0  0  0  0  0  0  0  0  0  0  0
  -22.7361  -12.1896   22.8115 C   0  0  0  0  0  0  0  0  0  0  0  0
  -22.9301  -26.6267   22.0305 C   0  0  0  0  0  0  0  0  0  0  0  0
  -27.5230  -27.5376   20.3095 C   0  0  0  0  0  0  0  0  0  0  0  0
  -28.6948  -28.2374   22.7426 C   0  0  0  0  0  0  0  0  0  0  0  0
  -22.0655  -11.2296   20.6982 C   0  0  0  0  0  0  0  0  0  0  0  0
  -27.9029  -15.0442   20.5974 C   0  0  0  0  0  0  0  0  0  0  0  0
  -29.8973  -16.4743   19.9012 C   0  0  0  0  0  0  0  0  0  0  0  0
  -22.2581  -17.4917   23.9058 C   0  0  0  0  0  0  0  0  0  0  0  0
  -21.1773  -25.1371   22.7848 C   0  0  0  0  0  0  0  0  0  0  0  0
  -22.1515  -18.8169   24.3692 C   0  0  0  0  0  0  0  0  0  0  0  0
  -22.2121  -25.4298   21.8850 C   0  0  0  0  0  0  0  0  0  0  0  0
  -28.5285  -26.7392   20.8545 C   0  0  0  0  0  0  0  0  0  0  0  0
  -27.6893  -29.0359   22.1975 C   0  0  0  0  0  0  0  0  0  0  0  0
  -26.4461  -12.6686   20.7267 C   0  0  0  0  0  0  0  0  0  0  0  0
  -22.6149  -27.5257   23.0491 C   0  0  0  0  0  0  0  0  0  0  0  0
  -24.4069  -11.5893   21.1728 C   0  0  0  0  0  0  0  0  0  0  0  0
  -21.7321  -11.7497   21.9489 C   0  0  0  0  0  0  0  0  0  0  0  0
  -23.4029  -11.1494   20.3102 C   0  0  0  0  0  0  0  0  0  0  0  0
  -29.1143  -27.0890   22.0710 C   0  0  0  0  0  0  0  0  0  0  0  0
  -27.1034  -28.6860   20.9809 C   0  0  0  0  0  0  0  0  0  0  0  0
  -28.6546  -16.2716   20.5308 C   0  0  0  0  0  0  0  0  0  0  0  0
  -30.1814  -17.8000   20.1209 C   0  0  0  0  0  0  0  0  0  0  0  0
  -30.7212  -15.5471   19.1820 C   0  0  0  0  0  0  0  0  0  0  0  0
  -22.1885  -22.1243   22.7221 C   0  0  0  0  0  0  0  0  0  0  0  0
  -21.7561  -22.4553   19.5244 C   0  0  0  0  0  0  0  0  0  0  0  0
  -21.5541  -24.5379   16.8283 C   0  0  0  0  0  0  0  0  0  0  0  0
  -28.6506  -23.0539   20.1347 C   0  0  0  0  0  0  0  0  0  0  0  0
  -23.1861  -17.1183   22.7770 C   0  0  0  0  0  0  0  0  0  0  0  0
  -20.3749  -23.8734   22.6379 C   0  0  0  0  0  0  0  0  0  0  0  0
  -22.5815  -24.4893   20.7681 C   0  0  0  0  0  0  0  0  0  0  0  0
  -23.6294  -18.3107   21.9332 C   0  0  0  0  0  0  0  0  0  0  0  0
  -27.9646  -21.1852   23.1570 C   0  0  0  0  0  0  0  0  0  0  0  0
  -24.0621  -19.4671   22.8289 C   0  0  0  0  0  0  0  0  0  0  0  0
  -28.1884  -19.7479   22.6834 C   0  0  0  0  0  0  0  0  0  0  0  0
  -23.4814  -30.1422   25.1032 C   0  0  0  0  0  0  0  0  0  0  0  0
  -23.8443  -31.4056   24.3313 C   0  0  0  0  0  0  0  0  0  0  0  0
  -27.3081  -22.0298   22.0691 C   0  0  0  0  0  0  0  0  0  0  0  0
  -28.2689  -20.6105   20.2981 C   0  0  0  0  0  0  0  0  0  0  0  0
  -25.4980  -28.9858   24.1259 C   0  0  0  0  0  0  0  0  0  0  0  0
  -22.8999  -19.9517   23.7042 C   0  0  1  0  0  0  0  0  0  0  0  0
  -21.1219  -22.7751   21.8876 C   0  0  1  0  0  0  0  0  0  0  0  0
  -28.9504  -19.7111   21.3454 C   0  0  2  0  0  0  0  0  0  0  0  0
  -24.0061  -28.8918   24.4089 C   0  0  2  0  0  0  0  0  0  1  0  0
  -25.3500  -31.5095   24.0611 C   0  0  2  0  0  0  0  0  0  0  0  0
  -25.6388  -32.7510   23.2193 C   0  0  0  0  0  0  0  0  0  0  0  0
  -21.2320  -24.5132   14.3398 C   0  0  0  0  0  0  0  0  0  0  0  0
  -24.6344  -21.5091   19.1637 C   0  0  0  0  0  0  0  0  0  0  0  0
  -24.5599  -22.3981   16.8244 C   0  0  0  0  0  0  0  0  0  0  0  0
  -23.0116  -20.5666   17.5106 C   0  0  0  0  0  0  0  0  0  0  0  0
  -19.0782  -26.1484   17.0162 C   0  0  0  0  0  0  0  0  0  0  0  0
  -28.9489  -25.5170   20.1038 C   0  0  0  0  0  0  0  0  0  0  0  0
  -27.2665  -30.2631   22.9499 C   0  0  0  0  0  0  0  0  0  0  0  0
  -22.6165  -22.9110   18.3707 C   0  0  1  0  0  0  0  0  0  0  0  0
  -20.5488  -24.6226   15.6940 C   0  0  2  0  0  0  0  0  0  0  0  0
  -23.7002  -21.8633   17.9895 C   0  0  0  0  0  0  0  0  0  0  0  0
  -28.1819  -17.3798   21.1073 N   0  0  0  0  0  0  0  0  0  0  0  0
  -29.1326  -18.2916   20.8410 N   0  0  0  0  0  0  0  0  0  0  0  0
  -21.7715  -23.2638   20.6697 N   0  0  0  0  0  0  0  0  0  0  0  0
  -28.0926  -21.9669   20.8278 N   0  0  0  0  0  0  0  0  0  0  0  0
  -31.2236  -18.5815   19.7666 N   0  0  0  0  0  0  0  0  0  0  0  0
  -30.5266  -15.4125   17.8006 N   0  0  0  0  0  0  0  0  0  0  0  0
  -21.9928  -20.7724   22.9309 N   0  0  0  0  0  0  0  0  0  0  0  0
  -21.7006  -23.2453   17.2855 N   0  0  0  0  0  0  0  0  0  0  0  0
  -28.4320  -24.3047   20.6989 N   0  0  0  0  0  0  0  0  0  0  0  0
  -25.8066  -30.2469   23.3358 N   0  3  1  0  0  0  0  0  0  0  0  0
  -19.8159  -25.9191   15.7472 N   0  3  0  0  0  0  0  0  0  0  0  0
  -31.5927  -14.8464   19.7504 O   0  0  0  0  0  0  0  0  0  0  0  0
  -23.1208  -22.7984   23.1441 O   0  0  0  0  0  0  0  0  0  0  0  0
  -21.0892  -21.4238   19.4108 O   0  0  0  0  0  0  0  0  0  0  0  0
  -22.1526  -25.5196   17.2627 O   0  0  0  0  0  0  0  0  0  0  0  0
  -29.3006  -22.9193   19.0923 O   0  0  0  0  0  0  0  0  0  0  0  0
  -25.7352  -11.5096   20.7894 O   0  0  0  0  0  0  0  0  0  0  0  0
  -23.3186  -28.6834   23.1773 O   0  0  0  0  0  0  0  0  0  1  0  0
  -20.4479  -11.8254   22.3222 F   0  0  0  0  0  0  0  0  0  0  0  0
  -23.7171  -10.6478   19.1080 F   0  0  0  0  0  0  0  0  0  0  0  0
  -30.3599  -26.1243   22.7760 Cl  0  0  0  0  0  0  0  0  0  0  0  0
  -25.8569  -29.6499   20.2763 Cl  0  0  0  0  0  0  0  0  0  0  0  0
  1  2  1  0  0  0  0
  1  5  2  0  0  0  0
  2  6  2  0  0  0  0
  3  8  2  0  0  0  0
  3 17  1  0  0  0  0
  4  9  1  0  0  0  0
  4 17  2  0  0  0  0
  5 19  1  0  0  0  0
  6 21  1  0  0  0  0
  7 10  2  0  0  0  0
  7 20  1  0  0  0  0
  8 25  1  0  0  0  0
  9 25  2  0  0  0  0
 10 26  1  0  0  0  0
 11 12  2  0  0  0  0
 11 27  1  0  0  0  0
 12 28  1  0  0  0  0
 13 22  1  0  0  0  0
 13 26  2  0  0  0  0
 14 23  2  0  0  0  0
 14 31  1  0  0  0  0
 15 24  1  0  0  0  0
 15 30  2  0  0  0  0
 16 28  2  0  0  0  0
 16 29  1  0  0  0  0
 17 32  1  0  0  0  0
 18 32  1  0  0  0  0
 18 33  2  0  0  0  0
 18 34  1  0  0  0  0
 19 21  2  0  0  0  0
 19 39  1  0  0  0  0
 20 22  2  0  0  0  0
 20 40  1  0  0  0  0
 21 51  1  0  0  0  0
 22 41  1  0  0  0  0
 23 30  1  0  0  0  0
 23 62  1  0  0  0  0
 24 31  2  0  0  0  0
 24 63  1  0  0  0  0
 25 83  1  0  0  0  0
 26 84  1  0  0  0  0
 27 29  2  0  0  0  0
 27 83  1  0  0  0  0
 28 85  1  0  0  0  0
 29 86  1  0  0  0  0
 30 87  1  0  0  0  0
 31 88  1  0  0  0  0
 32 67  2  0  0  0  0
 33 68  1  0  0  0  0
 33 71  1  0  0  0  0
 34 72  1  0  0  0  0
 34 78  2  0  0  0  0
 35 52  1  0  0  0  0
 35 73  1  0  0  0  0
 35 79  2  0  0  0  0
 36 64  1  0  0  0  0
 36 69  1  0  0  0  0
 36 80  2  0  0  0  0
 37 65  1  0  0  0  0
 37 74  1  0  0  0  0
 37 81  2  0  0  0  0
 38 70  1  0  0  0  0
 38 75  1  0  0  0  0
 38 82  2  0  0  0  0
 39 42  1  0  0  0  0
 40 52  1  0  0  0  0
 41 69  1  0  0  0  0
 42 44  1  0  0  0  0
 43 45  1  0  0  0  0
 43 48  1  0  0  0  0
 44 51  1  0  0  0  0
 45 53  1  0  0  0  0
 46 47  1  0  0  0  0
 46 54  1  0  0  0  0
 47 55  1  0  0  0  0
 48 70  1  0  0  0  0
 49 53  1  0  0  0  0
 49 70  1  0  0  0  0
 50 54  1  0  0  0  0
 50 76  1  0  0  0  0
 51 73  1  0  0  0  0
 52 69  1  0  0  0  0
 53 68  1  0  0  0  0
 54 84  1  0  0  0  0
 55 56  1  0  0  0  0
 55 76  1  0  0  0  0
 57 65  1  0  0  0  0
 58 66  1  0  0  0  0
 59 66  1  0  0  0  0
 60 66  1  0  0  0  0
 61 77  1  0  0  0  0
 62 75  1  0  0  0  0
 63 76  1  0  0  0  0
 64 66  1  0  0  0  0
 64 74  1  0  0  0  0
 65 77  1  0  0  0  0
 67 68  1  0  0  0  0
M  CHG  2  76   1  77   1
M  ISO  4  38 100  54 101  75 100  84 101
M  END
> <Batch ID>
0037

> <Smiles>
CNC(C)C(=O)NC(C(=O)N1Cc2cc([101O:1][101CH:1]3CCC(C)N(Cc4cc(Cl)c(C[100NH:0][100C:0](=O)N5CCCC(n6nc(-c7ccc(Oc8ccc(F)cc8F)cc7)c(C(N)=O)c6N)C5)cc4Cl)C3)ccc2CC1C(=O)NC1CCCc2ccccc21)C(C)(C)C

> <Shape>
0.211

> <Color>
0.071

> <Negative vol penalty>
0.000

$$$$

  -OEChem-04042321573D

 86 94  0     1  0  0  0  0  0999 V2000
  -34.0234  -27.4046   17.1552 C   0  0  0  0  0  0  0  0  0  0  0  0
  -32.6848  -27.5590   17.5014 C   0  0  0  0  0  0  0  0  0  0  0  0
  -23.3107  -14.5455   19.4682 C   0  0  0  0  0  0  0  0  0  0  0  0
  -24.5915  -15.1008   21.4401 C   0  0  0  0  0  0  0  0  0  0  0  0
  -34.5275  -26.1355   16.8738 C   0  0  0  0  0  0  0  0  0  0  0  0
  -31.8493  -26.4444   17.5652 C   0  0  0  0  0  0  0  0  0  0  0  0
  -28.9165  -26.4489   21.6936 C   0  0  0  0  0  0  0  0  0  0  0  0
  -24.3183  -13.6718   19.0598 C   0  0  0  0  0  0  0  0  0  0  0  0
  -25.5991  -14.2269   21.0317 C   0  0  0  0  0  0  0  0  0  0  0  0
  -27.7963  -27.2787   21.6779 C   0  0  0  0  0  0  0  0  0  0  0  0
  -28.1569  -14.2330   18.8207 C   0  0  0  0  0  0  0  0  0  0  0  0
  -29.4757  -14.6789   18.9071 C   0  0  0  0  0  0  0  0  0  0  0  0
  -26.4057  -25.3813   21.1440 C   0  0  0  0  0  0  0  0  0  0  0  0
  -20.2650  -27.0624   23.4812 C   0  0  0  0  0  0  0  0  0  0  0  0
  -18.5491  -26.2909   21.9656 C   0  0  0  0  0  0  0  0  0  0  0  0
  -19.2091  -28.6150   21.9609 C   0  0  0  0  0  0  0  0  0  0  0  0
  -29.9914  -12.8617   20.4135 C   0  0  0  0  0  0  0  0  0  0  0  0
  -23.4473  -15.2601   20.6584 C   0  0  0  0  0  0  0  0  0  0  0  0
  -21.2948  -15.8607   21.8886 C   0  0  0  0  0  0  0  0  0  0  0  0
  -33.7001  -25.0036   16.9436 C   0  0  0  0  0  0  0  0  0  0  0  0
  -28.7911  -25.0786   21.4234 C   0  0  0  0  0  0  0  0  0  0  0  0
  -32.3426  -25.1591   17.2831 C   0  0  0  0  0  0  0  0  0  0  0  0
  -27.5255  -24.5358   21.1594 C   0  0  0  0  0  0  0  0  0  0  0  0
  -19.4730  -26.0306   22.9776 C   0  0  0  0  0  0  0  0  0  0  0  0
  -20.1331  -28.3546   22.9729 C   0  0  0  0  0  0  0  0  0  0  0  0
  -25.4625  -13.5124   19.8415 C   0  0  0  0  0  0  0  0  0  0  0  0
  -26.5410  -26.7455   21.4002 C   0  0  0  0  0  0  0  0  0  0  0  0
  -27.7553  -13.1015   19.5307 C   0  0  0  0  0  0  0  0  0  0  0  0
  -30.3930  -13.9932   19.7034 C   0  0  0  0  0  0  0  0  0  0  0  0
  -28.6725  -12.4159   20.3271 C   0  0  0  0  0  0  0  0  0  0  0  0
  -18.4171  -27.5832   21.4572 C   0  0  0  0  0  0  0  0  0  0  0  0
  -22.4071  -16.1633   21.0806 C   0  0  0  0  0  0  0  0  0  0  0  0
  -20.6151  -17.0493   21.9964 C   0  0  0  0  0  0  0  0  0  0  0  0
  -20.9103  -14.6163   22.4882 C   0  0  0  0  0  0  0  0  0  0  0  0
  -29.9226  -23.1198   19.1904 C   0  0  0  0  0  0  0  0  0  0  0  0
  -28.5187  -20.8446   21.0275 C   0  0  0  0  0  0  0  0  0  0  0  0
  -23.3086  -29.1870   22.6087 C   0  0  0  0  0  0  0  0  0  0  0  0
  -26.1420  -20.0515   23.3447 C   0  0  0  0  0  0  0  0  0  0  0  0
  -20.5819  -22.4425   22.9234 C   0  0  0  0  0  0  0  0  0  0  0  0
  -34.2790  -23.6580   16.5847 C   0  0  0  0  0  0  0  0  0  0  0  0
  -30.0054  -24.1923   21.4706 C   0  0  0  0  0  0  0  0  0  0  0  0
  -27.3343  -23.0676   20.8829 C   0  0  0  0  0  0  0  0  0  0  0  0
  -33.4172  -22.4832   17.0399 C   0  0  0  0  0  0  0  0  0  0  0  0
  -21.1982  -21.4152   19.5084 C   0  0  0  0  0  0  0  0  0  0  0  0
  -31.9542  -22.7235   16.6809 C   0  0  0  0  0  0  0  0  0  0  0  0
  -21.4771  -19.9216   19.6857 C   0  0  0  0  0  0  0  0  0  0  0  0
  -21.7793  -22.2269   20.6623 C   0  0  0  0  0  0  0  0  0  0  0  0
  -21.5966  -20.3030   22.1917 C   0  0  0  0  0  0  0  0  0  0  0  0
  -31.4107  -23.9713   17.3873 C   0  0  1  0  0  0  0  0  0  0  0  0
  -29.8346  -22.9021   20.6745 C   0  0  1  0  0  0  0  0  0  0  0  0
  -21.0147  -19.4255   21.0686 C   0  0  2  0  0  0  0  0  0  0  0  0
  -25.2104  -18.1038   24.6238 C   0  0  0  0  0  0  0  0  0  0  0  0
  -27.0545  -19.9026   18.5218 C   0  0  0  0  0  0  0  0  0  0  0  0
  -25.4805  -18.6374   20.0017 C   0  0  0  0  0  0  0  0  0  0  0  0
  -27.9079  -18.0628   19.9851 C   0  0  0  0  0  0  0  0  0  0  0  0
  -21.7454  -30.8979   21.6599 C   0  0  0  0  0  0  0  0  0  0  0  0
  -26.8644  -21.2650   25.9456 C   0  0  0  0  0  0  0  0  0  0  0  0
  -19.6158  -24.6487   23.5205 C   0  0  0  0  0  0  0  0  0  0  0  0
  -20.9874  -29.4641   23.5147 C   0  0  0  0  0  0  0  0  0  0  0  0
  -24.3263  -29.6775   21.5840 C   0  0  0  0  0  0  0  0  0  0  0  0
  -25.6560  -28.9376   21.6596 C   0  0  0  0  0  0  0  0  0  1  0  0
  -27.1500  -20.2101   21.0835 C   0  0  1  0  0  0  0  0  0  0  0  0
  -26.2164  -19.2443   24.6282 C   0  0  2  0  0  0  0  0  0  0  0  0
  -26.9017  -19.2313   19.9012 C   0  0  0  0  0  0  0  0  0  0  0  0
  -22.4361  -17.4438   20.7018 N   0  0  0  0  0  0  0  0  0  0  0  0
  -21.3335  -17.9563   21.2743 N   0  0  0  0  0  0  0  0  0  0  0  0
  -28.5530  -22.2432   20.9342 N   0  0  0  0  0  0  0  0  0  0  0  0
  -21.2854  -21.7156   21.9487 N   0  0  0  0  0  0  0  0  0  0  0  0
  -19.4790  -17.3967   22.6374 N   0  0  0  0  0  0  0  0  0  0  0  0
  -21.7219  -13.4935   22.2762 N   0  0  0  0  0  0  0  0  0  0  0  0
  -31.1155  -23.6791   18.7736 N   0  0  0  0  0  0  0  0  0  0  0  0
  -27.0387  -19.5953   22.4018 N   0  0  0  0  0  0  0  0  0  0  0  0
  -20.3337  -23.7753   22.6189 N   0  0  0  0  0  0  0  0  0  0  0  0
  -22.0633  -29.8250   22.5943 N   0  0  0  0  0  0  0  0  0  0  0  0
  -25.9349  -20.1148   25.8046 N   0  3  0  0  0  0  0  0  0  0  0  0
  -19.8688  -14.4996   23.1775 O   0  0  0  0  0  0  0  0  0  0  0  0
  -28.9788  -22.8024   18.4762 O   0  0  0  0  0  0  0  0  0  0  0  0
  -29.5205  -20.1263   21.0724 O   0  0  0  0  0  0  0  0  0  0  0  0
  -23.5953  -28.2777   23.3918 O   0  0  0  0  0  0  0  0  0  0  0  0
  -25.3636  -20.9904   23.1924 O   0  0  0  0  0  0  0  0  0  0  0  0
  -20.1982  -21.9394   23.9849 O   0  0  0  0  0  0  0  0  0  0  0  0
  -26.4458  -12.6597   19.4433 O   0  0  0  0  0  0  0  0  0  0  0  0
  -25.4461  -27.5533   21.3836 O   0  0  0  0  0  0  0  0  0  1  0  0
  -31.6598  -14.4206   19.7851 F   0  0  0  0  0  0  0  0  0  0  0  0
  -28.2928  -11.3276   21.0107 F   0  0  0  0  0  0  0  0  0  0  0  0
  -17.2762  -27.9047   20.2094 Cl  0  0  0  0  0  0  0  0  0  0  0  0
  1  2  1  0  0  0  0
  1  5  2  0  0  0  0
  2  6  2  0  0  0  0
  3  8  2  0  0  0  0
  3 18  1  0  0  0  0
  4  9  1  0  0  0  0
  4 18  2  0  0  0  0
  5 20  1  0  0  0  0
  6 22  1  0  0  0  0
  7 10  2  0  0  0  0
  7 21  1  0  0  0  0
  8 26  1  0  0  0  0
  9 26  2  0  0  0  0
 10 27  1  0  0  0  0
 11 12  2  0  0  0  0
 11 28  1  0  0  0  0
 12 29  1  0  0  0  0
 13 23  1  0  0  0  0
 13 27  2  0  0  0  0
 14 24  1  0  0  0  0
 14 25  2  0  0  0  0
 15 24  2  0  0  0  0
 15 31  1  0  0  0  0
 16 25  1  0  0  0  0
 16 31  2  0  0  0  0
 17 29  2  0  0  0  0
 17 30  1  0  0  0  0
 18 32  1  0  0  0  0
 19 32  1  0  0  0  0
 19 33  2  0  0  0  0
 19 34  1  0  0  0  0
 20 22  2  0  0  0  0
 20 40  1  0  0  0  0
 21 23  2  0  0  0  0
 21 41  1  0  0  0  0
 22 49  1  0  0  0  0
 23 42  1  0  0  0  0
 24 58  1  0  0  0  0
 25 59  1  0  0  0  0
 26 82  1  0  0  0  0
 27 83  1  0  0  0  0
 28 30  2  0  0  0  0
 28 82  1  0  0  0  0
 29 84  1  0  0  0  0
 30 85  1  0  0  0  0
 31 86  1  0  0  0  0
 32 65  2  0  0  0  0
 33 66  1  0  0  0  0
 33 69  1  0  0  0  0
 34 70  1  0  0  0  0
 34 76  2  0  0  0  0
 35 50  1  0  0  0  0
 35 71  1  0  0  0  0
 35 77  2  0  0  0  0
 36 62  1  0  0  0  0
 36 67  1  0  0  0  0
 36 78  2  0  0  0  0
 37 60  1  0  0  0  0
 37 74  1  0  0  0  0
 37 79  2  0  0  0  0
 38 63  1  0  0  0  0
 38 72  1  0  0  0  0
 38 80  2  0  0  0  0
 39 68  1  0  0  0  0
 39 73  1  0  0  0  0
 39 81  2  0  0  0  0
 40 43  1  0  0  0  0
 41 50  1  0  0  0  0
 42 67  1  0  0  0  0
 43 45  1  0  0  0  0
 44 46  1  0  0  0  0
 44 47  1  0  0  0  0
 45 49  1  0  0  0  0
 46 51  1  0  0  0  0
 47 68  1  0  0  0  0
 48 51  1  0  0  0  0
 48 68  1  0  0  0  0
 49 71  1  0  0  0  0
 50 67  1  0  0  0  0
 51 66  1  0  0  0  0
 52 63  1  0  0  0  0
 53 64  1  0  0  0  0
 54 64  1  0  0  0  0
 55 64  1  0  0  0  0
 56 74  1  0  0  0  0
 57 75  1  0  0  0  0
 58 73  1  0  0  0  0
 59 74  1  0  0  0  0
 60 61  1  0  0  0  0
 61 83  1  0  0  0  0
 62 64  1  0  0  0  0
 62 72  1  0  0  0  0
 63 75  1  0  0  0  0
 65 66  1  0  0  0  0
M  CHG  1  75   1
M  ISO  4  39 100  61 101  73 100  83 101
M  END
> <Batch ID>
0037

> <Smiles>
CNC(C)C(=O)NC(C(=O)N1Cc2cc([101O:1][101CH2:1]CC(=O)N(C)Cc3cc(Cl)cc(C[100NH:0][100C:0](=O)N4CCCC(n5nc(-c6ccc(Oc7ccc(F)cc7F)cc6)c(C(N)=O)c5N)C4)c3)ccc2CC1C(=O)NC1CCCc2ccccc21)C(C)(C)C

> <Shape>
0.218

> <Color>
0.075

> <Negative vol penalty>
0.000

$$$$

  -OEChem-04042321573D

 88 97  0     1  0  0  0  0  0999 V2000
  -30.4445  -34.2901   24.5264 C   0  0  0  0  0  0  0  0  0  0  0  0
  -29.8009  -33.0940   24.2253 C   0  0  0  0  0  0  0  0  0  0  0  0
  -23.8257   -9.5581   20.9521 C   0  0  0  0  0  0  0  0  0  0  0  0
  -24.3102  -10.4011   23.1638 C   0  0  0  0  0  0  0  0  0  0  0  0
  -29.7186  -35.3578   25.0526 C   0  0  0  0  0  0  0  0  0  0  0  0
  -28.4310  -32.9647   24.4512 C   0  0  0  0  0  0  0  0  0  0  0  0
  -26.0238  -30.7566   20.5815 C   0  0  0  0  0  0  0  0  0  0  0  0
  -23.3069   -8.3901   21.5109 C   0  0  0  0  0  0  0  0  0  0  0  0
  -23.7914   -9.2332   23.7227 C   0  0  0  0  0  0  0  0  0  0  0  0
  -26.1295  -29.3706   20.4734 C   0  0  0  0  0  0  0  0  0  0  0  0
  -20.4381   -7.4043   23.0046 C   0  0  0  0  0  0  0  0  0  0  0  0
  -19.2293   -6.9255   22.4996 C   0  0  0  0  0  0  0  0  0  0  0  0
  -23.9514  -29.1318   21.4824 C   0  0  0  0  0  0  0  0  0  0  0  0
  -28.7729  -19.9702   18.7658 C   0  0  0  0  0  0  0  0  0  0  0  0
  -20.3123   -4.8614   21.8642 C   0  0  0  0  0  0  0  0  0  0  0  0
  -24.3274  -10.5636   21.7785 C   0  0  0  0  0  0  0  0  0  0  0  0
  -24.1637  -12.9544   20.9040 C   0  0  0  0  0  0  0  0  0  0  0  0
  -28.3373  -35.2447   25.2761 C   0  0  0  0  0  0  0  0  0  0  0  0
  -24.8838  -31.3411   21.1519 C   0  0  0  0  0  0  0  0  0  0  0  0
  -27.6861  -34.0314   24.9822 C   0  0  0  0  0  0  0  0  0  0  0  0
  -23.8326  -30.5255   21.5943 C   0  0  0  0  0  0  0  0  0  0  0  0
  -28.9370  -21.0046   19.6870 C   0  0  0  0  0  0  0  0  0  0  0  0
  -28.8937  -18.6432   19.1782 C   0  0  0  0  0  0  0  0  0  0  0  0
  -29.2220  -20.7119   21.0208 C   0  0  0  0  0  0  0  0  0  0  0  0
  -29.3428  -19.3849   21.4332 C   0  0  0  0  0  0  0  0  0  0  0  0
  -29.1786  -18.3505   20.5119 C   0  0  0  0  0  0  0  0  0  0  0  0
  -23.2897   -8.2277   22.8962 C   0  0  0  0  0  0  0  0  0  0  0  0
  -25.0945  -28.5579   20.9265 C   0  0  0  0  0  0  0  0  0  0  0  0
  -21.5841   -6.6117   22.9394 C   0  0  0  0  0  0  0  0  0  0  0  0
  -19.1664   -5.6540   21.9295 C   0  0  0  0  0  0  0  0  0  0  0  0
  -21.5212   -5.3402   22.3692 C   0  0  0  0  0  0  0  0  0  0  0  0
  -24.8640  -11.7701   21.2018 C   0  0  0  0  0  0  0  0  0  0  0  0
  -25.1154  -13.7927   20.3769 C   0  0  0  0  0  0  0  0  0  0  0  0
  -22.7769  -13.2687   21.0875 C   0  0  0  0  0  0  0  0  0  0  0  0
  -24.3322  -33.1625   23.6979 C   0  0  0  0  0  0  0  0  0  0  0  0
  -21.3277  -33.2766   22.4806 C   0  0  0  0  0  0  0  0  0  0  0  0
  -18.9386  -31.8274   20.5213 C   0  0  0  0  0  0  0  0  0  0  0  0
  -30.2045  -16.0502   20.4640 C   0  0  0  0  0  0  0  0  0  0  0  0
  -27.6035  -36.4102   25.8907 C   0  0  0  0  0  0  0  0  0  0  0  0
  -24.7737  -32.8388   21.2369 C   0  0  0  0  0  0  0  0  0  0  0  0
  -22.5789  -31.1043   22.1958 C   0  0  0  0  0  0  0  0  0  0  0  0
  -26.0863  -36.3175   25.7499 C   0  0  0  0  0  0  0  0  0  0  0  0
  -29.8691  -12.8670   18.9046 C   0  0  0  0  0  0  0  0  0  0  0  0
  -25.0522  -23.1630   19.3355 C   0  0  0  0  0  0  0  0  0  0  0  0
  -25.5999  -34.9208   26.1234 C   0  0  0  0  0  0  0  0  0  0  0  0
  -25.1023  -24.6849   19.4203 C   0  0  0  0  0  0  0  0  0  0  0  0
  -28.4794  -12.3952   19.3388 C   0  0  0  0  0  0  0  0  0  0  0  0
  -30.5806  -13.6348   20.0172 C   0  0  0  0  0  0  0  0  0  0  0  0
  -28.4259  -14.2785   21.0233 C   0  0  0  0  0  0  0  0  0  0  0  0
  -26.3498  -22.5845   18.7921 C   0  0  0  0  0  0  0  0  0  0  0  0
  -27.6116  -24.5679   19.6723 C   0  0  0  0  0  0  0  0  0  0  0  0
  -26.1969  -33.8608   25.1900 C   0  0  1  0  0  0  0  0  0  0  0  0
  -23.7889  -33.3058   22.3044 C   0  0  1  0  0  0  0  0  0  0  0  0
  -26.3152  -25.1596   20.2283 C   0  0  1  0  0  0  0  0  0  0  0  0
  -27.6444  -13.5561   19.9137 C   0  0  2  0  0  0  0  0  0  0  0  0
  -28.7111  -17.5570   18.1679 C   0  0  0  0  0  0  0  0  0  0  0  0
  -29.3975  -21.8237   22.0063 C   0  0  0  0  0  0  0  0  0  0  0  0
  -29.6489  -19.0763   22.8657 C   0  0  0  0  0  0  0  0  0  0  0  0
  -16.5700  -32.1344   19.7511 C   0  0  0  0  0  0  0  0  0  0  0  0
  -20.3229  -32.3395   25.2050 C   0  0  0  0  0  0  0  0  0  0  0  0
  -18.1408  -31.7596   24.1230 C   0  0  0  0  0  0  0  0  0  0  0  0
  -18.9337  -34.1247   24.1383 C   0  0  0  0  0  0  0  0  0  0  0  0
  -19.7610  -31.9983   17.6834 C   0  0  0  0  0  0  0  0  0  0  0  0
  -28.8004  -22.4230   19.2177 C   0  0  0  0  0  0  0  0  0  0  0  0
  -26.3896  -26.6854   20.2393 C   0  0  0  0  0  0  0  0  0  1  0  0
  -20.0785  -32.4434   22.6368 C   0  0  1  0  0  0  0  0  0  0  0  0
  -18.0355  -32.4005   19.4440 C   0  0  2  0  0  0  0  0  0  0  0  0
  -19.3933  -32.6555   24.0163 C   0  0  0  0  0  0  0  0  0  0  0  0
  -26.1605  -11.8453   20.8897 N   0  0  0  0  0  0  0  0  0  0  0  0
  -26.2824  -13.0869   20.3902 N   0  0  0  0  0  0  0  0  0  0  0  0
  -22.5213  -32.5739   22.2629 N   0  0  0  0  0  0  0  0  0  0  0  0
  -29.7316  -14.7217   20.5099 N   0  0  0  0  0  0  0  0  0  0  0  0
  -25.0595  -15.0574   19.9078 N   0  0  0  0  0  0  0  0  0  0  0  0
  -21.9383  -12.2924   21.6426 N   0  0  0  0  0  0  0  0  0  0  0  0
  -29.2974  -17.0016   20.9292 N   0  0  0  0  0  0  0  0  0  0  0  0
  -25.5049  -33.8592   23.9189 N   0  0  0  0  0  0  0  0  0  0  0  0
  -19.2303  -32.7610   21.4931 N   0  0  0  0  0  0  0  0  0  0  0  0
  -27.5049  -23.0610   19.6387 N   0  3  2  0  0  0  0  0  0  0  0  0
  -18.3565  -31.7928   18.1217 N   0  3  0  0  0  0  0  0  0  0  0  0
  -22.2923  -14.3764   20.7536 O   0  0  0  0  0  0  0  0  0  0  0  0
  -23.7312  -32.4722   24.5127 O   0  0  0  0  0  0  0  0  0  0  0  0
  -21.2462  -34.5059   22.5420 O   0  0  0  0  0  0  0  0  0  0  0  0
  -19.3416  -30.6665   20.5044 O   0  0  0  0  0  0  0  0  0  0  0  0
  -31.3210  -16.3265   20.0177 O   0  0  0  0  0  0  0  0  0  0  0  0
  -22.7833   -7.0882   23.4419 O   0  0  0  0  0  0  0  0  0  0  0  0
  -25.1954  -27.2048   20.8227 O   0  0  0  0  0  0  0  0  0  1  0  0
  -18.0051   -5.1937   21.4459 F   0  0  0  0  0  0  0  0  0  0  0  0
  -22.6185   -4.5737   22.3048 F   0  0  0  0  0  0  0  0  0  0  0  0
  1  2  1  0  0  0  0
  1  5  2  0  0  0  0
  2  6  2  0  0  0  0
  3  8  2  0  0  0  0
  3 16  1  0  0  0  0
  4  9  1  0  0  0  0
  4 16  2  0  0  0  0
  5 18  1  0  0  0  0
  6 20  1  0  0  0  0
  7 10  2  0  0  0  0
  7 19  1  0  0  0  0
  8 27  1  0  0  0  0
  9 27  2  0  0  0  0
 10 28  1  0  0  0  0
 11 12  2  0  0  0  0
 11 29  1  0  0  0  0
 12 30  1  0  0  0  0
 13 21  1  0  0  0  0
 13 28  2  0  0  0  0
 14 22  1  0  0  0  0
 14 23  2  0  0  0  0
 15 30  2  0  0  0  0
 15 31  1  0  0  0  0
 16 32  1  0  0  0  0
 17 32  1  0  0  0  0
 17 33  2  0  0  0  0
 17 34  1  0  0  0  0
 18 20  2  0  0  0  0
 18 39  1  0  0  0  0
 19 21  2  0  0  0  0
 19 40  1  0  0  0  0
 20 52  1  0  0  0  0
 21 41  1  0  0  0  0
 22 24  2  0  0  0  0
 22 64  1  0  0  0  0
 23 26  1  0  0  0  0
 23 56  1  0  0  0  0
 24 25  1  0  0  0  0
 24 57  1  0  0  0  0
 25 26  2  0  0  0  0
 25 58  1  0  0  0  0
 26 75  1  0  0  0  0
 27 85  1  0  0  0  0
 28 86  1  0  0  0  0
 29 31  2  0  0  0  0
 29 85  1  0  0  0  0
 30 87  1  0  0  0  0
 31 88  1  0  0  0  0
 32 69  2  0  0  0  0
 33 70  1  0  0  0  0
 33 73  1  0  0  0  0
 34 74  1  0  0  0  0
 34 80  2  0  0  0  0
 35 53  1  0  0  0  0
 35 76  1  0  0  0  0
 35 81  2  0  0  0  0
 36 66  1  0  0  0  0
 36 71  1  0  0  0  0
 36 82  2  0  0  0  0
 37 67  1  0  0  0  0
 37 77  1  0  0  0  0
 37 83  2  0  0  0  0
 38 72  1  0  0  0  0
 38 75  1  0  0  0  0
 38 84  2  0  0  0  0
 39 42  1  0  0  0  0
 40 53  1  0  0  0  0
 41 71  1  0  0  0  0
 42 45  1  0  0  0  0
 43 47  1  0  0  0  0
 43 48  1  0  0  0  0
 44 46  1  0  0  0  0
 44 50  1  0  0  0  0
 45 52  1  0  0  0  0
 46 54  1  0  0  0  0
 47 55  1  0  0  0  0
 48 72  1  0  0  0  0
 49 55  1  0  0  0  0
 49 72  1  0  0  0  0
 50 78  1  0  0  0  0
 51 54  1  0  0  0  0
 51 78  1  0  0  0  0
 52 76  1  0  0  0  0
 53 71  1  0  0  0  0
 54 65  1  0  0  0  0
 55 70  1  0  0  0  0
 59 67  1  0  0  0  0
 60 68  1  0  0  0  0
 61 68  1  0  0  0  0
 62 68  1  0  0  0  0
 63 79  1  0  0  0  0
 64 78  1  0  0  0  0
 65 86  1  0  0  0  0
 66 68  1  0  0  0  0
 66 77  1  0  0  0  0
 67 79  1  0  0  0  0
 69 70  1  0  0  0  0
M  CHG  2  78   1  79   1
M  ISO  4  38 100  65 101  75 100  86 101
M  END
> <Batch ID>
0037

> <Smiles>
CNC(C)C(=O)NC(C(=O)N1Cc2cc([101O:1][101CH2:1]C3CCCN(Cc4cc(C)c([100NH:0][100C:0](=O)N5CCCC(n6nc(-c7ccc(Oc8ccc(F)cc8F)cc7)c(C(N)=O)c6N)C5)c(C)c4C)C3)ccc2CC1C(=O)NC1CCCc2ccccc21)C(C)(C)C

> <Shape>
0.313

> <Color>
0.161

> <Negative vol penalty>
0.000

$$$$

  -OEChem-04042321573D

 89 98  0     1  0  0  0  0  0999 V2000
  -30.7108  -25.2696   17.3378 C   0  0  0  0  0  0  0  0  0  0  0  0
  -29.8407  -24.6883   18.2546 C   0  0  0  0  0  0  0  0  0  0  0  0
  -23.0480  -11.5088   22.6391 C   0  0  0  0  0  0  0  0  0  0  0  0
  -22.6002  -11.6476   20.2690 C   0  0  0  0  0  0  0  0  0  0  0  0
  -30.9011  -26.6507   17.3381 C   0  0  0  0  0  0  0  0  0  0  0  0
  -29.1611  -25.4878   19.1729 C   0  0  0  0  0  0  0  0  0  0  0  0
  -24.2689  -24.2459   19.5840 C   0  0  0  0  0  0  0  0  0  0  0  0
  -27.7846  -22.1207   23.0105 C   0  0  0  0  0  0  0  0  0  0  0  0
  -22.4027  -10.2733   22.6887 C   0  0  0  0  0  0  0  0  0  0  0  0
  -21.9549  -10.4119   20.3186 C   0  0  0  0  0  0  0  0  0  0  0  0
  -23.9596  -23.1202   20.3462 C   0  0  0  0  0  0  0  0  0  0  0  0
  -23.1111   -7.0600   21.9101 C   0  0  0  0  0  0  0  0  0  0  0  0
  -23.7312   -6.0330   22.6215 C   0  0  0  0  0  0  0  0  0  0  0  0
  -28.6863  -22.0705   21.9475 C   0  0  0  0  0  0  0  0  0  0  0  0
  -23.3724  -24.5454   22.2018 C   0  0  0  0  0  0  0  0  0  0  0  0
  -21.8117   -5.8851   24.0813 C   0  0  0  0  0  0  0  0  0  0  0  0
  -23.1467  -12.1960   21.4292 C   0  0  0  0  0  0  0  0  0  0  0  0
  -23.4669  -14.6411   22.0825 C   0  0  0  0  0  0  0  0  0  0  0  0
  -30.2162  -27.4687   18.2506 C   0  0  0  0  0  0  0  0  0  0  0  0
  -24.1424  -25.5315   20.1296 C   0  0  0  0  0  0  0  0  0  0  0  0
  -29.3435  -26.8811   19.1863 C   0  0  0  0  0  0  0  0  0  0  0  0
  -23.6783  -25.6859   21.4436 C   0  0  0  0  0  0  0  0  0  0  0  0
  -27.6577  -21.0291   23.8696 C   0  0  0  0  0  0  0  0  0  0  0  0
  -28.4325  -19.8873   23.6656 C   0  0  0  0  0  0  0  0  0  0  0  0
  -29.3342  -19.8371   22.6025 C   0  0  0  0  0  0  0  0  0  0  0  0
  -21.8561   -9.7248   21.5285 C   0  0  0  0  0  0  0  0  0  0  0  0
  -23.5141  -23.2697   21.6563 C   0  0  0  0  0  0  0  0  0  0  0  0
  -21.8413   -7.4997   22.2843 C   0  0  0  0  0  0  0  0  0  0  0  0
  -23.0815   -5.4455   23.7071 C   0  0  0  0  0  0  0  0  0  0  0  0
  -21.1916   -6.9122   23.3699 C   0  0  0  0  0  0  0  0  0  0  0  0
  -29.4611  -20.9287   21.7435 C   0  0  0  0  0  0  0  0  0  0  0  0
  -23.8127  -13.4727   21.3774 C   0  0  0  0  0  0  0  0  0  0  0  0
  -24.4013  -15.5681   21.6900 C   0  0  0  0  0  0  0  0  0  0  0  0
  -24.5473  -20.3940   25.9047 C   0  0  0  0  0  0  0  0  0  0  0  0
  -24.4840  -19.3400   26.7323 C   0  0  0  0  0  0  0  0  0  0  0  0
  -22.3969  -14.8681   23.0094 C   0  0  0  0  0  0  0  0  0  0  0  0
  -26.1501  -27.9227   20.7259 C   0  0  0  0  0  0  0  0  0  0  0  0
  -23.4245  -29.5017   21.5007 C   0  0  0  0  0  0  0  0  0  0  0  0
  -20.3692  -28.7676   23.2737 C   0  0  0  0  0  0  0  0  0  0  0  0
  -29.6838  -16.9834   20.5774 C   0  0  0  0  0  0  0  0  0  0  0  0
  -30.4903  -28.9517   18.2437 C   0  0  0  0  0  0  0  0  0  0  0  0
  -24.4546  -26.7368   19.2855 C   0  0  0  0  0  0  0  0  0  0  0  0
  -23.5060  -27.0450   22.0693 C   0  0  0  0  0  0  0  0  0  0  0  0
  -23.7150  -21.6336   26.0901 C   0  0  0  0  0  0  0  0  0  0  0  0
  -29.4473  -29.7674   19.0034 C   0  0  0  0  0  0  0  0  0  0  0  0
  -22.9938  -21.9866   24.7949 C   0  0  0  0  0  0  0  0  0  0  0  0
  -27.8286  -15.4177   17.9728 C   0  0  0  0  0  0  0  0  0  0  0  0
  -29.1493  -29.1265   20.3552 C   0  0  0  0  0  0  0  0  0  0  0  0
  -26.5938  -14.8635   18.6855 C   0  0  0  0  0  0  0  0  0  0  0  0
  -29.0769  -15.3181   18.8468 C   0  0  0  0  0  0  0  0  0  0  0  0
  -27.7112  -15.3701   20.8976 C   0  0  0  0  0  0  0  0  0  0  0  0
  -24.6995  -20.6546   23.4983 C   0  0  0  0  0  0  0  0  0  0  0  0
  -28.5693  -27.7176   20.1819 C   0  0  1  0  0  0  0  0  0  0  0  0
  -24.7797  -27.9771   20.1120 C   0  0  1  0  0  0  0  0  0  0  0  0
  -26.4165  -15.5002   20.0771 C   0  0  2  0  0  0  0  0  0  0  0  0
  -23.9531  -21.9820   23.6049 C   0  0  1  0  0  0  0  0  0  1  0  0
  -28.2937  -18.7185   24.5895 C   0  0  0  0  0  0  0  0  0  0  0  0
  -25.2987  -18.1040   26.5670 C   0  0  0  0  0  0  0  0  0  0  0  0
  -18.0730  -29.7538   23.0451 C   0  0  0  0  0  0  0  0  0  0  0  0
  -24.3145  -31.3609   23.7505 C   0  0  0  0  0  0  0  0  0  0  0  0
  -22.0063  -31.1956   24.7060 C   0  0  0  0  0  0  0  0  0  0  0  0
  -22.3482  -32.1776   22.4385 C   0  0  0  0  0  0  0  0  0  0  0  0
  -19.1456  -26.1098   22.8291 C   0  0  0  0  0  0  0  0  0  0  0  0
  -30.1595  -18.6050   22.3949 C   0  0  0  0  0  0  0  0  0  0  0  0
  -26.6814  -21.1109   25.0059 C   0  0  0  0  0  0  0  0  0  0  0  0
  -22.6170  -29.6847   22.7630 C   0  0  1  0  0  0  0  0  0  0  0  0
  -18.9867  -28.5974   22.6702 C   0  0  2  0  0  0  0  0  0  0  0  0
  -22.8370  -31.0813   23.4100 C   0  0  0  0  0  0  0  0  0  0  0  0
  -24.8830  -13.6397   20.5961 N   0  0  0  0  0  0  0  0  0  0  0  0
  -25.2179  -14.9239   20.8078 N   0  0  0  0  0  0  0  0  0  0  0  0
  -23.8302  -28.1924   21.2057 N   0  0  0  0  0  0  0  0  0  0  0  0
  -28.8430  -15.9419   20.1515 N   0  0  0  0  0  0  0  0  0  0  0  0
  -24.5958  -16.8634   22.0168 N   0  0  0  0  0  0  0  0  0  0  0  0
  -21.1663  -15.3181   22.5120 N   0  0  0  0  0  0  0  0  0  0  0  0
  -27.1733  -27.7883   19.8070 N   0  0  0  0  0  0  0  0  0  0  0  0
  -21.2309  -29.4036   22.4052 N   0  0  0  0  0  0  0  0  0  0  0  0
  -29.3888  -17.5233   21.8232 N   0  0  0  0  0  0  0  0  0  0  0  0
  -25.4338  -20.3056   24.7698 N   0  3  1  0  0  0  0  0  0  0  0  0
  -18.3641  -27.3316   23.1507 N   0  3  0  0  0  0  0  0  0  0  0  0
  -22.5331  -14.6933   24.2441 O   0  0  0  0  0  0  0  0  0  0  0  0
  -26.2703  -27.9985   21.9431 O   0  0  0  0  0  0  0  0  0  0  0  0
  -23.6797  -30.4832   20.7985 O   0  0  0  0  0  0  0  0  0  0  0  0
  -20.6551  -28.3789   24.4041 O   0  0  0  0  0  0  0  0  0  0  0  0
  -30.6242  -17.4047   19.8954 O   0  0  0  0  0  0  0  0  0  0  0  0
  -21.2266   -8.5190   21.5765 O   0  0  0  0  0  0  0  0  0  0  0  0
  -23.2121  -22.1726   22.4026 O   0  0  0  0  0  0  0  0  0  1  0  0
  -23.6765   -4.4581   24.3892 F   0  0  0  0  0  0  0  0  0  0  0  0
  -19.9711   -7.3296   23.7333 F   0  0  0  0  0  0  0  0  0  0  0  0
  -30.5653  -20.9062   20.4164 Cl  0  0  0  0  0  0  0  0  0  0  0  0
  1  2  1  0  0  0  0
  1  5  2  0  0  0  0
  2  6  2  0  0  0  0
  3  9  2  0  0  0  0
  3 17  1  0  0  0  0
  4 10  1  0  0  0  0
  4 17  2  0  0  0  0
  5 19  1  0  0  0  0
  6 21  1  0  0  0  0
  7 11  2  0  0  0  0
  7 20  1  0  0  0  0
  8 14  2  0  0  0  0
  8 23  1  0  0  0  0
  9 26  1  0  0  0  0
 10 26  2  0  0  0  0
 11 27  1  0  0  0  0
 12 13  2  0  0  0  0
 12 28  1  0  0  0  0
 13 29  1  0  0  0  0
 14 31  1  0  0  0  0
 15 22  1  0  0  0  0
 15 27  2  0  0  0  0
 16 29  2  0  0  0  0
 16 30  1  0  0  0  0
 17 32  1  0  0  0  0
 18 32  1  0  0  0  0
 18 33  2  0  0  0  0
 18 36  1  0  0  0  0
 19 21  2  0  0  0  0
 19 41  1  0  0  0  0
 20 22  2  0  0  0  0
 20 42  1  0  0  0  0
 21 53  1  0  0  0  0
 22 43  1  0  0  0  0
 23 24  2  0  0  0  0
 23 65  1  0  0  0  0
 24 25  1  0  0  0  0
 24 57  1  0  0  0  0
 25 31  2  0  0  0  0
 25 64  1  0  0  0  0
 26 85  1  0  0  0  0
 27 86  1  0  0  0  0
 28 30  2  0  0  0  0
 28 85  1  0  0  0  0
 29 87  1  0  0  0  0
 30 88  1  0  0  0  0
 31 89  1  0  0  0  0
 32 69  2  0  0  0  0
 33 70  1  0  0  0  0
 33 73  1  0  0  0  0
 34 35  2  0  0  0  0
 34 44  1  0  0  0  0
 34 78  1  0  0  0  0
 35 58  1  0  0  0  0
 36 74  1  0  0  0  0
 36 80  2  0  0  0  0
 37 54  1  0  0  0  0
 37 75  1  0  0  0  0
 37 81  2  0  0  0  0
 38 66  1  0  0  0  0
 38 71  1  0  0  0  0
 38 82  2  0  0  0  0
 39 67  1  0  0  0  0
 39 76  1  0  0  0  0
 39 83  2  0  0  0  0
 40 72  1  0  0  0  0
 40 77  1  0  0  0  0
 40 84  2  0  0  0  0
 41 45  1  0  0  0  0
 42 54  1  0  0  0  0
 43 71  1  0  0  0  0
 44 46  1  0  0  0  0
 45 48  1  0  0  0  0
 46 56  1  0  0  0  0
 47 49  1  0  0  0  0
 47 50  1  0  0  0  0
 48 53  1  0  0  0  0
 49 55  1  0  0  0  0
 50 72  1  0  0  0  0
 51 55  1  0  0  0  0
 51 72  1  0  0  0  0
 52 56  1  0  0  0  0
 52 78  1  0  0  0  0
 53 75  1  0  0  0  0
 54 71  1  0  0  0  0
 55 70  1  0  0  0  0
 56 86  1  0  0  0  0
 59 67  1  0  0  0  0
 60 68  1  0  0  0  0
 61 68  1  0  0  0  0
 62 68  1  0  0  0  0
 63 79  1  0  0  0  0
 64 77  1  0  0  0  0
 65 78  1  0  0  0  0
 66 68  1  0  0  0  0
 66 76  1  0  0  0  0
 67 79  1  0  0  0  0
 69 70  1  0  0  0  0
M  CHG  2  78   1  79   1
M  ISO  4  40 100  56 101  77 100  86 101
M  END
> <Batch ID>
0037

> <Smiles>
CC=C1CC[101CH:1]([101O:1]c2ccc3c(c2)CN(C(=O)C(NC(=O)C(C)NC)C(C)(C)C)C(C(=O)NC2CCCc4ccccc42)C3)CN1Cc1ccc(Cl)c(C[100NH:0][100C:0](=O)N2CCCC(n3nc(-c4ccc(Oc5ccc(F)cc5F)cc4)c(C(N)=O)c3N)C2)c1C

> <Shape>
0.260

> <Color>
0.037

> <Negative vol penalty>
0.000

$$$$

  -OEChem-04042321573D

 87 96  0     1  0  0  0  0  0999 V2000
  -19.5298  -32.5058   18.8639 C   0  0  0  0  0  0  0  0  0  0  0  0
  -20.9016  -32.3128   18.9914 C   0  0  0  0  0  0  0  0  0  0  0  0
  -25.8083  -12.7029   21.6414 C   0  0  0  0  0  0  0  0  0  0  0  0
  -25.3555  -13.4588   19.3918 C   0  0  0  0  0  0  0  0  0  0  0  0
  -18.6737  -32.1174   19.8936 C   0  0  0  0  0  0  0  0  0  0  0  0
  -21.4183  -31.7322   20.1491 C   0  0  0  0  0  0  0  0  0  0  0  0
  -24.9183  -28.2085   19.1601 C   0  0  0  0  0  0  0  0  0  0  0  0
  -27.7689  -24.7789   17.9560 C   0  0  0  0  0  0  0  0  0  0  0  0
  -26.9881  -23.8469   18.6395 C   0  0  0  0  0  0  0  0  0  0  0  0
  -25.4540  -11.4041   21.2763 C   0  0  0  0  0  0  0  0  0  0  0  0
  -25.0012  -12.1600   19.0267 C   0  0  0  0  0  0  0  0  0  0  0  0
  -26.1951  -28.6561   18.8234 C   0  0  0  0  0  0  0  0  0  0  0  0
  -22.6112   -9.6451   20.7779 C   0  0  0  0  0  0  0  0  0  0  0  0
  -21.7807   -8.9331   21.6433 C   0  0  0  0  0  0  0  0  0  0  0  0
  -26.9338  -28.2271   21.0794 C   0  0  0  0  0  0  0  0  0  0  0  0
  -29.7522  -23.5036   18.4825 C   0  0  0  0  0  0  0  0  0  0  0  0
  -23.4907   -7.2450   21.8954 C   0  0  0  0  0  0  0  0  0  0  0  0
  -25.7590  -13.7302   20.6991 C   0  0  0  0  0  0  0  0  0  0  0  0
  -27.3671  -15.5068   21.5739 C   0  0  0  0  0  0  0  0  0  0  0  0
  -19.1793  -31.5230   21.0605 C   0  0  0  0  0  0  0  0  0  0  0  0
  -24.6364  -27.7764   20.4640 C   0  0  0  0  0  0  0  0  0  0  0  0
  -20.5683  -31.3368   21.1960 C   0  0  0  0  0  0  0  0  0  0  0  0
  -25.6533  -27.7721   21.4294 C   0  0  0  0  0  0  0  0  0  0  0  0
  -29.1510  -24.6073   17.8774 C   0  0  0  0  0  0  0  0  0  0  0  0
  -28.9714  -22.5716   19.1660 C   0  0  0  0  0  0  0  0  0  0  0  0
  -27.5893  -22.7432   19.2445 C   0  0  0  0  0  0  0  0  0  0  0  0
  -25.0505  -11.1326   19.9690 C   0  0  0  0  0  0  0  0  0  0  0  0
  -27.2023  -28.6682   19.7839 C   0  0  0  0  0  0  0  0  0  0  0  0
  -23.8814   -9.1570   20.4711 C   0  0  0  0  0  0  0  0  0  0  0  0
  -22.2205   -7.7331   22.2021 C   0  0  0  0  0  0  0  0  0  0  0  0
  -24.3211   -7.9570   21.0299 C   0  0  0  0  0  0  0  0  0  0  0  0
  -26.1242  -15.0722   21.0757 C   0  0  0  0  0  0  0  0  0  0  0  0
  -27.2038  -16.8557   21.7749 C   0  0  0  0  0  0  0  0  0  0  0  0
  -31.5788  -27.4357   17.3066 C   0  0  0  0  0  0  0  0  0  0  0  0
  -32.8959  -27.1919   17.2327 C   0  0  0  0  0  0  0  0  0  0  0  0
  -28.5624  -14.7582   21.8319 C   0  0  0  0  0  0  0  0  0  0  0  0
  -22.6693  -28.7360   22.7691 C   0  0  0  0  0  0  0  0  0  0  0  0
  -23.7314  -26.0558   24.2559 C   0  0  0  0  0  0  0  0  0  0  0  0
  -26.8863  -24.3600   24.6903 C   0  0  0  0  0  0  0  0  0  0  0  0
  -25.3944  -21.8466   20.0956 C   0  0  0  0  0  0  0  0  0  0  0  0
  -18.2191  -31.1629   22.1664 C   0  0  0  0  0  0  0  0  0  0  0  0
  -23.2610  -27.2714   20.8042 C   0  0  0  0  0  0  0  0  0  0  0  0
  -25.4074  -27.2993   22.8381 C   0  0  0  0  0  0  0  0  0  0  0  0
  -30.9296  -28.6351   16.6712 C   0  0  0  0  0  0  0  0  0  0  0  0
  -18.8126  -30.2123   23.2029 C   0  0  0  0  0  0  0  0  0  0  0  0
  -30.0606  -29.3677   17.6862 C   0  0  0  0  0  0  0  0  0  0  0  0
  -23.0290  -19.7167   21.6912 C   0  0  0  0  0  0  0  0  0  0  0  0
  -20.2034  -30.6791   23.6208 C   0  0  0  0  0  0  0  0  0  0  0  0
  -23.7256  -18.3543   21.7143 C   0  0  0  0  0  0  0  0  0  0  0  0
  -23.3366  -20.4894   20.4097 C   0  0  0  0  0  0  0  0  0  0  0  0
  -25.4614  -19.2755   20.1252 C   0  0  0  0  0  0  0  0  0  0  0  0
  -29.9171  -27.2594   19.0643 C   0  0  0  0  0  0  0  0  0  0  0  0
  -21.1646  -30.6877   22.4261 C   0  0  1  0  0  0  0  0  0  0  0  0
  -22.9523  -27.3379   22.2967 C   0  0  1  0  0  0  0  0  0  0  0  0
  -25.2337  -18.4875   21.4255 C   0  0  2  0  0  0  0  0  0  0  0  0
  -29.1333  -28.4024   18.4243 C   0  0  1  0  0  0  0  0  0  1  0  0
  -29.6427  -21.4004   19.8073 C   0  0  0  0  0  0  0  0  0  0  0  0
  -33.5584  -26.0113   17.8541 C   0  0  0  0  0  0  0  0  0  0  0  0
  -27.3933  -21.9360   25.0961 C   0  0  0  0  0  0  0  0  0  0  0  0
  -23.7200  -26.8455   27.2031 C   0  0  0  0  0  0  0  0  0  0  0  0
  -25.6389  -25.2772   27.5590 C   0  0  0  0  0  0  0  0  0  0  0  0
  -23.4393  -24.3971   26.7781 C   0  0  0  0  0  0  0  0  0  0  0  0
  -28.6901  -24.2255   22.3479 C   0  0  0  0  0  0  0  0  0  0  0  0
  -29.9910  -25.6112   17.1442 C   0  0  0  0  0  0  0  0  0  0  0  0
  -24.8778  -25.7303   25.1827 C   0  0  1  0  0  0  0  0  0  0  0  0
  -27.3056  -23.0447   24.0589 C   0  0  2  0  0  0  0  0  0  0  0  0
  -24.4208  -25.5835   26.6616 C   0  0  0  0  0  0  0  0  0  0  0  0
  -25.2368  -16.0645   20.9670 N   0  0  0  0  0  0  0  0  0  0  0  0
  -25.9228  -17.1360   21.3998 N   0  0  0  0  0  0  0  0  0  0  0  0
  -24.0447  -26.8208   23.1235 N   0  0  0  0  0  0  0  0  0  0  0  0
  -24.7838  -20.5792   20.2037 N   0  0  0  0  0  0  0  0  0  0  0  0
  -28.0323  -17.8174   22.2342 N   0  0  0  0  0  0  0  0  0  0  0  0
  -29.5041  -14.6274   20.8021 N   0  0  0  0  0  0  0  0  0  0  0  0
  -26.7789  -21.8077   19.9343 N   0  0  0  0  0  0  0  0  0  0  0  0
  -21.6084  -29.3435   22.1249 N   0  0  0  0  0  0  0  0  0  0  0  0
  -25.5204  -24.5406   24.6350 N   0  0  0  0  0  0  0  0  0  0  0  0
  -30.7659  -26.5145   18.0632 N   0  3  1  0  0  0  0  0  0  0  0  0
  -28.6383  -23.1848   23.4068 N   0  3  0  0  0  0  0  0  0  0  0  0
  -28.7811  -14.2074   22.9375 O   0  0  0  0  0  0  0  0  0  0  0  0
  -23.3611  -29.2265   23.6536 O   0  0  0  0  0  0  0  0  0  0  0  0
  -22.6011  -25.6403   24.5230 O   0  0  0  0  0  0  0  0  0  0  0  0
  -27.6897  -25.1466   25.1866 O   0  0  0  0  0  0  0  0  0  0  0  0
  -24.7407  -22.8902   20.1700 O   0  0  0  0  0  0  0  0  0  0  0  0
  -24.7050   -9.8654   19.6123 O   0  0  0  0  0  0  0  0  0  0  0  0
  -28.4492  -29.1052   19.4581 O   0  0  0  0  0  0  0  0  0  1  0  0
  -21.4234   -7.0503   23.0344 F   0  0  0  0  0  0  0  0  0  0  0  0
  -25.5408   -7.4836   20.7399 F   0  0  0  0  0  0  0  0  0  0  0  0
  1  2  1  0  0  0  0
  1  5  2  0  0  0  0
  2  6  2  0  0  0  0
  3 10  2  0  0  0  0
  3 18  1  0  0  0  0
  4 11  1  0  0  0  0
  4 18  2  0  0  0  0
  5 20  1  0  0  0  0
  6 22  1  0  0  0  0
  7 12  2  0  0  0  0
  7 21  1  0  0  0  0
  8  9  2  0  0  0  0
  8 24  1  0  0  0  0
  9 26  1  0  0  0  0
 10 27  1  0  0  0  0
 11 27  2  0  0  0  0
 12 28  1  0  0  0  0
 13 14  2  0  0  0  0
 13 29  1  0  0  0  0
 14 30  1  0  0  0  0
 15 23  1  0  0  0  0
 15 28  2  0  0  0  0
 16 24  2  0  0  0  0
 16 25  1  0  0  0  0
 17 30  2  0  0  0  0
 17 31  1  0  0  0  0
 18 32  1  0  0  0  0
 19 32  1  0  0  0  0
 19 33  2  0  0  0  0
 19 36  1  0  0  0  0
 20 22  2  0  0  0  0
 20 41  1  0  0  0  0
 21 23  2  0  0  0  0
 21 42  1  0  0  0  0
 22 53  1  0  0  0  0
 23 43  1  0  0  0  0
 24 64  1  0  0  0  0
 25 26  2  0  0  0  0
 25 57  1  0  0  0  0
 26 74  1  0  0  0  0
 27 84  1  0  0  0  0
 28 85  1  0  0  0  0
 29 31  2  0  0  0  0
 29 84  1  0  0  0  0
 30 86  1  0  0  0  0
 31 87  1  0  0  0  0
 32 68  2  0  0  0  0
 33 69  1  0  0  0  0
 33 72  1  0  0  0  0
 34 35  2  0  0  0  0
 34 44  1  0  0  0  0
 34 77  1  0  0  0  0
 35 58  1  0  0  0  0
 36 73  1  0  0  0  0
 36 79  2  0  0  0  0
 37 54  1  0  0  0  0
 37 75  1  0  0  0  0
 37 80  2  0  0  0  0
 38 65  1  0  0  0  0
 38 70  1  0  0  0  0
 38 81  2  0  0  0  0
 39 66  1  0  0  0  0
 39 76  1  0  0  0  0
 39 82  2  0  0  0  0
 40 71  1  0  0  0  0
 40 74  1  0  0  0  0
 40 83  2  0  0  0  0
 41 45  1  0  0  0  0
 42 54  1  0  0  0  0
 43 70  1  0  0  0  0
 44 46  1  0  0  0  0
 45 48  1  0  0  0  0
 46 56  1  0  0  0  0
 47 49  1  0  0  0  0
 47 50  1  0  0  0  0
 48 53  1  0  0  0  0
 49 55  1  0  0  0  0
 50 71  1  0  0  0  0
 51 55  1  0  0  0  0
 51 71  1  0  0  0  0
 52 56  1  0  0  0  0
 52 77  1  0  0  0  0
 53 75  1  0  0  0  0
 54 70  1  0  0  0  0
 55 69  1  0  0  0  0
 56 85  1  0  0  0  0
 59 66  1  0  0  0  0
 60 67  1  0  0  0  0
 61 67  1  0  0  0  0
 62 67  1  0  0  0  0
 63 78  1  0  0  0  0
 64 77  1  0  0  0  0
 65 67  1  0  0  0  0
 65 76  1  0  0  0  0
 66 78  1  0  0  0  0
 68 69  1  0  0  0  0
M  CHG  2  77   1  78   1
M  ISO  4  40 100  56 101  74 100  85 101
M  END
> <Batch ID>
0037

> <Smiles>
CC=C1CC[101CH:1]([101O:1]c2ccc3c(c2)CN(C(=O)C(NC(=O)C(C)NC)C(C)(C)C)C(C(=O)NC2CCCc4ccccc42)C3)CN1Cc1ccc([100NH:0][100C:0](=O)N2CCCC(n3nc(-c4ccc(Oc5ccc(F)cc5F)cc4)c(C(N)=O)c3N)C2)c(C)c1

> <Shape>
0.186

> <Color>
0.081

> <Negative vol penalty>
0.000

$$$$

  -OEChem-04042321573D

 86 94  0     1  0  0  0  0  0999 V2000
  -28.6589  -15.9205   17.6246 C   0  0  0  0  0  0  0  0  0  0  0  0
  -27.4626  -16.6283   17.6803 C   0  0  0  0  0  0  0  0  0  0  0  0
  -28.5329  -26.5866   18.5426 C   0  0  0  0  0  0  0  0  0  0  0  0
  -26.4380  -25.3830   18.5431 C   0  0  0  0  0  0  0  0  0  0  0  0
  -28.7197  -14.6167   18.1148 C   0  0  0  0  0  0  0  0  0  0  0  0
  -26.3259  -16.0323   18.2254 C   0  0  0  0  0  0  0  0  0  0  0  0
  -23.8249  -19.1242   21.3607 C   0  0  0  0  0  0  0  0  0  0  0  0
  -19.3415  -27.9018   23.9308 C   0  0  0  0  0  0  0  0  0  0  0  0
  -29.2257  -25.3809   18.6520 C   0  0  0  0  0  0  0  0  0  0  0  0
  -27.1308  -24.1773   18.6524 C   0  0  0  0  0  0  0  0  0  0  0  0
  -23.0230  -20.1063   20.7809 C   0  0  0  0  0  0  0  0  0  0  0  0
  -28.6687  -22.3991   21.0821 C   0  0  0  0  0  0  0  0  0  0  0  0
  -28.2004  -21.4639   22.0050 C   0  0  0  0  0  0  0  0  0  0  0  0
  -18.8763  -26.5880   23.9850 C   0  0  0  0  0  0  0  0  0  0  0  0
  -21.0751  -18.7380   21.1715 C   0  0  0  0  0  0  0  0  0  0  0  0
  -27.8636  -19.8710   20.2199 C   0  0  0  0  0  0  0  0  0  0  0  0
  -27.1390  -26.5876   18.4882 C   0  0  0  0  0  0  0  0  0  0  0  0
  -26.0438  -28.4916   17.1909 C   0  0  0  0  0  0  0  0  0  0  0  0
  -27.5856  -14.0078   18.6749 C   0  0  0  0  0  0  0  0  0  0  0  0
  -23.2583  -17.9349   21.8412 C   0  0  0  0  0  0  0  0  0  0  0  0
  -26.3712  -14.7186   18.7224 C   0  0  0  0  0  0  0  0  0  0  0  0
  -21.8716  -17.7435   21.7593 C   0  0  0  0  0  0  0  0  0  0  0  0
  -19.7817  -28.4364   22.7199 C   0  0  0  0  0  0  0  0  0  0  0  0
  -19.2913  -26.3433   21.6176 C   0  0  0  0  0  0  0  0  0  0  0  0
  -28.5247  -24.1763   18.7068 C   0  0  0  0  0  0  0  0  0  0  0  0
  -21.6483  -19.9121   20.6836 C   0  0  0  0  0  0  0  0  0  0  0  0
  -28.7344  -22.0703   19.7281 C   0  0  0  0  0  0  0  0  0  0  0  0
  -27.7978  -20.1999   21.5739 C   0  0  0  0  0  0  0  0  0  0  0  0
  -28.3319  -20.8063   19.2970 C   0  0  0  0  0  0  0  0  0  0  0  0
  -18.8512  -25.8087   22.8285 C   0  0  0  0  0  0  0  0  0  0  0  0
  -19.7566  -27.6571   21.5633 C   0  0  0  0  0  0  0  0  0  0  0  0
  -26.4228  -27.8328   18.3759 C   0  0  0  0  0  0  0  0  0  0  0  0
  -25.3931  -29.6226   17.6198 C   0  0  0  0  0  0  0  0  0  0  0  0
  -26.2605  -28.1148   15.8246 C   0  0  0  0  0  0  0  0  0  0  0  0
  -23.5667  -14.8535   21.1244 C   0  0  0  0  0  0  0  0  0  0  0  0
  -21.6459  -14.4606   23.7086 C   0  0  0  0  0  0  0  0  0  0  0  0
  -20.0970  -23.1435   20.2565 C   0  0  0  0  0  0  0  0  0  0  0  0
  -19.3007  -15.7862   25.8037 C   0  0  0  0  0  0  0  0  0  0  0  0
  -22.4791  -30.9822   22.6707 C   0  0  0  0  0  0  0  0  0  0  0  0
  -27.6879  -12.5797   19.1488 C   0  0  0  0  0  0  0  0  0  0  0  0
  -24.1336  -16.8967   22.4881 C   0  0  0  0  0  0  0  0  0  0  0  0
  -21.2116  -16.4931   22.2784 C   0  0  0  0  0  0  0  0  0  0  0  0
  -26.5335  -12.1535   20.0522 C   0  0  0  0  0  0  0  0  0  0  0  0
  -25.2619  -32.7087   21.2735 C   0  0  0  0  0  0  0  0  0  0  0  0
  -25.1993  -12.5888   19.4547 C   0  0  0  0  0  0  0  0  0  0  0  0
  -25.8407  -31.7143   20.2655 C   0  0  0  0  0  0  0  0  0  0  0  0
  -24.7306  -32.0042   22.5199 C   0  0  0  0  0  0  0  0  0  0  0  0
  -24.3402  -29.9301   21.2473 C   0  0  0  0  0  0  0  0  0  0  0  0
  -25.1229  -14.1152   19.3288 C   0  0  1  0  0  0  0  0  0  0  0  0
  -23.5141  -15.5026   22.4784 C   0  0  1  0  0  0  0  0  0  0  0  0
  -24.8378  -30.5886   19.9491 C   0  0  2  0  0  0  0  0  0  0  0  0
  -17.8927  -15.2117   27.8000 C   0  0  0  0  0  0  0  0  0  0  0  0
  -19.7964  -12.8129   21.9270 C   0  0  0  0  0  0  0  0  0  0  0  0
  -18.0075  -13.0771   23.6585 C   0  0  0  0  0  0  0  0  0  0  0  0
  -20.1254  -11.8881   24.2272 C   0  0  0  0  0  0  0  0  0  0  0  0
  -21.6852  -25.0643   20.4573 C   0  0  0  0  0  0  0  0  0  0  0  0
  -20.5391  -17.9212   27.4369 C   0  0  0  0  0  0  0  0  0  0  0  0
  -20.2717  -29.8488   22.7104 C   0  0  0  0  0  0  0  0  0  0  0  0
  -19.2621  -25.5002   20.3755 C   0  0  0  0  0  0  0  0  0  0  0  0
  -21.2986  -22.2223   20.2403 C   0  0  0  0  0  0  0  0  0  1  0  0
  -20.1542  -14.3990   23.9325 C   0  0  1  0  0  0  0  0  0  0  0  0
  -19.2036  -15.8138   27.3184 C   0  0  2  0  0  0  0  0  0  0  0  0
  -19.5332  -13.0671   23.4246 C   0  0  0  0  0  0  0  0  0  0  0  0
  -26.0445  -28.4906   19.4751 N   0  0  0  0  0  0  0  0  0  0  0  0
  -25.4211  -29.5745   18.9826 N   0  0  0  0  0  0  0  0  0  0  0  0
  -22.1108  -15.5048   22.8967 N   0  0  0  0  0  0  0  0  0  0  0  0
  -23.7836  -30.9493   22.1507 N   0  0  0  0  0  0  0  0  0  0  0  0
  -24.8055  -30.6435   16.9605 N   0  0  0  0  0  0  0  0  0  0  0  0
  -26.9469  -26.9216   15.5613 N   0  0  0  0  0  0  0  0  0  0  0  0
  -24.8442  -14.7151   20.6160 N   0  0  0  0  0  0  0  0  0  0  0  0
  -19.9440  -14.6527   25.3537 N   0  0  0  0  0  0  0  0  0  0  0  0
  -21.6438  -29.9484   22.2653 N   0  0  0  0  0  0  0  0  0  0  0  0
  -20.3391  -24.5138   20.3590 N   0  0  0  0  0  0  0  0  0  0  0  0
  -19.2884  -17.2154   27.8175 N   0  3  0  0  0  0  0  0  0  0  0  0
  -25.8718  -28.8239   14.8656 O   0  0  0  0  0  0  0  0  0  0  0  0
  -22.5255  -14.5028   20.5816 O   0  0  0  0  0  0  0  0  0  0  0  0
  -22.3726  -13.6175   24.2406 O   0  0  0  0  0  0  0  0  0  0  0  0
  -18.9689  -22.6485   20.1719 O   0  0  0  0  0  0  0  0  0  0  0  0
  -18.8477  -16.6790   25.0909 O   0  0  0  0  0  0  0  0  0  0  0  0
  -22.0863  -31.8701   23.4351 O   0  0  0  0  0  0  0  0  0  0  0  0
  -29.2004  -22.9996   18.8132 O   0  0  0  0  0  0  0  0  0  0  0  0
  -20.8634  -20.8689   20.1176 O   0  0  0  0  0  0  0  0  0  1  0  0
  -27.3496  -19.3014   22.4605 F   0  0  0  0  0  0  0  0  0  0  0  0
  -28.3939  -20.4842   17.9977 F   0  0  0  0  0  0  0  0  0  0  0  0
  -18.2672  -24.1874   22.9420 Cl  0  0  0  0  0  0  0  0  0  0  0  0
  -20.3049  -28.3272   20.0624 Cl  0  0  0  0  0  0  0  0  0  0  0  0
  1  2  1  0  0  0  0
  1  5  2  0  0  0  0
  2  6  2  0  0  0  0
  3  9  2  0  0  0  0
  3 17  1  0  0  0  0
  4 10  1  0  0  0  0
  4 17  2  0  0  0  0
  5 19  1  0  0  0  0
  6 21  1  0  0  0  0
  7 11  2  0  0  0  0
  7 20  1  0  0  0  0
  8 14  1  0  0  0  0
  8 23  2  0  0  0  0
  9 25  1  0  0  0  0
 10 25  2  0  0  0  0
 11 26  1  0  0  0  0
 12 13  2  0  0  0  0
 12 27  1  0  0  0  0
 13 28  1  0  0  0  0
 14 30  2  0  0  0  0
 15 22  1  0  0  0  0
 15 26  2  0  0  0  0
 16 28  2  0  0  0  0
 16 29  1  0  0  0  0
 17 32  1  0  0  0  0
 18 32  1  0  0  0  0
 18 33  2  0  0  0  0
 18 34  1  0  0  0  0
 19 21  2  0  0  0  0
 19 40  1  0  0  0  0
 20 22  2  0  0  0  0
 20 41  1  0  0  0  0
 21 49  1  0  0  0  0
 22 42  1  0  0  0  0
 23 31  1  0  0  0  0
 23 58  1  0  0  0  0
 24 30  1  0  0  0  0
 24 31  2  0  0  0  0
 24 59  1  0  0  0  0
 25 81  1  0  0  0  0
 26 82  1  0  0  0  0
 27 29  2  0  0  0  0
 27 81  1  0  0  0  0
 28 83  1  0  0  0  0
 29 84  1  0  0  0  0
 30 85  1  0  0  0  0
 31 86  1  0  0  0  0
 32 64  2  0  0  0  0
 33 65  1  0  0  0  0
 33 68  1  0  0  0  0
 34 69  1  0  0  0  0
 34 75  2  0  0  0  0
 35 50  1  0  0  0  0
 35 70  1  0  0  0  0
 35 76  2  0  0  0  0
 36 61  1  0  0  0  0
 36 66  1  0  0  0  0
 36 77  2  0  0  0  0
 37 60  1  0  0  0  0
 37 73  1  0  0  0  0
 37 78  2  0  0  0  0
 38 62  1  0  0  0  0
 38 71  1  0  0  0  0
 38 79  2  0  0  0  0
 39 67  1  0  0  0  0
 39 72  1  0  0  0  0
 39 80  2  0  0  0  0
 40 43  1  0  0  0  0
 41 50  1  0  0  0  0
 42 66  1  0  0  0  0
 43 45  1  0  0  0  0
 44 46  1  0  0  0  0
 44 47  1  0  0  0  0
 45 49  1  0  0  0  0
 46 51  1  0  0  0  0
 47 67  1  0  0  0  0
 48 51  1  0  0  0  0
 48 67  1  0  0  0  0
 49 70  1  0  0  0  0
 50 66  1  0  0  0  0
 51 65  1  0  0  0  0
 52 62  1  0  0  0  0
 53 63  1  0  0  0  0
 54 63  1  0  0  0  0
 55 63  1  0  0  0  0
 56 73  1  0  0  0  0
 57 74  1  0  0  0  0
 58 72  1  0  0  0  0
 59 73  1  0  0  0  0
 60 82  1  0  0  0  0
 61 63  1  0  0  0  0
 61 71  1  0  0  0  0
 62 74  1  0  0  0  0
 64 65  1  0  0  0  0
M  CHG  1  74   1
M  ISO  4  39 100  60 101  72 100  82 101
M  END
> <Batch ID>
0037

> <Smiles>
CNC(C)C(=O)NC(C(=O)N1Cc2cc([101O:1][101CH2:1]C(=O)N(C)Cc3c(Cl)ccc(C[100NH:0][100C:0](=O)N4CCCC(n5nc(-c6ccc(Oc7ccc(F)cc7F)cc6)c(C(N)=O)c5N)C4)c3Cl)ccc2CC1C(=O)NC1CCCc2ccccc21)C(C)(C)C

> <Shape>
0.192

> <Color>
0.084

> <Negative vol penalty>
0.000

$$$$

  -OEChem-04042321573D

 87 96  0     1  0  0  0  0  0999 V2000
  -19.3702  -29.9295   19.8715 C   0  0  0  0  0  0  0  0  0  0  0  0
  -20.7460  -29.8165   20.0444 C   0  0  0  0  0  0  0  0  0  0  0  0
  -24.3776  -14.4200   20.7481 C   0  0  0  0  0  0  0  0  0  0  0  0
  -25.7838  -12.7756   19.6731 C   0  0  0  0  0  0  0  0  0  0  0  0
  -18.5067  -29.1318   20.6211 C   0  0  0  0  0  0  0  0  0  0  0  0
  -21.2590  -28.9065   20.9681 C   0  0  0  0  0  0  0  0  0  0  0  0
  -25.1664  -26.2633   19.1265 C   0  0  0  0  0  0  0  0  0  0  0  0
  -29.1382  -24.7883   15.9543 C   0  0  0  0  0  0  0  0  0  0  0  0
  -28.0611  -23.9337   15.7197 C   0  0  0  0  0  0  0  0  0  0  0  0
  -23.9013  -13.4420   21.6212 C   0  0  0  0  0  0  0  0  0  0  0  0
  -25.3076  -11.7976   20.5462 C   0  0  0  0  0  0  0  0  0  0  0  0
  -26.4038  -26.9040   19.0814 C   0  0  0  0  0  0  0  0  0  0  0  0
  -22.5425   -9.8790   20.8689 C   0  0  0  0  0  0  0  0  0  0  0  0
  -22.1834   -8.6452   20.3264 C   0  0  0  0  0  0  0  0  0  0  0  0
  -27.0617  -25.7628   21.1022 C   0  0  0  0  0  0  0  0  0  0  0  0
  -30.2915  -23.0147   17.1210 C   0  0  0  0  0  0  0  0  0  0  0  0
  -23.8335   -7.5548   21.7139 C   0  0  0  0  0  0  0  0  0  0  0  0
  -25.3188  -14.0868   19.7740 C   0  0  0  0  0  0  0  0  0  0  0  0
  -25.0572  -15.8674   17.9661 C   0  0  0  0  0  0  0  0  0  0  0  0
  -19.0097  -28.2047   21.5475 C   0  0  0  0  0  0  0  0  0  0  0  0
  -24.8627  -25.3743   20.1676 C   0  0  0  0  0  0  0  0  0  0  0  0
  -20.4014  -28.0966   21.7318 C   0  0  0  0  0  0  0  0  0  0  0  0
  -25.8207  -25.1101   21.1569 C   0  0  0  0  0  0  0  0  0  0  0  0
  -30.2534  -24.3288   16.6549 C   0  0  0  0  0  0  0  0  0  0  0  0
  -28.0992  -22.6195   16.1857 C   0  0  0  0  0  0  0  0  0  0  0  0
  -29.2144  -22.1600   16.8864 C   0  0  0  0  0  0  0  0  0  0  0  0
  -24.3664  -12.1308   21.5203 C   0  0  0  0  0  0  0  0  0  0  0  0
  -27.3506  -26.6561   20.0709 C   0  0  0  0  0  0  0  0  0  0  0  0
  -23.5472   -9.9507   21.8339 C   0  0  0  0  0  0  0  0  0  0  0  0
  -22.8289   -7.4831   20.7488 C   0  0  0  0  0  0  0  0  0  0  0  0
  -24.1927   -8.7886   22.2564 C   0  0  0  0  0  0  0  0  0  0  0  0
  -25.8107  -15.0965   18.8714 C   0  0  0  0  0  0  0  0  0  0  0  0
  -25.9823  -16.6730   17.3482 C   0  0  0  0  0  0  0  0  0  0  0  0
  -23.6471  -15.8564   17.7069 C   0  0  0  0  0  0  0  0  0  0  0  0
  -22.6824  -25.2873   22.4789 C   0  0  0  0  0  0  0  0  0  0  0  0
  -23.9453  -22.3500   23.0259 C   0  0  0  0  0  0  0  0  0  0  0  0
  -27.2364  -20.8743   23.1192 C   0  0  0  0  0  0  0  0  0  0  0  0
  -30.4106  -20.0426   17.5439 C   0  0  0  0  0  0  0  0  0  0  0  0
  -18.0357  -27.3977   22.3689 C   0  0  0  0  0  0  0  0  0  0  0  0
  -23.5334  -24.6707   20.1873 C   0  0  0  0  0  0  0  0  0  0  0  0
  -25.5516  -24.1488   22.2847 C   0  0  0  0  0  0  0  0  0  0  0  0
  -18.6714  -26.1926   23.0571 C   0  0  0  0  0  0  0  0  0  0  0  0
  -31.9317  -25.9977   21.2082 C   0  0  0  0  0  0  0  0  0  0  0  0
  -31.0417  -16.5404   17.4281 C   0  0  0  0  0  0  0  0  0  0  0  0
  -19.9792  -26.5922   23.7329 C   0  0  0  0  0  0  0  0  0  0  0  0
  -29.6751  -15.9160   17.7188 C   0  0  0  0  0  0  0  0  0  0  0  0
  -30.5651  -26.6788   21.1964 C   0  0  0  0  0  0  0  0  0  0  0  0
  -32.9113  -26.6390   20.2267 C   0  0  0  0  0  0  0  0  0  0  0  0
  -31.2666  -17.8156   18.2387 C   0  0  0  0  0  0  0  0  0  0  0  0
  -28.8389  -18.1991   18.4081 C   0  0  0  0  0  0  0  0  0  0  0  0
  -30.4118  -26.7721   18.6243 C   0  0  0  0  0  0  0  0  0  0  0  0
  -20.9970  -27.1035   22.7061 C   0  0  1  0  0  0  0  0  0  0  0  0
  -23.1393  -24.1768   21.5758 C   0  0  1  0  0  0  0  0  0  0  0  0
  -28.5402  -16.9477   17.5665 C   0  0  2  0  0  0  0  0  0  0  0  0
  -29.7194  -26.4485   19.9445 C   0  0  2  0  0  0  0  0  0  1  0  0
  -32.8825  -26.0915   18.7914 C   0  0  2  0  0  0  0  0  0  0  0  0
  -26.9307  -21.7266   15.9206 C   0  0  0  0  0  0  0  0  0  0  0  0
  -33.5697  -27.0648   17.8322 C   0  0  0  0  0  0  0  0  0  0  0  0
  -27.9789  -18.5146   22.6976 C   0  0  0  0  0  0  0  0  0  0  0  0
  -23.6900  -22.0363   26.0502 C   0  0  0  0  0  0  0  0  0  0  0  0
  -25.7447  -20.6064   26.0053 C   0  0  0  0  0  0  0  0  0  0  0  0
  -23.6979  -19.8848   24.7752 C   0  0  0  0  0  0  0  0  0  0  0  0
  -29.1678  -21.7295   21.0462 C   0  0  0  0  0  0  0  0  0  0  0  0
  -31.4116  -25.2488   16.9066 C   0  0  0  0  0  0  0  0  0  0  0  0
  -25.0684  -21.8110   23.8787 C   0  0  1  0  0  0  0  0  0  0  0  0
  -27.8283  -19.9085   22.1086 C   0  0  2  0  0  0  0  0  0  0  0  0
  -24.5508  -21.1111   25.1670 C   0  0  0  0  0  0  0  0  0  0  0  0
  -27.1141  -15.3861   18.8350 N   0  0  0  0  0  0  0  0  0  0  0  0
  -27.1868  -16.3480   17.8993 N   0  0  0  0  0  0  0  0  0  0  0  0
  -24.2349  -23.4906   22.2636 N   0  0  0  0  0  0  0  0  0  0  0  0
  -30.1541  -18.7476   18.0417 N   0  0  0  0  0  0  0  0  0  0  0  0
  -25.8747  -17.6205   16.3926 N   0  0  0  0  0  0  0  0  0  0  0  0
  -23.1564  -14.9937   16.7173 N   0  0  0  0  0  0  0  0  0  0  0  0
  -29.2722  -20.8283   17.3672 N   0  0  0  0  0  0  0  0  0  0  0  0
  -21.5985  -25.9954   21.9957 N   0  0  0  0  0  0  0  0  0  0  0  0
  -25.8640  -20.9506   23.0097 N   0  0  0  0  0  0  0  0  0  0  0  0
  -31.4776  -25.7402   18.3328 N   0  3  2  0  0  0  0  0  0  0  0  0
  -29.1713  -20.3797   21.6668 N   0  3  0  0  0  0  0  0  0  0  0  0
  -22.8480  -16.6018   18.3228 O   0  0  0  0  0  0  0  0  0  0  0  0
  -23.2687  -25.4861   23.5364 O   0  0  0  0  0  0  0  0  0  0  0  0
  -22.8535  -21.7758   23.0302 O   0  0  0  0  0  0  0  0  0  0  0  0
  -27.9225  -21.4959   23.9276 O   0  0  0  0  0  0  0  0  0  0  0  0
  -31.5531  -20.4170   17.2671 O   0  0  0  0  0  0  0  0  0  0  0  0
  -23.9020  -11.1763   22.3722 O   0  0  0  0  0  0  0  0  0  0  0  0
  -28.5589  -27.2806   20.0296 O   0  0  0  0  0  0  0  0  0  1  0  0
  -22.4829   -6.2982   20.2288 F   0  0  0  0  0  0  0  0  0  0  0  0
  -25.1578   -8.8510   23.1840 F   0  0  0  0  0  0  0  0  0  0  0  0
  1  2  1  0  0  0  0
  1  5  2  0  0  0  0
  2  6  2  0  0  0  0
  3 10  2  0  0  0  0
  3 18  1  0  0  0  0
  4 11  1  0  0  0  0
  4 18  2  0  0  0  0
  5 20  1  0  0  0  0
  6 22  1  0  0  0  0
  7 12  2  0  0  0  0
  7 21  1  0  0  0  0
  8  9  2  0  0  0  0
  8 24  1  0  0  0  0
  9 25  1  0  0  0  0
 10 27  1  0  0  0  0
 11 27  2  0  0  0  0
 12 28  1  0  0  0  0
 13 14  2  0  0  0  0
 13 29  1  0  0  0  0
 14 30  1  0  0  0  0
 15 23  1  0  0  0  0
 15 28  2  0  0  0  0
 16 24  2  0  0  0  0
 16 26  1  0  0  0  0
 17 30  2  0  0  0  0
 17 31  1  0  0  0  0
 18 32  1  0  0  0  0
 19 32  1  0  0  0  0
 19 33  2  0  0  0  0
 19 34  1  0  0  0  0
 20 22  2  0  0  0  0
 20 39  1  0  0  0  0
 21 23  2  0  0  0  0
 21 40  1  0  0  0  0
 22 52  1  0  0  0  0
 23 41  1  0  0  0  0
 24 64  1  0  0  0  0
 25 26  2  0  0  0  0
 25 57  1  0  0  0  0
 26 74  1  0  0  0  0
 27 84  1  0  0  0  0
 28 85  1  0  0  0  0
 29 31  2  0  0  0  0
 29 84  1  0  0  0  0
 30 86  1  0  0  0  0
 31 87  1  0  0  0  0
 32 68  2  0  0  0  0
 33 69  1  0  0  0  0
 33 72  1  0  0  0  0
 34 73  1  0  0  0  0
 34 79  2  0  0  0  0
 35 53  1  0  0  0  0
 35 75  1  0  0  0  0
 35 80  2  0  0  0  0
 36 65  1  0  0  0  0
 36 70  1  0  0  0  0
 36 81  2  0  0  0  0
 37 66  1  0  0  0  0
 37 76  1  0  0  0  0
 37 82  2  0  0  0  0
 38 71  1  0  0  0  0
 38 74  1  0  0  0  0
 38 83  2  0  0  0  0
 39 42  1  0  0  0  0
 40 53  1  0  0  0  0
 41 70  1  0  0  0  0
 42 45  1  0  0  0  0
 43 47  1  0  0  0  0
 43 48  1  0  0  0  0
 44 46  1  0  0  0  0
 44 49  1  0  0  0  0
 45 52  1  0  0  0  0
 46 54  1  0  0  0  0
 47 55  1  0  0  0  0
 48 56  1  0  0  0  0
 49 71  1  0  0  0  0
 50 54  1  0  0  0  0
 50 71  1  0  0  0  0
 51 55  1  0  0  0  0
 51 77  1  0  0  0  0
 52 75  1  0  0  0  0
 53 70  1  0  0  0  0
 54 69  1  0  0  0  0
 55 85  1  0  0  0  0
 56 58  1  0  0  0  0
 56 77  1  0  0  0  0
 59 66  1  0  0  0  0
 60 67  1  0  0  0  0
 61 67  1  0  0  0  0
 62 67  1  0  0  0  0
 63 78  1  0  0  0  0
 64 77  1  0  0  0  0
 65 67  1  0  0  0  0
 65 76  1  0  0  0  0
 66 78  1  0  0  0  0
 68 69  1  0  0  0  0
M  CHG  2  77   1  78   1
M  ISO  4  38 100  55 101  74 100  85 101
M  END
> <Batch ID>
0037

> <Smiles>
CNC(C)C(=O)NC(C(=O)N1Cc2cc([101O:1][101CH:1]3CCCC(C)N(Cc4ccc(C)c([100NH:0][100C:0](=O)N5CCCC(n6nc(-c7ccc(Oc8ccc(F)cc8F)cc7)c(C(N)=O)c6N)C5)c4)C3)ccc2CC1C(=O)NC1CCCc2ccccc21)C(C)(C)C

> <Shape>
0.203

> <Color>
0.056

> <Negative vol penalty>
0.000

$$$$

  -OEChem-04042321573D

 85 93  0     1  0  0  0  0  0999 V2000
  -29.3460  -29.8095   23.4424 C   0  0  0  0  0  0  0  0  0  0  0  0
  -28.7137  -28.5868   23.6438 C   0  0  0  0  0  0  0  0  0  0  0  0
  -23.2804   -9.8027   19.9085 C   0  0  0  0  0  0  0  0  0  0  0  0
  -23.7207   -9.9393   22.2801 C   0  0  0  0  0  0  0  0  0  0  0  0
  -29.6771  -30.2173   22.1509 C   0  0  0  0  0  0  0  0  0  0  0  0
  -28.4111  -27.7717   22.5537 C   0  0  0  0  0  0  0  0  0  0  0  0
  -29.5921  -22.9157   23.3720 C   0  0  0  0  0  0  0  0  0  0  0  0
  -22.5462   -8.6344   20.1121 C   0  0  0  0  0  0  0  0  0  0  0  0
  -22.9864   -8.7709   22.4837 C   0  0  0  0  0  0  0  0  0  0  0  0
  -28.7166  -22.1719   24.1620 C   0  0  0  0  0  0  0  0  0  0  0  0
  -20.8571   -5.4174   19.9639 C   0  0  0  0  0  0  0  0  0  0  0  0
  -21.0798   -4.3499   19.0943 C   0  0  0  0  0  0  0  0  0  0  0  0
  -27.7434  -21.2157   22.1725 C   0  0  0  0  0  0  0  0  0  0  0  0
  -32.8295  -15.2756   23.7201 C   0  0  0  0  0  0  0  0  0  0  0  0
  -31.9069  -17.2631   24.7379 C   0  0  0  0  0  0  0  0  0  0  0  0
  -23.3993   -4.2856   19.7673 C   0  0  0  0  0  0  0  0  0  0  0  0
  -23.8677  -10.4552   20.9926 C   0  0  0  0  0  0  0  0  0  0  0  0
  -24.1428  -12.9837   20.7967 C   0  0  0  0  0  0  0  0  0  0  0  0
  -29.3872  -29.4024   21.0452 C   0  0  0  0  0  0  0  0  0  0  0  0
  -29.5424  -22.8231   21.9736 C   0  0  0  0  0  0  0  0  0  0  0  0
  -28.7375  -28.1696   21.2461 C   0  0  0  0  0  0  0  0  0  0  0  0
  -28.6211  -21.9575   21.3672 C   0  0  0  0  0  0  0  0  0  0  0  0
  -31.7215  -14.5432   24.1458 C   0  0  0  0  0  0  0  0  0  0  0  0
  -30.7988  -16.5306   25.1637 C   0  0  0  0  0  0  0  0  0  0  0  0
  -22.3991   -8.1185   21.3997 C   0  0  0  0  0  0  0  0  0  0  0  0
  -27.7901  -21.3239   23.5622 C   0  0  0  0  0  0  0  0  0  0  0  0
  -21.9055   -5.9191   20.7352 C   0  0  0  0  0  0  0  0  0  0  0  0
  -22.3509   -3.7839   18.9960 C   0  0  0  0  0  0  0  0  0  0  0  0
  -23.1766   -5.3532   20.6369 C   0  0  0  0  0  0  0  0  0  0  0  0
  -32.9223  -16.6356   24.0162 C   0  0  0  0  0  0  0  0  0  0  0  0
  -30.7061  -15.1707   24.8676 C   0  0  0  0  0  0  0  0  0  0  0  0
  -24.6267  -11.6618   20.7828 C   0  0  0  0  0  0  0  0  0  0  0  0
  -25.2501  -13.7573   20.5475 C   0  0  0  0  0  0  0  0  0  0  0  0
  -22.8116  -13.4690   21.0155 C   0  0  0  0  0  0  0  0  0  0  0  0
  -28.9421  -24.8626   19.6106 C   0  0  0  0  0  0  0  0  0  0  0  0
  -29.7901  -22.3470   17.7464 C   0  0  0  0  0  0  0  0  0  0  0  0
  -30.1165  -18.9661   17.4158 C   0  0  0  0  0  0  0  0  0  0  0  0
  -31.1120  -12.8794   21.3946 C   0  0  0  0  0  0  0  0  0  0  0  0
  -29.7217  -29.9071   19.6639 C   0  0  0  0  0  0  0  0  0  0  0  0
  -30.5116  -23.6119   21.1365 C   0  0  0  0  0  0  0  0  0  0  0  0
  -28.5408  -21.8068   19.8707 C   0  0  0  0  0  0  0  0  0  0  0  0
  -29.7039  -28.8163   18.5961 C   0  0  0  0  0  0  0  0  0  0  0  0
  -29.4822  -13.6302   18.3195 C   0  0  0  0  0  0  0  0  0  0  0  0
  -28.4516  -27.9562   18.7324 C   0  0  0  0  0  0  0  0  0  0  0  0
  -28.0093  -13.3302   18.6033 C   0  0  0  0  0  0  0  0  0  0  0  0
  -30.4063  -12.6450   19.0316 C   0  0  0  0  0  0  0  0  0  0  0  0
  -28.7089  -12.2245   20.7682 C   0  0  0  0  0  0  0  0  0  0  0  0
  -28.4151  -27.2463   20.0912 C   0  0  1  0  0  0  0  0  0  0  0  0
  -30.0275  -23.8280   19.7060 C   0  0  1  0  0  0  0  0  0  0  0  0
  -27.7399  -13.2258   20.1165 C   0  0  2  0  0  0  0  0  0  0  0  0
  -30.7982  -17.2051   15.7631 C   0  0  0  0  0  0  0  0  0  0  0  0
  -27.1388  -22.7018   16.2785 C   0  0  0  0  0  0  0  0  0  0  0  0
  -27.4397  -20.4066   15.3246 C   0  0  0  0  0  0  0  0  0  0  0  0
  -29.0915  -22.2004   14.7987 C   0  0  0  0  0  0  0  0  0  0  0  0
  -32.3138  -18.0178   19.1570 C   0  0  0  0  0  0  0  0  0  0  0  0
  -31.6637  -13.0884   23.8052 C   0  0  0  0  0  0  0  0  0  0  0  0
  -29.7307  -17.2472   25.9361 C   0  0  0  0  0  0  0  0  0  0  0  0
  -26.2090  -18.4039   24.9765 C   0  0  0  0  0  0  0  0  0  0  0  0
  -27.4070  -18.1618   25.8822 C   0  0  0  0  0  0  0  0  0  0  0  0
  -26.5010  -19.3409   23.8109 C   0  0  0  0  0  0  0  0  0  1  0  0
  -29.0561  -21.1886   17.1154 C   0  0  1  0  0  0  0  0  0  0  0  0
  -31.2573  -18.1103   16.8955 C   0  0  2  0  0  0  0  0  0  0  0  0
  -28.1815  -21.6284   15.9075 C   0  0  0  0  0  0  0  0  0  0  0  0
  -25.9391  -11.5956   20.5435 N   0  0  0  0  0  0  0  0  0  0  0  0
  -26.2893  -12.8856   20.4047 N   0  0  0  0  0  0  0  0  0  0  0  0
  -29.5054  -22.6039   19.0950 N   0  0  0  0  0  0  0  0  0  0  0  0
  -30.0999  -12.5945   20.4632 N   0  0  0  0  0  0  0  0  0  0  0  0
  -25.4263  -15.0913   20.4386 N   0  0  0  0  0  0  0  0  0  0  0  0
  -21.7923  -12.5379   21.2575 N   0  0  0  0  0  0  0  0  0  0  0  0
  -29.3066  -26.1063   20.0899 N   0  0  0  0  0  0  0  0  0  0  0  0
  -30.0704  -20.1926   16.7875 N   0  0  0  0  0  0  0  0  0  0  0  0
  -30.7356  -12.8152   22.7306 N   0  0  0  0  0  0  0  0  0  0  0  0
  -31.8041  -17.2563   17.9877 N   0  3  0  0  0  0  0  0  0  0  0  0
  -28.5062  -17.5115   25.1309 N   0  3  0  0  0  0  0  0  0  0  0  0
  -22.5310  -14.6912   20.9805 O   0  0  0  0  0  0  0  0  0  0  0  0
  -27.8548  -24.5556   19.1358 O   0  0  0  0  0  0  0  0  0  0  0  0
  -30.5920  -22.9956   17.0696 O   0  0  0  0  0  0  0  0  0  0  0  0
  -29.3414  -18.5832   18.2894 O   0  0  0  0  0  0  0  0  0  0  0  0
  -32.2644  -13.1746   21.0601 O   0  0  0  0  0  0  0  0  0  0  0  0
  -21.6826   -6.9785   21.5987 O   0  0  0  0  0  0  0  0  0  0  0  0
  -26.9340  -20.5973   24.3309 O   0  0  0  0  0  0  0  0  0  1  0  0
  -22.5643   -2.7577   18.1620 F   0  0  0  0  0  0  0  0  0  0  0  0
  -24.1874   -5.8301   21.3763 F   0  0  0  0  0  0  0  0  0  0  0  0
  -34.2897  -17.5396   23.4917 Cl  0  0  0  0  0  0  0  0  0  0  0  0
  -29.3312  -14.2609   25.3974 Cl  0  0  0  0  0  0  0  0  0  0  0  0
  1  2  1  0  0  0  0
  1  5  2  0  0  0  0
  2  6  2  0  0  0  0
  3  8  2  0  0  0  0
  3 17  1  0  0  0  0
  4  9  1  0  0  0  0
  4 17  2  0  0  0  0
  5 19  1  0  0  0  0
  6 21  1  0  0  0  0
  7 10  2  0  0  0  0
  7 20  1  0  0  0  0
  8 25  1  0  0  0  0
  9 25  2  0  0  0  0
 10 26  1  0  0  0  0
 11 12  2  0  0  0  0
 11 27  1  0  0  0  0
 12 28  1  0  0  0  0
 13 22  1  0  0  0  0
 13 26  2  0  0  0  0
 14 23  2  0  0  0  0
 14 30  1  0  0  0  0
 15 24  1  0  0  0  0
 15 30  2  0  0  0  0
 16 28  2  0  0  0  0
 16 29  1  0  0  0  0
 17 32  1  0  0  0  0
 18 32  1  0  0  0  0
 18 33  2  0  0  0  0
 18 34  1  0  0  0  0
 19 21  2  0  0  0  0
 19 39  1  0  0  0  0
 20 22  2  0  0  0  0
 20 40  1  0  0  0  0
 21 48  1  0  0  0  0
 22 41  1  0  0  0  0
 23 31  1  0  0  0  0
 23 56  1  0  0  0  0
 24 31  2  0  0  0  0
 24 57  1  0  0  0  0
 25 80  1  0  0  0  0
 26 81  1  0  0  0  0
 27 29  2  0  0  0  0
 27 80  1  0  0  0  0
 28 82  1  0  0  0  0
 29 83  1  0  0  0  0
 30 84  1  0  0  0  0
 31 85  1  0  0  0  0
 32 64  2  0  0  0  0
 33 65  1  0  0  0  0
 33 68  1  0  0  0  0
 34 69  1  0  0  0  0
 34 75  2  0  0  0  0
 35 49  1  0  0  0  0
 35 70  1  0  0  0  0
 35 76  2  0  0  0  0
 36 61  1  0  0  0  0
 36 66  1  0  0  0  0
 36 77  2  0  0  0  0
 37 62  1  0  0  0  0
 37 71  1  0  0  0  0
 37 78  2  0  0  0  0
 38 67  1  0  0  0  0
 38 72  1  0  0  0  0
 38 79  2  0  0  0  0
 39 42  1  0  0  0  0
 40 49  1  0  0  0  0
 41 66  1  0  0  0  0
 42 44  1  0  0  0  0
 43 45  1  0  0  0  0
 43 46  1  0  0  0  0
 44 48  1  0  0  0  0
 45 50  1  0  0  0  0
 46 67  1  0  0  0  0
 47 50  1  0  0  0  0
 47 67  1  0  0  0  0
 48 70  1  0  0  0  0
 49 66  1  0  0  0  0
 50 65  1  0  0  0  0
 51 62  1  0  0  0  0
 52 63  1  0  0  0  0
 53 63  1  0  0  0  0
 54 63  1  0  0  0  0
 55 73  1  0  0  0  0
 56 72  1  0  0  0  0
 57 74  1  0  0  0  0
 58 59  1  0  0  0  0
 58 60  1  0  0  0  0
 59 74  1  0  0  0  0
 60 81  1  0  0  0  0
 61 63  1  0  0  0  0
 61 71  1  0  0  0  0
 62 73  1  0  0  0  0
 64 65  1  0  0  0  0
M  CHG  2  73   1  74   1
M  ISO  4  38 100  60 101  72 100  81 101
M  END
> <Batch ID>
0037

> <Smiles>
CNC(C)C(=O)NC(C(=O)N1Cc2cc([101O:1][101CH2:1]CCNCc3cc(Cl)cc(C[100NH:0][100C:0](=O)N4CCCC(n5nc(-c6ccc(Oc7ccc(F)cc7F)cc6)c(C(N)=O)c5N)C4)c3Cl)ccc2CC1C(=O)NC1CCCc2ccccc21)C(C)(C)C

> <Shape>
0.214

> <Color>
0.175

> <Negative vol penalty>
0.000

$$$$

  -OEChem-04042321573D

 88 97  0     1  0  0  0  0  0999 V2000
  -22.5925   -8.5634   20.7115 C   0  0  0  0  0  0  0  0  0  0  0  0
  -22.0660   -9.8511   20.7007 C   0  0  0  0  0  0  0  0  0  0  0  0
  -22.7204  -31.1462   22.5363 C   0  0  0  0  0  0  0  0  0  0  0  0
  -23.4390  -31.1056   24.8425 C   0  0  0  0  0  0  0  0  0  0  0  0
  -23.8821   -8.3428   21.1934 C   0  0  0  0  0  0  0  0  0  0  0  0
  -22.8286  -10.9189   21.1727 C   0  0  0  0  0  0  0  0  0  0  0  0
  -22.8314  -16.6632   19.0495 C   0  0  0  0  0  0  0  0  0  0  0  0
  -24.8527  -24.4915   20.6343 C   0  0  0  0  0  0  0  0  0  0  0  0
  -26.0996  -25.0660   20.3944 C   0  0  0  0  0  0  0  0  0  0  0  0
  -21.3893  -31.1833   22.9516 C   0  0  0  0  0  0  0  0  0  0  0  0
  -22.1080  -31.1427   25.2580 C   0  0  0  0  0  0  0  0  0  0  0  0
  -22.1931  -17.8241   19.4839 C   0  0  0  0  0  0  0  0  0  0  0  0
  -19.0775  -29.0020   24.1014 C   0  0  0  0  0  0  0  0  0  0  0  0
  -18.1736  -28.1600   23.4539 C   0  0  0  0  0  0  0  0  0  0  0  0
  -24.0805  -25.3055   18.5034 C   0  0  0  0  0  0  0  0  0  0  0  0
  -24.1842  -18.4612   20.6876 C   0  0  0  0  0  0  0  0  0  0  0  0
  -16.8858  -30.0807   22.7540 C   0  0  0  0  0  0  0  0  0  0  0  0
  -23.7452  -31.1072   23.4817 C   0  0  0  0  0  0  0  0  0  0  0  0
  -25.3361  -25.8821   18.2284 C   0  0  0  0  0  0  0  0  0  0  0  0
  -25.9662  -32.1669   22.8092 C   0  0  0  0  0  0  0  0  0  0  0  0
  -24.6644   -9.4098   21.6627 C   0  0  0  0  0  0  0  0  0  0  0  0
  -24.1494  -16.3868   19.4404 C   0  0  0  0  0  0  0  0  0  0  0  0
  -24.1293  -10.7122   21.6626 C   0  0  0  0  0  0  0  0  0  0  0  0
  -24.8378  -17.2974   20.2547 C   0  0  0  0  0  0  0  0  0  0  0  0
  -23.8411  -24.6198   19.6945 C   0  0  0  0  0  0  0  0  0  0  0  0
  -26.3537  -25.7880   19.2127 C   0  0  0  0  0  0  0  0  0  0  0  0
  -21.0831  -31.1816   24.3125 C   0  0  0  0  0  0  0  0  0  0  0  0
  -22.8685  -18.7219   20.3054 C   0  0  0  0  0  0  0  0  0  0  0  0
  -18.8856  -30.3834   24.0754 C   0  0  0  0  0  0  0  0  0  0  0  0
  -17.0777  -28.6993   22.7801 C   0  0  0  0  0  0  0  0  0  0  0  0
  -17.7898  -30.9227   23.4017 C   0  0  0  0  0  0  0  0  0  0  0  0
  -25.1204  -31.0683   23.0532 C   0  0  0  0  0  0  0  0  0  0  0  0
  -27.1595  -31.6035   22.4283 C   0  0  0  0  0  0  0  0  0  0  0  0
  -25.5928  -26.5970   16.9485 C   0  0  0  0  0  0  0  0  0  0  0  0
  -24.8264  -26.4836   15.8506 C   0  0  0  0  0  0  0  0  0  0  0  0
  -25.6973  -33.5710   22.9172 C   0  0  0  0  0  0  0  0  0  0  0  0
  -25.5566  -14.0748   21.1072 C   0  0  0  0  0  0  0  0  0  0  0  0
  -28.2687  -15.6078   20.2034 C   0  0  0  0  0  0  0  0  0  0  0  0
  -29.7557  -18.5037   19.1791 C   0  0  0  0  0  0  0  0  0  0  0  0
  -28.6670  -26.4697   19.9383 C   0  0  0  0  0  0  0  0  0  0  0  0
  -26.0354   -9.1155   22.2179 C   0  0  0  0  0  0  0  0  0  0  0  0
  -24.8328  -15.1433   18.9415 C   0  0  0  0  0  0  0  0  0  0  0  0
  -26.2607  -17.0570   20.6861 C   0  0  0  0  0  0  0  0  0  0  0  0
  -26.8434  -27.4317   16.9099 C   0  0  0  0  0  0  0  0  0  0  0  0
  -26.9170  -10.3545   22.3522 C   0  0  0  0  0  0  0  0  0  0  0  0
  -29.8068  -27.6650   23.0094 C   0  0  0  0  0  0  0  0  0  0  0  0
  -26.1395  -11.4951   23.0013 C   0  0  0  0  0  0  0  0  0  0  0  0
  -28.8206  -28.7806   23.3566 C   0  0  0  0  0  0  0  0  0  0  0  0
  -27.9815  -26.6950   17.5935 C   0  0  0  0  0  0  0  0  0  0  0  0
  -29.0902  -26.4745   22.3818 C   0  0  0  0  0  0  0  0  0  0  0  0
  -27.2952  -27.9347   21.5086 C   0  0  0  0  0  0  0  0  0  0  0  0
  -24.9347  -11.8998   22.1433 C   0  0  1  0  0  0  0  0  0  0  0  0
  -26.0021  -14.7104   19.8206 C   0  0  1  0  0  0  0  0  0  0  0  0
  -27.9721  -29.1705   22.1329 C   0  0  1  0  0  0  0  0  0  0  0  0
  -24.0734  -28.1573   12.4699 C   0  0  0  0  0  0  0  0  0  0  0  0
  -31.9919  -19.4562   18.5552 C   0  0  0  0  0  0  0  0  0  0  0  0
  -29.0470  -15.7056   23.1521 C   0  0  0  0  0  0  0  0  0  0  0  0
  -30.7464  -17.4509   22.5738 C   0  0  0  0  0  0  0  0  0  0  0  0
  -30.9270  -15.1637   21.5943 C   0  0  0  0  0  0  0  0  0  0  0  0
  -28.8419  -19.1608   16.4420 C   0  0  0  0  0  0  0  0  0  0  0  0
  -22.5014  -24.0177   19.9531 C   0  0  0  0  0  0  0  0  0  0  0  0
  -25.0953  -27.2083   14.5689 C   0  0  0  0  0  0  0  0  0  0  0  0
  -23.8034  -27.4452   13.7863 C   0  0  0  0  0  0  0  0  0  0  0  0
  -21.1653  -21.9125   20.1013 C   0  0  0  0  0  0  0  0  0  0  0  0
  -21.2572  -20.4167   19.8729 C   0  0  0  0  0  0  0  0  0  1  0  0
  -29.1099  -16.7213   20.7792 C   0  0  1  0  0  0  0  0  0  0  0  0
  -30.7220  -18.7934   18.0447 C   0  0  2  0  0  0  0  0  0  0  0  0
  -29.9301  -16.2642   22.0185 C   0  0  0  0  0  0  0  0  0  0  0  0
  -25.7250  -29.8957   22.8447 N   0  0  0  0  0  0  0  0  0  0  0  0
  -26.9634  -30.2543   22.4655 N   0  0  0  0  0  0  0  0  0  0  0  0
  -27.6437  -26.3867   18.9807 N   0  0  0  0  0  0  0  0  0  0  0  0
  -26.8836  -15.8239   20.1773 N   0  0  0  0  0  0  0  0  0  0  0  0
  -28.2949  -26.8919   21.2269 N   0  0  0  0  0  0  0  0  0  0  0  0
  -28.3468  -32.1355   22.0684 N   0  0  0  0  0  0  0  0  0  0  0  0
  -24.4184  -33.9772   23.3221 N   0  0  0  0  0  0  0  0  0  0  0  0
  -25.3617  -12.7094   21.0223 N   0  0  0  0  0  0  0  0  0  0  0  0
  -29.9224  -17.2296   19.6793 N   0  0  0  0  0  0  0  0  0  0  0  0
  -30.0893  -19.6982   17.0437 N   0  3  0  0  0  0  0  0  0  0  0  0
  -22.4777  -22.5375   19.7925 N   0  3  0  0  0  0  0  0  0  0  0  0
  -26.5603  -34.4401   22.6465 O   0  0  0  0  0  0  0  0  0  0  0  0
  -25.4027  -14.7714   22.1036 O   0  0  0  0  0  0  0  0  0  0  0  0
  -28.8208  -14.5869   19.7854 O   0  0  0  0  0  0  0  0  0  0  0  0
  -28.9375  -19.3268   19.5838 O   0  0  0  0  0  0  0  0  0  0  0  0
  -29.8454  -26.2459   19.6352 O   0  0  0  0  0  0  0  0  0  0  0  0
  -19.7844  -31.2181   24.7182 O   0  0  0  0  0  0  0  0  0  0  0  0
  -22.2432  -19.8636   20.7345 O   0  0  0  0  0  0  0  0  0  1  0  0
  -16.2106  -27.8907   22.1570 F   0  0  0  0  0  0  0  0  0  0  0  0
  -17.6008  -32.2491   23.3722 F   0  0  0  0  0  0  0  0  0  0  0  0
  1  2  1  0  0  0  0
  1  5  2  0  0  0  0
  2  6  2  0  0  0  0
  3 10  2  0  0  0  0
  3 18  1  0  0  0  0
  4 11  1  0  0  0  0
  4 18  2  0  0  0  0
  5 21  1  0  0  0  0
  6 23  1  0  0  0  0
  7 12  2  0  0  0  0
  7 22  1  0  0  0  0
  8  9  2  0  0  0  0
  8 25  1  0  0  0  0
  9 26  1  0  0  0  0
 10 27  1  0  0  0  0
 11 27  2  0  0  0  0
 12 28  1  0  0  0  0
 13 14  2  0  0  0  0
 13 29  1  0  0  0  0
 14 30  1  0  0  0  0
 15 19  1  0  0  0  0
 15 25  2  0  0  0  0
 16 24  1  0  0  0  0
 16 28  2  0  0  0  0
 17 30  2  0  0  0  0
 17 31  1  0  0  0  0
 18 32  1  0  0  0  0
 19 26  2  0  0  0  0
 19 34  1  0  0  0  0
 20 32  1  0  0  0  0
 20 33  2  0  0  0  0
 20 36  1  0  0  0  0
 21 23  2  0  0  0  0
 21 41  1  0  0  0  0
 22 24  2  0  0  0  0
 22 42  1  0  0  0  0
 23 52  1  0  0  0  0
 24 43  1  0  0  0  0
 25 61  1  0  0  0  0
 26 71  1  0  0  0  0
 27 85  1  0  0  0  0
 28 86  1  0  0  0  0
 29 31  2  0  0  0  0
 29 85  1  0  0  0  0
 30 87  1  0  0  0  0
 31 88  1  0  0  0  0
 32 69  2  0  0  0  0
 33 70  1  0  0  0  0
 33 74  1  0  0  0  0
 34 35  2  0  0  0  0
 34 44  1  0  0  0  0
 35 62  1  0  0  0  0
 36 75  1  0  0  0  0
 36 80  2  0  0  0  0
 37 53  1  0  0  0  0
 37 76  1  0  0  0  0
 37 81  2  0  0  0  0
 38 66  1  0  0  0  0
 38 72  1  0  0  0  0
 38 82  2  0  0  0  0
 39 67  1  0  0  0  0
 39 77  1  0  0  0  0
 39 83  2  0  0  0  0
 40 71  1  0  0  0  0
 40 73  1  0  0  0  0
 40 84  2  0  0  0  0
 41 45  1  0  0  0  0
 42 53  1  0  0  0  0
 43 72  1  0  0  0  0
 44 49  1  0  0  0  0
 45 47  1  0  0  0  0
 46 48  1  0  0  0  0
 46 50  1  0  0  0  0
 47 52  1  0  0  0  0
 48 54  1  0  0  0  0
 49 71  1  0  0  0  0
 50 73  1  0  0  0  0
 51 54  1  0  0  0  0
 51 73  1  0  0  0  0
 52 76  1  0  0  0  0
 53 72  1  0  0  0  0
 54 70  1  0  0  0  0
 55 63  1  0  0  0  0
 56 67  1  0  0  0  0
 57 68  1  0  0  0  0
 58 68  1  0  0  0  0
 59 68  1  0  0  0  0
 60 78  1  0  0  0  0
 61 79  1  0  0  0  0
 62 63  1  0  0  0  0
 64 65  1  0  0  0  0
 64 79  1  0  0  0  0
 65 86  1  0  0  0  0
 66 68  1  0  0  0  0
 66 77  1  0  0  0  0
 67 78  1  0  0  0  0
 69 70  1  0  0  0  0
M  CHG  2  78   1  79   1
M  ISO  4  40 100  65 101  71 100  86 101
M  END
> <Batch ID>
0037

> <Smiles>
CCCC=C1CC[100N:0]([100C:0](=O)N2CCCC(n3nc(-c4ccc(Oc5ccc(F)cc5F)cc4)c(C(N)=O)c3N)C2)c2ccc(CNC[101CH2:1][101O:1]c3ccc4c(c3)CN(C(=O)C(NC(=O)C(C)NC)C(C)(C)C)C(C(=O)NC3CCCc5ccccc53)C4)cc21

> <Shape>
0.253

> <Color>
0.060

> <Negative vol penalty>
0.000

$$$$

  -OEChem-04042321573D

 90 99  0     1  0  0  0  0  0999 V2000
  -14.7066  -27.7545   24.6544 C   0  0  0  0  0  0  0  0  0  0  0  0
  -14.8046  -27.0451   23.4616 C   0  0  0  0  0  0  0  0  0  0  0  0
  -23.3045  -10.1089   22.2454 C   0  0  0  0  0  0  0  0  0  0  0  0
  -23.3969   -9.6873   19.8683 C   0  0  0  0  0  0  0  0  0  0  0  0
  -15.7020  -28.6651   25.0064 C   0  0  0  0  0  0  0  0  0  0  0  0
  -15.8976  -27.2468   22.6196 C   0  0  0  0  0  0  0  0  0  0  0  0
  -20.2423  -21.7928   20.8118 C   0  0  0  0  0  0  0  0  0  0  0  0
  -22.5346   -8.9589   22.4195 C   0  0  0  0  0  0  0  0  0  0  0  0
  -22.6270   -8.5372   20.0423 C   0  0  0  0  0  0  0  0  0  0  0  0
  -20.9961  -20.7614   20.2512 C   0  0  0  0  0  0  0  0  0  0  0  0
  -23.0446   -5.6200   22.5762 C   0  0  0  0  0  0  0  0  0  0  0  0
  -23.3822   -4.7668   23.6267 C   0  0  0  0  0  0  0  0  0  0  0  0
  -22.3323  -22.3779   19.0473 C   0  0  0  0  0  0  0  0  0  0  0  0
  -31.7584  -18.1699   20.3649 C   0  0  0  0  0  0  0  0  0  0  0  0
  -30.3762  -20.0293   19.6800 C   0  0  0  0  0  0  0  0  0  0  0  0
  -21.1882   -5.0822   24.5879 C   0  0  0  0  0  0  0  0  0  0  0  0
  -23.7356  -10.4732   20.9698 C   0  0  0  0  0  0  0  0  0  0  0  0
  -24.1682  -12.9833   21.1103 C   0  0  0  0  0  0  0  0  0  0  0  0
  -16.8126  -28.8709   24.1729 C   0  0  0  0  0  0  0  0  0  0  0  0
  -20.5410  -23.1230   20.5039 C   0  0  0  0  0  0  0  0  0  0  0  0
  -16.9081  -28.1620   22.9601 C   0  0  0  0  0  0  0  0  0  0  0  0
  -21.5887  -23.4157   19.6155 C   0  0  0  0  0  0  0  0  0  0  0  0
  -30.7689  -17.7640   21.2601 C   0  0  0  0  0  0  0  0  0  0  0  0
  -29.3865  -19.6234   20.5753 C   0  0  0  0  0  0  0  0  0  0  0  0
  -22.1959   -8.1730   21.3179 C   0  0  0  0  0  0  0  0  0  0  0  0
  -22.0383  -21.0533   19.3710 C   0  0  0  0  0  0  0  0  0  0  0  0
  -21.7788   -6.2044   22.5315 C   0  0  0  0  0  0  0  0  0  0  0  0
  -22.4540   -4.4978   24.6325 C   0  0  0  0  0  0  0  0  0  0  0  0
  -20.8506   -5.9354   23.5374 C   0  0  0  0  0  0  0  0  0  0  0  0
  -31.5621  -19.3027   19.5749 C   0  0  0  0  0  0  0  0  0  0  0  0
  -29.5829  -18.4907   21.3653 C   0  0  0  0  0  0  0  0  0  0  0  0
  -24.5304  -11.6614   20.7892 C   0  0  0  0  0  0  0  0  0  0  0  0
  -25.2595  -13.7355   20.7499 C   0  0  0  0  0  0  0  0  0  0  0  0
  -26.2165  -21.3391   19.4826 C   0  0  0  0  0  0  0  0  0  0  0  0
  -26.3970  -22.6616   19.3213 C   0  0  0  0  0  0  0  0  0  0  0  0
  -22.9540  -13.4864   21.6832 C   0  0  0  0  0  0  0  0  0  0  0  0
  -19.7215  -26.7465   21.0277 C   0  0  0  0  0  0  0  0  0  0  0  0
  -22.7805  -26.5244   20.9676 C   0  0  0  0  0  0  0  0  0  0  0  0
  -25.7202  -25.6936   21.7233 C   0  0  0  0  0  0  0  0  0  0  0  0
  -30.7785  -14.5542   20.6225 C   0  0  0  0  0  0  0  0  0  0  0  0
  -17.8396  -29.9005   24.5729 C   0  0  0  0  0  0  0  0  0  0  0  0
  -19.7163  -24.2632   21.0364 C   0  0  0  0  0  0  0  0  0  0  0  0
  -21.8518  -24.8598   19.2862 C   0  0  0  0  0  0  0  0  0  0  0  0
  -24.8602  -20.7671   19.7870 C   0  0  0  0  0  0  0  0  0  0  0  0
  -19.1534  -29.7807   23.8049 C   0  0  0  0  0  0  0  0  0  0  0  0
  -29.3725  -12.4995   18.0773 C   0  0  0  0  0  0  0  0  0  0  0  0
  -26.2193  -19.1397   17.5526 C   0  0  0  0  0  0  0  0  0  0  0  0
  -18.8860  -29.6160   22.3122 C   0  0  0  0  0  0  0  0  0  0  0  0
  -27.9605  -12.2025   18.5854 C   0  0  0  0  0  0  0  0  0  0  0  0
  -24.7237  -19.0768   17.8599 C   0  0  0  0  0  0  0  0  0  0  0  0
  -30.3843  -12.5508   19.2200 C   0  0  0  0  0  0  0  0  0  0  0  0
  -28.6214  -13.1749   20.8252 C   0  0  0  0  0  0  0  0  0  0  0  0
  -27.0865  -19.1184   18.8087 C   0  0  0  0  0  0  0  0  0  0  0  0
  -18.0910  -28.3350   22.0321 C   0  0  1  0  0  0  0  0  0  0  0  0
  -20.5468  -25.5278   21.3197 C   0  0  1  0  0  0  0  0  0  0  0  0
  -27.5563  -13.1686   19.7152 C   0  0  2  0  0  0  0  0  0  0  0  0
  -24.1362  -20.3278   18.5122 C   0  0  1  0  0  0  0  0  0  1  0  0
  -27.7130  -23.2868   19.0191 C   0  0  0  0  0  0  0  0  0  0  0  0
  -28.1522  -25.4433   22.2889 C   0  0  0  0  0  0  0  0  0  0  0  0
  -22.7733  -27.5024   18.0785 C   0  0  0  0  0  0  0  0  0  0  0  0
  -25.2657  -27.6976   18.2130 C   0  0  0  0  0  0  0  0  0  0  0  0
  -23.8257  -29.0779   19.7109 C   0  0  0  0  0  0  0  0  0  0  0  0
  -25.2585  -26.4373   24.5505 C   0  0  0  0  0  0  0  0  0  0  0  0
  -31.0218  -16.5436   22.0862 C   0  0  0  0  0  0  0  0  0  0  0  0
  -28.1269  -20.4347   20.6540 C   0  0  0  0  0  0  0  0  0  0  0  0
  -24.0378  -26.5951   20.1385 C   0  0  1  0  0  0  0  0  0  0  0  0
  -26.8440  -26.1323   22.6447 C   0  0  2  0  0  0  0  0  0  0  0  0
  -23.9628  -27.6934   19.0406 C   0  0  0  0  0  0  0  0  0  0  0  0
  -25.7559  -11.5753   20.2650 N   0  0  0  0  0  0  0  0  0  0  0  0
  -26.1733  -12.8527   20.2539 N   0  0  0  0  0  0  0  0  0  0  0  0
  -21.7656  -25.6771   20.5065 N   0  0  0  0  0  0  0  0  0  0  0  0
  -29.9425  -13.4862   20.2572 N   0  0  0  0  0  0  0  0  0  0  0  0
  -25.5170  -15.0592   20.8120 N   0  0  0  0  0  0  0  0  0  0  0  0
  -21.9156  -13.8655   20.8216 N   0  0  0  0  0  0  0  0  0  0  0  0
  -18.9580  -27.1780   22.0956 N   0  0  0  0  0  0  0  0  0  0  0  0
  -25.1388  -26.7660   21.0804 N   0  0  0  0  0  0  0  0  0  0  0  0
  -30.2811  -15.3973   21.6087 N   0  0  0  0  0  0  0  0  0  0  0  0
  -27.3829  -20.5002   19.3426 N   0  3  2  0  0  0  0  0  0  0  0  0
  -26.5107  -25.8059   24.0601 N   0  3  0  0  0  0  0  0  0  0  0  0
  -22.8006  -13.6119   22.9219 O   0  0  0  0  0  0  0  0  0  0  0  0
  -19.7738  -27.2595   19.9161 O   0  0  0  0  0  0  0  0  0  0  0  0
  -22.6955  -27.2051   21.9936 O   0  0  0  0  0  0  0  0  0  0  0  0
  -25.3934  -24.5170   21.5847 O   0  0  0  0  0  0  0  0  0  0  0  0
  -31.8837  -14.7457   20.1042 O   0  0  0  0  0  0  0  0  0  0  0  0
  -21.4449   -7.0506   21.4875 O   0  0  0  0  0  0  0  0  0  0  0  0
  -22.7730  -20.0418   18.8308 O   0  0  0  0  0  0  0  0  0  1  0  0
  -22.7778   -3.6773   25.6405 F   0  0  0  0  0  0  0  0  0  0  0  0
  -19.6326   -6.4929   23.4992 F   0  0  0  0  0  0  0  0  0  0  0  0
  -32.7832  -19.8043   18.4706 Cl  0  0  0  0  0  0  0  0  0  0  0  0
  -28.3550  -17.9875   22.4780 Cl  0  0  0  0  0  0  0  0  0  0  0  0
  1  2  1  0  0  0  0
  1  5  2  0  0  0  0
  2  6  2  0  0  0  0
  3  8  2  0  0  0  0
  3 17  1  0  0  0  0
  4  9  1  0  0  0  0
  4 17  2  0  0  0  0
  5 19  1  0  0  0  0
  6 21  1  0  0  0  0
  7 10  2  0  0  0  0
  7 20  1  0  0  0  0
  8 25  1  0  0  0  0
  9 25  2  0  0  0  0
 10 26  1  0  0  0  0
 11 12  2  0  0  0  0
 11 27  1  0  0  0  0
 12 28  1  0  0  0  0
 13 22  1  0  0  0  0
 13 26  2  0  0  0  0
 14 23  2  0  0  0  0
 14 30  1  0  0  0  0
 15 24  1  0  0  0  0
 15 30  2  0  0  0  0
 16 28  2  0  0  0  0
 16 29  1  0  0  0  0
 17 32  1  0  0  0  0
 18 32  1  0  0  0  0
 18 33  2  0  0  0  0
 18 36  1  0  0  0  0
 19 21  2  0  0  0  0
 19 41  1  0  0  0  0
 20 22  2  0  0  0  0
 20 42  1  0  0  0  0
 21 54  1  0  0  0  0
 22 43  1  0  0  0  0
 23 31  1  0  0  0  0
 23 64  1  0  0  0  0
 24 31  2  0  0  0  0
 24 65  1  0  0  0  0
 25 85  1  0  0  0  0
 26 86  1  0  0  0  0
 27 29  2  0  0  0  0
 27 85  1  0  0  0  0
 28 87  1  0  0  0  0
 29 88  1  0  0  0  0
 30 89  1  0  0  0  0
 31 90  1  0  0  0  0
 32 69  2  0  0  0  0
 33 70  1  0  0  0  0
 33 73  1  0  0  0  0
 34 35  2  0  0  0  0
 34 44  1  0  0  0  0
 34 78  1  0  0  0  0
 35 58  1  0  0  0  0
 36 74  1  0  0  0  0
 36 80  2  0  0  0  0
 37 55  1  0  0  0  0
 37 75  1  0  0  0  0
 37 81  2  0  0  0  0
 38 66  1  0  0  0  0
 38 71  1  0  0  0  0
 38 82  2  0  0  0  0
 39 67  1  0  0  0  0
 39 76  1  0  0  0  0
 39 83  2  0  0  0  0
 40 72  1  0  0  0  0
 40 77  1  0  0  0  0
 40 84  2  0  0  0  0
 41 45  1  0  0  0  0
 42 55  1  0  0  0  0
 43 71  1  0  0  0  0
 44 57  1  0  0  0  0
 45 48  1  0  0  0  0
 46 49  1  0  0  0  0
 46 51  1  0  0  0  0
 47 50  1  0  0  0  0
 47 53  1  0  0  0  0
 48 54  1  0  0  0  0
 49 56  1  0  0  0  0
 50 57  1  0  0  0  0
 51 72  1  0  0  0  0
 52 56  1  0  0  0  0
 52 72  1  0  0  0  0
 53 78  1  0  0  0  0
 54 75  1  0  0  0  0
 55 71  1  0  0  0  0
 56 70  1  0  0  0  0
 57 86  1  0  0  0  0
 59 67  1  0  0  0  0
 60 68  1  0  0  0  0
 61 68  1  0  0  0  0
 62 68  1  0  0  0  0
 63 79  1  0  0  0  0
 64 77  1  0  0  0  0
 65 78  1  0  0  0  0
 66 68  1  0  0  0  0
 66 76  1  0  0  0  0
 67 79  1  0  0  0  0
 69 70  1  0  0  0  0
M  CHG  2  78   1  79   1
M  ISO  4  40 100  57 101  77 100  86 101
M  END
> <Batch ID>
0037

> <Smiles>
CC=C1C[101CH:1]([101O:1]c2ccc3c(c2)CN(C(=O)C(NC(=O)C(C)NC)C(C)(C)C)C(C(=O)NC2CCCc4ccccc42)C3)CCCN1Cc1cc(Cl)cc(C[100NH:0][100C:0](=O)N2CCCC(n3nc(-c4ccc(Oc5ccc(F)cc5F)cc4)c(C(N)=O)c3N)C2)c1Cl

> <Shape>
0.299

> <Color>
0.186

> <Negative vol penalty>
0.000

$$$$

  -OEChem-04042321573D

 88 97  0     1  0  0  0  0  0999 V2000
  -25.2155  -34.9004   24.0537 C   0  0  0  0  0  0  0  0  0  0  0  0
  -25.9028  -33.7379   23.7194 C   0  0  0  0  0  0  0  0  0  0  0  0
  -23.4856  -10.9221   23.2130 C   0  0  0  0  0  0  0  0  0  0  0  0
  -24.5034   -9.2561   21.7897 C   0  0  0  0  0  0  0  0  0  0  0  0
  -23.8809  -34.8299   24.4510 C   0  0  0  0  0  0  0  0  0  0  0  0
  -25.2561  -32.5042   23.7831 C   0  0  0  0  0  0  0  0  0  0  0  0
  -26.1855  -29.6119   19.7314 C   0  0  0  0  0  0  0  0  0  0  0  0
  -29.8978  -20.4608   20.1107 C   0  0  0  0  0  0  0  0  0  0  0  0
  -29.7819  -19.0877   19.8947 C   0  0  0  0  0  0  0  0  0  0  0  0
  -23.0537   -9.9180   24.0795 C   0  0  0  0  0  0  0  0  0  0  0  0
  -24.0716   -8.2520   22.6562 C   0  0  0  0  0  0  0  0  0  0  0  0
  -27.4153  -28.9568   19.6854 C   0  0  0  0  0  0  0  0  0  0  0  0
  -21.2011   -6.5891   23.3090 C   0  0  0  0  0  0  0  0  0  0  0  0
  -20.6223   -5.4519   22.7458 C   0  0  0  0  0  0  0  0  0  0  0  0
  -26.3535  -26.9237   20.4326 C   0  0  0  0  0  0  0  0  0  0  0  0
  -27.4932  -20.6778   20.0210 C   0  0  0  0  0  0  0  0  0  0  0  0
  -22.3465   -4.0821   23.7398 C   0  0  0  0  0  0  0  0  0  0  0  0
  -24.2104  -10.5912   22.0681 C   0  0  0  0  0  0  0  0  0  0  0  0
  -23.8547  -12.5492   20.4720 C   0  0  0  0  0  0  0  0  0  0  0  0
  -23.2147  -33.5957   24.5103 C   0  0  0  0  0  0  0  0  0  0  0  0
  -25.0304  -28.9296   20.1396 C   0  0  0  0  0  0  0  0  0  0  0  0
  -23.9117  -32.4170   24.1828 C   0  0  0  0  0  0  0  0  0  0  0  0
  -25.1098  -27.5718   20.4805 C   0  0  0  0  0  0  0  0  0  0  0  0
  -28.7534  -21.2559   20.1739 C   0  0  0  0  0  0  0  0  0  0  0  0
  -28.5217  -18.5096   19.7418 C   0  0  0  0  0  0  0  0  0  0  0  0
  -23.3467   -8.5830   23.8011 C   0  0  0  0  0  0  0  0  0  0  0  0
  -27.5000  -27.6133   20.0388 C   0  0  0  0  0  0  0  0  0  0  0  0
  -22.3526   -6.4730   24.0875 C   0  0  0  0  0  0  0  0  0  0  0  0
  -21.1950   -4.1984   22.9612 C   0  0  0  0  0  0  0  0  0  0  0  0
  -22.9253   -5.2195   24.3030 C   0  0  0  0  0  0  0  0  0  0  0  0
  -27.3774  -19.3046   19.8050 C   0  0  0  0  0  0  0  0  0  0  0  0
  -24.6564  -11.6279   21.1723 C   0  0  0  0  0  0  0  0  0  0  0  0
  -24.7493  -13.3151   19.7653 C   0  0  0  0  0  0  0  0  0  0  0  0
  -29.8014  -24.8382   19.6558 C   0  0  0  0  0  0  0  0  0  0  0  0
  -30.8491  -25.1796   20.4286 C   0  0  0  0  0  0  0  0  0  0  0  0
  -22.4288  -12.6992   20.4615 C   0  0  0  0  0  0  0  0  0  0  0  0
  -22.9657  -29.2479   22.5352 C   0  0  0  0  0  0  0  0  0  0  0  0
  -21.3756  -26.8988   20.9618 C   0  0  0  0  0  0  0  0  0  0  0  0
  -22.2211  -23.8401   19.2451 C   0  0  0  0  0  0  0  0  0  0  0  0
  -29.4969  -16.2062   19.4420 C   0  0  0  0  0  0  0  0  0  0  0  0
  -21.7855  -33.5646   24.9909 C   0  0  0  0  0  0  0  0  0  0  0  0
  -23.7067  -29.6436   20.1582 C   0  0  0  0  0  0  0  0  0  0  0  0
  -23.8956  -26.7888   20.9060 C   0  0  0  0  0  0  0  0  0  0  0  0
  -21.0638  -32.2578   24.6718 C   0  0  0  0  0  0  0  0  0  0  0  0
  -29.1081  -25.3348   16.6204 C   0  0  0  0  0  0  0  0  0  0  0  0
  -29.7060  -12.6853   18.9555 C   0  0  0  0  0  0  0  0  0  0  0  0
  -29.8007  -23.9943   16.8706 C   0  0  0  0  0  0  0  0  0  0  0  0
  -21.9398  -31.0624   25.0327 C   0  0  0  0  0  0  0  0  0  0  0  0
  -29.2230  -26.3574   17.7486 C   0  0  0  0  0  0  0  0  0  0  0  0
  -28.3450  -12.1721   19.4313 C   0  0  0  0  0  0  0  0  0  0  0  0
  -30.2020  -13.8517   19.8083 C   0  0  0  0  0  0  0  0  0  0  0  0
  -27.8935  -14.4516   20.4248 C   0  0  0  0  0  0  0  0  0  0  0  0
  -29.1219  -23.1646   17.9580 C   0  0  0  0  0  0  0  0  0  0  0  0
  -23.2375  -31.0626   24.2156 C   0  0  1  0  0  0  0  0  0  0  0  0
  -28.8013  -25.8408   19.1259 C   0  0  2  0  0  0  0  0  0  1  0  0
  -22.6862  -28.9862   21.0823 C   0  0  1  0  0  0  0  0  0  0  0  0
  -27.3227  -13.3188   19.5562 C   0  0  2  0  0  0  0  0  0  0  0  0
  -31.8395  -24.2036   20.9560 C   0  0  0  0  0  0  0  0  0  0  0  0
  -21.0400  -22.6297   17.3911 C   0  0  0  0  0  0  0  0  0  0  0  0
  -20.0799  -25.3052   23.2183 C   0  0  0  0  0  0  0  0  0  0  0  0
  -20.2611  -23.2607   21.7846 C   0  0  0  0  0  0  0  0  0  0  0  0
  -18.8707  -25.1904   21.0322 C   0  0  0  0  0  0  0  0  0  0  0  0
  -24.6356  -23.8656   17.5338 C   0  0  0  0  0  0  0  0  0  0  0  0
  -28.8788  -22.7328   20.4060 C   0  0  0  0  0  0  0  0  0  0  0  0
  -21.3908  -25.3896   20.9956 C   0  0  1  0  0  0  0  0  0  0  0  0
  -22.1622  -23.5918   17.7487 C   0  0  2  0  0  0  0  0  0  0  0  0
  -20.1738  -24.8017   21.7641 C   0  0  0  0  0  0  0  0  0  0  0  0
  -25.9600  -11.7918   20.9321 N   0  0  0  0  0  0  0  0  0  0  0  0
  -25.9843  -12.8249   20.0729 N   0  0  0  0  0  0  0  0  0  0  0  0
  -22.6252  -27.5329   20.9142 N   0  0  0  0  0  0  0  0  0  0  0  0
  -29.1832  -14.9015   19.8780 N   0  0  0  0  0  0  0  0  0  0  0  0
  -24.5921  -14.3533   18.9168 N   0  0  0  0  0  0  0  0  0  0  0  0
  -21.6888  -11.9840   19.5101 N   0  0  0  0  0  0  0  0  0  0  0  0
  -28.4397  -17.1117   19.5251 N   0  0  0  0  0  0  0  0  0  0  0  0
  -22.9884  -30.5880   22.8713 N   0  0  0  0  0  0  0  0  0  0  0  0
  -21.4895  -24.9512   19.6076 N   0  0  0  0  0  0  0  0  0  0  0  0
  -29.6790  -23.4333   19.3362 N   0  3  2  0  0  0  0  0  0  0  0  0
  -23.4486  -23.0124   17.2687 N   0  3  0  0  0  0  0  0  0  0  0  0
  -21.8302  -13.4581   21.2610 O   0  0  0  0  0  0  0  0  0  0  0  0
  -23.1459  -28.3038   23.2954 O   0  0  0  0  0  0  0  0  0  0  0  0
  -20.2947  -27.4930   20.9699 O   0  0  0  0  0  0  0  0  0  0  0  0
  -22.8499  -23.1183   20.0159 O   0  0  0  0  0  0  0  0  0  0  0  0
  -30.6127  -16.4921   19.0000 O   0  0  0  0  0  0  0  0  0  0  0  0
  -22.9256   -7.6029   24.6466 O   0  0  0  0  0  0  0  0  0  0  0  0
  -28.6992  -26.9716   19.9954 O   0  0  0  0  0  0  0  0  0  1  0  0
  -20.6382   -3.1061   22.4216 F   0  0  0  0  0  0  0  0  0  0  0  0
  -24.0309   -5.1014   25.0510 F   0  0  0  0  0  0  0  0  0  0  0  0
  -25.7976  -18.6298   19.6206 Cl  0  0  0  0  0  0  0  0  0  0  0  0
  1  2  1  0  0  0  0
  1  5  2  0  0  0  0
  2  6  2  0  0  0  0
  3 10  2  0  0  0  0
  3 18  1  0  0  0  0
  4 11  1  0  0  0  0
  4 18  2  0  0  0  0
  5 20  1  0  0  0  0
  6 22  1  0  0  0  0
  7 12  2  0  0  0  0
  7 21  1  0  0  0  0
  8  9  2  0  0  0  0
  8 24  1  0  0  0  0
  9 25  1  0  0  0  0
 10 26  1  0  0  0  0
 11 26  2  0  0  0  0
 12 27  1  0  0  0  0
 13 14  2  0  0  0  0
 13 28  1  0  0  0  0
 14 29  1  0  0  0  0
 15 23  1  0  0  0  0
 15 27  2  0  0  0  0
 16 24  2  0  0  0  0
 16 31  1  0  0  0  0
 17 29  2  0  0  0  0
 17 30  1  0  0  0  0
 18 32  1  0  0  0  0
 19 32  1  0  0  0  0
 19 33  2  0  0  0  0
 19 36  1  0  0  0  0
 20 22  2  0  0  0  0
 20 41  1  0  0  0  0
 21 23  2  0  0  0  0
 21 42  1  0  0  0  0
 22 54  1  0  0  0  0
 23 43  1  0  0  0  0
 24 64  1  0  0  0  0
 25 31  2  0  0  0  0
 25 74  1  0  0  0  0
 26 84  1  0  0  0  0
 27 85  1  0  0  0  0
 28 30  2  0  0  0  0
 28 84  1  0  0  0  0
 29 86  1  0  0  0  0
 30 87  1  0  0  0  0
 31 88  1  0  0  0  0
 32 68  2  0  0  0  0
 33 69  1  0  0  0  0
 33 72  1  0  0  0  0
 34 35  2  0  0  0  0
 34 55  1  0  0  0  0
 34 77  1  0  0  0  0
 35 58  1  0  0  0  0
 36 73  1  0  0  0  0
 36 79  2  0  0  0  0
 37 56  1  0  0  0  0
 37 75  1  0  0  0  0
 37 80  2  0  0  0  0
 38 65  1  0  0  0  0
 38 70  1  0  0  0  0
 38 81  2  0  0  0  0
 39 66  1  0  0  0  0
 39 76  1  0  0  0  0
 39 82  2  0  0  0  0
 40 71  1  0  0  0  0
 40 74  1  0  0  0  0
 40 83  2  0  0  0  0
 41 44  1  0  0  0  0
 42 56  1  0  0  0  0
 43 70  1  0  0  0  0
 44 48  1  0  0  0  0
 45 47  1  0  0  0  0
 45 49  1  0  0  0  0
 46 50  1  0  0  0  0
 46 51  1  0  0  0  0
 47 53  1  0  0  0  0
 48 54  1  0  0  0  0
 49 55  1  0  0  0  0
 50 57  1  0  0  0  0
 51 71  1  0  0  0  0
 52 57  1  0  0  0  0
 52 71  1  0  0  0  0
 53 77  1  0  0  0  0
 54 75  1  0  0  0  0
 55 85  1  0  0  0  0
 56 70  1  0  0  0  0
 57 69  1  0  0  0  0
 59 66  1  0  0  0  0
 60 67  1  0  0  0  0
 61 67  1  0  0  0  0
 62 67  1  0  0  0  0
 63 78  1  0  0  0  0
 64 77  1  0  0  0  0
 65 67  1  0  0  0  0
 65 76  1  0  0  0  0
 66 78  1  0  0  0  0
 68 69  1  0  0  0  0
M  CHG  2  77   1  78   1
M  ISO  4  40 100  55 101  74 100  85 101
M  END
> <Batch ID>
0037

> <Smiles>
CC=C1N(Cc2ccc([100NH:0][100C:0](=O)N3CCCC(n4nc(-c5ccc(Oc6ccc(F)cc6F)cc5)c(C(N)=O)c4N)C3)c(Cl)c2)CCCC[101CH:1]1[101O:1]c1ccc2c(c1)CN(C(=O)C(NC(=O)C(C)NC)C(C)(C)C)C(C(=O)NC1CCCc3ccccc31)C2

> <Shape>
0.341

> <Color>
0.117

> <Negative vol penalty>
0.000

$$$$

  -OEChem-04042321573D

 87 96  0     1  0  0  0  0  0999 V2000
  -25.1035  -36.5088   23.2923 C   0  0  0  0  0  0  0  0  0  0  0  0
  -26.2356  -35.7825   22.9370 C   0  0  0  0  0  0  0  0  0  0  0  0
  -22.8631   -9.6026   19.9485 C   0  0  0  0  0  0  0  0  0  0  0  0
  -24.5765   -8.7678   21.4332 C   0  0  0  0  0  0  0  0  0  0  0  0
  -23.9494  -35.8423   23.7021 C   0  0  0  0  0  0  0  0  0  0  0  0
  -26.2147  -34.3894   22.9923 C   0  0  0  0  0  0  0  0  0  0  0  0
  -28.9223  -28.6303   19.7032 C   0  0  0  0  0  0  0  0  0  0  0  0
  -21.8804   -9.0736   20.7852 C   0  0  0  0  0  0  0  0  0  0  0  0
  -23.5938   -8.2388   22.2699 C   0  0  0  0  0  0  0  0  0  0  0  0
  -29.6097  -27.4512   19.9878 C   0  0  0  0  0  0  0  0  0  0  0  0
  -21.5793   -5.5245   22.3410 C   0  0  0  0  0  0  0  0  0  0  0  0
  -21.7638   -4.2266   22.8176 C   0  0  0  0  0  0  0  0  0  0  0  0
  -27.5347  -26.4049   20.6349 C   0  0  0  0  0  0  0  0  0  0  0  0
  -27.5734  -18.3374   20.1857 C   0  0  0  0  0  0  0  0  0  0  0  0
  -21.7315   -5.0553   25.0868 C   0  0  0  0  0  0  0  0  0  0  0  0
  -24.2112   -9.4496   20.2725 C   0  0  0  0  0  0  0  0  0  0  0  0
  -25.4532   -9.6769   18.0559 C   0  0  0  0  0  0  0  0  0  0  0  0
  -23.9112  -34.4400   23.7533 C   0  0  0  0  0  0  0  0  0  0  0  0
  -27.5352  -28.7091   19.8930 C   0  0  0  0  0  0  0  0  0  0  0  0
  -25.0595  -33.7036   23.4045 C   0  0  0  0  0  0  0  0  0  0  0  0
  -26.8317  -27.5853   20.3496 C   0  0  0  0  0  0  0  0  0  0  0  0
  -27.0291  -19.6068   20.3804 C   0  0  0  0  0  0  0  0  0  0  0  0
  -25.7608  -19.9057   19.8826 C   0  0  0  0  0  0  0  0  0  0  0  0
  -25.0369  -18.9352   19.1899 C   0  0  0  0  0  0  0  0  0  0  0  0
  -25.5813  -17.6657   18.9952 C   0  0  0  0  0  0  0  0  0  0  0  0
  -26.8495  -17.3669   19.4930 C   0  0  0  0  0  0  0  0  0  0  0  0
  -22.2457   -8.3917   21.9459 C   0  0  0  0  0  0  0  0  0  0  0  0
  -28.9163  -26.3391   20.4565 C   0  0  0  0  0  0  0  0  0  0  0  0
  -21.4710   -6.5878   23.2374 C   0  0  0  0  0  0  0  0  0  0  0  0
  -21.8399   -3.9920   24.1905 C   0  0  0  0  0  0  0  0  0  0  0  0
  -21.5470   -6.3532   24.6102 C   0  0  0  0  0  0  0  0  0  0  0  0
  -25.2268   -9.9954   19.4083 C   0  0  0  0  0  0  0  0  0  0  0  0
  -26.5223  -10.4591   17.6933 C   0  0  0  0  0  0  0  0  0  0  0  0
  -24.7591   -8.7562   17.2036 C   0  0  0  0  0  0  0  0  0  0  0  0
  -25.6180  -30.4584   21.7283 C   0  0  0  0  0  0  0  0  0  0  0  0
  -23.2847  -28.9796   20.0280 C   0  0  0  0  0  0  0  0  0  0  0  0
  -22.6315  -25.6527   18.7941 C   0  0  0  0  0  0  0  0  0  0  0  0
  -28.6696  -15.6436   19.7464 C   0  0  0  0  0  0  0  0  0  0  0  0
  -22.6562  -33.7655   24.2478 C   0  0  0  0  0  0  0  0  0  0  0  0
  -26.8046  -29.9799   19.5559 C   0  0  0  0  0  0  0  0  0  0  0  0
  -25.3393  -27.6119   20.5509 C   0  0  0  0  0  0  0  0  0  0  0  0
  -22.5957  -32.2758   23.9202 C   0  0  0  0  0  0  0  0  0  0  0  0
  -30.4220  -12.5524   19.5223 C   0  0  0  0  0  0  0  0  0  0  0  0
  -30.1194  -22.2215   18.5051 C   0  0  0  0  0  0  0  0  0  0  0  0
  -23.9213  -31.6007   24.2578 C   0  0  0  0  0  0  0  0  0  0  0  0
  -29.3096  -11.5175   19.3384 C   0  0  0  0  0  0  0  0  0  0  0  0
  -30.4090  -23.5434   19.2038 C   0  0  0  0  0  0  0  0  0  0  0  0
  -30.0017  -13.6746   20.4698 C   0  0  0  0  0  0  0  0  0  0  0  0
  -27.6244  -13.3016   19.9419 C   0  0  0  0  0  0  0  0  0  0  0  0
  -29.6305  -21.1634   19.4839 C   0  0  0  0  0  0  0  0  0  0  0  0
  -28.7156  -22.9577   20.9783 C   0  0  0  0  0  0  0  0  0  0  0  0
  -25.0679  -32.1905   23.4277 C   0  0  1  0  0  0  0  0  0  0  0  0
  -25.4653  -30.1080   20.2752 C   0  0  1  0  0  0  0  0  0  0  0  0
  -27.9776  -12.1858   18.9450 C   0  0  2  0  0  0  0  0  0  0  0  0
  -29.2046  -24.0242   20.0071 C   0  0  1  0  0  0  0  0  0  1  0  0
  -25.1805  -21.2687   20.0921 C   0  0  0  0  0  0  0  0  0  0  0  0
  -23.6765  -19.2565   18.6560 C   0  0  0  0  0  0  0  0  0  0  0  0
  -24.8032  -16.6265   18.2501 C   0  0  0  0  0  0  0  0  0  0  0  0
  -21.2844  -24.8787   16.8234 C   0  0  0  0  0  0  0  0  0  0  0  0
  -21.0193  -28.7019   22.0530 C   0  0  0  0  0  0  0  0  0  0  0  0
  -20.3052  -26.6177   20.8638 C   0  0  0  0  0  0  0  0  0  0  0  0
  -20.2784  -28.8061   19.6667 C   0  0  0  0  0  0  0  0  0  0  0  0
  -24.9193  -24.1453   17.6751 C   0  0  0  0  0  0  0  0  0  0  0  0
  -27.8299  -20.6337   21.1255 C   0  0  0  0  0  0  0  0  0  0  0  0
  -22.4939  -27.7031   20.1838 C   0  0  1  0  0  0  0  0  0  0  0  0
  -22.6766  -25.1948   17.3475 C   0  0  2  0  0  0  0  0  0  0  0  0
  -21.0506  -27.9597   20.7021 C   0  0  0  0  0  0  0  0  0  0  0  0
  -26.0833  -10.9086   19.8734 N   0  0  0  0  0  0  0  0  0  0  0  0
  -26.8584  -11.1707   18.8072 N   0  0  0  0  0  0  0  0  0  0  0  0
  -24.6709  -28.8795   20.2134 N   0  0  0  0  0  0  0  0  0  0  0  0
  -28.7342  -14.2634   20.0319 N   0  0  0  0  0  0  0  0  0  0  0  0
  -27.1984  -10.6008   16.5334 N   0  0  0  0  0  0  0  0  0  0  0  0
  -23.6834   -8.0331   17.7368 N   0  0  0  0  0  0  0  0  0  0  0  0
  -27.4213  -16.0837   19.3075 N   0  0  0  0  0  0  0  0  0  0  0  0
  -25.0397  -31.6630   22.0803 N   0  0  0  0  0  0  0  0  0  0  0  0
  -22.5537  -27.0258   18.8930 N   0  0  0  0  0  0  0  0  0  0  0  0
  -28.4232  -21.6838   20.2271 N   0  3  2  0  0  0  0  0  0  0  0  0
  -23.5168  -23.9708   17.2176 N   0  3  0  0  0  0  0  0  0  0  0  0
  -25.0936   -8.5680   16.0094 O   0  0  0  0  0  0  0  0  0  0  0  0
  -26.2150  -29.6919   22.4751 O   0  0  0  0  0  0  0  0  0  0  0  0
  -22.6952  -30.0255   19.7449 O   0  0  0  0  0  0  0  0  0  0  0  0
  -22.6585  -24.8703   19.7416 O   0  0  0  0  0  0  0  0  0  0  0  0
  -29.6565  -16.3758   19.8553 O   0  0  0  0  0  0  0  0  0  0  0  0
  -21.2870   -7.8756   22.7627 O   0  0  0  0  0  0  0  0  0  0  0  0
  -29.5848  -25.1872   20.7357 O   0  0  0  0  0  0  0  0  0  1  0  0
  -22.0155   -2.7454   24.6480 F   0  0  0  0  0  0  0  0  0  0  0  0
  -21.4424   -7.3705   25.4762 F   0  0  0  0  0  0  0  0  0  0  0  0
  1  2  1  0  0  0  0
  1  5  2  0  0  0  0
  2  6  2  0  0  0  0
  3  8  2  0  0  0  0
  3 16  1  0  0  0  0
  4  9  1  0  0  0  0
  4 16  2  0  0  0  0
  5 18  1  0  0  0  0
  6 20  1  0  0  0  0
  7 10  2  0  0  0  0
  7 19  1  0  0  0  0
  8 27  1  0  0  0  0
  9 27  2  0  0  0  0
 10 28  1  0  0  0  0
 11 12  2  0  0  0  0
 11 29  1  0  0  0  0
 12 30  1  0  0  0  0
 13 21  1  0  0  0  0
 13 28  2  0  0  0  0
 14 22  1  0  0  0  0
 14 26  2  0  0  0  0
 15 30  2  0  0  0  0
 15 31  1  0  0  0  0
 16 32  1  0  0  0  0
 17 32  1  0  0  0  0
 17 33  2  0  0  0  0
 17 34  1  0  0  0  0
 18 20  2  0  0  0  0
 18 39  1  0  0  0  0
 19 21  2  0  0  0  0
 19 40  1  0  0  0  0
 20 52  1  0  0  0  0
 21 41  1  0  0  0  0
 22 23  2  0  0  0  0
 22 64  1  0  0  0  0
 23 24  1  0  0  0  0
 23 56  1  0  0  0  0
 24 25  2  0  0  0  0
 24 57  1  0  0  0  0
 25 26  1  0  0  0  0
 25 58  1  0  0  0  0
 26 74  1  0  0  0  0
 27 84  1  0  0  0  0
 28 85  1  0  0  0  0
 29 31  2  0  0  0  0
 29 84  1  0  0  0  0
 30 86  1  0  0  0  0
 31 87  1  0  0  0  0
 32 68  2  0  0  0  0
 33 69  1  0  0  0  0
 33 72  1  0  0  0  0
 34 73  1  0  0  0  0
 34 79  2  0  0  0  0
 35 53  1  0  0  0  0
 35 75  1  0  0  0  0
 35 80  2  0  0  0  0
 36 65  1  0  0  0  0
 36 70  1  0  0  0  0
 36 81  2  0  0  0  0
 37 66  1  0  0  0  0
 37 76  1  0  0  0  0
 37 82  2  0  0  0  0
 38 71  1  0  0  0  0
 38 74  1  0  0  0  0
 38 83  2  0  0  0  0
 39 42  1  0  0  0  0
 40 53  1  0  0  0  0
 41 70  1  0  0  0  0
 42 45  1  0  0  0  0
 43 46  1  0  0  0  0
 43 48  1  0  0  0  0
 44 47  1  0  0  0  0
 44 50  1  0  0  0  0
 45 52  1  0  0  0  0
 46 54  1  0  0  0  0
 47 55  1  0  0  0  0
 48 71  1  0  0  0  0
 49 54  1  0  0  0  0
 49 71  1  0  0  0  0
 50 77  1  0  0  0  0
 51 55  1  0  0  0  0
 51 77  1  0  0  0  0
 52 75  1  0  0  0  0
 53 70  1  0  0  0  0
 54 69  1  0  0  0  0
 55 85  1  0  0  0  0
 59 66  1  0  0  0  0
 60 67  1  0  0  0  0
 61 67  1  0  0  0  0
 62 67  1  0  0  0  0
 63 78  1  0  0  0  0
 64 77  1  0  0  0  0
 65 67  1  0  0  0  0
 65 76  1  0  0  0  0
 66 78  1  0  0  0  0
 68 69  1  0  0  0  0
M  CHG  2  77   1  78   1
M  ISO  4  38 100  55 101  74 100  85 101
M  END
> <Batch ID>
0037

> <Smiles>
CNC(C)C(=O)NC(C(=O)N1Cc2cc([101O:1][101CH:1]3CCCN(Cc4cc([100NH:0][100C:0](=O)N5CCCC(n6nc(-c7ccc(Oc8ccc(F)cc8F)cc7)c(C(N)=O)c6N)C5)c(C)c(C)c4C)C3)ccc2CC1C(=O)NC1CCCc2ccccc21)C(C)(C)C

> <Shape>
0.332

> <Color>
0.078

> <Negative vol penalty>
0.000

$$$$

  -OEChem-04042321573D

 88 97  0     1  0  0  0  0  0999 V2000
  -19.7213  -17.1331   26.8442 C   0  0  0  0  0  0  0  0  0  0  0  0
  -18.8899  -17.9348   26.0702 C   0  0  0  0  0  0  0  0  0  0  0  0
  -30.4884  -18.0298   21.6007 C   0  0  0  0  0  0  0  0  0  0  0  0
  -29.2951  -17.7477   19.5190 C   0  0  0  0  0  0  0  0  0  0  0  0
  -20.8453  -17.6858   27.4543 C   0  0  0  0  0  0  0  0  0  0  0  0
  -19.1887  -19.2865   25.8963 C   0  0  0  0  0  0  0  0  0  0  0  0
  -20.1950  -27.0862   23.1478 C   0  0  0  0  0  0  0  0  0  0  0  0
  -30.9763  -16.7271   21.4976 C   0  0  0  0  0  0  0  0  0  0  0  0
  -29.7829  -16.4450   19.4159 C   0  0  0  0  0  0  0  0  0  0  0  0
  -21.1992  -28.0460   23.2667 C   0  0  0  0  0  0  0  0  0  0  0  0
  -29.0907  -13.4132   20.7425 C   0  0  0  0  0  0  0  0  0  0  0  0
  -28.1903  -12.4106   20.3823 C   0  0  0  0  0  0  0  0  0  0  0  0
  -22.8679  -26.3252   22.9956 C   0  0  0  0  0  0  0  0  0  0  0  0
  -27.4236  -29.4274   21.6065 C   0  0  0  0  0  0  0  0  0  0  0  0
  -29.5209  -11.9183   18.4267 C   0  0  0  0  0  0  0  0  0  0  0  0
  -29.6478  -18.5401   20.6114 C   0  0  0  0  0  0  0  0  0  0  0  0
  -28.3487  -20.4163   21.7516 C   0  0  0  0  0  0  0  0  0  0  0  0
  -21.1506  -19.0478   27.2974 C   0  0  0  0  0  0  0  0  0  0  0  0
  -20.5205  -25.7348   22.9624 C   0  0  0  0  0  0  0  0  0  0  0  0
  -20.3318  -19.8577   26.4843 C   0  0  0  0  0  0  0  0  0  0  0  0
  -21.8660  -25.3506   22.8720 C   0  0  0  0  0  0  0  0  0  0  0  0
  -27.8350  -29.7736   22.8935 C   0  0  0  0  0  0  0  0  0  0  0  0
  -28.9063  -29.1056   23.4866 C   0  0  0  0  0  0  0  0  0  0  0  0
  -29.5661  -28.0913   22.7927 C   0  0  0  0  0  0  0  0  0  0  0  0
  -29.1546  -27.7451   21.5056 C   0  0  0  0  0  0  0  0  0  0  0  0
  -30.6235  -15.9347   20.4052 C   0  0  0  0  0  0  0  0  0  0  0  0
  -22.5359  -27.6653   23.1935 C   0  0  0  0  0  0  0  0  0  0  0  0
  -30.2062  -13.6684   19.9447 C   0  0  0  0  0  0  0  0  0  0  0  0
  -28.4054  -11.6632   19.2244 C   0  0  0  0  0  0  0  0  0  0  0  0
  -30.4212  -12.9209   18.7869 C   0  0  0  0  0  0  0  0  0  0  0  0
  -28.0833  -28.4131   20.9126 C   0  0  0  0  0  0  0  0  0  0  0  0
  -29.1431  -19.8855   20.7176 C   0  0  0  0  0  0  0  0  0  0  0  0
  -28.1392  -21.7238   21.3869 C   0  0  0  0  0  0  0  0  0  0  0  0
  -27.8453  -19.7840   22.9359 C   0  0  0  0  0  0  0  0  0  0  0  0
  -20.0325  -23.0631   24.6139 C   0  0  0  0  0  0  0  0  0  0  0  0
  -21.3355  -21.6664   21.9921 C   0  0  0  0  0  0  0  0  0  0  0  0
  -24.0759  -22.3318   19.7415 C   0  0  0  0  0  0  0  0  0  0  0  0
  -30.0010  -26.5933   19.4312 C   0  0  0  0  0  0  0  0  0  0  0  0
  -22.3840  -19.5921   27.9738 C   0  0  0  0  0  0  0  0  0  0  0  0
  -19.4252  -24.7154   22.8092 C   0  0  0  0  0  0  0  0  0  0  0  0
  -22.2679  -23.9156   22.6535 C   0  0  0  0  0  0  0  0  0  0  0  0
  -22.3727  -21.1123   28.0968 C   0  0  0  0  0  0  0  0  0  0  0  0
  -29.0943  -24.1226   17.0331 C   0  0  0  0  0  0  0  0  0  0  0  0
  -22.0310  -21.7400   26.7537 C   0  0  0  0  0  0  0  0  0  0  0  0
  -28.9608  -22.8436   17.8629 C   0  0  0  0  0  0  0  0  0  0  0  0
  -23.1817  -29.9719   25.2769 C   0  0  0  0  0  0  0  0  0  0  0  0
  -23.3959  -31.3148   24.5881 C   0  0  0  0  0  0  0  0  0  0  0  0
  -30.2354  -25.0066   17.5331 C   0  0  0  0  0  0  0  0  0  0  0  0
  -30.0574  -24.0478   19.7955 C   0  0  0  0  0  0  0  0  0  0  0  0
  -25.4772  -29.2418   24.5309 C   0  0  0  0  0  0  0  0  0  0  0  0
  -20.6202  -21.3373   26.3060 C   0  0  1  0  0  0  0  0  0  0  0  0
  -19.8794  -23.2965   23.1375 C   0  0  1  0  0  0  0  0  0  0  0  0
  -28.8797  -23.1557   19.3701 C   0  0  2  0  0  0  0  0  0  0  0  0
  -24.0050  -28.8696   24.6226 C   0  0  2  0  0  0  0  0  0  1  0  0
  -24.8783  -31.6987   24.5110 C   0  0  2  0  0  0  0  0  0  0  0  0
  -29.3447  -29.4789   24.8676 C   0  0  0  0  0  0  0  0  0  0  0  0
  -30.7154  -27.3784   23.4351 C   0  0  0  0  0  0  0  0  0  0  0  0
  -25.0325  -33.0101   23.7432 C   0  0  0  0  0  0  0  0  0  0  0  0
  -24.4106  -21.6809   17.3411 C   0  0  0  0  0  0  0  0  0  0  0  0
  -22.8339  -19.2746   23.1515 C   0  0  0  0  0  0  0  0  0  0  0  0
  -24.4780  -19.4835   21.2749 C   0  0  0  0  0  0  0  0  0  0  0  0
  -22.0832  -18.9873   20.7832 C   0  0  0  0  0  0  0  0  0  0  0  0
  -24.5062  -25.1419   18.9185 C   0  0  0  0  0  0  0  0  0  0  0  0
  -27.1085  -30.8687   23.6175 C   0  0  0  0  0  0  0  0  0  0  0  0
  -22.7352  -21.3038   21.5582 C   0  0  1  0  0  0  0  0  0  0  0  0
  -23.9752  -22.7822   18.2953 C   0  0  2  0  0  0  0  0  0  0  0  0
  -23.0276  -19.7843   21.7093 C   0  0  0  0  0  0  0  0  0  0  0  0
  -29.4193  -20.7825   19.7673 N   0  0  0  0  0  0  0  0  0  0  0  0
  -28.7950  -21.8901   20.2026 N   0  0  0  0  0  0  0  0  0  0  0  0
  -21.1606  -22.9551   22.5160 N   0  0  0  0  0  0  0  0  0  0  0  0
  -30.0901  -25.2636   18.9676 N   0  0  0  0  0  0  0  0  0  0  0  0
  -27.4598  -22.7359   21.9668 N   0  0  0  0  0  0  0  0  0  0  0  0
  -28.1552  -18.4350   23.1562 N   0  0  0  0  0  0  0  0  0  0  0  0
  -29.8321  -26.7130   20.8102 N   0  0  0  0  0  0  0  0  0  0  0  0
  -20.4140  -21.7765   24.9435 N   0  0  0  0  0  0  0  0  0  0  0  0
  -22.8844  -21.8085   20.1975 N   0  0  0  0  0  0  0  0  0  0  0  0
  -25.6411  -30.5737   23.8173 N   0  3  1  0  0  0  0  0  0  0  0  0
  -24.8390  -23.9742   18.0626 N   0  3  0  0  0  0  0  0  0  0  0  0
  -27.1279  -20.3926   23.7656 O   0  0  0  0  0  0  0  0  0  0  0  0
  -19.8217  -23.9826   25.3960 O   0  0  0  0  0  0  0  0  0  0  0  0
  -20.4293  -20.8394   21.8640 O   0  0  0  0  0  0  0  0  0  0  0  0
  -25.1091  -22.4307   20.3996 O   0  0  0  0  0  0  0  0  0  0  0  0
  -30.0421  -27.5541   18.6584 O   0  0  0  0  0  0  0  0  0  0  0  0
  -31.0995  -14.6636   20.3041 O   0  0  0  0  0  0  0  0  0  0  0  0
  -23.5180  -28.6000   23.3100 O   0  0  0  0  0  0  0  0  0  1  0  0
  -27.5415  -10.6994   18.8795 F   0  0  0  0  0  0  0  0  0  0  0  0
  -31.4917  -13.1607   18.0171 F   0  0  0  0  0  0  0  0  0  0  0  0
  -27.5384  -28.0185   19.3205 Cl  0  0  0  0  0  0  0  0  0  0  0  0
  1  2  1  0  0  0  0
  1  5  2  0  0  0  0
  2  6  2  0  0  0  0
  3  8  2  0  0  0  0
  3 16  1  0  0  0  0
  4  9  1  0  0  0  0
  4 16  2  0  0  0  0
  5 18  1  0  0  0  0
  6 20  1  0  0  0  0
  7 10  2  0  0  0  0
  7 19  1  0  0  0  0
  8 26  1  0  0  0  0
  9 26  2  0  0  0  0
 10 27  1  0  0  0  0
 11 12  2  0  0  0  0
 11 28  1  0  0  0  0
 12 29  1  0  0  0  0
 13 21  1  0  0  0  0
 13 27  2  0  0  0  0
 14 22  1  0  0  0  0
 14 31  2  0  0  0  0
 15 29  2  0  0  0  0
 15 30  1  0  0  0  0
 16 32  1  0  0  0  0
 17 32  1  0  0  0  0
 17 33  2  0  0  0  0
 17 34  1  0  0  0  0
 18 20  2  0  0  0  0
 18 39  1  0  0  0  0
 19 21  2  0  0  0  0
 19 40  1  0  0  0  0
 20 51  1  0  0  0  0
 21 41  1  0  0  0  0
 22 23  2  0  0  0  0
 22 64  1  0  0  0  0
 23 24  1  0  0  0  0
 23 56  1  0  0  0  0
 24 25  2  0  0  0  0
 24 57  1  0  0  0  0
 25 31  1  0  0  0  0
 25 74  1  0  0  0  0
 26 84  1  0  0  0  0
 27 85  1  0  0  0  0
 28 30  2  0  0  0  0
 28 84  1  0  0  0  0
 29 86  1  0  0  0  0
 30 87  1  0  0  0  0
 31 88  1  0  0  0  0
 32 68  2  0  0  0  0
 33 69  1  0  0  0  0
 33 72  1  0  0  0  0
 34 73  1  0  0  0  0
 34 79  2  0  0  0  0
 35 52  1  0  0  0  0
 35 75  1  0  0  0  0
 35 80  2  0  0  0  0
 36 65  1  0  0  0  0
 36 70  1  0  0  0  0
 36 81  2  0  0  0  0
 37 66  1  0  0  0  0
 37 76  1  0  0  0  0
 37 82  2  0  0  0  0
 38 71  1  0  0  0  0
 38 74  1  0  0  0  0
 38 83  2  0  0  0  0
 39 42  1  0  0  0  0
 40 52  1  0  0  0  0
 41 70  1  0  0  0  0
 42 44  1  0  0  0  0
 43 45  1  0  0  0  0
 43 48  1  0  0  0  0
 44 51  1  0  0  0  0
 45 53  1  0  0  0  0
 46 47  1  0  0  0  0
 46 54  1  0  0  0  0
 47 55  1  0  0  0  0
 48 71  1  0  0  0  0
 49 53  1  0  0  0  0
 49 71  1  0  0  0  0
 50 54  1  0  0  0  0
 50 77  1  0  0  0  0
 51 75  1  0  0  0  0
 52 70  1  0  0  0  0
 53 69  1  0  0  0  0
 54 85  1  0  0  0  0
 55 58  1  0  0  0  0
 55 77  1  0  0  0  0
 59 66  1  0  0  0  0
 60 67  1  0  0  0  0
 61 67  1  0  0  0  0
 62 67  1  0  0  0  0
 63 78  1  0  0  0  0
 64 77  1  0  0  0  0
 65 67  1  0  0  0  0
 65 76  1  0  0  0  0
 66 78  1  0  0  0  0
 68 69  1  0  0  0  0
M  CHG  2  77   1  78   1
M  ISO  4  38 100  54 101  74 100  85 101
M  END
> <Batch ID>
0037

> <Smiles>
CNC(C)C(=O)NC(C(=O)N1Cc2cc([101O:1][101CH:1]3CCC(C)N(Cc4cc(Cl)c([100NH:0][100C:0](=O)N5CCCC(n6nc(-c7ccc(Oc8ccc(F)cc8F)cc7)c(C(N)=O)c6N)C5)c(C)c4C)C3)ccc2CC1C(=O)NC1CCCc2ccccc21)C(C)(C)C

> <Shape>
0.244

> <Color>
0.062

> <Negative vol penalty>
0.000

$$$$

  -OEChem-04042321573D

 86 94  0     1  0  0  0  0  0999 V2000
  -22.7389  -22.4235   15.5409 C   0  0  0  0  0  0  0  0  0  0  0  0
  -23.4534  -21.2761   15.2152 C   0  0  0  0  0  0  0  0  0  0  0  0
  -26.0765  -28.0304   19.1677 C   0  0  0  0  0  0  0  0  0  0  0  0
  -26.3522  -27.4351   21.4929 C   0  0  0  0  0  0  0  0  0  0  0  0
  -22.4837  -22.7253   16.8770 C   0  0  0  0  0  0  0  0  0  0  0  0
  -23.9025  -20.4240   16.2247 C   0  0  0  0  0  0  0  0  0  0  0  0
  -27.3434  -15.4038   15.9313 C   0  0  0  0  0  0  0  0  0  0  0  0
  -24.9962  -28.8459   19.5046 C   0  0  0  0  0  0  0  0  0  0  0  0
  -25.2719  -28.2507   21.8298 C   0  0  0  0  0  0  0  0  0  0  0  0
  -28.6969  -15.0781   16.0063 C   0  0  0  0  0  0  0  0  0  0  0  0
  -22.8134  -30.4575   23.3477 C   0  0  0  0  0  0  0  0  0  0  0  0
  -22.9529  -31.2958   24.4537 C   0  0  0  0  0  0  0  0  0  0  0  0
  -30.9595  -17.8401   21.9989 C   0  0  0  0  0  0  0  0  0  0  0  0
  -28.4321  -14.5417   18.3433 C   0  0  0  0  0  0  0  0  0  0  0  0
  -32.4876  -19.6695   23.4483 C   0  0  0  0  0  0  0  0  0  0  0  0
  -24.8261  -32.3887   23.3889 C   0  0  0  0  0  0  0  0  0  0  0  0
  -26.7545  -27.3249   20.1619 C   0  0  0  0  0  0  0  0  0  0  0  0
  -32.3244  -17.6185   22.1819 C   0  0  0  0  0  0  0  0  0  0  0  0
  -29.2269  -26.8516   19.7485 C   0  0  0  0  0  0  0  0  0  0  0  0
  -22.9411  -21.8824   17.9033 C   0  0  0  0  0  0  0  0  0  0  0  0
  -26.5250  -15.3112   17.0663 C   0  0  0  0  0  0  0  0  0  0  0  0
  -23.6344  -20.6988   17.5779 C   0  0  0  0  0  0  0  0  0  0  0  0
  -27.0680  -14.8644   18.2794 C   0  0  0  0  0  0  0  0  0  0  0  0
  -30.3586  -18.9765   22.5406 C   0  0  0  0  0  0  0  0  0  0  0  0
  -33.0885  -18.5332   22.9066 C   0  0  0  0  0  0  0  0  0  0  0  0
  -24.5939  -28.9561   20.8356 C   0  0  0  0  0  0  0  0  0  0  0  0
  -29.2421  -14.6498   17.2131 C   0  0  0  0  0  0  0  0  0  0  0  0
  -23.6803  -30.5846   22.2623 C   0  0  0  0  0  0  0  0  0  0  0  0
  -23.9592  -32.2615   24.4743 C   0  0  0  0  0  0  0  0  0  0  0  0
  -24.6866  -31.5503   22.2829 C   0  0  0  0  0  0  0  0  0  0  0  0
  -31.1227  -19.8911   23.2653 C   0  0  0  0  0  0  0  0  0  0  0  0
  -27.8701  -26.4819   19.8145 C   0  0  0  0  0  0  0  0  0  0  0  0
  -29.8787  -25.7010   19.3775 C   0  0  0  0  0  0  0  0  0  0  0  0
  -32.9412  -16.4100   21.5990 C   0  0  0  0  0  0  0  0  0  0  0  0
  -29.8429  -28.1216   20.0001 C   0  0  0  0  0  0  0  0  0  0  0  0
  -24.8159  -17.3767   18.7740 C   0  0  0  0  0  0  0  0  0  0  0  0
  -23.8311  -14.6945   20.3098 C   0  0  0  0  0  0  0  0  0  0  0  0
  -24.4570  -11.4505   21.1649 C   0  0  0  0  0  0  0  0  0  0  0  0
  -28.5531  -19.8921   19.9699 C   0  0  0  0  0  0  0  0  0  0  0  0
  -22.6301  -22.2529   19.3320 C   0  0  0  0  0  0  0  0  0  0  0  0
  -25.0611  -15.6406   16.9624 C   0  0  0  0  0  0  0  0  0  0  0  0
  -26.2277  -14.7284   19.5220 C   0  0  0  0  0  0  0  0  0  0  0  0
  -23.5208  -21.5340   20.3400 C   0  0  0  0  0  0  0  0  0  0  0  0
  -29.2108  -21.6396   16.9383 C   0  0  0  0  0  0  0  0  0  0  0  0
  -23.5461  -20.0427   20.0405 C   0  0  0  0  0  0  0  0  0  0  0  0
  -29.0642  -23.1121   17.3257 C   0  0  0  0  0  0  0  0  0  0  0  0
  -28.2043  -20.7591   17.6757 C   0  0  0  0  0  0  0  0  0  0  0  0
  -28.0675  -22.3756   19.5309 C   0  0  0  0  0  0  0  0  0  0  0  0
  -24.1592  -19.7731   18.6605 C   0  0  1  0  0  0  0  0  0  0  0  0
  -24.4331  -16.0015   18.3050 C   0  0  1  0  0  0  0  0  0  0  0  0
  -29.0984  -23.2957   18.8549 C   0  0  2  0  0  0  0  0  0  0  0  0
  -34.5521  -18.3182   23.1136 C   0  0  0  0  0  0  0  0  0  0  0  0
  -23.4858   -9.5316   22.4580 C   0  0  0  0  0  0  0  0  0  0  0  0
  -24.6715  -16.0317   22.9205 C   0  0  0  0  0  0  0  0  0  0  0  0
  -24.5796  -13.7843   24.0200 C   0  0  0  0  0  0  0  0  0  0  0  0
  -22.5117  -14.7765   23.0394 C   0  0  0  0  0  0  0  0  0  0  0  0
  -24.2980   -9.7507   18.7474 C   0  0  0  0  0  0  0  0  0  0  0  0
  -28.8938  -19.1776   22.3220 C   0  0  0  0  0  0  0  0  0  0  0  0
  -32.6833  -14.8343   18.2945 C   0  0  0  0  0  0  0  0  0  0  0  0
  -33.4555  -15.0871   19.5786 C   0  0  0  0  0  0  0  0  0  0  0  0
  -31.2098  -14.5392   18.5443 C   0  0  0  0  0  0  0  0  0  1  0  0
  -24.3182  -13.9046   21.5005 C   0  0  1  0  0  0  0  0  0  0  0  0
  -23.5899  -10.2062   21.0990 C   0  0  2  0  0  0  0  0  0  0  0  0
  -24.0368  -14.6286   22.8473 C   0  0  0  0  0  0  0  0  0  0  0  0
  -27.6705  -25.1969   19.5097 N   0  0  0  0  0  0  0  0  0  0  0  0
  -28.9104  -24.7491   19.2485 N   0  0  0  0  0  0  0  0  0  0  0  0
  -24.8032  -15.0684   19.3711 N   0  0  0  0  0  0  0  0  0  0  0  0
  -28.2892  -20.9800   19.1214 N   0  0  0  0  0  0  0  0  0  0  0  0
  -31.1798  -25.4207   19.1522 N   0  0  0  0  0  0  0  0  0  0  0  0
  -33.5270  -15.5430   22.4249 N   0  0  0  0  0  0  0  0  0  0  0  0
  -29.0263  -29.1984   20.3718 N   0  0  0  0  0  0  0  0  0  0  0  0
  -23.9752  -18.3780   18.3265 N   0  0  0  0  0  0  0  0  0  0  0  0
  -23.7064  -12.5845   21.3925 N   0  0  0  0  0  0  0  0  0  0  0  0
  -28.6234  -20.1897   21.3253 N   0  0  0  0  0  0  0  0  0  0  0  0
  -32.8855  -16.2429   20.2712 N   0  3  0  0  0  0  0  0  0  0  0  0
  -24.1611   -9.2275   20.1311 N   0  3  0  0  0  0  0  0  0  0  0  0
  -31.0789  -28.3005   19.8824 O   0  0  0  0  0  0  0  0  0  0  0  0
  -25.8001  -17.5187   19.4900 O   0  0  0  0  0  0  0  0  0  0  0  0
  -22.6313  -14.9637   20.2125 O   0  0  0  0  0  0  0  0  0  0  0  0
  -25.6784  -11.4191   21.0318 O   0  0  0  0  0  0  0  0  0  0  0  0
  -28.7194  -18.7418   19.5501 O   0  0  0  0  0  0  0  0  0  0  0  0
  -23.5400  -29.7520   21.1647 O   0  0  0  0  0  0  0  0  0  0  0  0
  -30.5631  -14.3319   17.2892 O   0  0  0  0  0  0  0  0  0  1  0  0
  -24.0921  -33.0676   25.5358 F   0  0  0  0  0  0  0  0  0  0  0  0
  -25.5217  -31.6780   21.2427 F   0  0  0  0  0  0  0  0  0  0  0  0
  -30.4140  -21.3083   23.9497 Cl  0  0  0  0  0  0  0  0  0  0  0  0
  1  2  1  0  0  0  0
  1  5  2  0  0  0  0
  2  6  2  0  0  0  0
  3  8  2  0  0  0  0
  3 17  1  0  0  0  0
  4  9  1  0  0  0  0
  4 17  2  0  0  0  0
  5 20  1  0  0  0  0
  6 22  1  0  0  0  0
  7 10  2  0  0  0  0
  7 21  1  0  0  0  0
  8 26  1  0  0  0  0
  9 26  2  0  0  0  0
 10 27  1  0  0  0  0
 11 12  2  0  0  0  0
 11 28  1  0  0  0  0
 12 29  1  0  0  0  0
 13 18  1  0  0  0  0
 13 24  2  0  0  0  0
 14 23  1  0  0  0  0
 14 27  2  0  0  0  0
 15 25  1  0  0  0  0
 15 31  2  0  0  0  0
 16 29  2  0  0  0  0
 16 30  1  0  0  0  0
 17 32  1  0  0  0  0
 18 25  2  0  0  0  0
 18 34  1  0  0  0  0
 19 32  1  0  0  0  0
 19 33  2  0  0  0  0
 19 35  1  0  0  0  0
 20 22  2  0  0  0  0
 20 40  1  0  0  0  0
 21 23  2  0  0  0  0
 21 41  1  0  0  0  0
 22 49  1  0  0  0  0
 23 42  1  0  0  0  0
 24 31  1  0  0  0  0
 24 58  1  0  0  0  0
 25 52  1  0  0  0  0
 26 82  1  0  0  0  0
 27 83  1  0  0  0  0
 28 30  2  0  0  0  0
 28 82  1  0  0  0  0
 29 84  1  0  0  0  0
 30 85  1  0  0  0  0
 31 86  1  0  0  0  0
 32 65  2  0  0  0  0
 33 66  1  0  0  0  0
 33 69  1  0  0  0  0
 34 70  1  0  0  0  0
 34 75  2  0  0  0  0
 35 71  1  0  0  0  0
 35 77  2  0  0  0  0
 36 50  1  0  0  0  0
 36 72  1  0  0  0  0
 36 78  2  0  0  0  0
 37 62  1  0  0  0  0
 37 67  1  0  0  0  0
 37 79  2  0  0  0  0
 38 63  1  0  0  0  0
 38 73  1  0  0  0  0
 38 80  2  0  0  0  0
 39 68  1  0  0  0  0
 39 74  1  0  0  0  0
 39 81  2  0  0  0  0
 40 43  1  0  0  0  0
 41 50  1  0  0  0  0
 42 67  1  0  0  0  0
 43 45  1  0  0  0  0
 44 46  1  0  0  0  0
 44 47  1  0  0  0  0
 45 49  1  0  0  0  0
 46 51  1  0  0  0  0
 47 68  1  0  0  0  0
 48 51  1  0  0  0  0
 48 68  1  0  0  0  0
 49 72  1  0  0  0  0
 50 67  1  0  0  0  0
 51 66  1  0  0  0  0
 53 63  1  0  0  0  0
 54 64  1  0  0  0  0
 55 64  1  0  0  0  0
 56 64  1  0  0  0  0
 57 76  1  0  0  0  0
 58 74  1  0  0  0  0
 59 60  1  0  0  0  0
 59 61  1  0  0  0  0
 60 75  1  0  0  0  0
 61 83  1  0  0  0  0
 62 64  1  0  0  0  0
 62 73  1  0  0  0  0
 63 76  1  0  0  0  0
 65 66  1  0  0  0  0
M  CHG  2  75   1  76   1
M  ISO  4  39 100  61 101  74 100  83 101
M  END
> <Batch ID>
0037

> <Smiles>
CNC(C)C(=O)NC(C(=O)N1Cc2cc([101O:1][101CH2:1]CCNC(=N)c3cc(C[100NH:0][100C:0](=O)N4CCCC(n5nc(-c6ccc(Oc7ccc(F)cc7F)cc6)c(C(N)=O)c5N)C4)c(Cl)cc3C)ccc2CC1C(=O)NC1CCCc2ccccc21)C(C)(C)C

> <Shape>
0.223

> <Color>
0.057

> <Negative vol penalty>
0.000

$$$$

  -OEChem-04042321573D

 89 98  0     1  0  0  0  0  0999 V2000
  -24.6888  -32.8462   16.4155 C   0  0  0  0  0  0  0  0  0  0  0  0
  -25.4795  -31.7128   16.2553 C   0  0  0  0  0  0  0  0  0  0  0  0
  -22.6627  -10.2006   20.1663 C   0  0  0  0  0  0  0  0  0  0  0  0
  -24.3329   -9.3880   21.7113 C   0  0  0  0  0  0  0  0  0  0  0  0
  -24.2857  -33.2389   17.6911 C   0  0  0  0  0  0  0  0  0  0  0  0
  -25.8684  -30.9720   17.3707 C   0  0  0  0  0  0  0  0  0  0  0  0
  -25.3492  -25.9839   16.6675 C   0  0  0  0  0  0  0  0  0  0  0  0
  -21.9286   -9.0279   20.3430 C   0  0  0  0  0  0  0  0  0  0  0  0
  -23.5987   -8.2152   21.8881 C   0  0  0  0  0  0  0  0  0  0  0  0
  -26.3277  -25.3425   15.9094 C   0  0  0  0  0  0  0  0  0  0  0  0
  -20.8706   -7.2234   23.6185 C   0  0  0  0  0  0  0  0  0  0  0  0
  -20.7010   -6.7571   24.9220 C   0  0  0  0  0  0  0  0  0  0  0  0
  -27.3850  -24.5727   17.9364 C   0  0  0  0  0  0  0  0  0  0  0  0
  -31.6225  -18.3578   20.3380 C   0  0  0  0  0  0  0  0  0  0  0  0
  -29.1821  -19.7053   20.4428 C   0  0  0  0  0  0  0  0  0  0  0  0
  -21.8142   -4.6962   24.3297 C   0  0  0  0  0  0  0  0  0  0  0  0
  -23.8650  -10.3807   20.8504 C   0  0  0  0  0  0  0  0  0  0  0  0
  -24.2033  -12.9076   20.9378 C   0  0  0  0  0  0  0  0  0  0  0  0
  -24.6618  -32.4970   18.8220 C   0  0  0  0  0  0  0  0  0  0  0  0
  -25.3874  -25.9336   18.0684 C   0  0  0  0  0  0  0  0  0  0  0  0
  -25.4710  -31.3559   18.6628 C   0  0  0  0  0  0  0  0  0  0  0  0
  -26.4043  -25.2121   18.7100 C   0  0  0  0  0  0  0  0  0  0  0  0
  -31.4009  -19.4640   19.5178 C   0  0  0  0  0  0  0  0  0  0  0  0
  -29.4037  -18.5991   21.2629 C   0  0  0  0  0  0  0  0  0  0  0  0
  -30.6239  -17.9253   21.2106 C   0  0  0  0  0  0  0  0  0  0  0  0
  -30.1807  -20.1378   19.5702 C   0  0  0  0  0  0  0  0  0  0  0  0
  -22.3965   -8.0352   21.2039 C   0  0  0  0  0  0  0  0  0  0  0  0
  -27.3475  -24.6392   16.5438 C   0  0  0  0  0  0  0  0  0  0  0  0
  -21.5120   -6.4261   22.6704 C   0  0  0  0  0  0  0  0  0  0  0  0
  -21.1728   -5.4935   25.2777 C   0  0  0  0  0  0  0  0  0  0  0  0
  -21.9838   -5.1626   23.0261 C   0  0  0  0  0  0  0  0  0  0  0  0
  -24.6241  -11.5917   20.6678 C   0  0  0  0  0  0  0  0  0  0  0  0
  -25.2809  -13.6890   20.5991 C   0  0  0  0  0  0  0  0  0  0  0  0
  -29.8068  -22.2227   16.4536 C   0  0  0  0  0  0  0  0  0  0  0  0
  -30.9038  -22.9597   16.1988 C   0  0  0  0  0  0  0  0  0  0  0  0
  -22.9504  -13.3814   21.4492 C   0  0  0  0  0  0  0  0  0  0  0  0
  -25.6755  -28.0924   20.3836 C   0  0  0  0  0  0  0  0  0  0  0  0
  -25.1345  -25.5342   22.3033 C   0  0  0  0  0  0  0  0  0  0  0  0
  -25.2495  -22.1490   22.7201 C   0  0  0  0  0  0  0  0  0  0  0  0
  -30.7684  -14.7033   20.6623 C   0  0  0  0  0  0  0  0  0  0  0  0
  -24.2410  -32.9873   20.1848 C   0  0  0  0  0  0  0  0  0  0  0  0
  -24.3093  -26.6084   18.8713 C   0  0  0  0  0  0  0  0  0  0  0  0
  -26.4789  -25.1106   20.2108 C   0  0  0  0  0  0  0  0  0  0  0  0
  -24.3843  -31.9353   21.2816 C   0  0  0  0  0  0  0  0  0  0  0  0
  -27.9371  -20.4418   14.6443 C   0  0  0  0  0  0  0  0  0  0  0  0
  -29.5373  -12.5327   18.1227 C   0  0  0  0  0  0  0  0  0  0  0  0
  -29.0505  -19.6474   15.3287 C   0  0  0  0  0  0  0  0  0  0  0  0
  -25.7408  -31.2445   21.1848 C   0  0  0  0  0  0  0  0  0  0  0  0
  -28.1341  -21.9556   14.6068 C   0  0  0  0  0  0  0  0  0  0  0  0
  -28.1176  -12.1983   18.5839 C   0  0  0  0  0  0  0  0  0  0  0  0
  -30.5006  -12.6506   19.3018 C   0  0  0  0  0  0  0  0  0  0  0  0
  -28.6548  -13.2526   20.8197 C   0  0  0  0  0  0  0  0  0  0  0  0
  -29.1069  -19.8758   16.8375 C   0  0  0  0  0  0  0  0  0  0  0  0
  -25.8927  -30.5121   19.8462 C   0  0  1  0  0  0  0  0  0  0  0  0
  -28.4256  -22.5968   15.9653 C   0  0  2  0  0  0  0  0  0  1  0  0
  -24.7371  -26.9218   20.3017 C   0  0  1  0  0  0  0  0  0  0  0  0
  -27.6354  -13.1786   19.6701 C   0  0  2  0  0  0  0  0  0  0  0  0
  -32.4851  -19.9091   18.5921 C   0  0  0  0  0  0  0  0  0  0  0  0
  -28.3195  -18.1539   22.1886 C   0  0  0  0  0  0  0  0  0  0  0  0
  -24.7777  -20.3552   24.4104 C   0  0  0  0  0  0  0  0  0  0  0  0
  -27.6916  -26.2715   23.7958 C   0  0  0  0  0  0  0  0  0  0  0  0
  -27.6789  -23.9811   24.8069 C   0  0  0  0  0  0  0  0  0  0  0  0
  -25.7973  -25.5542   25.2628 C   0  0  0  0  0  0  0  0  0  0  0  0
  -23.2249  -20.8766   20.9763 C   0  0  0  0  0  0  0  0  0  0  0  0
  -30.8836  -16.7380   22.0786 C   0  0  0  0  0  0  0  0  0  0  0  0
  -29.9198  -21.3304   18.6980 C   0  0  0  0  0  0  0  0  0  0  0  0
  -26.0037  -24.4986   22.9747 C   0  0  1  0  0  0  0  0  0  0  0  0
  -24.2225  -21.1636   23.2481 C   0  0  2  0  0  0  0  0  0  0  0  0
  -26.7929  -25.0797   24.1818 C   0  0  0  0  0  0  0  0  0  0  0  0
  -25.8716  -11.5362   20.1939 N   0  0  0  0  0  0  0  0  0  0  0  0
  -26.2440  -12.8272   20.1634 N   0  0  0  0  0  0  0  0  0  0  0  0
  -25.4052  -25.7927   20.9521 N   0  0  0  0  0  0  0  0  0  0  0  0
  -29.9856  -13.5964   20.2948 N   0  0  0  0  0  0  0  0  0  0  0  0
  -25.4890  -15.0224   20.6344 N   0  0  0  0  0  0  0  0  0  0  0  0
  -22.7988  -13.5045   22.8371 N   0  0  0  0  0  0  0  0  0  0  0  0
  -25.1588  -29.2650   19.8663 N   0  0  0  0  0  0  0  0  0  0  0  0
  -25.1238  -23.3861   23.3159 N   0  0  0  0  0  0  0  0  0  0  0  0
  -30.2030  -15.5535   21.6048 N   0  0  0  0  0  0  0  0  0  0  0  0
  -30.0163  -21.0181   17.2254 N   0  3  2  0  0  0  0  0  0  0  0  0
  -23.8108  -20.2182   22.1722 N   0  3  0  0  0  0  0  0  0  0  0  0
  -21.9881  -13.6709   20.6985 O   0  0  0  0  0  0  0  0  0  0  0  0
  -26.7856  -27.9432   20.8807 O   0  0  0  0  0  0  0  0  0  0  0  0
  -24.2432  -26.0881   22.9518 O   0  0  0  0  0  0  0  0  0  0  0  0
  -26.0825  -21.8500   21.8674 O   0  0  0  0  0  0  0  0  0  0  0  0
  -31.8859  -14.9208   20.1819 O   0  0  0  0  0  0  0  0  0  0  0  0
  -21.6803   -6.8908   21.3768 O   0  0  0  0  0  0  0  0  0  0  0  0
  -28.3043  -24.0128   15.8062 O   0  0  0  0  0  0  0  0  0  1  0  0
  -21.0113   -5.0465   26.5300 F   0  0  0  0  0  0  0  0  0  0  0  0
  -22.6018   -4.3926   22.1200 F   0  0  0  0  0  0  0  0  0  0  0  0
  1  2  1  0  0  0  0
  1  5  2  0  0  0  0
  2  6  2  0  0  0  0
  3  8  2  0  0  0  0
  3 17  1  0  0  0  0
  4  9  1  0  0  0  0
  4 17  2  0  0  0  0
  5 19  1  0  0  0  0
  6 21  1  0  0  0  0
  7 10  2  0  0  0  0
  7 20  1  0  0  0  0
  8 27  1  0  0  0  0
  9 27  2  0  0  0  0
 10 28  1  0  0  0  0
 11 12  2  0  0  0  0
 11 29  1  0  0  0  0
 12 30  1  0  0  0  0
 13 22  1  0  0  0  0
 13 28  2  0  0  0  0
 14 23  1  0  0  0  0
 14 25  2  0  0  0  0
 15 24  2  0  0  0  0
 15 26  1  0  0  0  0
 16 30  2  0  0  0  0
 16 31  1  0  0  0  0
 17 32  1  0  0  0  0
 18 32  1  0  0  0  0
 18 33  2  0  0  0  0
 18 36  1  0  0  0  0
 19 21  2  0  0  0  0
 19 41  1  0  0  0  0
 20 22  2  0  0  0  0
 20 42  1  0  0  0  0
 21 54  1  0  0  0  0
 22 43  1  0  0  0  0
 23 26  2  0  0  0  0
 23 58  1  0  0  0  0
 24 25  1  0  0  0  0
 24 59  1  0  0  0  0
 25 65  1  0  0  0  0
 26 66  1  0  0  0  0
 27 86  1  0  0  0  0
 28 87  1  0  0  0  0
 29 31  2  0  0  0  0
 29 86  1  0  0  0  0
 30 88  1  0  0  0  0
 31 89  1  0  0  0  0
 32 70  2  0  0  0  0
 33 71  1  0  0  0  0
 33 74  1  0  0  0  0
 34 35  2  0  0  0  0
 34 55  1  0  0  0  0
 34 79  1  0  0  0  0
 36 75  1  0  0  0  0
 36 81  2  0  0  0  0
 37 56  1  0  0  0  0
 37 76  1  0  0  0  0
 37 82  2  0  0  0  0
 38 67  1  0  0  0  0
 38 72  1  0  0  0  0
 38 83  2  0  0  0  0
 39 68  1  0  0  0  0
 39 77  1  0  0  0  0
 39 84  2  0  0  0  0
 40 73  1  0  0  0  0
 40 78  1  0  0  0  0
 40 85  2  0  0  0  0
 41 44  1  0  0  0  0
 42 56  1  0  0  0  0
 43 72  1  0  0  0  0
 44 48  1  0  0  0  0
 45 47  1  0  0  0  0
 45 49  1  0  0  0  0
 46 50  1  0  0  0  0
 46 51  1  0  0  0  0
 47 53  1  0  0  0  0
 48 54  1  0  0  0  0
 49 55  1  0  0  0  0
 50 57  1  0  0  0  0
 51 73  1  0  0  0  0
 52 57  1  0  0  0  0
 52 73  1  0  0  0  0
 53 79  1  0  0  0  0
 54 76  1  0  0  0  0
 55 87  1  0  0  0  0
 56 72  1  0  0  0  0
 57 71  1  0  0  0  0
 60 68  1  0  0  0  0
 61 69  1  0  0  0  0
 62 69  1  0  0  0  0
 63 69  1  0  0  0  0
 64 80  1  0  0  0  0
 65 78  1  0  0  0  0
 66 79  1  0  0  0  0
 67 69  1  0  0  0  0
 67 77  1  0  0  0  0
 68 80  1  0  0  0  0
 70 71  1  0  0  0  0
M  CHG  2  79   1  80   1
M  ISO  4  40 100  55 101  78 100  87 101
M  END
> <Batch ID>
0037

> <Smiles>
C=C1N(Cc2cc(C)c(C[100NH:0][100C:0](=O)N3CCCC(n4nc(-c5ccc(Oc6ccc(F)cc6F)cc5)c(C(N)=O)c4N)C3)cc2C)CCCC[101CH:1]1[101O:1]c1ccc2c(c1)CN(C(=O)C(NC(=O)C(C)NC)C(C)(C)C)C(C(=O)NC1CCCc3ccccc31)C2

> <Shape>
0.271

> <Color>
0.176

> <Negative vol penalty>
0.000

$$$$

  -OEChem-04042321573D

 83 91  0     1  0  0  0  0  0999 V2000
  -27.3630  -22.8303   18.9214 C   0  0  0  0  0  0  0  0  0  0  0  0
  -26.1738  -23.3812   19.3880 C   0  0  0  0  0  0  0  0  0  0  0  0
  -26.1684  -14.6908   20.8950 C   0  0  0  0  0  0  0  0  0  0  0  0
  -24.0202  -14.3683   19.8376 C   0  0  0  0  0  0  0  0  0  0  0  0
  -28.5805  -23.2458   19.4589 C   0  0  0  0  0  0  0  0  0  0  0  0
  -26.2014  -24.3472   20.3933 C   0  0  0  0  0  0  0  0  0  0  0  0
  -23.1247  -28.2504   19.4216 C   0  0  0  0  0  0  0  0  0  0  0  0
  -17.6640  -23.6320   20.0231 C   0  0  0  0  0  0  0  0  0  0  0  0
  -17.9385  -22.3824   19.4677 C   0  0  0  0  0  0  0  0  0  0  0  0
  -26.3649  -13.3101   20.9171 C   0  0  0  0  0  0  0  0  0  0  0  0
  -24.2167  -12.9875   19.8596 C   0  0  0  0  0  0  0  0  0  0  0  0
  -21.7628  -28.0603   19.6517 C   0  0  0  0  0  0  0  0  0  0  0  0
  -23.9929   -9.3613   19.9633 C   0  0  0  0  0  0  0  0  0  0  0  0
  -22.9269   -8.5613   20.3745 C   0  0  0  0  0  0  0  0  0  0  0  0
  -21.9628  -29.2201   21.7574 C   0  0  0  0  0  0  0  0  0  0  0  0
  -17.7863  -22.6745   22.2379 C   0  0  0  0  0  0  0  0  0  0  0  0
  -22.9205   -9.6724   22.5199 C   0  0  0  0  0  0  0  0  0  0  0  0
  -24.9960  -15.2199   20.3553 C   0  0  0  0  0  0  0  0  0  0  0  0
  -25.1606  -17.5415   19.3108 C   0  0  0  0  0  0  0  0  0  0  0  0
  -28.6236  -24.2244   20.4644 C   0  0  0  0  0  0  0  0  0  0  0  0
  -23.9194  -28.9184   20.3643 C   0  0  0  0  0  0  0  0  0  0  0  0
  -27.4205  -24.7753   20.9456 C   0  0  0  0  0  0  0  0  0  0  0  0
  -23.3340  -29.4197   21.5357 C   0  0  0  0  0  0  0  0  0  0  0  0
  -17.5880  -23.7781   21.4083 C   0  0  0  0  0  0  0  0  0  0  0  0
  -18.1368  -21.2787   20.2973 C   0  0  0  0  0  0  0  0  0  0  0  0
  -18.0607  -21.4248   21.6824 C   0  0  0  0  0  0  0  0  0  0  0  0
  -25.3891  -12.4584   20.3993 C   0  0  0  0  0  0  0  0  0  0  0  0
  -21.1822  -28.5426   20.8210 C   0  0  0  0  0  0  0  0  0  0  0  0
  -24.5228  -10.3169   20.8304 C   0  0  0  0  0  0  0  0  0  0  0  0
  -22.3907   -8.7168   21.6528 C   0  0  0  0  0  0  0  0  0  0  0  0
  -23.9865  -10.4725   22.1087 C   0  0  0  0  0  0  0  0  0  0  0  0
  -24.7922  -16.6461   20.3328 C   0  0  0  0  0  0  0  0  0  0  0  0
  -24.7507  -18.7705   19.7668 C   0  0  0  0  0  0  0  0  0  0  0  0
  -25.8148  -17.2851   18.0610 C   0  0  0  0  0  0  0  0  0  0  0  0
  -26.4296  -28.1263   22.1462 C   0  0  0  0  0  0  0  0  0  0  0  0
  -26.3752  -31.2737   22.9294 C   0  0  0  0  0  0  0  0  0  0  0  0
  -24.5744  -34.1593   23.2077 C   0  0  0  0  0  0  0  0  0  0  0  0
  -20.5101  -20.4781   23.6337 C   0  0  0  0  0  0  0  0  0  0  0  0
  -29.9607  -24.6074   21.0478 C   0  0  0  0  0  0  0  0  0  0  0  0
  -25.3816  -29.1388   20.0889 C   0  0  0  0  0  0  0  0  0  0  0  0
  -24.1393  -30.1614   22.5700 C   0  0  0  0  0  0  0  0  0  0  0  0
  -29.9265  -25.9073   21.8474 C   0  0  0  0  0  0  0  0  0  0  0  0
  -23.9919  -21.1986   23.8189 C   0  0  0  0  0  0  0  0  0  0  0  0
  -28.7307  -25.9202   22.7944 C   0  0  0  0  0  0  0  0  0  0  0  0
  -24.6251  -20.1943   22.8543 C   0  0  0  0  0  0  0  0  0  0  0  0
  -22.8034  -20.5940   24.5631 C   0  0  0  0  0  0  0  0  0  0  0  0
  -22.4022  -18.9933   22.7327 C   0  0  0  0  0  0  0  0  0  0  0  0
  -27.4109  -25.8435   22.0175 C   0  0  1  0  0  0  0  0  0  0  0  0
  -26.1979  -29.3822   21.3545 C   0  0  1  0  0  0  0  0  0  0  0  0
  -23.5703  -19.5746   21.9180 C   0  0  2  0  0  0  0  0  0  0  0  0
  -18.4282  -19.9505   19.6796 C   0  0  0  0  0  0  0  0  0  0  0  0
  -24.7936  -36.5579   23.9117 C   0  0  0  0  0  0  0  0  0  0  0  0
  -26.3303  -30.4159   25.8572 C   0  0  0  0  0  0  0  0  0  0  0  0
  -25.6005  -32.7355   26.4533 C   0  0  0  0  0  0  0  0  0  0  0  0
  -27.8145  -32.3675   25.3646 C   0  0  0  0  0  0  0  0  0  0  0  0
  -23.8661  -35.1379   20.5060 C   0  0  0  0  0  0  0  0  0  0  0  0
  -18.2691  -20.2573   22.5904 C   0  0  0  0  0  0  0  0  0  0  0  0
  -17.2923  -25.1223   22.0055 C   0  0  0  0  0  0  0  0  0  0  0  0
  -18.1744  -27.4093   22.4851 C   0  0  0  0  0  0  0  0  0  0  0  0
  -19.4365  -28.2456   22.4086 C   0  0  0  0  0  0  0  0  0  1  0  0
  -25.7027  -32.0972   24.0011 C   0  0  1  0  0  0  0  0  0  0  0  0
  -24.8672  -35.5773   22.7517 C   0  0  2  0  0  0  0  0  0  0  0  0
  -26.3469  -31.8884   25.4006 C   0  0  0  0  0  0  0  0  0  0  0  0
  -24.1944  -17.2546   21.3606 N   0  0  0  0  0  0  0  0  0  0  0  0
  -24.1841  -18.5454   20.9868 N   0  0  0  0  0  0  0  0  0  0  0  0
  -25.5662  -30.3460   22.2579 N   0  0  0  0  0  0  0  0  0  0  0  0
  -21.8396  -20.0251   23.6180 N   0  0  0  0  0  0  0  0  0  0  0  0
  -24.8234  -20.0110   19.2393 N   0  0  0  0  0  0  0  0  0  0  0  0
  -26.1671  -15.9648   17.7498 N   0  0  0  0  0  0  0  0  0  0  0  0
  -27.0855  -27.1323   21.4453 N   0  0  0  0  0  0  0  0  0  0  0  0
  -25.7288  -33.4782   23.5313 N   0  0  0  0  0  0  0  0  0  0  0  0
  -19.6636  -19.8913   22.7010 N   0  0  0  0  0  0  0  0  0  0  0  0
  -23.8844  -36.0013   21.7148 N   0  3  0  0  0  0  0  0  0  0  0  0
  -18.4539  -26.0508   21.9556 N   0  3  0  0  0  0  0  0  0  0  0  0
  -26.0939  -18.2020   17.2518 O   0  0  0  0  0  0  0  0  0  0  0  0
  -26.0433  -28.0642   23.3075 O   0  0  0  0  0  0  0  0  0  0  0  0
  -27.5724  -31.4521   22.6917 O   0  0  0  0  0  0  0  0  0  0  0  0
  -23.4352  -33.7027   23.2740 O   0  0  0  0  0  0  0  0  0  0  0  0
  -20.1086  -21.3454   24.4170 O   0  0  0  0  0  0  0  0  0  0  0  0
  -25.5806  -11.1110   20.4204 O   0  0  0  0  0  0  0  0  0  0  0  0
  -19.8533  -28.3579   21.0484 O   0  0  0  0  0  0  0  0  0  1  0  0
  -21.3660   -7.9495   22.0470 F   0  0  0  0  0  0  0  0  0  0  0  0
  -24.4906  -11.3896   22.9457 F   0  0  0  0  0  0  0  0  0  0  0  0
  1  2  1  0  0  0  0
  1  5  2  0  0  0  0
  2  6  2  0  0  0  0
  3 10  2  0  0  0  0
  3 18  1  0  0  0  0
  4 11  1  0  0  0  0
  4 18  2  0  0  0  0
  5 20  1  0  0  0  0
  6 22  1  0  0  0  0
  7 12  2  0  0  0  0
  7 21  1  0  0  0  0
  8  9  2  0  0  0  0
  8 24  1  0  0  0  0
  9 25  1  0  0  0  0
 10 27  1  0  0  0  0
 11 27  2  0  0  0  0
 12 28  1  0  0  0  0
 13 14  2  0  0  0  0
 13 29  1  0  0  0  0
 14 30  1  0  0  0  0
 15 23  1  0  0  0  0
 15 28  2  0  0  0  0
 16 24  2  0  0  0  0
 16 26  1  0  0  0  0
 17 30  2  0  0  0  0
 17 31  1  0  0  0  0
 18 32  1  0  0  0  0
 19 32  1  0  0  0  0
 19 33  2  0  0  0  0
 19 34  1  0  0  0  0
 20 22  2  0  0  0  0
 20 39  1  0  0  0  0
 21 23  2  0  0  0  0
 21 40  1  0  0  0  0
 22 48  1  0  0  0  0
 23 41  1  0  0  0  0
 24 58  1  0  0  0  0
 25 26  2  0  0  0  0
 25 51  1  0  0  0  0
 26 57  1  0  0  0  0
 27 80  1  0  0  0  0
 28 81  1  0  0  0  0
 29 31  2  0  0  0  0
 29 80  1  0  0  0  0
 30 82  1  0  0  0  0
 31 83  1  0  0  0  0
 32 64  2  0  0  0  0
 33 65  1  0  0  0  0
 33 68  1  0  0  0  0
 34 69  1  0  0  0  0
 34 75  2  0  0  0  0
 35 49  1  0  0  0  0
 35 70  1  0  0  0  0
 35 76  2  0  0  0  0
 36 61  1  0  0  0  0
 36 66  1  0  0  0  0
 36 77  2  0  0  0  0
 37 62  1  0  0  0  0
 37 71  1  0  0  0  0
 37 78  2  0  0  0  0
 38 67  1  0  0  0  0
 38 72  1  0  0  0  0
 38 79  2  0  0  0  0
 39 42  1  0  0  0  0
 40 49  1  0  0  0  0
 41 66  1  0  0  0  0
 42 44  1  0  0  0  0
 43 45  1  0  0  0  0
 43 46  1  0  0  0  0
 44 48  1  0  0  0  0
 45 50  1  0  0  0  0
 46 67  1  0  0  0  0
 47 50  1  0  0  0  0
 47 67  1  0  0  0  0
 48 70  1  0  0  0  0
 49 66  1  0  0  0  0
 50 65  1  0  0  0  0
 52 62  1  0  0  0  0
 53 63  1  0  0  0  0
 54 63  1  0  0  0  0
 55 63  1  0  0  0  0
 56 73  1  0  0  0  0
 57 72  1  0  0  0  0
 58 74  1  0  0  0  0
 59 60  1  0  0  0  0
 59 74  1  0  0  0  0
 60 81  1  0  0  0  0
 61 63  1  0  0  0  0
 61 71  1  0  0  0  0
 62 73  1  0  0  0  0
 64 65  1  0  0  0  0
M  CHG  2  73   1  74   1
M  ISO  4  38 100  60 101  72 100  81 101
M  END
> <Batch ID>
0037

> <Smiles>
CNC(C)C(=O)NC(C(=O)N1Cc2cc([101O:1][101CH2:1]CNCc3ccc(C)c(C[100NH:0][100C:0](=O)N4CCCC(n5nc(-c6ccc(Oc7ccc(F)cc7F)cc6)c(C(N)=O)c5N)C4)c3)ccc2CC1C(=O)NC1CCCc2ccccc21)C(C)(C)C

> <Shape>
0.237

> <Color>
0.070

> <Negative vol penalty>
0.000

$$$$

  -OEChem-04042321573D

 87 96  0     1  0  0  0  0  0999 V2000
  -23.9786  -29.2526   25.2122 C   0  0  0  0  0  0  0  0  0  0  0  0
  -24.7551  -28.1034   25.1046 C   0  0  0  0  0  0  0  0  0  0  0  0
  -22.7719  -10.2119   20.3397 C   0  0  0  0  0  0  0  0  0  0  0  0
  -24.0725   -9.8735   22.3474 C   0  0  0  0  0  0  0  0  0  0  0  0
  -30.6704  -16.8115   24.9577 C   0  0  0  0  0  0  0  0  0  0  0  0
  -23.7729  -30.0608   24.0949 C   0  0  0  0  0  0  0  0  0  0  0  0
  -25.3257  -27.7611   23.8791 C   0  0  0  0  0  0  0  0  0  0  0  0
  -30.1627  -26.3281   24.3207 C   0  0  0  0  0  0  0  0  0  0  0  0
  -30.6173  -15.4306   24.7677 C   0  0  0  0  0  0  0  0  0  0  0  0
  -21.9870   -9.1047   20.6614 C   0  0  0  0  0  0  0  0  0  0  0  0
  -23.2876   -8.7662   22.6692 C   0  0  0  0  0  0  0  0  0  0  0  0
  -30.4041  -25.0361   24.7858 C   0  0  0  0  0  0  0  0  0  0  0  0
  -20.2407   -8.1795   24.0079 C   0  0  0  0  0  0  0  0  0  0  0  0
  -19.7983   -8.0615   25.3254 C   0  0  0  0  0  0  0  0  0  0  0  0
  -30.7776  -24.2968   22.5202 C   0  0  0  0  0  0  0  0  0  0  0  0
  -32.7717  -15.4980   23.6763 C   0  0  0  0  0  0  0  0  0  0  0  0
  -20.9548   -5.9496   25.5246 C   0  0  0  0  0  0  0  0  0  0  0  0
  -23.8147  -10.5963   21.1826 C   0  0  0  0  0  0  0  0  0  0  0  0
  -31.7741  -17.5356   24.5069 C   0  0  0  0  0  0  0  0  0  0  0  0
  -24.1936  -13.0684   20.6798 C   0  0  0  0  0  0  0  0  0  0  0  0
  -24.3492  -29.7334   22.8574 C   0  0  0  0  0  0  0  0  0  0  0  0
  -30.2163  -26.6122   22.9486 C   0  0  0  0  0  0  0  0  0  0  0  0
  -25.1264  -28.5649   22.7438 C   0  0  0  0  0  0  0  0  0  0  0  0
  -30.5390  -25.5938   22.0405 C   0  0  0  0  0  0  0  0  0  0  0  0
  -31.6679  -14.7739   24.1271 C   0  0  0  0  0  0  0  0  0  0  0  0
  -32.8247  -16.8788   23.8663 C   0  0  0  0  0  0  0  0  0  0  0  0
  -22.2449   -8.3818   21.8262 C   0  0  0  0  0  0  0  0  0  0  0  0
  -30.7087  -24.0196   23.8853 C   0  0  0  0  0  0  0  0  0  0  0  0
  -21.0400   -7.1825   23.4486 C   0  0  0  0  0  0  0  0  0  0  0  0
  -20.1554   -6.9466   26.0838 C   0  0  0  0  0  0  0  0  0  0  0  0
  -21.3971   -6.0676   24.2070 C   0  0  0  0  0  0  0  0  0  0  0  0
  -24.6262  -11.7397   20.8504 C   0  0  0  0  0  0  0  0  0  0  0  0
  -25.3373  -13.7655   20.3758 C   0  0  0  0  0  0  0  0  0  0  0  0
  -32.3418  -19.4820   25.8562 C   0  0  0  0  0  0  0  0  0  0  0  0
  -31.8000  -19.0002   24.7236 C   0  0  0  0  0  0  0  0  0  0  0  0
  -22.8757  -13.6230   20.7865 C   0  0  0  0  0  0  0  0  0  0  0  0
  -28.1293  -27.6578   20.7911 C   0  0  0  0  0  0  0  0  0  0  0  0
  -30.7402  -27.7194   18.8672 C   0  0  0  0  0  0  0  0  0  0  0  0
  -33.6024  -25.6129   18.2442 C   0  0  0  0  0  0  0  0  0  0  0  0
  -31.1308  -12.8021   21.5416 C   0  0  0  0  0  0  0  0  0  0  0  0
  -24.0597  -30.6125   21.6665 C   0  0  0  0  0  0  0  0  0  0  0  0
  -29.9797  -28.0168   22.4653 C   0  0  0  0  0  0  0  0  0  0  0  0
  -30.6290  -25.8512   20.5592 C   0  0  0  0  0  0  0  0  0  0  0  0
  -32.4147  -20.9219   26.2509 C   0  0  0  0  0  0  0  0  0  0  0  0
  -31.1557  -19.8628   23.6681 C   0  0  0  0  0  0  0  0  0  0  0  0
  -25.0081  -30.3802   20.4931 C   0  0  0  0  0  0  0  0  0  0  0  0
  -32.0517  -20.9837   23.1306 C   0  0  0  0  0  0  0  0  0  0  0  0
  -29.6307  -13.2107   18.3385 C   0  0  0  0  0  0  0  0  0  0  0  0
  -25.1710  -28.8872   20.2259 C   0  0  0  0  0  0  0  0  0  0  0  0
  -28.1389  -12.9999   18.6037 C   0  0  0  0  0  0  0  0  0  0  0  0
  -30.4927  -12.2930   19.2027 C   0  0  0  0  0  0  0  0  0  0  0  0
  -28.7254  -12.1556   20.9149 C   0  0  0  0  0  0  0  0  0  0  0  0
  -25.7825  -28.1734   21.4375 C   0  0  1  0  0  0  0  0  0  0  0  0
  -29.5554  -28.0815   21.0013 C   0  0  1  0  0  0  0  0  0  0  0  0
  -27.8172  -13.0984   20.1071 C   0  0  2  0  0  0  0  0  0  0  0  0
  -32.2233  -22.1949   24.0529 C   0  0  2  0  0  0  0  0  0  1  0  0
  -34.0229  -17.6225   23.3698 C   0  0  0  0  0  0  0  0  0  0  0  0
  -35.8981  -26.1852   17.4077 C   0  0  0  0  0  0  0  0  0  0  0  0
  -29.5985  -27.0244   16.1243 C   0  0  0  0  0  0  0  0  0  0  0  0
  -31.7963  -25.9695   15.5540 C   0  0  0  0  0  0  0  0  0  0  0  0
  -31.6811  -28.4079   16.0674 C   0  0  0  0  0  0  0  0  0  0  0  0
  -33.6257  -23.0761   25.9247 C   0  0  0  0  0  0  0  0  0  0  0  0
  -34.8971  -24.3522   20.5880 C   0  0  0  0  0  0  0  0  0  0  0  0
  -31.6124  -13.2974   23.9252 C   0  0  0  0  0  0  0  0  0  0  0  0
  -31.4095  -26.7326   17.9413 C   0  0  1  0  0  0  0  0  0  0  0  0
  -35.0422  -25.8982   18.6316 C   0  0  2  0  0  0  0  0  0  0  0  0
  -31.1066  -27.0250   16.4446 C   0  0  0  0  0  0  0  0  0  0  0  0
  -25.9420  -11.5986   20.6697 N   0  0  0  0  0  0  0  0  0  0  0  0
  -26.3461  -12.8476   20.3823 N   0  0  0  0  0  0  0  0  0  0  0  0
  -30.3831  -27.2395   20.1353 N   0  0  0  0  0  0  0  0  0  0  0  0
  -30.1387  -12.4358   20.6170 N   0  0  0  0  0  0  0  0  0  0  0  0
  -25.5685  -15.0679   20.1062 N   0  0  0  0  0  0  0  0  0  0  0  0
  -21.8140  -12.7658   21.1065 N   0  0  0  0  0  0  0  0  0  0  0  0
  -27.2091  -28.4097   21.4964 N   0  0  0  0  0  0  0  0  0  0  0  0
  -32.8286  -26.7536   18.2790 N   0  0  0  0  0  0  0  0  0  0  0  0
  -30.7094  -12.9216   22.8603 N   0  0  0  0  0  0  0  0  0  0  0  0
  -33.0894  -21.8359   25.2497 N   0  3  1  0  0  0  0  0  0  0  0  0
  -35.6263  -24.7306   19.3502 N   0  3  0  0  0  0  0  0  0  0  0  0
  -22.6439  -14.8396   20.5875 O   0  0  0  0  0  0  0  0  0  0  0  0
  -27.8818  -26.7191   20.0432 O   0  0  0  0  0  0  0  0  0  0  0  0
  -30.5481  -28.8754   18.4822 O   0  0  0  0  0  0  0  0  0  0  0  0
  -33.2049  -24.4911   17.9376 O   0  0  0  0  0  0  0  0  0  0  0  0
  -32.3038  -13.0126   21.2151 O   0  0  0  0  0  0  0  0  0  0  0  0
  -21.4790   -7.3015   22.1406 O   0  0  0  0  0  0  0  0  0  0  0  0
  -30.9442  -22.7575   24.3365 O   0  0  0  0  0  0  0  0  0  1  0  0
  -19.7318   -6.8342   27.3496 F   0  0  0  0  0  0  0  0  0  0  0  0
  -22.1658   -5.1071   23.6756 F   0  0  0  0  0  0  0  0  0  0  0  0
  1  2  1  0  0  0  0
  1  6  2  0  0  0  0
  2  7  2  0  0  0  0
  3 10  2  0  0  0  0
  3 18  1  0  0  0  0
  4 11  1  0  0  0  0
  4 18  2  0  0  0  0
  5  9  2  0  0  0  0
  5 19  1  0  0  0  0
  6 21  1  0  0  0  0
  7 23  1  0  0  0  0
  8 12  2  0  0  0  0
  8 22  1  0  0  0  0
  9 25  1  0  0  0  0
 10 27  1  0  0  0  0
 11 27  2  0  0  0  0
 12 28  1  0  0  0  0
 13 14  2  0  0  0  0
 13 29  1  0  0  0  0
 14 30  1  0  0  0  0
 15 24  1  0  0  0  0
 15 28  2  0  0  0  0
 16 25  2  0  0  0  0
 16 26  1  0  0  0  0
 17 30  2  0  0  0  0
 17 31  1  0  0  0  0
 18 32  1  0  0  0  0
 19 26  2  0  0  0  0
 19 35  1  0  0  0  0
 20 32  1  0  0  0  0
 20 33  2  0  0  0  0
 20 36  1  0  0  0  0
 21 23  2  0  0  0  0
 21 41  1  0  0  0  0
 22 24  2  0  0  0  0
 22 42  1  0  0  0  0
 23 53  1  0  0  0  0
 24 43  1  0  0  0  0
 25 64  1  0  0  0  0
 26 57  1  0  0  0  0
 27 84  1  0  0  0  0
 28 85  1  0  0  0  0
 29 31  2  0  0  0  0
 29 84  1  0  0  0  0
 30 86  1  0  0  0  0
 31 87  1  0  0  0  0
 32 68  2  0  0  0  0
 33 69  1  0  0  0  0
 33 72  1  0  0  0  0
 34 35  2  0  0  0  0
 34 44  1  0  0  0  0
 35 45  1  0  0  0  0
 36 73  1  0  0  0  0
 36 79  2  0  0  0  0
 37 54  1  0  0  0  0
 37 74  1  0  0  0  0
 37 80  2  0  0  0  0
 38 65  1  0  0  0  0
 38 70  1  0  0  0  0
 38 81  2  0  0  0  0
 39 66  1  0  0  0  0
 39 75  1  0  0  0  0
 39 82  2  0  0  0  0
 40 71  1  0  0  0  0
 40 76  1  0  0  0  0
 40 83  2  0  0  0  0
 41 46  1  0  0  0  0
 42 54  1  0  0  0  0
 43 70  1  0  0  0  0
 44 77  1  0  0  0  0
 45 47  1  0  0  0  0
 46 49  1  0  0  0  0
 47 56  1  0  0  0  0
 48 50  1  0  0  0  0
 48 51  1  0  0  0  0
 49 53  1  0  0  0  0
 50 55  1  0  0  0  0
 51 71  1  0  0  0  0
 52 55  1  0  0  0  0
 52 71  1  0  0  0  0
 53 74  1  0  0  0  0
 54 70  1  0  0  0  0
 55 69  1  0  0  0  0
 56 77  1  0  0  0  0
 56 85  1  0  0  0  0
 58 66  1  0  0  0  0
 59 67  1  0  0  0  0
 60 67  1  0  0  0  0
 61 67  1  0  0  0  0
 62 77  1  0  0  0  0
 63 78  1  0  0  0  0
 64 76  1  0  0  0  0
 65 67  1  0  0  0  0
 65 75  1  0  0  0  0
 66 78  1  0  0  0  0
 68 69  1  0  0  0  0
M  CHG  2  77   1  78   1
M  ISO  4  40 100  56 101  76 100  85 101
M  END
> <Batch ID>
0037

> <Smiles>
CNC(C)C(=O)NC(C(=O)N1Cc2cc([101O:1][101CH:1]3CCC(c4ccc(C[100NH:0][100C:0](=O)N5CCCC(n6nc(-c7ccc(Oc8ccc(F)cc8F)cc7)c(C(N)=O)c6N)C5)cc4C)=CCN3C)ccc2CC1C(=O)NC1CCCc2ccccc21)C(C)(C)C

> <Shape>
0.231

> <Color>
0.176

> <Negative vol penalty>
0.000

$$$$

  -OEChem-04042321573D

 83 91  0     1  0  0  0  0  0999 V2000
  -36.7431  -20.5886   18.7201 C   0  0  0  0  0  0  0  0  0  0  0  0
  -35.6215  -20.7866   19.5190 C   0  0  0  0  0  0  0  0  0  0  0  0
  -32.6695  -17.4208   23.4350 C   0  0  0  0  0  0  0  0  0  0  0  0
  -23.0001   -9.8942   19.9813 C   0  0  0  0  0  0  0  0  0  0  0  0
  -23.7252   -9.9453   22.2854 C   0  0  0  0  0  0  0  0  0  0  0  0
  -38.0103  -20.5396   19.2996 C   0  0  0  0  0  0  0  0  0  0  0  0
  -35.7663  -20.9347   20.8979 C   0  0  0  0  0  0  0  0  0  0  0  0
  -32.9796  -24.7375   22.7467 C   0  0  0  0  0  0  0  0  0  0  0  0
  -31.8936  -18.3271   24.1576 C   0  0  0  0  0  0  0  0  0  0  0  0
  -32.0604  -16.5326   22.5486 C   0  0  0  0  0  0  0  0  0  0  0  0
  -22.2333   -8.7599   20.2478 C   0  0  0  0  0  0  0  0  0  0  0  0
  -22.9583   -8.8110   22.5519 C   0  0  0  0  0  0  0  0  0  0  0  0
  -31.6169  -24.5013   22.9225 C   0  0  0  0  0  0  0  0  0  0  0  0
  -23.2018   -5.4720   22.0804 C   0  0  0  0  0  0  0  0  0  0  0  0
  -23.7891   -4.4547   22.8327 C   0  0  0  0  0  0  0  0  0  0  0  0
  -31.9921  -24.1231   25.2752 C   0  0  0  0  0  0  0  0  0  0  0  0
  -22.0652   -4.6983   24.5078 C   0  0  0  0  0  0  0  0  0  0  0  0
  -23.7461  -10.4869   21.0001 C   0  0  0  0  0  0  0  0  0  0  0  0
  -24.1321  -13.0023   20.8238 C   0  0  0  0  0  0  0  0  0  0  0  0
  -38.1717  -20.6969   20.6852 C   0  0  0  0  0  0  0  0  0  0  0  0
  -33.8619  -24.6574   23.8337 C   0  0  0  0  0  0  0  0  0  0  0  0
  -37.0367  -20.8865   21.4966 C   0  0  0  0  0  0  0  0  0  0  0  0
  -33.3652  -24.3612   25.1111 C   0  0  0  0  0  0  0  0  0  0  0  0
  -30.5085  -18.3451   23.9940 C   0  0  0  0  0  0  0  0  0  0  0  0
  -29.8993  -17.4568   23.1076 C   0  0  0  0  0  0  0  0  0  0  0  0
  -30.6753  -16.5506   22.3849 C   0  0  0  0  0  0  0  0  0  0  0  0
  -22.2124   -8.2184   21.5331 C   0  0  0  0  0  0  0  0  0  0  0  0
  -31.1233  -24.1912   24.1864 C   0  0  0  0  0  0  0  0  0  0  0  0
  -22.0463   -6.1025   22.5419 C   0  0  0  0  0  0  0  0  0  0  0  0
  -23.2208   -4.0679   24.0464 C   0  0  0  0  0  0  0  0  0  0  0  0
  -21.4780   -5.7156   23.7555 C   0  0  0  0  0  0  0  0  0  0  0  0
  -24.5389  -11.6582   20.7254 C   0  0  0  0  0  0  0  0  0  0  0  0
  -25.2420  -13.7246   20.4593 C   0  0  0  0  0  0  0  0  0  0  0  0
  -22.8642  -13.5491   21.2102 C   0  0  0  0  0  0  0  0  0  0  0  0
  -36.3676  -22.8414   24.5598 C   0  0  0  0  0  0  0  0  0  0  0  0
  -36.5984  -24.8528   27.0943 C   0  0  0  0  0  0  0  0  0  0  0  0
  -35.0491  -27.0360   29.2108 C   0  0  0  0  0  0  0  0  0  0  0  0
  -30.7217  -14.6843   20.6934 C   0  0  0  0  0  0  0  0  0  0  0  0
  -39.5570  -20.5893   21.2715 C   0  0  0  0  0  0  0  0  0  0  0  0
  -35.3253  -24.9412   23.6324 C   0  0  0  0  0  0  0  0  0  0  0  0
  -34.2677  -24.2830   26.3144 C   0  0  0  0  0  0  0  0  0  0  0  0
  -39.6594  -21.1294   22.6956 C   0  0  0  0  0  0  0  0  0  0  0  0
  -29.6029  -12.2314   18.3677 C   0  0  0  0  0  0  0  0  0  0  0  0
  -38.5065  -20.6089   23.5481 C   0  0  0  0  0  0  0  0  0  0  0  0
  -28.1522  -11.9742   18.7819 C   0  0  0  0  0  0  0  0  0  0  0  0
  -30.5034  -12.4748   19.5775 C   0  0  0  0  0  0  0  0  0  0  0  0
  -28.5882  -13.2643   20.9109 C   0  0  0  0  0  0  0  0  0  0  0  0
  -37.1554  -21.0761   22.9933 C   0  0  1  0  0  0  0  0  0  0  0  0
  -36.2074  -24.3273   24.7151 C   0  0  1  0  0  0  0  0  0  0  0  0
  -27.6306  -13.0780   19.7227 C   0  0  2  0  0  0  0  0  0  0  0  0
  -28.4128  -17.4799   22.9352 C   0  0  0  0  0  0  0  0  0  0  0  0
  -35.4888  -28.4929   31.2062 C   0  0  0  0  0  0  0  0  0  0  0  0
  -36.5988  -22.3871   28.8916 C   0  0  0  0  0  0  0  0  0  0  0  0
  -36.0827  -23.8856   30.8297 C   0  0  0  0  0  0  0  0  0  0  0  0
  -38.2155  -24.1712   29.5679 C   0  0  0  0  0  0  0  0  0  0  0  0
  -34.3171  -29.4893   27.7262 C   0  0  0  0  0  0  0  0  0  0  0  0
  -29.6976  -19.3300   24.7835 C   0  0  0  0  0  0  0  0  0  0  0  0
  -27.9216  -22.5732   23.7892 C   0  0  0  0  0  0  0  0  0  0  0  0
  -28.3548  -21.4344   24.7002 C   0  0  0  0  0  0  0  0  0  0  0  0
  -29.0806  -23.4061   23.2554 C   0  0  0  0  0  0  0  0  0  1  0  0
  -36.0371  -24.8758   28.4955 C   0  0  1  0  0  0  0  0  0  0  0  0
  -35.4375  -28.4238   29.6878 C   0  0  2  0  0  0  0  0  0  0  0  0
  -36.7165  -23.8294   29.4233 C   0  0  0  0  0  0  0  0  0  0  0  0
  -25.8081  -11.5314   20.3293 N   0  0  0  0  0  0  0  0  0  0  0  0
  -26.2085  -12.8050   20.1755 N   0  0  0  0  0  0  0  0  0  0  0  0
  -35.6915  -24.5624   26.0652 N   0  0  0  0  0  0  0  0  0  0  0  0
  -29.9486  -13.5360   20.4207 N   0  0  0  0  0  0  0  0  0  0  0  0
  -25.4758  -15.0502   20.3571 N   0  0  0  0  0  0  0  0  0  0  0  0
  -21.8322  -12.6653   21.5538 N   0  0  0  0  0  0  0  0  0  0  0  0
  -30.0777  -15.6398   21.4788 N   0  0  0  0  0  0  0  0  0  0  0  0
  -36.9131  -22.4577   23.3496 N   0  0  0  0  0  0  0  0  0  0  0  0
  -36.1564  -26.2534   28.9604 N   0  0  0  0  0  0  0  0  0  0  0  0
  -34.4524  -29.4322   29.2045 N   0  3  0  0  0  0  0  0  0  0  0  0
  -29.2124  -20.4754   23.9650 N   0  3  0  0  0  0  0  0  0  0  0  0
  -22.6478  -14.7845   21.2338 O   0  0  0  0  0  0  0  0  0  0  0  0
  -36.0232  -22.0981   25.4712 O   0  0  0  0  0  0  0  0  0  0  0  0
  -37.7959  -25.0910   26.9186 O   0  0  0  0  0  0  0  0  0  0  0  0
  -33.8802  -26.6803   29.0776 O   0  0  0  0  0  0  0  0  0  0  0  0
  -31.8604  -14.8229   20.2394 O   0  0  0  0  0  0  0  0  0  0  0  0
  -21.4640   -7.1117   21.7935 O   0  0  0  0  0  0  0  0  0  0  0  0
  -29.7937  -23.9596   24.3606 O   0  0  0  0  0  0  0  0  0  1  0  0
  -23.7840   -3.0899   24.7679 F   0  0  0  0  0  0  0  0  0  0  0  0
  -20.3672   -6.3168   24.2035 F   0  0  0  0  0  0  0  0  0  0  0  0
  1  2  1  0  0  0  0
  1  6  2  0  0  0  0
  2  7  2  0  0  0  0
  3  9  2  0  0  0  0
  3 10  1  0  0  0  0
  4 11  2  0  0  0  0
  4 18  1  0  0  0  0
  5 12  1  0  0  0  0
  5 18  2  0  0  0  0
  6 20  1  0  0  0  0
  7 22  1  0  0  0  0
  8 13  2  0  0  0  0
  8 21  1  0  0  0  0
  9 24  1  0  0  0  0
 10 26  2  0  0  0  0
 11 27  1  0  0  0  0
 12 27  2  0  0  0  0
 13 28  1  0  0  0  0
 14 15  2  0  0  0  0
 14 29  1  0  0  0  0
 15 30  1  0  0  0  0
 16 23  1  0  0  0  0
 16 28  2  0  0  0  0
 17 30  2  0  0  0  0
 17 31  1  0  0  0  0
 18 32  1  0  0  0  0
 19 32  1  0  0  0  0
 19 33  2  0  0  0  0
 19 34  1  0  0  0  0
 20 22  2  0  0  0  0
 20 39  1  0  0  0  0
 21 23  2  0  0  0  0
 21 40  1  0  0  0  0
 22 48  1  0  0  0  0
 23 41  1  0  0  0  0
 24 25  2  0  0  0  0
 24 57  1  0  0  0  0
 25 26  1  0  0  0  0
 25 51  1  0  0  0  0
 26 70  1  0  0  0  0
 27 80  1  0  0  0  0
 28 81  1  0  0  0  0
 29 31  2  0  0  0  0
 29 80  1  0  0  0  0
 30 82  1  0  0  0  0
 31 83  1  0  0  0  0
 32 64  2  0  0  0  0
 33 65  1  0  0  0  0
 33 68  1  0  0  0  0
 34 69  1  0  0  0  0
 34 75  2  0  0  0  0
 35 49  1  0  0  0  0
 35 71  1  0  0  0  0
 35 76  2  0  0  0  0
 36 61  1  0  0  0  0
 36 66  1  0  0  0  0
 36 77  2  0  0  0  0
 37 62  1  0  0  0  0
 37 72  1  0  0  0  0
 37 78  2  0  0  0  0
 38 67  1  0  0  0  0
 38 70  1  0  0  0  0
 38 79  2  0  0  0  0
 39 42  1  0  0  0  0
 40 49  1  0  0  0  0
 41 66  1  0  0  0  0
 42 44  1  0  0  0  0
 43 45  1  0  0  0  0
 43 46  1  0  0  0  0
 44 48  1  0  0  0  0
 45 50  1  0  0  0  0
 46 67  1  0  0  0  0
 47 50  1  0  0  0  0
 47 67  1  0  0  0  0
 48 71  1  0  0  0  0
 49 66  1  0  0  0  0
 50 65  1  0  0  0  0
 52 62  1  0  0  0  0
 53 63  1  0  0  0  0
 54 63  1  0  0  0  0
 55 63  1  0  0  0  0
 56 73  1  0  0  0  0
 57 74  1  0  0  0  0
 58 59  1  0  0  0  0
 58 60  1  0  0  0  0
 59 74  1  0  0  0  0
 60 81  1  0  0  0  0
 61 63  1  0  0  0  0
 61 72  1  0  0  0  0
 62 73  1  0  0  0  0
 64 65  1  0  0  0  0
M  CHG  2  73   1  74   1
M  ISO  4  38 100  60 101  70 100  81 101
M  END
> <Batch ID>
0037

> <Smiles>
CNC(C)C(=O)NC(C(=O)N1Cc2cc([101O:1][101CH2:1]CCNCc3cccc([100NH:0][100C:0](=O)N4CCCC(n5nc(-c6ccc(Oc7ccc(F)cc7F)cc6)c(C(N)=O)c5N)C4)c3C)ccc2CC1C(=O)NC1CCCc2ccccc21)C(C)(C)C

> <Shape>
0.175

> <Color>
0.198

> <Negative vol penalty>
0.000

$$$$

  -OEChem-04042321573D

 88 97  0     1  0  0  0  0  0999 V2000
  -19.6382  -33.3918   22.4012 C   0  0  0  0  0  0  0  0  0  0  0  0
  -20.9724  -33.0810   22.1588 C   0  0  0  0  0  0  0  0  0  0  0  0
  -24.0432   -9.9174   21.8409 C   0  0  0  0  0  0  0  0  0  0  0  0
  -24.7806  -11.2673   23.7039 C   0  0  0  0  0  0  0  0  0  0  0  0
  -18.7909  -32.4351   22.9585 C   0  0  0  0  0  0  0  0  0  0  0  0
  -21.4604  -31.8135   22.4747 C   0  0  0  0  0  0  0  0  0  0  0  0
  -25.7310  -28.6492   19.4325 C   0  0  0  0  0  0  0  0  0  0  0  0
  -23.6866   -8.8964   22.7218 C   0  0  0  0  0  0  0  0  0  0  0  0
  -24.4239  -10.2464   24.5849 C   0  0  0  0  0  0  0  0  0  0  0  0
  -27.0973  -28.4727   19.6460 C   0  0  0  0  0  0  0  0  0  0  0  0
  -21.1296   -8.1979   24.8211 C   0  0  0  0  0  0  0  0  0  0  0  0
  -19.8953   -7.5775   24.6287 C   0  0  0  0  0  0  0  0  0  0  0  0
  -26.6437  -26.4023   20.7980 C   0  0  0  0  0  0  0  0  0  0  0  0
  -30.8086  -20.3469   20.3701 C   0  0  0  0  0  0  0  0  0  0  0  0
  -21.0098   -5.4566   24.3176 C   0  0  0  0  0  0  0  0  0  0  0  0
  -24.5903  -11.1028   22.3319 C   0  0  0  0  0  0  0  0  0  0  0  0
  -24.1480  -13.2177   20.9757 C   0  0  0  0  0  0  0  0  0  0  0  0
  -19.2664  -31.1521   23.2725 C   0  0  0  0  0  0  0  0  0  0  0  0
  -24.8083  -27.7075   19.9105 C   0  0  0  0  0  0  0  0  0  0  0  0
  -20.6190  -30.8392   23.0380 C   0  0  0  0  0  0  0  0  0  0  0  0
  -25.2663  -26.5679   20.5870 C   0  0  0  0  0  0  0  0  0  0  0  0
  -29.8621  -21.3409   20.1217 C   0  0  0  0  0  0  0  0  0  0  0  0
  -28.6141  -21.0007   19.5999 C   0  0  0  0  0  0  0  0  0  0  0  0
  -29.2591  -18.6725   19.5748 C   0  0  0  0  0  0  0  0  0  0  0  0
  -23.8769   -9.0609   24.0938 C   0  0  0  0  0  0  0  0  0  0  0  0
  -27.5537  -27.3506   20.3313 C   0  0  0  0  0  0  0  0  0  0  0  0
  -22.3041   -7.4477   24.7617 C   0  0  0  0  0  0  0  0  0  0  0  0
  -19.8354   -6.2068   24.3770 C   0  0  0  0  0  0  0  0  0  0  0  0
  -22.2442   -6.0770   24.5100 C   0  0  0  0  0  0  0  0  0  0  0  0
  -30.5072  -19.0127   20.0966 C   0  0  0  0  0  0  0  0  0  0  0  0
  -28.3126  -19.6665   19.3264 C   0  0  0  0  0  0  0  0  0  0  0  0
  -24.9595  -12.1576   21.4224 C   0  0  0  0  0  0  0  0  0  0  0  0
  -24.9584  -13.9390   20.1334 C   0  0  0  0  0  0  0  0  0  0  0  0
  -31.3031  -24.7330   19.4947 C   0  0  0  0  0  0  0  0  0  0  0  0
  -30.7655  -25.7889   20.1154 C   0  0  0  0  0  0  0  0  0  0  0  0
  -22.7838  -13.5231   21.2938 C   0  0  0  0  0  0  0  0  0  0  0  0
  -22.4016  -27.7785   21.9856 C   0  0  0  0  0  0  0  0  0  0  0  0
  -21.9217  -24.7463   20.9380 C   0  0  0  0  0  0  0  0  0  0  0  0
  -23.0625  -21.4909   19.8804 C   0  0  0  0  0  0  0  0  0  0  0  0
  -29.8496  -16.3106   18.9274 C   0  0  0  0  0  0  0  0  0  0  0  0
  -18.3243  -30.1665   23.9172 C   0  0  0  0  0  0  0  0  0  0  0  0
  -23.3396  -27.8991   19.6486 C   0  0  0  0  0  0  0  0  0  0  0  0
  -24.3183  -25.5173   21.1026 C   0  0  0  0  0  0  0  0  0  0  0  0
  -32.7034  -24.6459   18.9727 C   0  0  0  0  0  0  0  0  0  0  0  0
  -18.8281  -28.7261   23.8762 C   0  0  0  0  0  0  0  0  0  0  0  0
  -32.7786  -23.1919   18.5331 C   0  0  0  0  0  0  0  0  0  0  0  0
  -29.5051  -12.8428   18.1976 C   0  0  0  0  0  0  0  0  0  0  0  0
  -20.2921  -28.6603   24.2996 C   0  0  0  0  0  0  0  0  0  0  0  0
  -28.2251  -12.4426   18.9348 C   0  0  0  0  0  0  0  0  0  0  0  0
  -30.3156  -13.8704   18.9855 C   0  0  0  0  0  0  0  0  0  0  0  0
  -28.2882  -14.6640   20.1382 C   0  0  0  0  0  0  0  0  0  0  0  0
  -31.3465  -22.8329   18.1691 C   0  0  0  0  0  0  0  0  0  0  0  0
  -21.1795  -29.4672   23.3441 C   0  0  1  0  0  0  0  0  0  0  0  0
  -22.4535  -27.1360   20.6283 C   0  0  1  0  0  0  0  0  0  0  0  0
  -27.4060  -13.6792   19.3537 C   0  0  2  0  0  0  0  0  0  0  0  0
  -27.6144  -22.0853   19.3404 C   0  0  0  0  0  0  0  0  0  0  0  0
  -22.4536  -19.2326   18.9711 C   0  0  0  0  0  0  0  0  0  0  0  0
  -22.0080  -23.8579   23.8557 C   0  0  0  0  0  0  0  0  0  0  0  0
  -22.3340  -21.5073   23.0577 C   0  0  0  0  0  0  0  0  0  0  0  0
  -20.2454  -22.7413   22.4770 C   0  0  0  0  0  0  0  0  0  0  0  0
  -23.7822  -22.2797   17.1202 C   0  0  0  0  0  0  0  0  0  0  0  0
  -30.2138  -22.7676   20.4243 C   0  0  0  0  0  0  0  0  0  0  0  0
  -29.3616  -25.8327   20.6208 C   0  0  0  0  0  0  0  0  0  1  0  0
  -22.4169  -23.3814   21.3513 C   0  0  1  0  0  0  0  0  0  0  0  0
  -22.5940  -20.7151   18.6626 C   0  0  2  0  0  0  0  0  0  0  0  0
  -21.7691  -22.8926   22.6775 C   0  0  0  0  0  0  0  0  0  0  0  0
  -26.1908  -12.1980   20.9064 N   0  0  0  0  0  0  0  0  0  0  0  0
  -26.1591  -13.2921   20.1267 N   0  0  0  0  0  0  0  0  0  0  0  0
  -22.8913  -25.7529   20.8272 N   0  0  0  0  0  0  0  0  0  0  0  0
  -29.4759  -15.0155   19.3441 N   0  0  0  0  0  0  0  0  0  0  0  0
  -24.7538  -15.0571   19.4051 N   0  0  0  0  0  0  0  0  0  0  0  0
  -22.0982  -12.6777   22.1768 N   0  0  0  0  0  0  0  0  0  0  0  0
  -28.9574  -17.3158   19.2991 N   0  0  0  0  0  0  0  0  0  0  0  0
  -21.4073  -28.7285   22.1207 N   0  0  0  0  0  0  0  0  0  0  0  0
  -22.1837  -22.5003   20.2121 N   0  0  0  0  0  0  0  0  0  0  0  0
  -30.5055  -23.5761   19.1922 N   0  3  1  0  0  0  0  0  0  0  0  0
  -23.5652  -20.8723   17.5432 N   0  3  0  0  0  0  0  0  0  0  0  0
  -22.1852  -14.5070   20.7966 O   0  0  0  0  0  0  0  0  0  0  0  0
  -23.2033  -27.4366   22.8470 O   0  0  0  0  0  0  0  0  0  0  0  0
  -20.7198  -24.9114   20.7144 O   0  0  0  0  0  0  0  0  0  0  0  0
  -24.1021  -21.2254   20.4799 O   0  0  0  0  0  0  0  0  0  0  0  0
  -30.8709  -16.5096   18.2645 O   0  0  0  0  0  0  0  0  0  0  0  0
  -23.5287   -8.0650   24.9537 O   0  0  0  0  0  0  0  0  0  0  0  0
  -28.8868  -27.1761   20.5417 O   0  0  0  0  0  0  0  0  0  1  0  0
  -18.6498   -5.6108   24.1937 F   0  0  0  0  0  0  0  0  0  0  0  0
  -23.3690   -5.3509   24.4530 F   0  0  0  0  0  0  0  0  0  0  0  0
  -31.7135  -17.8182   20.4216 Cl  0  0  0  0  0  0  0  0  0  0  0  0
  -26.7574  -19.2518   18.6769 Cl  0  0  0  0  0  0  0  0  0  0  0  0
  1  2  1  0  0  0  0
  1  5  2  0  0  0  0
  2  6  2  0  0  0  0
  3  8  2  0  0  0  0
  3 16  1  0  0  0  0
  4  9  1  0  0  0  0
  4 16  2  0  0  0  0
  5 18  1  0  0  0  0
  6 20  1  0  0  0  0
  7 10  2  0  0  0  0
  7 19  1  0  0  0  0
  8 25  1  0  0  0  0
  9 25  2  0  0  0  0
 10 26  1  0  0  0  0
 11 12  2  0  0  0  0
 11 27  1  0  0  0  0
 12 28  1  0  0  0  0
 13 21  1  0  0  0  0
 13 26  2  0  0  0  0
 14 22  1  0  0  0  0
 14 30  2  0  0  0  0
 15 28  2  0  0  0  0
 15 29  1  0  0  0  0
 16 32  1  0  0  0  0
 17 32  1  0  0  0  0
 17 33  2  0  0  0  0
 17 36  1  0  0  0  0
 18 20  2  0  0  0  0
 18 41  1  0  0  0  0
 19 21  2  0  0  0  0
 19 42  1  0  0  0  0
 20 53  1  0  0  0  0
 21 43  1  0  0  0  0
 22 23  2  0  0  0  0
 22 62  1  0  0  0  0
 23 31  1  0  0  0  0
 23 56  1  0  0  0  0
 24 30  1  0  0  0  0
 24 31  2  0  0  0  0
 24 73  1  0  0  0  0
 25 83  1  0  0  0  0
 26 84  1  0  0  0  0
 27 29  2  0  0  0  0
 27 83  1  0  0  0  0
 28 85  1  0  0  0  0
 29 86  1  0  0  0  0
 30 87  1  0  0  0  0
 31 88  1  0  0  0  0
 32 67  2  0  0  0  0
 33 68  1  0  0  0  0
 33 71  1  0  0  0  0
 34 35  2  0  0  0  0
 34 44  1  0  0  0  0
 34 76  1  0  0  0  0
 35 63  1  0  0  0  0
 36 72  1  0  0  0  0
 36 78  2  0  0  0  0
 37 54  1  0  0  0  0
 37 74  1  0  0  0  0
 37 79  2  0  0  0  0
 38 64  1  0  0  0  0
 38 69  1  0  0  0  0
 38 80  2  0  0  0  0
 39 65  1  0  0  0  0
 39 75  1  0  0  0  0
 39 81  2  0  0  0  0
 40 70  1  0  0  0  0
 40 73  1  0  0  0  0
 40 82  2  0  0  0  0
 41 45  1  0  0  0  0
 42 54  1  0  0  0  0
 43 69  1  0  0  0  0
 44 46  1  0  0  0  0
 45 48  1  0  0  0  0
 46 52  1  0  0  0  0
 47 49  1  0  0  0  0
 47 50  1  0  0  0  0
 48 53  1  0  0  0  0
 49 55  1  0  0  0  0
 50 70  1  0  0  0  0
 51 55  1  0  0  0  0
 51 70  1  0  0  0  0
 52 76  1  0  0  0  0
 53 74  1  0  0  0  0
 54 69  1  0  0  0  0
 55 68  1  0  0  0  0
 57 65  1  0  0  0  0
 58 66  1  0  0  0  0
 59 66  1  0  0  0  0
 60 66  1  0  0  0  0
 61 77  1  0  0  0  0
 62 76  1  0  0  0  0
 63 84  1  0  0  0  0
 64 66  1  0  0  0  0
 64 75  1  0  0  0  0
 65 77  1  0  0  0  0
 67 68  1  0  0  0  0
M  CHG  2  76   1  77   1
M  ISO  4  40 100  63 101  73 100  84 101
M  END
> <Batch ID>
0037

> <Smiles>
CNC(C)C(=O)NC(C(=O)N1Cc2cc([101O:1][101CH2:1]C=C3CCCN3Cc3cc(Cl)c([100NH:0][100C:0](=O)N4CCCC(n5nc(-c6ccc(Oc7ccc(F)cc7F)cc6)c(C(N)=O)c5N)C4)c(Cl)c3C)ccc2CC1C(=O)NC1CCCc2ccccc21)C(C)(C)C

> <Shape>
0.277

> <Color>
0.120

> <Negative vol penalty>
0.000

$$$$

  -OEChem-04042321573D

 87 95  0     1  0  0  0  0  0999 V2000
  -30.9847  -27.4277   30.8467 C   0  0  0  0  0  0  0  0  0  0  0  0
  -31.6453  -26.6769   29.8796 C   0  0  0  0  0  0  0  0  0  0  0  0
  -23.1597   -9.7873   19.9387 C   0  0  0  0  0  0  0  0  0  0  0  0
  -23.5353   -9.9826   22.3173 C   0  0  0  0  0  0  0  0  0  0  0  0
  -29.5946  -27.5313   30.8179 C   0  0  0  0  0  0  0  0  0  0  0  0
  -30.9160  -26.0284   28.8836 C   0  0  0  0  0  0  0  0  0  0  0  0
  -31.3696  -24.0768   22.0060 C   0  0  0  0  0  0  0  0  0  0  0  0
  -22.3895   -8.6446   20.1541 C   0  0  0  0  0  0  0  0  0  0  0  0
  -22.7650   -8.8399   22.5328 C   0  0  0  0  0  0  0  0  0  0  0  0
  -31.2242  -22.9533   21.1933 C   0  0  0  0  0  0  0  0  0  0  0  0
  -21.1960   -5.7688   23.6803 C   0  0  0  0  0  0  0  0  0  0  0  0
  -21.6881   -4.8134   24.5695 C   0  0  0  0  0  0  0  0  0  0  0  0
  -28.8325  -23.2681   21.1965 C   0  0  0  0  0  0  0  0  0  0  0  0
  -33.6113  -16.5535   21.9266 C   0  0  0  0  0  0  0  0  0  0  0  0
  -30.9392  -15.8797   22.3606 C   0  0  0  0  0  0  0  0  0  0  0  0
  -23.6478   -4.5336   23.1844 C   0  0  0  0  0  0  0  0  0  0  0  0
  -23.7327  -10.4563   21.0203 C   0  0  0  0  0  0  0  0  0  0  0  0
  -24.0799  -12.9701   20.7600 C   0  0  0  0  0  0  0  0  0  0  0  0
  -28.8486  -26.8916   29.8154 C   0  0  0  0  0  0  0  0  0  0  0  0
  -30.2449  -24.7992   22.4296 C   0  0  0  0  0  0  0  0  0  0  0  0
  -29.5145  -26.1224   28.8422 C   0  0  0  0  0  0  0  0  0  0  0  0
  -28.9666  -24.4019   22.0124 C   0  0  0  0  0  0  0  0  0  0  0  0
  -32.6194  -17.0583   21.0859 C   0  0  0  0  0  0  0  0  0  0  0  0
  -33.2672  -15.7117   22.9843 C   0  0  0  0  0  0  0  0  0  0  0  0
  -31.2833  -16.7214   21.3029 C   0  0  0  0  0  0  0  0  0  0  0  0
  -31.9312  -15.3748   23.2013 C   0  0  0  0  0  0  0  0  0  0  0  0
  -22.1921   -8.1708   21.4512 C   0  0  0  0  0  0  0  0  0  0  0  0
  -29.9553  -22.5471   20.7909 C   0  0  0  0  0  0  0  0  0  0  0  0
  -21.9298   -6.1066   22.5432 C   0  0  0  0  0  0  0  0  0  0  0  0
  -22.9140   -4.1958   24.3216 C   0  0  0  0  0  0  0  0  0  0  0  0
  -23.1557   -5.4891   22.2952 C   0  0  0  0  0  0  0  0  0  0  0  0
  -24.5290  -11.6365   20.7984 C   0  0  0  0  0  0  0  0  0  0  0  0
  -25.2138  -13.7075   20.5213 C   0  0  0  0  0  0  0  0  0  0  0  0
  -22.7561  -13.4955   20.9254 C   0  0  0  0  0  0  0  0  0  0  0  0
  -28.9425  -25.4716   25.2502 C   0  0  0  0  0  0  0  0  0  0  0  0
  -26.9731  -27.3269   23.4610 C   0  0  0  0  0  0  0  0  0  0  0  0
  -25.5583  -27.9580   20.4201 C   0  0  0  0  0  0  0  0  0  0  0  0
  -31.0239  -12.7059   21.5654 C   0  0  0  0  0  0  0  0  0  0  0  0
  -27.3444  -26.9938   29.8531 C   0  0  0  0  0  0  0  0  0  0  0  0
  -30.4206  -26.0246   23.2841 C   0  0  0  0  0  0  0  0  0  0  0  0
  -27.7286  -25.1550   22.4231 C   0  0  0  0  0  0  0  0  0  0  0  0
  -26.6731  -26.5834   28.5449 C   0  0  0  0  0  0  0  0  0  0  0  0
  -29.5032  -13.4069   18.4233 C   0  0  0  0  0  0  0  0  0  0  0  0
  -27.2636  -25.2748   28.0295 C   0  0  0  0  0  0  0  0  0  0  0  0
  -28.0154  -13.1530   18.6722 C   0  0  0  0  0  0  0  0  0  0  0  0
  -30.3802  -12.4198   19.1904 C   0  0  0  0  0  0  0  0  0  0  0  0
  -28.6233  -12.0942   20.8877 C   0  0  0  0  0  0  0  0  0  0  0  0
  -28.7603  -25.4246   27.7312 C   0  0  1  0  0  0  0  0  0  0  0  0
  -29.1685  -26.3840   24.0780 C   0  0  1  0  0  0  0  0  0  0  0  0
  -27.7000  -13.1002   20.1792 C   0  0  2  0  0  0  0  0  0  0  0  0
  -33.0115  -17.9583   19.9604 C   0  0  0  0  0  0  0  0  0  0  0  0
  -34.3466  -15.1827   23.8707 C   0  0  0  0  0  0  0  0  0  0  0  0
  -23.9609  -29.5194   19.2766 C   0  0  0  0  0  0  0  0  0  0  0  0
  -24.6267  -25.8830   24.7724 C   0  0  0  0  0  0  0  0  0  0  0  0
  -23.1530  -26.7740   22.9551 C   0  0  0  0  0  0  0  0  0  0  0  0
  -24.3142  -28.3495   24.5018 C   0  0  0  0  0  0  0  0  0  0  0  0
  -27.6437  -28.9044   18.5454 C   0  0  0  0  0  0  0  0  0  0  0  0
  -30.1991  -17.2527   20.4123 C   0  0  0  0  0  0  0  0  0  0  0  0
  -31.5115  -12.9719   23.9842 C   0  0  0  0  0  0  0  0  0  0  0  0
  -28.8567  -19.2558   19.7608 C   0  0  0  0  0  0  0  0  0  0  0  0
  -28.6039  -20.7018   20.1394 C   0  0  0  0  0  0  0  0  0  1  0  0
  -25.6576  -27.1153   22.7513 C   0  0  1  0  0  0  0  0  0  0  0  0
  -25.4155  -29.2417   19.6225 C   0  0  2  0  0  0  0  0  0  0  0  0
  -31.5390  -14.4747   24.3267 C   0  0  1  0  0  0  0  0  0  0  0  0
  -24.4609  -27.0149   23.7388 C   0  0  0  0  0  0  0  0  0  0  0  0
  -25.8455  -11.5298   20.5998 N   0  0  0  0  0  0  0  0  0  0  0  0
  -26.2334  -12.8058   20.4342 N   0  0  0  0  0  0  0  0  0  0  0  0
  -27.9519  -26.3426   23.2640 N   0  0  0  0  0  0  0  0  0  0  0  0
  -30.0317  -12.4195   20.6132 N   0  0  0  0  0  0  0  0  0  0  0  0
  -25.4282  -15.0328   20.3793 N   0  0  0  0  0  0  0  0  0  0  0  0
  -21.7062  -12.5982   21.1641 N   0  0  0  0  0  0  0  0  0  0  0  0
  -28.9586  -26.1133   26.4739 N   0  0  0  0  0  0  0  0  0  0  0  0
  -25.5403  -28.1959   21.7782 N   0  0  0  0  0  0  0  0  0  0  0  0
  -30.6078  -12.6908   22.8910 N   0  0  0  0  0  0  0  0  0  0  0  0
  -26.1915  -29.1520   18.3534 N   0  3  0  0  0  0  0  0  0  0  0  0
  -29.8844  -18.6844   20.6672 N   0  3  0  0  0  0  0  0  0  0  0  0
  -22.5090  -14.7228   20.8471 O   0  0  0  0  0  0  0  0  0  0  0  0
  -28.7652  -24.2743   25.0585 O   0  0  0  0  0  0  0  0  0  0  0  0
  -27.1290  -28.3323   24.1586 O   0  0  0  0  0  0  0  0  0  0  0  0
  -25.6706  -26.8543   19.8913 O   0  0  0  0  0  0  0  0  0  0  0  0
  -32.1928  -12.9616   21.2566 O   0  0  0  0  0  0  0  0  0  0  0  0
  -21.4403   -7.0559   21.6618 O   0  0  0  0  0  0  0  0  0  0  0  0
  -29.8105  -21.4505   19.9982 O   0  0  0  0  0  0  0  0  0  1  0  0
  -23.3871   -3.2795   25.1763 F   0  0  0  0  0  0  0  0  0  0  0  0
  -23.8657   -5.8103   21.2051 F   0  0  0  0  0  0  0  0  0  0  0  0
  -32.3622  -14.5886   25.4263 F   0  0  0  0  0  0  0  0  0  0  0  0
  -29.8921  -14.9424   24.9065 Cl  0  0  0  0  0  0  0  0  0  0  0  0
  1  2  1  0  0  0  0
  1  5  2  0  0  0  0
  2  6  2  0  0  0  0
  3  8  2  0  0  0  0
  3 17  1  0  0  0  0
  4  9  1  0  0  0  0
  4 17  2  0  0  0  0
  5 19  1  0  0  0  0
  6 21  1  0  0  0  0
  7 10  2  0  0  0  0
  7 20  1  0  0  0  0
  8 27  1  0  0  0  0
  9 27  2  0  0  0  0
 10 28  1  0  0  0  0
 11 12  2  0  0  0  0
 11 29  1  0  0  0  0
 12 30  1  0  0  0  0
 13 22  1  0  0  0  0
 13 28  2  0  0  0  0
 14 23  1  0  0  0  0
 14 24  2  0  0  0  0
 15 25  1  0  0  0  0
 15 26  2  0  0  0  0
 16 30  2  0  0  0  0
 16 31  1  0  0  0  0
 17 32  1  0  0  0  0
 18 32  1  0  0  0  0
 18 33  2  0  0  0  0
 18 34  1  0  0  0  0
 19 21  2  0  0  0  0
 19 39  1  0  0  0  0
 20 22  2  0  0  0  0
 20 40  1  0  0  0  0
 21 48  1  0  0  0  0
 22 41  1  0  0  0  0
 23 25  2  0  0  0  0
 23 51  1  0  0  0  0
 24 26  1  0  0  0  0
 24 52  1  0  0  0  0
 25 58  1  0  0  0  0
 26 64  1  0  0  0  0
 27 82  1  0  0  0  0
 28 83  1  0  0  0  0
 29 31  2  0  0  0  0
 29 82  1  0  0  0  0
 30 84  1  0  0  0  0
 31 85  1  0  0  0  0
 32 66  2  0  0  0  0
 33 67  1  0  0  0  0
 33 70  1  0  0  0  0
 34 71  1  0  0  0  0
 34 77  2  0  0  0  0
 35 49  1  0  0  0  0
 35 72  1  0  0  0  0
 35 78  2  0  0  0  0
 36 62  1  0  0  0  0
 36 68  1  0  0  0  0
 36 79  2  0  0  0  0
 37 63  1  0  0  0  0
 37 73  1  0  0  0  0
 37 80  2  0  0  0  0
 38 69  1  0  0  0  0
 38 74  1  0  0  0  0
 38 81  2  0  0  0  0
 39 42  1  0  0  0  0
 40 49  1  0  0  0  0
 41 68  1  0  0  0  0
 42 44  1  0  0  0  0
 43 45  1  0  0  0  0
 43 46  1  0  0  0  0
 44 48  1  0  0  0  0
 45 50  1  0  0  0  0
 46 69  1  0  0  0  0
 47 50  1  0  0  0  0
 47 69  1  0  0  0  0
 48 72  1  0  0  0  0
 49 68  1  0  0  0  0
 50 67  1  0  0  0  0
 53 63  1  0  0  0  0
 54 65  1  0  0  0  0
 55 65  1  0  0  0  0
 56 65  1  0  0  0  0
 57 75  1  0  0  0  0
 58 76  1  0  0  0  0
 59 64  1  0  0  0  0
 59 74  1  0  0  0  0
 60 61  1  0  0  0  0
 60 76  1  0  0  0  0
 61 83  1  0  0  0  0
 62 65  1  0  0  0  0
 62 73  1  0  0  0  0
 63 75  1  0  0  0  0
 64 86  1  0  0  0  0
 64 87  1  0  0  0  0
 66 67  1  0  0  0  0
M  CHG  2  75   1  76   1
M  ISO  4  38 100  61 101  74 100  83 101
M  END
> <Batch ID>
0037

> <Smiles>
CNC(C)C(=O)NC(C(=O)N1Cc2cc([101O:1][101CH2:1]CNCc3cc(C(F)(Cl)C[100NH:0][100C:0](=O)N4CCCC(n5nc(-c6ccc(Oc7ccc(F)cc7F)cc6)c(C(N)=O)c5N)C4)c(C)cc3C)ccc2CC1C(=O)NC1CCCc2ccccc21)C(C)(C)C

> <Shape>
0.242

> <Color>
0.189

> <Negative vol penalty>
0.000

$$$$

  -OEChem-04042321573D

 89 98  0     1  0  0  0  0  0999 V2000
  -26.3930  -38.1490   19.1028 C   0  0  0  0  0  0  0  0  0  0  0  0
  -26.4879  -36.9545   18.3960 C   0  0  0  0  0  0  0  0  0  0  0  0
  -22.9864   -9.9390   20.2449 C   0  0  0  0  0  0  0  0  0  0  0  0
  -24.6848   -8.6275   21.3550 C   0  0  0  0  0  0  0  0  0  0  0  0
  -26.5892  -38.1583   20.4831 C   0  0  0  0  0  0  0  0  0  0  0  0
  -26.7803  -35.7687   19.0690 C   0  0  0  0  0  0  0  0  0  0  0  0
  -25.4060  -28.7416   18.8525 C   0  0  0  0  0  0  0  0  0  0  0  0
  -22.0342   -9.4732   21.1515 C   0  0  0  0  0  0  0  0  0  0  0  0
  -23.7326   -8.1618   22.2617 C   0  0  0  0  0  0  0  0  0  0  0  0
  -26.0676  -27.5144   18.8459 C   0  0  0  0  0  0  0  0  0  0  0  0
  -21.2706   -5.8453   22.3187 C   0  0  0  0  0  0  0  0  0  0  0  0
  -21.2669   -4.4815   22.6113 C   0  0  0  0  0  0  0  0  0  0  0  0
  -26.3087  -27.6383   21.2429 C   0  0  0  0  0  0  0  0  0  0  0  0
  -28.5825  -18.7209   21.6542 C   0  0  0  0  0  0  0  0  0  0  0  0
  -21.6735   -4.9800   24.9401 C   0  0  0  0  0  0  0  0  0  0  0  0
  -24.3117   -9.5161   20.3466 C   0  0  0  0  0  0  0  0  0  0  0  0
  -25.2881   -9.8353   18.0115 C   0  0  0  0  0  0  0  0  0  0  0  0
  -26.8746  -36.9706   21.1748 C   0  0  0  0  0  0  0  0  0  0  0  0
  -25.2000  -29.4327   20.0551 C   0  0  0  0  0  0  0  0  0  0  0  0
  -26.9818  -35.7624   20.4597 C   0  0  0  0  0  0  0  0  0  0  0  0
  -25.6419  -28.8729   21.2624 C   0  0  0  0  0  0  0  0  0  0  0  0
  -27.6941  -19.5051   20.9185 C   0  0  0  0  0  0  0  0  0  0  0  0
  -27.0920  -18.9875   19.7716 C   0  0  0  0  0  0  0  0  0  0  0  0
  -28.2670  -16.9015   20.0962 C   0  0  0  0  0  0  0  0  0  0  0  0
  -22.4073   -8.5847   22.1599 C   0  0  0  0  0  0  0  0  0  0  0  0
  -26.5216  -26.9640   20.0408 C   0  0  0  0  0  0  0  0  0  0  0  0
  -21.4758   -6.7765   23.3368 C   0  0  0  0  0  0  0  0  0  0  0  0
  -21.4683   -4.0488   23.9220 C   0  0  0  0  0  0  0  0  0  0  0  0
  -21.6772   -6.3438   24.6475 C   0  0  0  0  0  0  0  0  0  0  0  0
  -28.8690  -17.4192   21.2431 C   0  0  0  0  0  0  0  0  0  0  0  0
  -27.3785  -17.6857   19.3605 C   0  0  0  0  0  0  0  0  0  0  0  0
  -25.2957   -9.9964   19.4100 C   0  0  0  0  0  0  0  0  0  0  0  0
  -26.4310  -10.4676   17.5868 C   0  0  0  0  0  0  0  0  0  0  0  0
  -27.3304  -22.8807   19.9136 C   0  0  0  0  0  0  0  0  0  0  0  0
  -24.3332   -9.1733   17.1715 C   0  0  0  0  0  0  0  0  0  0  0  0
  -26.1160  -32.2493   21.2089 C   0  0  0  0  0  0  0  0  0  0  0  0
  -24.1407  -31.4515   23.6551 C   0  0  0  0  0  0  0  0  0  0  0  0
  -22.5739  -28.9936   25.4302 C   0  0  0  0  0  0  0  0  0  0  0  0
  -29.7495  -14.8763   19.8794 C   0  0  0  0  0  0  0  0  0  0  0  0
  -27.1254  -37.0380   22.6604 C   0  0  0  0  0  0  0  0  0  0  0  0
  -24.4609  -30.7427   20.0484 C   0  0  0  0  0  0  0  0  0  0  0  0
  -25.4278  -29.5651   22.5828 C   0  0  0  0  0  0  0  0  0  0  0  0
  -27.0615  -35.6783   23.3513 C   0  0  0  0  0  0  0  0  0  0  0  0
  -30.2471  -22.7766   19.6512 C   0  0  0  0  0  0  0  0  0  0  0  0
  -30.8506  -11.5943   19.0471 C   0  0  0  0  0  0  0  0  0  0  0  0
  -27.8555  -34.6413   22.5634 C   0  0  0  0  0  0  0  0  0  0  0  0
  -29.5219  -24.0941   19.4592 C   0  0  0  0  0  0  0  0  0  0  0  0
  -29.5501  -10.7988   18.9125 C   0  0  0  0  0  0  0  0  0  0  0  0
  -29.5375  -21.9528   20.7083 C   0  0  0  0  0  0  0  0  0  0  0  0
  -30.7692  -12.6287   20.1683 C   0  0  0  0  0  0  0  0  0  0  0  0
  -28.3172  -12.7414   19.9581 C   0  0  0  0  0  0  0  0  0  0  0  0
  -27.2728  -34.4516   21.1577 C   0  0  1  0  0  0  0  0  0  0  0  0
  -28.1022  -23.8162   18.9802 C   0  0  2  0  0  0  0  0  0  0  0  0
  -24.7605  -31.6040   21.2714 C   0  0  1  0  0  0  0  0  0  0  0  0
  -28.3282  -11.7314   18.7990 C   0  0  2  0  0  0  0  0  0  0  0  0
  -26.1423  -19.8486   18.9973 C   0  0  0  0  0  0  0  0  0  0  0  0
  -21.0558  -28.6474   27.3981 C   0  0  0  0  0  0  0  0  0  0  0  0
  -26.4782  -31.9700   25.5465 C   0  0  0  0  0  0  0  0  0  0  0  0
  -25.2276  -30.7239   27.3217 C   0  0  0  0  0  0  0  0  0  0  0  0
  -24.2702  -32.8170   26.3601 C   0  0  0  0  0  0  0  0  0  0  0  0
  -20.4835  -27.7477   23.7459 C   0  0  0  0  0  0  0  0  0  0  0  0
  -27.4049  -20.9030   21.3836 C   0  0  0  0  0  0  0  0  0  0  0  0
  -27.3474  -25.1291   18.7731 C   0  0  0  0  0  0  0  0  0  1  0  0
  -24.3012  -30.7114   24.9610 C   0  0  1  0  0  0  0  0  0  0  0  0
  -21.1355  -28.8458   25.8925 C   0  0  2  0  0  0  0  0  0  0  0  0
  -25.0752  -31.5432   26.0224 C   0  0  0  0  0  0  0  0  0  0  0  0
  -26.3592  -10.6776   19.8448 N   0  0  0  0  0  0  0  0  0  0  0  0
  -27.0306  -10.9500   18.7129 N   0  0  0  0  0  0  0  0  0  0  0  0
  -28.0826  -21.9009   20.5661 N   0  0  0  0  0  0  0  0  0  0  0  0
  -24.7055  -30.8466   22.5234 N   0  0  0  0  0  0  0  0  0  0  0  0
  -29.5898  -13.4790   19.9926 N   0  0  0  0  0  0  0  0  0  0  0  0
  -26.9716  -10.6525   16.3637 N   0  0  0  0  0  0  0  0  0  0  0  0
  -23.2162   -8.5761   17.7715 N   0  0  0  0  0  0  0  0  0  0  0  0
  -28.5608  -15.5785   19.6829 N   0  0  0  0  0  0  0  0  0  0  0  0
  -26.0821  -33.6308   21.2108 N   0  0  0  0  0  0  0  0  0  0  0  0
  -22.9589  -30.3165   25.3741 N   0  0  0  0  0  0  0  0  0  0  0  0
  -20.4963  -27.6741   25.2296 N   0  3  0  0  0  0  0  0  0  0  0  0
  -26.1006  -22.9545   19.9886 O   0  0  0  0  0  0  0  0  0  0  0  0
  -24.4750   -9.0989   15.9274 O   0  0  0  0  0  0  0  0  0  0  0  0
  -27.1185  -31.5460   21.1639 O   0  0  0  0  0  0  0  0  0  0  0  0
  -23.5302  -32.5233   23.6385 O   0  0  0  0  0  0  0  0  0  0  0  0
  -23.2859  -28.0317   25.1506 O   0  0  0  0  0  0  0  0  0  0  0  0
  -30.8618  -15.4081   19.9243 O   0  0  0  0  0  0  0  0  0  0  0  0
  -21.4784   -8.1302   23.0449 O   0  0  0  0  0  0  0  0  0  0  0  0
  -27.1683  -25.7666   20.0371 O   0  0  0  0  0  0  0  0  0  1  0  0
  -21.4632   -2.7392   24.2030 F   0  0  0  0  0  0  0  0  0  0  0  0
  -21.8737   -7.2337   25.6300 F   0  0  0  0  0  0  0  0  0  0  0  0
  -29.9765  -16.4877   22.1884 Cl  0  0  0  0  0  0  0  0  0  0  0  0
  -26.6253  -17.0495   17.9321 Cl  0  0  0  0  0  0  0  0  0  0  0  0
  1  2  1  0  0  0  0
  1  5  2  0  0  0  0
  2  6  2  0  0  0  0
  3  8  2  0  0  0  0
  3 16  1  0  0  0  0
  4  9  1  0  0  0  0
  4 16  2  0  0  0  0
  5 18  1  0  0  0  0
  6 20  1  0  0  0  0
  7 10  2  0  0  0  0
  7 19  1  0  0  0  0
  8 25  1  0  0  0  0
  9 25  2  0  0  0  0
 10 26  1  0  0  0  0
 11 12  2  0  0  0  0
 11 27  1  0  0  0  0
 12 28  1  0  0  0  0
 13 21  1  0  0  0  0
 13 26  2  0  0  0  0
 14 22  1  0  0  0  0
 14 30  2  0  0  0  0
 15 28  2  0  0  0  0
 15 29  1  0  0  0  0
 16 32  1  0  0  0  0
 17 32  1  0  0  0  0
 17 33  2  0  0  0  0
 17 35  1  0  0  0  0
 18 20  2  0  0  0  0
 18 40  1  0  0  0  0
 19 21  2  0  0  0  0
 19 41  1  0  0  0  0
 20 52  1  0  0  0  0
 21 42  1  0  0  0  0
 22 23  2  0  0  0  0
 22 62  1  0  0  0  0
 23 31  1  0  0  0  0
 23 56  1  0  0  0  0
 24 30  1  0  0  0  0
 24 31  2  0  0  0  0
 24 74  1  0  0  0  0
 25 84  1  0  0  0  0
 26 85  1  0  0  0  0
 27 29  2  0  0  0  0
 27 84  1  0  0  0  0
 28 86  1  0  0  0  0
 29 87  1  0  0  0  0
 30 88  1  0  0  0  0
 31 89  1  0  0  0  0
 32 67  2  0  0  0  0
 33 68  1  0  0  0  0
 33 72  1  0  0  0  0
 34 53  1  0  0  0  0
 34 69  1  0  0  0  0
 34 78  2  0  0  0  0
 35 73  1  0  0  0  0
 35 79  2  0  0  0  0
 36 54  1  0  0  0  0
 36 75  1  0  0  0  0
 36 80  2  0  0  0  0
 37 64  1  0  0  0  0
 37 70  1  0  0  0  0
 37 81  2  0  0  0  0
 38 65  1  0  0  0  0
 38 76  1  0  0  0  0
 38 82  2  0  0  0  0
 39 71  1  0  0  0  0
 39 74  1  0  0  0  0
 39 83  2  0  0  0  0
 40 43  1  0  0  0  0
 41 54  1  0  0  0  0
 42 70  1  0  0  0  0
 43 46  1  0  0  0  0
 44 47  1  0  0  0  0
 44 49  1  0  0  0  0
 45 48  1  0  0  0  0
 45 50  1  0  0  0  0
 46 52  1  0  0  0  0
 47 53  1  0  0  0  0
 48 55  1  0  0  0  0
 49 69  1  0  0  0  0
 50 71  1  0  0  0  0
 51 55  1  0  0  0  0
 51 71  1  0  0  0  0
 52 75  1  0  0  0  0
 53 63  1  0  0  0  0
 54 70  1  0  0  0  0
 55 68  1  0  0  0  0
 57 65  1  0  0  0  0
 58 66  1  0  0  0  0
 59 66  1  0  0  0  0
 60 66  1  0  0  0  0
 61 77  1  0  0  0  0
 62 69  1  0  0  0  0
 63 85  1  0  0  0  0
 64 66  1  0  0  0  0
 64 76  1  0  0  0  0
 65 77  1  0  0  0  0
 67 68  1  0  0  0  0
M  CHG  1  77   1
M  ISO  4  39 100  63 101  74 100  85 101
M  END
> <Batch ID>
0037

> <Smiles>
CNC(C)C(=O)NC(C(=O)N1Cc2cc([101O:1][101CH2:1]C3CCCN(Cc4cc(Cl)c([100NH:0][100C:0](=O)N5CCCC(n6nc(-c7ccc(Oc8ccc(F)cc8F)cc7)c(C(N)=O)c6N)C5)c(Cl)c4C)C3=O)ccc2CC1C(=O)NC1CCCc2ccccc21)C(C)(C)C

> <Shape>
0.312

> <Color>
0.112

> <Negative vol penalty>
0.000

$$$$

  -OEChem-04042321573D

 86 95  0     1  0  0  0  0  0999 V2000
  -17.2235  -19.4147   34.9349 C   0  0  0  0  0  0  0  0  0  0  0  0
  -18.0637  -19.8681   33.9242 C   0  0  0  0  0  0  0  0  0  0  0  0
  -23.2033  -10.2586   22.2024 C   0  0  0  0  0  0  0  0  0  0  0  0
  -23.8195   -9.4855   19.9979 C   0  0  0  0  0  0  0  0  0  0  0  0
  -17.5950  -18.3133   35.7032 C   0  0  0  0  0  0  0  0  0  0  0  0
  -19.2699  -19.2131   33.6736 C   0  0  0  0  0  0  0  0  0  0  0  0
  -26.2495  -17.7417   30.1603 C   0  0  0  0  0  0  0  0  0  0  0  0
  -22.4757   -9.0868   22.4100 C   0  0  0  0  0  0  0  0  0  0  0  0
  -23.0920   -8.3137   20.2055 C   0  0  0  0  0  0  0  0  0  0  0  0
  -27.4653  -17.0817   30.3340 C   0  0  0  0  0  0  0  0  0  0  0  0
  -23.5052   -5.3832   21.8371 C   0  0  0  0  0  0  0  0  0  0  0  0
  -24.1028   -4.1776   21.4698 C   0  0  0  0  0  0  0  0  0  0  0  0
  -26.2816  -15.0155   30.7197 C   0  0  0  0  0  0  0  0  0  0  0  0
  -33.0451  -11.9625   26.0521 C   0  0  0  0  0  0  0  0  0  0  0  0
  -32.8118  -12.2763   23.6680 C   0  0  0  0  0  0  0  0  0  0  0  0
  -22.2941   -3.7514   19.9257 C   0  0  0  0  0  0  0  0  0  0  0  0
  -23.8751  -10.4580   20.9964 C   0  0  0  0  0  0  0  0  0  0  0  0
  -24.1353  -12.9878   20.7955 C   0  0  0  0  0  0  0  0  0  0  0  0
  -18.8124  -17.6528   35.4694 C   0  0  0  0  0  0  0  0  0  0  0  0
  -25.0383  -17.0446   30.2761 C   0  0  0  0  0  0  0  0  0  0  0  0
  -19.6515  -18.0851   34.4223 C   0  0  0  0  0  0  0  0  0  0  0  0
  -25.0520  -15.6684   30.5446 C   0  0  0  0  0  0  0  0  0  0  0  0
  -33.6021  -11.9610   24.7733 C   0  0  0  0  0  0  0  0  0  0  0  0
  -31.6978  -12.2791   26.2256 C   0  0  0  0  0  0  0  0  0  0  0  0
  -30.9075  -12.5945   25.1203 C   0  0  0  0  0  0  0  0  0  0  0  0
  -31.4645  -12.5931   23.8415 C   0  0  0  0  0  0  0  0  0  0  0  0
  -22.4201   -8.1143   21.4115 C   0  0  0  0  0  0  0  0  0  0  0  0
  -27.4814  -15.7190   30.6166 C   0  0  0  0  0  0  0  0  0  0  0  0
  -22.3020   -5.7730   21.2487 C   0  0  0  0  0  0  0  0  0  0  0  0
  -23.4973   -3.3617   20.5141 C   0  0  0  0  0  0  0  0  0  0  0  0
  -21.6965   -4.9571   20.2930 C   0  0  0  0  0  0  0  0  0  0  0  0
  -24.6264  -11.6685   20.7811 C   0  0  0  0  0  0  0  0  0  0  0  0
  -25.2369  -13.7671   20.5396 C   0  0  0  0  0  0  0  0  0  0  0  0
  -22.8024  -13.4660   21.0201 C   0  0  0  0  0  0  0  0  0  0  0  0
  -22.5158  -17.2347   32.2007 C   0  0  0  0  0  0  0  0  0  0  0  0
  -21.3036  -14.9946   30.1921 C   0  0  0  0  0  0  0  0  0  0  0  0
  -22.5068  -12.0373   28.5114 C   0  0  0  0  0  0  0  0  0  0  0  0
  -31.0971  -12.9518   21.3752 C   0  0  0  0  0  0  0  0  0  0  0  0
  -19.1613  -16.4611   36.3257 C   0  0  0  0  0  0  0  0  0  0  0  0
  -23.7361  -17.7656   30.0595 C   0  0  0  0  0  0  0  0  0  0  0  0
  -23.7799  -14.8701   30.6589 C   0  0  0  0  0  0  0  0  0  0  0  0
  -20.6452  -16.1113   36.2814 C   0  0  0  0  0  0  0  0  0  0  0  0
  -29.4634  -13.6540   18.2905 C   0  0  0  0  0  0  0  0  0  0  0  0
  -31.9279  -15.7208   29.0549 C   0  0  0  0  0  0  0  0  0  0  0  0
  -21.1201  -16.0422   34.8377 C   0  0  0  0  0  0  0  0  0  0  0  0
  -27.9920  -13.3504   18.5823 C   0  0  0  0  0  0  0  0  0  0  0  0
  -30.8540  -15.7903   30.1326 C   0  0  0  0  0  0  0  0  0  0  0  0
  -30.3964  -12.6791   19.0067 C   0  0  0  0  0  0  0  0  0  0  0  0
  -28.7034  -12.2531   20.7449 C   0  0  0  0  0  0  0  0  0  0  0  0
  -32.1925  -14.2875   28.6164 C   0  0  0  0  0  0  0  0  0  0  0  0
  -29.8487  -13.6544   29.2455 C   0  0  0  0  0  0  0  0  0  0  0  0
  -20.9826  -17.4073   34.1517 C   0  0  1  0  0  0  0  0  0  0  0  0
  -22.5484  -17.0618   30.7085 C   0  0  1  0  0  0  0  0  0  0  0  0
  -27.7272  -13.2487   20.0972 C   0  0  2  0  0  0  0  0  0  0  0  0
  -29.5754  -15.0850   29.6908 C   0  0  1  0  0  0  0  0  0  1  0  0
  -35.0423  -11.6210   24.5875 C   0  0  0  0  0  0  0  0  0  0  0  0
  -29.4622  -12.9326   25.3119 C   0  0  0  0  0  0  0  0  0  0  0  0
  -21.7470  -10.9476   26.3824 C   0  0  0  0  0  0  0  0  0  0  0  0
  -19.5727  -13.2790   32.0281 C   0  0  0  0  0  0  0  0  0  0  0  0
  -20.0614  -11.3221   30.5449 C   0  0  0  0  0  0  0  0  0  0  0  0
  -18.8490  -13.3028   29.6343 C   0  0  0  0  0  0  0  0  0  0  0  0
  -25.2260  -12.1472   27.3485 C   0  0  0  0  0  0  0  0  0  0  0  0
  -31.1233  -12.2714   27.6116 C   0  0  0  0  0  0  0  0  0  0  0  0
  -21.3197  -13.4860   30.1383 C   0  0  1  0  0  0  0  0  0  0  0  0
  -22.7641  -11.8787   27.0238 C   0  0  2  0  0  0  0  0  0  0  0  0
  -19.9719  -12.8622   30.5984 C   0  0  0  0  0  0  0  0  0  0  0  0
  -25.9380  -11.6093   20.5354 N   0  0  0  0  0  0  0  0  0  0  0  0
  -26.2803  -12.9010   20.3930 N   0  0  0  0  0  0  0  0  0  0  0  0
  -22.5320  -15.6214   30.4451 N   0  0  0  0  0  0  0  0  0  0  0  0
  -30.0898  -12.6386   20.4382 N   0  0  0  0  0  0  0  0  0  0  0  0
  -25.4052  -15.1019   20.4280 N   0  0  0  0  0  0  0  0  0  0  0  0
  -21.7896  -12.5296   21.2686 N   0  0  0  0  0  0  0  0  0  0  0  0
  -30.6801  -12.9115   22.7052 N   0  0  0  0  0  0  0  0  0  0  0  0
  -21.2425  -17.2531   32.7373 N   0  0  0  0  0  0  0  0  0  0  0  0
  -21.7094  -13.1301   28.7782 N   0  0  0  0  0  0  0  0  0  0  0  0
  -30.8992  -13.6520   28.1643 N   0  3  2  0  0  0  0  0  0  0  0  0
  -24.1257  -11.3197   26.7903 N   0  3  0  0  0  0  0  0  0  0  0  0
  -22.5149  -14.6865   20.9848 O   0  0  0  0  0  0  0  0  0  0  0  0
  -23.5680  -17.3419   32.8197 O   0  0  0  0  0  0  0  0  0  0  0  0
  -20.2417  -15.5949   30.0089 O   0  0  0  0  0  0  0  0  0  0  0  0
  -22.9641  -11.2666   29.3524 O   0  0  0  0  0  0  0  0  0  0  0  0
  -32.2380  -13.2614   21.0223 O   0  0  0  0  0  0  0  0  0  0  0  0
  -21.7104   -6.9706   21.6138 O   0  0  0  0  0  0  0  0  0  0  0  0
  -28.6667  -15.0726   30.7872 O   0  0  0  0  0  0  0  0  0  1  0  0
  -24.0721   -2.2047   20.1604 F   0  0  0  0  0  0  0  0  0  0  0  0
  -20.5412   -5.3268   19.7235 F   0  0  0  0  0  0  0  0  0  0  0  0
  1  2  1  0  0  0  0
  1  5  2  0  0  0  0
  2  6  2  0  0  0  0
  3  8  2  0  0  0  0
  3 17  1  0  0  0  0
  4  9  1  0  0  0  0
  4 17  2  0  0  0  0
  5 19  1  0  0  0  0
  6 21  1  0  0  0  0
  7 10  2  0  0  0  0
  7 20  1  0  0  0  0
  8 27  1  0  0  0  0
  9 27  2  0  0  0  0
 10 28  1  0  0  0  0
 11 12  2  0  0  0  0
 11 29  1  0  0  0  0
 12 30  1  0  0  0  0
 13 22  1  0  0  0  0
 13 28  2  0  0  0  0
 14 23  2  0  0  0  0
 14 24  1  0  0  0  0
 15 23  1  0  0  0  0
 15 26  2  0  0  0  0
 16 30  2  0  0  0  0
 16 31  1  0  0  0  0
 17 32  1  0  0  0  0
 18 32  1  0  0  0  0
 18 33  2  0  0  0  0
 18 34  1  0  0  0  0
 19 21  2  0  0  0  0
 19 39  1  0  0  0  0
 20 22  2  0  0  0  0
 20 40  1  0  0  0  0
 21 52  1  0  0  0  0
 22 41  1  0  0  0  0
 23 56  1  0  0  0  0
 24 25  2  0  0  0  0
 24 63  1  0  0  0  0
 25 26  1  0  0  0  0
 25 57  1  0  0  0  0
 26 73  1  0  0  0  0
 27 83  1  0  0  0  0
 28 84  1  0  0  0  0
 29 31  2  0  0  0  0
 29 83  1  0  0  0  0
 30 85  1  0  0  0  0
 31 86  1  0  0  0  0
 32 67  2  0  0  0  0
 33 68  1  0  0  0  0
 33 71  1  0  0  0  0
 34 72  1  0  0  0  0
 34 78  2  0  0  0  0
 35 53  1  0  0  0  0
 35 74  1  0  0  0  0
 35 79  2  0  0  0  0
 36 64  1  0  0  0  0
 36 69  1  0  0  0  0
 36 80  2  0  0  0  0
 37 65  1  0  0  0  0
 37 75  1  0  0  0  0
 37 81  2  0  0  0  0
 38 70  1  0  0  0  0
 38 73  1  0  0  0  0
 38 82  2  0  0  0  0
 39 42  1  0  0  0  0
 40 53  1  0  0  0  0
 41 69  1  0  0  0  0
 42 45  1  0  0  0  0
 43 46  1  0  0  0  0
 43 48  1  0  0  0  0
 44 47  1  0  0  0  0
 44 50  1  0  0  0  0
 45 52  1  0  0  0  0
 46 54  1  0  0  0  0
 47 55  1  0  0  0  0
 48 70  1  0  0  0  0
 49 54  1  0  0  0  0
 49 70  1  0  0  0  0
 50 76  1  0  0  0  0
 51 55  1  0  0  0  0
 51 76  1  0  0  0  0
 52 74  1  0  0  0  0
 53 69  1  0  0  0  0
 54 68  1  0  0  0  0
 55 84  1  0  0  0  0
 58 65  1  0  0  0  0
 59 66  1  0  0  0  0
 60 66  1  0  0  0  0
 61 66  1  0  0  0  0
 62 77  1  0  0  0  0
 63 76  1  0  0  0  0
 64 66  1  0  0  0  0
 64 75  1  0  0  0  0
 65 77  1  0  0  0  0
 67 68  1  0  0  0  0
M  CHG  2  76   1  77   1
M  ISO  4  38 100  55 101  73 100  84 101
M  END
> <Batch ID>
0037

> <Smiles>
CNC(C)C(=O)NC(C(=O)N1Cc2cc([101O:1][101CH:1]3CCCN(Cc4cc(C)cc([100NH:0][100C:0](=O)N5CCCC(n6nc(-c7ccc(Oc8ccc(F)cc8F)cc7)c(C(N)=O)c6N)C5)c4C)C3)ccc2CC1C(=O)NC1CCCc2ccccc21)C(C)(C)C

> <Shape>
0.119

> <Color>
0.171

> <Negative vol penalty>
0.000

$$$$

  -OEChem-04042321573D

 91100  0     1  0  0  0  0  0999 V2000
  -24.5253  -32.5293   14.3129 C   0  0  0  0  0  0  0  0  0  0  0  0
  -24.8111  -31.3469   14.9879 C   0  0  0  0  0  0  0  0  0  0  0  0
  -23.1593   -9.8767   21.2858 C   0  0  0  0  0  0  0  0  0  0  0  0
  -24.6386  -10.1405   23.1777 C   0  0  0  0  0  0  0  0  0  0  0  0
  -24.7282  -33.7567   14.9425 C   0  0  0  0  0  0  0  0  0  0  0  0
  -25.3012  -31.3912   16.2927 C   0  0  0  0  0  0  0  0  0  0  0  0
  -23.0209  -28.0496   19.3388 C   0  0  0  0  0  0  0  0  0  0  0  0
  -22.5812   -8.7621   21.8933 C   0  0  0  0  0  0  0  0  0  0  0  0
  -24.0605   -9.0259   23.7852 C   0  0  0  0  0  0  0  0  0  0  0  0
  -23.4249  -26.7189   19.2399 C   0  0  0  0  0  0  0  0  0  0  0  0
  -23.3314   -5.4958   22.3323 C   0  0  0  0  0  0  0  0  0  0  0  0
  -23.1173   -4.3663   21.5424 C   0  0  0  0  0  0  0  0  0  0  0  0
  -24.8082  -26.9998   21.1961 C   0  0  0  0  0  0  0  0  0  0  0  0
  -30.4661  -20.4670   22.5292 C   0  0  0  0  0  0  0  0  0  0  0  0
  -31.1090  -18.3180   21.6317 C   0  0  0  0  0  0  0  0  0  0  0  0
  -20.7476   -4.5001   21.9934 C   0  0  0  0  0  0  0  0  0  0  0  0
  -24.1881  -10.5659   21.9280 C   0  0  0  0  0  0  0  0  0  0  0  0
  -24.1412  -12.9099   20.9224 C   0  0  0  0  0  0  0  0  0  0  0  0
  -25.2119  -33.8158   16.2590 C   0  0  0  0  0  0  0  0  0  0  0  0
  -23.5168  -28.8698   20.3624 C   0  0  0  0  0  0  0  0  0  0  0  0
  -25.5120  -32.6205   16.9400 C   0  0  0  0  0  0  0  0  0  0  0  0
  -24.4070  -28.3399   21.3073 C   0  0  0  0  0  0  0  0  0  0  0  0
  -29.1234  -20.1532   22.3190 C   0  0  0  0  0  0  0  0  0  0  0  0
  -28.7734  -18.9217   21.7652 C   0  0  0  0  0  0  0  0  0  0  0  0
  -29.7662  -18.0041   21.4215 C   0  0  0  0  0  0  0  0  0  0  0  0
  -23.0318   -8.3367   23.1429 C   0  0  0  0  0  0  0  0  0  0  0  0
  -24.3209  -26.1946   20.1669 C   0  0  0  0  0  0  0  0  0  0  0  0
  -22.2536   -6.1275   22.9528 C   0  0  0  0  0  0  0  0  0  0  0  0
  -21.8254   -3.8685   21.3729 C   0  0  0  0  0  0  0  0  0  0  0  0
  -20.9617   -5.6296   22.7833 C   0  0  0  0  0  0  0  0  0  0  0  0
  -31.4589  -19.5495   22.1855 C   0  0  0  0  0  0  0  0  0  0  0  0
  -24.7860  -11.7170   21.3008 C   0  0  0  0  0  0  0  0  0  0  0  0
  -25.1379  -13.6801   20.3748 C   0  0  0  0  0  0  0  0  0  0  0  0
  -27.2125  -23.3975   22.4163 C   0  0  0  0  0  0  0  0  0  0  0  0
  -27.5000  -24.1112   23.5188 C   0  0  0  0  0  0  0  0  0  0  0  0
  -28.7384  -23.9773   24.2427 C   0  0  0  0  0  0  0  0  0  0  0  0
  -29.0207  -24.6915   25.3421 C   0  0  0  0  0  0  0  0  0  0  0  0
  -22.7645  -13.2879   21.0543 C   0  0  0  0  0  0  0  0  0  0  0  0
  -25.2459  -31.5351   20.4619 C   0  0  0  0  0  0  0  0  0  0  0  0
  -24.6114  -31.3651   23.6385 C   0  0  0  0  0  0  0  0  0  0  0  0
  -23.7826  -29.4348   26.3281 C   0  0  0  0  0  0  0  0  0  0  0  0
  -30.3111  -15.7375   20.4666 C   0  0  0  0  0  0  0  0  0  0  0  0
  -25.4599  -35.1671   16.8813 C   0  0  0  0  0  0  0  0  0  0  0  0
  -23.0505  -30.2957   20.4710 C   0  0  0  0  0  0  0  0  0  0  0  0
  -24.9529  -29.1730   22.4370 C   0  0  0  0  0  0  0  0  0  0  0  0
  -25.9065  -23.5702   21.6924 C   0  0  0  0  0  0  0  0  0  0  0  0
  -25.6275  -35.1178   18.3978 C   0  0  0  0  0  0  0  0  0  0  0  0
  -29.8822  -12.4893   19.0728 C   0  0  0  0  0  0  0  0  0  0  0  0
  -28.2402  -23.5689   19.6819 C   0  0  0  0  0  0  0  0  0  0  0  0
  -26.5761  -33.9907   18.7937 C   0  0  0  0  0  0  0  0  0  0  0  0
  -28.4651  -12.0970   19.4971 C   0  0  0  0  0  0  0  0  0  0  0  0
  -26.8367  -24.0767   19.3540 C   0  0  0  0  0  0  0  0  0  0  0  0
  -30.5989  -13.2884   20.1598 C   0  0  0  0  0  0  0  0  0  0  0  0
  -28.4498  -14.0702   21.0761 C   0  0  0  0  0  0  0  0  0  0  0  0
  -28.2314  -22.2587   20.4651 C   0  0  0  0  0  0  0  0  0  0  0  0
  -26.0216  -32.6268   18.3649 C   0  0  1  0  0  0  0  0  0  0  0  0
  -24.0165  -31.1825   21.2506 C   0  0  1  0  0  0  0  0  0  0  0  0
  -27.6650  -13.3195   19.9879 C   0  0  2  0  0  0  0  0  0  0  0  0
  -26.0269  -24.5798   20.5485 C   0  0  1  0  0  0  0  0  0  1  0  0
  -27.3315  -18.5892   21.5417 C   0  0  0  0  0  0  0  0  0  0  0  0
  -30.2981  -24.5666   26.1059 C   0  0  0  0  0  0  0  0  0  0  0  0
  -23.3734  -29.5723   28.8002 C   0  0  0  0  0  0  0  0  0  0  0  0
  -27.6173  -31.5670   24.1224 C   0  0  0  0  0  0  0  0  0  0  0  0
  -27.2252  -30.7558   26.4584 C   0  0  0  0  0  0  0  0  0  0  0  0
  -26.2142  -32.9068   25.7007 C   0  0  0  0  0  0  0  0  0  0  0  0
  -20.9927  -28.4915   26.0361 C   0  0  0  0  0  0  0  0  0  0  0  0
  -28.0754  -21.1578   22.6975 C   0  0  0  0  0  0  0  0  0  0  0  0
  -25.2816  -30.7242   24.8298 C   0  0  1  0  0  0  0  0  0  0  0  0
  -22.7417  -29.6190   27.4176 C   0  0  2  0  0  0  0  0  0  0  0  0
  -26.5760  -31.4730   25.2555 C   0  0  0  0  0  0  0  0  0  0  0  0
  -26.0913  -11.7241   21.0173 N   0  0  0  0  0  0  0  0  0  0  0  0
  -26.2747  -12.9308   20.4549 N   0  0  0  0  0  0  0  0  0  0  0  0
  -24.4719  -30.5632   22.4969 N   0  0  0  0  0  0  0  0  0  0  0  0
  -29.7837  -14.4331   20.5722 N   0  0  0  0  0  0  0  0  0  0  0  0
  -25.1439  -14.9184   19.8372 N   0  0  0  0  0  0  0  0  0  0  0  0
  -21.8747  -12.3771   21.6401 N   0  0  0  0  0  0  0  0  0  0  0  0
  -29.4329  -16.7478   20.8574 N   0  0  0  0  0  0  0  0  0  0  0  0
  -24.9837  -32.1941   19.2760 N   0  0  0  0  0  0  0  0  0  0  0  0
  -24.2667  -30.6437   25.8747 N   0  0  0  0  0  0  0  0  0  0  0  0
  -28.2183  -22.4674   21.9612 N   0  3  2  0  0  0  0  0  0  0  0  0
  -21.7106  -28.5461   27.3356 N   0  3  0  0  0  0  0  0  0  0  0  0
  -22.3329  -14.3939   20.6494 O   0  0  0  0  0  0  0  0  0  0  0  0
  -26.3507  -31.2331   20.8978 O   0  0  0  0  0  0  0  0  0  0  0  0
  -24.2196  -32.5318   23.7204 O   0  0  0  0  0  0  0  0  0  0  0  0
  -24.1341  -28.3291   25.9227 O   0  0  0  0  0  0  0  0  0  0  0  0
  -31.4476  -15.9449   20.0339 O   0  0  0  0  0  0  0  0  0  0  0  0
  -22.4677   -7.2492   23.7361 O   0  0  0  0  0  0  0  0  0  0  0  0
  -24.7174  -24.8962   20.0724 O   0  0  0  0  0  0  0  0  0  1  0  0
  -21.6198   -2.7847   20.6131 F   0  0  0  0  0  0  0  0  0  0  0  0
  -19.9221   -6.2329   23.3759 F   0  0  0  0  0  0  0  0  0  0  0  0
  -33.1155  -19.9375   22.4437 Cl  0  0  0  0  0  0  0  0  0  0  0  0
  1  2  1  0  0  0  0
  1  5  2  0  0  0  0
  2  6  2  0  0  0  0
  3  8  2  0  0  0  0
  3 17  1  0  0  0  0
  4  9  1  0  0  0  0
  4 17  2  0  0  0  0
  5 19  1  0  0  0  0
  6 21  1  0  0  0  0
  7 10  2  0  0  0  0
  7 20  1  0  0  0  0
  8 26  1  0  0  0  0
  9 26  2  0  0  0  0
 10 27  1  0  0  0  0
 11 12  2  0  0  0  0
 11 28  1  0  0  0  0
 12 29  1  0  0  0  0
 13 22  1  0  0  0  0
 13 27  2  0  0  0  0
 14 23  1  0  0  0  0
 14 31  2  0  0  0  0
 15 25  2  0  0  0  0
 15 31  1  0  0  0  0
 16 29  2  0  0  0  0
 16 30  1  0  0  0  0
 17 32  1  0  0  0  0
 18 32  1  0  0  0  0
 18 33  2  0  0  0  0
 18 38  1  0  0  0  0
 19 21  2  0  0  0  0
 19 43  1  0  0  0  0
 20 22  2  0  0  0  0
 20 44  1  0  0  0  0
 21 56  1  0  0  0  0
 22 45  1  0  0  0  0
 23 24  2  0  0  0  0
 23 67  1  0  0  0  0
 24 25  1  0  0  0  0
 24 60  1  0  0  0  0
 25 77  1  0  0  0  0
 26 87  1  0  0  0  0
 27 88  1  0  0  0  0
 28 30  2  0  0  0  0
 28 87  1  0  0  0  0
 29 89  1  0  0  0  0
 30 90  1  0  0  0  0
 31 91  1  0  0  0  0
 32 71  2  0  0  0  0
 33 72  1  0  0  0  0
 33 75  1  0  0  0  0
 34 35  2  0  0  0  0
 34 46  1  0  0  0  0
 34 80  1  0  0  0  0
 35 36  1  0  0  0  0
 36 37  2  0  0  0  0
 37 61  1  0  0  0  0
 38 76  1  0  0  0  0
 38 82  2  0  0  0  0
 39 57  1  0  0  0  0
 39 78  1  0  0  0  0
 39 83  2  0  0  0  0
 40 68  1  0  0  0  0
 40 73  1  0  0  0  0
 40 84  2  0  0  0  0
 41 69  1  0  0  0  0
 41 79  1  0  0  0  0
 41 85  2  0  0  0  0
 42 74  1  0  0  0  0
 42 77  1  0  0  0  0
 42 86  2  0  0  0  0
 43 47  1  0  0  0  0
 44 57  1  0  0  0  0
 45 73  1  0  0  0  0
 46 59  1  0  0  0  0
 47 50  1  0  0  0  0
 48 51  1  0  0  0  0
 48 53  1  0  0  0  0
 49 52  1  0  0  0  0
 49 55  1  0  0  0  0
 50 56  1  0  0  0  0
 51 58  1  0  0  0  0
 52 59  1  0  0  0  0
 53 74  1  0  0  0  0
 54 58  1  0  0  0  0
 54 74  1  0  0  0  0
 55 80  1  0  0  0  0
 56 78  1  0  0  0  0
 57 73  1  0  0  0  0
 58 72  1  0  0  0  0
 59 88  1  0  0  0  0
 62 69  1  0  0  0  0
 63 70  1  0  0  0  0
 64 70  1  0  0  0  0
 65 70  1  0  0  0  0
 66 81  1  0  0  0  0
 67 80  1  0  0  0  0
 68 70  1  0  0  0  0
 68 79  1  0  0  0  0
 69 81  1  0  0  0  0
 71 72  1  0  0  0  0
M  CHG  2  80   1  81   1
M  ISO  4  42 100  59 101  77 100  88 101
M  END
> <Batch ID>
0037

> <Smiles>
CC=CC=C1C[101CH:1]([101O:1]c2ccc3c(c2)CN(C(=O)C(NC(=O)C(C)NC)C(C)(C)C)C(C(=O)NC2CCCc4ccccc42)C3)CCCN1Cc1cc(Cl)cc([100NH:0][100C:0](=O)N2CCCC(n3nc(-c4ccc(Oc5ccc(F)cc5F)cc4)c(C(N)=O)c3N)C2)c1C

> <Shape>
0.287

> <Color>
0.151

> <Negative vol penalty>
0.000

$$$$

  -OEChem-04042321573D

 92101  0     1  0  0  0  0  0999 V2000
  -28.2192  -34.9670   25.0399 C   0  0  0  0  0  0  0  0  0  0  0  0
  -28.3375  -33.6410   24.6359 C   0  0  0  0  0  0  0  0  0  0  0  0
  -23.4193   -8.6090   19.1678 C   0  0  0  0  0  0  0  0  0  0  0  0
  -24.8114   -8.3608   21.1267 C   0  0  0  0  0  0  0  0  0  0  0  0
  -26.9591  -35.5082   25.2911 C   0  0  0  0  0  0  0  0  0  0  0  0
  -27.1956  -32.8551   24.4841 C   0  0  0  0  0  0  0  0  0  0  0  0
  -27.2715  -30.1214   20.2219 C   0  0  0  0  0  0  0  0  0  0  0  0
  -27.8225  -19.4031   17.8042 C   0  0  0  0  0  0  0  0  0  0  0  0
  -27.9428  -18.0465   18.1054 C   0  0  0  0  0  0  0  0  0  0  0  0
  -22.3134   -8.1751   19.8988 C   0  0  0  0  0  0  0  0  0  0  0  0
  -23.7055   -7.9269   21.8577 C   0  0  0  0  0  0  0  0  0  0  0  0
  -28.0563  -28.9690   20.2185 C   0  0  0  0  0  0  0  0  0  0  0  0
  -21.9173   -5.0800   22.2164 C   0  0  0  0  0  0  0  0  0  0  0  0
  -22.0796   -3.9625   23.0352 C   0  0  0  0  0  0  0  0  0  0  0  0
  -26.0851  -27.6327   20.6028 C   0  0  0  0  0  0  0  0  0  0  0  0
  -30.2692  -18.3774   18.6668 C   0  0  0  0  0  0  0  0  0  0  0  0
  -21.4848   -5.2897   24.9644 C   0  0  0  0  0  0  0  0  0  0  0  0
  -24.6683   -8.7018   19.7818 C   0  0  0  0  0  0  0  0  0  0  0  0
  -26.3550   -8.5529   17.8738 C   0  0  0  0  0  0  0  0  0  0  0  0
  -25.8006  -34.7314   25.1330 C   0  0  0  0  0  0  0  0  0  0  0  0
  -25.8868  -30.0388   20.4270 C   0  0  0  0  0  0  0  0  0  0  0  0
  -25.9189  -33.3861   24.7348 C   0  0  0  0  0  0  0  0  0  0  0  0
  -25.2846  -28.7852   20.6058 C   0  0  0  0  0  0  0  0  0  0  0  0
  -28.9257  -20.2469   17.9342 C   0  0  0  0  0  0  0  0  0  0  0  0
  -30.1490  -19.7340   18.3655 C   0  0  0  0  0  0  0  0  0  0  0  0
  -29.1661  -17.5337   18.5367 C   0  0  0  0  0  0  0  0  0  0  0  0
  -22.4565   -7.8341   21.2437 C   0  0  0  0  0  0  0  0  0  0  0  0
  -27.4635  -27.7247   20.4118 C   0  0  0  0  0  0  0  0  0  0  0  0
  -21.5389   -6.3025   22.7716 C   0  0  0  0  0  0  0  0  0  0  0  0
  -21.8633   -4.0673   24.4092 C   0  0  0  0  0  0  0  0  0  0  0  0
  -21.3226   -6.4073   24.1456 C   0  0  0  0  0  0  0  0  0  0  0  0
  -25.8112   -9.1494   19.0271 C   0  0  0  0  0  0  0  0  0  0  0  0
  -27.4218   -9.3527   17.5440 C   0  0  0  0  0  0  0  0  0  0  0  0
  -27.6072  -23.7734   18.0430 C   0  0  0  0  0  0  0  0  0  0  0  0
  -25.2076  -23.2474   15.3135 C   0  0  0  0  0  0  0  0  0  0  0  0
  -26.7747  -24.0250   17.0178 C   0  0  0  0  0  0  0  0  0  0  0  0
  -26.0358  -22.9964   16.3336 C   0  0  0  0  0  0  0  0  0  0  0  0
  -25.9336   -7.3806   17.1641 C   0  0  0  0  0  0  0  0  0  0  0  0
  -23.8753  -31.1426   22.6269 C   0  0  0  0  0  0  0  0  0  0  0  0
  -21.6320  -29.9194   20.6284 C   0  0  0  0  0  0  0  0  0  0  0  0
  -20.8523  -27.6881   18.1667 C   0  0  0  0  0  0  0  0  0  0  0  0
  -28.2972  -15.1730   18.7747 C   0  0  0  0  0  0  0  0  0  0  0  0
  -24.4635  -35.3467   25.4620 C   0  0  0  0  0  0  0  0  0  0  0  0
  -25.0505  -31.2888   20.4013 C   0  0  0  0  0  0  0  0  0  0  0  0
  -23.7994  -28.6408   20.8099 C   0  0  0  0  0  0  0  0  0  0  0  0
  -28.3591  -24.8800   18.7283 C   0  0  0  0  0  0  0  0  0  0  0  0
  -23.2779  -34.5553   24.9156 C   0  0  0  0  0  0  0  0  0  0  0  0
  -30.2375  -12.2096   20.2504 C   0  0  0  0  0  0  0  0  0  0  0  0
  -27.0785  -23.0156   20.8194 C   0  0  0  0  0  0  0  0  0  0  0  0
  -23.4458  -33.0687   25.2130 C   0  0  0  0  0  0  0  0  0  0  0  0
  -29.7070  -11.0897   19.3583 C   0  0  0  0  0  0  0  0  0  0  0  0
  -27.5965  -24.4181   21.1356 C   0  0  0  0  0  0  0  0  0  0  0  0
  -30.1101  -13.5791   19.5954 C   0  0  0  0  0  0  0  0  0  0  0  0
  -27.7901  -12.7650   19.1366 C   0  0  0  0  0  0  0  0  0  0  0  0
  -28.0259  -22.2183   19.9267 C   0  0  0  0  0  0  0  0  0  0  0  0
  -24.7021  -32.5089   24.5349 C   0  0  1  0  0  0  0  0  0  0  0  0
  -23.7206  -31.1332   21.1323 C   0  0  1  0  0  0  0  0  0  0  0  0
  -28.4393  -11.4893   18.5776 C   0  0  2  0  0  0  0  0  0  0  0  0
  -27.6069  -25.3929   19.9586 C   0  0  1  0  0  0  0  0  0  1  0  0
  -18.9292  -26.8969   16.7620 C   0  0  0  0  0  0  0  0  0  0  0  0
  -20.5240  -28.3786   23.0176 C   0  0  0  0  0  0  0  0  0  0  0  0
  -19.2665  -26.9282   21.4104 C   0  0  0  0  0  0  0  0  0  0  0  0
  -18.7852  -29.3733   21.5204 C   0  0  0  0  0  0  0  0  0  0  0  0
  -22.2072  -28.4820   15.6581 C   0  0  0  0  0  0  0  0  0  0  0  0
  -28.7721  -21.7023   17.6036 C   0  0  0  0  0  0  0  0  0  0  0  0
  -20.9487  -28.5816   20.4790 C   0  0  1  0  0  0  0  0  0  0  0  0
  -20.1065  -27.8551   16.8551 C   0  0  2  0  0  0  0  0  0  0  0  0
  -31.3430  -20.6188   18.5141 C   0  0  0  0  0  0  0  0  0  0  0  0
  -19.9094  -28.3180   21.6050 C   0  0  0  0  0  0  0  0  0  0  0  0
  -26.4775  -10.2437   19.4047 N   0  0  0  0  0  0  0  0  0  0  0  0
  -27.4511  -10.3411   18.4834 N   0  0  0  0  0  0  0  0  0  0  0  0
  -23.0253  -29.8928   20.7828 N   0  0  0  0  0  0  0  0  0  0  0  0
  -28.7416  -13.8821   19.1520 N   0  0  0  0  0  0  0  0  0  0  0  0
  -28.3282   -9.3000   16.5450 N   0  0  0  0  0  0  0  0  0  0  0  0
  -26.4737   -6.1426   17.5384 N   0  0  0  0  0  0  0  0  0  0  0  0
  -29.2883  -16.1556   18.8448 N   0  0  0  0  0  0  0  0  0  0  0  0
  -24.4608  -32.2910   23.1247 N   0  0  0  0  0  0  0  0  0  0  0  0
  -20.3893  -28.5572   19.1318 N   0  0  0  0  0  0  0  0  0  0  0  0
  -27.7367  -22.3959   18.4547 N   0  3  2  0  0  0  0  0  0  0  0  0
  -21.0170  -27.5941   15.7046 N   0  3  0  0  0  0  0  0  0  0  0  0
  -25.1150   -7.4315   16.2149 O   0  0  0  0  0  0  0  0  0  0  0  0
  -23.4905  -30.1799   23.2802 O   0  0  0  0  0  0  0  0  0  0  0  0
  -20.9553  -30.9505   20.6017 O   0  0  0  0  0  0  0  0  0  0  0  0
  -21.7529  -26.8661   18.3208 O   0  0  0  0  0  0  0  0  0  0  0  0
  -27.1378  -15.3778   18.4091 O   0  0  0  0  0  0  0  0  0  0  0  0
  -21.3775   -7.4108   21.9573 O   0  0  0  0  0  0  0  0  0  0  0  0
  -28.2273  -26.5984   20.4096 O   0  0  0  0  0  0  0  0  0  1  0  0
  -22.0177   -2.9937   25.1951 F   0  0  0  0  0  0  0  0  0  0  0  0
  -20.9578   -7.5787   24.6847 F   0  0  0  0  0  0  0  0  0  0  0  0
  -32.4585  -19.9614   18.9468 F   0  0  0  0  0  0  0  0  0  0  0  0
  -31.7161  -21.2299   17.3519 F   0  0  0  0  0  0  0  0  0  0  0  0
  -31.1389  -21.6265   19.4107 F   0  0  0  0  0  0  0  0  0  0  0  0
  1  2  1  0  0  0  0
  1  5  2  0  0  0  0
  2  6  2  0  0  0  0
  3 10  2  0  0  0  0
  3 18  1  0  0  0  0
  4 11  1  0  0  0  0
  4 18  2  0  0  0  0
  5 20  1  0  0  0  0
  6 22  1  0  0  0  0
  7 12  2  0  0  0  0
  7 21  1  0  0  0  0
  8  9  2  0  0  0  0
  8 24  1  0  0  0  0
  9 26  1  0  0  0  0
 10 27  1  0  0  0  0
 11 27  2  0  0  0  0
 12 28  1  0  0  0  0
 13 14  2  0  0  0  0
 13 29  1  0  0  0  0
 14 30  1  0  0  0  0
 15 23  1  0  0  0  0
 15 28  2  0  0  0  0
 16 25  1  0  0  0  0
 16 26  2  0  0  0  0
 17 30  2  0  0  0  0
 17 31  1  0  0  0  0
 18 32  1  0  0  0  0
 19 32  1  0  0  0  0
 19 33  2  0  0  0  0
 19 38  1  0  0  0  0
 20 22  2  0  0  0  0
 20 43  1  0  0  0  0
 21 23  2  0  0  0  0
 21 44  1  0  0  0  0
 22 56  1  0  0  0  0
 23 45  1  0  0  0  0
 24 25  2  0  0  0  0
 24 65  1  0  0  0  0
 25 68  1  0  0  0  0
 26 76  1  0  0  0  0
 27 86  1  0  0  0  0
 28 87  1  0  0  0  0
 29 31  2  0  0  0  0
 29 86  1  0  0  0  0
 30 88  1  0  0  0  0
 31 89  1  0  0  0  0
 32 70  2  0  0  0  0
 33 71  1  0  0  0  0
 33 74  1  0  0  0  0
 34 36  2  0  0  0  0
 34 46  1  0  0  0  0
 34 79  1  0  0  0  0
 35 37  2  0  0  0  0
 36 37  1  0  0  0  0
 38 75  1  0  0  0  0
 38 81  2  0  0  0  0
 39 57  1  0  0  0  0
 39 77  1  0  0  0  0
 39 82  2  0  0  0  0
 40 66  1  0  0  0  0
 40 72  1  0  0  0  0
 40 83  2  0  0  0  0
 41 67  1  0  0  0  0
 41 78  1  0  0  0  0
 41 84  2  0  0  0  0
 42 73  1  0  0  0  0
 42 76  1  0  0  0  0
 42 85  2  0  0  0  0
 43 47  1  0  0  0  0
 44 57  1  0  0  0  0
 45 72  1  0  0  0  0
 46 59  1  0  0  0  0
 47 50  1  0  0  0  0
 48 51  1  0  0  0  0
 48 53  1  0  0  0  0
 49 52  1  0  0  0  0
 49 55  1  0  0  0  0
 50 56  1  0  0  0  0
 51 58  1  0  0  0  0
 52 59  1  0  0  0  0
 53 73  1  0  0  0  0
 54 58  1  0  0  0  0
 54 73  1  0  0  0  0
 55 79  1  0  0  0  0
 56 77  1  0  0  0  0
 57 72  1  0  0  0  0
 58 71  1  0  0  0  0
 59 87  1  0  0  0  0
 60 67  1  0  0  0  0
 61 69  1  0  0  0  0
 62 69  1  0  0  0  0
 63 69  1  0  0  0  0
 64 80  1  0  0  0  0
 65 79  1  0  0  0  0
 66 69  1  0  0  0  0
 66 78  1  0  0  0  0
 67 80  1  0  0  0  0
 68 90  1  0  0  0  0
 68 91  1  0  0  0  0
 68 92  1  0  0  0  0
 70 71  1  0  0  0  0
M  CHG  2  79   1  80   1
M  ISO  4  42 100  59 101  76 100  87 101
M  END
> <Batch ID>
0037

> <Smiles>
C=CC=C1C[101CH:1]([101O:1]c2ccc3c(c2)CN(C(=O)C(NC(=O)C(C)NC)C(C)(C)C)C(C(=O)NC2CCCc4ccccc42)C3)CCCN1Cc1ccc([100NH:0][100C:0](=O)N2CCCC(n3nc(-c4ccc(Oc5ccc(F)cc5F)cc4)c(C(N)=O)c3N)C2)cc1C(F)(F)F

> <Shape>
0.293

> <Color>
0.092

> <Negative vol penalty>
0.000

$$$$

  -OEChem-04042321573D

 88 97  0     1  0  0  0  0  0999 V2000
  -33.3866   -9.4950   16.7286 C   0  0  0  0  0  0  0  0  0  0  0  0
  -33.2679  -10.8524   17.0089 C   0  0  0  0  0  0  0  0  0  0  0  0
  -20.7194  -27.6838   21.5314 C   0  0  0  0  0  0  0  0  0  0  0  0
  -20.2544  -28.7290   23.6594 C   0  0  0  0  0  0  0  0  0  0  0  0
  -32.2477   -8.7387   16.4550 C   0  0  0  0  0  0  0  0  0  0  0  0
  -32.0103  -11.4547   17.0147 C   0  0  0  0  0  0  0  0  0  0  0  0
  -30.1231  -16.0028   20.6561 C   0  0  0  0  0  0  0  0  0  0  0  0
  -19.5440  -26.9407   21.6395 C   0  0  0  0  0  0  0  0  0  0  0  0
  -19.0789  -27.9858   23.7675 C   0  0  0  0  0  0  0  0  0  0  0  0
  -30.0197  -17.3793   20.4607 C   0  0  0  0  0  0  0  0  0  0  0  0
  -15.9399  -28.0974   22.5207 C   0  0  0  0  0  0  0  0  0  0  0  0
  -14.7872  -28.7668   22.9315 C   0  0  0  0  0  0  0  0  0  0  0  0
  -29.6590  -24.1742   21.1893 C   0  0  0  0  0  0  0  0  0  0  0  0
  -27.6915  -17.1168   19.8866 C   0  0  0  0  0  0  0  0  0  0  0  0
  -28.0597  -25.5601   20.0132 C   0  0  0  0  0  0  0  0  0  0  0  0
  -14.6180  -27.3014   24.8449 C   0  0  0  0  0  0  0  0  0  0  0  0
  -21.0747  -28.5780   22.5414 C   0  0  0  0  0  0  0  0  0  0  0  0
  -28.9471  -26.2668   22.1366 C   0  0  0  0  0  0  0  0  0  0  0  0
  -22.6255  -30.2627   21.4169 C   0  0  0  0  0  0  0  0  0  0  0  0
  -30.9745   -9.3299   16.4670 C   0  0  0  0  0  0  0  0  0  0  0  0
  -29.0124  -15.1702   20.4572 C   0  0  0  0  0  0  0  0  0  0  0  0
  -30.8534  -10.7059   16.7397 C   0  0  0  0  0  0  0  0  0  0  0  0
  -29.7230  -25.1023   22.2372 C   0  0  0  0  0  0  0  0  0  0  0  0
  -27.7827  -15.7304   20.0826 C   0  0  0  0  0  0  0  0  0  0  0  0
  -28.8317  -24.4008   20.0863 C   0  0  0  0  0  0  0  0  0  0  0  0
  -28.1149  -26.5000   21.0393 C   0  0  0  0  0  0  0  0  0  0  0  0
  -18.7238  -27.0917   22.7575 C   0  0  0  0  0  0  0  0  0  0  0  0
  -28.8045  -17.9362   20.0731 C   0  0  0  0  0  0  0  0  0  0  0  0
  -16.4317  -27.0299   23.2720 C   0  0  0  0  0  0  0  0  0  0  0  0
  -14.1263  -28.3689   24.0936 C   0  0  0  0  0  0  0  0  0  0  0  0
  -15.7707  -26.6320   24.4340 C   0  0  0  0  0  0  0  0  0  0  0  0
  -22.2890  -29.3455   22.4305 C   0  0  0  0  0  0  0  0  0  0  0  0
  -23.8728  -30.7189   21.7668 C   0  0  0  0  0  0  0  0  0  0  0  0
  -29.0023  -27.2876   23.1920 C   0  0  0  0  0  0  0  0  0  0  0  0
  -21.8774  -30.6662   20.2623 C   0  0  0  0  0  0  0  0  0  0  0  0
  -28.3353  -12.7644   18.4933 C   0  0  0  0  0  0  0  0  0  0  0  0
  -25.6426  -12.5673   20.2913 C   0  0  0  0  0  0  0  0  0  0  0  0
  -22.9479  -13.0659   22.3252 C   0  0  0  0  0  0  0  0  0  0  0  0
  -28.2183  -28.2550   25.1173 C   0  0  0  0  0  0  0  0  0  0  0  0
  -29.7770   -8.4818   16.1186 C   0  0  0  0  0  0  0  0  0  0  0  0
  -29.1335  -13.6905   20.6981 C   0  0  0  0  0  0  0  0  0  0  0  0
  -30.6216  -24.8427   23.4177 C   0  0  0  0  0  0  0  0  0  0  0  0
  -26.5552  -14.8825   19.8758 C   0  0  0  0  0  0  0  0  0  0  0  0
  -30.1083  -28.3151   23.1197 C   0  0  0  0  0  0  0  0  0  0  0  0
  -28.4458   -9.1163   16.5131 C   0  0  0  0  0  0  0  0  0  0  0  0
  -32.0452  -25.3696   23.2382 C   0  0  0  0  0  0  0  0  0  0  0  0
  -31.4133  -27.8310   23.7540 C   0  0  0  0  0  0  0  0  0  0  0  0
  -32.1942  -26.8506   22.8704 C   0  0  0  0  0  0  0  0  0  0  0  0
  -26.6614  -31.4831   25.5682 C   0  0  0  0  0  0  0  0  0  0  0  0
  -28.4039  -10.5795   16.0842 C   0  0  0  0  0  0  0  0  0  0  0  0
  -25.3759  -31.3665   24.7498 C   0  0  0  0  0  0  0  0  0  0  0  0
  -27.0334  -30.1540   26.2178 C   0  0  0  0  0  0  0  0  0  0  0  0
  -25.8637  -28.9010   24.4250 C   0  0  0  0  0  0  0  0  0  0  0  0
  -29.5042  -11.3901   16.7798 C   0  0  1  0  0  0  0  0  0  0  0  0
  -28.0693  -12.8771   19.9678 C   0  0  1  0  0  0  0  0  0  0  0  0
  -25.4720  -30.2170   23.7311 C   0  0  1  0  0  0  0  0  0  0  0  0
  -27.2828  -27.7357   20.9272 C   0  0  0  0  0  0  0  0  0  0  0  0
  -20.6498  -12.1786   22.8033 C   0  0  0  0  0  0  0  0  0  0  0  0
  -24.5902  -13.9479   17.7820 C   0  0  0  0  0  0  0  0  0  0  0  0
  -22.2966  -13.8642   18.7823 C   0  0  0  0  0  0  0  0  0  0  0  0
  -23.5181  -11.7460   18.2887 C   0  0  0  0  0  0  0  0  0  0  0  0
  -23.6734  -12.3581   25.1058 C   0  0  0  0  0  0  0  0  0  0  0  0
  -28.7737  -23.3980   18.9832 C   0  0  0  0  0  0  0  0  0  0  0  0
  -28.1949  -21.0560   18.3357 C   0  0  0  0  0  0  0  0  0  0  0  0
  -27.7516  -19.7276   18.9161 C   0  0  0  0  0  0  0  0  0  1  0  0
  -24.2669  -13.1856   20.2275 C   0  0  1  0  0  0  0  0  0  0  0  0
  -22.1257  -12.1026   23.1621 C   0  0  2  0  0  0  0  0  0  0  0  0
  -23.6893  -13.1986   18.7840 C   0  0  0  0  0  0  0  0  0  0  0  0
  -23.2455  -29.2249   23.3550 N   0  0  0  0  0  0  0  0  0  0  0  0
  -28.1330  -27.2779   24.1431 N   0  0  0  0  0  0  0  0  0  0  0  0
  -24.1953  -30.0722   22.9236 N   0  0  0  0  0  0  0  0  0  0  0  0
  -26.7259  -13.4403   20.1175 N   0  0  0  0  0  0  0  0  0  0  0  0
  -27.0817  -29.0776   25.2271 N   0  0  0  0  0  0  0  0  0  0  0  0
  -24.7144  -31.6060   21.1948 N   0  0  0  0  0  0  0  0  0  0  0  0
  -21.0133  -31.7638   20.3761 N   0  0  0  0  0  0  0  0  0  0  0  0
  -29.1269  -11.6866   18.1452 N   0  0  0  0  0  0  0  0  0  0  0  0
  -23.4480  -12.4596   21.1922 N   0  0  0  0  0  0  0  0  0  0  0  0
  -22.2740  -12.4185   24.6110 N   0  3  0  0  0  0  0  0  0  0  0  0
  -28.3140  -22.0543   19.4303 N   0  3  0  0  0  0  0  0  0  0  0  0
  -21.9600  -30.0609   19.1667 O   0  0  0  0  0  0  0  0  0  0  0  0
  -27.8566  -13.5930   17.7279 O   0  0  0  0  0  0  0  0  0  0  0  0
  -25.7522  -11.3557   20.4951 O   0  0  0  0  0  0  0  0  0  0  0  0
  -23.1256  -14.2399   22.6428 O   0  0  0  0  0  0  0  0  0  0  0  0
  -29.2005  -28.4143   25.8463 O   0  0  0  0  0  0  0  0  0  0  0  0
  -17.5766  -26.3668   22.8633 O   0  0  0  0  0  0  0  0  0  0  0  0
  -28.7002  -19.2891   19.8797 O   0  0  0  0  0  0  0  0  0  1  0  0
  -13.0202  -29.0128   24.4887 F   0  0  0  0  0  0  0  0  0  0  0  0
  -16.2390  -25.6079   25.1606 F   0  0  0  0  0  0  0  0  0  0  0  0
  1  2  1  0  0  0  0
  1  5  2  0  0  0  0
  2  6  2  0  0  0  0
  3  8  2  0  0  0  0
  3 17  1  0  0  0  0
  4  9  1  0  0  0  0
  4 17  2  0  0  0  0
  5 20  1  0  0  0  0
  6 22  1  0  0  0  0
  7 10  2  0  0  0  0
  7 21  1  0  0  0  0
  8 27  1  0  0  0  0
  9 27  2  0  0  0  0
 10 28  1  0  0  0  0
 11 12  2  0  0  0  0
 11 29  1  0  0  0  0
 12 30  1  0  0  0  0
 13 23  1  0  0  0  0
 13 25  2  0  0  0  0
 14 24  1  0  0  0  0
 14 28  2  0  0  0  0
 15 25  1  0  0  0  0
 15 26  2  0  0  0  0
 16 30  2  0  0  0  0
 16 31  1  0  0  0  0
 17 32  1  0  0  0  0
 18 23  2  0  0  0  0
 18 26  1  0  0  0  0
 18 34  1  0  0  0  0
 19 32  1  0  0  0  0
 19 33  2  0  0  0  0
 19 35  1  0  0  0  0
 20 22  2  0  0  0  0
 20 40  1  0  0  0  0
 21 24  2  0  0  0  0
 21 41  1  0  0  0  0
 22 54  1  0  0  0  0
 23 42  1  0  0  0  0
 24 43  1  0  0  0  0
 25 63  1  0  0  0  0
 26 57  1  0  0  0  0
 27 85  1  0  0  0  0
 28 86  1  0  0  0  0
 29 31  2  0  0  0  0
 29 85  1  0  0  0  0
 30 87  1  0  0  0  0
 31 88  1  0  0  0  0
 32 69  2  0  0  0  0
 33 71  1  0  0  0  0
 33 74  1  0  0  0  0
 34 44  1  0  0  0  0
 34 70  2  0  0  0  0
 35 75  1  0  0  0  0
 35 80  2  0  0  0  0
 36 55  1  0  0  0  0
 36 76  1  0  0  0  0
 36 81  2  0  0  0  0
 37 66  1  0  0  0  0
 37 72  1  0  0  0  0
 37 82  2  0  0  0  0
 38 67  1  0  0  0  0
 38 77  1  0  0  0  0
 38 83  2  0  0  0  0
 39 70  1  0  0  0  0
 39 73  1  0  0  0  0
 39 84  2  0  0  0  0
 40 45  1  0  0  0  0
 41 55  1  0  0  0  0
 42 46  1  0  0  0  0
 43 72  1  0  0  0  0
 44 47  1  0  0  0  0
 45 50  1  0  0  0  0
 46 48  1  0  0  0  0
 47 48  1  0  0  0  0
 49 51  1  0  0  0  0
 49 52  1  0  0  0  0
 50 54  1  0  0  0  0
 51 56  1  0  0  0  0
 52 73  1  0  0  0  0
 53 56  1  0  0  0  0
 53 73  1  0  0  0  0
 54 76  1  0  0  0  0
 55 72  1  0  0  0  0
 56 71  1  0  0  0  0
 58 67  1  0  0  0  0
 59 68  1  0  0  0  0
 60 68  1  0  0  0  0
 61 68  1  0  0  0  0
 62 78  1  0  0  0  0
 63 79  1  0  0  0  0
 64 65  1  0  0  0  0
 64 79  1  0  0  0  0
 65 86  1  0  0  0  0
 66 68  1  0  0  0  0
 66 77  1  0  0  0  0
 67 78  1  0  0  0  0
 69 71  1  0  0  0  0
M  CHG  2  78   1  79   1
M  ISO  4  39 100  65 101  70 100  86 101
M  END
> <Batch ID>
0037

> <Smiles>
CNC(C)C(=O)NC(C(=O)N1Cc2cc([101O:1][101CH2:1]CNCc3cc(C)c4c(c3)CCCCCC4=[100N:0][100C:0](=O)N3CCCC(n4nc(-c5ccc(Oc6ccc(F)cc6F)cc5)c(C(N)=O)c4N)C3)ccc2CC1C(=O)NC1CCCc2ccccc21)C(C)(C)C

> <Shape>
0.284

> <Color>
0.050

> <Negative vol penalty>
0.000

$$$$

  -OEChem-04042321573D

 91100  0     1  0  0  0  0  0999 V2000
  -21.7316  -28.7825   22.6667 C   0  0  0  0  0  0  0  0  0  0  0  0
  -22.1247  -27.4826   22.3650 C   0  0  0  0  0  0  0  0  0  0  0  0
  -23.2360  -10.2764   22.1593 C   0  0  0  0  0  0  0  0  0  0  0  0
  -23.5794   -9.5642   19.8764 C   0  0  0  0  0  0  0  0  0  0  0  0
  -22.5602  -29.8543   22.3372 C   0  0  0  0  0  0  0  0  0  0  0  0
  -23.3462  -27.2538   21.7325 C   0  0  0  0  0  0  0  0  0  0  0  0
  -28.6587  -22.4584   21.4189 C   0  0  0  0  0  0  0  0  0  0  0  0
  -22.4758   -9.1324   22.4019 C   0  0  0  0  0  0  0  0  0  0  0  0
  -22.8192   -8.4201   20.1189 C   0  0  0  0  0  0  0  0  0  0  0  0
  -29.3841  -21.7139   20.4898 C   0  0  0  0  0  0  0  0  0  0  0  0
  -23.0345   -5.8579   23.0333 C   0  0  0  0  0  0  0  0  0  0  0  0
  -23.2801   -5.1544   24.2124 C   0  0  0  0  0  0  0  0  0  0  0  0
  -30.7693  -23.6368   20.0394 C   0  0  0  0  0  0  0  0  0  0  0  0
  -30.3015  -18.9992   23.1922 C   0  0  0  0  0  0  0  0  0  0  0  0
  -31.8666  -17.3170   21.6100 C   0  0  0  0  0  0  0  0  0  0  0  0
  -20.9934   -5.5148   24.9039 C   0  0  0  0  0  0  0  0  0  0  0  0
  -23.7878  -10.4924   20.8965 C   0  0  0  0  0  0  0  0  0  0  0  0
  -24.1530  -13.0132   20.7574 C   0  0  0  0  0  0  0  0  0  0  0  0
  -23.7968  -29.6378   21.7091 C   0  0  0  0  0  0  0  0  0  0  0  0
  -28.9767  -23.8031   21.6576 C   0  0  0  0  0  0  0  0  0  0  0  0
  -24.1915  -28.3238   21.3931 C   0  0  0  0  0  0  0  0  0  0  0  0
  -30.0480  -24.3955   20.9739 C   0  0  0  0  0  0  0  0  0  0  0  0
  -31.5968  -19.3787   22.8404 C   0  0  0  0  0  0  0  0  0  0  0  0
  -29.7887  -17.7786   22.7531 C   0  0  0  0  0  0  0  0  0  0  0  0
  -32.3793  -18.5376   22.0493 C   0  0  0  0  0  0  0  0  0  0  0  0
  -30.5713  -16.9375   21.9620 C   0  0  0  0  0  0  0  0  0  0  0  0
  -22.2674   -8.2042   21.3817 C   0  0  0  0  0  0  0  0  0  0  0  0
  -30.4377  -22.3038   19.7978 C   0  0  0  0  0  0  0  0  0  0  0  0
  -21.7683   -6.3901   22.7895 C   0  0  0  0  0  0  0  0  0  0  0  0
  -22.2596   -4.9828   25.1476 C   0  0  0  0  0  0  0  0  0  0  0  0
  -20.7478   -6.2185   23.7248 C   0  0  0  0  0  0  0  0  0  0  0  0
  -24.5728  -11.6742   20.6452 C   0  0  0  0  0  0  0  0  0  0  0  0
  -25.2600  -13.7500   20.4136 C   0  0  0  0  0  0  0  0  0  0  0  0
  -22.8767  -13.5437   21.1386 C   0  0  0  0  0  0  0  0  0  0  0  0
  -27.4404  -26.5654   21.3207 C   0  0  0  0  0  0  0  0  0  0  0  0
  -30.0741  -27.7623   22.7882 C   0  0  0  0  0  0  0  0  0  0  0  0
  -33.6420  -27.2530   22.6213 C   0  0  0  0  0  0  0  0  0  0  0  0
  -30.7284  -14.7546   20.7143 C   0  0  0  0  0  0  0  0  0  0  0  0
  -24.6371  -30.8314   21.3297 C   0  0  0  0  0  0  0  0  0  0  0  0
  -28.2015  -24.5849   22.6825 C   0  0  0  0  0  0  0  0  0  0  0  0
  -30.4426  -25.8299   21.2085 C   0  0  0  0  0  0  0  0  0  0  0  0
  -26.0845  -30.4768   20.9984 C   0  0  0  0  0  0  0  0  0  0  0  0
  -32.6398  -20.2371   27.8982 C   0  0  0  0  0  0  0  0  0  0  0  0
  -31.6912  -21.4112   27.6631 C   0  0  0  0  0  0  0  0  0  0  0  0
  -29.6542  -12.3233   18.3453 C   0  0  0  0  0  0  0  0  0  0  0  0
  -32.8615  -19.3227   26.6973 C   0  0  0  0  0  0  0  0  0  0  0  0
  -32.2908  -22.4709   26.7437 C   0  0  0  0  0  0  0  0  0  0  0  0
  -26.1386  -29.2701   20.0669 C   0  0  0  0  0  0  0  0  0  0  0  0
  -28.2019  -12.0479   18.7417 C   0  0  0  0  0  0  0  0  0  0  0  0
  -30.5407  -12.5584   19.5670 C   0  0  0  0  0  0  0  0  0  0  0  0
  -28.6056  -13.3131   20.8918 C   0  0  0  0  0  0  0  0  0  0  0  0
  -33.3103  -20.0185   25.4175 C   0  0  0  0  0  0  0  0  0  0  0  0
  -32.0898  -22.2464   25.2498 C   0  0  0  0  0  0  0  0  0  0  0  0
  -25.5203  -28.0333   20.7298 C   0  0  1  0  0  0  0  0  0  0  0  0
  -28.2841  -26.0935   22.4710 C   0  0  1  0  0  0  0  0  0  0  0  0
  -27.6613  -13.1344   19.6919 C   0  0  2  0  0  0  0  0  0  0  0  0
  -28.3980  -17.3977   23.1451 C   0  0  0  0  0  0  0  0  0  0  0  0
  -35.4212  -27.5898   24.3586 C   0  0  0  0  0  0  0  0  0  0  0  0
  -30.3820  -30.5209   21.5212 C   0  0  0  0  0  0  0  0  0  0  0  0
  -32.8549  -30.3229   21.8583 C   0  0  0  0  0  0  0  0  0  0  0  0
  -31.3253  -30.3216   23.8288 C   0  0  0  0  0  0  0  0  0  0  0  0
  -34.6051  -24.4685   22.3418 C   0  0  0  0  0  0  0  0  0  0  0  0
  -32.1245  -20.6900   23.3226 C   0  0  0  0  0  0  0  0  0  0  0  0
  -33.7752  -18.9245   21.6584 C   0  0  0  0  0  0  0  0  0  0  0  0
  -33.2909  -20.6849   18.2928 C   0  0  0  0  0  0  0  0  0  0  0  0
  -33.2163  -19.5531   19.3066 C   0  0  0  0  0  0  0  0  0  0  0  0
  -32.5179  -21.9310   18.7070 C   0  0  0  0  0  0  0  0  0  1  0  0
  -31.4091  -28.2921   22.3234 C   0  0  1  0  0  0  0  0  0  0  0  0
  -34.5144  -26.5833   23.6677 C   0  0  2  0  0  0  0  0  0  0  0  0
  -31.4786  -29.8447   22.3680 C   0  0  0  0  0  0  0  0  0  0  0  0
  -25.8469  -11.5638   20.2599 N   0  0  0  0  0  0  0  0  0  0  0  0
  -26.2373  -12.8429   20.1270 N   0  0  0  0  0  0  0  0  0  0  0  0
  -29.6503  -26.5546   22.2159 N   0  0  0  0  0  0  0  0  0  0  0  0
  -29.9683  -13.6033   20.4187 N   0  0  0  0  0  0  0  0  0  0  0  0
  -25.4830  -15.0789   20.3312 N   0  0  0  0  0  0  0  0  0  0  0  0
  -21.8493  -12.6463   21.4602 N   0  0  0  0  0  0  0  0  0  0  0  0
  -30.0682  -15.6938   21.5059 N   0  0  0  0  0  0  0  0  0  0  0  0
  -26.4450  -27.4538   21.6803 N   0  0  0  0  0  0  0  0  0  0  0  0
  -32.4190  -27.6251   23.1380 N   0  0  0  0  0  0  0  0  0  0  0  0
  -32.1603  -20.8025   24.8275 N   0  3  0  0  0  0  0  0  0  0  0  0
  -35.3679  -25.5366   23.0378 N   0  3  0  0  0  0  0  0  0  0  0  0
  -33.8159  -19.9677   20.5966 N   0  3  0  0  0  0  0  0  0  0  0  0
  -22.6491  -14.7767   21.1764 O   0  0  0  0  0  0  0  0  0  0  0  0
  -27.6762  -26.1551   20.1903 O   0  0  0  0  0  0  0  0  0  0  0  0
  -29.4342  -28.3930   23.6335 O   0  0  0  0  0  0  0  0  0  0  0  0
  -34.0102  -27.4317   21.4624 O   0  0  0  0  0  0  0  0  0  0  0  0
  -31.8702  -14.9093   20.2734 O   0  0  0  0  0  0  0  0  0  0  0  0
  -21.5258   -7.0877   21.6181 O   0  0  0  0  0  0  0  0  0  0  0  0
  -31.1470  -21.5795   18.8899 O   0  0  0  0  0  0  0  0  0  1  0  0
  -22.4952   -4.3057   26.2791 F   0  0  0  0  0  0  0  0  0  0  0  0
  -19.5290   -6.7264   23.4956 F   0  0  0  0  0  0  0  0  0  0  0  0
  1  2  1  0  0  0  0
  1  5  2  0  0  0  0
  2  6  2  0  0  0  0
  3  8  2  0  0  0  0
  3 17  1  0  0  0  0
  4  9  1  0  0  0  0
  4 17  2  0  0  0  0
  5 19  1  0  0  0  0
  6 21  1  0  0  0  0
  7 10  2  0  0  0  0
  7 20  1  0  0  0  0
  8 27  1  0  0  0  0
  9 27  2  0  0  0  0
 10 28  1  0  0  0  0
 11 12  2  0  0  0  0
 11 29  1  0  0  0  0
 12 30  1  0  0  0  0
 13 22  1  0  0  0  0
 13 28  2  0  0  0  0
 14 23  1  0  0  0  0
 14 24  2  0  0  0  0
 15 25  1  0  0  0  0
 15 26  2  0  0  0  0
 16 30  2  0  0  0  0
 16 31  1  0  0  0  0
 17 32  1  0  0  0  0
 18 32  1  0  0  0  0
 18 33  2  0  0  0  0
 18 34  1  0  0  0  0
 19 21  2  0  0  0  0
 19 39  1  0  0  0  0
 20 22  2  0  0  0  0
 20 40  1  0  0  0  0
 21 54  1  0  0  0  0
 22 41  1  0  0  0  0
 23 25  2  0  0  0  0
 23 63  1  0  0  0  0
 24 26  1  0  0  0  0
 24 57  1  0  0  0  0
 25 64  1  0  0  0  0
 26 77  1  0  0  0  0
 27 88  1  0  0  0  0
 28 89  1  0  0  0  0
 29 31  2  0  0  0  0
 29 88  1  0  0  0  0
 30 90  1  0  0  0  0
 31 91  1  0  0  0  0
 32 71  2  0  0  0  0
 33 72  1  0  0  0  0
 33 75  1  0  0  0  0
 34 76  1  0  0  0  0
 34 83  2  0  0  0  0
 35 55  1  0  0  0  0
 35 78  1  0  0  0  0
 35 84  2  0  0  0  0
 36 68  1  0  0  0  0
 36 73  1  0  0  0  0
 36 85  2  0  0  0  0
 37 69  1  0  0  0  0
 37 79  1  0  0  0  0
 37 86  2  0  0  0  0
 38 74  1  0  0  0  0
 38 77  1  0  0  0  0
 38 87  2  0  0  0  0
 39 42  1  0  0  0  0
 40 55  1  0  0  0  0
 41 73  1  0  0  0  0
 42 48  1  0  0  0  0
 43 44  1  0  0  0  0
 43 46  1  0  0  0  0
 44 47  1  0  0  0  0
 45 49  1  0  0  0  0
 45 50  1  0  0  0  0
 46 52  1  0  0  0  0
 47 53  1  0  0  0  0
 48 54  1  0  0  0  0
 49 56  1  0  0  0  0
 50 74  1  0  0  0  0
 51 56  1  0  0  0  0
 51 74  1  0  0  0  0
 52 80  1  0  0  0  0
 53 80  1  0  0  0  0
 54 78  1  0  0  0  0
 55 73  1  0  0  0  0
 56 72  1  0  0  0  0
 58 69  1  0  0  0  0
 59 70  1  0  0  0  0
 60 70  1  0  0  0  0
 61 70  1  0  0  0  0
 62 81  1  0  0  0  0
 63 80  1  0  0  0  0
 64 82  1  0  0  0  0
 65 66  1  0  0  0  0
 65 67  1  0  0  0  0
 66 82  1  0  0  0  0
 67 89  1  0  0  0  0
 68 70  1  0  0  0  0
 68 79  1  0  0  0  0
 69 81  1  0  0  0  0
 71 72  1  0  0  0  0
M  CHG  3  80   1  81   1  82   1
M  ISO  4  38 100  67 101  77 100  89 101
M  END
> <Batch ID>
0037

> <Smiles>
CNC(C)C(=O)NC(C(=O)N1Cc2cc([101O:1][101CH2:1]CCNCc3cc([100NH:0][100C:0](=O)N4CCCC(n5nc(-c6ccc(Oc7ccc(F)cc7F)cc6)c(C(N)=O)c5N)C4)c(C)cc3CN3CCCCCC3)ccc2CC1C(=O)NC1CCCc2ccccc21)C(C)(C)C

> <Shape>
0.284

> <Color>
0.218

> <Negative vol penalty>
0.000

$$$$

  -OEChem-04042321573D

 87 96  0     1  0  0  0  0  0999 V2000
  -16.7701  -29.1754   24.2315 C   0  0  0  0  0  0  0  0  0  0  0  0
  -17.2228  -28.2253   23.3217 C   0  0  0  0  0  0  0  0  0  0  0  0
  -26.1575  -11.8785   21.2661 C   0  0  0  0  0  0  0  0  0  0  0  0
  -25.6577  -13.5458   19.5906 C   0  0  0  0  0  0  0  0  0  0  0  0
  -17.4577  -30.3791   24.3808 C   0  0  0  0  0  0  0  0  0  0  0  0
  -18.3628  -28.4788   22.5598 C   0  0  0  0  0  0  0  0  0  0  0  0
  -21.5022  -24.5092   22.3808 C   0  0  0  0  0  0  0  0  0  0  0  0
  -24.8036  -11.8004   21.5923 C   0  0  0  0  0  0  0  0  0  0  0  0
  -24.3037  -13.4677   19.9167 C   0  0  0  0  0  0  0  0  0  0  0  0
  -21.1645  -23.4689   21.5163 C   0  0  0  0  0  0  0  0  0  0  0  0
  -22.0183  -10.3523   20.3360 C   0  0  0  0  0  0  0  0  0  0  0  0
  -21.4622   -9.0832   20.4960 C   0  0  0  0  0  0  0  0  0  0  0  0
  -22.7364  -24.3151   19.8938 C   0  0  0  0  0  0  0  0  0  0  0  0
  -25.0441  -20.5794   22.5700 C   0  0  0  0  0  0  0  0  0  0  0  0
  -26.0963  -18.6811   21.5089 C   0  0  0  0  0  0  0  0  0  0  0  0
  -20.8768   -9.6271   22.7761 C   0  0  0  0  0  0  0  0  0  0  0  0
  -26.5846  -12.7513   20.2653 C   0  0  0  0  0  0  0  0  0  0  0  0
  -28.8059  -11.7926   19.4564 C   0  0  0  0  0  0  0  0  0  0  0  0
  -18.6123  -30.6435   23.6273 C   0  0  0  0  0  0  0  0  0  0  0  0
  -22.4531  -25.4682   22.0033 C   0  0  0  0  0  0  0  0  0  0  0  0
  -19.0658  -29.6877   22.6982 C   0  0  0  0  0  0  0  0  0  0  0  0
  -23.0862  -25.3652   20.7564 C   0  0  0  0  0  0  0  0  0  0  0  0
  -24.9478  -19.4118   21.8132 C   0  0  0  0  0  0  0  0  0  0  0  0
  -26.2891  -21.0165   23.0225 C   0  0  0  0  0  0  0  0  0  0  0  0
  -27.4376  -20.2859   22.7183 C   0  0  0  0  0  0  0  0  0  0  0  0
  -27.3413  -19.1181   21.9615 C   0  0  0  0  0  0  0  0  0  0  0  0
  -23.8767  -12.5949   20.9176 C   0  0  0  0  0  0  0  0  0  0  0  0
  -21.7795  -23.3734   20.2714 C   0  0  0  0  0  0  0  0  0  0  0  0
  -22.0037  -11.2589   21.3961 C   0  0  0  0  0  0  0  0  0  0  0  0
  -20.8914   -8.7206   21.7160 C   0  0  0  0  0  0  0  0  0  0  0  0
  -21.4329  -10.8963   22.6161 C   0  0  0  0  0  0  0  0  0  0  0  0
  -27.9831  -12.8328   19.9283 C   0  0  0  0  0  0  0  0  0  0  0  0
  -30.0371  -12.3778   19.2887 C   0  0  0  0  0  0  0  0  0  0  0  0
  -22.3741  -18.3156   19.3356 C   0  0  0  0  0  0  0  0  0  0  0  0
  -22.7650  -17.2617   18.6034 C   0  0  0  0  0  0  0  0  0  0  0  0
  -28.4859  -10.4200   19.1931 C   0  0  0  0  0  0  0  0  0  0  0  0
  -22.4069  -28.6130   21.5430 C   0  0  0  0  0  0  0  0  0  0  0  0
  -25.6047  -28.2133   21.1730 C   0  0  0  0  0  0  0  0  0  0  0  0
  -27.7930  -25.8377   19.5651 C   0  0  0  0  0  0  0  0  0  0  0  0
  -28.7135  -17.5685   20.5107 C   0  0  0  0  0  0  0  0  0  0  0  0
  -19.2949  -31.9786   23.7893 C   0  0  0  0  0  0  0  0  0  0  0  0
  -22.8258  -26.5690   22.9582 C   0  0  0  0  0  0  0  0  0  0  0  0
  -24.1283  -26.3575   20.3118 C   0  0  0  0  0  0  0  0  0  0  0  0
  -20.9289  -18.6394   19.6006 C   0  0  0  0  0  0  0  0  0  0  0  0
  -20.7086  -32.0136   23.2143 C   0  0  0  0  0  0  0  0  0  0  0  0
  -20.6407  -20.0964   19.2592 C   0  0  0  0  0  0  0  0  0  0  0  0
  -32.2052  -16.1672   21.3538 C   0  0  0  0  0  0  0  0  0  0  0  0
  -20.7345  -31.3891   21.8228 C   0  0  0  0  0  0  0  0  0  0  0  0
  -31.7592  -14.7627   20.9675 C   0  0  0  0  0  0  0  0  0  0  0  0
  -30.9923  -17.0737   21.5449 C   0  0  0  0  0  0  0  0  0  0  0  0
  -30.3702  -16.1562   19.3081 C   0  0  0  0  0  0  0  0  0  0  0  0
  -23.0953  -20.6250   19.5047 C   0  0  0  0  0  0  0  0  0  0  0  0
  -20.3126  -29.9156   21.8715 C   0  0  1  0  0  0  0  0  0  0  0  0
  -23.4326  -27.7835   22.2624 C   0  0  1  0  0  0  0  0  0  0  0  0
  -30.9454  -14.7684   19.6579 C   0  0  2  0  0  0  0  0  0  0  0  0
  -21.6744  -21.0302   19.8885 C   0  0  1  0  0  0  0  0  0  1  0  0
  -26.3646  -22.2712   23.8295 C   0  0  0  0  0  0  0  0  0  0  0  0
  -28.7711  -20.7597   23.2055 C   0  0  0  0  0  0  0  0  0  0  0  0
  -30.1608  -25.1892   20.0849 C   0  0  0  0  0  0  0  0  0  0  0  0
  -26.3336  -30.3288   19.0985 C   0  0  0  0  0  0  0  0  0  0  0  0
  -28.1714  -28.8224   18.3101 C   0  0  0  0  0  0  0  0  0  0  0  0
  -28.1953  -29.6995   20.6453 C   0  0  0  0  0  0  0  0  0  0  0  0
  -27.0829  -22.9729   19.7833 C   0  0  0  0  0  0  0  0  0  0  0  0
  -23.6089  -18.9424   21.3252 C   0  0  0  0  0  0  0  0  0  0  0  0
  -26.5175  -27.9191   20.0071 C   0  0  1  0  0  0  0  0  0  0  0  0
  -28.6935  -24.8245   20.2485 C   0  0  2  0  0  0  0  0  0  0  0  0
  -27.2775  -29.1833   19.5157 C   0  0  0  0  0  0  0  0  0  0  0  0
  -28.6366  -13.9911   20.0526 N   0  0  0  0  0  0  0  0  0  0  0  0
  -29.8830  -13.6821   19.6564 N   0  0  0  0  0  0  0  0  0  0  0  0
  -24.4539  -27.4193   21.2782 N   0  0  0  0  0  0  0  0  0  0  0  0
  -29.9807  -16.9340   20.4870 N   0  0  0  0  0  0  0  0  0  0  0  0
  -31.2257  -11.8988   18.8642 N   0  0  0  0  0  0  0  0  0  0  0  0
  -28.0402  -10.0720   17.9107 N   0  0  0  0  0  0  0  0  0  0  0  0
  -28.4957  -18.3597   21.6418 N   0  0  0  0  0  0  0  0  0  0  0  0
  -21.4003  -29.0943   22.3582 N   0  0  0  0  0  0  0  0  0  0  0  0
  -27.3865  -26.8279   20.4343 N   0  0  0  0  0  0  0  0  0  0  0  0
  -23.3974  -19.1889   19.8570 N   0  3  1  0  0  0  0  0  0  0  0  0
  -28.4791  -23.4678   19.6702 N   0  3  0  0  0  0  0  0  0  0  0  0
  -28.5763   -9.5313   20.0738 O   0  0  0  0  0  0  0  0  0  0  0  0
  -22.5212  -28.8035   20.3379 O   0  0  0  0  0  0  0  0  0  0  0  0
  -25.9054  -29.1097   21.9652 O   0  0  0  0  0  0  0  0  0  0  0  0
  -27.4843  -25.7607   18.3780 O   0  0  0  0  0  0  0  0  0  0  0  0
  -27.8978  -17.4202   19.5984 O   0  0  0  0  0  0  0  0  0  0  0  0
  -22.5554  -12.5188   21.2354 O   0  0  0  0  0  0  0  0  0  0  0  0
  -21.4513  -22.3593   19.4253 O   0  0  0  0  0  0  0  0  0  1  0  0
  -20.3561   -7.5023   21.8690 F   0  0  0  0  0  0  0  0  0  0  0  0
  -21.4148  -11.7633   23.6377 F   0  0  0  0  0  0  0  0  0  0  0  0
  1  2  1  0  0  0  0
  1  5  2  0  0  0  0
  2  6  2  0  0  0  0
  3  8  2  0  0  0  0
  3 17  1  0  0  0  0
  4  9  1  0  0  0  0
  4 17  2  0  0  0  0
  5 19  1  0  0  0  0
  6 21  1  0  0  0  0
  7 10  2  0  0  0  0
  7 20  1  0  0  0  0
  8 27  1  0  0  0  0
  9 27  2  0  0  0  0
 10 28  1  0  0  0  0
 11 12  2  0  0  0  0
 11 29  1  0  0  0  0
 12 30  1  0  0  0  0
 13 22  1  0  0  0  0
 13 28  2  0  0  0  0
 14 23  1  0  0  0  0
 14 24  2  0  0  0  0
 15 23  2  0  0  0  0
 15 26  1  0  0  0  0
 16 30  2  0  0  0  0
 16 31  1  0  0  0  0
 17 32  1  0  0  0  0
 18 32  1  0  0  0  0
 18 33  2  0  0  0  0
 18 36  1  0  0  0  0
 19 21  2  0  0  0  0
 19 41  1  0  0  0  0
 20 22  2  0  0  0  0
 20 42  1  0  0  0  0
 21 53  1  0  0  0  0
 22 43  1  0  0  0  0
 23 64  1  0  0  0  0
 24 25  1  0  0  0  0
 24 57  1  0  0  0  0
 25 26  2  0  0  0  0
 25 58  1  0  0  0  0
 26 74  1  0  0  0  0
 27 84  1  0  0  0  0
 28 85  1  0  0  0  0
 29 31  2  0  0  0  0
 29 84  1  0  0  0  0
 30 86  1  0  0  0  0
 31 87  1  0  0  0  0
 32 68  2  0  0  0  0
 33 69  1  0  0  0  0
 33 72  1  0  0  0  0
 34 35  2  0  0  0  0
 34 44  1  0  0  0  0
 34 77  1  0  0  0  0
 36 73  1  0  0  0  0
 36 79  2  0  0  0  0
 37 54  1  0  0  0  0
 37 75  1  0  0  0  0
 37 80  2  0  0  0  0
 38 65  1  0  0  0  0
 38 70  1  0  0  0  0
 38 81  2  0  0  0  0
 39 66  1  0  0  0  0
 39 76  1  0  0  0  0
 39 82  2  0  0  0  0
 40 71  1  0  0  0  0
 40 74  1  0  0  0  0
 40 83  2  0  0  0  0
 41 45  1  0  0  0  0
 42 54  1  0  0  0  0
 43 70  1  0  0  0  0
 44 46  1  0  0  0  0
 45 48  1  0  0  0  0
 46 56  1  0  0  0  0
 47 49  1  0  0  0  0
 47 50  1  0  0  0  0
 48 53  1  0  0  0  0
 49 55  1  0  0  0  0
 50 71  1  0  0  0  0
 51 55  1  0  0  0  0
 51 71  1  0  0  0  0
 52 56  1  0  0  0  0
 52 77  1  0  0  0  0
 53 75  1  0  0  0  0
 54 70  1  0  0  0  0
 55 69  1  0  0  0  0
 56 85  1  0  0  0  0
 59 66  1  0  0  0  0
 60 67  1  0  0  0  0
 61 67  1  0  0  0  0
 62 67  1  0  0  0  0
 63 78  1  0  0  0  0
 64 77  1  0  0  0  0
 65 67  1  0  0  0  0
 65 76  1  0  0  0  0
 66 78  1  0  0  0  0
 68 69  1  0  0  0  0
M  CHG  2  77   1  78   1
M  ISO  4  40 100  56 101  74 100  85 101
M  END
> <Batch ID>
0037

> <Smiles>
C=C1CC[101CH:1]([101O:1]c2ccc3c(c2)CN(C(=O)C(NC(=O)C(C)NC)C(C)(C)C)C(C(=O)NC2CCCc4ccccc42)C3)CN1Cc1cc(C)c(C)c([100NH:0][100C:0](=O)N2CCCC(n3nc(-c4ccc(Oc5ccc(F)cc5F)cc4)c(C(N)=O)c3N)C2)c1

> <Shape>
0.252

> <Color>
0.074

> <Negative vol penalty>
0.000

$$$$

  -OEChem-04042321573D

 87 96  0     1  0  0  0  0  0999 V2000
  -17.6468  -30.7853   23.1922 C   0  0  0  0  0  0  0  0  0  0  0  0
  -19.0192  -31.0132   23.1959 C   0  0  0  0  0  0  0  0  0  0  0  0
  -25.8888  -13.4014   21.6492 C   0  0  0  0  0  0  0  0  0  0  0  0
  -24.8732  -14.4105   19.7031 C   0  0  0  0  0  0  0  0  0  0  0  0
  -17.1570  -29.4892   23.0369 C   0  0  0  0  0  0  0  0  0  0  0  0
  -19.9026  -29.9449   23.0455 C   0  0  0  0  0  0  0  0  0  0  0  0
  -25.3047  -30.0131   20.1613 C   0  0  0  0  0  0  0  0  0  0  0  0
  -24.8594  -12.4615   21.6991 C   0  0  0  0  0  0  0  0  0  0  0  0
  -23.8438  -13.4705   19.7530 C   0  0  0  0  0  0  0  0  0  0  0  0
  -26.6141  -30.1339   20.6249 C   0  0  0  0  0  0  0  0  0  0  0  0
  -24.0162   -9.6035   20.1011 C   0  0  0  0  0  0  0  0  0  0  0  0
  -24.3661   -8.2694   20.3091 C   0  0  0  0  0  0  0  0  0  0  0  0
  -26.8374  -27.7321   20.6017 C   0  0  0  0  0  0  0  0  0  0  0  0
  -30.8072  -22.9096   16.2437 C   0  0  0  0  0  0  0  0  0  0  0  0
  -29.5813  -23.8701   18.5583 C   0  0  0  0  0  0  0  0  0  0  0  0
  -23.0424   -8.2372   22.3299 C   0  0  0  0  0  0  0  0  0  0  0  0
  -25.8957  -14.3760   20.6512 C   0  0  0  0  0  0  0  0  0  0  0  0
  -28.1782  -15.2370   19.9053 C   0  0  0  0  0  0  0  0  0  0  0  0
  -18.0347  -28.4057   22.8748 C   0  0  0  0  0  0  0  0  0  0  0  0
  -24.7473  -28.7484   19.9245 C   0  0  0  0  0  0  0  0  0  0  0  0
  -19.4241  -28.6329   22.8892 C   0  0  0  0  0  0  0  0  0  0  0  0
  -25.5216  -27.5981   20.1327 C   0  0  0  0  0  0  0  0  0  0  0  0
  -30.5407  -24.2722   16.3777 C   0  0  0  0  0  0  0  0  0  0  0  0
  -30.4606  -22.0272   17.2669 C   0  0  0  0  0  0  0  0  0  0  0  0
  -29.9278  -24.7525   17.5350 C   0  0  0  0  0  0  0  0  0  0  0  0
  -29.8477  -22.5075   18.4242 C   0  0  0  0  0  0  0  0  0  0  0  0
  -23.8369  -12.4960   20.7510 C   0  0  0  0  0  0  0  0  0  0  0  0
  -27.3796  -28.9932   20.8479 C   0  0  0  0  0  0  0  0  0  0  0  0
  -23.1795  -10.2546   21.0076 C   0  0  0  0  0  0  0  0  0  0  0  0
  -23.8792   -7.5862   21.4235 C   0  0  0  0  0  0  0  0  0  0  0  0
  -22.6925   -9.5714   22.1220 C   0  0  0  0  0  0  0  0  0  0  0  0
  -26.9585  -15.3475   20.5994 C   0  0  0  0  0  0  0  0  0  0  0  0
  -28.8333  -16.4142   20.1727 C   0  0  0  0  0  0  0  0  0  0  0  0
  -28.6746  -14.1660   19.0915 C   0  0  0  0  0  0  0  0  0  0  0  0
  -22.2922  -27.1199   21.1178 C   0  0  0  0  0  0  0  0  0  0  0  0
  -23.0539  -25.0114   18.7734 C   0  0  0  0  0  0  0  0  0  0  0  0
  -25.4217  -23.7645   16.6554 C   0  0  0  0  0  0  0  0  0  0  0  0
  -28.8744  -21.9587   20.6821 C   0  0  0  0  0  0  0  0  0  0  0  0
  -17.4592  -27.0165   22.7576 C   0  0  0  0  0  0  0  0  0  0  0  0
  -23.3424  -28.6361   19.3991 C   0  0  0  0  0  0  0  0  0  0  0  0
  -24.9768  -26.2179   19.8745 C   0  0  0  0  0  0  0  0  0  0  0  0
  -18.4548  -25.9874   22.2284 C   0  0  0  0  0  0  0  0  0  0  0  0
  -32.0825  -27.4827   21.1465 C   0  0  0  0  0  0  0  0  0  0  0  0
  -27.7936  -20.0788   23.5061 C   0  0  0  0  0  0  0  0  0  0  0  0
  -32.5406  -27.7580   19.7173 C   0  0  0  0  0  0  0  0  0  0  0  0
  -19.7939  -26.1218   22.9465 C   0  0  0  0  0  0  0  0  0  0  0  0
  -27.5804  -18.6712   22.9445 C   0  0  0  0  0  0  0  0  0  0  0  0
  -30.9263  -28.3841   21.5712 C   0  0  0  0  0  0  0  0  0  0  0  0
  -27.3863  -21.1571   22.5036 C   0  0  0  0  0  0  0  0  0  0  0  0
  -27.7891  -19.6278   20.6146 C   0  0  0  0  0  0  0  0  0  0  0  0
  -31.7879  -27.0152   18.6199 C   0  0  0  0  0  0  0  0  0  0  0  0
  -29.5989  -28.0578   19.3843 C   0  0  0  0  0  0  0  0  0  0  0  0
  -20.4138  -27.5032   22.7039 C   0  0  1  0  0  0  0  0  0  0  0  0
  -22.7054  -27.2791   19.6820 C   0  0  1  0  0  0  0  0  0  0  0  0
  -28.2463  -18.5083   21.5641 C   0  0  2  0  0  0  0  0  0  0  0  0
  -29.5818  -28.0887   20.9089 C   0  0  2  0  0  0  0  0  0  1  0  0
  -30.9204  -25.1979   15.2689 C   0  0  0  0  0  0  0  0  0  0  0  0
  -30.7580  -20.5728   17.0964 C   0  0  0  0  0  0  0  0  0  0  0  0
  -25.7572  -22.0190   14.8840 C   0  0  0  0  0  0  0  0  0  0  0  0
  -23.1763  -22.8531   20.9267 C   0  0  0  0  0  0  0  0  0  0  0  0
  -24.4120  -21.4018   19.3034 C   0  0  0  0  0  0  0  0  0  0  0  0
  -22.0837  -22.1380   18.7938 C   0  0  0  0  0  0  0  0  0  0  0  0
  -26.0780  -25.8003   14.6100 C   0  0  0  0  0  0  0  0  0  0  0  0
  -29.6312  -26.2137   17.7014 C   0  0  0  0  0  0  0  0  0  0  0  0
  -23.9702  -23.8164   18.6666 C   0  0  1  0  0  0  0  0  0  0  0  0
  -25.3854  -23.4661   15.1675 C   0  0  2  0  0  0  0  0  0  0  0  0
  -23.4204  -22.5781   19.4294 C   0  0  0  0  0  0  0  0  0  0  0  0
  -26.8431  -16.5036   21.2584 N   0  0  0  0  0  0  0  0  0  0  0  0
  -27.9988  -17.1302   20.9796 N   0  0  0  0  0  0  0  0  0  0  0  0
  -23.5958  -26.1600   19.3673 N   0  0  0  0  0  0  0  0  0  0  0  0
  -28.0592  -20.9409   21.2209 N   0  0  0  0  0  0  0  0  0  0  0  0
  -30.0361  -16.8963   19.7940 N   0  0  0  0  0  0  0  0  0  0  0  0
  -27.8728  -13.0291   18.9214 N   0  0  0  0  0  0  0  0  0  0  0  0
  -29.4883  -21.6271   19.4747 N   0  0  0  0  0  0  0  0  0  0  0  0
  -21.0120  -27.5645   21.3875 N   0  0  0  0  0  0  0  0  0  0  0  0
  -24.1852  -23.5930   17.2410 N   0  0  0  0  0  0  0  0  0  0  0  0
  -30.3204  -26.8247   18.8974 N   0  3  1  0  0  0  0  0  0  0  0  0
  -26.3405  -24.3481   14.4389 N   0  3  0  0  0  0  0  0  0  0  0  0
  -29.8029  -14.2088   18.5451 O   0  0  0  0  0  0  0  0  0  0  0  0
  -23.0763  -26.6286   21.9212 O   0  0  0  0  0  0  0  0  0  0  0  0
  -21.9021  -24.9310   18.3391 O   0  0  0  0  0  0  0  0  0  0  0  0
  -26.4454  -24.1112   17.2405 O   0  0  0  0  0  0  0  0  0  0  0  0
  -29.0390  -23.0343   21.2634 O   0  0  0  0  0  0  0  0  0  0  0  0
  -22.8324  -11.5789   20.7993 O   0  0  0  0  0  0  0  0  0  0  0  0
  -28.6577  -29.1082   21.3010 O   0  0  0  0  0  0  0  0  0  1  0  0
  -24.2140   -6.3046   21.6222 F   0  0  0  0  0  0  0  0  0  0  0  0
  -21.8873  -10.1912   22.9956 F   0  0  0  0  0  0  0  0  0  0  0  0
  1  2  1  0  0  0  0
  1  5  2  0  0  0  0
  2  6  2  0  0  0  0
  3  8  2  0  0  0  0
  3 17  1  0  0  0  0
  4  9  1  0  0  0  0
  4 17  2  0  0  0  0
  5 19  1  0  0  0  0
  6 21  1  0  0  0  0
  7 10  2  0  0  0  0
  7 20  1  0  0  0  0
  8 27  1  0  0  0  0
  9 27  2  0  0  0  0
 10 28  1  0  0  0  0
 11 12  2  0  0  0  0
 11 29  1  0  0  0  0
 12 30  1  0  0  0  0
 13 22  1  0  0  0  0
 13 28  2  0  0  0  0
 14 23  1  0  0  0  0
 14 24  2  0  0  0  0
 15 25  1  0  0  0  0
 15 26  2  0  0  0  0
 16 30  2  0  0  0  0
 16 31  1  0  0  0  0
 17 32  1  0  0  0  0
 18 32  1  0  0  0  0
 18 33  2  0  0  0  0
 18 34  1  0  0  0  0
 19 21  2  0  0  0  0
 19 39  1  0  0  0  0
 20 22  2  0  0  0  0
 20 40  1  0  0  0  0
 21 53  1  0  0  0  0
 22 41  1  0  0  0  0
 23 25  2  0  0  0  0
 23 57  1  0  0  0  0
 24 26  1  0  0  0  0
 24 58  1  0  0  0  0
 25 64  1  0  0  0  0
 26 74  1  0  0  0  0
 27 84  1  0  0  0  0
 28 85  1  0  0  0  0
 29 31  2  0  0  0  0
 29 84  1  0  0  0  0
 30 86  1  0  0  0  0
 31 87  1  0  0  0  0
 32 68  2  0  0  0  0
 33 69  1  0  0  0  0
 33 72  1  0  0  0  0
 34 73  1  0  0  0  0
 34 79  2  0  0  0  0
 35 54  1  0  0  0  0
 35 75  1  0  0  0  0
 35 80  2  0  0  0  0
 36 65  1  0  0  0  0
 36 70  1  0  0  0  0
 36 81  2  0  0  0  0
 37 66  1  0  0  0  0
 37 76  1  0  0  0  0
 37 82  2  0  0  0  0
 38 71  1  0  0  0  0
 38 74  1  0  0  0  0
 38 83  2  0  0  0  0
 39 42  1  0  0  0  0
 40 54  1  0  0  0  0
 41 70  1  0  0  0  0
 42 46  1  0  0  0  0
 43 45  1  0  0  0  0
 43 48  1  0  0  0  0
 44 47  1  0  0  0  0
 44 49  1  0  0  0  0
 45 51  1  0  0  0  0
 46 53  1  0  0  0  0
 47 55  1  0  0  0  0
 48 56  1  0  0  0  0
 49 71  1  0  0  0  0
 50 55  1  0  0  0  0
 50 71  1  0  0  0  0
 51 77  1  0  0  0  0
 52 56  1  0  0  0  0
 52 77  1  0  0  0  0
 53 75  1  0  0  0  0
 54 70  1  0  0  0  0
 55 69  1  0  0  0  0
 56 85  1  0  0  0  0
 59 66  1  0  0  0  0
 60 67  1  0  0  0  0
 61 67  1  0  0  0  0
 62 67  1  0  0  0  0
 63 78  1  0  0  0  0
 64 77  1  0  0  0  0
 65 67  1  0  0  0  0
 65 76  1  0  0  0  0
 66 78  1  0  0  0  0
 68 69  1  0  0  0  0
M  CHG  2  77   1  78   1
M  ISO  4  38 100  56 101  74 100  85 101
M  END
> <Batch ID>
0037

> <Smiles>
CNC(C)C(=O)NC(C(=O)N1Cc2cc([101O:1][101CH:1]3CCCCN(Cc4cc([100NH:0][100C:0](=O)N5CCCC(n6nc(-c7ccc(Oc8ccc(F)cc8F)cc7)c(C(N)=O)c6N)C5)c(C)cc4C)C3)ccc2CC1C(=O)NC1CCCc2ccccc21)C(C)(C)C

> <Shape>
0.303

> <Color>
0.068

> <Negative vol penalty>
0.000

$$$$

  -OEChem-04042321573D

 93102  0     1  0  0  0  0  0999 V2000
  -33.2691  -29.5157   16.5833 C   0  0  0  0  0  0  0  0  0  0  0  0
  -32.3197  -28.6848   17.1695 C   0  0  0  0  0  0  0  0  0  0  0  0
  -22.6913  -10.9532   21.5027 C   0  0  0  0  0  0  0  0  0  0  0  0
  -24.4694   -9.3227   21.6320 C   0  0  0  0  0  0  0  0  0  0  0  0
  -33.6584  -30.6899   17.2266 C   0  0  0  0  0  0  0  0  0  0  0  0
  -31.7598  -29.0271   18.3999 C   0  0  0  0  0  0  0  0  0  0  0  0
  -26.7372  -28.3871   18.4940 C   0  0  0  0  0  0  0  0  0  0  0  0
  -21.9587  -10.2290   22.4431 C   0  0  0  0  0  0  0  0  0  0  0  0
  -23.7368   -8.5984   22.5724 C   0  0  0  0  0  0  0  0  0  0  0  0
  -26.2640  -27.0849   18.6491 C   0  0  0  0  0  0  0  0  0  0  0  0
  -21.1417   -6.4313   22.5770 C   0  0  0  0  0  0  0  0  0  0  0  0
  -21.0695   -5.0477   22.4163 C   0  0  0  0  0  0  0  0  0  0  0  0
  -25.8824  -27.5092   20.9929 C   0  0  0  0  0  0  0  0  0  0  0  0
  -28.1752  -18.6421   19.3510 C   0  0  0  0  0  0  0  0  0  0  0  0
  -26.4530  -20.2945   18.9757 C   0  0  0  0  0  0  0  0  0  0  0  0
  -22.1074   -4.7427   24.5766 C   0  0  0  0  0  0  0  0  0  0  0  0
  -23.9466  -10.5001   21.0971 C   0  0  0  0  0  0  0  0  0  0  0  0
  -24.3222  -11.5574   18.8061 C   0  0  0  0  0  0  0  0  0  0  0  0
  -33.0959  -31.0516   18.4608 C   0  0  0  0  0  0  0  0  0  0  0  0
  -26.7968  -29.2582   19.5913 C   0  0  0  0  0  0  0  0  0  0  0  0
  -32.1429  -30.2065   19.0608 C   0  0  0  0  0  0  0  0  0  0  0  0
  -26.3543  -28.8228   20.8485 C   0  0  0  0  0  0  0  0  0  0  0  0
  -27.8946  -18.6599   20.7172 C   0  0  0  0  0  0  0  0  0  0  0  0
  -26.1724  -20.3122   20.3420 C   0  0  0  0  0  0  0  0  0  0  0  0
  -26.8932  -19.4949   21.2127 C   0  0  0  0  0  0  0  0  0  0  0  0
  -22.4815   -9.0516   22.9780 C   0  0  0  0  0  0  0  0  0  0  0  0
  -25.8392  -26.6448   19.8993 C   0  0  0  0  0  0  0  0  0  0  0  0
  -21.6968   -6.9708   23.7374 C   0  0  0  0  0  0  0  0  0  0  0  0
  -21.5524   -4.2034   23.4161 C   0  0  0  0  0  0  0  0  0  0  0  0
  -22.1796   -6.1265   24.7373 C   0  0  0  0  0  0  0  0  0  0  0  0
  -27.4544  -19.4594   18.4802 C   0  0  0  0  0  0  0  0  0  0  0  0
  -24.7036  -11.2475   20.1253 C   0  0  0  0  0  0  0  0  0  0  0  0
  -25.3786  -12.2768   18.3032 C   0  0  0  0  0  0  0  0  0  0  0  0
  -23.1203  -11.2248   18.0986 C   0  0  0  0  0  0  0  0  0  0  0  0
  -29.1285  -30.7875   21.1171 C   0  0  0  0  0  0  0  0  0  0  0  0
  -26.6584  -32.1409   22.7264 C   0  0  0  0  0  0  0  0  0  0  0  0
  -23.7004  -32.9576   24.2196 C   0  0  0  0  0  0  0  0  0  0  0  0
  -29.6345  -15.6107   20.8769 C   0  0  0  0  0  0  0  0  0  0  0  0
  -33.5830  -32.3067   19.1406 C   0  0  0  0  0  0  0  0  0  0  0  0
  -27.2847  -30.6683   19.4018 C   0  0  0  0  0  0  0  0  0  0  0  0
  -26.3789  -29.7252   22.0542 C   0  0  0  0  0  0  0  0  0  0  0  0
  -32.6665  -32.7862   20.2633 C   0  0  0  0  0  0  0  0  0  0  0  0
  -23.8463  -15.3001   22.8069 C   0  0  0  0  0  0  0  0  0  0  0  0
  -24.8733  -14.5970   23.7039 C   0  0  0  0  0  0  0  0  0  0  0  0
  -24.4468  -16.0392   21.6075 C   0  0  0  0  0  0  0  0  0  0  0  0
  -25.9966  -15.4629   24.2892 C   0  0  0  0  0  0  0  0  0  0  0  0
  -30.1137  -12.7900   18.7578 C   0  0  0  0  0  0  0  0  0  0  0  0
  -24.0744  -17.5274   21.5254 C   0  0  0  0  0  0  0  0  0  0  0  0
  -25.5124  -16.6803   25.0845 C   0  0  0  0  0  0  0  0  0  0  0  0
  -32.2726  -31.6208   21.1653 C   0  0  0  0  0  0  0  0  0  0  0  0
  -28.7471  -12.1028   18.7489 C   0  0  0  0  0  0  0  0  0  0  0  0
  -30.4347  -13.3902   20.1248 C   0  0  0  0  0  0  0  0  0  0  0  0
  -28.0372  -13.6122   20.6506 C   0  0  0  0  0  0  0  0  0  0  0  0
  -24.3669  -18.3805   22.7608 C   0  0  0  0  0  0  0  0  0  0  0  0
  -26.0754  -18.0264   24.6153 C   0  0  0  0  0  0  0  0  0  0  0  0
  -31.4944  -30.5561   20.3827 C   0  0  1  0  0  0  0  0  0  0  0  0
  -27.7833  -31.3068   20.6945 C   0  0  1  0  0  0  0  0  0  0  0  0
  -27.6447  -13.0400   19.2777 C   0  0  2  0  0  0  0  0  0  0  0  0
  -22.7504  -34.3513   26.0777 C   0  0  0  0  0  0  0  0  0  0  0  0
  -27.6576  -30.1011   24.7638 C   0  0  0  0  0  0  0  0  0  0  0  0
  -25.9456  -30.9709   26.3703 C   0  0  0  0  0  0  0  0  0  0  0  0
  -27.7498  -32.4780   25.5359 C   0  0  0  0  0  0  0  0  0  0  0  0
  -22.0609  -34.5525   22.3414 C   0  0  0  0  0  0  0  0  0  0  0  0
  -28.6809  -17.7751   21.6286 C   0  0  0  0  0  0  0  0  0  0  0  0
  -26.5919  -19.5148   22.6823 C   0  0  0  0  0  0  0  0  0  0  0  0
  -25.0949  -21.2151   20.8478 C   0  0  0  0  0  0  0  0  0  0  0  0
  -24.4215  -23.5708   21.3332 C   0  0  0  0  0  0  0  0  0  0  0  0
  -24.9585  -24.9882   21.3607 C   0  0  0  0  0  0  0  0  0  1  0  0
  -25.8806  -31.7997   23.9745 C   0  0  1  0  0  0  0  0  0  0  0  0
  -23.1000  -34.2994   24.5986 C   0  0  2  0  0  0  0  0  0  0  0  0
  -26.8006  -31.3276   25.1356 C   0  0  0  0  0  0  0  0  0  0  0  0
  -25.9084  -11.7303   20.4406 N   0  0  0  0  0  0  0  0  0  0  0  0
  -26.2932  -12.3509   19.3124 N   0  0  0  0  0  0  0  0  0  0  0  0
  -26.8704  -31.0930   21.8193 N   0  0  0  0  0  0  0  0  0  0  0  0
  -29.3507  -14.2702   20.5680 N   0  0  0  0  0  0  0  0  0  0  0  0
  -25.6053  -12.8469   17.1007 N   0  0  0  0  0  0  0  0  0  0  0  0
  -23.0821  -10.0264   17.3728 N   0  0  0  0  0  0  0  0  0  0  0  0
  -30.1252  -30.9783   20.1793 N   0  0  0  0  0  0  0  0  0  0  0  0
  -25.0773  -32.9762   24.2892 N   0  0  0  0  0  0  0  0  0  0  0  0
  -28.5491  -16.3773   21.2829 N   0  0  0  0  0  0  0  0  0  0  0  0
  -25.8288  -18.2983   23.1460 N   0  3  0  0  0  0  0  0  0  0  0  0
  -21.8590  -34.5520   23.8132 N   0  3  0  0  0  0  0  0  0  0  0  0
  -25.4972  -22.6471   20.8867 N   0  3  0  0  0  0  0  0  0  0  0  0
  -22.1159  -11.9763   18.0962 O   0  0  0  0  0  0  0  0  0  0  0  0
  -29.2531  -30.2546   22.2136 O   0  0  0  0  0  0  0  0  0  0  0  0
  -27.0568  -33.2962   22.5590 O   0  0  0  0  0  0  0  0  0  0  0  0
  -23.0160  -31.9887   23.8978 O   0  0  0  0  0  0  0  0  0  0  0  0
  -30.7701  -16.0904   20.7915 O   0  0  0  0  0  0  0  0  0  0  0  0
  -21.7670   -8.3447   23.8958 O   0  0  0  0  0  0  0  0  0  0  0  0
  -25.3743  -25.3649   20.0547 O   0  0  0  0  0  0  0  0  0  1  0  0
  -21.4816   -2.8746   23.2624 F   0  0  0  0  0  0  0  0  0  0  0  0
  -22.7129   -6.6388   25.8548 F   0  0  0  0  0  0  0  0  0  0  0  0
  -27.8006  -19.4379   16.7943 Cl  0  0  0  0  0  0  0  0  0  0  0  0
  1  2  1  0  0  0  0
  1  5  2  0  0  0  0
  2  6  2  0  0  0  0
  3  8  2  0  0  0  0
  3 17  1  0  0  0  0
  4  9  1  0  0  0  0
  4 17  2  0  0  0  0
  5 19  1  0  0  0  0
  6 21  1  0  0  0  0
  7 10  2  0  0  0  0
  7 20  1  0  0  0  0
  8 26  1  0  0  0  0
  9 26  2  0  0  0  0
 10 27  1  0  0  0  0
 11 12  2  0  0  0  0
 11 28  1  0  0  0  0
 12 29  1  0  0  0  0
 13 22  1  0  0  0  0
 13 27  2  0  0  0  0
 14 23  2  0  0  0  0
 14 31  1  0  0  0  0
 15 24  1  0  0  0  0
 15 31  2  0  0  0  0
 16 29  2  0  0  0  0
 16 30  1  0  0  0  0
 17 32  1  0  0  0  0
 18 32  1  0  0  0  0
 18 33  2  0  0  0  0
 18 34  1  0  0  0  0
 19 21  2  0  0  0  0
 19 39  1  0  0  0  0
 20 22  2  0  0  0  0
 20 40  1  0  0  0  0
 21 56  1  0  0  0  0
 22 41  1  0  0  0  0
 23 25  1  0  0  0  0
 23 64  1  0  0  0  0
 24 25  2  0  0  0  0
 24 66  1  0  0  0  0
 25 65  1  0  0  0  0
 26 89  1  0  0  0  0
 27 90  1  0  0  0  0
 28 30  2  0  0  0  0
 28 89  1  0  0  0  0
 29 91  1  0  0  0  0
 30 92  1  0  0  0  0
 31 93  1  0  0  0  0
 32 72  2  0  0  0  0
 33 73  1  0  0  0  0
 33 76  1  0  0  0  0
 34 77  1  0  0  0  0
 34 84  2  0  0  0  0
 35 57  1  0  0  0  0
 35 78  1  0  0  0  0
 35 85  2  0  0  0  0
 36 69  1  0  0  0  0
 36 74  1  0  0  0  0
 36 86  2  0  0  0  0
 37 70  1  0  0  0  0
 37 79  1  0  0  0  0
 37 87  2  0  0  0  0
 38 75  1  0  0  0  0
 38 80  1  0  0  0  0
 38 88  2  0  0  0  0
 39 42  1  0  0  0  0
 40 57  1  0  0  0  0
 41 74  1  0  0  0  0
 42 50  1  0  0  0  0
 43 44  1  0  0  0  0
 43 45  1  0  0  0  0
 44 46  1  0  0  0  0
 45 48  1  0  0  0  0
 46 49  1  0  0  0  0
 47 51  1  0  0  0  0
 47 52  1  0  0  0  0
 48 54  1  0  0  0  0
 49 55  1  0  0  0  0
 50 56  1  0  0  0  0
 51 58  1  0  0  0  0
 52 75  1  0  0  0  0
 53 58  1  0  0  0  0
 53 75  1  0  0  0  0
 54 81  1  0  0  0  0
 55 81  1  0  0  0  0
 56 78  1  0  0  0  0
 57 74  1  0  0  0  0
 58 73  1  0  0  0  0
 59 70  1  0  0  0  0
 60 71  1  0  0  0  0
 61 71  1  0  0  0  0
 62 71  1  0  0  0  0
 63 82  1  0  0  0  0
 64 80  1  0  0  0  0
 65 81  1  0  0  0  0
 66 83  1  0  0  0  0
 67 68  1  0  0  0  0
 67 83  1  0  0  0  0
 68 90  1  0  0  0  0
 69 71  1  0  0  0  0
 69 79  1  0  0  0  0
 70 82  1  0  0  0  0
 72 73  1  0  0  0  0
M  CHG  3  81   1  82   1  83   1
M  ISO  4  38 100  68 101  80 100  90 101
M  END
> <Batch ID>
0037

> <Smiles>
CNC(C)C(=O)NC(C(=O)N1Cc2cc([101O:1][101CH2:1]CNCc3cc(Cl)cc(C[100NH:0][100C:0](=O)N4CCCC(n5nc(-c6ccc(Oc7ccc(F)cc7F)cc6)c(C(N)=O)c5N)C4)c3CN3CCCCCCCC3)ccc2CC1C(=O)NC1CCCc2ccccc21)C(C)(C)C

> <Shape>
0.256

> <Color>
0.113

> <Negative vol penalty>
0.000

$$$$

  -OEChem-04042321573D

 89 98  0     1  0  0  0  0  0999 V2000
  -21.8936   -8.2108   24.7361 C   0  0  0  0  0  0  0  0  0  0  0  0
  -23.1848   -8.6755   24.9644 C   0  0  0  0  0  0  0  0  0  0  0  0
  -26.3060  -30.6777   21.8444 C   0  0  0  0  0  0  0  0  0  0  0  0
  -23.9772  -30.3921   21.2681 C   0  0  0  0  0  0  0  0  0  0  0  0
  -21.3395   -8.2942   23.4594 C   0  0  0  0  0  0  0  0  0  0  0  0
  -23.9232   -9.2229   23.9159 C   0  0  0  0  0  0  0  0  0  0  0  0
  -28.8745  -14.2275   22.5910 C   0  0  0  0  0  0  0  0  0  0  0  0
  -26.0040  -31.8907   22.4634 C   0  0  0  0  0  0  0  0  0  0  0  0
  -23.6752  -31.6050   21.8871 C   0  0  0  0  0  0  0  0  0  0  0  0
  -30.1168  -14.3774   21.9762 C   0  0  0  0  0  0  0  0  0  0  0  0
  -25.3817  -35.0779   21.5260 C   0  0  0  0  0  0  0  0  0  0  0  0
  -26.2185  -36.1632   21.2662 C   0  0  0  0  0  0  0  0  0  0  0  0
  -29.0278  -14.5427   19.8300 C   0  0  0  0  0  0  0  0  0  0  0  0
  -31.1751  -20.9429   20.2282 C   0  0  0  0  0  0  0  0  0  0  0  0
  -28.7813  -20.1353   21.4115 C   0  0  0  0  0  0  0  0  0  0  0  0
  -26.7403  -36.3243   23.6197 C   0  0  0  0  0  0  0  0  0  0  0  0
  -25.2925  -29.9284   21.2467 C   0  0  0  0  0  0  0  0  0  0  0  0
  -26.4788  -28.4689   19.5233 C   0  0  0  0  0  0  0  0  0  0  0  0
  -22.0679   -8.8518   22.3968 C   0  0  0  0  0  0  0  0  0  0  0  0
  -27.6983  -14.2232   21.8275 C   0  0  0  0  0  0  0  0  0  0  0  0
  -23.3789   -9.3126   22.6234 C   0  0  0  0  0  0  0  0  0  0  0  0
  -27.7717  -14.3952   20.4379 C   0  0  0  0  0  0  0  0  0  0  0  0
  -30.0364  -21.7400   20.1126 C   0  0  0  0  0  0  0  0  0  0  0  0
  -31.1170  -19.7419   20.9353 C   0  0  0  0  0  0  0  0  0  0  0  0
  -28.8394  -21.3363   20.7043 C   0  0  0  0  0  0  0  0  0  0  0  0
  -24.6887  -32.3543   22.4848 C   0  0  0  0  0  0  0  0  0  0  0  0
  -30.1938  -14.5321   20.5952 C   0  0  0  0  0  0  0  0  0  0  0  0
  -25.2241  -34.6159   22.8327 C   0  0  0  0  0  0  0  0  0  0  0  0
  -26.8978  -36.7864   22.3130 C   0  0  0  0  0  0  0  0  0  0  0  0
  -25.9034  -35.2391   23.8795 C   0  0  0  0  0  0  0  0  0  0  0  0
  -29.9200  -19.3382   21.5270 C   0  0  0  0  0  0  0  0  0  0  0  0
  -25.6039  -28.6757   20.6066 C   0  0  0  0  0  0  0  0  0  0  0  0
  -26.4267  -27.1158   19.2933 C   0  0  0  0  0  0  0  0  0  0  0  0
  -34.0898  -17.8293   19.7237 C   0  0  0  0  0  0  0  0  0  0  0  0
  -35.2609  -20.4198   17.3992 C   0  0  0  0  0  0  0  0  0  0  0  0
  -34.9016  -18.5589   18.9436 C   0  0  0  0  0  0  0  0  0  0  0  0
  -34.4509  -19.6927   18.1769 C   0  0  0  0  0  0  0  0  0  0  0  0
  -27.2681  -29.4153   18.7905 C   0  0  0  0  0  0  0  0  0  0  0  0
  -25.3838  -12.1130   21.2852 C   0  0  0  0  0  0  0  0  0  0  0  0
  -24.0238  -14.5964   19.7024 C   0  0  0  0  0  0  0  0  0  0  0  0
  -25.1161  -17.2102   17.4680 C   0  0  0  0  0  0  0  0  0  0  0  0
  -26.4124  -21.8597   21.1309 C   0  0  0  0  0  0  0  0  0  0  0  0
  -21.4443   -8.8774   21.0238 C   0  0  0  0  0  0  0  0  0  0  0  0
  -26.3643  -14.0872   22.5088 C   0  0  0  0  0  0  0  0  0  0  0  0
  -26.5372  -14.4179   19.5753 C   0  0  0  0  0  0  0  0  0  0  0  0
  -34.5652  -16.6462   20.5225 C   0  0  0  0  0  0  0  0  0  0  0  0
  -22.1546   -9.8137   20.0495 C   0  0  0  0  0  0  0  0  0  0  0  0
  -33.6764  -15.4368   20.2588 C   0  0  0  0  0  0  0  0  0  0  0  0
  -23.2964  -23.5822   21.1200 C   0  0  0  0  0  0  0  0  0  0  0  0
  -23.6648   -9.6100   20.1183 C   0  0  0  0  0  0  0  0  0  0  0  0
  -23.6909  -25.0439   20.8964 C   0  0  0  0  0  0  0  0  0  0  0  0
  -24.3067  -22.8507   22.0020 C   0  0  0  0  0  0  0  0  0  0  0  0
  -26.0969  -24.4045   21.3312 C   0  0  0  0  0  0  0  0  0  0  0  0
  -31.8309  -16.9772   19.4932 C   0  0  0  0  0  0  0  0  0  0  0  0
  -24.2023   -9.9356   21.5171 C   0  0  1  0  0  0  0  0  0  0  0  0
  -25.2665  -13.5822   21.5776 C   0  0  1  0  0  0  0  0  0  0  0  0
  -25.1434  -25.1652   20.3954 C   0  0  2  0  0  0  0  0  0  0  0  0
  -32.1961  -15.7954   20.3879 C   0  0  1  0  0  0  0  0  0  1  0  0
  -30.1271  -23.0205   19.3474 C   0  0  0  0  0  0  0  0  0  0  0  0
  -24.1666  -19.4933   17.0402 C   0  0  0  0  0  0  0  0  0  0  0  0
  -22.5319  -13.2306   17.4179 C   0  0  0  0  0  0  0  0  0  0  0  0
  -22.9108  -15.2836   16.0358 C   0  0  0  0  0  0  0  0  0  0  0  0
  -21.5650  -15.4239   18.1315 C   0  0  0  0  0  0  0  0  0  0  0  0
  -27.6977  -18.5244   18.0739 C   0  0  0  0  0  0  0  0  0  0  0  0
  -32.3633  -18.9127   21.0358 C   0  0  0  0  0  0  0  0  0  0  0  0
  -24.0695  -15.1147   18.2852 C   0  0  1  0  0  0  0  0  0  0  0  0
  -25.2224  -18.6910   17.7848 C   0  0  2  0  0  0  0  0  0  0  0  0
  -22.7913  -14.7492   17.4790 C   0  0  0  0  0  0  0  0  0  0  0  0
  -25.0373  -27.5445   21.0350 N   0  0  0  0  0  0  0  0  0  0  0  0
  -25.5574  -26.6139   20.2167 N   0  0  0  0  0  0  0  0  0  0  0  0
  -25.2567  -14.2748   20.2875 N   0  0  0  0  0  0  0  0  0  0  0  0
  -25.6598  -23.0058   21.4635 N   0  0  0  0  0  0  0  0  0  0  0  0
  -27.0401  -26.3182   18.3933 N   0  0  0  0  0  0  0  0  0  0  0  0
  -26.7026  -30.0259   17.6628 N   0  0  0  0  0  0  0  0  0  0  0  0
  -27.6717  -22.1318   20.5973 N   0  0  0  0  0  0  0  0  0  0  0  0
  -24.2970  -11.3680   21.7013 N   0  0  0  0  0  0  0  0  0  0  0  0
  -24.3251  -16.5477   18.3827 N   0  0  0  0  0  0  0  0  0  0  0  0
  -32.6926  -18.1870   19.7606 N   0  3  1  0  0  0  0  0  0  0  0  0
  -26.5654  -19.2084   17.3980 N   0  3  0  0  0  0  0  0  0  0  0  0
  -28.4460  -29.6984   19.1162 O   0  0  0  0  0  0  0  0  0  0  0  0
  -26.3856  -11.6871   20.7224 O   0  0  0  0  0  0  0  0  0  0  0  0
  -22.9349  -14.4879   20.2718 O   0  0  0  0  0  0  0  0  0  0  0  0
  -25.6756  -16.6935   16.5033 O   0  0  0  0  0  0  0  0  0  0  0  0
  -25.9617  -20.7212   21.2811 O   0  0  0  0  0  0  0  0  0  0  0  0
  -24.3936  -33.5378   23.0889 O   0  0  0  0  0  0  0  0  0  0  0  0
  -31.4051  -14.6780   19.9924 O   0  0  0  0  0  0  0  0  0  1  0  0
  -27.7025  -37.8276   22.0632 F   0  0  0  0  0  0  0  0  0  0  0  0
  -25.7570  -34.7989   25.1367 F   0  0  0  0  0  0  0  0  0  0  0  0
  -29.8103  -17.8586   22.4093 Cl  0  0  0  0  0  0  0  0  0  0  0  0
  1  2  1  0  0  0  0
  1  5  2  0  0  0  0
  2  6  2  0  0  0  0
  3  8  2  0  0  0  0
  3 17  1  0  0  0  0
  4  9  1  0  0  0  0
  4 17  2  0  0  0  0
  5 19  1  0  0  0  0
  6 21  1  0  0  0  0
  7 10  2  0  0  0  0
  7 20  1  0  0  0  0
  8 26  1  0  0  0  0
  9 26  2  0  0  0  0
 10 27  1  0  0  0  0
 11 12  2  0  0  0  0
 11 28  1  0  0  0  0
 12 29  1  0  0  0  0
 13 22  1  0  0  0  0
 13 27  2  0  0  0  0
 14 23  2  0  0  0  0
 14 24  1  0  0  0  0
 15 25  2  0  0  0  0
 15 31  1  0  0  0  0
 16 29  2  0  0  0  0
 16 30  1  0  0  0  0
 17 32  1  0  0  0  0
 18 32  1  0  0  0  0
 18 33  2  0  0  0  0
 18 38  1  0  0  0  0
 19 21  2  0  0  0  0
 19 43  1  0  0  0  0
 20 22  2  0  0  0  0
 20 44  1  0  0  0  0
 21 55  1  0  0  0  0
 22 45  1  0  0  0  0
 23 25  1  0  0  0  0
 23 59  1  0  0  0  0
 24 31  2  0  0  0  0
 24 65  1  0  0  0  0
 25 75  1  0  0  0  0
 26 85  1  0  0  0  0
 27 86  1  0  0  0  0
 28 30  2  0  0  0  0
 28 85  1  0  0  0  0
 29 87  1  0  0  0  0
 30 88  1  0  0  0  0
 31 89  1  0  0  0  0
 32 69  2  0  0  0  0
 33 70  1  0  0  0  0
 33 73  1  0  0  0  0
 34 36  2  0  0  0  0
 34 46  1  0  0  0  0
 34 78  1  0  0  0  0
 35 37  2  0  0  0  0
 36 37  1  0  0  0  0
 38 74  1  0  0  0  0
 38 80  2  0  0  0  0
 39 56  1  0  0  0  0
 39 76  1  0  0  0  0
 39 81  2  0  0  0  0
 40 66  1  0  0  0  0
 40 71  1  0  0  0  0
 40 82  2  0  0  0  0
 41 67  1  0  0  0  0
 41 77  1  0  0  0  0
 41 83  2  0  0  0  0
 42 72  1  0  0  0  0
 42 75  1  0  0  0  0
 42 84  2  0  0  0  0
 43 47  1  0  0  0  0
 44 56  1  0  0  0  0
 45 71  1  0  0  0  0
 46 48  1  0  0  0  0
 47 50  1  0  0  0  0
 48 58  1  0  0  0  0
 49 51  1  0  0  0  0
 49 52  1  0  0  0  0
 50 55  1  0  0  0  0
 51 57  1  0  0  0  0
 52 72  1  0  0  0  0
 53 57  1  0  0  0  0
 53 72  1  0  0  0  0
 54 58  1  0  0  0  0
 54 78  1  0  0  0  0
 55 76  1  0  0  0  0
 56 71  1  0  0  0  0
 57 70  1  0  0  0  0
 58 86  1  0  0  0  0
 60 67  1  0  0  0  0
 61 68  1  0  0  0  0
 62 68  1  0  0  0  0
 63 68  1  0  0  0  0
 64 79  1  0  0  0  0
 65 78  1  0  0  0  0
 66 68  1  0  0  0  0
 66 77  1  0  0  0  0
 67 79  1  0  0  0  0
 69 70  1  0  0  0  0
M  CHG  2  78   1  79   1
M  ISO  4  42 100  58 101  75 100  86 101
M  END
> <Batch ID>
0037

> <Smiles>
C=CC=C1CC[101CH:1]([101O:1]c2ccc3c(c2)CN(C(=O)C(NC(=O)C(C)NC)C(C)(C)C)C(C(=O)NC2CCCc4ccccc42)C3)CN1Cc1cc(C)c([100NH:0][100C:0](=O)N2CCCC(n3nc(-c4ccc(Oc5ccc(F)cc5F)cc4)c(C(N)=O)c3N)C2)cc1Cl

> <Shape>
0.242

> <Color>
0.075

> <Negative vol penalty>
0.000

$$$$

  -OEChem-04042321573D

 88 97  0     1  0  0  0  0  0999 V2000
  -23.1265  -18.3132   25.8515 C   0  0  0  0  0  0  0  0  0  0  0  0
  -23.2224  -18.8849   24.5868 C   0  0  0  0  0  0  0  0  0  0  0  0
  -27.7401  -12.8137   20.3522 C   0  0  0  0  0  0  0  0  0  0  0  0
  -26.0150  -13.4672   21.9123 C   0  0  0  0  0  0  0  0  0  0  0  0
  -22.2469  -18.8477   26.7920 C   0  0  0  0  0  0  0  0  0  0  0  0
  -22.4377  -19.9908   24.2615 C   0  0  0  0  0  0  0  0  0  0  0  0
  -25.0597  -23.5924   21.8536 C   0  0  0  0  0  0  0  0  0  0  0  0
  -26.8443  -11.9487   19.7239 C   0  0  0  0  0  0  0  0  0  0  0  0
  -25.1191  -12.6022   21.2839 C   0  0  0  0  0  0  0  0  0  0  0  0
  -25.3235  -23.3904   20.4995 C   0  0  0  0  0  0  0  0  0  0  0  0
  -22.4787  -10.2997   20.3162 C   0  0  0  0  0  0  0  0  0  0  0  0
  -21.6806   -9.4922   21.1265 C   0  0  0  0  0  0  0  0  0  0  0  0
  -23.4959  -24.8585   19.9306 C   0  0  0  0  0  0  0  0  0  0  0  0
  -30.2694  -25.5233   20.2783 C   0  0  0  0  0  0  0  0  0  0  0  0
  -28.9669  -23.2669   19.2811 C   0  0  0  0  0  0  0  0  0  0  0  0
  -23.6615   -8.4779   22.0668 C   0  0  0  0  0  0  0  0  0  0  0  0
  -27.3255  -13.5729   21.4465 C   0  0  0  0  0  0  0  0  0  0  0  0
  -29.4676  -14.1257   22.7167 C   0  0  0  0  0  0  0  0  0  0  0  0
  -21.4581  -19.9666   26.4813 C   0  0  0  0  0  0  0  0  0  0  0  0
  -24.0034  -24.4218   22.2569 C   0  0  0  0  0  0  0  0  0  0  0  0
  -21.5457  -20.5399   25.1983 C   0  0  0  0  0  0  0  0  0  0  0  0
  -23.2224  -25.0715   21.2904 C   0  0  0  0  0  0  0  0  0  0  0  0
  -29.9042  -25.4664   18.9334 C   0  0  0  0  0  0  0  0  0  0  0  0
  -29.9834  -24.4521   21.1247 C   0  0  0  0  0  0  0  0  0  0  0  0
  -29.2529  -24.3382   18.4348 C   0  0  0  0  0  0  0  0  0  0  0  0
  -29.3321  -23.3239   20.6261 C   0  0  0  0  0  0  0  0  0  0  0  0
  -25.5337  -11.8430   20.1897 C   0  0  0  0  0  0  0  0  0  0  0  0
  -24.5397  -24.0212   19.5378 C   0  0  0  0  0  0  0  0  0  0  0  0
  -23.8682  -10.1963   20.3812 C   0  0  0  0  0  0  0  0  0  0  0  0
  -22.2720   -8.5813   22.0018 C   0  0  0  0  0  0  0  0  0  0  0  0
  -24.4596   -9.2854   21.2565 C   0  0  0  0  0  0  0  0  0  0  0  0
  -28.2506  -14.4662   22.0963 C   0  0  0  0  0  0  0  0  0  0  0  0
  -29.9648  -15.3207   23.1764 C   0  0  0  0  0  0  0  0  0  0  0  0
  -30.0928  -12.8439   22.8642 C   0  0  0  0  0  0  0  0  0  0  0  0
  -21.3214  -23.9953   23.9089 C   0  0  0  0  0  0  0  0  0  0  0  0
  -21.1025  -27.2204   23.6391 C   0  0  0  0  0  0  0  0  0  0  0  0
  -21.6776  -29.6936   21.0759 C   0  0  0  0  0  0  0  0  0  0  0  0
  -28.9405  -20.8764   21.1172 C   0  0  0  0  0  0  0  0  0  0  0  0
  -20.4873  -20.4799   27.5150 C   0  0  0  0  0  0  0  0  0  0  0  0
  -23.7487  -24.6506   23.7215 C   0  0  0  0  0  0  0  0  0  0  0  0
  -22.0894  -25.9878   21.6713 C   0  0  0  0  0  0  0  0  0  0  0  0
  -19.9647  -21.8828   27.2162 C   0  0  0  0  0  0  0  0  0  0  0  0
  -27.7497  -19.4256   24.4640 C   0  0  0  0  0  0  0  0  0  0  0  0
  -19.5408  -21.9945   25.7551 C   0  0  0  0  0  0  0  0  0  0  0  0
  -28.5390  -18.1185   24.4688 C   0  0  0  0  0  0  0  0  0  0  0  0
  -24.6430  -24.7995   16.0038 C   0  0  0  0  0  0  0  0  0  0  0  0
  -25.4290  -23.7108   15.2825 C   0  0  0  0  0  0  0  0  0  0  0  0
  -28.3911  -20.4842   23.5758 C   0  0  0  0  0  0  0  0  0  0  0  0
  -28.4813  -18.5804   21.9561 C   0  0  0  0  0  0  0  0  0  0  0  0
  -26.6224  -25.2058   17.5125 C   0  0  0  0  0  0  0  0  0  0  0  0
  -20.7293  -21.7554   24.8161 C   0  0  1  0  0  0  0  0  0  0  0  0
  -22.3238  -25.1095   24.0157 C   0  0  1  0  0  0  0  0  0  0  0  0
  -29.1204  -17.7595   23.0870 C   0  0  2  0  0  0  0  0  0  0  0  0
  -25.1202  -24.9764   17.4398 C   0  0  2  0  0  0  0  0  0  1  0  0
  -26.9423  -23.9509   15.3403 C   0  0  2  0  0  0  0  0  0  0  0  0
  -30.3861  -24.5404   22.5610 C   0  0  0  0  0  0  0  0  0  0  0  0
  -27.6751  -22.7896   14.6714 C   0  0  0  0  0  0  0  0  0  0  0  0
  -31.4266  -26.3555   17.1506 C   0  0  0  0  0  0  0  0  0  0  0  0
  -22.2947  -32.1192   21.2583 C   0  0  0  0  0  0  0  0  0  0  0  0
  -18.0943  -27.7002   23.4640 C   0  0  0  0  0  0  0  0  0  0  0  0
  -18.5679  -29.7136   22.0533 C   0  0  0  0  0  0  0  0  0  0  0  0
  -19.4030  -29.6138   24.4018 C   0  0  0  0  0  0  0  0  0  0  0  0
  -24.0582  -29.3371   19.3540 C   0  0  0  0  0  0  0  0  0  0  0  0
  -30.2211  -26.6252   18.0462 C   0  0  0  0  0  0  0  0  0  0  0  0
  -28.8507  -24.2542   16.9918 C   0  0  0  0  0  0  0  0  0  0  0  0
  -20.4941  -28.1705   22.6359 C   0  0  1  0  0  0  0  0  0  0  0  0
  -22.8075  -30.7063   21.0274 C   0  0  2  0  0  0  0  0  0  0  0  0
  -19.1494  -28.7739   23.1310 C   0  0  0  0  0  0  0  0  0  0  0  0
  -27.9904  -15.7749   22.1550 N   0  0  0  0  0  0  0  0  0  0  0  0
  -29.0508  -16.2673   22.8177 N   0  0  0  0  0  0  0  0  0  0  0  0
  -21.8759  -26.1745   23.1160 N   0  0  0  0  0  0  0  0  0  0  0  0
  -28.6229  -20.0205   22.2001 N   0  0  0  0  0  0  0  0  0  0  0  0
  -31.0902  -15.6435   23.8485 N   0  0  0  0  0  0  0  0  0  0  0  0
  -29.7933  -12.0812   24.0013 N   0  0  0  0  0  0  0  0  0  0  0  0
  -29.0327  -22.2254   21.4702 N   0  0  0  0  0  0  0  0  0  0  0  0
  -21.5701  -22.9317   24.7553 N   0  0  0  0  0  0  0  0  0  0  0  0
  -21.5211  -29.1632   22.3390 N   0  0  0  0  0  0  0  0  0  0  0  0
  -27.3623  -24.0848   16.8013 N   0  3  1  0  0  0  0  0  0  0  0  0
  -23.4851  -30.6632   19.7007 N   0  3  0  0  0  0  0  0  0  0  0  0
  -30.9059  -12.3953   22.0209 O   0  0  0  0  0  0  0  0  0  0  0  0
  -20.3904  -24.0939   23.1182 O   0  0  0  0  0  0  0  0  0  0  0  0
  -20.9048  -27.4039   24.8428 O   0  0  0  0  0  0  0  0  0  0  0  0
  -20.9992  -29.4050   20.0926 O   0  0  0  0  0  0  0  0  0  0  0  0
  -29.1263  -20.4399   19.9793 O   0  0  0  0  0  0  0  0  0  0  0  0
  -24.6592  -10.9992   19.5766 O   0  0  0  0  0  0  0  0  0  0  0  0
  -24.7946  -23.8252   18.2155 O   0  0  0  0  0  0  0  0  0  1  0  0
  -21.5054   -7.8071   22.7810 F   0  0  0  0  0  0  0  0  0  0  0  0
  -25.7940   -9.1824   21.3242 F   0  0  0  0  0  0  0  0  0  0  0  0
  1  2  1  0  0  0  0
  1  5  2  0  0  0  0
  2  6  2  0  0  0  0
  3  8  2  0  0  0  0
  3 17  1  0  0  0  0
  4  9  1  0  0  0  0
  4 17  2  0  0  0  0
  5 19  1  0  0  0  0
  6 21  1  0  0  0  0
  7 10  2  0  0  0  0
  7 20  1  0  0  0  0
  8 27  1  0  0  0  0
  9 27  2  0  0  0  0
 10 28  1  0  0  0  0
 11 12  2  0  0  0  0
 11 29  1  0  0  0  0
 12 30  1  0  0  0  0
 13 22  1  0  0  0  0
 13 28  2  0  0  0  0
 14 23  1  0  0  0  0
 14 24  2  0  0  0  0
 15 25  1  0  0  0  0
 15 26  2  0  0  0  0
 16 30  2  0  0  0  0
 16 31  1  0  0  0  0
 17 32  1  0  0  0  0
 18 32  1  0  0  0  0
 18 33  2  0  0  0  0
 18 34  1  0  0  0  0
 19 21  2  0  0  0  0
 19 39  1  0  0  0  0
 20 22  2  0  0  0  0
 20 40  1  0  0  0  0
 21 51  1  0  0  0  0
 22 41  1  0  0  0  0
 23 25  2  0  0  0  0
 23 64  1  0  0  0  0
 24 26  1  0  0  0  0
 24 56  1  0  0  0  0
 25 65  1  0  0  0  0
 26 75  1  0  0  0  0
 27 85  1  0  0  0  0
 28 86  1  0  0  0  0
 29 31  2  0  0  0  0
 29 85  1  0  0  0  0
 30 87  1  0  0  0  0
 31 88  1  0  0  0  0
 32 69  2  0  0  0  0
 33 70  1  0  0  0  0
 33 73  1  0  0  0  0
 34 74  1  0  0  0  0
 34 80  2  0  0  0  0
 35 52  1  0  0  0  0
 35 76  1  0  0  0  0
 35 81  2  0  0  0  0
 36 66  1  0  0  0  0
 36 71  1  0  0  0  0
 36 82  2  0  0  0  0
 37 67  1  0  0  0  0
 37 77  1  0  0  0  0
 37 83  2  0  0  0  0
 38 72  1  0  0  0  0
 38 75  1  0  0  0  0
 38 84  2  0  0  0  0
 39 42  1  0  0  0  0
 40 52  1  0  0  0  0
 41 71  1  0  0  0  0
 42 44  1  0  0  0  0
 43 45  1  0  0  0  0
 43 48  1  0  0  0  0
 44 51  1  0  0  0  0
 45 53  1  0  0  0  0
 46 47  1  0  0  0  0
 46 54  1  0  0  0  0
 47 55  1  0  0  0  0
 48 72  1  0  0  0  0
 49 53  1  0  0  0  0
 49 72  1  0  0  0  0
 50 54  1  0  0  0  0
 50 78  1  0  0  0  0
 51 76  1  0  0  0  0
 52 71  1  0  0  0  0
 53 70  1  0  0  0  0
 54 86  1  0  0  0  0
 55 57  1  0  0  0  0
 55 78  1  0  0  0  0
 58 64  1  0  0  0  0
 59 67  1  0  0  0  0
 60 68  1  0  0  0  0
 61 68  1  0  0  0  0
 62 68  1  0  0  0  0
 63 79  1  0  0  0  0
 65 78  1  0  0  0  0
 66 68  1  0  0  0  0
 66 77  1  0  0  0  0
 67 79  1  0  0  0  0
 69 70  1  0  0  0  0
M  CHG  2  78   1  79   1
M  ISO  4  38 100  54 101  75 100  86 101
M  END
> <Batch ID>
0037

> <Smiles>
CCc1cc(C)c([100NH:0][100C:0](=O)N2CCCC(n3nc(-c4ccc(Oc5ccc(F)cc5F)cc4)c(C(N)=O)c3N)C2)cc1CN1C[101CH:1]([101O:1]c2ccc3c(c2)CN(C(=O)C(NC(=O)C(C)NC)C(C)(C)C)C(C(=O)NC2CCCc4ccccc42)C3)CCC1C

> <Shape>
0.219

> <Color>
0.058

> <Negative vol penalty>
0.000

$$$$

  -OEChem-04042321573D

 87 96  0     1  0  0  0  0  0999 V2000
  -24.9182  -35.3123   27.3633 C   0  0  0  0  0  0  0  0  0  0  0  0
  -23.9128  -34.7211   26.6049 C   0  0  0  0  0  0  0  0  0  0  0  0
  -27.1075  -11.7084   20.3744 C   0  0  0  0  0  0  0  0  0  0  0  0
  -26.0481  -13.7884   19.7511 C   0  0  0  0  0  0  0  0  0  0  0  0
  -26.1577  -35.5836   26.7853 C   0  0  0  0  0  0  0  0  0  0  0  0
  -24.1460  -34.4019   25.2677 C   0  0  0  0  0  0  0  0  0  0  0  0
  -23.4955  -27.6282   22.9045 C   0  0  0  0  0  0  0  0  0  0  0  0
  -28.9582  -23.9218   20.4813 C   0  0  0  0  0  0  0  0  0  0  0  0
  -27.7741  -24.0240   19.7512 C   0  0  0  0  0  0  0  0  0  0  0  0
  -25.9124  -11.0290   20.1387 C   0  0  0  0  0  0  0  0  0  0  0  0
  -24.8529  -13.1090   19.5154 C   0  0  0  0  0  0  0  0  0  0  0  0
  -23.1870  -26.3941   22.3317 C   0  0  0  0  0  0  0  0  0  0  0  0
  -22.9751  -10.5298   21.7348 C   0  0  0  0  0  0  0  0  0  0  0  0
  -22.5661   -9.5916   22.6824 C   0  0  0  0  0  0  0  0  0  0  0  0
  -23.9231  -27.1996   20.1736 C   0  0  0  0  0  0  0  0  0  0  0  0
  -22.6313   -7.8614   20.9973 C   0  0  0  0  0  0  0  0  0  0  0  0
  -27.1754  -13.0882   20.1806 C   0  0  0  0  0  0  0  0  0  0  0  0
  -29.6478  -13.5795   19.7888 C   0  0  0  0  0  0  0  0  0  0  0  0
  -26.4093  -35.2587   25.4430 C   0  0  0  0  0  0  0  0  0  0  0  0
  -24.0341  -28.6488   22.1160 C   0  0  0  0  0  0  0  0  0  0  0  0
  -25.3895  -34.6703   24.6708 C   0  0  0  0  0  0  0  0  0  0  0  0
  -24.2458  -28.4337   20.7443 C   0  0  0  0  0  0  0  0  0  0  0  0
  -29.3463  -22.6916   21.0120 C   0  0  0  0  0  0  0  0  0  0  0  0
  -27.3662  -21.6658   20.0824 C   0  0  0  0  0  0  0  0  0  0  0  0
  -26.9781  -22.8961   19.5517 C   0  0  0  0  0  0  0  0  0  0  0  0
  -28.5504  -21.5636   20.8125 C   0  0  0  0  0  0  0  0  0  0  0  0
  -24.7850  -11.7293   19.7092 C   0  0  0  0  0  0  0  0  0  0  0  0
  -23.4000  -26.1805   20.9697 C   0  0  0  0  0  0  0  0  0  0  0  0
  -23.2120  -10.1340   20.4184 C   0  0  0  0  0  0  0  0  0  0  0  0
  -22.3943   -8.2573   22.3137 C   0  0  0  0  0  0  0  0  0  0  0  0
  -23.0402   -8.7997   20.0497 C   0  0  0  0  0  0  0  0  0  0  0  0
  -28.4096  -13.7906   20.4244 C   0  0  0  0  0  0  0  0  0  0  0  0
  -30.4927  -14.4926   20.3708 C   0  0  0  0  0  0  0  0  0  0  0  0
  -25.7062  -22.8507   17.4124 C   0  0  0  0  0  0  0  0  0  0  0  0
  -26.7608  -22.8128   16.5722 C   0  0  0  0  0  0  0  0  0  0  0  0
  -30.0025  -12.6417   18.7638 C   0  0  0  0  0  0  0  0  0  0  0  0
  -25.3451  -32.1606   21.9593 C   0  0  0  0  0  0  0  0  0  0  0  0
  -27.1667  -30.4493   20.1808 C   0  0  0  0  0  0  0  0  0  0  0  0
  -29.1919  -28.2219   19.2639 C   0  0  0  0  0  0  0  0  0  0  0  0
  -29.6920  -20.0845   22.5122 C   0  0  0  0  0  0  0  0  0  0  0  0
  -27.7492  -35.6144   24.8489 C   0  0  0  0  0  0  0  0  0  0  0  0
  -24.3240  -30.0141   22.6780 C   0  0  0  0  0  0  0  0  0  0  0  0
  -24.7946  -29.5719   19.9281 C   0  0  0  0  0  0  0  0  0  0  0  0
  -24.3257  -22.7380   16.7874 C   0  0  0  0  0  0  0  0  0  0  0  0
  -28.0388  -34.9027   23.5298 C   0  0  0  0  0  0  0  0  0  0  0  0
  -23.5691  -24.0671   16.7811 C   0  0  0  0  0  0  0  0  0  0  0  0
  -30.1154  -17.0872   24.6326 C   0  0  0  0  0  0  0  0  0  0  0  0
  -26.8297  -34.9825   22.6034 C   0  0  0  0  0  0  0  0  0  0  0  0
  -30.0862  -15.8887   23.6829 C   0  0  0  0  0  0  0  0  0  0  0  0
  -22.9193  -24.4204   18.1150 C   0  0  0  0  0  0  0  0  0  0  0  0
  -30.6783  -18.3439   23.9830 C   0  0  0  0  0  0  0  0  0  0  0  0
  -29.4659  -17.6125   21.9176 C   0  0  0  0  0  0  0  0  0  0  0  0
  -24.5910  -23.2499   19.6531 C   0  0  0  0  0  0  0  0  0  0  0  0
  -25.6123  -34.2867   23.2240 C   0  0  1  0  0  0  0  0  0  0  0  0
  -25.5594  -30.6779   22.0438 C   0  0  1  0  0  0  0  0  0  0  0  0
  -30.1938  -16.2893   22.2020 C   0  0  2  0  0  0  0  0  0  0  0  0
  -23.8829  -24.5590   19.2924 C   0  0  2  0  0  0  0  0  0  1  0  0
  -30.6201  -22.6139   21.7896 C   0  0  0  0  0  0  0  0  0  0  0  0
  -26.5087  -20.4568   19.8676 C   0  0  0  0  0  0  0  0  0  0  0  0
  -31.0086  -26.7609   18.3355 C   0  0  0  0  0  0  0  0  0  0  0  0
  -25.6865  -31.4718   17.7176 C   0  0  0  0  0  0  0  0  0  0  0  0
  -27.4450  -30.3920   16.3000 C   0  0  0  0  0  0  0  0  0  0  0  0
  -28.0689  -32.2135   17.8861 C   0  0  0  0  0  0  0  0  0  0  0  0
  -31.0421  -28.9261   21.4638 C   0  0  0  0  0  0  0  0  0  0  0  0
  -27.4592  -29.9341   18.7942 C   0  0  1  0  0  0  0  0  0  0  0  0
  -30.6891  -27.9870   19.1764 C   0  0  2  0  0  0  0  0  0  0  0  0
  -27.1500  -30.9875   17.6932 C   0  0  0  0  0  0  0  0  0  0  0  0
  -28.4590  -14.7617   21.3402 N   0  0  0  0  0  0  0  0  0  0  0  0
  -29.7386  -15.1687   21.2843 N   0  0  0  0  0  0  0  0  0  0  0  0
  -25.7729  -23.0220   18.8045 N   0  0  0  0  0  0  0  0  0  0  0  0
  -25.8700  -30.2490   20.6695 N   0  0  0  0  0  0  0  0  0  0  0  0
  -29.9217  -18.7136   22.7833 N   0  0  0  0  0  0  0  0  0  0  0  0
  -31.7996  -14.7751   20.1853 N   0  0  0  0  0  0  0  0  0  0  0  0
  -29.8668  -13.0325   17.4247 N   0  0  0  0  0  0  0  0  0  0  0  0
  -28.9463  -20.3151   21.3534 N   0  0  0  0  0  0  0  0  0  0  0  0
  -25.7301  -32.8502   23.0932 N   0  0  0  0  0  0  0  0  0  0  0  0
  -28.8447  -29.4776   18.8122 N   0  0  0  0  0  0  0  0  0  0  0  0
  -31.2622  -27.7859   20.5373 N   0  3  0  0  0  0  0  0  0  0  0  0
  -30.4117  -11.4856   19.0275 O   0  0  0  0  0  0  0  0  0  0  0  0
  -24.8670  -32.6449   20.9402 O   0  0  0  0  0  0  0  0  0  0  0  0
  -28.0602  -31.0192   20.8133 O   0  0  0  0  0  0  0  0  0  0  0  0
  -28.4083  -27.3748   19.6869 O   0  0  0  0  0  0  0  0  0  0  0  0
  -30.1117  -20.9714   23.2588 O   0  0  0  0  0  0  0  0  0  0  0  0
  -23.6187  -11.0666   19.4790 O   0  0  0  0  0  0  0  0  0  0  0  0
  -23.1008  -24.9718   20.4179 O   0  0  0  0  0  0  0  0  0  1  0  0
  -22.0031   -7.3561   23.2241 F   0  0  0  0  0  0  0  0  0  0  0  0
  -23.2675   -8.4132   18.7869 F   0  0  0  0  0  0  0  0  0  0  0  0
  1  2  1  0  0  0  0
  1  5  2  0  0  0  0
  2  6  2  0  0  0  0
  3 10  2  0  0  0  0
  3 17  1  0  0  0  0
  4 11  1  0  0  0  0
  4 17  2  0  0  0  0
  5 19  1  0  0  0  0
  6 21  1  0  0  0  0
  7 12  2  0  0  0  0
  7 20  1  0  0  0  0
  8  9  2  0  0  0  0
  8 23  1  0  0  0  0
  9 25  1  0  0  0  0
 10 27  1  0  0  0  0
 11 27  2  0  0  0  0
 12 28  1  0  0  0  0
 13 14  2  0  0  0  0
 13 29  1  0  0  0  0
 14 30  1  0  0  0  0
 15 22  1  0  0  0  0
 15 28  2  0  0  0  0
 16 30  2  0  0  0  0
 16 31  1  0  0  0  0
 17 32  1  0  0  0  0
 18 32  1  0  0  0  0
 18 33  2  0  0  0  0
 18 36  1  0  0  0  0
 19 21  2  0  0  0  0
 19 41  1  0  0  0  0
 20 22  2  0  0  0  0
 20 42  1  0  0  0  0
 21 54  1  0  0  0  0
 22 43  1  0  0  0  0
 23 26  2  0  0  0  0
 23 58  1  0  0  0  0
 24 25  2  0  0  0  0
 24 26  1  0  0  0  0
 24 59  1  0  0  0  0
 25 70  1  0  0  0  0
 26 75  1  0  0  0  0
 27 84  1  0  0  0  0
 28 85  1  0  0  0  0
 29 31  2  0  0  0  0
 29 84  1  0  0  0  0
 30 86  1  0  0  0  0
 31 87  1  0  0  0  0
 32 68  2  0  0  0  0
 33 69  1  0  0  0  0
 33 73  1  0  0  0  0
 34 35  2  0  0  0  0
 34 44  1  0  0  0  0
 34 70  1  0  0  0  0
 36 74  1  0  0  0  0
 36 79  2  0  0  0  0
 37 55  1  0  0  0  0
 37 76  1  0  0  0  0
 37 80  2  0  0  0  0
 38 65  1  0  0  0  0
 38 71  1  0  0  0  0
 38 81  2  0  0  0  0
 39 66  1  0  0  0  0
 39 77  1  0  0  0  0
 39 82  2  0  0  0  0
 40 72  1  0  0  0  0
 40 75  1  0  0  0  0
 40 83  2  0  0  0  0
 41 45  1  0  0  0  0
 42 55  1  0  0  0  0
 43 71  1  0  0  0  0
 44 46  1  0  0  0  0
 45 48  1  0  0  0  0
 46 50  1  0  0  0  0
 47 49  1  0  0  0  0
 47 51  1  0  0  0  0
 48 54  1  0  0  0  0
 49 56  1  0  0  0  0
 50 57  1  0  0  0  0
 51 72  1  0  0  0  0
 52 56  1  0  0  0  0
 52 72  1  0  0  0  0
 53 57  1  0  0  0  0
 53 70  1  0  0  0  0
 54 76  1  0  0  0  0
 55 71  1  0  0  0  0
 56 69  1  0  0  0  0
 57 85  1  0  0  0  0
 60 66  1  0  0  0  0
 61 67  1  0  0  0  0
 62 67  1  0  0  0  0
 63 67  1  0  0  0  0
 64 78  1  0  0  0  0
 65 67  1  0  0  0  0
 65 77  1  0  0  0  0
 66 78  1  0  0  0  0
 68 69  1  0  0  0  0
M  CHG  1  78   1
M  ISO  4  40 100  57 101  75 100  85 101
M  END
> <Batch ID>
0037

> <Smiles>
C=C1CCC[101CH:1]([101O:1]c2ccc3c(c2)CN(C(=O)C(NC(=O)C(C)NC)C(C)(C)C)C(C(=O)NC2CCCc4ccccc42)C3)CN1c1ccc(C)c([100NH:0][100C:0](=O)N2CCCC(n3nc(-c4ccc(Oc5ccc(F)cc5F)cc4)c(C(N)=O)c3N)C2)c1C

> <Shape>
0.278

> <Color>
0.069

> <Negative vol penalty>
0.000

$$$$

  -OEChem-04042321573D

 90 99  0     1  0  0  0  0  0999 V2000
  -27.5140  -38.5730   24.6625 C   0  0  0  0  0  0  0  0  0  0  0  0
  -28.2581  -37.4118   24.8449 C   0  0  0  0  0  0  0  0  0  0  0  0
  -24.7992   -8.1940   20.9692 C   0  0  0  0  0  0  0  0  0  0  0  0
  -23.4504  -10.1348   21.4701 C   0  0  0  0  0  0  0  0  0  0  0  0
  -26.1237  -38.5310   24.7592 C   0  0  0  0  0  0  0  0  0  0  0  0
  -27.6124  -36.2081   25.1253 C   0  0  0  0  0  0  0  0  0  0  0  0
  -28.4050  -30.4849   20.8232 C   0  0  0  0  0  0  0  0  0  0  0  0
  -23.6613   -7.3892   21.0233 C   0  0  0  0  0  0  0  0  0  0  0  0
  -22.3124   -9.3300   21.5242 C   0  0  0  0  0  0  0  0  0  0  0  0
  -28.6733  -29.2840   20.1659 C   0  0  0  0  0  0  0  0  0  0  0  0
  -21.0408   -6.6425   19.0212 C   0  0  0  0  0  0  0  0  0  0  0  0
  -20.8667   -5.6972   18.0105 C   0  0  0  0  0  0  0  0  0  0  0  0
  -27.0968  -28.1365   21.5961 C   0  0  0  0  0  0  0  0  0  0  0  0
  -29.6547  -18.9715   19.2790 C   0  0  0  0  0  0  0  0  0  0  0  0
  -29.5146  -18.7309   22.0548 C   0  0  0  0  0  0  0  0  0  0  0  0
  -20.8812   -3.9315   19.6595 C   0  0  0  0  0  0  0  0  0  0  0  0
  -24.6938   -9.5668   21.1926 C   0  0  0  0  0  0  0  0  0  0  0  0
  -26.7297  -10.5822   20.0385 C   0  0  0  0  0  0  0  0  0  0  0  0
  -25.4601  -37.3243   25.0314 C   0  0  0  0  0  0  0  0  0  0  0  0
  -27.4691  -30.5191   21.8607 C   0  0  0  0  0  0  0  0  0  0  0  0
  -26.2121  -36.1502   25.2271 C   0  0  0  0  0  0  0  0  0  0  0  0
  -26.8147  -29.3388   22.2500 C   0  0  0  0  0  0  0  0  0  0  0  0
  -29.7617  -20.1058   20.0835 C   0  0  0  0  0  0  0  0  0  0  0  0
  -29.4075  -17.5966   21.2502 C   0  0  0  0  0  0  0  0  0  0  0  0
  -22.4179   -7.9572   21.3008 C   0  0  0  0  0  0  0  0  0  0  0  0
  -28.0210  -28.1127   20.5516 C   0  0  0  0  0  0  0  0  0  0  0  0
  -21.1352   -6.2324   20.3511 C   0  0  0  0  0  0  0  0  0  0  0  0
  -20.7869   -4.3416   18.3296 C   0  0  0  0  0  0  0  0  0  0  0  0
  -21.0554   -4.8768   20.6702 C   0  0  0  0  0  0  0  0  0  0  0  0
  -29.4775  -17.7168   19.8623 C   0  0  0  0  0  0  0  0  0  0  0  0
  -29.6917  -19.9856   21.4714 C   0  0  0  0  0  0  0  0  0  0  0  0
  -25.8691  -10.3986   21.1373 C   0  0  0  0  0  0  0  0  0  0  0  0
  -27.6844  -11.4588   20.4929 C   0  0  0  0  0  0  0  0  0  0  0  0
  -29.9151  -24.4624   19.3819 C   0  0  0  0  0  0  0  0  0  0  0  0
  -26.6714  -10.0113   18.7246 C   0  0  0  0  0  0  0  0  0  0  0  0
  -31.0934  -24.7297   18.7988 C   0  0  0  0  0  0  0  0  0  0  0  0
  -25.6655  -32.5861   24.4201 C   0  0  0  0  0  0  0  0  0  0  0  0
  -23.6134  -30.6310   23.2468 C   0  0  0  0  0  0  0  0  0  0  0  0
  -21.5738  -28.6100   21.4048 C   0  0  0  0  0  0  0  0  0  0  0  0
  -29.1440  -16.0760   23.2414 C   0  0  0  0  0  0  0  0  0  0  0  0
  -23.9586  -37.3376   25.1733 C   0  0  0  0  0  0  0  0  0  0  0  0
  -27.1939  -31.7779   22.6375 C   0  0  0  0  0  0  0  0  0  0  0  0
  -25.8412  -29.4164   23.3942 C   0  0  0  0  0  0  0  0  0  0  0  0
  -29.5304  -25.0571   20.7168 C   0  0  0  0  0  0  0  0  0  0  0  0
  -23.3278  -35.9493   25.1027 C   0  0  0  0  0  0  0  0  0  0  0  0
  -28.6699  -13.1217   25.1711 C   0  0  0  0  0  0  0  0  0  0  0  0
  -24.0959  -34.9685   25.9830 C   0  0  0  0  0  0  0  0  0  0  0  0
  -27.5171  -24.2855   18.6792 C   0  0  0  0  0  0  0  0  0  0  0  0
  -27.9698  -12.1649   24.2033 C   0  0  0  0  0  0  0  0  0  0  0  0
  -27.0857  -24.8421   20.0402 C   0  0  0  0  0  0  0  0  0  0  0  0
  -28.2068  -14.5644   24.9768 C   0  0  0  0  0  0  0  0  0  0  0  0
  -27.6015  -14.1100   22.6323 C   0  0  0  0  0  0  0  0  0  0  0  0
  -25.5465  -34.8205   25.5083 C   0  0  1  0  0  0  0  0  0  0  0  0
  -28.8803  -23.5833   18.7234 C   0  0  2  0  0  0  0  0  0  0  0  0
  -25.7268  -31.9016   23.0863 C   0  0  1  0  0  0  0  0  0  0  0  0
  -28.0832  -12.6545   22.7462 C   0  0  2  0  0  0  0  0  0  0  0  0
  -28.1609  -25.7405   20.6586 C   0  0  2  0  0  0  0  0  0  1  0  0
  -31.4745  -24.1391   17.4739 C   0  0  0  0  0  0  0  0  0  0  0  0
  -32.1052  -25.6358   19.4351 C   0  0  0  0  0  0  0  0  0  0  0  0
  -19.1778  -27.8938   21.1956 C   0  0  0  0  0  0  0  0  0  0  0  0
  -23.9341  -28.8530   25.7043 C   0  0  0  0  0  0  0  0  0  0  0  0
  -21.9724  -27.5176   24.9065 C   0  0  0  0  0  0  0  0  0  0  0  0
  -21.6874  -29.9284   25.4803 C   0  0  0  0  0  0  0  0  0  0  0  0
  -21.3786  -29.6638   18.6462 C   0  0  0  0  0  0  0  0  0  0  0  0
  -29.9521  -21.4366   19.4174 C   0  0  0  0  0  0  0  0  0  0  0  0
  -22.9256  -29.2949   23.3690 C   0  0  1  0  0  0  0  0  0  0  0  0
  -20.2422  -28.8728   20.7250 C   0  0  2  0  0  0  0  0  0  0  0  0
  -22.6527  -28.9020   24.8484 C   0  0  0  0  0  0  0  0  0  0  0  0
  -26.2439  -11.1020   22.2091 N   0  0  0  0  0  0  0  0  0  0  0  0
  -27.3508  -11.7360   21.7860 N   0  0  0  0  0  0  0  0  0  0  0  0
  -25.0134  -30.6261   23.2683 N   0  0  0  0  0  0  0  0  0  0  0  0
  -28.3471  -14.9601   23.5737 N   0  0  0  0  0  0  0  0  0  0  0  0
  -28.7684  -12.0119   19.9085 N   0  0  0  0  0  0  0  0  0  0  0  0
  -25.9554  -10.6930   17.7311 N   0  0  0  0  0  0  0  0  0  0  0  0
  -29.2293  -16.3370   21.8742 N   0  0  0  0  0  0  0  0  0  0  0  0
  -25.6122  -33.9648   24.3430 N   0  0  0  0  0  0  0  0  0  0  0  0
  -21.7269  -29.3756   22.5414 N   0  0  0  0  0  0  0  0  0  0  0  0
  -28.7252  -22.2703   19.4231 N   0  3  0  0  0  0  0  0  0  0  0  0
  -20.3805  -28.7419   19.2469 N   0  3  0  0  0  0  0  0  0  0  0  0
  -27.2236   -8.9205   18.4442 O   0  0  0  0  0  0  0  0  0  0  0  0
  -25.6651  -31.9139   25.4447 O   0  0  0  0  0  0  0  0  0  0  0  0
  -22.9303  -31.6535   23.1406 O   0  0  0  0  0  0  0  0  0  0  0  0
  -22.3944  -27.8033   20.9731 O   0  0  0  0  0  0  0  0  0  0  0  0
  -29.7312  -16.7342   24.1040 O   0  0  0  0  0  0  0  0  0  0  0  0
  -21.3072   -7.1722   21.3535 O   0  0  0  0  0  0  0  0  0  0  0  0
  -28.2843  -26.9447   19.9025 O   0  0  0  0  0  0  0  0  0  1  0  0
  -20.6181   -3.4340   17.3591 F   0  0  0  0  0  0  0  0  0  0  0  0
  -21.1442   -4.4769   21.9462 F   0  0  0  0  0  0  0  0  0  0  0  0
  -29.3489  -16.3382   18.8292 Cl  0  0  0  0  0  0  0  0  0  0  0  0
  -29.8191  -21.3675   22.4980 Cl  0  0  0  0  0  0  0  0  0  0  0  0
  1  2  1  0  0  0  0
  1  5  2  0  0  0  0
  2  6  2  0  0  0  0
  3  8  2  0  0  0  0
  3 17  1  0  0  0  0
  4  9  1  0  0  0  0
  4 17  2  0  0  0  0
  5 19  1  0  0  0  0
  6 21  1  0  0  0  0
  7 10  2  0  0  0  0
  7 20  1  0  0  0  0
  8 25  1  0  0  0  0
  9 25  2  0  0  0  0
 10 26  1  0  0  0  0
 11 12  2  0  0  0  0
 11 27  1  0  0  0  0
 12 28  1  0  0  0  0
 13 22  1  0  0  0  0
 13 26  2  0  0  0  0
 14 23  1  0  0  0  0
 14 30  2  0  0  0  0
 15 24  2  0  0  0  0
 15 31  1  0  0  0  0
 16 28  2  0  0  0  0
 16 29  1  0  0  0  0
 17 32  1  0  0  0  0
 18 32  1  0  0  0  0
 18 33  2  0  0  0  0
 18 35  1  0  0  0  0
 19 21  2  0  0  0  0
 19 41  1  0  0  0  0
 20 22  2  0  0  0  0
 20 42  1  0  0  0  0
 21 53  1  0  0  0  0
 22 43  1  0  0  0  0
 23 31  2  0  0  0  0
 23 65  1  0  0  0  0
 24 30  1  0  0  0  0
 24 75  1  0  0  0  0
 25 85  1  0  0  0  0
 26 86  1  0  0  0  0
 27 29  2  0  0  0  0
 27 85  1  0  0  0  0
 28 87  1  0  0  0  0
 29 88  1  0  0  0  0
 30 89  1  0  0  0  0
 31 90  1  0  0  0  0
 32 69  2  0  0  0  0
 33 70  1  0  0  0  0
 33 73  1  0  0  0  0
 34 36  2  0  0  0  0
 34 44  1  0  0  0  0
 34 54  1  0  0  0  0
 35 74  1  0  0  0  0
 35 80  2  0  0  0  0
 36 58  1  0  0  0  0
 36 59  1  0  0  0  0
 37 55  1  0  0  0  0
 37 76  1  0  0  0  0
 37 81  2  0  0  0  0
 38 66  1  0  0  0  0
 38 71  1  0  0  0  0
 38 82  2  0  0  0  0
 39 67  1  0  0  0  0
 39 77  1  0  0  0  0
 39 83  2  0  0  0  0
 40 72  1  0  0  0  0
 40 75  1  0  0  0  0
 40 84  2  0  0  0  0
 41 45  1  0  0  0  0
 42 55  1  0  0  0  0
 43 71  1  0  0  0  0
 44 57  1  0  0  0  0
 45 47  1  0  0  0  0
 46 49  1  0  0  0  0
 46 51  1  0  0  0  0
 47 53  1  0  0  0  0
 48 50  1  0  0  0  0
 48 54  1  0  0  0  0
 49 56  1  0  0  0  0
 50 57  1  0  0  0  0
 51 72  1  0  0  0  0
 52 56  1  0  0  0  0
 52 72  1  0  0  0  0
 53 76  1  0  0  0  0
 54 78  1  0  0  0  0
 55 71  1  0  0  0  0
 56 70  1  0  0  0  0
 57 86  1  0  0  0  0
 60 67  1  0  0  0  0
 61 68  1  0  0  0  0
 62 68  1  0  0  0  0
 63 68  1  0  0  0  0
 64 79  1  0  0  0  0
 65 78  1  0  0  0  0
 66 68  1  0  0  0  0
 66 77  1  0  0  0  0
 67 79  1  0  0  0  0
 69 70  1  0  0  0  0
M  CHG  2  78   1  79   1
M  ISO  4  40 100  57 101  75 100  86 101
M  END
> <Batch ID>
0037

> <Smiles>
CNC(C)C(=O)NC(C(=O)N1Cc2cc([101O:1][101CH:1]3CCC(NCc4cc(Cl)c([100NH:0][100C:0](=O)N5CCCC(n6nc(-c7ccc(Oc8ccc(F)cc8F)cc7)c(C(N)=O)c6N)C5)cc4Cl)C(=C(C)C)C3)ccc2CC1C(=O)NC1CCCc2ccccc21)C(C)(C)C

> <Shape>
0.300

> <Color>
0.089

> <Negative vol penalty>
0.000

$$$$

  -OEChem-04042321573D

 84 92  0     1  0  0  0  0  0999 V2000
  -18.3955  -25.3699   20.1060 C   0  0  0  0  0  0  0  0  0  0  0  0
  -19.6183  -25.7705   19.5771 C   0  0  0  0  0  0  0  0  0  0  0  0
  -24.0484  -13.4867   20.2990 C   0  0  0  0  0  0  0  0  0  0  0  0
  -26.3840  -13.4907   20.9170 C   0  0  0  0  0  0  0  0  0  0  0  0
  -17.9678  -25.8774   21.3322 C   0  0  0  0  0  0  0  0  0  0  0  0
  -20.4137  -26.6797   20.2737 C   0  0  0  0  0  0  0  0  0  0  0  0
  -25.2884  -25.3120   20.3818 C   0  0  0  0  0  0  0  0  0  0  0  0
  -24.0785  -12.0962   20.1940 C   0  0  0  0  0  0  0  0  0  0  0  0
  -26.4141  -12.1001   20.8121 C   0  0  0  0  0  0  0  0  0  0  0  0
  -26.0409  -25.5458   19.2317 C   0  0  0  0  0  0  0  0  0  0  0  0
  -23.4474   -8.5170   20.1146 C   0  0  0  0  0  0  0  0  0  0  0  0
  -22.3939   -7.8008   20.6827 C   0  0  0  0  0  0  0  0  0  0  0  0
  -26.9590  -27.5337   20.2438 C   0  0  0  0  0  0  0  0  0  0  0  0
  -30.5965  -22.8756   18.1379 C   0  0  0  0  0  0  0  0  0  0  0  0
  -31.0344  -22.4432   20.8589 C   0  0  0  0  0  0  0  0  0  0  0  0
  -22.9372   -8.7205   22.8497 C   0  0  0  0  0  0  0  0  0  0  0  0
  -25.2011  -14.1840   20.6604 C   0  0  0  0  0  0  0  0  0  0  0  0
  -24.8667  -16.3806   21.9137 C   0  0  0  0  0  0  0  0  0  0  0  0
  -18.7628  -26.7858   22.0487 C   0  0  0  0  0  0  0  0  0  0  0  0
  -25.3573  -26.1948   21.4692 C   0  0  0  0  0  0  0  0  0  0  0  0
  -19.9956  -27.2008   21.5099 C   0  0  0  0  0  0  0  0  0  0  0  0
  -26.2083  -27.3075   21.4076 C   0  0  0  0  0  0  0  0  0  0  0  0
  -30.6450  -21.5745   18.6383 C   0  0  0  0  0  0  0  0  0  0  0  0
  -30.9859  -23.7443   20.3584 C   0  0  0  0  0  0  0  0  0  0  0  0
  -30.7670  -23.9605   18.9979 C   0  0  0  0  0  0  0  0  0  0  0  0
  -25.2613  -11.4029   20.4506 C   0  0  0  0  0  0  0  0  0  0  0  0
  -26.8742  -26.6583   19.1614 C   0  0  0  0  0  0  0  0  0  0  0  0
  -24.2459   -9.3349   20.9141 C   0  0  0  0  0  0  0  0  0  0  0  0
  -22.1388   -7.9026   22.0502 C   0  0  0  0  0  0  0  0  0  0  0  0
  -23.9908   -9.4367   22.2816 C   0  0  0  0  0  0  0  0  0  0  0  0
  -30.8639  -21.3583   19.9988 C   0  0  0  0  0  0  0  0  0  0  0  0
  -25.1708  -15.6205   20.7685 C   0  0  0  0  0  0  0  0  0  0  0  0
  -24.9752  -17.6854   21.4986 C   0  0  0  0  0  0  0  0  0  0  0  0
  -24.5175  -15.9462   23.2347 C   0  0  0  0  0  0  0  0  0  0  0  0
  -23.2759  -28.0682   22.9730 C   0  0  0  0  0  0  0  0  0  0  0  0
  -25.7641  -28.5485   24.9980 C   0  0  0  0  0  0  0  0  0  0  0  0
  -29.1406  -28.5341   25.4935 C   0  0  0  0  0  0  0  0  0  0  0  0
  -28.0516  -20.3184   17.0879 C   0  0  0  0  0  0  0  0  0  0  0  0
  -18.2368  -27.3433   23.3477 C   0  0  0  0  0  0  0  0  0  0  0  0
  -24.5594  -25.9140   22.7130 C   0  0  0  0  0  0  0  0  0  0  0  0
  -26.3335  -28.2746   22.5554 C   0  0  0  0  0  0  0  0  0  0  0  0
  -19.3095  -28.0155   24.2007 C   0  0  0  0  0  0  0  0  0  0  0  0
  -24.5299  -20.4240   17.6008 C   0  0  0  0  0  0  0  0  0  0  0  0
  -20.1657  -28.9453   23.3467 C   0  0  0  0  0  0  0  0  0  0  0  0
  -24.2674  -19.2734   18.5741 C   0  0  0  0  0  0  0  0  0  0  0  0
  -25.6340  -20.0790   16.6038 C   0  0  0  0  0  0  0  0  0  0  0  0
  -26.6369  -18.4775   18.1860 C   0  0  0  0  0  0  0  0  0  0  0  0
  -20.8979  -28.1663   22.2474 C   0  0  1  0  0  0  0  0  0  0  0  0
  -24.3172  -27.1586   23.5612 C   0  0  1  0  0  0  0  0  0  0  0  0
  -25.5699  -18.7994   19.2463 C   0  0  2  0  0  0  0  0  0  0  0  0
  -31.1723  -24.8880   21.3017 C   0  0  0  0  0  0  0  0  0  0  0  0
  -30.8771  -29.0094   27.2416 C   0  0  0  0  0  0  0  0  0  0  0  0
  -25.3719  -31.5440   24.5696 C   0  0  0  0  0  0  0  0  0  0  0  0
  -27.6523  -31.9100   25.5361 C   0  0  0  0  0  0  0  0  0  0  0  0
  -25.8581  -30.8828   26.9320 C   0  0  0  0  0  0  0  0  0  0  0  0
  -30.1285  -25.7449   25.4364 C   0  0  0  0  0  0  0  0  0  0  0  0
  -30.4577  -20.4395   17.6840 C   0  0  0  0  0  0  0  0  0  0  0  0
  -29.8251  -27.0782   17.1376 C   0  0  0  0  0  0  0  0  0  0  0  0
  -30.1015  -25.5820   17.2221 C   0  0  0  0  0  0  0  0  0  0  0  0
  -28.8548  -27.5654   18.2072 C   0  0  0  0  0  0  0  0  0  1  0  0
  -26.9082  -29.5306   25.0717 C   0  0  1  0  0  0  0  0  0  0  0  0
  -29.9932  -27.9484   26.6046 C   0  0  2  0  0  0  0  0  0  0  0  0
  -26.4440  -30.9499   25.5048 C   0  0  0  0  0  0  0  0  0  0  0  0
  -25.4513  -16.3792   19.7056 N   0  0  0  0  0  0  0  0  0  0  0  0
  -25.3238  -17.6296   20.1812 N   0  0  0  0  0  0  0  0  0  0  0  0
  -25.5284  -27.9603   23.7473 N   0  0  0  0  0  0  0  0  0  0  0  0
  -26.8420  -19.6384   17.3056 N   0  0  0  0  0  0  0  0  0  0  0  0
  -24.8054  -18.8634   22.1355 N   0  0  0  0  0  0  0  0  0  0  0  0
  -24.4515  -14.5696   23.4897 N   0  0  0  0  0  0  0  0  0  0  0  0
  -30.7165  -25.2468   18.4837 N   0  0  0  0  0  0  0  0  0  0  0  0
  -22.0421  -27.4712   22.7970 N   0  0  0  0  0  0  0  0  0  0  0  0
  -27.9036  -28.9321   25.9546 N   0  0  0  0  0  0  0  0  0  0  0  0
  -29.1466  -19.8404   17.7973 N   0  0  0  0  0  0  0  0  0  0  0  0
  -30.8679  -26.8664   26.0708 N   0  3  0  0  0  0  0  0  0  0  0  0
  -24.2551  -16.7547   24.1572 O   0  0  0  0  0  0  0  0  0  0  0  0
  -23.5695  -29.2263   22.7005 O   0  0  0  0  0  0  0  0  0  0  0  0
  -25.1083  -28.3067   26.0144 O   0  0  0  0  0  0  0  0  0  0  0  0
  -29.5342  -28.6323   24.3333 O   0  0  0  0  0  0  0  0  0  0  0  0
  -28.1474  -21.2838   16.3225 O   0  0  0  0  0  0  0  0  0  0  0  0
  -25.2910  -10.0459   20.3485 O   0  0  0  0  0  0  0  0  0  0  0  0
  -27.6094  -26.8892   18.0398 O   0  0  0  0  0  0  0  0  0  1  0  0
  -21.1261   -7.2159   22.5954 F   0  0  0  0  0  0  0  0  0  0  0  0
  -24.7537  -10.2217   23.0546 F   0  0  0  0  0  0  0  0  0  0  0  0
  -30.9306  -19.7624   20.6530 Cl  0  0  0  0  0  0  0  0  0  0  0  0
  1  2  1  0  0  0  0
  1  5  2  0  0  0  0
  2  6  2  0  0  0  0
  3  8  2  0  0  0  0
  3 17  1  0  0  0  0
  4  9  1  0  0  0  0
  4 17  2  0  0  0  0
  5 19  1  0  0  0  0
  6 21  1  0  0  0  0
  7 10  2  0  0  0  0
  7 20  1  0  0  0  0
  8 26  1  0  0  0  0
  9 26  2  0  0  0  0
 10 27  1  0  0  0  0
 11 12  2  0  0  0  0
 11 28  1  0  0  0  0
 12 29  1  0  0  0  0
 13 22  1  0  0  0  0
 13 27  2  0  0  0  0
 14 23  2  0  0  0  0
 14 25  1  0  0  0  0
 15 24  1  0  0  0  0
 15 31  2  0  0  0  0
 16 29  2  0  0  0  0
 16 30  1  0  0  0  0
 17 32  1  0  0  0  0
 18 32  1  0  0  0  0
 18 33  2  0  0  0  0
 18 34  1  0  0  0  0
 19 21  2  0  0  0  0
 19 39  1  0  0  0  0
 20 22  2  0  0  0  0
 20 40  1  0  0  0  0
 21 48  1  0  0  0  0
 22 41  1  0  0  0  0
 23 31  1  0  0  0  0
 23 57  1  0  0  0  0
 24 25  2  0  0  0  0
 24 51  1  0  0  0  0
 25 70  1  0  0  0  0
 26 80  1  0  0  0  0
 27 81  1  0  0  0  0
 28 30  2  0  0  0  0
 28 80  1  0  0  0  0
 29 82  1  0  0  0  0
 30 83  1  0  0  0  0
 31 84  1  0  0  0  0
 32 64  2  0  0  0  0
 33 65  1  0  0  0  0
 33 68  1  0  0  0  0
 34 69  1  0  0  0  0
 34 75  2  0  0  0  0
 35 49  1  0  0  0  0
 35 71  1  0  0  0  0
 35 76  2  0  0  0  0
 36 61  1  0  0  0  0
 36 66  1  0  0  0  0
 36 77  2  0  0  0  0
 37 62  1  0  0  0  0
 37 72  1  0  0  0  0
 37 78  2  0  0  0  0
 38 67  1  0  0  0  0
 38 73  1  0  0  0  0
 38 79  2  0  0  0  0
 39 42  1  0  0  0  0
 40 49  1  0  0  0  0
 41 66  1  0  0  0  0
 42 44  1  0  0  0  0
 43 45  1  0  0  0  0
 43 46  1  0  0  0  0
 44 48  1  0  0  0  0
 45 50  1  0  0  0  0
 46 67  1  0  0  0  0
 47 50  1  0  0  0  0
 47 67  1  0  0  0  0
 48 71  1  0  0  0  0
 49 66  1  0  0  0  0
 50 65  1  0  0  0  0
 52 62  1  0  0  0  0
 53 63  1  0  0  0  0
 54 63  1  0  0  0  0
 55 63  1  0  0  0  0
 56 74  1  0  0  0  0
 57 73  1  0  0  0  0
 58 59  1  0  0  0  0
 58 60  1  0  0  0  0
 59 70  1  0  0  0  0
 60 81  1  0  0  0  0
 61 63  1  0  0  0  0
 61 72  1  0  0  0  0
 62 74  1  0  0  0  0
 64 65  1  0  0  0  0
M  CHG  1  74   1
M  ISO  4  38 100  60 101  73 100  81 101
M  END
> <Batch ID>
0037

> <Smiles>
CNC(C)C(=O)NC(C(=O)N1Cc2cc([101O:1][101CH2:1]CCNc3cc(C[100NH:0][100C:0](=O)N4CCCC(n5nc(-c6ccc(Oc7ccc(F)cc7F)cc6)c(C(N)=O)c5N)C4)c(Cl)cc3C)ccc2CC1C(=O)NC1CCCc2ccccc21)C(C)(C)C

> <Shape>
0.241

> <Color>
0.083

> <Negative vol penalty>
0.000

$$$$

  -OEChem-04042321573D

 90 99  0     1  0  0  0  0  0999 V2000
  -22.5403   -8.3276   16.1020 C   0  0  0  0  0  0  0  0  0  0  0  0
  -22.1923   -8.9991   17.2696 C   0  0  0  0  0  0  0  0  0  0  0  0
  -30.5066  -23.9451   19.1201 C   0  0  0  0  0  0  0  0  0  0  0  0
  -22.5849  -32.4112   21.8804 C   0  0  0  0  0  0  0  0  0  0  0  0
  -22.6672  -30.4507   23.2900 C   0  0  0  0  0  0  0  0  0  0  0  0
  -23.8838   -8.1684   15.7648 C   0  0  0  0  0  0  0  0  0  0  0  0
  -23.1876   -9.5108   18.1013 C   0  0  0  0  0  0  0  0  0  0  0  0
  -23.4619  -16.5368   19.6671 C   0  0  0  0  0  0  0  0  0  0  0  0
  -29.5158  -22.9959   19.3708 C   0  0  0  0  0  0  0  0  0  0  0  0
  -30.1992  -25.1016   18.4033 C   0  0  0  0  0  0  0  0  0  0  0  0
  -21.2395  -32.5872   22.2038 C   0  0  0  0  0  0  0  0  0  0  0  0
  -21.3218  -30.6268   23.6135 C   0  0  0  0  0  0  0  0  0  0  0  0
  -23.4575  -17.8330   20.1828 C   0  0  0  0  0  0  0  0  0  0  0  0
  -18.3169  -30.0249   22.1856 C   0  0  0  0  0  0  0  0  0  0  0  0
  -17.4926  -28.8999   22.1640 C   0  0  0  0  0  0  0  0  0  0  0  0
  -25.4818  -17.3599   21.4183 C   0  0  0  0  0  0  0  0  0  0  0  0
  -16.9887  -29.2242   24.5045 C   0  0  0  0  0  0  0  0  0  0  0  0
  -23.2987  -31.3429   22.4235 C   0  0  0  0  0  0  0  0  0  0  0  0
  -25.7441  -32.0622   22.3209 C   0  0  0  0  0  0  0  0  0  0  0  0
  -24.8959   -8.6869   16.5879 C   0  0  0  0  0  0  0  0  0  0  0  0
  -24.4860  -15.6510   20.0133 C   0  0  0  0  0  0  0  0  0  0  0  0
  -24.5459   -9.3573   17.7755 C   0  0  0  0  0  0  0  0  0  0  0  0
  -25.4983  -16.0642   20.8950 C   0  0  0  0  0  0  0  0  0  0  0  0
  -28.2176  -23.2030   18.9046 C   0  0  0  0  0  0  0  0  0  0  0  0
  -27.9101  -24.3595   18.1877 C   0  0  0  0  0  0  0  0  0  0  0  0
  -28.9010  -25.3087   17.9371 C   0  0  0  0  0  0  0  0  0  0  0  0
  -20.6080  -31.6950   23.0704 C   0  0  0  0  0  0  0  0  0  0  0  0
  -24.4648  -18.2434   21.0564 C   0  0  0  0  0  0  0  0  0  0  0  0
  -18.4772  -30.7495   23.3667 C   0  0  0  0  0  0  0  0  0  0  0  0
  -16.8284  -28.4995   23.3234 C   0  0  0  0  0  0  0  0  0  0  0  0
  -17.8130  -30.3492   24.5261 C   0  0  0  0  0  0  0  0  0  0  0  0
  -24.6884  -31.1602   22.0893 C   0  0  0  0  0  0  0  0  0  0  0  0
  -26.8551  -31.4250   21.8249 C   0  0  0  0  0  0  0  0  0  0  0  0
  -25.2017  -21.5618   20.4743 C   0  0  0  0  0  0  0  0  0  0  0  0
  -23.9812  -21.8028   19.9676 C   0  0  0  0  0  0  0  0  0  0  0  0
  -25.7224  -33.3600   22.9300 C   0  0  0  0  0  0  0  0  0  0  0  0
  -25.9674  -12.2267   19.6191 C   0  0  0  0  0  0  0  0  0  0  0  0
  -28.3049  -14.2133   19.6264 C   0  0  0  0  0  0  0  0  0  0  0  0
  -30.5547  -16.7512   19.2597 C   0  0  0  0  0  0  0  0  0  0  0  0
  -27.6391  -27.4347   17.6559 C   0  0  0  0  0  0  0  0  0  0  0  0
  -26.3353   -8.4487   16.2060 C   0  0  0  0  0  0  0  0  0  0  0  0
  -24.4973  -14.2261   19.5303 C   0  0  0  0  0  0  0  0  0  0  0  0
  -26.5608  -15.0663   21.2668 C   0  0  0  0  0  0  0  0  0  0  0  0
  -27.3196   -9.3474   16.9501 C   0  0  0  0  0  0  0  0  0  0  0  0
  -28.6461  -27.0657   21.0460 C   0  0  0  0  0  0  0  0  0  0  0  0
  -27.3708  -21.7464   22.3399 C   0  0  0  0  0  0  0  0  0  0  0  0
  -26.9961   -9.3745   18.4406 C   0  0  0  0  0  0  0  0  0  0  0  0
  -26.2615  -20.7265   22.5714 C   0  0  0  0  0  0  0  0  0  0  0  0
  -27.8314  -28.1655   21.7259 C   0  0  0  0  0  0  0  0  0  0  0  0
  -27.8477  -26.3546   19.9529 C   0  0  0  0  0  0  0  0  0  0  0  0
  -26.4480  -28.3689   19.6245 C   0  0  0  0  0  0  0  0  0  0  0  0
  -26.8588  -22.9624   21.5748 C   0  0  0  0  0  0  0  0  0  0  0  0
  -25.5962   -9.9482   18.6909 C   0  0  1  0  0  0  0  0  0  0  0  0
  -25.5862  -20.3282   21.2599 C   0  0  1  0  0  0  0  0  0  1  0  0
  -25.9162  -13.6864   19.2757 C   0  0  1  0  0  0  0  0  0  0  0  0
  -27.2448  -29.1394   20.6889 C   0  0  1  0  0  0  0  0  0  0  0  0
  -26.5157  -24.5774   17.6897 C   0  0  0  0  0  0  0  0  0  0  0  0
  -23.6304  -23.0273   19.1973 C   0  0  0  0  0  0  0  0  0  0  0  0
  -33.0007  -17.1780   18.8959 C   0  0  0  0  0  0  0  0  0  0  0  0
  -28.8561  -13.5210   22.5454 C   0  0  0  0  0  0  0  0  0  0  0  0
  -30.9840  -14.8298   22.3802 C   0  0  0  0  0  0  0  0  0  0  0  0
  -30.6470  -12.8145   20.9492 C   0  0  0  0  0  0  0  0  0  0  0  0
  -30.0487  -18.1500   16.7011 C   0  0  0  0  0  0  0  0  0  0  0  0
  -27.1711  -22.1661   19.1882 C   0  0  0  0  0  0  0  0  0  0  0  0
  -29.4917  -26.8908   16.0915 C   0  0  0  0  0  0  0  0  0  0  0  0
  -30.3316  -28.1140   16.4161 C   0  0  0  0  0  0  0  0  0  0  0  0
  -29.3556  -14.9272   20.4386 C   0  0  1  0  0  0  0  0  0  0  0  0
  -31.6457  -16.9898   18.2315 C   0  0  2  0  0  0  0  0  0  0  0  0
  -29.9357  -14.0353   21.5723 C   0  0  0  0  0  0  0  0  0  0  0  0
  -25.0925  -30.0357   21.4925 N   0  0  0  0  0  0  0  0  0  0  0  0
  -26.4145  -30.2269   21.3448 N   0  0  0  0  0  0  0  0  0  0  0  0
  -26.9823  -14.3137   20.0749 N   0  0  0  0  0  0  0  0  0  0  0  0
  -27.2740  -27.3262   19.0110 N   0  0  0  0  0  0  0  0  0  0  0  0
  -28.1563  -31.7783   21.7569 N   0  0  0  0  0  0  0  0  0  0  0  0
  -25.9097  -33.4507   24.3160 N   0  0  0  0  0  0  0  0  0  0  0  0
  -25.6135  -11.3908   18.5772 N   0  0  0  0  0  0  0  0  0  0  0  0
  -30.3518  -15.4064   19.4864 N   0  0  0  0  0  0  0  0  0  0  0  0
  -28.6053  -26.5134   17.1977 N   0  0  0  0  0  0  0  0  0  0  0  0
  -26.2072  -22.5809   20.2657 N   0  3  1  0  0  0  0  0  0  0  0  0
  -31.3430  -18.2079   17.4281 N   0  3  0  0  0  0  0  0  0  0  0  0
  -25.5259  -34.4067   22.2672 O   0  0  0  0  0  0  0  0  0  0  0  0
  -26.3047  -11.8825   20.7458 O   0  0  0  0  0  0  0  0  0  0  0  0
  -28.6454  -13.5784   18.6243 O   0  0  0  0  0  0  0  0  0  0  0  0
  -29.9461  -17.6665   19.8097 O   0  0  0  0  0  0  0  0  0  0  0  0
  -27.1229  -28.2725   16.9065 O   0  0  0  0  0  0  0  0  0  0  0  0
  -19.2953  -31.8667   23.3864 O   0  0  0  0  0  0  0  0  0  0  0  0
  -24.4569  -19.5117   21.5527 O   0  0  0  0  0  0  0  0  0  1  0  0
  -16.0357  -27.4201   23.3021 F   0  0  0  0  0  0  0  0  0  0  0  0
  -17.9621  -31.0420   25.6635 F   0  0  0  0  0  0  0  0  0  0  0  0
  -31.3764  -28.5647   15.0461 Cl  0  0  0  0  0  0  0  0  0  0  0  0
  1  2  1  0  0  0  0
  1  6  2  0  0  0  0
  2  7  2  0  0  0  0
  3  9  2  0  0  0  0
  3 10  1  0  0  0  0
  4 11  2  0  0  0  0
  4 18  1  0  0  0  0
  5 12  1  0  0  0  0
  5 18  2  0  0  0  0
  6 20  1  0  0  0  0
  7 22  1  0  0  0  0
  8 13  2  0  0  0  0
  8 21  1  0  0  0  0
  9 24  1  0  0  0  0
 10 26  2  0  0  0  0
 11 27  1  0  0  0  0
 12 27  2  0  0  0  0
 13 28  1  0  0  0  0
 14 15  2  0  0  0  0
 14 29  1  0  0  0  0
 15 30  1  0  0  0  0
 16 23  1  0  0  0  0
 16 28  2  0  0  0  0
 17 30  2  0  0  0  0
 17 31  1  0  0  0  0
 18 32  1  0  0  0  0
 19 32  1  0  0  0  0
 19 33  2  0  0  0  0
 19 36  1  0  0  0  0
 20 22  2  0  0  0  0
 20 41  1  0  0  0  0
 21 23  2  0  0  0  0
 21 42  1  0  0  0  0
 22 53  1  0  0  0  0
 23 43  1  0  0  0  0
 24 25  2  0  0  0  0
 24 64  1  0  0  0  0
 25 26  1  0  0  0  0
 25 57  1  0  0  0  0
 26 78  1  0  0  0  0
 27 86  1  0  0  0  0
 28 87  1  0  0  0  0
 29 31  2  0  0  0  0
 29 86  1  0  0  0  0
 30 88  1  0  0  0  0
 31 89  1  0  0  0  0
 32 70  2  0  0  0  0
 33 71  1  0  0  0  0
 33 74  1  0  0  0  0
 34 35  2  0  0  0  0
 34 54  1  0  0  0  0
 34 79  1  0  0  0  0
 35 58  1  0  0  0  0
 36 75  1  0  0  0  0
 36 81  2  0  0  0  0
 37 55  1  0  0  0  0
 37 76  1  0  0  0  0
 37 82  2  0  0  0  0
 38 67  1  0  0  0  0
 38 72  1  0  0  0  0
 38 83  2  0  0  0  0
 39 68  1  0  0  0  0
 39 77  1  0  0  0  0
 39 84  2  0  0  0  0
 40 73  1  0  0  0  0
 40 78  1  0  0  0  0
 40 85  2  0  0  0  0
 41 44  1  0  0  0  0
 42 55  1  0  0  0  0
 43 72  1  0  0  0  0
 44 47  1  0  0  0  0
 45 49  1  0  0  0  0
 45 50  1  0  0  0  0
 46 48  1  0  0  0  0
 46 52  1  0  0  0  0
 47 53  1  0  0  0  0
 48 54  1  0  0  0  0
 49 56  1  0  0  0  0
 50 73  1  0  0  0  0
 51 56  1  0  0  0  0
 51 73  1  0  0  0  0
 52 79  1  0  0  0  0
 53 76  1  0  0  0  0
 54 87  1  0  0  0  0
 55 72  1  0  0  0  0
 56 71  1  0  0  0  0
 59 68  1  0  0  0  0
 60 69  1  0  0  0  0
 61 69  1  0  0  0  0
 62 69  1  0  0  0  0
 63 80  1  0  0  0  0
 64 79  1  0  0  0  0
 65 66  1  0  0  0  0
 65 78  1  0  0  0  0
 66 90  1  0  0  0  0
 67 69  1  0  0  0  0
 67 77  1  0  0  0  0
 68 80  1  0  0  0  0
 70 71  1  0  0  0  0
M  CHG  2  79   1  80   1
M  ISO  4  40 100  54 101  78 100  87 101
M  END
> <Batch ID>
0037

> <Smiles>
CC=C1N(Cc2cccc([100N:0](CCCl)[100C:0](=O)N3CCCC(n4nc(-c5ccc(Oc6ccc(F)cc6F)cc5)c(C(N)=O)c4N)C3)c2C)CCC[101CH:1]1[101O:1]c1ccc2c(c1)CN(C(=O)C(NC(=O)C(C)NC)C(C)(C)C)C(C(=O)NC1CCCc3ccccc31)C2

> <Shape>
0.241

> <Color>
0.069

> <Negative vol penalty>
0.000

$$$$

  -OEChem-04042321573D

 88 97  0     1  0  0  0  0  0999 V2000
  -16.7061  -28.3167   23.6545 C   0  0  0  0  0  0  0  0  0  0  0  0
  -17.6173  -27.6212   22.8661 C   0  0  0  0  0  0  0  0  0  0  0  0
  -22.4177  -11.1708   22.2513 C   0  0  0  0  0  0  0  0  0  0  0  0
  -23.7270   -9.5382   21.0443 C   0  0  0  0  0  0  0  0  0  0  0  0
  -16.9576  -29.6429   24.0033 C   0  0  0  0  0  0  0  0  0  0  0  0
  -18.7800  -28.2521   22.4252 C   0  0  0  0  0  0  0  0  0  0  0  0
  -22.8893  -25.3396   22.9505 C   0  0  0  0  0  0  0  0  0  0  0  0
  -21.5212  -10.1717   22.6304 C   0  0  0  0  0  0  0  0  0  0  0  0
  -22.8306   -8.5390   21.4234 C   0  0  0  0  0  0  0  0  0  0  0  0
  -23.0834  -24.3355   22.0030 C   0  0  0  0  0  0  0  0  0  0  0  0
  -22.2035   -6.6675   24.1666 C   0  0  0  0  0  0  0  0  0  0  0  0
  -22.7349   -5.4623   24.6254 C   0  0  0  0  0  0  0  0  0  0  0  0
  -24.6768  -25.7358   20.8543 C   0  0  0  0  0  0  0  0  0  0  0  0
  -30.8386  -18.1147   21.2234 C   0  0  0  0  0  0  0  0  0  0  0  0
  -28.5785  -18.8600   21.6402 C   0  0  0  0  0  0  0  0  0  0  0  0
  -21.6185   -4.2879   22.8333 C   0  0  0  0  0  0  0  0  0  0  0  0
  -23.5206  -10.8541   21.4582 C   0  0  0  0  0  0  0  0  0  0  0  0
  -24.1626  -13.0424   20.3151 C   0  0  0  0  0  0  0  0  0  0  0  0
  -18.1286  -30.2874   23.5745 C   0  0  0  0  0  0  0  0  0  0  0  0
  -23.5805  -26.5556   22.8508 C   0  0  0  0  0  0  0  0  0  0  0  0
  -19.0468  -29.5887   22.7675 C   0  0  0  0  0  0  0  0  0  0  0  0
  -24.4916  -26.7527   21.8033 C   0  0  0  0  0  0  0  0  0  0  0  0
  -31.1376  -19.3467   20.6417 C   0  0  0  0  0  0  0  0  0  0  0  0
  -28.8775  -20.0920   21.0586 C   0  0  0  0  0  0  0  0  0  0  0  0
  -30.1571  -20.3354   20.5593 C   0  0  0  0  0  0  0  0  0  0  0  0
  -29.5590  -17.8713   21.7227 C   0  0  0  0  0  0  0  0  0  0  0  0
  -21.7277   -8.8558   22.2165 C   0  0  0  0  0  0  0  0  0  0  0  0
  -23.9751  -24.5345   20.9530 C   0  0  0  0  0  0  0  0  0  0  0  0
  -21.3795   -6.6830   23.0411 C   0  0  0  0  0  0  0  0  0  0  0  0
  -22.4425   -4.2725   23.9587 C   0  0  0  0  0  0  0  0  0  0  0  0
  -21.0871   -5.4932   22.3745 C   0  0  0  0  0  0  0  0  0  0  0  0
  -24.4466  -11.8859   21.0658 C   0  0  0  0  0  0  0  0  0  0  0  0
  -25.3688  -13.6916   20.2150 C   0  0  0  0  0  0  0  0  0  0  0  0
  -25.5462  -21.5596   20.1965 C   0  0  0  0  0  0  0  0  0  0  0  0
  -24.5288  -20.8324   20.6869 C   0  0  0  0  0  0  0  0  0  0  0  0
  -22.9195  -13.4900   19.7582 C   0  0  0  0  0  0  0  0  0  0  0  0
  -22.7299  -29.5948   22.4721 C   0  0  0  0  0  0  0  0  0  0  0  0
  -25.8982  -30.1308   22.9162 C   0  0  0  0  0  0  0  0  0  0  0  0
  -28.9984  -28.6187   21.8581 C   0  0  0  0  0  0  0  0  0  0  0  0
  -30.1122  -15.5322   22.4767 C   0  0  0  0  0  0  0  0  0  0  0  0
  -18.3342  -31.7367   23.9376 C   0  0  0  0  0  0  0  0  0  0  0  0
  -23.3799  -27.6184   23.8960 C   0  0  0  0  0  0  0  0  0  0  0  0
  -25.2735  -28.0323   21.6626 C   0  0  0  0  0  0  0  0  0  0  0  0
  -19.7702  -32.2160   23.7414 C   0  0  0  0  0  0  0  0  0  0  0  0
  -30.0472  -12.1467   21.3760 C   0  0  0  0  0  0  0  0  0  0  0  0
  -27.3151  -22.6218   18.2060 C   0  0  0  0  0  0  0  0  0  0  0  0
  -20.3045  -31.7610   22.3871 C   0  0  0  0  0  0  0  0  0  0  0  0
  -25.9790  -23.3068   18.4706 C   0  0  0  0  0  0  0  0  0  0  0  0
  -28.5610  -11.8722   21.1354 C   0  0  0  0  0  0  0  0  0  0  0  0
  -30.2679  -13.0545   22.5847 C   0  0  0  0  0  0  0  0  0  0  0  0
  -28.0244  -14.0379   22.3223 C   0  0  0  0  0  0  0  0  0  0  0  0
  -27.2454  -21.1288   18.5097 C   0  0  0  0  0  0  0  0  0  0  0  0
  -20.3313  -30.2308   22.2903 C   0  0  1  0  0  0  0  0  0  0  0  0
  -25.4861  -23.0396   19.8920 C   0  0  1  0  0  0  0  0  0  1  0  0
  -23.7528  -29.0148   23.4075 C   0  0  1  0  0  0  0  0  0  0  0  0
  -27.7486  -13.1807   21.0762 C   0  0  2  0  0  0  0  0  0  0  0  0
  -32.5151  -19.5819   20.1141 C   0  0  0  0  0  0  0  0  0  0  0  0
  -30.4780  -21.6566   19.9360 C   0  0  0  0  0  0  0  0  0  0  0  0
  -24.6161  -19.3750   20.9776 C   0  0  0  0  0  0  0  0  0  0  0  0
  -31.2598  -28.6014   22.9458 C   0  0  0  0  0  0  0  0  0  0  0  0
  -26.4469  -32.5561   21.1480 C   0  0  0  0  0  0  0  0  0  0  0  0
  -28.7756  -31.6991   20.8149 C   0  0  0  0  0  0  0  0  0  0  0  0
  -27.9912  -32.3179   23.1006 C   0  0  0  0  0  0  0  0  0  0  0  0
  -29.1235  -25.6621   21.8176 C   0  0  0  0  0  0  0  0  0  0  0  0
  -27.8050  -21.1384   20.9824 C   0  0  0  0  0  0  0  0  0  0  0  0
  -27.1052  -30.2144   22.0134 C   0  0  1  0  0  0  0  0  0  0  0  0
  -29.9672  -27.8320   22.7223 C   0  0  2  0  0  0  0  0  0  0  0  0
  -27.5573  -31.6807   21.7626 C   0  0  0  0  0  0  0  0  0  0  0  0
  -25.7324  -11.8023   21.4174 N   0  0  0  0  0  0  0  0  0  0  0  0
  -26.2671  -12.9145   20.8853 N   0  0  0  0  0  0  0  0  0  0  0  0
  -25.0379  -29.0438   22.7061 N   0  0  0  0  0  0  0  0  0  0  0  0
  -29.4701  -14.2760   22.4572 N   0  0  0  0  0  0  0  0  0  0  0  0
  -25.7382  -14.8456   19.6197 N   0  0  0  0  0  0  0  0  0  0  0  0
  -22.5846  -13.0839   18.4592 N   0  0  0  0  0  0  0  0  0  0  0  0
  -29.2553  -16.6203   22.3146 N   0  0  0  0  0  0  0  0  0  0  0  0
  -21.4641  -29.6982   23.0167 N   0  0  0  0  0  0  0  0  0  0  0  0
  -28.1280  -29.3692   22.6200 N   0  0  0  0  0  0  0  0  0  0  0  0
  -26.7786  -20.8539   19.9205 N   0  3  1  0  0  0  0  0  0  0  0  0
  -30.3002  -26.5316   22.0750 N   0  3  0  0  0  0  0  0  0  0  0  0
  -22.1367  -14.2415   20.3875 O   0  0  0  0  0  0  0  0  0  0  0  0
  -23.0646  -29.9254   21.3406 O   0  0  0  0  0  0  0  0  0  0  0  0
  -25.7288  -30.9941   23.7809 O   0  0  0  0  0  0  0  0  0  0  0  0
  -29.0147  -28.5751   20.6300 O   0  0  0  0  0  0  0  0  0  0  0  0
  -31.3356  -15.6338   22.5990 O   0  0  0  0  0  0  0  0  0  0  0  0
  -20.8533   -7.8805   22.5864 O   0  0  0  0  0  0  0  0  0  0  0  0
  -24.1659  -23.5564   20.0264 O   0  0  0  0  0  0  0  0  0  1  0  0
  -22.9541   -3.1153   24.3985 F   0  0  0  0  0  0  0  0  0  0  0  0
  -20.2971   -5.5019   21.2921 F   0  0  0  0  0  0  0  0  0  0  0  0
  1  2  1  0  0  0  0
  1  5  2  0  0  0  0
  2  6  2  0  0  0  0
  3  8  2  0  0  0  0
  3 17  1  0  0  0  0
  4  9  1  0  0  0  0
  4 17  2  0  0  0  0
  5 19  1  0  0  0  0
  6 21  1  0  0  0  0
  7 10  2  0  0  0  0
  7 20  1  0  0  0  0
  8 27  1  0  0  0  0
  9 27  2  0  0  0  0
 10 28  1  0  0  0  0
 11 12  2  0  0  0  0
 11 29  1  0  0  0  0
 12 30  1  0  0  0  0
 13 22  1  0  0  0  0
 13 28  2  0  0  0  0
 14 23  2  0  0  0  0
 14 26  1  0  0  0  0
 15 24  1  0  0  0  0
 15 26  2  0  0  0  0
 16 30  2  0  0  0  0
 16 31  1  0  0  0  0
 17 32  1  0  0  0  0
 18 32  1  0  0  0  0
 18 33  2  0  0  0  0
 18 36  1  0  0  0  0
 19 21  2  0  0  0  0
 19 41  1  0  0  0  0
 20 22  2  0  0  0  0
 20 42  1  0  0  0  0
 21 53  1  0  0  0  0
 22 43  1  0  0  0  0
 23 25  1  0  0  0  0
 23 57  1  0  0  0  0
 24 25  2  0  0  0  0
 24 65  1  0  0  0  0
 25 58  1  0  0  0  0
 26 75  1  0  0  0  0
 27 85  1  0  0  0  0
 28 86  1  0  0  0  0
 29 31  2  0  0  0  0
 29 85  1  0  0  0  0
 30 87  1  0  0  0  0
 31 88  1  0  0  0  0
 32 69  2  0  0  0  0
 33 70  1  0  0  0  0
 33 73  1  0  0  0  0
 34 35  2  0  0  0  0
 34 54  1  0  0  0  0
 34 78  1  0  0  0  0
 35 59  1  0  0  0  0
 36 74  1  0  0  0  0
 36 80  2  0  0  0  0
 37 55  1  0  0  0  0
 37 76  1  0  0  0  0
 37 81  2  0  0  0  0
 38 66  1  0  0  0  0
 38 71  1  0  0  0  0
 38 82  2  0  0  0  0
 39 67  1  0  0  0  0
 39 77  1  0  0  0  0
 39 83  2  0  0  0  0
 40 72  1  0  0  0  0
 40 75  1  0  0  0  0
 40 84  2  0  0  0  0
 41 44  1  0  0  0  0
 42 55  1  0  0  0  0
 43 71  1  0  0  0  0
 44 47  1  0  0  0  0
 45 49  1  0  0  0  0
 45 50  1  0  0  0  0
 46 48  1  0  0  0  0
 46 52  1  0  0  0  0
 47 53  1  0  0  0  0
 48 54  1  0  0  0  0
 49 56  1  0  0  0  0
 50 72  1  0  0  0  0
 51 56  1  0  0  0  0
 51 72  1  0  0  0  0
 52 78  1  0  0  0  0
 53 76  1  0  0  0  0
 54 86  1  0  0  0  0
 55 71  1  0  0  0  0
 56 70  1  0  0  0  0
 60 67  1  0  0  0  0
 61 68  1  0  0  0  0
 62 68  1  0  0  0  0
 63 68  1  0  0  0  0
 64 79  1  0  0  0  0
 65 78  1  0  0  0  0
 66 68  1  0  0  0  0
 66 77  1  0  0  0  0
 67 79  1  0  0  0  0
 69 70  1  0  0  0  0
M  CHG  2  78   1  79   1
M  ISO  4  40 100  54 101  75 100  86 101
M  END
> <Batch ID>
0037

> <Smiles>
CC=C1N(Cc2cc([100NH:0][100C:0](=O)N3CCCC(n4nc(-c5ccc(Oc6ccc(F)cc6F)cc5)c(C(N)=O)c4N)C3)cc(C)c2C)CCC[101CH:1]1[101O:1]c1ccc2c(c1)CN(C(=O)C(NC(=O)C(C)NC)C(C)(C)C)C(C(=O)NC1CCCc3ccccc31)C2

> <Shape>
0.295

> <Color>
0.110

> <Negative vol penalty>
0.000

$$$$

  -OEChem-04042321573D

 89 98  0     1  0  0  0  0  0999 V2000
  -19.1111  -24.2538   21.0845 C   0  0  0  0  0  0  0  0  0  0  0  0
  -20.3743  -24.6354   20.6441 C   0  0  0  0  0  0  0  0  0  0  0  0
  -22.4260  -11.0413   19.5719 C   0  0  0  0  0  0  0  0  0  0  0  0
  -22.2366  -11.7282   21.8804 C   0  0  0  0  0  0  0  0  0  0  0  0
  -18.3701  -25.1092   21.8989 C   0  0  0  0  0  0  0  0  0  0  0  0
  -20.8969  -25.8734   21.0168 C   0  0  0  0  0  0  0  0  0  0  0  0
  -25.7359  -25.5783   22.4803 C   0  0  0  0  0  0  0  0  0  0  0  0
  -21.1423  -10.4988   19.6279 C   0  0  0  0  0  0  0  0  0  0  0  0
  -20.9527  -11.1857   21.9364 C   0  0  0  0  0  0  0  0  0  0  0  0
  -26.6996  -25.4816   21.4774 C   0  0  0  0  0  0  0  0  0  0  0  0
  -18.0527   -8.6146   19.2703 C   0  0  0  0  0  0  0  0  0  0  0  0
  -17.8568   -7.3494   18.7166 C   0  0  0  0  0  0  0  0  0  0  0  0
  -27.1610  -27.8387   21.7018 C   0  0  0  0  0  0  0  0  0  0  0  0
  -25.4139  -22.5749   17.8464 C   0  0  0  0  0  0  0  0  0  0  0  0
  -19.4755   -6.4259   20.2542 C   0  0  0  0  0  0  0  0  0  0  0  0
  -22.9733  -11.6560   20.6981 C   0  0  0  0  0  0  0  0  0  0  0  0
  -25.4983  -11.5353   20.3554 C   0  0  0  0  0  0  0  0  0  0  0  0
  -18.8879  -26.3541   22.2897 C   0  0  0  0  0  0  0  0  0  0  0  0
  -25.4694  -26.8103   23.0948 C   0  0  0  0  0  0  0  0  0  0  0  0
  -20.1616  -26.7468   21.8360 C   0  0  0  0  0  0  0  0  0  0  0  0
  -26.1953  -27.9479   22.7140 C   0  0  0  0  0  0  0  0  0  0  0  0
  -26.6227  -23.0755   17.3627 C   0  0  0  0  0  0  0  0  0  0  0  0
  -25.4034  -21.4386   18.6555 C   0  0  0  0  0  0  0  0  0  0  0  0
  -27.8209  -22.4398   17.6880 C   0  0  0  0  0  0  0  0  0  0  0  0
  -27.8104  -21.3035   18.4970 C   0  0  0  0  0  0  0  0  0  0  0  0
  -26.6016  -20.8029   18.9807 C   0  0  0  0  0  0  0  0  0  0  0  0
  -20.4056  -10.5710   20.8102 C   0  0  0  0  0  0  0  0  0  0  0  0
  -27.4103  -26.6125   21.0860 C   0  0  0  0  0  0  0  0  0  0  0  0
  -18.9600   -8.7854   20.3159 C   0  0  0  0  0  0  0  0  0  0  0  0
  -18.5682   -6.2551   19.2086 C   0  0  0  0  0  0  0  0  0  0  0  0
  -19.6714   -7.6911   20.8079 C   0  0  0  0  0  0  0  0  0  0  0  0
  -24.2996  -12.2160   20.6410 C   0  0  0  0  0  0  0  0  0  0  0  0
  -26.4685  -12.5050   20.4239 C   0  0  0  0  0  0  0  0  0  0  0  0
  -25.7152  -10.1503   20.0549 C   0  0  0  0  0  0  0  0  0  0  0  0
  -22.9249  -28.7023   23.3170 C   0  0  0  0  0  0  0  0  0  0  0  0
  -24.8337  -30.3804   25.3326 C   0  0  0  0  0  0  0  0  0  0  0  0
  -27.9967  -31.1818   26.3326 C   0  0  0  0  0  0  0  0  0  0  0  0
  -25.9466  -18.4332   19.5637 C   0  0  0  0  0  0  0  0  0  0  0  0
  -18.0303  -27.2648   23.1322 C   0  0  0  0  0  0  0  0  0  0  0  0
  -24.4456  -26.8925   24.1936 C   0  0  0  0  0  0  0  0  0  0  0  0
  -25.9613  -29.2898   23.3566 C   0  0  0  0  0  0  0  0  0  0  0  0
  -18.8105  -28.4006   23.7891 C   0  0  0  0  0  0  0  0  0  0  0  0
  -32.2640  -23.8557   20.3096 C   0  0  0  0  0  0  0  0  0  0  0  0
  -30.9795  -24.0055   21.1277 C   0  0  0  0  0  0  0  0  0  0  0  0
  -26.6693  -16.6631   22.8906 C   0  0  0  0  0  0  0  0  0  0  0  0
  -32.2796  -24.3957   18.8819 C   0  0  0  0  0  0  0  0  0  0  0  0
  -19.7377  -29.0664   22.7772 C   0  0  0  0  0  0  0  0  0  0  0  0
  -26.9176  -15.2472   22.3757 C   0  0  0  0  0  0  0  0  0  0  0  0
  -30.2242  -25.3209   20.9462 C   0  0  0  0  0  0  0  0  0  0  0  0
  -26.9030  -17.7176   21.8162 C   0  0  0  0  0  0  0  0  0  0  0  0
  -25.4897  -16.1596   20.4629 C   0  0  0  0  0  0  0  0  0  0  0  0
  -31.3908  -23.6818   17.8707 C   0  0  0  0  0  0  0  0  0  0  0  0
  -29.3643  -25.0820   18.4950 C   0  0  0  0  0  0  0  0  0  0  0  0
  -20.7729  -28.0711   22.2393 C   0  0  1  0  0  0  0  0  0  0  0  0
  -23.8944  -28.3011   24.3926 C   0  0  1  0  0  0  0  0  0  0  0  0
  -26.4306  -15.0374   20.9283 C   0  0  2  0  0  0  0  0  0  0  0  0
  -29.0371  -25.2686   19.9761 C   0  0  2  0  0  0  0  0  0  1  0  0
  -26.6063  -24.2944   16.4997 C   0  0  0  0  0  0  0  0  0  0  0  0
  -24.0926  -20.9271   19.1593 C   0  0  0  0  0  0  0  0  0  0  0  0
  -29.0991  -20.6249   18.8429 C   0  0  0  0  0  0  0  0  0  0  0  0
  -29.2395  -32.6095   27.9802 C   0  0  0  0  0  0  0  0  0  0  0  0
  -24.2462  -32.8467   23.6349 C   0  0  0  0  0  0  0  0  0  0  0  0
  -26.2026  -33.9725   24.7182 C   0  0  0  0  0  0  0  0  0  0  0  0
  -24.2545  -33.2564   26.1020 C   0  0  0  0  0  0  0  0  0  0  0  0
  -29.2496  -28.8230   27.6076 C   0  0  0  0  0  0  0  0  0  0  0  0
  -29.1192  -22.9808   17.1659 C   0  0  0  0  0  0  0  0  0  0  0  0
  -25.8266  -31.5066   25.1752 C   0  0  1  0  0  0  0  0  0  0  0  0
  -28.6331  -31.2414   27.7096 C   0  0  2  0  0  0  0  0  0  0  0  0
  -25.1358  -32.8708   24.8939 C   0  0  0  0  0  0  0  0  0  0  0  0
  -24.4887  -13.5176   20.8738 N   0  0  0  0  0  0  0  0  0  0  0  0
  -25.8175  -13.6625   20.7347 N   0  0  0  0  0  0  0  0  0  0  0  0
  -24.9454  -29.3203   24.4218 N   0  0  0  0  0  0  0  0  0  0  0  0
  -26.1280  -17.4748   20.5907 N   0  0  0  0  0  0  0  0  0  0  0  0
  -27.8066  -12.4720   20.2481 N   0  0  0  0  0  0  0  0  0  0  0  0
  -25.9679   -9.2683   21.1145 N   0  0  0  0  0  0  0  0  0  0  0  0
  -26.5886  -19.6505   19.8058 N   0  0  0  0  0  0  0  0  0  0  0  0
  -21.8290  -27.8676   23.2076 N   0  0  0  0  0  0  0  0  0  0  0  0
  -26.6540  -31.4923   26.3767 N   0  0  0  0  0  0  0  0  0  0  0  0
  -29.9247  -23.7057   18.2189 N   0  3  1  0  0  0  0  0  0  0  0  0
  -29.7103  -30.2182   27.8270 N   0  3  0  0  0  0  0  0  0  0  0  0
  -25.7022   -9.7107   18.8801 O   0  0  0  0  0  0  0  0  0  0  0  0
  -23.1533  -29.6963   22.6378 O   0  0  0  0  0  0  0  0  0  0  0  0
  -23.9946  -30.4358   26.2351 O   0  0  0  0  0  0  0  0  0  0  0  0
  -28.6284  -30.8926   25.3188 O   0  0  0  0  0  0  0  0  0  0  0  0
  -25.2870  -18.1825   18.5528 O   0  0  0  0  0  0  0  0  0  0  0  0
  -19.1527  -10.0420   20.8651 O   0  0  0  0  0  0  0  0  0  0  0  0
  -28.3511  -26.5209   20.1070 O   0  0  0  0  0  0  0  0  0  1  0  0
  -18.3789   -5.0399   18.6778 F   0  0  0  0  0  0  0  0  0  0  0  0
  -20.5435   -7.8489   21.8130 F   0  0  0  0  0  0  0  0  0  0  0  0
  1  2  1  0  0  0  0
  1  5  2  0  0  0  0
  2  6  2  0  0  0  0
  3  8  2  0  0  0  0
  3 16  1  0  0  0  0
  4  9  1  0  0  0  0
  4 16  2  0  0  0  0
  5 18  1  0  0  0  0
  6 20  1  0  0  0  0
  7 10  2  0  0  0  0
  7 19  1  0  0  0  0
  8 27  1  0  0  0  0
  9 27  2  0  0  0  0
 10 28  1  0  0  0  0
 11 12  2  0  0  0  0
 11 29  1  0  0  0  0
 12 30  1  0  0  0  0
 13 21  1  0  0  0  0
 13 28  2  0  0  0  0
 14 22  2  0  0  0  0
 14 23  1  0  0  0  0
 15 30  2  0  0  0  0
 15 31  1  0  0  0  0
 16 32  1  0  0  0  0
 17 32  1  0  0  0  0
 17 33  2  0  0  0  0
 17 34  1  0  0  0  0
 18 20  2  0  0  0  0
 18 39  1  0  0  0  0
 19 21  2  0  0  0  0
 19 40  1  0  0  0  0
 20 54  1  0  0  0  0
 21 41  1  0  0  0  0
 22 24  1  0  0  0  0
 22 58  1  0  0  0  0
 23 26  2  0  0  0  0
 23 59  1  0  0  0  0
 24 25  2  0  0  0  0
 24 66  1  0  0  0  0
 25 26  1  0  0  0  0
 25 60  1  0  0  0  0
 26 76  1  0  0  0  0
 27 86  1  0  0  0  0
 28 87  1  0  0  0  0
 29 31  2  0  0  0  0
 29 86  1  0  0  0  0
 30 88  1  0  0  0  0
 31 89  1  0  0  0  0
 32 70  2  0  0  0  0
 33 71  1  0  0  0  0
 33 74  1  0  0  0  0
 34 75  1  0  0  0  0
 34 81  2  0  0  0  0
 35 55  1  0  0  0  0
 35 77  1  0  0  0  0
 35 82  2  0  0  0  0
 36 67  1  0  0  0  0
 36 72  1  0  0  0  0
 36 83  2  0  0  0  0
 37 68  1  0  0  0  0
 37 78  1  0  0  0  0
 37 84  2  0  0  0  0
 38 73  1  0  0  0  0
 38 76  1  0  0  0  0
 38 85  2  0  0  0  0
 39 42  1  0  0  0  0
 40 55  1  0  0  0  0
 41 72  1  0  0  0  0
 42 47  1  0  0  0  0
 43 44  1  0  0  0  0
 43 46  1  0  0  0  0
 44 49  1  0  0  0  0
 45 48  1  0  0  0  0
 45 50  1  0  0  0  0
 46 52  1  0  0  0  0
 47 54  1  0  0  0  0
 48 56  1  0  0  0  0
 49 57  1  0  0  0  0
 50 73  1  0  0  0  0
 51 56  1  0  0  0  0
 51 73  1  0  0  0  0
 52 79  1  0  0  0  0
 53 57  1  0  0  0  0
 53 79  1  0  0  0  0
 54 77  1  0  0  0  0
 55 72  1  0  0  0  0
 56 71  1  0  0  0  0
 57 87  1  0  0  0  0
 61 68  1  0  0  0  0
 62 69  1  0  0  0  0
 63 69  1  0  0  0  0
 64 69  1  0  0  0  0
 65 80  1  0  0  0  0
 66 79  1  0  0  0  0
 67 69  1  0  0  0  0
 67 78  1  0  0  0  0
 68 80  1  0  0  0  0
 70 71  1  0  0  0  0
M  CHG  2  79   1  80   1
M  ISO  4  38 100  57 101  76 100  87 101
M  END
> <Batch ID>
0037

> <Smiles>
CNC(C)C(=O)NC(C(=O)N1Cc2cc([101O:1][101CH:1]3CCCCCN(Cc4c(C)cc(C)c([100NH:0][100C:0](=O)N5CCCC(n6nc(-c7ccc(Oc8ccc(F)cc8F)cc7)c(C(N)=O)c6N)C5)c4C)C3)ccc2CC1C(=O)NC1CCCc2ccccc21)C(C)(C)C

> <Shape>
0.247

> <Color>
0.063

> <Negative vol penalty>
0.000

$$$$

  -OEChem-04042321573D

 87 95  0     1  0  0  0  0  0999 V2000
  -23.5712  -28.1763   33.7509 C   0  0  0  0  0  0  0  0  0  0  0  0
  -23.9537  -27.7624   32.4789 C   0  0  0  0  0  0  0  0  0  0  0  0
  -32.6747  -17.4659   23.4344 C   0  0  0  0  0  0  0  0  0  0  0  0
  -23.0737   -9.8699   19.9418 C   0  0  0  0  0  0  0  0  0  0  0  0
  -23.8317   -9.8783   22.2358 C   0  0  0  0  0  0  0  0  0  0  0  0
  -23.3823  -27.2347   34.7616 C   0  0  0  0  0  0  0  0  0  0  0  0
  -24.1485  -26.4067   32.2173 C   0  0  0  0  0  0  0  0  0  0  0  0
  -22.9524  -23.4582   26.9846 C   0  0  0  0  0  0  0  0  0  0  0  0
  -31.8954  -18.3424   24.1894 C   0  0  0  0  0  0  0  0  0  0  0  0
  -32.0665  -16.5892   22.5359 C   0  0  0  0  0  0  0  0  0  0  0  0
  -22.3286   -8.7176   20.1922 C   0  0  0  0  0  0  0  0  0  0  0  0
  -23.0866   -8.7260   22.4862 C   0  0  0  0  0  0  0  0  0  0  0  0
  -23.7637  -23.0740   25.9178 C   0  0  0  0  0  0  0  0  0  0  0  0
  -19.3785   -7.9250   21.6418 C   0  0  0  0  0  0  0  0  0  0  0  0
  -18.0719   -7.8795   21.1555 C   0  0  0  0  0  0  0  0  0  0  0  0
  -23.9929  -20.8785   26.8905 C   0  0  0  0  0  0  0  0  0  0  0  0
  -18.6310   -5.9347   19.8355 C   0  0  0  0  0  0  0  0  0  0  0  0
  -23.8253  -10.4502   20.9636 C   0  0  0  0  0  0  0  0  0  0  0  0
  -24.1695  -12.9749   20.8415 C   0  0  0  0  0  0  0  0  0  0  0  0
  -23.5655  -25.8659   34.5097 C   0  0  0  0  0  0  0  0  0  0  0  0
  -22.6637  -22.5572   28.0196 C   0  0  0  0  0  0  0  0  0  0  0  0
  -23.9632  -25.4460   33.2259 C   0  0  0  0  0  0  0  0  0  0  0  0
  -23.1756  -21.2529   27.9680 C   0  0  0  0  0  0  0  0  0  0  0  0
  -30.5080  -18.3422   24.0460 C   0  0  0  0  0  0  0  0  0  0  0  0
  -29.8997  -17.4655   23.1476 C   0  0  0  0  0  0  0  0  0  0  0  0
  -30.6790  -16.5890   22.3926 C   0  0  0  0  0  0  0  0  0  0  0  0
  -22.3350   -8.1457   21.4644 C   0  0  0  0  0  0  0  0  0  0  0  0
  -24.2864  -21.7850   25.8721 C   0  0  0  0  0  0  0  0  0  0  0  0
  -20.3113   -6.9754   21.2249 C   0  0  0  0  0  0  0  0  0  0  0  0
  -17.6982   -6.8843   20.2524 C   0  0  0  0  0  0  0  0  0  0  0  0
  -19.9376   -5.9803   20.3217 C   0  0  0  0  0  0  0  0  0  0  0  0
  -24.5957  -11.6402   20.7054 C   0  0  0  0  0  0  0  0  0  0  0  0
  -25.2626  -13.7231   20.4785 C   0  0  0  0  0  0  0  0  0  0  0  0
  -22.8991  -13.4923   21.2590 C   0  0  0  0  0  0  0  0  0  0  0  0
  -23.2195  -22.4823   31.1484 C   0  0  0  0  0  0  0  0  0  0  0  0
  -21.3665  -19.8229   31.0194 C   0  0  0  0  0  0  0  0  0  0  0  0
  -20.1269  -17.2429   29.1610 C   0  0  0  0  0  0  0  0  0  0  0  0
  -30.7296  -14.7640   20.6567 C   0  0  0  0  0  0  0  0  0  0  0  0
  -23.3954  -24.8894   35.6464 C   0  0  0  0  0  0  0  0  0  0  0  0
  -21.7651  -22.9787   29.1498 C   0  0  0  0  0  0  0  0  0  0  0  0
  -22.8790  -20.2414   29.0439 C   0  0  0  0  0  0  0  0  0  0  0  0
  -23.2582  -23.4396   35.1887 C   0  0  0  0  0  0  0  0  0  0  0  0
  -29.6149  -12.3491   18.2897 C   0  0  0  0  0  0  0  0  0  0  0  0
  -24.3200  -23.1065   34.1453 C   0  0  0  0  0  0  0  0  0  0  0  0
  -28.1747  -12.0591   18.7184 C   0  0  0  0  0  0  0  0  0  0  0  0
  -30.5293  -12.5781   19.4919 C   0  0  0  0  0  0  0  0  0  0  0  0
  -28.6218  -13.3055   20.8709 C   0  0  0  0  0  0  0  0  0  0  0  0
  -24.1602  -23.9822   32.8966 C   0  0  1  0  0  0  0  0  0  0  0  0
  -21.9564  -22.1402   30.4098 C   0  0  1  0  0  0  0  0  0  0  0  0
  -27.6498  -13.1321   19.6925 C   0  0  2  0  0  0  0  0  0  0  0  0
  -18.6693  -15.2080   29.3408 C   0  0  0  0  0  0  0  0  0  0  0  0
  -23.6244  -18.3333   32.4312 C   0  0  0  0  0  0  0  0  0  0  0  0
  -22.5454  -16.1831   31.7381 C   0  0  0  0  0  0  0  0  0  0  0  0
  -21.3291  -17.7590   33.2413 C   0  0  0  0  0  0  0  0  0  0  0  0
  -18.2066  -18.3002   27.1727 C   0  0  0  0  0  0  0  0  0  0  0  0
  -30.2723  -21.4584   23.7808 C   0  0  0  0  0  0  0  0  0  0  0  0
  -29.6936  -19.2953   24.8703 C   0  0  0  0  0  0  0  0  0  0  0  0
  -27.1305  -21.7913   23.6500 C   0  0  0  0  0  0  0  0  0  0  0  0
  -27.9860  -21.0998   24.7008 C   0  0  0  0  0  0  0  0  0  0  0  0
  -25.8635  -22.4251   24.2110 C   0  0  0  0  0  0  0  0  0  1  0  0
  -21.6224  -18.3512   30.8010 C   0  0  1  0  0  0  0  0  0  0  0  0
  -18.7198  -16.6924   29.0140 C   0  0  2  0  0  0  0  0  0  0  0  0
  -28.4107  -17.4691   22.9972 C   0  0  0  0  0  0  0  0  0  0  0  0
  -22.2877  -17.6761   32.0335 C   0  0  0  0  0  0  0  0  0  0  0  0
  -25.8608  -11.5428   20.2882 N   0  0  0  0  0  0  0  0  0  0  0  0
  -26.2389  -12.8260   20.1590 N   0  0  0  0  0  0  0  0  0  0  0  0
  -22.0005  -20.7033   30.1313 N   0  0  0  0  0  0  0  0  0  0  0  0
  -29.9705  -13.6103   20.3679 N   0  0  0  0  0  0  0  0  0  0  0  0
  -25.4742  -15.0543   20.4044 N   0  0  0  0  0  0  0  0  0  0  0  0
  -21.8861  -12.5843   21.5962 N   0  0  0  0  0  0  0  0  0  0  0  0
  -30.0823  -15.6904   21.4737 N   0  0  0  0  0  0  0  0  0  0  0  0
  -23.0722  -23.4969   32.0748 N   0  0  0  0  0  0  0  0  0  0  0  0
  -20.3417  -17.7667   30.4183 N   0  0  0  0  0  0  0  0  0  0  0  0
  -18.2320  -16.8834   27.6188 N   0  3  0  0  0  0  0  0  0  0  0  0
  -29.1714  -20.4680   24.0753 N   0  3  1  0  0  0  0  0  0  0  0  0
  -22.6639  -14.7231   21.3150 O   0  0  0  0  0  0  0  0  0  0  0  0
  -24.2508  -21.8700   30.8974 O   0  0  0  0  0  0  0  0  0  0  0  0
  -20.6256  -20.1779   31.9395 O   0  0  0  0  0  0  0  0  0  0  0  0
  -20.9541  -17.2081   28.2526 O   0  0  0  0  0  0  0  0  0  0  0  0
  -31.8592  -14.9313   20.1898 O   0  0  0  0  0  0  0  0  0  0  0  0
  -21.6079   -7.0215   21.7091 O   0  0  0  0  0  0  0  0  0  0  0  0
  -25.0791  -21.4076   24.8323 O   0  0  0  0  0  0  0  0  0  1  0  0
  -16.4431   -6.8398   19.7867 F   0  0  0  0  0  0  0  0  0  0  0  0
  -20.8290   -5.0645   19.9185 F   0  0  0  0  0  0  0  0  0  0  0  0
  -27.7867  -18.3786   23.7995 F   0  0  0  0  0  0  0  0  0  0  0  0
  -27.9950  -17.7599   21.7312 F   0  0  0  0  0  0  0  0  0  0  0  0
  -27.8544  -16.2628   23.3021 F   0  0  0  0  0  0  0  0  0  0  0  0
  1  2  1  0  0  0  0
  1  6  2  0  0  0  0
  2  7  2  0  0  0  0
  3  9  2  0  0  0  0
  3 10  1  0  0  0  0
  4 11  2  0  0  0  0
  4 18  1  0  0  0  0
  5 12  1  0  0  0  0
  5 18  2  0  0  0  0
  6 20  1  0  0  0  0
  7 22  1  0  0  0  0
  8 13  2  0  0  0  0
  8 21  1  0  0  0  0
  9 24  1  0  0  0  0
 10 26  2  0  0  0  0
 11 27  1  0  0  0  0
 12 27  2  0  0  0  0
 13 28  1  0  0  0  0
 14 15  2  0  0  0  0
 14 29  1  0  0  0  0
 15 30  1  0  0  0  0
 16 23  1  0  0  0  0
 16 28  2  0  0  0  0
 17 30  2  0  0  0  0
 17 31  1  0  0  0  0
 18 32  1  0  0  0  0
 19 32  1  0  0  0  0
 19 33  2  0  0  0  0
 19 34  1  0  0  0  0
 20 22  2  0  0  0  0
 20 39  1  0  0  0  0
 21 23  2  0  0  0  0
 21 40  1  0  0  0  0
 22 48  1  0  0  0  0
 23 41  1  0  0  0  0
 24 25  2  0  0  0  0
 24 57  1  0  0  0  0
 25 26  1  0  0  0  0
 25 63  1  0  0  0  0
 26 71  1  0  0  0  0
 27 81  1  0  0  0  0
 28 82  1  0  0  0  0
 29 31  2  0  0  0  0
 29 81  1  0  0  0  0
 30 83  1  0  0  0  0
 31 84  1  0  0  0  0
 32 65  2  0  0  0  0
 33 66  1  0  0  0  0
 33 69  1  0  0  0  0
 34 70  1  0  0  0  0
 34 76  2  0  0  0  0
 35 49  1  0  0  0  0
 35 72  1  0  0  0  0
 35 77  2  0  0  0  0
 36 61  1  0  0  0  0
 36 67  1  0  0  0  0
 36 78  2  0  0  0  0
 37 62  1  0  0  0  0
 37 73  1  0  0  0  0
 37 79  2  0  0  0  0
 38 68  1  0  0  0  0
 38 71  1  0  0  0  0
 38 80  2  0  0  0  0
 39 42  1  0  0  0  0
 40 49  1  0  0  0  0
 41 67  1  0  0  0  0
 42 44  1  0  0  0  0
 43 45  1  0  0  0  0
 43 46  1  0  0  0  0
 44 48  1  0  0  0  0
 45 50  1  0  0  0  0
 46 68  1  0  0  0  0
 47 50  1  0  0  0  0
 47 68  1  0  0  0  0
 48 72  1  0  0  0  0
 49 67  1  0  0  0  0
 50 66  1  0  0  0  0
 51 62  1  0  0  0  0
 52 64  1  0  0  0  0
 53 64  1  0  0  0  0
 54 64  1  0  0  0  0
 55 74  1  0  0  0  0
 56 75  1  0  0  0  0
 57 75  1  0  0  0  0
 58 59  1  0  0  0  0
 58 60  1  0  0  0  0
 59 75  1  0  0  0  0
 60 82  1  0  0  0  0
 61 64  1  0  0  0  0
 61 73  1  0  0  0  0
 62 74  1  0  0  0  0
 63 85  1  0  0  0  0
 63 86  1  0  0  0  0
 63 87  1  0  0  0  0
 65 66  1  0  0  0  0
M  CHG  2  74   1  75   1
M  ISO  4  38 100  60 101  71 100  82 101
M  END
> <Batch ID>
0037

> <Smiles>
CNC(C)C(=O)NC(C(=O)N1Cc2cc([101O:1][101CH2:1]CCN(C)Cc3cccc([100NH:0][100C:0](=O)N4CCCC(n5nc(-c6ccc(Oc7ccc(F)cc7F)cc6)c(C(N)=O)c5N)C4)c3C(F)(F)F)ccc2CC1C(=O)NC1CCCc2ccccc21)C(C)(C)C

> <Shape>
0.150

> <Color>
0.191

> <Negative vol penalty>
0.000

$$$$

  -OEChem-04042321573D

 86 94  0     1  0  0  0  0  0999 V2000
  -30.3789  -25.4805   17.9882 C   0  0  0  0  0  0  0  0  0  0  0  0
  -28.9923  -25.5900   17.9589 C   0  0  0  0  0  0  0  0  0  0  0  0
  -24.5333  -11.8709   19.5649 C   0  0  0  0  0  0  0  0  0  0  0  0
  -25.5978  -12.1026   21.7214 C   0  0  0  0  0  0  0  0  0  0  0  0
  -31.0878  -25.9145   19.1075 C   0  0  0  0  0  0  0  0  0  0  0  0
  -28.3137  -26.1327   19.0495 C   0  0  0  0  0  0  0  0  0  0  0  0
  -23.2369  -29.5544   18.8950 C   0  0  0  0  0  0  0  0  0  0  0  0
  -24.9618  -10.5453   19.4958 C   0  0  0  0  0  0  0  0  0  0  0  0
  -26.0263  -10.7770   21.6523 C   0  0  0  0  0  0  0  0  0  0  0  0
  -21.8914  -29.2456   19.0899 C   0  0  0  0  0  0  0  0  0  0  0  0
  -24.0332   -7.5573   20.7772 C   0  0  0  0  0  0  0  0  0  0  0  0
  -23.1103   -6.5986   20.3590 C   0  0  0  0  0  0  0  0  0  0  0  0
  -22.0715  -29.9410   21.3927 C   0  0  0  0  0  0  0  0  0  0  0  0
  -23.8497  -23.6824   21.8058 C   0  0  0  0  0  0  0  0  0  0  0  0
  -21.2746  -22.6826   22.1953 C   0  0  0  0  0  0  0  0  0  0  0  0
  -24.5426   -6.0318   18.4977 C   0  0  0  0  0  0  0  0  0  0  0  0
  -24.8513  -12.6496   20.6777 C   0  0  0  0  0  0  0  0  0  0  0  0
  -23.2020  -14.4954   21.2944 C   0  0  0  0  0  0  0  0  0  0  0  0
  -30.4183  -26.4717   20.2085 C   0  0  0  0  0  0  0  0  0  0  0  0
  -24.0139  -30.0494   19.9523 C   0  0  0  0  0  0  0  0  0  0  0  0
  -29.0142  -26.5734   20.1852 C   0  0  0  0  0  0  0  0  0  0  0  0
  -23.4260  -30.2577   21.2081 C   0  0  0  0  0  0  0  0  0  0  0  0
  -23.6562  -22.5337   22.5730 C   0  0  0  0  0  0  0  0  0  0  0  0
  -21.4681  -23.8314   21.4281 C   0  0  0  0  0  0  0  0  0  0  0  0
  -22.7557  -24.3313   21.2334 C   0  0  0  0  0  0  0  0  0  0  0  0
  -25.7083   -9.9984   20.5395 C   0  0  0  0  0  0  0  0  0  0  0  0
  -21.3092  -29.4362   20.3396 C   0  0  0  0  0  0  0  0  0  0  0  0
  -25.2108   -7.7532   20.0556 C   0  0  0  0  0  0  0  0  0  0  0  0
  -23.3650   -5.8359   19.2193 C   0  0  0  0  0  0  0  0  0  0  0  0
  -25.4655   -6.9905   18.9159 C   0  0  0  0  0  0  0  0  0  0  0  0
  -22.3687  -22.0338   22.7677 C   0  0  0  0  0  0  0  0  0  0  0  0
  -24.4094  -14.0192   20.7494 C   0  0  0  0  0  0  0  0  0  0  0  0
  -23.2600  -15.8566   21.1204 C   0  0  0  0  0  0  0  0  0  0  0  0
  -22.1243  -13.7720   21.9036 C   0  0  0  0  0  0  0  0  0  0  0  0
  -26.5955  -29.0353   21.5049 C   0  0  0  0  0  0  0  0  0  0  0  0
  -26.3934  -31.9368   22.9412 C   0  0  0  0  0  0  0  0  0  0  0  0
  -24.4514  -34.5946   23.8420 C   0  0  0  0  0  0  0  0  0  0  0  0
  -26.0608  -20.6780   21.3558 C   0  0  0  0  0  0  0  0  0  0  0  0
  -31.2236  -26.8835   21.4154 C   0  0  0  0  0  0  0  0  0  0  0  0
  -25.4572  -30.4028   19.7188 C   0  0  0  0  0  0  0  0  0  0  0  0
  -24.2116  -30.8056   22.3704 C   0  0  0  0  0  0  0  0  0  0  0  0
  -30.4602  -27.7915   22.3761 C   0  0  0  0  0  0  0  0  0  0  0  0
  -26.4610  -18.6975   18.4242 C   0  0  0  0  0  0  0  0  0  0  0  0
  -29.0617  -27.2398   22.6346 C   0  0  0  0  0  0  0  0  0  0  0  0
  -25.8693  -17.3421   18.8149 C   0  0  0  0  0  0  0  0  0  0  0  0
  -27.1912  -19.3529   19.5944 C   0  0  0  0  0  0  0  0  0  0  0  0
  -25.8018  -18.1264   21.2189 C   0  0  0  0  0  0  0  0  0  0  0  0
  -28.2443  -27.1793   21.3385 C   0  0  1  0  0  0  0  0  0  0  0  0
  -26.2840  -30.4161   21.0009 C   0  0  1  0  0  0  0  0  0  0  0  0
  -25.0075  -17.4521   20.0871 C   0  0  2  0  0  0  0  0  0  0  0  0
  -24.5597  -36.7974   25.0393 C   0  0  0  0  0  0  0  0  0  0  0  0
  -26.4491  -30.4756   25.6193 C   0  0  0  0  0  0  0  0  0  0  0  0
  -25.6118  -32.5723   26.7015 C   0  0  0  0  0  0  0  0  0  0  0  0
  -27.8207  -32.5655   25.5423 C   0  0  0  0  0  0  0  0  0  0  0  0
  -24.1685  -25.7183   19.7149 C   0  0  0  0  0  0  0  0  0  0  0  0
  -23.6416  -36.0845   21.4164 C   0  0  0  0  0  0  0  0  0  0  0  0
  -24.8544  -21.8680   23.1690 C   0  0  0  0  0  0  0  0  0  0  0  0
  -20.2737  -24.5097   20.8246 C   0  0  0  0  0  0  0  0  0  0  0  0
  -18.4387  -27.7492   21.7189 C   0  0  0  0  0  0  0  0  0  0  0  0
  -18.7590  -26.4934   20.9223 C   0  0  0  0  0  0  0  0  0  0  0  0
  -19.6120  -28.7139   21.8408 C   0  0  0  0  0  0  0  0  0  1  0  0
  -25.6998  -32.4759   24.1690 C   0  0  1  0  0  0  0  0  0  0  0  0
  -24.6616  -36.0910   23.6964 C   0  0  2  0  0  0  0  0  0  0  0  0
  -26.3808  -32.0101   25.4868 C   0  0  0  0  0  0  0  0  0  0  0  0
  -25.1782  -14.9982   20.2652 N   0  0  0  0  0  0  0  0  0  0  0  0
  -24.4521  -16.1033   20.5054 N   0  0  0  0  0  0  0  0  0  0  0  0
  -25.6207  -31.1301   22.0938 N   0  0  0  0  0  0  0  0  0  0  0  0
  -26.3186  -19.4283   20.7686 N   0  0  0  0  0  0  0  0  0  0  0  0
  -22.4071  -16.8546   21.4350 N   0  0  0  0  0  0  0  0  0  0  0  0
  -22.2269  -12.3777   22.0019 N   0  0  0  0  0  0  0  0  0  0  0  0
  -22.9699  -25.4935   20.4602 N   0  0  0  0  0  0  0  0  0  0  0  0
  -27.7572  -28.4958   20.9864 N   0  0  0  0  0  0  0  0  0  0  0  0
  -25.6455  -33.9245   24.0040 N   0  0  0  0  0  0  0  0  0  0  0  0
  -25.2185  -20.6611   22.4608 N   0  0  0  0  0  0  0  0  0  0  0  0
  -23.6385  -36.6712   22.7813 N   0  3  0  0  0  0  0  0  0  0  0  0
  -19.8964  -25.7649   21.5315 N   0  3  0  0  0  0  0  0  0  0  0  0
  -21.0935  -14.3436   22.3327 O   0  0  0  0  0  0  0  0  0  0  0  0
  -25.8388  -28.4996   22.3063 O   0  0  0  0  0  0  0  0  0  0  0  0
  -27.5749  -32.2267   22.7378 O   0  0  0  0  0  0  0  0  0  0  0  0
  -23.3388  -34.0729   23.8183 O   0  0  0  0  0  0  0  0  0  0  0  0
  -26.5411  -21.7314   20.9240 O   0  0  0  0  0  0  0  0  0  0  0  0
  -26.1264   -8.7048   20.4725 O   0  0  0  0  0  0  0  0  0  0  0  0
  -19.9962  -29.1350   20.5326 O   0  0  0  0  0  0  0  0  0  1  0  0
  -22.4794   -4.9142   18.8187 F   0  0  0  0  0  0  0  0  0  0  0  0
  -26.5955   -7.1734   18.2192 F   0  0  0  0  0  0  0  0  0  0  0  0
  -22.0915  -20.6152   23.7112 Cl  0  0  0  0  0  0  0  0  0  0  0  0
  1  2  1  0  0  0  0
  1  5  2  0  0  0  0
  2  6  2  0  0  0  0
  3  8  2  0  0  0  0
  3 17  1  0  0  0  0
  4  9  1  0  0  0  0
  4 17  2  0  0  0  0
  5 19  1  0  0  0  0
  6 21  1  0  0  0  0
  7 10  2  0  0  0  0
  7 20  1  0  0  0  0
  8 26  1  0  0  0  0
  9 26  2  0  0  0  0
 10 27  1  0  0  0  0
 11 12  2  0  0  0  0
 11 28  1  0  0  0  0
 12 29  1  0  0  0  0
 13 22  1  0  0  0  0
 13 27  2  0  0  0  0
 14 23  2  0  0  0  0
 14 25  1  0  0  0  0
 15 24  1  0  0  0  0
 15 31  2  0  0  0  0
 16 29  2  0  0  0  0
 16 30  1  0  0  0  0
 17 32  1  0  0  0  0
 18 32  1  0  0  0  0
 18 33  2  0  0  0  0
 18 34  1  0  0  0  0
 19 21  2  0  0  0  0
 19 39  1  0  0  0  0
 20 22  2  0  0  0  0
 20 40  1  0  0  0  0
 21 48  1  0  0  0  0
 22 41  1  0  0  0  0
 23 31  1  0  0  0  0
 23 57  1  0  0  0  0
 24 25  2  0  0  0  0
 24 58  1  0  0  0  0
 25 71  1  0  0  0  0
 26 82  1  0  0  0  0
 27 83  1  0  0  0  0
 28 30  2  0  0  0  0
 28 82  1  0  0  0  0
 29 84  1  0  0  0  0
 30 85  1  0  0  0  0
 31 86  1  0  0  0  0
 32 65  2  0  0  0  0
 33 66  1  0  0  0  0
 33 69  1  0  0  0  0
 34 70  1  0  0  0  0
 34 77  2  0  0  0  0
 35 49  1  0  0  0  0
 35 72  1  0  0  0  0
 35 78  2  0  0  0  0
 36 62  1  0  0  0  0
 36 67  1  0  0  0  0
 36 79  2  0  0  0  0
 37 63  1  0  0  0  0
 37 73  1  0  0  0  0
 37 80  2  0  0  0  0
 38 68  1  0  0  0  0
 38 74  1  0  0  0  0
 38 81  2  0  0  0  0
 39 42  1  0  0  0  0
 40 49  1  0  0  0  0
 41 67  1  0  0  0  0
 42 44  1  0  0  0  0
 43 45  1  0  0  0  0
 43 46  1  0  0  0  0
 44 48  1  0  0  0  0
 45 50  1  0  0  0  0
 46 68  1  0  0  0  0
 47 50  1  0  0  0  0
 47 68  1  0  0  0  0
 48 72  1  0  0  0  0
 49 67  1  0  0  0  0
 50 66  1  0  0  0  0
 51 63  1  0  0  0  0
 52 64  1  0  0  0  0
 53 64  1  0  0  0  0
 54 64  1  0  0  0  0
 55 71  1  0  0  0  0
 56 75  1  0  0  0  0
 57 74  1  0  0  0  0
 58 76  1  0  0  0  0
 59 60  1  0  0  0  0
 59 61  1  0  0  0  0
 60 76  1  0  0  0  0
 61 83  1  0  0  0  0
 62 64  1  0  0  0  0
 62 73  1  0  0  0  0
 63 75  1  0  0  0  0
 65 66  1  0  0  0  0
M  CHG  2  75   1  76   1
M  ISO  4  38 100  61 101  74 100  83 101
M  END
> <Batch ID>
0037

> <Smiles>
CNc1cc(C[100NH:0][100C:0](=O)N2CCCC(n3nc(-c4ccc(Oc5ccc(F)cc5F)cc4)c(C(N)=O)c3N)C2)c(Cl)cc1CNCC[101CH2:1][101O:1]c1ccc2c(c1)CN(C(=O)C(NC(=O)C(C)NC)C(C)(C)C)C(C(=O)NC1CCCc3ccccc31)C2

> <Shape>
0.283

> <Color>
0.083

> <Negative vol penalty>
0.000

$$$$

  -OEChem-04042321573D

 87 96  0     1  0  0  0  0  0999 V2000
  -21.8828   -8.2270   24.7434 C   0  0  0  0  0  0  0  0  0  0  0  0
  -23.1736   -8.6920   24.9739 C   0  0  0  0  0  0  0  0  0  0  0  0
  -26.2056  -30.5820   21.7963 C   0  0  0  0  0  0  0  0  0  0  0  0
  -23.8778  -30.2724   21.2283 C   0  0  0  0  0  0  0  0  0  0  0  0
  -21.3347   -8.3012   23.4635 C   0  0  0  0  0  0  0  0  0  0  0  0
  -23.9174   -9.2303   23.9245 C   0  0  0  0  0  0  0  0  0  0  0  0
  -28.8807  -14.2186   22.5832 C   0  0  0  0  0  0  0  0  0  0  0  0
  -25.8942  -31.7945   22.4115 C   0  0  0  0  0  0  0  0  0  0  0  0
  -23.5664  -31.4849   21.8436 C   0  0  0  0  0  0  0  0  0  0  0  0
  -30.1260  -14.3622   21.9729 C   0  0  0  0  0  0  0  0  0  0  0  0
  -25.2394  -34.9721   21.4638 C   0  0  0  0  0  0  0  0  0  0  0  0
  -26.0652  -36.0641   21.1972 C   0  0  0  0  0  0  0  0  0  0  0  0
  -29.0469  -14.5121   19.8205 C   0  0  0  0  0  0  0  0  0  0  0  0
  -30.0046  -21.6901   20.0815 C   0  0  0  0  0  0  0  0  0  0  0  0
  -28.7981  -20.0588   21.3929 C   0  0  0  0  0  0  0  0  0  0  0  0
  -26.5926  -36.2393   23.5484 C   0  0  0  0  0  0  0  0  0  0  0  0
  -25.1974  -29.8209   21.2047 C   0  0  0  0  0  0  0  0  0  0  0  0
  -26.3920  -28.3658   19.4833 C   0  0  0  0  0  0  0  0  0  0  0  0
  -22.0685   -8.8496   22.3999 C   0  0  0  0  0  0  0  0  0  0  0  0
  -27.7080  -14.2097   21.8144 C   0  0  0  0  0  0  0  0  0  0  0  0
  -23.3790   -9.3106   22.6289 C   0  0  0  0  0  0  0  0  0  0  0  0
  -27.7879  -14.3708   20.4238 C   0  0  0  0  0  0  0  0  0  0  0  0
  -31.1374  -19.7173   20.8948 C   0  0  0  0  0  0  0  0  0  0  0  0
  -28.8226  -21.2602   20.6846 C   0  0  0  0  0  0  0  0  0  0  0  0
  -24.5747  -32.2459   22.4352 C   0  0  0  0  0  0  0  0  0  0  0  0
  -30.2094  -14.5061   20.5910 C   0  0  0  0  0  0  0  0  0  0  0  0
  -25.0901  -34.5137   22.7727 C   0  0  0  0  0  0  0  0  0  0  0  0
  -26.7418  -36.6977   22.2395 C   0  0  0  0  0  0  0  0  0  0  0  0
  -25.7667  -35.1472   23.8150 C   0  0  0  0  0  0  0  0  0  0  0  0
  -31.1619  -20.9187   20.1865 C   0  0  0  0  0  0  0  0  0  0  0  0
  -29.9554  -19.2873   21.4980 C   0  0  0  0  0  0  0  0  0  0  0  0
  -25.5185  -28.5686   20.5685 C   0  0  0  0  0  0  0  0  0  0  0  0
  -26.3518  -27.0114   19.2587 C   0  0  0  0  0  0  0  0  0  0  0  0
  -34.1134  -17.7918   19.7116 C   0  0  0  0  0  0  0  0  0  0  0  0
  -34.9296  -18.5143   18.9296 C   0  0  0  0  0  0  0  0  0  0  0  0
  -27.1702  -29.3166   18.7444 C   0  0  0  0  0  0  0  0  0  0  0  0
  -25.3934  -12.0981   21.2780 C   0  0  0  0  0  0  0  0  0  0  0  0
  -24.0436  -14.5708   19.6698 C   0  0  0  0  0  0  0  0  0  0  0  0
  -25.1492  -17.1657   17.4201 C   0  0  0  0  0  0  0  0  0  0  0  0
  -26.3922  -21.7626   21.1166 C   0  0  0  0  0  0  0  0  0  0  0  0
  -21.4512   -8.8652   21.0239 C   0  0  0  0  0  0  0  0  0  0  0  0
  -26.3707  -14.0806   22.4907 C   0  0  0  0  0  0  0  0  0  0  0  0
  -26.5574  -14.3883   19.5555 C   0  0  0  0  0  0  0  0  0  0  0  0
  -34.5836  -16.6144   20.5218 C   0  0  0  0  0  0  0  0  0  0  0  0
  -22.1670   -9.7931   20.0457 C   0  0  0  0  0  0  0  0  0  0  0  0
  -33.6946  -15.4040   20.2635 C   0  0  0  0  0  0  0  0  0  0  0  0
  -23.2601  -23.4560   21.1087 C   0  0  0  0  0  0  0  0  0  0  0  0
  -23.6766   -9.5881   20.1229 C   0  0  0  0  0  0  0  0  0  0  0  0
  -23.6403  -24.9204   20.8782 C   0  0  0  0  0  0  0  0  0  0  0  0
  -24.2799  -22.7373   21.9904 C   0  0  0  0  0  0  0  0  0  0  0  0
  -26.0535  -24.3051   21.3081 C   0  0  0  0  0  0  0  0  0  0  0  0
  -31.8545  -16.9406   19.4776 C   0  0  0  0  0  0  0  0  0  0  0  0
  -24.2082   -9.9241   21.5215 C   0  0  1  0  0  0  0  0  0  0  0  0
  -25.2765  -13.5697   21.5585 C   0  0  1  0  0  0  0  0  0  0  0  0
  -25.0901  -25.0533   20.3723 C   0  0  2  0  0  0  0  0  0  0  0  0
  -32.2141  -15.7654   20.3831 C   0  0  1  0  0  0  0  0  0  1  0  0
  -24.2045  -19.4466   16.9702 C   0  0  0  0  0  0  0  0  0  0  0  0
  -22.5604  -13.1890   17.3892 C   0  0  0  0  0  0  0  0  0  0  0  0
  -22.9481  -15.2307   15.9930 C   0  0  0  0  0  0  0  0  0  0  0  0
  -21.5929  -15.3889   18.0813 C   0  0  0  0  0  0  0  0  0  0  0  0
  -27.7297  -18.4816   18.0275 C   0  0  0  0  0  0  0  0  0  0  0  0
  -32.3822  -18.8874   21.0074 C   0  0  0  0  0  0  0  0  0  0  0  0
  -24.0964  -15.0779   18.2489 C   0  0  1  0  0  0  0  0  0  0  0  0
  -25.2559  -18.6488   17.7258 C   0  0  2  0  0  0  0  0  0  0  0  0
  -22.8213  -14.7077   17.4397 C   0  0  0  0  0  0  0  0  0  0  0  0
  -24.9638  -27.4339   21.0030 N   0  0  0  0  0  0  0  0  0  0  0  0
  -25.4900  -26.5051   20.1867 N   0  0  0  0  0  0  0  0  0  0  0  0
  -25.2734  -14.2523   20.2630 N   0  0  0  0  0  0  0  0  0  0  0  0
  -25.6298  -22.9030   21.4471 N   0  0  0  0  0  0  0  0  0  0  0  0
  -26.9699  -26.2160   18.3599 N   0  0  0  0  0  0  0  0  0  0  0  0
  -26.5956  -29.9176   17.6161 N   0  0  0  0  0  0  0  0  0  0  0  0
  -27.6472  -22.0443   20.5781 N   0  0  0  0  0  0  0  0  0  0  0  0
  -24.3038  -11.3577   21.6949 N   0  0  0  0  0  0  0  0  0  0  0  0
  -24.3533  -16.5113   18.3363 N   0  0  0  0  0  0  0  0  0  0  0  0
  -32.7164  -18.1515   19.7394 N   0  3  1  0  0  0  0  0  0  0  0  0
  -26.6012  -19.1616   17.3411 N   0  3  0  0  0  0  0  0  0  0  0  0
  -28.3463  -29.6120   19.0653 O   0  0  0  0  0  0  0  0  0  0  0  0
  -26.3972  -11.6667   20.7231 O   0  0  0  0  0  0  0  0  0  0  0  0
  -22.9520  -14.4679   20.2350 O   0  0  0  0  0  0  0  0  0  0  0  0
  -25.7125  -16.6409   16.4621 O   0  0  0  0  0  0  0  0  0  0  0  0
  -25.9525  -20.6205   21.2726 O   0  0  0  0  0  0  0  0  0  0  0  0
  -24.2704  -33.4289   23.0356 O   0  0  0  0  0  0  0  0  0  0  0  0
  -31.4236  -14.6458   19.9927 O   0  0  0  0  0  0  0  0  0  1  0  0
  -27.5361  -37.7454   21.9831 F   0  0  0  0  0  0  0  0  0  0  0  0
  -25.6282  -34.7106   25.0744 F   0  0  0  0  0  0  0  0  0  0  0  0
  -32.6027  -21.4872   19.4226 Cl  0  0  0  0  0  0  0  0  0  0  0  0
  -29.8808  -17.8067   22.3839 Cl  0  0  0  0  0  0  0  0  0  0  0  0
  1  2  1  0  0  0  0
  1  5  2  0  0  0  0
  2  6  2  0  0  0  0
  3  8  2  0  0  0  0
  3 17  1  0  0  0  0
  4  9  1  0  0  0  0
  4 17  2  0  0  0  0
  5 19  1  0  0  0  0
  6 21  1  0  0  0  0
  7 10  2  0  0  0  0
  7 20  1  0  0  0  0
  8 25  1  0  0  0  0
  9 25  2  0  0  0  0
 10 26  1  0  0  0  0
 11 12  2  0  0  0  0
 11 27  1  0  0  0  0
 12 28  1  0  0  0  0
 13 22  1  0  0  0  0
 13 26  2  0  0  0  0
 14 24  1  0  0  0  0
 14 30  2  0  0  0  0
 15 24  2  0  0  0  0
 15 31  1  0  0  0  0
 16 28  2  0  0  0  0
 16 29  1  0  0  0  0
 17 32  1  0  0  0  0
 18 32  1  0  0  0  0
 18 33  2  0  0  0  0
 18 36  1  0  0  0  0
 19 21  2  0  0  0  0
 19 41  1  0  0  0  0
 20 22  2  0  0  0  0
 20 42  1  0  0  0  0
 21 53  1  0  0  0  0
 22 43  1  0  0  0  0
 23 30  1  0  0  0  0
 23 31  2  0  0  0  0
 23 62  1  0  0  0  0
 24 72  1  0  0  0  0
 25 82  1  0  0  0  0
 26 83  1  0  0  0  0
 27 29  2  0  0  0  0
 27 82  1  0  0  0  0
 28 84  1  0  0  0  0
 29 85  1  0  0  0  0
 30 86  1  0  0  0  0
 31 87  1  0  0  0  0
 32 66  2  0  0  0  0
 33 67  1  0  0  0  0
 33 70  1  0  0  0  0
 34 35  2  0  0  0  0
 34 44  1  0  0  0  0
 34 75  1  0  0  0  0
 36 71  1  0  0  0  0
 36 77  2  0  0  0  0
 37 54  1  0  0  0  0
 37 73  1  0  0  0  0
 37 78  2  0  0  0  0
 38 63  1  0  0  0  0
 38 68  1  0  0  0  0
 38 79  2  0  0  0  0
 39 64  1  0  0  0  0
 39 74  1  0  0  0  0
 39 80  2  0  0  0  0
 40 69  1  0  0  0  0
 40 72  1  0  0  0  0
 40 81  2  0  0  0  0
 41 45  1  0  0  0  0
 42 54  1  0  0  0  0
 43 68  1  0  0  0  0
 44 46  1  0  0  0  0
 45 48  1  0  0  0  0
 46 56  1  0  0  0  0
 47 49  1  0  0  0  0
 47 50  1  0  0  0  0
 48 53  1  0  0  0  0
 49 55  1  0  0  0  0
 50 69  1  0  0  0  0
 51 55  1  0  0  0  0
 51 69  1  0  0  0  0
 52 56  1  0  0  0  0
 52 75  1  0  0  0  0
 53 73  1  0  0  0  0
 54 68  1  0  0  0  0
 55 67  1  0  0  0  0
 56 83  1  0  0  0  0
 57 64  1  0  0  0  0
 58 65  1  0  0  0  0
 59 65  1  0  0  0  0
 60 65  1  0  0  0  0
 61 76  1  0  0  0  0
 62 75  1  0  0  0  0
 63 65  1  0  0  0  0
 63 74  1  0  0  0  0
 64 76  1  0  0  0  0
 66 67  1  0  0  0  0
M  CHG  2  75   1  76   1
M  ISO  4  40 100  56 101  72 100  83 101
M  END
> <Batch ID>
0037

> <Smiles>
C=C1CC[101CH:1]([101O:1]c2ccc3c(c2)CN(C(=O)C(NC(=O)C(C)NC)C(C)(C)C)C(C(=O)NC2CCCc4ccccc42)C3)CN1Cc1c(Cl)cc([100NH:0][100C:0](=O)N2CCCC(n3nc(-c4ccc(Oc5ccc(F)cc5F)cc4)c(C(N)=O)c3N)C2)cc1Cl

> <Shape>
0.237

> <Color>
0.076

> <Negative vol penalty>
0.000

$$$$

  -OEChem-04042321573D

 87 96  0     1  0  0  0  0  0999 V2000
  -19.4741  -10.2494   20.9696 C   0  0  0  0  0  0  0  0  0  0  0  0
  -20.0514  -11.2857   21.6964 C   0  0  0  0  0  0  0  0  0  0  0  0
  -24.7558  -27.7912   21.7822 C   0  0  0  0  0  0  0  0  0  0  0  0
  -24.8264  -26.5190   19.7295 C   0  0  0  0  0  0  0  0  0  0  0  0
  -20.2557   -9.1736   20.5506 C   0  0  0  0  0  0  0  0  0  0  0  0
  -21.4105  -11.2462   22.0056 C   0  0  0  0  0  0  0  0  0  0  0  0
  -23.7127  -15.6868   21.2143 C   0  0  0  0  0  0  0  0  0  0  0  0
  -23.5273  -27.2117   22.0992 C   0  0  0  0  0  0  0  0  0  0  0  0
  -23.5978  -25.9395   20.0464 C   0  0  0  0  0  0  0  0  0  0  0  0
  -23.5300  -16.6790   22.1765 C   0  0  0  0  0  0  0  0  0  0  0  0
  -20.1997  -26.3355   23.2753 C   0  0  0  0  0  0  0  0  0  0  0  0
  -19.1896  -27.1719   23.7501 C   0  0  0  0  0  0  0  0  0  0  0  0
  -25.6853  -16.1503   23.1222 C   0  0  0  0  0  0  0  0  0  0  0  0
  -26.2642  -20.1451   19.9370 C   0  0  0  0  0  0  0  0  0  0  0  0
  -27.2902  -22.2209   20.6264 C   0  0  0  0  0  0  0  0  0  0  0  0
  -19.2746  -28.4408   21.6959 C   0  0  0  0  0  0  0  0  0  0  0  0
  -25.4053  -27.4449   20.5973 C   0  0  0  0  0  0  0  0  0  0  0  0
  -26.9469  -29.4130   20.0895 C   0  0  0  0  0  0  0  0  0  0  0  0
  -21.6272   -9.1256   20.8465 C   0  0  0  0  0  0  0  0  0  0  0  0
  -24.8803  -14.9102   21.2055 C   0  0  0  0  0  0  0  0  0  0  0  0
  -22.2110  -10.1681   21.5913 C   0  0  0  0  0  0  0  0  0  0  0  0
  -25.8815  -15.1506   22.1573 C   0  0  0  0  0  0  0  0  0  0  0  0
  -26.2462  -21.3005   20.7183 C   0  0  0  0  0  0  0  0  0  0  0  0
  -27.3263  -19.9102   19.0638 C   0  0  0  0  0  0  0  0  0  0  0  0
  -28.3523  -21.9860   19.7531 C   0  0  0  0  0  0  0  0  0  0  0  0
  -22.9483  -26.2858   21.2313 C   0  0  0  0  0  0  0  0  0  0  0  0
  -24.5151  -16.9090   23.1324 C   0  0  0  0  0  0  0  0  0  0  0  0
  -20.7474  -26.5517   22.0107 C   0  0  0  0  0  0  0  0  0  0  0  0
  -18.7270  -28.2246   22.9605 C   0  0  0  0  0  0  0  0  0  0  0  0
  -20.2848  -27.6043   21.2211 C   0  0  0  0  0  0  0  0  0  0  0  0
  -28.3703  -20.8306   18.9718 C   0  0  0  0  0  0  0  0  0  0  0  0
  -26.6741  -28.0437   20.2691 C   0  0  0  0  0  0  0  0  0  0  0  0
  -28.2874  -29.4603   19.7943 C   0  0  0  0  0  0  0  0  0  0  0  0
  -24.5527  -22.0184   23.9711 C   0  0  0  0  0  0  0  0  0  0  0  0
  -24.9940  -23.1419   24.5564 C   0  0  0  0  0  0  0  0  0  0  0  0
  -26.0671  -30.5414   20.1814 C   0  0  0  0  0  0  0  0  0  0  0  0
  -25.5183  -11.8151   21.5482 C   0  0  0  0  0  0  0  0  0  0  0  0
  -28.5316  -12.7518   20.7966 C   0  0  0  0  0  0  0  0  0  0  0  0
  -30.7175  -15.5011   21.6217 C   0  0  0  0  0  0  0  0  0  0  0  0
  -29.5072  -24.1380   20.4048 C   0  0  0  0  0  0  0  0  0  0  0  0
  -22.4215   -7.9191   20.4129 C   0  0  0  0  0  0  0  0  0  0  0  0
  -25.0738  -13.8617   20.1446 C   0  0  0  0  0  0  0  0  0  0  0  0
  -27.1621  -14.3581   22.1786 C   0  0  0  0  0  0  0  0  0  0  0  0
  -23.1805  -21.4512   24.2143 C   0  0  0  0  0  0  0  0  0  0  0  0
  -23.9319   -8.1355   20.4592 C   0  0  0  0  0  0  0  0  0  0  0  0
  -23.2745  -19.9763   24.5858 C   0  0  0  0  0  0  0  0  0  0  0  0
  -31.3461  -26.3015   17.7964 C   0  0  0  0  0  0  0  0  0  0  0  0
  -24.3370   -8.7926   21.7748 C   0  0  0  0  0  0  0  0  0  0  0  0
  -30.3858  -27.4576   18.0457 C   0  0  0  0  0  0  0  0  0  0  0  0
  -30.7759  -25.0070   18.3695 C   0  0  0  0  0  0  0  0  0  0  0  0
  -30.4812  -26.4263   20.4020 C   0  0  0  0  0  0  0  0  0  0  0  0
  -25.5414  -19.8578   23.4850 C   0  0  0  0  0  0  0  0  0  0  0  0
  -23.6870  -10.1733   21.9250 C   0  0  1  0  0  0  0  0  0  0  0  0
  -26.0770  -12.7843   20.5451 C   0  0  1  0  0  0  0  0  0  0  0  0
  -30.1290  -27.6643   19.5519 C   0  0  2  0  0  0  0  0  0  0  0  0
  -24.1638  -19.2113   23.6057 C   0  0  1  0  0  0  0  0  0  1  0  0
  -27.3033  -18.6583   18.2467 C   0  0  0  0  0  0  0  0  0  0  0  0
  -32.6140  -16.5210   20.3332 C   0  0  0  0  0  0  0  0  0  0  0  0
  -30.2765  -10.8437   22.4167 C   0  0  0  0  0  0  0  0  0  0  0  0
  -31.9975  -12.6559   22.5667 C   0  0  0  0  0  0  0  0  0  0  0  0
  -31.3516  -11.7328   20.3411 C   0  0  0  0  0  0  0  0  0  0  0  0
  -29.5123  -18.2006   21.7596 C   0  0  0  0  0  0  0  0  0  0  0  0
  -25.1031  -21.5530   21.6566 C   0  0  0  0  0  0  0  0  0  0  0  0
  -29.7311  -13.2251   21.5816 C   0  0  1  0  0  0  0  0  0  0  0  0
  -31.1428  -16.6315   20.7021 C   0  0  2  0  0  0  0  0  0  0  0  0
  -30.8126  -12.1188   21.7358 C   0  0  0  0  0  0  0  0  0  0  0  0
  -27.7546  -27.2765   20.1018 N   0  0  0  0  0  0  0  0  0  0  0  0
  -28.7193  -28.1668   19.8139 N   0  0  0  0  0  0  0  0  0  0  0  0
  -27.3017  -13.3398   21.1245 N   0  0  0  0  0  0  0  0  0  0  0  0
  -30.2097  -25.1595   19.7178 N   0  0  0  0  0  0  0  0  0  0  0  0
  -29.1271  -30.4818   19.5224 N   0  0  0  0  0  0  0  0  0  0  0  0
  -25.3966  -30.9618   19.0247 N   0  0  0  0  0  0  0  0  0  0  0  0
  -29.3950  -22.9444   19.6867 N   0  0  0  0  0  0  0  0  0  0  0  0
  -24.3852  -11.1511   21.1182 N   0  0  0  0  0  0  0  0  0  0  0  0
  -30.2036  -14.4341   20.9156 N   0  0  0  0  0  0  0  0  0  0  0  0
  -25.4599  -21.3141   23.0976 N   0  3  1  0  0  0  0  0  0  0  0  0
  -30.9219  -17.9485   21.3637 N   0  3  0  0  0  0  0  0  0  0  0  0
  -25.8937  -31.1687   21.2538 O   0  0  0  0  0  0  0  0  0  0  0  0
  -26.0748  -11.6786   22.6314 O   0  0  0  0  0  0  0  0  0  0  0  0
  -28.6815  -11.8971   19.9199 O   0  0  0  0  0  0  0  0  0  0  0  0
  -30.8332  -15.5573   22.8440 O   0  0  0  0  0  0  0  0  0  0  0  0
  -29.0503  -24.3142   21.5361 O   0  0  0  0  0  0  0  0  0  0  0  0
  -21.7496  -25.7199   21.5404 O   0  0  0  0  0  0  0  0  0  0  0  0
  -24.3391  -17.8765   24.0731 O   0  0  0  0  0  0  0  0  0  1  0  0
  -17.7559  -29.0268   23.4160 F   0  0  0  0  0  0  0  0  0  0  0  0
  -20.8062  -27.8163   20.0049 F   0  0  0  0  0  0  0  0  0  0  0  0
  -29.6877  -20.5325   17.8851 Cl  0  0  0  0  0  0  0  0  0  0  0  0
  1  2  1  0  0  0  0
  1  5  2  0  0  0  0
  2  6  2  0  0  0  0
  3  8  2  0  0  0  0
  3 17  1  0  0  0  0
  4  9  1  0  0  0  0
  4 17  2  0  0  0  0
  5 19  1  0  0  0  0
  6 21  1  0  0  0  0
  7 10  2  0  0  0  0
  7 20  1  0  0  0  0
  8 26  1  0  0  0  0
  9 26  2  0  0  0  0
 10 27  1  0  0  0  0
 11 12  2  0  0  0  0
 11 28  1  0  0  0  0
 12 29  1  0  0  0  0
 13 22  1  0  0  0  0
 13 27  2  0  0  0  0
 14 23  1  0  0  0  0
 14 24  2  0  0  0  0
 15 23  2  0  0  0  0
 15 25  1  0  0  0  0
 16 29  2  0  0  0  0
 16 30  1  0  0  0  0
 17 32  1  0  0  0  0
 18 32  1  0  0  0  0
 18 33  2  0  0  0  0
 18 36  1  0  0  0  0
 19 21  2  0  0  0  0
 19 41  1  0  0  0  0
 20 22  2  0  0  0  0
 20 42  1  0  0  0  0
 21 53  1  0  0  0  0
 22 43  1  0  0  0  0
 23 63  1  0  0  0  0
 24 31  1  0  0  0  0
 24 57  1  0  0  0  0
 25 31  2  0  0  0  0
 25 73  1  0  0  0  0
 26 83  1  0  0  0  0
 27 84  1  0  0  0  0
 28 30  2  0  0  0  0
 28 83  1  0  0  0  0
 29 85  1  0  0  0  0
 30 86  1  0  0  0  0
 31 87  1  0  0  0  0
 32 67  2  0  0  0  0
 33 68  1  0  0  0  0
 33 71  1  0  0  0  0
 34 35  2  0  0  0  0
 34 44  1  0  0  0  0
 34 76  1  0  0  0  0
 36 72  1  0  0  0  0
 36 78  2  0  0  0  0
 37 54  1  0  0  0  0
 37 74  1  0  0  0  0
 37 79  2  0  0  0  0
 38 64  1  0  0  0  0
 38 69  1  0  0  0  0
 38 80  2  0  0  0  0
 39 65  1  0  0  0  0
 39 75  1  0  0  0  0
 39 81  2  0  0  0  0
 40 70  1  0  0  0  0
 40 73  1  0  0  0  0
 40 82  2  0  0  0  0
 41 45  1  0  0  0  0
 42 54  1  0  0  0  0
 43 69  1  0  0  0  0
 44 46  1  0  0  0  0
 45 48  1  0  0  0  0
 46 56  1  0  0  0  0
 47 49  1  0  0  0  0
 47 50  1  0  0  0  0
 48 53  1  0  0  0  0
 49 55  1  0  0  0  0
 50 70  1  0  0  0  0
 51 55  1  0  0  0  0
 51 70  1  0  0  0  0
 52 56  1  0  0  0  0
 52 76  1  0  0  0  0
 53 74  1  0  0  0  0
 54 69  1  0  0  0  0
 55 68  1  0  0  0  0
 56 84  1  0  0  0  0
 58 65  1  0  0  0  0
 59 66  1  0  0  0  0
 60 66  1  0  0  0  0
 61 66  1  0  0  0  0
 62 77  1  0  0  0  0
 63 76  1  0  0  0  0
 64 66  1  0  0  0  0
 64 75  1  0  0  0  0
 65 77  1  0  0  0  0
 67 68  1  0  0  0  0
M  CHG  2  76   1  77   1
M  ISO  4  40 100  56 101  73 100  84 101
M  END
> <Batch ID>
0037

> <Smiles>
C=C1CC[101CH:1]([101O:1]c2ccc3c(c2)CN(C(=O)C(NC(=O)C(C)NC)C(C)(C)C)C(C(=O)NC2CCCc4ccccc42)C3)CN1Cc1cc(C)c(Cl)c([100NH:0][100C:0](=O)N2CCCC(n3nc(-c4ccc(Oc5ccc(F)cc5F)cc4)c(C(N)=O)c3N)C2)c1

> <Shape>
0.294

> <Color>
0.044

> <Negative vol penalty>
0.000

$$$$

  -OEChem-04042321573D

 86 94  0     1  0  0  0  0  0999 V2000
  -28.1860  -11.4468   19.3088 C   0  0  0  0  0  0  0  0  0  0  0  0
  -27.7741  -12.1489   20.4370 C   0  0  0  0  0  0  0  0  0  0  0  0
  -25.2577  -30.6262   24.4199 C   0  0  0  0  0  0  0  0  0  0  0  0
  -26.0493  -28.3442   24.3680 C   0  0  0  0  0  0  0  0  0  0  0  0
  -29.2490  -11.9230   18.5424 C   0  0  0  0  0  0  0  0  0  0  0  0
  -28.4257  -13.3271   20.8001 C   0  0  0  0  0  0  0  0  0  0  0  0
  -25.2003  -17.0180   22.0727 C   0  0  0  0  0  0  0  0  0  0  0  0
  -26.2073  -30.9335   25.3943 C   0  0  0  0  0  0  0  0  0  0  0  0
  -26.9990  -28.6514   25.3424 C   0  0  0  0  0  0  0  0  0  0  0  0
  -24.6266  -16.9527   23.3417 C   0  0  0  0  0  0  0  0  0  0  0  0
  -29.8705  -28.9232   27.5557 C   0  0  0  0  0  0  0  0  0  0  0  0
  -31.1701  -28.4533   27.3667 C   0  0  0  0  0  0  0  0  0  0  0  0
  -26.2217  -18.5769   24.1397 C   0  0  0  0  0  0  0  0  0  0  0  0
  -20.8996  -20.7588   23.8792 C   0  0  0  0  0  0  0  0  0  0  0  0
  -18.6691  -22.4116   24.1542 C   0  0  0  0  0  0  0  0  0  0  0  0
  -31.3188  -29.6955   25.2998 C   0  0  0  0  0  0  0  0  0  0  0  0
  -25.1787  -29.3315   23.9068 C   0  0  0  0  0  0  0  0  0  0  0  0
  -24.3534  -29.0990   21.5042 C   0  0  0  0  0  0  0  0  0  0  0  0
  -29.9076  -13.1127   18.8908 C   0  0  0  0  0  0  0  0  0  0  0  0
  -26.2978  -17.8565   21.8300 C   0  0  0  0  0  0  0  0  0  0  0  0
  -29.4993  -13.8189   20.0384 C   0  0  0  0  0  0  0  0  0  0  0  0
  -26.8059  -18.6530   22.8661 C   0  0  0  0  0  0  0  0  0  0  0  0
  -20.9385  -22.0681   23.3999 C   0  0  0  0  0  0  0  0  0  0  0  0
  -19.7454  -20.2758   24.4959 C   0  0  0  0  0  0  0  0  0  0  0  0
  -19.8233  -22.8946   23.5374 C   0  0  0  0  0  0  0  0  0  0  0  0
  -27.0780  -29.9461   25.8555 C   0  0  0  0  0  0  0  0  0  0  0  0
  -25.1391  -17.7301   24.3761 C   0  0  0  0  0  0  0  0  0  0  0  0
  -29.2950  -29.7793   26.6167 C   0  0  0  0  0  0  0  0  0  0  0  0
  -31.8943  -28.8394   26.2388 C   0  0  0  0  0  0  0  0  0  0  0  0
  -30.0191  -30.1654   25.4888 C   0  0  0  0  0  0  0  0  0  0  0  0
  -18.6302  -21.1022   24.6334 C   0  0  0  0  0  0  0  0  0  0  0  0
  -24.1976  -29.0134   22.9007 C   0  0  0  0  0  0  0  0  0  0  0  0
  -23.1439  -28.6901   20.9980 C   0  0  0  0  0  0  0  0  0  0  0  0
  -25.4900  -29.5112   20.7335 C   0  0  0  0  0  0  0  0  0  0  0  0
  -29.3081  -17.4032   20.9153 C   0  0  0  0  0  0  0  0  0  0  0  0
  -29.3621  -20.6456   20.8354 C   0  0  0  0  0  0  0  0  0  0  0  0
  -21.0127  -18.8741   27.1387 C   0  0  0  0  0  0  0  0  0  0  0  0
  -28.0463  -23.5933   21.9428 C   0  0  0  0  0  0  0  0  0  0  0  0
  -18.8120  -25.1640   23.1210 C   0  0  0  0  0  0  0  0  0  0  0  0
  -31.0820  -13.5628   18.0584 C   0  0  0  0  0  0  0  0  0  0  0  0
  -26.8884  -17.9355   20.4489 C   0  0  0  0  0  0  0  0  0  0  0  0
  -27.9699  -19.5846   22.6524 C   0  0  0  0  0  0  0  0  0  0  0  0
  -31.4769  -15.0177   18.2986 C   0  0  0  0  0  0  0  0  0  0  0  0
  -18.4821  -28.5547   22.0858 C   0  0  0  0  0  0  0  0  0  0  0  0
  -31.5359  -15.3150   19.7936 C   0  0  0  0  0  0  0  0  0  0  0  0
  -19.9249  -29.0631   22.0443 C   0  0  0  0  0  0  0  0  0  0  0  0
  -18.2562  -27.5829   23.2427 C   0  0  0  0  0  0  0  0  0  0  0  0
  -20.6414  -26.9667   23.2603 C   0  0  0  0  0  0  0  0  0  0  0  0
  -30.1649  -15.1140   20.4505 C   0  0  1  0  0  0  0  0  0  0  0  0
  -28.3282  -18.4396   20.4426 C   0  0  1  0  0  0  0  0  0  0  0  0
  -20.9339  -27.8984   22.0729 C   0  0  2  0  0  0  0  0  0  0  0  0
  -22.1874  -22.5583   22.7417 C   0  0  0  0  0  0  0  0  0  0  0  0
  -20.9664  -18.8845   28.6200 C   0  0  0  0  0  0  0  0  0  0  0  0
  -28.3239  -26.0782   21.7291 C   0  0  0  0  0  0  0  0  0  0  0  0
  -31.8152  -20.5247   22.6457 C   0  0  0  0  0  0  0  0  0  0  0  0
  -31.4702  -22.9509   23.1583 C   0  0  0  0  0  0  0  0  0  0  0  0
  -31.9494  -22.2279   20.8194 C   0  0  0  0  0  0  0  0  0  0  0  0
  -25.3159  -23.9211   20.8490 C   0  0  0  0  0  0  0  0  0  0  0  0
  -19.7434  -18.8627   24.9966 C   0  0  0  0  0  0  0  0  0  0  0  0
  -23.4665  -18.8692   27.3688 C   0  0  0  0  0  0  0  0  0  0  0  0
  -24.6458  -18.8470   26.4170 C   0  0  0  0  0  0  0  0  0  1  0  0
  -29.6851  -21.7343   21.8300 C   0  0  1  0  0  0  0  0  0  0  0  0
  -27.6102  -24.8437   21.2006 C   0  0  2  0  0  0  0  0  0  0  0  0
  -31.2093  -21.8405   22.1182 C   0  0  0  0  0  0  0  0  0  0  0  0
  -22.9845  -28.5839   23.2587 N   0  0  0  0  0  0  0  0  0  0  0  0
  -22.3672  -28.3961   22.0799 N   0  0  0  0  0  0  0  0  0  0  0  0
  -28.5169  -19.6217   21.2860 N   0  0  0  0  0  0  0  0  0  0  0  0
  -19.2459  -26.5041   23.2028 N   0  0  0  0  0  0  0  0  0  0  0  0
  -22.6795  -28.5569   19.7374 N   0  0  0  0  0  0  0  0  0  0  0  0
  -26.6526  -29.8999   21.4129 N   0  0  0  0  0  0  0  0  0  0  0  0
  -19.8430  -24.2272   23.0563 N   0  0  0  0  0  0  0  0  0  0  0  0
  -29.3000  -16.2398   20.1698 N   0  0  0  0  0  0  0  0  0  0  0  0
  -22.2313  -18.8668   26.5882 N   0  0  0  0  0  0  0  0  0  0  0  0
  -29.0898  -22.9578   21.3037 N   0  0  0  0  0  0  0  0  0  0  0  0
  -19.8630  -18.8724   26.4582 N   0  3  0  0  0  0  0  0  0  0  0  0
  -26.1418  -25.0495   21.3506 N   0  3  0  0  0  0  0  0  0  0  0  0
  -25.4696  -29.5499   19.4798 O   0  0  0  0  0  0  0  0  0  0  0  0
  -30.0199  -17.6420   21.8839 O   0  0  0  0  0  0  0  0  0  0  0  0
  -29.8363  -20.7053   19.6982 O   0  0  0  0  0  0  0  0  0  0  0  0
  -27.5168  -23.2199   22.9872 O   0  0  0  0  0  0  0  0  0  0  0  0
  -17.6143  -24.8708   23.0817 O   0  0  0  0  0  0  0  0  0  0  0  0
  -28.0049  -30.2456   26.8061 O   0  0  0  0  0  0  0  0  0  0  0  0
  -24.5815  -17.6678   25.6159 O   0  0  0  0  0  0  0  0  0  1  0  0
  -33.1428  -28.3893   26.0582 F   0  0  0  0  0  0  0  0  0  0  0  0
  -29.4720  -30.9886   24.5839 F   0  0  0  0  0  0  0  0  0  0  0  0
  -17.1847  -20.5392   25.3906 Cl  0  0  0  0  0  0  0  0  0  0  0  0
  1  2  1  0  0  0  0
  1  5  2  0  0  0  0
  2  6  2  0  0  0  0
  3  8  2  0  0  0  0
  3 17  1  0  0  0  0
  4  9  1  0  0  0  0
  4 17  2  0  0  0  0
  5 19  1  0  0  0  0
  6 21  1  0  0  0  0
  7 10  2  0  0  0  0
  7 20  1  0  0  0  0
  8 26  1  0  0  0  0
  9 26  2  0  0  0  0
 10 27  1  0  0  0  0
 11 12  2  0  0  0  0
 11 28  1  0  0  0  0
 12 29  1  0  0  0  0
 13 22  1  0  0  0  0
 13 27  2  0  0  0  0
 14 23  2  0  0  0  0
 14 24  1  0  0  0  0
 15 25  2  0  0  0  0
 15 31  1  0  0  0  0
 16 29  2  0  0  0  0
 16 30  1  0  0  0  0
 17 32  1  0  0  0  0
 18 32  1  0  0  0  0
 18 33  2  0  0  0  0
 18 34  1  0  0  0  0
 19 21  2  0  0  0  0
 19 40  1  0  0  0  0
 20 22  2  0  0  0  0
 20 41  1  0  0  0  0
 21 49  1  0  0  0  0
 22 42  1  0  0  0  0
 23 25  1  0  0  0  0
 23 52  1  0  0  0  0
 24 31  2  0  0  0  0
 24 59  1  0  0  0  0
 25 71  1  0  0  0  0
 26 82  1  0  0  0  0
 27 83  1  0  0  0  0
 28 30  2  0  0  0  0
 28 82  1  0  0  0  0
 29 84  1  0  0  0  0
 30 85  1  0  0  0  0
 31 86  1  0  0  0  0
 32 65  2  0  0  0  0
 33 66  1  0  0  0  0
 33 69  1  0  0  0  0
 34 70  1  0  0  0  0
 34 77  2  0  0  0  0
 35 50  1  0  0  0  0
 35 72  1  0  0  0  0
 35 78  2  0  0  0  0
 36 62  1  0  0  0  0
 36 67  1  0  0  0  0
 36 79  2  0  0  0  0
 37 53  1  0  0  0  0
 37 73  1  0  0  0  0
 37 75  2  0  0  0  0
 38 63  1  0  0  0  0
 38 74  1  0  0  0  0
 38 80  2  0  0  0  0
 39 68  1  0  0  0  0
 39 71  1  0  0  0  0
 39 81  2  0  0  0  0
 40 43  1  0  0  0  0
 41 50  1  0  0  0  0
 42 67  1  0  0  0  0
 43 45  1  0  0  0  0
 44 46  1  0  0  0  0
 44 47  1  0  0  0  0
 45 49  1  0  0  0  0
 46 51  1  0  0  0  0
 47 68  1  0  0  0  0
 48 51  1  0  0  0  0
 48 68  1  0  0  0  0
 49 72  1  0  0  0  0
 50 67  1  0  0  0  0
 51 66  1  0  0  0  0
 54 63  1  0  0  0  0
 55 64  1  0  0  0  0
 56 64  1  0  0  0  0
 57 64  1  0  0  0  0
 58 76  1  0  0  0  0
 59 75  1  0  0  0  0
 60 61  1  0  0  0  0
 60 73  1  0  0  0  0
 61 83  1  0  0  0  0
 62 64  1  0  0  0  0
 62 74  1  0  0  0  0
 63 76  1  0  0  0  0
 65 66  1  0  0  0  0
M  CHG  2  75   1  76   1
M  ISO  4  39 100  61 101  71 100  83 101
M  END
> <Batch ID>
0037

> <Smiles>
CNC(C)C(=O)NC(C(=O)N1Cc2cc([101O:1][101CH2:1]CN=C(C)NCc3cc(C)c([100NH:0][100C:0](=O)N4CCCC(n5nc(-c6ccc(Oc7ccc(F)cc7F)cc6)c(C(N)=O)c5N)C4)cc3Cl)ccc2CC1C(=O)NC1CCCc2ccccc21)C(C)(C)C

> <Shape>
0.204

> <Color>
0.063

> <Negative vol penalty>
0.000

$$$$

  -OEChem-04042321573D

 97107  0     1  0  0  0  0  0999 V2000
  -30.6322  -20.2365   14.8056 C   0  0  0  0  0  0  0  0  0  0  0  0
  -30.2786  -21.5820   14.8048 C   0  0  0  0  0  0  0  0  0  0  0  0
  -29.4151  -16.9530   20.9153 C   0  0  0  0  0  0  0  0  0  0  0  0
  -30.5431  -17.7037   18.9151 C   0  0  0  0  0  0  0  0  0  0  0  0
  -29.6824  -19.2672   14.4862 C   0  0  0  0  0  0  0  0  0  0  0  0
  -28.9751  -21.9590   14.4835 C   0  0  0  0  0  0  0  0  0  0  0  0
  -23.8431  -26.1991   18.5715 C   0  0  0  0  0  0  0  0  0  0  0  0
  -25.8437  -29.6927   20.5622 C   0  0  0  0  0  0  0  0  0  0  0  0
  -30.2340  -15.8245   20.9536 C   0  0  0  0  0  0  0  0  0  0  0  0
  -31.3621  -16.5752   18.9533 C   0  0  0  0  0  0  0  0  0  0  0  0
  -22.7953  -26.8023   19.2675 C   0  0  0  0  0  0  0  0  0  0  0  0
  -31.7884  -12.5639   21.3735 C   0  0  0  0  0  0  0  0  0  0  0  0
  -31.1857  -11.3317   21.6261 C   0  0  0  0  0  0  0  0  0  0  0  0
  -24.8830  -30.2974   19.7516 C   0  0  0  0  0  0  0  0  0  0  0  0
  -21.1929  -25.5247   17.9837 C   0  0  0  0  0  0  0  0  0  0  0  0
  -29.8199  -11.5949   19.6505 C   0  0  0  0  0  0  0  0  0  0  0  0
  -29.5697  -17.8926   19.8960 C   0  0  0  0  0  0  0  0  0  0  0  0
  -27.3201  -19.0868   19.7518 C   0  0  0  0  0  0  0  0  0  0  0  0
  -28.3641  -19.6318   14.1702 C   0  0  0  0  0  0  0  0  0  0  0  0
  -23.5700  -25.2439   17.5884 C   0  0  0  0  0  0  0  0  0  0  0  0
  -28.0071  -20.9937   14.1582 C   0  0  0  0  0  0  0  0  0  0  0  0
  -22.2388  -24.9080   17.2919 C   0  0  0  0  0  0  0  0  0  0  0  0
  -24.3038  -29.7408   22.4233 C   0  0  0  0  0  0  0  0  0  0  0  0
  -23.3431  -30.3455   21.6127 C   0  0  0  0  0  0  0  0  0  0  0  0
  -25.5541  -29.4143   21.8980 C   0  0  0  0  0  0  0  0  0  0  0  0
  -31.2075  -15.6356   19.9726 C   0  0  0  0  0  0  0  0  0  0  0  0
  -21.4735  -26.4661   18.9741 C   0  0  0  0  0  0  0  0  0  0  0  0
  -31.4069  -13.3117   20.2595 C   0  0  0  0  0  0  0  0  0  0  0  0
  -30.2014  -10.8471   20.7646 C   0  0  0  0  0  0  0  0  0  0  0  0
  -30.4227  -12.8272   19.3980 C   0  0  0  0  0  0  0  0  0  0  0  0
  -23.6327  -30.6238   20.2769 C   0  0  0  0  0  0  0  0  0  0  0  0
  -28.7237  -19.0583   19.8556 C   0  0  0  0  0  0  0  0  0  0  0  0
  -27.0027  -20.4231   19.7542 C   0  0  0  0  0  0  0  0  0  0  0  0
  -26.3866  -18.0024   19.6613 C   0  0  0  0  0  0  0  0  0  0  0  0
  -27.8244  -28.4199   22.3233 C   0  0  0  0  0  0  0  0  0  0  0  0
  -24.9382  -22.8518   15.0424 C   0  0  0  0  0  0  0  0  0  0  0  0
  -22.5888  -21.4397   16.4196 C   0  0  0  0  0  0  0  0  0  0  0  0
  -20.2190  -20.0857   18.4660 C   0  0  0  0  0  0  0  0  0  0  0  0
  -29.7854  -25.1228   21.9958 C   0  0  0  0  0  0  0  0  0  0  0  0
  -27.3845  -18.5515   13.7854 C   0  0  0  0  0  0  0  0  0  0  0  0
  -24.6647  -24.6137   16.7709 C   0  0  0  0  0  0  0  0  0  0  0  0
  -21.9911  -23.9007   16.2024 C   0  0  0  0  0  0  0  0  0  0  0  0
  -25.9285  -19.0085   13.8217 C   0  0  0  0  0  0  0  0  0  0  0  0
  -29.5648  -29.9328   24.4556 C   0  0  0  0  0  0  0  0  0  0  0  0
  -30.9644  -29.4357   24.1130 C   0  0  0  0  0  0  0  0  0  0  0  0
  -19.8204  -27.0716   23.4033 C   0  0  0  0  0  0  0  0  0  0  0  0
  -28.7843  -24.6974   18.5442 C   0  0  0  0  0  0  0  0  0  0  0  0
  -25.7753  -20.3585   13.1281 C   0  0  0  0  0  0  0  0  0  0  0  0
  -28.5851  -28.7767   24.6535 C   0  0  0  0  0  0  0  0  0  0  0  0
  -28.5213  -23.1915   18.4871 C   0  0  0  0  0  0  0  0  0  0  0  0
  -30.9541  -28.5153   22.8955 C   0  0  0  0  0  0  0  0  0  0  0  0
  -19.7955  -26.6635   21.9320 C   0  0  0  0  0  0  0  0  0  0  0  0
  -19.1727  -28.4347   23.6413 C   0  0  0  0  0  0  0  0  0  0  0  0
  -29.9792  -25.0165   19.4377 C   0  0  0  0  0  0  0  0  0  0  0  0
  -29.6092  -22.9762   20.7697 C   0  0  0  0  0  0  0  0  0  0  0  0
  -20.5711  -28.9678   21.0736 C   0  0  0  0  0  0  0  0  0  0  0  0
  -26.5969  -21.4405   13.8393 C   0  0  1  0  0  0  0  0  0  0  0  0
  -28.5677  -27.7986   23.4737 C   0  0  2  0  0  0  0  0  0  0  0  0
  -24.3741  -23.1482   16.4009 C   0  0  1  0  0  0  0  0  0  0  0  0
  -28.3991  -22.5901   19.8998 C   0  0  2  0  0  0  0  0  0  0  0  0
  -29.9837  -27.3437   23.0845 C   0  0  1  0  0  0  0  0  0  0  0  0
  -20.7242  -27.4513   21.0088 C   0  0  2  0  0  0  0  0  0  1  0  0
  -20.0977  -29.6537   23.5027 C   0  0  2  0  0  0  0  0  0  0  0  0
  -23.9925  -29.4416   23.8567 C   0  0  0  0  0  0  0  0  0  0  0  0
  -19.2769  -30.9342   23.3415 C   0  0  0  0  0  0  0  0  0  0  0  0
  -18.7299  -18.3268   19.4594 C   0  0  0  0  0  0  0  0  0  0  0  0
  -20.8128  -22.1130   14.0329 C   0  0  0  0  0  0  0  0  0  0  0  0
  -19.0617  -20.6087   15.0018 C   0  0  0  0  0  0  0  0  0  0  0  0
  -21.2759  -19.6739   14.3340 C   0  0  0  0  0  0  0  0  0  0  0  0
  -22.2869  -19.2745   20.4217 C   0  0  0  0  0  0  0  0  0  0  0  0
  -22.0028  -30.6914   22.1913 C   0  0  0  0  0  0  0  0  0  0  0  0
  -21.1146  -21.1241   16.3987 C   0  0  1  0  0  0  0  0  0  0  0  0
  -20.1652  -18.7621   19.2075 C   0  0  2  0  0  0  0  0  0  0  0  0
  -20.5766  -20.9017   14.9569 C   0  0  0  0  0  0  0  0  0  0  0  0
  -29.2610  -20.2795   19.9192 N   0  0  0  0  0  0  0  0  0  0  0  0
  -28.1893  -21.0879   19.8551 N   0  0  0  0  0  0  0  0  0  0  0  0
  -22.9481  -22.7893   16.3189 N   0  0  0  0  0  0  0  0  0  0  0  0
  -29.7916  -24.4315   20.7729 N   0  0  0  0  0  0  0  0  0  0  0  0
  -25.8271  -21.0827   19.6797 N   0  0  0  0  0  0  0  0  0  0  0  0
  -26.0430  -17.5208   18.3907 N   0  0  0  0  0  0  0  0  0  0  0  0
  -26.5308  -28.8078   22.6921 N   0  0  0  0  0  0  0  0  0  0  0  0
  -25.9208  -21.8803   15.0409 N   0  0  0  0  0  0  0  0  0  0  0  0
  -20.9288  -19.9829   17.2884 N   0  0  0  0  0  0  0  0  0  0  0  0
  -29.9716  -26.4972   21.9122 N   0  0  0  0  0  0  0  0  0  0  0  0
  -21.1136  -29.4868   22.3858 N   0  3  2  0  0  0  0  0  0  0  0  0
  -20.8593  -18.8757   20.5213 N   0  3  0  0  0  0  0  0  0  0  0  0
  -25.8599  -17.4868   20.6763 O   0  0  0  0  0  0  0  0  0  0  0  0
  -28.3558  -28.5411   21.2243 O   0  0  0  0  0  0  0  0  0  0  0  0
  -24.5128  -23.4583   14.0662 O   0  0  0  0  0  0  0  0  0  0  0  0
  -23.4020  -20.5164   16.5169 O   0  0  0  0  0  0  0  0  0  0  0  0
  -19.6817  -21.1075   18.8875 O   0  0  0  0  0  0  0  0  0  0  0  0
  -29.6207  -24.5575   23.0823 O   0  0  0  0  0  0  0  0  0  0  0  0
  -32.0068  -14.5346   20.0097 O   0  0  0  0  0  0  0  0  0  0  0  0
  -20.4556  -27.0554   19.6606 O   0  0  0  0  0  0  0  0  0  1  0  0
  -29.6238   -9.6631   21.0064 F   0  0  0  0  0  0  0  0  0  0  0  0
  -30.0529  -13.5405   18.3256 F   0  0  0  0  0  0  0  0  0  0  0  0
  -22.4733  -31.3734   19.2401 Cl  0  0  0  0  0  0  0  0  0  0  0  0
  1  2  1  0  0  0  0
  1  5  2  0  0  0  0
  2  6  2  0  0  0  0
  3  9  2  0  0  0  0
  3 17  1  0  0  0  0
  4 10  1  0  0  0  0
  4 17  2  0  0  0  0
  5 19  1  0  0  0  0
  6 21  1  0  0  0  0
  7 11  2  0  0  0  0
  7 20  1  0  0  0  0
  8 14  1  0  0  0  0
  8 25  2  0  0  0  0
  9 26  1  0  0  0  0
 10 26  2  0  0  0  0
 11 27  1  0  0  0  0
 12 13  2  0  0  0  0
 12 28  1  0  0  0  0
 13 29  1  0  0  0  0
 14 31  2  0  0  0  0
 15 22  1  0  0  0  0
 15 27  2  0  0  0  0
 16 29  2  0  0  0  0
 16 30  1  0  0  0  0
 17 32  1  0  0  0  0
 18 32  1  0  0  0  0
 18 33  2  0  0  0  0
 18 34  1  0  0  0  0
 19 21  2  0  0  0  0
 19 40  1  0  0  0  0
 20 22  2  0  0  0  0
 20 41  1  0  0  0  0
 21 57  1  0  0  0  0
 22 42  1  0  0  0  0
 23 24  2  0  0  0  0
 23 25  1  0  0  0  0
 23 64  1  0  0  0  0
 24 31  1  0  0  0  0
 24 71  1  0  0  0  0
 25 81  1  0  0  0  0
 26 93  1  0  0  0  0
 27 94  1  0  0  0  0
 28 30  2  0  0  0  0
 28 93  1  0  0  0  0
 29 95  1  0  0  0  0
 30 96  1  0  0  0  0
 31 97  1  0  0  0  0
 32 75  2  0  0  0  0
 33 76  1  0  0  0  0
 33 79  1  0  0  0  0
 34 80  1  0  0  0  0
 34 87  2  0  0  0  0
 35 58  1  0  0  0  0
 35 81  1  0  0  0  0
 35 88  2  0  0  0  0
 36 59  1  0  0  0  0
 36 82  1  0  0  0  0
 36 89  2  0  0  0  0
 37 72  1  0  0  0  0
 37 77  1  0  0  0  0
 37 90  2  0  0  0  0
 38 73  1  0  0  0  0
 38 83  1  0  0  0  0
 38 91  2  0  0  0  0
 39 78  1  0  0  0  0
 39 84  1  0  0  0  0
 39 92  2  0  0  0  0
 40 43  1  0  0  0  0
 41 59  1  0  0  0  0
 42 77  1  0  0  0  0
 43 48  1  0  0  0  0
 44 45  1  0  0  0  0
 44 49  1  0  0  0  0
 45 51  1  0  0  0  0
 46 52  1  0  0  0  0
 46 53  1  0  0  0  0
 47 50  1  0  0  0  0
 47 54  1  0  0  0  0
 48 57  1  0  0  0  0
 49 58  1  0  0  0  0
 50 60  1  0  0  0  0
 51 61  1  0  0  0  0
 52 62  1  0  0  0  0
 53 63  1  0  0  0  0
 54 78  1  0  0  0  0
 55 60  1  0  0  0  0
 55 78  1  0  0  0  0
 56 62  1  0  0  0  0
 56 85  1  0  0  0  0
 57 82  1  0  0  0  0
 58 61  1  0  0  0  0
 59 77  1  0  0  0  0
 60 76  1  0  0  0  0
 61 84  1  0  0  0  0
 62 94  1  0  0  0  0
 63 65  1  0  0  0  0
 63 85  1  0  0  0  0
 66 73  1  0  0  0  0
 67 74  1  0  0  0  0
 68 74  1  0  0  0  0
 69 74  1  0  0  0  0
 70 86  1  0  0  0  0
 71 85  1  0  0  0  0
 72 74  1  0  0  0  0
 72 83  1  0  0  0  0
 73 86  1  0  0  0  0
 75 76  1  0  0  0  0
M  CHG  2  85   1  86   1
M  ISO  4  39 100  62 101  84 100  94 101
M  END
> <Batch ID>
0037

> <Smiles>
CNC(C)C(=O)NC(C(=O)N1Cc2cc([101O:1][101CH:1]3CCCC(C)N(Cc4c(Cl)ccc(NC(=O)C5CCCCC5[100NH:0][100C:0](=O)N5CCCC(n6nc(-c7ccc(Oc8ccc(F)cc8F)cc7)c(C(N)=O)c6N)C5)c4C)C3)ccc2CC1C(=O)NC1CCCc2ccccc21)C(C)(C)C

> <Shape>
0.210

> <Color>
0.074

> <Negative vol penalty>
0.000

$$$$

  -OEChem-04042321573D

 89 98  0     1  0  0  0  0  0999 V2000
  -30.7756  -25.7241   24.4937 C   0  0  0  0  0  0  0  0  0  0  0  0
  -29.5320  -25.1568   24.2346 C   0  0  0  0  0  0  0  0  0  0  0  0
  -25.6001  -30.8487   22.8707 C   0  0  0  0  0  0  0  0  0  0  0  0
  -25.4130  -31.2913   20.5030 C   0  0  0  0  0  0  0  0  0  0  0  0
  -31.8645  -25.4157   23.6794 C   0  0  0  0  0  0  0  0  0  0  0  0
  -29.3764  -24.2815   23.1604 C   0  0  0  0  0  0  0  0  0  0  0  0
  -26.6938  -20.1638   24.3823 C   0  0  0  0  0  0  0  0  0  0  0  0
  -21.8959  -19.4681   18.4734 C   0  0  0  0  0  0  0  0  0  0  0  0
  -22.0915  -20.5252   17.5847 C   0  0  0  0  0  0  0  0  0  0  0  0
  -26.0859  -32.1404   23.0738 C   0  0  0  0  0  0  0  0  0  0  0  0
  -25.8987  -32.5830   20.7060 C   0  0  0  0  0  0  0  0  0  0  0  0
  -25.3089  -20.3055   24.4582 C   0  0  0  0  0  0  0  0  0  0  0  0
  -24.8242  -35.2692   23.3012 C   0  0  0  0  0  0  0  0  0  0  0  0
  -24.3002  -35.9985   24.3685 C   0  0  0  0  0  0  0  0  0  0  0  0
  -25.0955  -19.3386   22.2585 C   0  0  0  0  0  0  0  0  0  0  0  0
  -26.5084  -36.1728   25.3333 C   0  0  0  0  0  0  0  0  0  0  0  0
  -25.2637  -30.4242   21.5853 C   0  0  0  0  0  0  0  0  0  0  0  0
  -23.6021  -28.5199   21.9323 C   0  0  0  0  0  0  0  0  0  0  0  0
  -31.7244  -24.5287   22.6004 C   0  0  0  0  0  0  0  0  0  0  0  0
  -27.2917  -19.6176   23.2376 C   0  0  0  0  0  0  0  0  0  0  0  0
  -30.4642  -23.9619   22.3300 C   0  0  0  0  0  0  0  0  0  0  0  0
  -26.4881  -19.1887   22.1716 C   0  0  0  0  0  0  0  0  0  0  0  0
  -21.1376  -19.6591   19.6285 C   0  0  0  0  0  0  0  0  0  0  0  0
  -21.5289  -21.7735   17.8511 C   0  0  0  0  0  0  0  0  0  0  0  0
  -20.7707  -21.9646   19.0063 C   0  0  0  0  0  0  0  0  0  0  0  0
  -20.5751  -20.9074   19.8950 C   0  0  0  0  0  0  0  0  0  0  0  0
  -26.2352  -33.0075   21.9915 C   0  0  0  0  0  0  0  0  0  0  0  0
  -24.5097  -19.8956   23.3950 C   0  0  0  0  0  0  0  0  0  0  0  0
  -26.1902  -34.9916   23.2500 C   0  0  0  0  0  0  0  0  0  0  0  0
  -25.1423  -36.4503   25.3846 C   0  0  0  0  0  0  0  0  0  0  0  0
  -27.0323  -35.4434   24.2660 C   0  0  0  0  0  0  0  0  0  0  0  0
  -24.7624  -29.0898   21.3749 C   0  0  0  0  0  0  0  0  0  0  0  0
  -23.5689  -27.2437   21.4255 C   0  0  0  0  0  0  0  0  0  0  0  0
  -22.6403  -29.0928   22.8281 C   0  0  0  0  0  0  0  0  0  0  0  0
  -29.3446  -20.6794   21.0554 C   0  0  0  0  0  0  0  0  0  0  0  0
  -29.2219  -17.6104   20.0121 C   0  0  0  0  0  0  0  0  0  0  0  0
  -27.4915  -14.6736   19.8467 C   0  0  0  0  0  0  0  0  0  0  0  0
  -24.0894  -23.6879   17.1558 C   0  0  0  0  0  0  0  0  0  0  0  0
  -32.9194  -24.2624   21.7196 C   0  0  0  0  0  0  0  0  0  0  0  0
  -28.7851  -19.4468   23.1823 C   0  0  0  0  0  0  0  0  0  0  0  0
  -27.0794  -18.5773   20.9286 C   0  0  0  0  0  0  0  0  0  0  0  0
  -32.7569  -23.0345   20.8274 C   0  0  0  0  0  0  0  0  0  0  0  0
  -27.0635  -24.6219   18.8759 C   0  0  0  0  0  0  0  0  0  0  0  0
  -31.3893  -23.0426   20.1518 C   0  0  0  0  0  0  0  0  0  0  0  0
  -26.6357  -25.8238   19.7200 C   0  0  0  0  0  0  0  0  0  0  0  0
  -21.8636  -21.4578   24.9358 C   0  0  0  0  0  0  0  0  0  0  0  0
  -20.5798  -20.6376   24.8829 C   0  0  0  0  0  0  0  0  0  0  0  0
  -26.3611  -24.6059   17.5200 C   0  0  0  0  0  0  0  0  0  0  0  0
  -24.4620  -25.8877   18.4279 C   0  0  0  0  0  0  0  0  0  0  0  0
  -21.7900  -21.7040   22.4272 C   0  0  0  0  0  0  0  0  0  0  0  0
  -30.2612  -22.9887   21.1891 C   0  0  1  0  0  0  0  0  0  0  0  0
  -29.3233  -19.3514   21.7580 C   0  0  1  0  0  0  0  0  0  0  0  0
  -25.1017  -25.9166   19.8265 C   0  0  2  0  0  0  0  0  0  0  0  0
  -22.6480  -21.3543   23.6339 C   0  0  2  0  0  0  0  0  0  1  0  0
  -19.7063  -21.0021   23.6766 C   0  0  2  0  0  0  0  0  0  0  0  0
  -20.9432  -18.5103   20.5633 C   0  0  0  0  0  0  0  0  0  0  0  0
  -20.1694  -23.3045   19.2912 C   0  0  0  0  0  0  0  0  0  0  0  0
  -17.6250  -20.2664   24.8493 C   0  0  0  0  0  0  0  0  0  0  0  0
  -27.6301  -12.3565   18.8932 C   0  0  0  0  0  0  0  0  0  0  0  0
  -28.5348  -18.7087   17.2496 C   0  0  0  0  0  0  0  0  0  0  0  0
  -27.7665  -16.4146   16.6053 C   0  0  0  0  0  0  0  0  0  0  0  0
  -30.1481  -16.7978   17.2408 C   0  0  0  0  0  0  0  0  0  0  0  0
  -27.3987  -13.4370   22.5340 C   0  0  0  0  0  0  0  0  0  0  0  0
  -21.7554  -22.8893   16.8840 C   0  0  0  0  0  0  0  0  0  0  0  0
  -19.7589  -21.1097   21.1375 C   0  0  0  0  0  0  0  0  0  0  0  0
  -18.4782  -20.0947   23.6357 C   0  0  0  0  0  0  0  0  0  0  0  0
  -28.3640  -16.8481   19.0315 C   0  0  1  0  0  0  0  0  0  0  0  0
  -27.9168  -13.2383   20.0986 C   0  0  2  0  0  0  0  0  0  0  0  0
  -28.6920  -17.2056   17.5543 C   0  0  0  0  0  0  0  0  0  0  0  0
  -25.4188  -28.2450   20.5753 N   0  0  0  0  0  0  0  0  0  0  0  0
  -24.6686  -27.1312   20.6267 N   0  0  0  0  0  0  0  0  0  0  0  0
  -28.5449  -18.4373   20.9197 N   0  0  0  0  0  0  0  0  0  0  0  0
  -24.9090  -24.6950   17.6914 N   0  0  0  0  0  0  0  0  0  0  0  0
  -22.7066  -26.2181   21.5898 N   0  0  0  0  0  0  0  0  0  0  0  0
  -21.5339  -29.7588   22.2835 N   0  0  0  0  0  0  0  0  0  0  0  0
  -30.1031  -21.6418   21.6943 N   0  0  0  0  0  0  0  0  0  0  0  0
  -28.5305  -15.4354   19.3555 N   0  0  0  0  0  0  0  0  0  0  0  0
  -22.7254  -23.8458   17.3687 N   0  0  0  0  0  0  0  0  0  0  0  0
  -20.5358  -20.8458   22.4052 N   0  3  1  0  0  0  0  0  0  0  0  0
  -27.1880  -12.6806   21.2729 N   0  3  0  0  0  0  0  0  0  0  0  0
  -22.7671  -29.0305   24.0745 O   0  0  0  0  0  0  0  0  0  0  0  0
  -28.7204  -20.8201   20.0103 O   0  0  0  0  0  0  0  0  0  0  0  0
  -30.4472  -17.4717   19.9789 O   0  0  0  0  0  0  0  0  0  0  0  0
  -26.3506  -15.0776   20.0606 O   0  0  0  0  0  0  0  0  0  0  0  0
  -24.5401  -22.7169   16.5386 O   0  0  0  0  0  0  0  0  0  0  0  0
  -26.7090  -34.2681   22.1893 O   0  0  0  0  0  0  0  0  0  0  0  0
  -23.1578  -20.0333   23.4661 O   0  0  0  0  0  0  0  0  0  1  0  0
  -24.6392  -37.1520   26.4086 F   0  0  0  0  0  0  0  0  0  0  0  0
  -28.3457  -35.1809   24.2217 F   0  0  0  0  0  0  0  0  0  0  0  0
  1  2  1  0  0  0  0
  1  5  2  0  0  0  0
  2  6  2  0  0  0  0
  3 10  2  0  0  0  0
  3 17  1  0  0  0  0
  4 11  1  0  0  0  0
  4 17  2  0  0  0  0
  5 19  1  0  0  0  0
  6 21  1  0  0  0  0
  7 12  2  0  0  0  0
  7 20  1  0  0  0  0
  8  9  1  0  0  0  0
  8 23  2  0  0  0  0
  9 24  2  0  0  0  0
 10 27  1  0  0  0  0
 11 27  2  0  0  0  0
 12 28  1  0  0  0  0
 13 14  2  0  0  0  0
 13 29  1  0  0  0  0
 14 30  1  0  0  0  0
 15 22  1  0  0  0  0
 15 28  2  0  0  0  0
 16 30  2  0  0  0  0
 16 31  1  0  0  0  0
 17 32  1  0  0  0  0
 18 32  1  0  0  0  0
 18 33  2  0  0  0  0
 18 34  1  0  0  0  0
 19 21  2  0  0  0  0
 19 39  1  0  0  0  0
 20 22  2  0  0  0  0
 20 40  1  0  0  0  0
 21 51  1  0  0  0  0
 22 41  1  0  0  0  0
 23 26  1  0  0  0  0
 23 56  1  0  0  0  0
 24 25  1  0  0  0  0
 24 64  1  0  0  0  0
 25 26  2  0  0  0  0
 25 57  1  0  0  0  0
 26 65  1  0  0  0  0
 27 86  1  0  0  0  0
 28 87  1  0  0  0  0
 29 31  2  0  0  0  0
 29 86  1  0  0  0  0
 30 88  1  0  0  0  0
 31 89  1  0  0  0  0
 32 70  2  0  0  0  0
 33 71  1  0  0  0  0
 33 74  1  0  0  0  0
 34 75  1  0  0  0  0
 34 81  2  0  0  0  0
 35 52  1  0  0  0  0
 35 76  1  0  0  0  0
 35 82  2  0  0  0  0
 36 67  1  0  0  0  0
 36 72  1  0  0  0  0
 36 83  2  0  0  0  0
 37 68  1  0  0  0  0
 37 77  1  0  0  0  0
 37 84  2  0  0  0  0
 38 73  1  0  0  0  0
 38 78  1  0  0  0  0
 38 85  2  0  0  0  0
 39 42  1  0  0  0  0
 40 52  1  0  0  0  0
 41 72  1  0  0  0  0
 42 44  1  0  0  0  0
 43 45  1  0  0  0  0
 43 48  1  0  0  0  0
 44 51  1  0  0  0  0
 45 53  1  0  0  0  0
 46 47  1  0  0  0  0
 46 54  1  0  0  0  0
 47 55  1  0  0  0  0
 48 73  1  0  0  0  0
 49 53  1  0  0  0  0
 49 73  1  0  0  0  0
 50 54  1  0  0  0  0
 50 79  1  0  0  0  0
 51 76  1  0  0  0  0
 52 72  1  0  0  0  0
 53 71  1  0  0  0  0
 54 87  1  0  0  0  0
 55 66  1  0  0  0  0
 55 79  1  0  0  0  0
 58 66  1  0  0  0  0
 59 68  1  0  0  0  0
 60 69  1  0  0  0  0
 61 69  1  0  0  0  0
 62 69  1  0  0  0  0
 63 80  1  0  0  0  0
 64 78  1  0  0  0  0
 65 79  1  0  0  0  0
 67 69  1  0  0  0  0
 67 77  1  0  0  0  0
 68 80  1  0  0  0  0
 70 71  1  0  0  0  0
M  CHG  2  79   1  80   1
M  ISO  4  38 100  54 101  78 100  87 101
M  END
> <Batch ID>
0037

> <Smiles>
CCC1CC[101CH:1]([101O:1]c2ccc3c(c2)CN(C(=O)C(NC(=O)C(C)NC)C(C)(C)C)C(C(=O)NC2CCCc4ccccc42)C3)CN1Cc1c(C)ccc(C[100NH:0][100C:0](=O)N2CCCC(n3nc(-c4ccc(Oc5ccc(F)cc5F)cc4)c(C(N)=O)c3N)C2)c1C

> <Shape>
0.184

> <Color>
0.068

> <Negative vol penalty>
0.000

$$$$

  -OEChem-04042321573D

 89 98  0     1  0  0  0  0  0999 V2000
  -19.3031  -32.9141   20.9667 C   0  0  0  0  0  0  0  0  0  0  0  0
  -20.5712  -32.5524   20.5234 C   0  0  0  0  0  0  0  0  0  0  0  0
  -23.3382   -9.9524   19.7985 C   0  0  0  0  0  0  0  0  0  0  0  0
  -24.0334   -9.8497   22.1100 C   0  0  0  0  0  0  0  0  0  0  0  0
  -18.7783  -32.3353   22.1214 C   0  0  0  0  0  0  0  0  0  0  0  0
  -21.3157  -31.6126   21.2353 C   0  0  0  0  0  0  0  0  0  0  0  0
  -25.1719  -27.4541   18.9237 C   0  0  0  0  0  0  0  0  0  0  0  0
  -30.4992  -20.1509   23.7920 C   0  0  0  0  0  0  0  0  0  0  0  0
  -22.7405   -8.6982   19.9225 C   0  0  0  0  0  0  0  0  0  0  0  0
  -23.4357   -8.5955   22.2340 C   0  0  0  0  0  0  0  0  0  0  0  0
  -26.5595  -27.4334   18.7908 C   0  0  0  0  0  0  0  0  0  0  0  0
  -20.3206   -7.3528   22.6499 C   0  0  0  0  0  0  0  0  0  0  0  0
  -19.5458   -7.1153   23.7851 C   0  0  0  0  0  0  0  0  0  0  0  0
  -31.2955  -19.0320   24.0362 C   0  0  0  0  0  0  0  0  0  0  0  0
  -26.7317  -26.1835   20.8468 C   0  0  0  0  0  0  0  0  0  0  0  0
  -21.0040   -5.2892   24.3983 C   0  0  0  0  0  0  0  0  0  0  0  0
  -23.9847  -10.5281   20.8922 C   0  0  0  0  0  0  0  0  0  0  0  0
  -24.0065  -13.0768   20.9998 C   0  0  0  0  0  0  0  0  0  0  0  0
  -19.5128  -31.3807   22.8425 C   0  0  0  0  0  0  0  0  0  0  0  0
  -24.5533  -26.8480   20.0267 C   0  0  0  0  0  0  0  0  0  0  0  0
  -20.8007  -31.0215   22.4015 C   0  0  0  0  0  0  0  0  0  0  0  0
  -25.3359  -26.1956   20.9901 C   0  0  0  0  0  0  0  0  0  0  0  0
  -29.3725  -20.0406   22.9770 C   0  0  0  0  0  0  0  0  0  0  0  0
  -29.8386  -17.6927   22.6502 C   0  0  0  0  0  0  0  0  0  0  0  0
  -22.7892   -8.0198   21.1403 C   0  0  0  0  0  0  0  0  0  0  0  0
  -27.3399  -26.8005   19.7540 C   0  0  0  0  0  0  0  0  0  0  0  0
  -21.4371   -6.5585   22.3888 C   0  0  0  0  0  0  0  0  0  0  0  0
  -19.8874   -6.0836   24.6594 C   0  0  0  0  0  0  0  0  0  0  0  0
  -21.7788   -5.5267   23.2630 C   0  0  0  0  0  0  0  0  0  0  0  0
  -30.9653  -17.8029   23.4653 C   0  0  0  0  0  0  0  0  0  0  0  0
  -29.0423  -18.8116   22.4061 C   0  0  0  0  0  0  0  0  0  0  0  0
  -24.6028  -11.8234   20.7646 C   0  0  0  0  0  0  0  0  0  0  0  0
  -25.0036  -13.9853   20.7411 C   0  0  0  0  0  0  0  0  0  0  0  0
  -31.6813  -24.8953   19.5827 C   0  0  0  0  0  0  0  0  0  0  0  0
  -30.8541  -25.8635   19.9995 C   0  0  0  0  0  0  0  0  0  0  0  0
  -22.6708  -13.3916   21.4150 C   0  0  0  0  0  0  0  0  0  0  0  0
  -29.7557  -22.7442   21.1492 C   0  0  0  0  0  0  0  0  0  0  0  0
  -22.7388  -27.8757   22.4257 C   0  0  0  0  0  0  0  0  0  0  0  0
  -22.5075  -24.7096   23.0926 C   0  0  0  0  0  0  0  0  0  0  0  0
  -23.8527  -21.5852   22.8181 C   0  0  0  0  0  0  0  0  0  0  0  0
  -30.2870  -15.6815   21.2009 C   0  0  0  0  0  0  0  0  0  0  0  0
  -18.9228  -30.8176   24.1112 C   0  0  0  0  0  0  0  0  0  0  0  0
  -23.0536  -26.8560   20.1416 C   0  0  0  0  0  0  0  0  0  0  0  0
  -24.7194  -25.5125   22.1825 C   0  0  0  0  0  0  0  0  0  0  0  0
  -31.2323  -23.4962   19.2735 C   0  0  0  0  0  0  0  0  0  0  0  0
  -19.6238  -29.5526   24.5997 C   0  0  0  0  0  0  0  0  0  0  0  0
  -29.5473  -13.3682   18.5973 C   0  0  0  0  0  0  0  0  0  0  0  0
  -21.1380  -29.7333   24.5632 C   0  0  0  0  0  0  0  0  0  0  0  0
  -28.1459  -12.8632   18.9484 C   0  0  0  0  0  0  0  0  0  0  0  0
  -28.8643  -24.3795   19.5060 C   0  0  0  0  0  0  0  0  0  0  0  0
  -30.3956  -13.6011   19.8462 C   0  0  0  0  0  0  0  0  0  0  0  0
  -28.3782  -13.9576   21.2145 C   0  0  0  0  0  0  0  0  0  0  0  0
  -21.6289  -29.9873   23.1328 C   0  0  1  0  0  0  0  0  0  0  0  0
  -29.3805  -25.6585   20.1789 C   0  0  2  0  0  0  0  0  0  1  0  0
  -29.7956  -23.1851   19.7136 C   0  0  2  0  0  0  0  0  0  0  0  0
  -22.5628  -26.6521   21.5716 C   0  0  1  0  0  0  0  0  0  0  0  0
  -27.4650  -13.7704   19.9920 C   0  0  2  0  0  0  0  0  0  0  0  0
  -23.4552  -19.2026   23.4984 C   0  0  0  0  0  0  0  0  0  0  0  0
  -23.4355  -25.3659   25.9242 C   0  0  0  0  0  0  0  0  0  0  0  0
  -23.9278  -22.9331   26.2519 C   0  0  0  0  0  0  0  0  0  0  0  0
  -21.5923  -23.6806   25.7947 C   0  0  0  0  0  0  0  0  0  0  0  0
  -23.6828  -20.6879   20.0030 C   0  0  0  0  0  0  0  0  0  0  0  0
  -28.5448  -21.2717   22.7454 C   0  0  0  0  0  0  0  0  0  0  0  0
  -23.2979  -23.7327   23.9292 C   0  0  1  0  0  0  0  0  0  0  0  0
  -23.2377  -20.2549   22.4223 C   0  0  2  0  0  0  0  0  0  0  0  0
  -23.0754  -23.9426   25.4537 C   0  0  0  0  0  0  0  0  0  0  0  0
  -25.8797  -11.9229   20.3855 N   0  0  0  0  0  0  0  0  0  0  0  0
  -26.0939  -13.2496   20.3804 N   0  0  0  0  0  0  0  0  0  0  0  0
  -23.2494  -25.5531   22.2535 N   0  0  0  0  0  0  0  0  0  0  0  0
  -29.6887  -14.4725   20.7874 N   0  0  0  0  0  0  0  0  0  0  0  0
  -25.0453  -15.3338   20.7893 N   0  0  0  0  0  0  0  0  0  0  0  0
  -21.7742  -12.3375   21.6371 N   0  0  0  0  0  0  0  0  0  0  0  0
  -29.5073  -16.4426   22.0711 N   0  0  0  0  0  0  0  0  0  0  0  0
  -21.6688  -28.7491   22.3847 N   0  0  0  0  0  0  0  0  0  0  0  0
  -28.7597  -21.8282   21.4289 N   0  0  0  0  0  0  0  0  0  0  0  0
  -22.9395  -22.4020   23.4506 N   0  0  0  0  0  0  0  0  0  0  0  0
  -23.8433  -19.7615   21.1532 N   0  3  0  0  0  0  0  0  0  0  0  0
  -22.2791  -14.5734   21.5683 O   0  0  0  0  0  0  0  0  0  0  0  0
  -30.5693  -23.2001   21.9441 O   0  0  0  0  0  0  0  0  0  0  0  0
  -23.7686  -28.0163   23.0750 O   0  0  0  0  0  0  0  0  0  0  0  0
  -21.2768  -24.7189   23.1750 O   0  0  0  0  0  0  0  0  0  0  0  0
  -25.0268  -21.8697   22.5923 O   0  0  0  0  0  0  0  0  0  0  0  0
  -31.3969  -16.0300   20.7903 O   0  0  0  0  0  0  0  0  0  0  0  0
  -22.2058   -6.7961   21.2617 O   0  0  0  0  0  0  0  0  0  0  0  0
  -28.6946  -26.7794   19.6270 O   0  0  0  0  0  0  0  0  0  1  0  0
  -19.1442   -5.8566   25.7503 F   0  0  0  0  0  0  0  0  0  0  0  0
  -22.8510   -4.7610   23.0181 F   0  0  0  0  0  0  0  0  0  0  0  0
  -31.9859  -16.4473   23.7953 Cl  0  0  0  0  0  0  0  0  0  0  0  0
  -27.6379  -18.6871   21.3957 Cl  0  0  0  0  0  0  0  0  0  0  0  0
  1  2  1  0  0  0  0
  1  5  2  0  0  0  0
  2  6  2  0  0  0  0
  3  9  2  0  0  0  0
  3 17  1  0  0  0  0
  4 10  1  0  0  0  0
  4 17  2  0  0  0  0
  5 19  1  0  0  0  0
  6 21  1  0  0  0  0
  7 11  2  0  0  0  0
  7 20  1  0  0  0  0
  8 14  2  0  0  0  0
  8 23  1  0  0  0  0
  9 25  1  0  0  0  0
 10 25  2  0  0  0  0
 11 26  1  0  0  0  0
 12 13  2  0  0  0  0
 12 27  1  0  0  0  0
 13 28  1  0  0  0  0
 14 30  1  0  0  0  0
 15 22  1  0  0  0  0
 15 26  2  0  0  0  0
 16 28  2  0  0  0  0
 16 29  1  0  0  0  0
 17 32  1  0  0  0  0
 18 32  1  0  0  0  0
 18 33  2  0  0  0  0
 18 36  1  0  0  0  0
 19 21  2  0  0  0  0
 19 42  1  0  0  0  0
 20 22  2  0  0  0  0
 20 43  1  0  0  0  0
 21 53  1  0  0  0  0
 22 44  1  0  0  0  0
 23 31  2  0  0  0  0
 23 63  1  0  0  0  0
 24 30  2  0  0  0  0
 24 31  1  0  0  0  0
 24 73  1  0  0  0  0
 25 84  1  0  0  0  0
 26 85  1  0  0  0  0
 27 29  2  0  0  0  0
 27 84  1  0  0  0  0
 28 86  1  0  0  0  0
 29 87  1  0  0  0  0
 30 88  1  0  0  0  0
 31 89  1  0  0  0  0
 32 67  2  0  0  0  0
 33 68  1  0  0  0  0
 33 71  1  0  0  0  0
 34 35  2  0  0  0  0
 34 45  1  0  0  0  0
 35 54  1  0  0  0  0
 36 72  1  0  0  0  0
 36 78  2  0  0  0  0
 37 55  1  0  0  0  0
 37 75  1  0  0  0  0
 37 79  2  0  0  0  0
 38 56  1  0  0  0  0
 38 74  1  0  0  0  0
 38 80  2  0  0  0  0
 39 64  1  0  0  0  0
 39 69  1  0  0  0  0
 39 81  2  0  0  0  0
 40 65  1  0  0  0  0
 40 76  1  0  0  0  0
 40 82  2  0  0  0  0
 41 70  1  0  0  0  0
 41 73  1  0  0  0  0
 41 83  2  0  0  0  0
 42 46  1  0  0  0  0
 43 56  1  0  0  0  0
 44 69  1  0  0  0  0
 45 55  1  0  0  0  0
 46 48  1  0  0  0  0
 47 49  1  0  0  0  0
 47 51  1  0  0  0  0
 48 53  1  0  0  0  0
 49 57  1  0  0  0  0
 50 54  1  0  0  0  0
 50 55  1  0  0  0  0
 51 70  1  0  0  0  0
 52 57  1  0  0  0  0
 52 70  1  0  0  0  0
 53 74  1  0  0  0  0
 54 85  1  0  0  0  0
 56 69  1  0  0  0  0
 57 68  1  0  0  0  0
 58 65  1  0  0  0  0
 59 66  1  0  0  0  0
 60 66  1  0  0  0  0
 61 66  1  0  0  0  0
 62 77  1  0  0  0  0
 63 75  1  0  0  0  0
 64 66  1  0  0  0  0
 64 76  1  0  0  0  0
 65 77  1  0  0  0  0
 67 68  1  0  0  0  0
M  CHG  1  77   1
M  ISO  4  41 100  54 101  73 100  85 101
M  END
> <Batch ID>
0037

> <Smiles>
CNC(C)C(=O)NC(C(=O)N1Cc2cc([101O:1][101CH:1]3C=CCC(C(=O)NCc4ccc(Cl)c([100NH:0][100C:0](=O)N5CCCC(n6nc(-c7ccc(Oc8ccc(F)cc8F)cc7)c(C(N)=O)c6N)C5)c4Cl)C3)ccc2CC1C(=O)NC1CCCc2ccccc21)C(C)(C)C

> <Shape>
0.292

> <Color>
0.179

> <Negative vol penalty>
0.000

$$$$

  -OEChem-04042321573D

 90 99  0     1  0  0  0  0  0999 V2000
  -31.0274  -21.4477   19.8423 C   0  0  0  0  0  0  0  0  0  0  0  0
  -29.6580  -21.6211   19.6686 C   0  0  0  0  0  0  0  0  0  0  0  0
  -27.4088  -12.9701   18.6758 C   0  0  0  0  0  0  0  0  0  0  0  0
  -28.2423  -13.6257   20.8466 C   0  0  0  0  0  0  0  0  0  0  0  0
  -31.7111  -22.2109   20.7879 C   0  0  0  0  0  0  0  0  0  0  0  0
  -28.9713  -22.5570   20.4411 C   0  0  0  0  0  0  0  0  0  0  0  0
  -24.2101  -25.9901   18.6945 C   0  0  0  0  0  0  0  0  0  0  0  0
  -28.6147  -12.3222   18.4084 C   0  0  0  0  0  0  0  0  0  0  0  0
  -29.4483  -12.9778   20.5793 C   0  0  0  0  0  0  0  0  0  0  0  0
  -22.8354  -25.8514   18.8806 C   0  0  0  0  0  0  0  0  0  0  0  0
  -30.1038   -9.3967   19.2188 C   0  0  0  0  0  0  0  0  0  0  0  0
  -30.0438   -8.1216   18.6567 C   0  0  0  0  0  0  0  0  0  0  0  0
  -22.9533  -27.3127   20.7962 C   0  0  0  0  0  0  0  0  0  0  0  0
  -20.9006  -23.5512   24.8735 C   0  0  0  0  0  0  0  0  0  0  0  0
  -22.6624  -25.2036   24.9203 C   0  0  0  0  0  0  0  0  0  0  0  0
  -31.2803   -8.9099   16.7366 C   0  0  0  0  0  0  0  0  0  0  0  0
  -27.2226  -13.6219   19.8949 C   0  0  0  0  0  0  0  0  0  0  0  0
  -24.6934  -13.7161   20.2142 C   0  0  0  0  0  0  0  0  0  0  0  0
  -31.0341  -23.1635   21.5656 C   0  0  0  0  0  0  0  0  0  0  0  0
  -24.9698  -26.7838   19.5659 C   0  0  0  0  0  0  0  0  0  0  0  0
  -29.6464  -23.3328   21.3989 C   0  0  0  0  0  0  0  0  0  0  0  0
  -24.3371  -27.4619   20.6176 C   0  0  0  0  0  0  0  0  0  0  0  0
  -21.3043  -24.8859   24.9064 C   0  0  0  0  0  0  0  0  0  0  0  0
  -23.2132  -22.8518   24.8683 C   0  0  0  0  0  0  0  0  0  0  0  0
  -29.6344  -12.3260   19.3601 C   0  0  0  0  0  0  0  0  0  0  0  0
  -22.2072  -26.5105   19.9333 C   0  0  0  0  0  0  0  0  0  0  0  0
  -30.7519  -10.4285   18.5398 C   0  0  0  0  0  0  0  0  0  0  0  0
  -30.6321   -7.8781   17.4156 C   0  0  0  0  0  0  0  0  0  0  0  0
  -31.3402  -10.1851   17.2987 C   0  0  0  0  0  0  0  0  0  0  0  0
  -21.8550  -22.5341   24.8545 C   0  0  0  0  0  0  0  0  0  0  0  0
  -23.6169  -24.1866   24.9012 C   0  0  0  0  0  0  0  0  0  0  0  0
  -25.9773  -14.2919   20.1715 C   0  0  0  0  0  0  0  0  0  0  0  0
  -23.8571  -14.7635   20.5145 C   0  0  0  0  0  0  0  0  0  0  0  0
  -19.4035  -27.9660   23.8651 C   0  0  0  0  0  0  0  0  0  0  0  0
  -19.7506  -29.0399   24.5956 C   0  0  0  0  0  0  0  0  0  0  0  0
  -24.2925  -12.3560   20.0016 C   0  0  0  0  0  0  0  0  0  0  0  0
  -27.3749  -26.2420   21.5723 C   0  0  0  0  0  0  0  0  0  0  0  0
  -27.3399  -29.4718   21.8714 C   0  0  0  0  0  0  0  0  0  0  0  0
  -25.5808  -32.3855   21.6220 C   0  0  0  0  0  0  0  0  0  0  0  0
  -24.7900  -19.8495   23.3635 C   0  0  0  0  0  0  0  0  0  0  0  0
  -31.8074  -23.9315   22.6082 C   0  0  0  0  0  0  0  0  0  0  0  0
  -26.4475  -26.9445   19.3357 C   0  0  0  0  0  0  0  0  0  0  0  0
  -25.1043  -28.3421   21.5689 C   0  0  0  0  0  0  0  0  0  0  0  0
  -18.0568  -27.8705   23.2019 C   0  0  0  0  0  0  0  0  0  0  0  0
  -31.0732  -25.1665   23.1240 C   0  0  0  0  0  0  0  0  0  0  0  0
  -18.1071  -28.3687   21.7588 C   0  0  0  0  0  0  0  0  0  0  0  0
  -23.4677  -19.5072   20.0122 C   0  0  0  0  0  0  0  0  0  0  0  0
  -29.6224  -24.8274   23.4510 C   0  0  0  0  0  0  0  0  0  0  0  0
  -23.8461  -18.0623   19.6820 C   0  0  0  0  0  0  0  0  0  0  0  0
  -18.8611  -27.4536   20.7981 C   0  0  0  0  0  0  0  0  0  0  0  0
  -24.5595  -20.1917   20.8293 C   0  0  0  0  0  0  0  0  0  0  0  0
  -25.3066  -18.0343   21.7571 C   0  0  0  0  0  0  0  0  0  0  0  0
  -20.3221  -26.1600   22.4400 C   0  0  0  0  0  0  0  0  0  0  0  0
  -28.8708  -24.3555   22.2005 C   0  0  1  0  0  0  0  0  0  0  0  0
  -27.2053  -27.3668   20.5906 C   0  0  1  0  0  0  0  0  0  0  0  0
  -24.2331  -17.2804   20.9513 C   0  0  2  0  0  0  0  0  0  0  0  0
  -20.2852  -27.0824   21.2203 C   0  0  1  0  0  0  0  0  0  1  0  0
  -21.0665  -29.1897   25.2738 C   0  0  0  0  0  0  0  0  0  0  0  0
  -25.8092  -34.8604   21.9691 C   0  0  0  0  0  0  0  0  0  0  0  0
  -27.1362  -29.0649   24.8885 C   0  0  0  0  0  0  0  0  0  0  0  0
  -26.4206  -31.4555   25.0923 C   0  0  0  0  0  0  0  0  0  0  0  0
  -28.6782  -30.9041   24.1856 C   0  0  0  0  0  0  0  0  0  0  0  0
  -25.0234  -32.9540   18.7715 C   0  0  0  0  0  0  0  0  0  0  0  0
  -24.2384  -21.7594   24.8485 C   0  0  0  0  0  0  0  0  0  0  0  0
  -20.2777  -25.9798   24.9276 C   0  0  0  0  0  0  0  0  0  0  0  0
  -26.6310  -30.4544   22.7719 C   0  0  1  0  0  0  0  0  0  0  0  0
  -25.9214  -33.7156   20.9743 C   0  0  2  0  0  0  0  0  0  0  0  0
  -27.2020  -30.4517   24.2180 C   0  0  0  0  0  0  0  0  0  0  0  0
  -25.9629  -15.6034   20.4242 N   0  0  0  0  0  0  0  0  0  0  0  0
  -24.6597  -15.8603   20.6286 N   0  0  0  0  0  0  0  0  0  0  0  0
  -26.5479  -28.4623   21.3060 N   0  0  0  0  0  0  0  0  0  0  0  0
  -24.8677  -19.4064   22.0328 N   0  0  0  0  0  0  0  0  0  0  0  0
  -22.5210  -14.8440   20.6893 N   0  0  0  0  0  0  0  0  0  0  0  0
  -24.2489  -11.4921   21.1044 N   0  0  0  0  0  0  0  0  0  0  0  0
  -28.5132  -25.4851   21.3695 N   0  0  0  0  0  0  0  0  0  0  0  0
  -26.7053  -31.7485   22.1025 N   0  0  0  0  0  0  0  0  0  0  0  0
  -24.3728  -21.1634   23.5379 N   0  0  0  0  0  0  0  0  0  0  0  0
  -20.3844  -26.9138   23.7468 N   0  3  2  0  0  0  0  0  0  0  0  0
  -24.9984  -33.9892   19.8367 N   0  3  0  0  0  0  0  0  0  0  0  0
  -23.9980  -11.9155   18.8646 O   0  0  0  0  0  0  0  0  0  0  0  0
  -26.5361  -26.0741   22.4497 O   0  0  0  0  0  0  0  0  0  0  0  0
  -28.5504  -29.5995   21.6712 O   0  0  0  0  0  0  0  0  0  0  0  0
  -24.4315  -31.9565   21.6976 O   0  0  0  0  0  0  0  0  0  0  0  0
  -25.0670  -19.1258   24.3262 O   0  0  0  0  0  0  0  0  0  0  0  0
  -30.8112  -11.6937   19.0996 O   0  0  0  0  0  0  0  0  0  0  0  0
  -20.8656  -26.3763   20.1175 O   0  0  0  0  0  0  0  0  0  1  0  0
  -30.5757   -6.6532   16.8766 F   0  0  0  0  0  0  0  0  0  0  0  0
  -31.9653  -11.1720   16.6422 F   0  0  0  0  0  0  0  0  0  0  0  0
  -21.3114  -20.8954   24.8143 Cl  0  0  0  0  0  0  0  0  0  0  0  0
  -25.2873  -24.6245   24.9202 Cl  0  0  0  0  0  0  0  0  0  0  0  0
  1  2  1  0  0  0  0
  1  5  2  0  0  0  0
  2  6  2  0  0  0  0
  3  8  2  0  0  0  0
  3 17  1  0  0  0  0
  4  9  1  0  0  0  0
  4 17  2  0  0  0  0
  5 19  1  0  0  0  0
  6 21  1  0  0  0  0
  7 10  2  0  0  0  0
  7 20  1  0  0  0  0
  8 25  1  0  0  0  0
  9 25  2  0  0  0  0
 10 26  1  0  0  0  0
 11 12  2  0  0  0  0
 11 27  1  0  0  0  0
 12 28  1  0  0  0  0
 13 22  1  0  0  0  0
 13 26  2  0  0  0  0
 14 23  1  0  0  0  0
 14 30  2  0  0  0  0
 15 23  2  0  0  0  0
 15 31  1  0  0  0  0
 16 28  2  0  0  0  0
 16 29  1  0  0  0  0
 17 32  1  0  0  0  0
 18 32  1  0  0  0  0
 18 33  2  0  0  0  0
 18 36  1  0  0  0  0
 19 21  2  0  0  0  0
 19 41  1  0  0  0  0
 20 22  2  0  0  0  0
 20 42  1  0  0  0  0
 21 54  1  0  0  0  0
 22 43  1  0  0  0  0
 23 65  1  0  0  0  0
 24 30  1  0  0  0  0
 24 31  2  0  0  0  0
 24 64  1  0  0  0  0
 25 85  1  0  0  0  0
 26 86  1  0  0  0  0
 27 29  2  0  0  0  0
 27 85  1  0  0  0  0
 28 87  1  0  0  0  0
 29 88  1  0  0  0  0
 30 89  1  0  0  0  0
 31 90  1  0  0  0  0
 32 69  2  0  0  0  0
 33 70  1  0  0  0  0
 33 73  1  0  0  0  0
 34 35  2  0  0  0  0
 34 44  1  0  0  0  0
 34 78  1  0  0  0  0
 35 58  1  0  0  0  0
 36 74  1  0  0  0  0
 36 80  2  0  0  0  0
 37 55  1  0  0  0  0
 37 75  1  0  0  0  0
 37 81  2  0  0  0  0
 38 66  1  0  0  0  0
 38 71  1  0  0  0  0
 38 82  2  0  0  0  0
 39 67  1  0  0  0  0
 39 76  1  0  0  0  0
 39 83  2  0  0  0  0
 40 72  1  0  0  0  0
 40 77  1  0  0  0  0
 40 84  2  0  0  0  0
 41 45  1  0  0  0  0
 42 55  1  0  0  0  0
 43 71  1  0  0  0  0
 44 46  1  0  0  0  0
 45 48  1  0  0  0  0
 46 50  1  0  0  0  0
 47 49  1  0  0  0  0
 47 51  1  0  0  0  0
 48 54  1  0  0  0  0
 49 56  1  0  0  0  0
 50 57  1  0  0  0  0
 51 72  1  0  0  0  0
 52 56  1  0  0  0  0
 52 72  1  0  0  0  0
 53 57  1  0  0  0  0
 53 78  1  0  0  0  0
 54 75  1  0  0  0  0
 55 71  1  0  0  0  0
 56 70  1  0  0  0  0
 57 86  1  0  0  0  0
 59 67  1  0  0  0  0
 60 68  1  0  0  0  0
 61 68  1  0  0  0  0
 62 68  1  0  0  0  0
 63 79  1  0  0  0  0
 64 77  1  0  0  0  0
 65 78  1  0  0  0  0
 66 68  1  0  0  0  0
 66 76  1  0  0  0  0
 67 79  1  0  0  0  0
 69 70  1  0  0  0  0
M  CHG  2  78   1  79   1
M  ISO  4  40 100  57 101  77 100  86 101
M  END
> <Batch ID>
0037

> <Smiles>
CC=C1CCC[101CH:1]([101O:1]c2ccc3c(c2)CN(C(=O)C(NC(=O)C(C)NC)C(C)(C)C)C(C(=O)NC2CCCc4ccccc42)C3)CN1Cc1cc(Cl)c(C[100NH:0][100C:0](=O)N2CCCC(n3nc(-c4ccc(Oc5ccc(F)cc5F)cc4)c(C(N)=O)c3N)C2)c(Cl)c1

> <Shape>
0.241

> <Color>
0.069

> <Negative vol penalty>
0.000

$$$$

  -OEChem-04042321573D

 88 97  0     1  0  0  0  0  0999 V2000
  -31.3410  -24.7628   17.0484 C   0  0  0  0  0  0  0  0  0  0  0  0
  -30.2599  -24.4415   17.8628 C   0  0  0  0  0  0  0  0  0  0  0  0
  -22.6658   -9.8803   19.7286 C   0  0  0  0  0  0  0  0  0  0  0  0
  -24.5207   -8.4078   20.2062 C   0  0  0  0  0  0  0  0  0  0  0  0
  -32.1007  -25.9007   17.3168 C   0  0  0  0  0  0  0  0  0  0  0  0
  -29.9385  -25.2574   18.9470 C   0  0  0  0  0  0  0  0  0  0  0  0
  -26.0341  -17.7587   20.3900 C   0  0  0  0  0  0  0  0  0  0  0  0
  -24.9689  -26.1698   19.2859 C   0  0  0  0  0  0  0  0  0  0  0  0
  -24.9587  -18.4382   19.8171 C   0  0  0  0  0  0  0  0  0  0  0  0
  -21.7911   -8.9718   20.3245 C   0  0  0  0  0  0  0  0  0  0  0  0
  -23.6460   -7.4993   20.8022 C   0  0  0  0  0  0  0  0  0  0  0  0
  -24.1708  -25.1588   19.8194 C   0  0  0  0  0  0  0  0  0  0  0  0
  -22.0380   -7.1629   23.7554 C   0  0  0  0  0  0  0  0  0  0  0  0
  -22.4181   -6.6048   24.9759 C   0  0  0  0  0  0  0  0  0  0  0  0
  -24.1503  -26.3037   21.9426 C   0  0  0  0  0  0  0  0  0  0  0  0
  -22.3316   -4.3989   23.9941 C   0  0  0  0  0  0  0  0  0  0  0  0
  -24.0306   -9.5983   19.6694 C   0  0  0  0  0  0  0  0  0  0  0  0
  -24.9093  -10.9920   17.7218 C   0  0  0  0  0  0  0  0  0  0  0  0
  -31.7826  -26.7362   18.3991 C   0  0  0  0  0  0  0  0  0  0  0  0
  -25.3734  -27.2517   20.0811 C   0  0  0  0  0  0  0  0  0  0  0  0
  -30.6955  -26.4068   19.2310 C   0  0  0  0  0  0  0  0  0  0  0  0
  -26.2841  -17.8328   21.7721 C   0  0  0  0  0  0  0  0  0  0  0  0
  -24.9514  -27.3284   21.4161 C   0  0  0  0  0  0  0  0  0  0  0  0
  -25.4531  -18.6464   22.5682 C   0  0  0  0  0  0  0  0  0  0  0  0
  -24.1224  -19.2122   20.6137 C   0  0  0  0  0  0  0  0  0  0  0  0
  -24.3678  -19.3161   21.9813 C   0  0  0  0  0  0  0  0  0  0  0  0
  -22.2812   -7.7813   20.8613 C   0  0  0  0  0  0  0  0  0  0  0  0
  -23.7638  -25.2241   21.1487 C   0  0  0  0  0  0  0  0  0  0  0  0
  -21.8046   -6.3390   22.6543 C   0  0  0  0  0  0  0  0  0  0  0  0
  -22.5650   -5.2228   25.0953 C   0  0  0  0  0  0  0  0  0  0  0  0
  -21.9515   -4.9570   22.7736 C   0  0  0  0  0  0  0  0  0  0  0  0
  -24.9346  -10.5362   19.0535 C   0  0  0  0  0  0  0  0  0  0  0  0
  -25.9679  -11.8631   17.6369 C   0  0  0  0  0  0  0  0  0  0  0  0
  -24.0094  -10.6580   16.6568 C   0  0  0  0  0  0  0  0  0  0  0  0
  -28.1737  -28.3880   21.0663 C   0  0  0  0  0  0  0  0  0  0  0  0
  -26.3430  -30.7938   22.2423 C   0  0  0  0  0  0  0  0  0  0  0  0
  -23.2824  -31.8385   23.3321 C   0  0  0  0  0  0  0  0  0  0  0  0
  -28.8689  -15.1634   21.7042 C   0  0  0  0  0  0  0  0  0  0  0  0
  -32.6617  -27.9295   18.6778 C   0  0  0  0  0  0  0  0  0  0  0  0
  -26.2121  -28.3478   19.4831 C   0  0  0  0  0  0  0  0  0  0  0  0
  -25.3416  -28.4790   22.3062 C   0  0  0  0  0  0  0  0  0  0  0  0
  -32.0271  -28.9460   19.6235 C   0  0  0  0  0  0  0  0  0  0  0  0
  -30.2763  -12.7164   19.5344 C   0  0  0  0  0  0  0  0  0  0  0  0
  -31.4149  -28.2425   20.8306 C   0  0  0  0  0  0  0  0  0  0  0  0
  -27.4619  -17.0550   23.8974 C   0  0  0  0  0  0  0  0  0  0  0  0
  -29.0646  -11.9213   19.0450 C   0  0  0  0  0  0  0  0  0  0  0  0
  -27.0871  -18.4117   24.4767 C   0  0  0  0  0  0  0  0  0  0  0  0
  -30.1180  -13.1466   20.9911 C   0  0  0  0  0  0  0  0  0  0  0  0
  -27.6618  -13.0849   20.7991 C   0  0  0  0  0  0  0  0  0  0  0  0
  -30.3003  -27.2805   20.4018 C   0  0  1  0  0  0  0  0  0  0  0  0
  -27.4809  -17.1117   22.3653 C   0  0  1  0  0  0  0  0  0  0  0  0
  -26.9908  -29.1417   20.5276 C   0  0  1  0  0  0  0  0  0  0  0  0
  -27.7503  -12.6770   19.3185 C   0  0  2  0  0  0  0  0  0  0  0  0
  -25.6715  -18.7871   24.0539 C   0  0  0  0  0  0  0  0  0  0  0  0
  -22.9751  -19.9241   19.9748 C   0  0  0  0  0  0  0  0  0  0  0  0
  -22.1044  -33.8476   24.2666 C   0  0  0  0  0  0  0  0  0  0  0  0
  -27.6555  -30.2999   24.9522 C   0  0  0  0  0  0  0  0  0  0  0  0
  -25.8142  -31.6278   26.0078 C   0  0  0  0  0  0  0  0  0  0  0  0
  -27.3480  -32.7116   24.3661 C   0  0  0  0  0  0  0  0  0  0  0  0
  -21.4115  -31.9514   21.0417 C   0  0  0  0  0  0  0  0  0  0  0  0
  -23.4609  -20.1839   22.8035 C   0  0  0  0  0  0  0  0  0  0  0  0
  -22.7709  -22.5229   23.3437 C   0  0  0  0  0  0  0  0  0  0  0  0
  -23.1272  -23.9700   23.0666 C   0  0  0  0  0  0  0  0  0  1  0  0
  -25.6258  -31.0527   23.5452 C   0  0  1  0  0  0  0  0  0  0  0  0
  -22.4658  -33.0762   23.0068 C   0  0  2  0  0  0  0  0  0  0  0  0
  -26.6049  -31.4002   24.7018 C   0  0  0  0  0  0  0  0  0  0  0  0
  -25.9304  -11.0731   19.7635 N   0  0  0  0  0  0  0  0  0  0  0  0
  -26.5408  -11.8753   18.8746 N   0  0  0  0  0  0  0  0  0  0  0  0
  -26.1677  -29.5228   21.6771 N   0  0  0  0  0  0  0  0  0  0  0  0
  -28.8526  -13.8592   21.1829 N   0  0  0  0  0  0  0  0  0  0  0  0
  -26.4553  -12.6120   16.6250 N   0  0  0  0  0  0  0  0  0  0  0  0
  -24.3278   -9.5732   15.8285 N   0  0  0  0  0  0  0  0  0  0  0  0
  -29.0887  -28.0126   20.1013 N   0  0  0  0  0  0  0  0  0  0  0  0
  -24.6368  -32.0888   23.2678 N   0  0  0  0  0  0  0  0  0  0  0  0
  -27.6267  -15.7693   21.8481 N   0  0  0  0  0  0  0  0  0  0  0  0
  -21.2044  -32.6962   22.3102 N   0  3  0  0  0  0  0  0  0  0  0  0
  -23.6934  -21.6378   22.5888 N   0  3  0  0  0  0  0  0  0  0  0  0
  -22.9624  -11.3126   16.4358 O   0  0  0  0  0  0  0  0  0  0  0  0
  -28.2513  -28.1649   22.2688 O   0  0  0  0  0  0  0  0  0  0  0  0
  -27.0278  -31.6889   21.7407 O   0  0  0  0  0  0  0  0  0  0  0  0
  -22.7699  -30.7588   23.6185 O   0  0  0  0  0  0  0  0  0  0  0  0
  -29.9134  -15.7468   22.0133 O   0  0  0  0  0  0  0  0  0  0  0  0
  -21.4280   -6.8946   21.4430 O   0  0  0  0  0  0  0  0  0  0  0  0
  -22.9853  -24.2383   21.6722 O   0  0  0  0  0  0  0  0  0  1  0  0
  -22.9315   -4.6872   26.2670 F   0  0  0  0  0  0  0  0  0  0  0  0
  -21.7298   -4.1605   21.7190 F   0  0  0  0  0  0  0  0  0  0  0  0
  -25.4420  -20.0581   24.4984 F   0  0  0  0  0  0  0  0  0  0  0  0
  -24.8040  -17.9983   24.7547 F   0  0  0  0  0  0  0  0  0  0  0  0
  1  2  1  0  0  0  0
  1  5  2  0  0  0  0
  2  6  2  0  0  0  0
  3 10  2  0  0  0  0
  3 17  1  0  0  0  0
  4 11  1  0  0  0  0
  4 17  2  0  0  0  0
  5 19  1  0  0  0  0
  6 21  1  0  0  0  0
  7  9  1  0  0  0  0
  7 22  2  0  0  0  0
  8 12  2  0  0  0  0
  8 20  1  0  0  0  0
  9 25  2  0  0  0  0
 10 27  1  0  0  0  0
 11 27  2  0  0  0  0
 12 28  1  0  0  0  0
 13 14  2  0  0  0  0
 13 29  1  0  0  0  0
 14 30  1  0  0  0  0
 15 23  1  0  0  0  0
 15 28  2  0  0  0  0
 16 30  2  0  0  0  0
 16 31  1  0  0  0  0
 17 32  1  0  0  0  0
 18 32  1  0  0  0  0
 18 33  2  0  0  0  0
 18 34  1  0  0  0  0
 19 21  2  0  0  0  0
 19 39  1  0  0  0  0
 20 23  2  0  0  0  0
 20 40  1  0  0  0  0
 21 50  1  0  0  0  0
 22 24  1  0  0  0  0
 22 51  1  0  0  0  0
 23 41  1  0  0  0  0
 24 26  2  0  0  0  0
 24 54  1  0  0  0  0
 25 26  1  0  0  0  0
 25 55  1  0  0  0  0
 26 61  1  0  0  0  0
 27 83  1  0  0  0  0
 28 84  1  0  0  0  0
 29 31  2  0  0  0  0
 29 83  1  0  0  0  0
 30 85  1  0  0  0  0
 31 86  1  0  0  0  0
 32 67  2  0  0  0  0
 33 68  1  0  0  0  0
 33 71  1  0  0  0  0
 34 72  1  0  0  0  0
 34 78  2  0  0  0  0
 35 52  1  0  0  0  0
 35 73  1  0  0  0  0
 35 79  2  0  0  0  0
 36 64  1  0  0  0  0
 36 69  1  0  0  0  0
 36 80  2  0  0  0  0
 37 65  1  0  0  0  0
 37 74  1  0  0  0  0
 37 81  2  0  0  0  0
 38 70  1  0  0  0  0
 38 75  1  0  0  0  0
 38 82  2  0  0  0  0
 39 42  1  0  0  0  0
 40 52  1  0  0  0  0
 41 69  1  0  0  0  0
 42 44  1  0  0  0  0
 43 46  1  0  0  0  0
 43 48  1  0  0  0  0
 44 50  1  0  0  0  0
 45 47  1  0  0  0  0
 45 51  1  0  0  0  0
 46 53  1  0  0  0  0
 47 54  1  0  0  0  0
 48 70  1  0  0  0  0
 49 53  1  0  0  0  0
 49 70  1  0  0  0  0
 50 73  1  0  0  0  0
 51 75  1  0  0  0  0
 52 69  1  0  0  0  0
 53 68  1  0  0  0  0
 54 87  1  0  0  0  0
 54 88  1  0  0  0  0
 56 65  1  0  0  0  0
 57 66  1  0  0  0  0
 58 66  1  0  0  0  0
 59 66  1  0  0  0  0
 60 76  1  0  0  0  0
 61 77  1  0  0  0  0
 62 63  1  0  0  0  0
 62 77  1  0  0  0  0
 63 84  1  0  0  0  0
 64 66  1  0  0  0  0
 64 74  1  0  0  0  0
 65 76  1  0  0  0  0
 67 68  1  0  0  0  0
M  CHG  2  76   1  77   1
M  ISO  4  38 100  63 101  75 100  84 101
M  END
> <Batch ID>
0037

> <Smiles>
CNC(C)C(=O)NC(C(=O)N1Cc2cc([101O:1][101CH2:1]CNCc3c(C)ccc4c3C(F)(F)CCC4[100NH:0][100C:0](=O)N3CCCC(n4nc(-c5ccc(Oc6ccc(F)cc6F)cc5)c(C(N)=O)c4N)C3)ccc2CC1C(=O)NC1CCCc2ccccc21)C(C)(C)C

> <Shape>
0.262

> <Color>
0.081

> <Negative vol penalty>
0.000

$$$$

  -OEChem-04042321573D

 89 98  0     1  0  0  0  0  0999 V2000
  -28.2492  -20.2366   13.5748 C   0  0  0  0  0  0  0  0  0  0  0  0
  -27.3935  -21.1498   14.1804 C   0  0  0  0  0  0  0  0  0  0  0  0
  -18.9144  -26.1160   21.9614 C   0  0  0  0  0  0  0  0  0  0  0  0
  -27.4628  -14.5900   22.0043 C   0  0  0  0  0  0  0  0  0  0  0  0
  -26.0002  -15.1837   20.1752 C   0  0  0  0  0  0  0  0  0  0  0  0
  -29.3985  -19.8164   14.2409 C   0  0  0  0  0  0  0  0  0  0  0  0
  -27.6930  -21.6522   15.4472 C   0  0  0  0  0  0  0  0  0  0  0  0
  -25.3901  -27.6606   18.1231 C   0  0  0  0  0  0  0  0  0  0  0  0
  -19.6648  -25.1436   21.3005 C   0  0  0  0  0  0  0  0  0  0  0  0
  -19.5566  -27.1668   22.6164 C   0  0  0  0  0  0  0  0  0  0  0  0
  -27.2072  -13.2389   21.7702 C   0  0  0  0  0  0  0  0  0  0  0  0
  -25.7446  -13.8326   19.9411 C   0  0  0  0  0  0  0  0  0  0  0  0
  -24.8479  -28.7935   18.7303 C   0  0  0  0  0  0  0  0  0  0  0  0
  -23.8225  -11.3929   21.2769 C   0  0  0  0  0  0  0  0  0  0  0  0
  -22.4983  -11.0120   21.0602 C   0  0  0  0  0  0  0  0  0  0  0  0
  -26.0802  -28.3115   20.7544 C   0  0  0  0  0  0  0  0  0  0  0  0
  -23.0973  -10.1728   18.8752 C   0  0  0  0  0  0  0  0  0  0  0  0
  -26.8593  -15.5624   21.2068 C   0  0  0  0  0  0  0  0  0  0  0  0
  -28.3704  -17.6083   21.4025 C   0  0  0  0  0  0  0  0  0  0  0  0
  -29.7050  -20.3049   15.5217 C   0  0  0  0  0  0  0  0  0  0  0  0
  -26.2925  -26.8564   18.8248 C   0  0  0  0  0  0  0  0  0  0  0  0
  -28.8606  -21.2586   16.1257 C   0  0  0  0  0  0  0  0  0  0  0  0
  -26.6362  -27.1824   20.1471 C   0  0  0  0  0  0  0  0  0  0  0  0
  -21.0574  -25.2218   21.2948 C   0  0  0  0  0  0  0  0  0  0  0  0
  -20.9492  -27.2450   22.6107 C   0  0  0  0  0  0  0  0  0  0  0  0
  -21.6997  -26.2725   21.9499 C   0  0  0  0  0  0  0  0  0  0  0  0
  -26.3481  -12.8602   20.7387 C   0  0  0  0  0  0  0  0  0  0  0  0
  -25.1919  -29.1179   20.0428 C   0  0  0  0  0  0  0  0  0  0  0  0
  -24.7841  -11.1638   20.2928 C   0  0  0  0  0  0  0  0  0  0  0  0
  -22.1357  -10.4019   19.8593 C   0  0  0  0  0  0  0  0  0  0  0  0
  -24.4216  -10.5538   19.0920 C   0  0  0  0  0  0  0  0  0  0  0  0
  -27.1226  -16.9582   21.4485 C   0  0  0  0  0  0  0  0  0  0  0  0
  -28.0866  -18.9180   21.7038 C   0  0  0  0  0  0  0  0  0  0  0  0
  -21.6970  -30.8036   23.4716 C   0  0  0  0  0  0  0  0  0  0  0  0
  -20.6089  -31.4934   23.8460 C   0  0  0  0  0  0  0  0  0  0  0  0
  -29.6699  -17.0760   21.1131 C   0  0  0  0  0  0  0  0  0  0  0  0
  -28.5083  -23.8290   18.7962 C   0  0  0  0  0  0  0  0  0  0  0  0
  -30.0415  -26.0416   20.2673 C   0  0  0  0  0  0  0  0  0  0  0  0
  -32.4180  -28.0984   21.5938 C   0  0  0  0  0  0  0  0  0  0  0  0
  -23.1784  -22.1316   21.0421 C   0  0  0  0  0  0  0  0  0  0  0  0
  -30.9661  -19.8223   16.1939 C   0  0  0  0  0  0  0  0  0  0  0  0
  -26.8538  -25.5927   18.2317 C   0  0  0  0  0  0  0  0  0  0  0  0
  -27.5841  -26.2691   20.8753 C   0  0  0  0  0  0  0  0  0  0  0  0
  -23.0893  -31.1654   23.9124 C   0  0  0  0  0  0  0  0  0  0  0  0
  -30.9678  -20.0658   17.6996 C   0  0  0  0  0  0  0  0  0  0  0  0
  -24.0192  -31.2585   22.7087 C   0  0  0  0  0  0  0  0  0  0  0  0
  -24.9692  -21.6084   24.1433 C   0  0  0  0  0  0  0  0  0  0  0  0
  -30.5789  -21.5070   17.9934 C   0  0  0  0  0  0  0  0  0  0  0  0
  -25.8478  -20.4075   23.7882 C   0  0  0  0  0  0  0  0  0  0  0  0
  -23.5922  -21.4967   23.4953 C   0  0  0  0  0  0  0  0  0  0  0  0
  -24.4974  -20.1258   21.6582 C   0  0  0  0  0  0  0  0  0  0  0  0
  -22.4369  -29.8008   21.3911 C   0  0  0  0  0  0  0  0  0  0  0  0
  -29.1500  -21.7954   17.5158 C   0  0  1  0  0  0  0  0  0  0  0  0
  -28.3010  -25.3100   18.6729 C   0  0  1  0  0  0  0  0  0  0  0  0
  -25.9110  -20.1904   22.2647 C   0  0  2  0  0  0  0  0  0  0  0  0
  -23.8874  -30.0308   21.8076 C   0  0  1  0  0  0  0  0  0  1  0  0
  -23.1930  -26.3563   21.9438 C   0  0  0  0  0  0  0  0  0  0  0  0
  -18.2013  -32.1181   24.0079 C   0  0  0  0  0  0  0  0  0  0  0  0
  -34.5198  -28.7559   22.7968 C   0  0  0  0  0  0  0  0  0  0  0  0
  -28.3021  -25.6806   22.7468 C   0  0  0  0  0  0  0  0  0  0  0  0
  -30.1919  -26.5853   24.1174 C   0  0  0  0  0  0  0  0  0  0  0  0
  -30.4912  -24.4739   22.8231 C   0  0  0  0  0  0  0  0  0  0  0  0
  -34.0257  -27.9371   19.1142 C   0  0  0  0  0  0  0  0  0  0  0  0
  -21.8377  -24.1677   20.5795 C   0  0  0  0  0  0  0  0  0  0  0  0
  -21.6152  -28.3855   23.3226 C   0  0  0  0  0  0  0  0  0  0  0  0
  -19.2157  -31.1503   23.4189 C   0  0  0  0  0  0  0  0  0  0  0  0
  -30.3836  -26.6786   21.5904 C   0  0  1  0  0  0  0  0  0  0  0  0
  -33.9333  -28.0086   21.6092 C   0  0  2  0  0  0  0  0  0  0  0  0
  -29.8313  -25.8698   22.7980 C   0  0  0  0  0  0  0  0  0  0  0  0
  -26.1206  -17.7865   21.7551 N   0  0  0  0  0  0  0  0  0  0  0  0
  -26.7386  -18.9705   21.9046 N   0  0  0  0  0  0  0  0  0  0  0  0
  -28.6818  -25.8683   19.9815 N   0  0  0  0  0  0  0  0  0  0  0  0
  -23.7225  -21.3100   22.0433 N   0  0  0  0  0  0  0  0  0  0  0  0
  -28.8611  -20.0181   21.8142 N   0  0  0  0  0  0  0  0  0  0  0  0
  -30.4441  -16.5890   22.1751 N   0  0  0  0  0  0  0  0  0  0  0  0
  -28.8950  -23.2152   17.6201 N   0  0  0  0  0  0  0  0  0  0  0  0
  -31.8324  -26.8501   21.5985 N   0  0  0  0  0  0  0  0  0  0  0  0
  -22.4526  -23.2283   21.4907 N   0  0  0  0  0  0  0  0  0  0  0  0
  -21.5105  -29.6871   22.5770 N   0  3  1  0  0  0  0  0  0  0  0  0
  -34.4995  -28.5924   20.3604 N   0  3  0  0  0  0  0  0  0  0  0  0
  -30.1375  -17.0486   19.9495 O   0  0  0  0  0  0  0  0  0  0  0  0
  -28.3322  -23.2824   19.8787 O   0  0  0  0  0  0  0  0  0  0  0  0
  -30.9532  -25.7007   19.5084 O   0  0  0  0  0  0  0  0  0  0  0  0
  -31.8141  -29.1688   21.5827 O   0  0  0  0  0  0  0  0  0  0  0  0
  -23.3327  -21.9075   19.8367 O   0  0  0  0  0  0  0  0  0  0  0  0
  -26.0985  -11.5419   20.5098 O   0  0  0  0  0  0  0  0  0  0  0  0
  -24.6623  -30.2278   20.6280 O   0  0  0  0  0  0  0  0  0  1  0  0
  -20.8643  -10.0348   19.6519 F   0  0  0  0  0  0  0  0  0  0  0  0
  -25.3412  -10.3300   18.1433 F   0  0  0  0  0  0  0  0  0  0  0  0
  1  2  1  0  0  0  0
  1  6  2  0  0  0  0
  2  7  2  0  0  0  0
  3  9  1  0  0  0  0
  3 10  2  0  0  0  0
  4 11  2  0  0  0  0
  4 18  1  0  0  0  0
  5 12  1  0  0  0  0
  5 18  2  0  0  0  0
  6 20  1  0  0  0  0
  7 22  1  0  0  0  0
  8 13  2  0  0  0  0
  8 21  1  0  0  0  0
  9 24  2  0  0  0  0
 10 25  1  0  0  0  0
 11 27  1  0  0  0  0
 12 27  2  0  0  0  0
 13 28  1  0  0  0  0
 14 15  2  0  0  0  0
 14 29  1  0  0  0  0
 15 30  1  0  0  0  0
 16 23  1  0  0  0  0
 16 28  2  0  0  0  0
 17 30  2  0  0  0  0
 17 31  1  0  0  0  0
 18 32  1  0  0  0  0
 19 32  1  0  0  0  0
 19 33  2  0  0  0  0
 19 36  1  0  0  0  0
 20 22  2  0  0  0  0
 20 41  1  0  0  0  0
 21 23  2  0  0  0  0
 21 42  1  0  0  0  0
 22 53  1  0  0  0  0
 23 43  1  0  0  0  0
 24 26  1  0  0  0  0
 24 64  1  0  0  0  0
 25 26  2  0  0  0  0
 25 65  1  0  0  0  0
 26 57  1  0  0  0  0
 27 86  1  0  0  0  0
 28 87  1  0  0  0  0
 29 31  2  0  0  0  0
 29 86  1  0  0  0  0
 30 88  1  0  0  0  0
 31 89  1  0  0  0  0
 32 70  2  0  0  0  0
 33 71  1  0  0  0  0
 33 74  1  0  0  0  0
 34 35  2  0  0  0  0
 34 44  1  0  0  0  0
 34 79  1  0  0  0  0
 35 66  1  0  0  0  0
 36 75  1  0  0  0  0
 36 81  2  0  0  0  0
 37 54  1  0  0  0  0
 37 76  1  0  0  0  0
 37 82  2  0  0  0  0
 38 67  1  0  0  0  0
 38 72  1  0  0  0  0
 38 83  2  0  0  0  0
 39 68  1  0  0  0  0
 39 77  1  0  0  0  0
 39 84  2  0  0  0  0
 40 73  1  0  0  0  0
 40 78  1  0  0  0  0
 40 85  2  0  0  0  0
 41 45  1  0  0  0  0
 42 54  1  0  0  0  0
 43 72  1  0  0  0  0
 44 46  1  0  0  0  0
 45 48  1  0  0  0  0
 46 56  1  0  0  0  0
 47 49  1  0  0  0  0
 47 50  1  0  0  0  0
 48 53  1  0  0  0  0
 49 55  1  0  0  0  0
 50 73  1  0  0  0  0
 51 55  1  0  0  0  0
 51 73  1  0  0  0  0
 52 56  1  0  0  0  0
 52 79  1  0  0  0  0
 53 76  1  0  0  0  0
 54 72  1  0  0  0  0
 55 71  1  0  0  0  0
 56 87  1  0  0  0  0
 58 66  1  0  0  0  0
 59 68  1  0  0  0  0
 60 69  1  0  0  0  0
 61 69  1  0  0  0  0
 62 69  1  0  0  0  0
 63 80  1  0  0  0  0
 64 78  1  0  0  0  0
 65 79  1  0  0  0  0
 67 69  1  0  0  0  0
 67 77  1  0  0  0  0
 68 80  1  0  0  0  0
 70 71  1  0  0  0  0
M  CHG  2  79   1  80   1
M  ISO  4  40 100  56 101  78 100  87 101
M  END
> <Batch ID>
0037

> <Smiles>
CCC=C1CC[101CH:1]([101O:1]c2ccc3c(c2)CN(C(=O)C(NC(=O)C(C)NC)C(C)(C)C)C(C(=O)NC2CCCc4ccccc42)C3)CN1Cc1cccc(C[100NH:0][100C:0](=O)N2CCCC(n3nc(-c4ccc(Oc5ccc(F)cc5F)cc4)c(C(N)=O)c3N)C2)c1C

> <Shape>
0.243

> <Color>
0.076

> <Negative vol penalty>
0.000

$$$$

  -OEChem-04042321573D

 90 99  0     1  0  0  0  0  0999 V2000
  -16.5295  -28.5372   22.9592 C   0  0  0  0  0  0  0  0  0  0  0  0
  -17.2097  -28.9557   21.8201 C   0  0  0  0  0  0  0  0  0  0  0  0
  -23.4200  -11.9452   23.2698 C   0  0  0  0  0  0  0  0  0  0  0  0
  -24.5950  -10.1417   22.1727 C   0  0  0  0  0  0  0  0  0  0  0  0
  -17.0811  -28.7597   24.2203 C   0  0  0  0  0  0  0  0  0  0  0  0
  -18.4415  -29.5978   21.9414 C   0  0  0  0  0  0  0  0  0  0  0  0
  -25.3612  -27.7773   18.8062 C   0  0  0  0  0  0  0  0  0  0  0  0
  -22.8906  -11.0404   24.1901 C   0  0  0  0  0  0  0  0  0  0  0  0
  -24.0657   -9.2370   23.0930 C   0  0  0  0  0  0  0  0  0  0  0  0
  -26.6706  -27.4681   18.4372 C   0  0  0  0  0  0  0  0  0  0  0  0
  -21.1387   -7.6218   23.5976 C   0  0  0  0  0  0  0  0  0  0  0  0
  -20.6286   -6.4205   23.1055 C   0  0  0  0  0  0  0  0  0  0  0  0
  -27.5065  -28.6430   20.3786 C   0  0  0  0  0  0  0  0  0  0  0  0
  -30.0611  -19.7582   19.7849 C   0  0  0  0  0  0  0  0  0  0  0  0
  -22.2262   -5.1951   24.4409 C   0  0  0  0  0  0  0  0  0  0  0  0
  -24.2721  -11.4958   22.2611 C   0  0  0  0  0  0  0  0  0  0  0  0
  -24.1035  -13.2551   20.4214 C   0  0  0  0  0  0  0  0  0  0  0  0
  -18.3248  -29.3963   24.3566 C   0  0  0  0  0  0  0  0  0  0  0  0
  -25.1185  -28.5083   19.9725 C   0  0  0  0  0  0  0  0  0  0  0  0
  -19.0096  -29.8302   23.2055 C   0  0  0  0  0  0  0  0  0  0  0  0
  -26.1965  -28.9450   20.7599 C   0  0  0  0  0  0  0  0  0  0  0  0
  -30.1560  -21.1480   19.8551 C   0  0  0  0  0  0  0  0  0  0  0  0
  -29.0146  -21.9339   19.6959 C   0  0  0  0  0  0  0  0  0  0  0  0
  -27.7784  -21.3299   19.4663 C   0  0  0  0  0  0  0  0  0  0  0  0
  -28.8249  -19.1542   19.5553 C   0  0  0  0  0  0  0  0  0  0  0  0
  -23.2135   -9.6864   24.1017 C   0  0  0  0  0  0  0  0  0  0  0  0
  -27.7405  -27.9001   19.2214 C   0  0  0  0  0  0  0  0  0  0  0  0
  -22.1926   -7.6098   24.5114 C   0  0  0  0  0  0  0  0  0  0  0  0
  -21.1723   -5.2071   23.5271 C   0  0  0  0  0  0  0  0  0  0  0  0
  -22.7363   -6.3964   24.9330 C   0  0  0  0  0  0  0  0  0  0  0  0
  -27.6836  -19.9400   19.3960 C   0  0  0  0  0  0  0  0  0  0  0  0
  -24.8188  -12.4298   21.3098 C   0  0  0  0  0  0  0  0  0  0  0  0
  -25.0740  -13.9473   19.7391 C   0  0  0  0  0  0  0  0  0  0  0  0
  -30.1365  -25.4404   18.8926 C   0  0  0  0  0  0  0  0  0  0  0  0
  -31.0918  -25.8755   19.7350 C   0  0  0  0  0  0  0  0  0  0  0  0
  -22.6885  -13.3844   20.2302 C   0  0  0  0  0  0  0  0  0  0  0  0
  -22.5770  -30.0423   22.2668 C   0  0  0  0  0  0  0  0  0  0  0  0
  -24.7456  -28.7976   24.0440 C   0  0  0  0  0  0  0  0  0  0  0  0
  -27.1172  -26.9380   25.6422 C   0  0  0  0  0  0  0  0  0  0  0  0
  -29.8277  -16.8445   19.6346 C   0  0  0  0  0  0  0  0  0  0  0  0
  -18.8587  -29.6570   25.7428 C   0  0  0  0  0  0  0  0  0  0  0  0
  -23.7277  -28.9169   20.3757 C   0  0  0  0  0  0  0  0  0  0  0  0
  -25.8895  -29.7584   21.9876 C   0  0  0  0  0  0  0  0  0  0  0  0
  -20.3438  -30.0093   25.7673 C   0  0  0  0  0  0  0  0  0  0  0  0
  -29.7956  -25.5807   15.7613 C   0  0  0  0  0  0  0  0  0  0  0  0
  -30.0910  -13.2942   19.5811 C   0  0  0  0  0  0  0  0  0  0  0  0
  -30.4471  -24.2827   16.2406 C   0  0  0  0  0  0  0  0  0  0  0  0
  -20.6635  -31.0486   24.6974 C   0  0  0  0  0  0  0  0  0  0  0  0
  -29.7879  -26.7267   16.7704 C   0  0  0  0  0  0  0  0  0  0  0  0
  -28.6840  -12.8207   19.9530 C   0  0  0  0  0  0  0  0  0  0  0  0
  -30.4853  -14.5562   20.3462 C   0  0  0  0  0  0  0  0  0  0  0  0
  -28.1212  -15.1922   20.6210 C   0  0  0  0  0  0  0  0  0  0  0  0
  -29.6441  -23.5784   17.3319 C   0  0  0  0  0  0  0  0  0  0  0  0
  -20.3597  -30.5080   23.2949 C   0  0  1  0  0  0  0  0  0  0  0  0
  -29.2093  -26.3686   18.1410 C   0  0  2  0  0  0  0  0  0  1  0  0
  -23.5228  -28.9363   21.9011 C   0  0  1  0  0  0  0  0  0  0  0  0
  -27.6543  -13.9607   19.8279 C   0  0  2  0  0  0  0  0  0  0  0  0
  -31.4920  -21.7698   20.1012 C   0  0  0  0  0  0  0  0  0  0  0  0
  -26.0524  -22.7305   20.6265 C   0  0  0  0  0  0  0  0  0  0  0  0
  -27.8761  -26.2651   27.9376 C   0  0  0  0  0  0  0  0  0  0  0  0
  -25.9735  -31.5610   24.4442 C   0  0  0  0  0  0  0  0  0  0  0  0
  -27.4575  -30.5693   26.1999 C   0  0  0  0  0  0  0  0  0  0  0  0
  -24.9819  -30.5511   26.5060 C   0  0  0  0  0  0  0  0  0  0  0  0
  -26.6595  -24.0688   25.0788 C   0  0  0  0  0  0  0  0  0  0  0  0
  -26.5653  -22.1916   19.2962 C   0  0  0  0  0  0  0  0  0  0  0  0
  -29.1219  -23.4285   19.7697 C   0  0  0  0  0  0  0  0  0  0  0  0
  -26.0316  -29.0049   24.8033 C   0  0  1  0  0  0  0  0  0  0  0  0
  -27.0094  -25.8982   26.7430 C   0  0  2  0  0  0  0  0  0  0  0  0
  -26.1110  -30.4111   25.4619 C   0  0  0  0  0  0  0  0  0  0  0  0
  -26.1415  -12.5823   21.2037 N   0  0  0  0  0  0  0  0  0  0  0  0
  -26.2651  -13.5114   20.2405 N   0  0  0  0  0  0  0  0  0  0  0  0
  -24.7373  -29.1812   22.6974 N   0  0  0  0  0  0  0  0  0  0  0  0
  -29.4655  -15.5938   20.1781 N   0  0  0  0  0  0  0  0  0  0  0  0
  -25.0161  -14.8803   18.7652 N   0  0  0  0  0  0  0  0  0  0  0  0
  -22.0632  -12.5561   19.2882 N   0  0  0  0  0  0  0  0  0  0  0  0
  -28.7681  -17.7398   19.4918 N   0  0  0  0  0  0  0  0  0  0  0  0
  -21.4076  -29.6088   22.8618 N   0  0  0  0  0  0  0  0  0  0  0  0
  -26.1317  -27.8967   25.7469 N   0  0  0  0  0  0  0  0  0  0  0  0
  -30.0427  -24.0073   18.7245 N   0  3  2  0  0  0  0  0  0  0  0  0
  -27.4429  -24.5642   26.2398 N   0  3  0  0  0  0  0  0  0  0  0  0
  -22.0017  -14.2213   20.8637 O   0  0  0  0  0  0  0  0  0  0  0  0
  -22.8851  -31.2042   22.0286 O   0  0  0  0  0  0  0  0  0  0  0  0
  -23.7716  -28.3143   24.6280 O   0  0  0  0  0  0  0  0  0  0  0  0
  -27.9908  -26.9052   24.7783 O   0  0  0  0  0  0  0  0  0  0  0  0
  -30.9872  -17.0928   19.2939 O   0  0  0  0  0  0  0  0  0  0  0  0
  -22.6974   -8.8033   24.9996 O   0  0  0  0  0  0  0  0  0  0  0  0
  -29.0160  -27.5909   18.8578 O   0  0  0  0  0  0  0  0  0  1  0  0
  -20.6814   -4.0535   23.0556 F   0  0  0  0  0  0  0  0  0  0  0  0
  -23.7480   -6.3785   25.8116 F   0  0  0  0  0  0  0  0  0  0  0  0
  -26.1454  -19.1906   19.1118 Cl  0  0  0  0  0  0  0  0  0  0  0  0
  1  2  1  0  0  0  0
  1  5  2  0  0  0  0
  2  6  2  0  0  0  0
  3  8  2  0  0  0  0
  3 16  1  0  0  0  0
  4  9  1  0  0  0  0
  4 16  2  0  0  0  0
  5 18  1  0  0  0  0
  6 20  1  0  0  0  0
  7 10  2  0  0  0  0
  7 19  1  0  0  0  0
  8 26  1  0  0  0  0
  9 26  2  0  0  0  0
 10 27  1  0  0  0  0
 11 12  2  0  0  0  0
 11 28  1  0  0  0  0
 12 29  1  0  0  0  0
 13 21  1  0  0  0  0
 13 27  2  0  0  0  0
 14 22  2  0  0  0  0
 14 25  1  0  0  0  0
 15 29  2  0  0  0  0
 15 30  1  0  0  0  0
 16 32  1  0  0  0  0
 17 32  1  0  0  0  0
 17 33  2  0  0  0  0
 17 36  1  0  0  0  0
 18 20  2  0  0  0  0
 18 41  1  0  0  0  0
 19 21  2  0  0  0  0
 19 42  1  0  0  0  0
 20 54  1  0  0  0  0
 21 43  1  0  0  0  0
 22 23  1  0  0  0  0
 22 58  1  0  0  0  0
 23 24  2  0  0  0  0
 23 66  1  0  0  0  0
 24 31  1  0  0  0  0
 24 65  1  0  0  0  0
 25 31  2  0  0  0  0
 25 76  1  0  0  0  0
 26 86  1  0  0  0  0
 27 87  1  0  0  0  0
 28 30  2  0  0  0  0
 28 86  1  0  0  0  0
 29 88  1  0  0  0  0
 30 89  1  0  0  0  0
 31 90  1  0  0  0  0
 32 70  2  0  0  0  0
 33 71  1  0  0  0  0
 33 74  1  0  0  0  0
 34 35  2  0  0  0  0
 34 55  1  0  0  0  0
 34 79  1  0  0  0  0
 36 75  1  0  0  0  0
 36 81  2  0  0  0  0
 37 56  1  0  0  0  0
 37 77  1  0  0  0  0
 37 82  2  0  0  0  0
 38 67  1  0  0  0  0
 38 72  1  0  0  0  0
 38 83  2  0  0  0  0
 39 68  1  0  0  0  0
 39 78  1  0  0  0  0
 39 84  2  0  0  0  0
 40 73  1  0  0  0  0
 40 76  1  0  0  0  0
 40 85  2  0  0  0  0
 41 44  1  0  0  0  0
 42 56  1  0  0  0  0
 43 72  1  0  0  0  0
 44 48  1  0  0  0  0
 45 47  1  0  0  0  0
 45 49  1  0  0  0  0
 46 50  1  0  0  0  0
 46 51  1  0  0  0  0
 47 53  1  0  0  0  0
 48 54  1  0  0  0  0
 49 55  1  0  0  0  0
 50 57  1  0  0  0  0
 51 73  1  0  0  0  0
 52 57  1  0  0  0  0
 52 73  1  0  0  0  0
 53 79  1  0  0  0  0
 54 77  1  0  0  0  0
 55 87  1  0  0  0  0
 56 72  1  0  0  0  0
 57 71  1  0  0  0  0
 59 65  1  0  0  0  0
 60 68  1  0  0  0  0
 61 69  1  0  0  0  0
 62 69  1  0  0  0  0
 63 69  1  0  0  0  0
 64 80  1  0  0  0  0
 66 79  1  0  0  0  0
 67 69  1  0  0  0  0
 67 78  1  0  0  0  0
 68 80  1  0  0  0  0
 70 71  1  0  0  0  0
M  CHG  2  79   1  80   1
M  ISO  4  40 100  55 101  76 100  87 101
M  END
> <Batch ID>
0037

> <Smiles>
C=C1N(Cc2c(C)cc([100NH:0][100C:0](=O)N3CCCC(n4nc(-c5ccc(Oc6ccc(F)cc6F)cc5)c(C(N)=O)c4N)C3)c(Cl)c2CC)CCCC[101CH:1]1[101O:1]c1ccc2c(c1)CN(C(=O)C(NC(=O)C(C)NC)C(C)(C)C)C(C(=O)NC1CCCc3ccccc31)C2

> <Shape>
0.348

> <Color>
0.109

> <Negative vol penalty>
0.000

$$$$

  -OEChem-04042321573D

 89 98  0     1  0  0  0  0  0999 V2000
  -30.9239  -23.7384   16.1245 C   0  0  0  0  0  0  0  0  0  0  0  0
  -30.0071  -24.7803   16.0425 C   0  0  0  0  0  0  0  0  0  0  0  0
  -26.9719  -13.2742   18.8036 C   0  0  0  0  0  0  0  0  0  0  0  0
  -26.9282  -13.0985   21.2128 C   0  0  0  0  0  0  0  0  0  0  0  0
  -31.1641  -23.1213   17.3503 C   0  0  0  0  0  0  0  0  0  0  0  0
  -29.3391  -25.2135   17.1883 C   0  0  0  0  0  0  0  0  0  0  0  0
  -24.1448  -29.5025   19.6446 C   0  0  0  0  0  0  0  0  0  0  0  0
  -26.2416  -12.0900   18.7040 C   0  0  0  0  0  0  0  0  0  0  0  0
  -26.1979  -11.9143   21.1132 C   0  0  0  0  0  0  0  0  0  0  0  0
  -22.9436  -29.5436   20.3512 C   0  0  0  0  0  0  0  0  0  0  0  0
  -22.9931  -11.0069   20.5420 C   0  0  0  0  0  0  0  0  0  0  0  0
  -21.8938  -10.8522   21.3865 C   0  0  0  0  0  0  0  0  0  0  0  0
  -24.1618  -29.3314   22.4225 C   0  0  0  0  0  0  0  0  0  0  0  0
  -22.8917  -23.6743   21.2823 C   0  0  0  0  0  0  0  0  0  0  0  0
  -22.9465  -25.0218   23.7244 C   0  0  0  0  0  0  0  0  0  0  0  0
  -22.9098   -8.8825   22.3483 C   0  0  0  0  0  0  0  0  0  0  0  0
  -27.3153  -13.7784   20.0580 C   0  0  0  0  0  0  0  0  0  0  0  0
  -29.3534  -15.2549   19.6412 C   0  0  0  0  0  0  0  0  0  0  0  0
  -30.4890  -23.5394   18.5090 C   0  0  0  0  0  0  0  0  0  0  0  0
  -25.3648  -29.3643   20.3221 C   0  0  0  0  0  0  0  0  0  0  0  0
  -29.5855  -24.6193   18.4393 C   0  0  0  0  0  0  0  0  0  0  0  0
  -25.3772  -29.2914   21.7223 C   0  0  0  0  0  0  0  0  0  0  0  0
  -24.1116  -23.9469   21.9012 C   0  0  0  0  0  0  0  0  0  0  0  0
  -21.7265  -24.7492   23.1055 C   0  0  0  0  0  0  0  0  0  0  0  0
  -25.8546  -11.4101   19.8588 C   0  0  0  0  0  0  0  0  0  0  0  0
  -22.9518  -29.4552   21.7402 C   0  0  0  0  0  0  0  0  0  0  0  0
  -24.0507  -10.0993   20.6005 C   0  0  0  0  0  0  0  0  0  0  0  0
  -21.8522   -9.7901   22.2897 C   0  0  0  0  0  0  0  0  0  0  0  0
  -24.0091   -9.0371   21.5037 C   0  0  0  0  0  0  0  0  0  0  0  0
  -24.1390  -24.6206   23.1223 C   0  0  0  0  0  0  0  0  0  0  0  0
  -21.6991  -24.0755   21.8844 C   0  0  0  0  0  0  0  0  0  0  0  0
  -28.0701  -15.0014   20.1616 C   0  0  0  0  0  0  0  0  0  0  0  0
  -29.6220  -16.5514   20.0065 C   0  0  0  0  0  0  0  0  0  0  0  0
  -30.2247  -14.3953   18.8945 C   0  0  0  0  0  0  0  0  0  0  0  0
  -27.6837  -27.1905   20.3459 C   0  0  0  0  0  0  0  0  0  0  0  0
  -29.1647  -29.3589   22.2503 C   0  0  0  0  0  0  0  0  0  0  0  0
  -28.8860  -31.9879   24.4085 C   0  0  0  0  0  0  0  0  0  0  0  0
  -26.0749  -21.1221   21.1818 C   0  0  0  0  0  0  0  0  0  0  0  0
  -30.7930  -22.8415   19.8112 C   0  0  0  0  0  0  0  0  0  0  0  0
  -26.6537  -29.3485   19.5470 C   0  0  0  0  0  0  0  0  0  0  0  0
  -26.6617  -29.1625   22.4983 C   0  0  0  0  0  0  0  0  0  0  0  0
  -29.7209  -23.0690   20.8720 C   0  0  0  0  0  0  0  0  0  0  0  0
  -18.3627  -28.2200   21.3815 C   0  0  0  0  0  0  0  0  0  0  0  0
  -28.6029  -19.7754   23.3938 C   0  0  0  0  0  0  0  0  0  0  0  0
  -29.4053  -24.5532   20.9821 C   0  0  0  0  0  0  0  0  0  0  0  0
  -28.8716  -18.4120   22.7542 C   0  0  0  0  0  0  0  0  0  0  0  0
  -19.5637  -29.1394   21.5911 C   0  0  0  0  0  0  0  0  0  0  0  0
  -17.7393  -27.7654   22.7002 C   0  0  0  0  0  0  0  0  0  0  0  0
  -27.1243  -20.1431   23.3108 C   0  0  0  0  0  0  0  0  0  0  0  0
  -26.8290  -18.7637   21.2900 C   0  0  0  0  0  0  0  0  0  0  0  0
  -20.6189  -27.6717   23.4297 C   0  0  0  0  0  0  0  0  0  0  0  0
  -28.8244  -25.0871   19.6666 C   0  0  1  0  0  0  0  0  0  0  0  0
  -27.7999  -28.6880   20.3070 C   0  0  1  0  0  0  0  0  0  0  0  0
  -28.3100  -18.3447   21.3217 C   0  0  2  0  0  0  0  0  0  0  0  0
  -20.8213  -28.4723   22.1470 C   0  0  2  0  0  0  0  0  0  1  0  0
  -18.3379  -26.4963   23.3262 C   0  0  2  0  0  0  0  0  0  0  0  0
  -17.9432  -26.3878   24.8000 C   0  0  0  0  0  0  0  0  0  0  0  0
  -30.2694  -33.5230   25.8322 C   0  0  0  0  0  0  0  0  0  0  0  0
  -29.5414  -27.1224   24.2915 C   0  0  0  0  0  0  0  0  0  0  0  0
  -30.0391  -28.8715   26.0123 C   0  0  0  0  0  0  0  0  0  0  0  0
  -31.5185  -28.6295   24.0185 C   0  0  0  0  0  0  0  0  0  0  0  0
  -27.9660  -34.3794   22.9276 C   0  0  0  0  0  0  0  0  0  0  0  0
  -25.3664  -23.4998   21.2234 C   0  0  0  0  0  0  0  0  0  0  0  0
  -20.4662  -25.1977   23.7847 C   0  0  0  0  0  0  0  0  0  0  0  0
  -29.2104  -29.6220   23.7362 C   0  0  1  0  0  0  0  0  0  0  0  0
  -29.6145  -33.3180   24.4751 C   0  0  2  0  0  0  0  0  0  0  0  0
  -30.0528  -28.5619   24.5002 C   0  0  0  0  0  0  0  0  0  0  0  0
  -27.5591  -16.0524   20.8082 N   0  0  0  0  0  0  0  0  0  0  0  0
  -28.5262  -16.9788   20.6968 N   0  0  0  0  0  0  0  0  0  0  0  0
  -27.8952  -29.1451   21.6949 N   0  0  0  0  0  0  0  0  0  0  0  0
  -26.6570  -20.0776   21.9189 N   0  0  0  0  0  0  0  0  0  0  0  0
  -30.6864  -17.3560   19.8014 N   0  0  0  0  0  0  0  0  0  0  0  0
  -31.1356  -13.5942   19.5965 N   0  0  0  0  0  0  0  0  0  0  0  0
  -28.7350  -26.5288   19.7406 N   0  0  0  0  0  0  0  0  0  0  0  0
  -29.6881  -30.9915   23.8937 N   0  0  0  0  0  0  0  0  0  0  0  0
  -25.9416  -22.3317   21.8524 N   0  0  0  0  0  0  0  0  0  0  0  0
  -19.8422  -26.4089   23.1340 N   0  3  2  0  0  0  0  0  0  0  0  0
  -28.6645  -34.4414   24.2372 N   0  3  0  0  0  0  0  0  0  0  0  0
  -30.2076  -14.3514   17.6409 O   0  0  0  0  0  0  0  0  0  0  0  0
  -26.7129  -26.6736   20.8864 O   0  0  0  0  0  0  0  0  0  0  0  0
  -30.2160  -29.3507   21.6051 O   0  0  0  0  0  0  0  0  0  0  0  0
  -27.7230  -31.8460   24.7798 O   0  0  0  0  0  0  0  0  0  0  0  0
  -25.7059  -20.9883   20.0100 O   0  0  0  0  0  0  0  0  0  0  0  0
  -25.1417  -10.2546   19.7619 O   0  0  0  0  0  0  0  0  0  0  0  0
  -21.7807  -29.4944   22.4323 O   0  0  0  0  0  0  0  0  0  1  0  0
  -20.7972   -9.6426   23.1017 F   0  0  0  0  0  0  0  0  0  0  0  0
  -25.0227   -8.1627   21.5654 F   0  0  0  0  0  0  0  0  0  0  0  0
  -25.6297  -24.9737   23.9175 Cl  0  0  0  0  0  0  0  0  0  0  0  0
  -20.2085  -23.7211   21.0894 Cl  0  0  0  0  0  0  0  0  0  0  0  0
  1  2  1  0  0  0  0
  1  5  2  0  0  0  0
  2  6  2  0  0  0  0
  3  8  2  0  0  0  0
  3 17  1  0  0  0  0
  4  9  1  0  0  0  0
  4 17  2  0  0  0  0
  5 19  1  0  0  0  0
  6 21  1  0  0  0  0
  7 10  2  0  0  0  0
  7 20  1  0  0  0  0
  8 25  1  0  0  0  0
  9 25  2  0  0  0  0
 10 26  1  0  0  0  0
 11 12  2  0  0  0  0
 11 27  1  0  0  0  0
 12 28  1  0  0  0  0
 13 22  1  0  0  0  0
 13 26  2  0  0  0  0
 14 23  2  0  0  0  0
 14 31  1  0  0  0  0
 15 24  1  0  0  0  0
 15 30  2  0  0  0  0
 16 28  2  0  0  0  0
 16 29  1  0  0  0  0
 17 32  1  0  0  0  0
 18 32  1  0  0  0  0
 18 33  2  0  0  0  0
 18 34  1  0  0  0  0
 19 21  2  0  0  0  0
 19 39  1  0  0  0  0
 20 22  2  0  0  0  0
 20 40  1  0  0  0  0
 21 52  1  0  0  0  0
 22 41  1  0  0  0  0
 23 30  1  0  0  0  0
 23 63  1  0  0  0  0
 24 31  2  0  0  0  0
 24 64  1  0  0  0  0
 25 84  1  0  0  0  0
 26 85  1  0  0  0  0
 27 29  2  0  0  0  0
 27 84  1  0  0  0  0
 28 86  1  0  0  0  0
 29 87  1  0  0  0  0
 30 88  1  0  0  0  0
 31 89  1  0  0  0  0
 32 68  2  0  0  0  0
 33 69  1  0  0  0  0
 33 72  1  0  0  0  0
 34 73  1  0  0  0  0
 34 79  2  0  0  0  0
 35 53  1  0  0  0  0
 35 74  1  0  0  0  0
 35 80  2  0  0  0  0
 36 65  1  0  0  0  0
 36 70  1  0  0  0  0
 36 81  2  0  0  0  0
 37 66  1  0  0  0  0
 37 75  1  0  0  0  0
 37 82  2  0  0  0  0
 38 71  1  0  0  0  0
 38 76  1  0  0  0  0
 38 83  2  0  0  0  0
 39 42  1  0  0  0  0
 40 53  1  0  0  0  0
 41 70  1  0  0  0  0
 42 45  1  0  0  0  0
 43 47  1  0  0  0  0
 43 48  1  0  0  0  0
 44 46  1  0  0  0  0
 44 49  1  0  0  0  0
 45 52  1  0  0  0  0
 46 54  1  0  0  0  0
 47 55  1  0  0  0  0
 48 56  1  0  0  0  0
 49 71  1  0  0  0  0
 50 54  1  0  0  0  0
 50 71  1  0  0  0  0
 51 55  1  0  0  0  0
 51 77  1  0  0  0  0
 52 74  1  0  0  0  0
 53 70  1  0  0  0  0
 54 69  1  0  0  0  0
 55 85  1  0  0  0  0
 56 57  1  0  0  0  0
 56 77  1  0  0  0  0
 58 66  1  0  0  0  0
 59 67  1  0  0  0  0
 60 67  1  0  0  0  0
 61 67  1  0  0  0  0
 62 78  1  0  0  0  0
 63 76  1  0  0  0  0
 64 77  1  0  0  0  0
 65 67  1  0  0  0  0
 65 75  1  0  0  0  0
 66 78  1  0  0  0  0
 68 69  1  0  0  0  0
M  CHG  2  77   1  78   1
M  ISO  4  38 100  55 101  76 100  85 101
M  END
> <Batch ID>
0037

> <Smiles>
CNC(C)C(=O)NC(C(=O)N1Cc2cc([101O:1][101CH:1]3CCCC(C)N(Cc4cc(Cl)c(C[100NH:0][100C:0](=O)N5CCCC(n6nc(-c7ccc(Oc8ccc(F)cc8F)cc7)c(C(N)=O)c6N)C5)cc4Cl)C3)ccc2CC1C(=O)NC1CCCc2ccccc21)C(C)(C)C

> <Shape>
0.274

> <Color>
0.057

> <Negative vol penalty>
0.000

$$$$

  -OEChem-04042321573D

 88 97  0     1  0  0  0  0  0999 V2000
  -16.4314  -27.2544   21.7316 C   0  0  0  0  0  0  0  0  0  0  0  0
  -17.6426  -26.9181   21.1354 C   0  0  0  0  0  0  0  0  0  0  0  0
  -22.9827   -9.8319   21.5192 C   0  0  0  0  0  0  0  0  0  0  0  0
  -24.3346  -10.5157   23.4012 C   0  0  0  0  0  0  0  0  0  0  0  0
  -16.3973  -28.2077   22.7485 C   0  0  0  0  0  0  0  0  0  0  0  0
  -18.8202  -27.5358   21.5550 C   0  0  0  0  0  0  0  0  0  0  0  0
  -22.6277  -24.2521   22.1590 C   0  0  0  0  0  0  0  0  0  0  0  0
  -22.3113   -8.9195   22.3329 C   0  0  0  0  0  0  0  0  0  0  0  0
  -23.6632   -9.6032   24.2150 C   0  0  0  0  0  0  0  0  0  0  0  0
  -23.2777  -23.8119   21.0068 C   0  0  0  0  0  0  0  0  0  0  0  0
  -22.8746   -5.8447   23.6187 C   0  0  0  0  0  0  0  0  0  0  0  0
  -22.6644   -4.5609   23.1154 C   0  0  0  0  0  0  0  0  0  0  0  0
  -25.0594  -25.3853   21.4180 C   0  0  0  0  0  0  0  0  0  0  0  0
  -31.2747  -17.8700   20.4221 C   0  0  0  0  0  0  0  0  0  0  0  0
  -20.2775   -4.8685   23.3276 C   0  0  0  0  0  0  0  0  0  0  0  0
  -23.9945  -10.6300   22.0533 C   0  0  0  0  0  0  0  0  0  0  0  0
  -24.1291  -12.6514   20.5030 C   0  0  0  0  0  0  0  0  0  0  0  0
  -17.5764  -28.8303   23.1874 C   0  0  0  0  0  0  0  0  0  0  0  0
  -23.1843  -25.2715   22.9448 C   0  0  0  0  0  0  0  0  0  0  0  0
  -18.8016  -28.4993   22.5778 C   0  0  0  0  0  0  0  0  0  0  0  0
  -24.4158  -25.8349   22.5811 C   0  0  0  0  0  0  0  0  0  0  0  0
  -29.3337  -19.8730   20.4772 C   0  0  0  0  0  0  0  0  0  0  0  0
  -28.9665  -18.5530   20.2156 C   0  0  0  0  0  0  0  0  0  0  0  0
  -30.6714  -20.1915   20.7112 C   0  0  0  0  0  0  0  0  0  0  0  0
  -29.9370  -17.5515   20.1881 C   0  0  0  0  0  0  0  0  0  0  0  0
  -22.6515   -8.8051   23.6808 C   0  0  0  0  0  0  0  0  0  0  0  0
  -24.4923  -24.3805   20.6346 C   0  0  0  0  0  0  0  0  0  0  0  0
  -21.7861   -6.6404   23.9765 C   0  0  0  0  0  0  0  0  0  0  0  0
  -21.3659   -4.0728   22.9698 C   0  0  0  0  0  0  0  0  0  0  0  0
  -20.4876   -6.1523   23.8309 C   0  0  0  0  0  0  0  0  0  0  0  0
  -31.6419  -19.1900   20.6837 C   0  0  0  0  0  0  0  0  0  0  0  0
  -24.6888  -11.5723   21.2130 C   0  0  0  0  0  0  0  0  0  0  0  0
  -25.1972  -13.2336   19.8652 C   0  0  0  0  0  0  0  0  0  0  0  0
  -26.5050  -21.9688   19.2119 C   0  0  0  0  0  0  0  0  0  0  0  0
  -25.4491  -21.2259   18.8410 C   0  0  0  0  0  0  0  0  0  0  0  0
  -22.7658  -13.0886   20.4270 C   0  0  0  0  0  0  0  0  0  0  0  0
  -22.2769  -28.1966   23.7958 C   0  0  0  0  0  0  0  0  0  0  0  0
  -24.9373  -28.0614   25.6468 C   0  0  0  0  0  0  0  0  0  0  0  0
  -28.3282  -26.8782   25.3016 C   0  0  0  0  0  0  0  0  0  0  0  0
  -30.4415  -15.1045   19.8654 C   0  0  0  0  0  0  0  0  0  0  0  0
  -17.4832  -29.8892   24.2573 C   0  0  0  0  0  0  0  0  0  0  0  0
  -22.4839  -25.7166   24.1992 C   0  0  0  0  0  0  0  0  0  0  0  0
  -25.0655  -26.9181   23.4015 C   0  0  0  0  0  0  0  0  0  0  0  0
  -18.8261  -30.2243   24.9013 C   0  0  0  0  0  0  0  0  0  0  0  0
  -29.9610  -11.6253   19.2811 C   0  0  0  0  0  0  0  0  0  0  0  0
  -28.8153  -23.6318   18.8705 C   0  0  0  0  0  0  0  0  0  0  0  0
  -19.8978  -30.4149   23.8327 C   0  0  0  0  0  0  0  0  0  0  0  0
  -27.4274  -24.2626   18.8862 C   0  0  0  0  0  0  0  0  0  0  0  0
  -28.5005  -11.3901   19.6733 C   0  0  0  0  0  0  0  0  0  0  0  0
  -30.6353  -12.6488   20.1930 C   0  0  0  0  0  0  0  0  0  0  0  0
  -28.4655  -13.6931   20.7135 C   0  0  0  0  0  0  0  0  0  0  0  0
  -28.7695  -22.1978   18.3529 C   0  0  0  0  0  0  0  0  0  0  0  0
  -20.1037  -29.1293   23.0224 C   0  0  1  0  0  0  0  0  0  0  0  0
  -26.4340  -23.4077   19.6716 C   0  0  1  0  0  0  0  0  0  1  0  0
  -22.8890  -27.1183   24.6446 C   0  0  1  0  0  0  0  0  0  0  0  0
  -27.7257  -12.7180   19.7832 C   0  0  2  0  0  0  0  0  0  0  0  0
  -27.5305  -18.2131   19.9647 C   0  0  0  0  0  0  0  0  0  0  0  0
  -31.0514  -21.6126   20.9907 C   0  0  0  0  0  0  0  0  0  0  0  0
  -29.9560  -26.0641   27.0293 C   0  0  0  0  0  0  0  0  0  0  0  0
  -25.9191  -30.9504   25.6639 C   0  0  0  0  0  0  0  0  0  0  0  0
  -28.2553  -30.0817   25.9006 C   0  0  0  0  0  0  0  0  0  0  0  0
  -26.5675  -29.6163   27.6775 C   0  0  0  0  0  0  0  0  0  0  0  0
  -28.7343  -24.3150   23.8790 C   0  0  0  0  0  0  0  0  0  0  0  0
  -28.2888  -20.9493   20.5064 C   0  0  0  0  0  0  0  0  0  0  0  0
  -26.3913  -28.4205   25.4569 C   0  0  1  0  0  0  0  0  0  0  0  0
  -28.9389  -25.6613   25.9728 C   0  0  2  0  0  0  0  0  0  0  0  0
  -26.7670  -29.7591   26.1528 C   0  0  0  0  0  0  0  0  0  0  0  0
  -26.0098  -11.4725   21.0424 N   0  0  0  0  0  0  0  0  0  0  0  0
  -26.2891  -12.4963   20.2179 N   0  0  0  0  0  0  0  0  0  0  0  0
  -24.3386  -27.3236   24.6158 N   0  0  0  0  0  0  0  0  0  0  0  0
  -29.8474  -13.8823   20.2449 N   0  0  0  0  0  0  0  0  0  0  0  0
  -25.2995  -14.2991   19.0425 N   0  0  0  0  0  0  0  0  0  0  0  0
  -22.3115  -14.0263   21.3643 N   0  0  0  0  0  0  0  0  0  0  0  0
  -29.5861  -16.2042   19.9244 N   0  0  0  0  0  0  0  0  0  0  0  0
  -20.8953  -28.1793   23.7743 N   0  0  0  0  0  0  0  0  0  0  0  0
  -27.1597  -27.2700   25.9199 N   0  0  0  0  0  0  0  0  0  0  0  0
  -27.8048  -21.3381   19.1366 N   0  3  1  0  0  0  0  0  0  0  0  0
  -29.6229  -24.8025   24.9651 N   0  3  0  0  0  0  0  0  0  0  0  0
  -21.9693  -12.6480   19.5638 O   0  0  0  0  0  0  0  0  0  0  0  0
  -23.0042  -28.9867   23.2054 O   0  0  0  0  0  0  0  0  0  0  0  0
  -24.3562  -28.4162   26.6755 O   0  0  0  0  0  0  0  0  0  0  0  0
  -28.8388  -27.4286   24.3285 O   0  0  0  0  0  0  0  0  0  0  0  0
  -31.6144  -15.1663   19.4880 O   0  0  0  0  0  0  0  0  0  0  0  0
  -21.9964   -7.9150   24.4753 O   0  0  0  0  0  0  0  0  0  0  0  0
  -25.1285  -23.9531   19.5101 O   0  0  0  0  0  0  0  0  0  1  0  0
  -21.1642   -2.8405   22.4851 F   0  0  0  0  0  0  0  0  0  0  0  0
  -19.4380   -6.9125   24.1718 F   0  0  0  0  0  0  0  0  0  0  0  0
  -33.3081  -19.5426   20.9682 Cl  0  0  0  0  0  0  0  0  0  0  0  0
  1  2  1  0  0  0  0
  1  5  2  0  0  0  0
  2  6  2  0  0  0  0
  3  8  2  0  0  0  0
  3 16  1  0  0  0  0
  4  9  1  0  0  0  0
  4 16  2  0  0  0  0
  5 18  1  0  0  0  0
  6 20  1  0  0  0  0
  7 10  2  0  0  0  0
  7 19  1  0  0  0  0
  8 26  1  0  0  0  0
  9 26  2  0  0  0  0
 10 27  1  0  0  0  0
 11 12  2  0  0  0  0
 11 28  1  0  0  0  0
 12 29  1  0  0  0  0
 13 21  1  0  0  0  0
 13 27  2  0  0  0  0
 14 25  2  0  0  0  0
 14 31  1  0  0  0  0
 15 29  2  0  0  0  0
 15 30  1  0  0  0  0
 16 32  1  0  0  0  0
 17 32  1  0  0  0  0
 17 33  2  0  0  0  0
 17 36  1  0  0  0  0
 18 20  2  0  0  0  0
 18 41  1  0  0  0  0
 19 21  2  0  0  0  0
 19 42  1  0  0  0  0
 20 53  1  0  0  0  0
 21 43  1  0  0  0  0
 22 23  2  0  0  0  0
 22 24  1  0  0  0  0
 22 64  1  0  0  0  0
 23 25  1  0  0  0  0
 23 57  1  0  0  0  0
 24 31  2  0  0  0  0
 24 58  1  0  0  0  0
 25 74  1  0  0  0  0
 26 84  1  0  0  0  0
 27 85  1  0  0  0  0
 28 30  2  0  0  0  0
 28 84  1  0  0  0  0
 29 86  1  0  0  0  0
 30 87  1  0  0  0  0
 31 88  1  0  0  0  0
 32 68  2  0  0  0  0
 33 69  1  0  0  0  0
 33 72  1  0  0  0  0
 34 35  2  0  0  0  0
 34 54  1  0  0  0  0
 34 77  1  0  0  0  0
 36 73  1  0  0  0  0
 36 79  2  0  0  0  0
 37 55  1  0  0  0  0
 37 75  1  0  0  0  0
 37 80  2  0  0  0  0
 38 65  1  0  0  0  0
 38 70  1  0  0  0  0
 38 81  2  0  0  0  0
 39 66  1  0  0  0  0
 39 76  1  0  0  0  0
 39 82  2  0  0  0  0
 40 71  1  0  0  0  0
 40 74  1  0  0  0  0
 40 83  2  0  0  0  0
 41 44  1  0  0  0  0
 42 55  1  0  0  0  0
 43 70  1  0  0  0  0
 44 47  1  0  0  0  0
 45 49  1  0  0  0  0
 45 50  1  0  0  0  0
 46 48  1  0  0  0  0
 46 52  1  0  0  0  0
 47 53  1  0  0  0  0
 48 54  1  0  0  0  0
 49 56  1  0  0  0  0
 50 71  1  0  0  0  0
 51 56  1  0  0  0  0
 51 71  1  0  0  0  0
 52 77  1  0  0  0  0
 53 75  1  0  0  0  0
 54 85  1  0  0  0  0
 55 70  1  0  0  0  0
 56 69  1  0  0  0  0
 59 66  1  0  0  0  0
 60 67  1  0  0  0  0
 61 67  1  0  0  0  0
 62 67  1  0  0  0  0
 63 78  1  0  0  0  0
 64 77  1  0  0  0  0
 65 67  1  0  0  0  0
 65 76  1  0  0  0  0
 66 78  1  0  0  0  0
 68 69  1  0  0  0  0
M  CHG  2  77   1  78   1
M  ISO  4  40 100  54 101  74 100  85 101
M  END
> <Batch ID>
0037

> <Smiles>
C=C1N(Cc2c(C)c(Cl)cc([100NH:0][100C:0](=O)N3CCCC(n4nc(-c5ccc(Oc6ccc(F)cc6F)cc5)c(C(N)=O)c4N)C3)c2C)CCC[101CH:1]1[101O:1]c1ccc2c(c1)CN(C(=O)C(NC(=O)C(C)NC)C(C)(C)C)C(C(=O)NC1CCCc3ccccc31)C2

> <Shape>
0.276

> <Color>
0.110

> <Negative vol penalty>
0.000

$$$$

  -OEChem-04042321573D

 90 99  0     1  0  0  0  0  0999 V2000
  -17.2912  -30.9476   23.4067 C   0  0  0  0  0  0  0  0  0  0  0  0
  -18.6287  -31.3092   23.2805 C   0  0  0  0  0  0  0  0  0  0  0  0
  -27.0447  -13.0476   19.1700 C   0  0  0  0  0  0  0  0  0  0  0  0
  -25.2881  -13.7436   20.6756 C   0  0  0  0  0  0  0  0  0  0  0  0
  -16.9244  -29.6040   23.3415 C   0  0  0  0  0  0  0  0  0  0  0  0
  -19.6003  -30.3272   23.0902 C   0  0  0  0  0  0  0  0  0  0  0  0
  -25.8766  -29.2450   19.8111 C   0  0  0  0  0  0  0  0  0  0  0  0
  -26.3315  -11.8858   18.8749 C   0  0  0  0  0  0  0  0  0  0  0  0
  -24.5748  -12.5818   20.3805 C   0  0  0  0  0  0  0  0  0  0  0  0
  -27.1694  -28.7977   20.0801 C   0  0  0  0  0  0  0  0  0  0  0  0
  -24.6528   -9.3188   21.2624 C   0  0  0  0  0  0  0  0  0  0  0  0
  -24.0880   -8.6171   22.3273 C   0  0  0  0  0  0  0  0  0  0  0  0
  -26.4097  -26.5149   19.9043 C   0  0  0  0  0  0  0  0  0  0  0  0
  -21.8930   -8.9246   21.3657 C   0  0  0  0  0  0  0  0  0  0  0  0
  -26.5231  -13.9765   20.0704 C   0  0  0  0  0  0  0  0  0  0  0  0
  -28.5472  -15.2636   20.9386 C   0  0  0  0  0  0  0  0  0  0  0  0
  -17.8909  -28.6059   23.1406 C   0  0  0  0  0  0  0  0  0  0  0  0
  -24.8366  -28.3290   19.5970 C   0  0  0  0  0  0  0  0  0  0  0  0
  -19.2462  -28.9689   23.0236 C   0  0  0  0  0  0  0  0  0  0  0  0
  -25.1051  -26.9532   19.6301 C   0  0  0  0  0  0  0  0  0  0  0  0
  -33.5035  -23.5561   18.3738 C   0  0  0  0  0  0  0  0  0  0  0  0
  -33.1849  -22.5838   17.4258 C   0  0  0  0  0  0  0  0  0  0  0  0
  -32.6601  -23.7701   19.4640 C   0  0  0  0  0  0  0  0  0  0  0  0
  -32.0227  -21.8257   17.5678 C   0  0  0  0  0  0  0  0  0  0  0  0
  -31.4979  -23.0120   19.6060 C   0  0  0  0  0  0  0  0  0  0  0  0
  -31.1792  -22.0397   18.6579 C   0  0  0  0  0  0  0  0  0  0  0  0
  -25.0965  -11.6529   19.4801 C   0  0  0  0  0  0  0  0  0  0  0  0
  -27.4355  -27.4325   20.1297 C   0  0  0  0  0  0  0  0  0  0  0  0
  -23.8377   -9.8236   20.2492 C   0  0  0  0  0  0  0  0  0  0  0  0
  -22.7081   -8.4199   22.3790 C   0  0  0  0  0  0  0  0  0  0  0  0
  -22.4579   -9.6265   20.3008 C   0  0  0  0  0  0  0  0  0  0  0  0
  -27.2597  -15.1765   20.3761 C   0  0  0  0  0  0  0  0  0  0  0  0
  -28.7927  -16.6121   21.0271 C   0  0  0  0  0  0  0  0  0  0  0  0
  -31.7877  -26.7673   19.6907 C   0  0  0  0  0  0  0  0  0  0  0  0
  -31.3497  -26.8000   18.4207 C   0  0  0  0  0  0  0  0  0  0  0  0
  -29.4413  -14.2190   21.3448 C   0  0  0  0  0  0  0  0  0  0  0  0
  -22.0929  -27.6683   21.0595 C   0  0  0  0  0  0  0  0  0  0  0  0
  -21.6689  -25.6879   18.5256 C   0  0  0  0  0  0  0  0  0  0  0  0
  -23.0760  -23.8476   16.0196 C   0  0  0  0  0  0  0  0  0  0  0  0
  -28.6857  -21.7357   18.8497 C   0  0  0  0  0  0  0  0  0  0  0  0
  -17.4519  -27.1631   23.1243 C   0  0  0  0  0  0  0  0  0  0  0  0
  -23.4531  -28.8277   19.2814 C   0  0  0  0  0  0  0  0  0  0  0  0
  -24.0279  -25.9289   19.3873 C   0  0  0  0  0  0  0  0  0  0  0  0
  -18.4985  -26.2144   22.5457 C   0  0  0  0  0  0  0  0  0  0  0  0
  -25.7010  -20.5711   20.4029 C   0  0  0  0  0  0  0  0  0  0  0  0
  -33.3071  -27.6174   21.9670 C   0  0  0  0  0  0  0  0  0  0  0  0
  -19.8730  -26.5113   23.1369 C   0  0  0  0  0  0  0  0  0  0  0  0
  -31.9433  -28.2455   21.6915 C   0  0  0  0  0  0  0  0  0  0  0  0
  -25.9464  -19.0710   20.5807 C   0  0  0  0  0  0  0  0  0  0  0  0
  -26.2982  -21.0926   19.0971 C   0  0  0  0  0  0  0  0  0  0  0  0
  -27.9633  -19.2771   19.0719 C   0  0  0  0  0  0  0  0  0  0  0  0
  -33.9771  -27.1486   20.6814 C   0  0  0  0  0  0  0  0  0  0  0  0
  -20.3264  -27.9349   22.7914 C   0  0  1  0  0  0  0  0  0  0  0  0
  -31.0329  -27.2929   20.9018 C   0  0  1  0  0  0  0  0  0  0  0  0
  -22.3645  -27.8038   19.5879 C   0  0  1  0  0  0  0  0  0  0  0  0
  -27.4364  -18.7188   20.4039 C   0  0  2  0  0  0  0  0  0  0  0  0
  -34.7504  -24.3692   18.2216 C   0  0  0  0  0  0  0  0  0  0  0  0
  -34.0904  -22.3544   16.2566 C   0  0  0  0  0  0  0  0  0  0  0  0
  -31.6848  -20.7831   16.5475 C   0  0  0  0  0  0  0  0  0  0  0  0
  -30.5958  -23.2444   20.7783 C   0  0  0  0  0  0  0  0  0  0  0  0
  -22.4766  -22.3051   14.1331 C   0  0  0  0  0  0  0  0  0  0  0  0
  -21.1689  -23.4392   20.5265 C   0  0  0  0  0  0  0  0  0  0  0  0
  -21.5227  -21.8003   18.6671 C   0  0  0  0  0  0  0  0  0  0  0  0
  -19.6406  -23.4331   18.5469 C   0  0  0  0  0  0  0  0  0  0  0  0
  -24.2477  -25.6700   14.0034 C   0  0  0  0  0  0  0  0  0  0  0  0
  -33.0036  -24.8159   20.4835 C   0  0  0  0  0  0  0  0  0  0  0  0
  -29.6983  -27.9862   20.6082 C   0  0  0  0  0  0  0  0  0  1  0  0
  -22.0118  -24.2489   18.2243 C   0  0  1  0  0  0  0  0  0  0  0  0
  -22.7501  -23.7445   14.5405 C   0  0  2  0  0  0  0  0  0  0  0  0
  -21.1061  -23.2494   18.9977 C   0  0  0  0  0  0  0  0  0  0  0  0
  -26.7245  -16.3743   20.1250 N   0  0  0  0  0  0  0  0  0  0  0  0
  -27.6805  -17.2268   20.5318 N   0  0  0  0  0  0  0  0  0  0  0  0
  -22.6901  -26.4662   19.0889 N   0  0  0  0  0  0  0  0  0  0  0  0
  -27.7127  -20.7252   19.0009 N   0  0  0  0  0  0  0  0  0  0  0  0
  -29.8493  -17.3202   21.4795 N   0  0  0  0  0  0  0  0  0  0  0  0
  -29.3639  -13.7481   22.6626 N   0  0  0  0  0  0  0  0  0  0  0  0
  -29.9990  -21.2690   18.8024 N   0  0  0  0  0  0  0  0  0  0  0  0
  -20.8015  -27.9965   21.4258 N   0  0  0  0  0  0  0  0  0  0  0  0
  -21.9516  -24.1102   16.7733 N   0  0  0  0  0  0  0  0  0  0  0  0
  -33.1032  -26.1981   19.8992 N   0  3  1  0  0  0  0  0  0  0  0  0
  -23.8859  -24.2567   13.7229 N   0  3  0  0  0  0  0  0  0  0  0  0
  -30.2951  -13.7294   20.5671 O   0  0  0  0  0  0  0  0  0  0  0  0
  -22.9881  -27.2924   21.8071 O   0  0  0  0  0  0  0  0  0  0  0  0
  -20.5389  -26.1078   18.2641 O   0  0  0  0  0  0  0  0  0  0  0  0
  -24.2136  -23.7054   16.4625 O   0  0  0  0  0  0  0  0  0  0  0  0
  -28.3788  -22.9293   18.7956 O   0  0  0  0  0  0  0  0  0  0  0  0
  -24.4001  -10.5195   19.1922 O   0  0  0  0  0  0  0  0  0  0  0  0
  -28.6963  -26.9932   20.3928 O   0  0  0  0  0  0  0  0  0  1  0  0
  -22.1659   -7.7446   23.4009 F   0  0  0  0  0  0  0  0  0  0  0  0
  -21.6698  -10.1080   19.3298 F   0  0  0  0  0  0  0  0  0  0  0  0
  1  2  1  0  0  0  0
  1  5  2  0  0  0  0
  2  6  2  0  0  0  0
  3  8  2  0  0  0  0
  3 15  1  0  0  0  0
  4  9  1  0  0  0  0
  4 15  2  0  0  0  0
  5 17  1  0  0  0  0
  6 19  1  0  0  0  0
  7 10  2  0  0  0  0
  7 18  1  0  0  0  0
  8 27  1  0  0  0  0
  9 27  2  0  0  0  0
 10 28  1  0  0  0  0
 11 12  2  0  0  0  0
 11 29  1  0  0  0  0
 12 30  1  0  0  0  0
 13 20  1  0  0  0  0
 13 28  2  0  0  0  0
 14 30  2  0  0  0  0
 14 31  1  0  0  0  0
 15 32  1  0  0  0  0
 16 32  1  0  0  0  0
 16 33  2  0  0  0  0
 16 36  1  0  0  0  0
 17 19  2  0  0  0  0
 17 41  1  0  0  0  0
 18 20  2  0  0  0  0
 18 42  1  0  0  0  0
 19 53  1  0  0  0  0
 20 43  1  0  0  0  0
 21 22  2  0  0  0  0
 21 23  1  0  0  0  0
 21 57  1  0  0  0  0
 22 24  1  0  0  0  0
 22 58  1  0  0  0  0
 23 25  2  0  0  0  0
 23 66  1  0  0  0  0
 24 26  2  0  0  0  0
 24 59  1  0  0  0  0
 25 26  1  0  0  0  0
 25 60  1  0  0  0  0
 26 77  1  0  0  0  0
 27 87  1  0  0  0  0
 28 88  1  0  0  0  0
 29 31  2  0  0  0  0
 29 87  1  0  0  0  0
 30 89  1  0  0  0  0
 31 90  1  0  0  0  0
 32 71  2  0  0  0  0
 33 72  1  0  0  0  0
 33 75  1  0  0  0  0
 34 35  2  0  0  0  0
 34 54  1  0  0  0  0
 34 80  1  0  0  0  0
 36 76  1  0  0  0  0
 36 82  2  0  0  0  0
 37 55  1  0  0  0  0
 37 78  1  0  0  0  0
 37 83  2  0  0  0  0
 38 68  1  0  0  0  0
 38 73  1  0  0  0  0
 38 84  2  0  0  0  0
 39 69  1  0  0  0  0
 39 79  1  0  0  0  0
 39 85  2  0  0  0  0
 40 74  1  0  0  0  0
 40 77  1  0  0  0  0
 40 86  2  0  0  0  0
 41 44  1  0  0  0  0
 42 55  1  0  0  0  0
 43 73  1  0  0  0  0
 44 47  1  0  0  0  0
 45 49  1  0  0  0  0
 45 50  1  0  0  0  0
 46 48  1  0  0  0  0
 46 52  1  0  0  0  0
 47 53  1  0  0  0  0
 48 54  1  0  0  0  0
 49 56  1  0  0  0  0
 50 74  1  0  0  0  0
 51 56  1  0  0  0  0
 51 74  1  0  0  0  0
 52 80  1  0  0  0  0
 53 78  1  0  0  0  0
 54 67  1  0  0  0  0
 55 73  1  0  0  0  0
 56 72  1  0  0  0  0
 61 69  1  0  0  0  0
 62 70  1  0  0  0  0
 63 70  1  0  0  0  0
 64 70  1  0  0  0  0
 65 81  1  0  0  0  0
 66 80  1  0  0  0  0
 67 88  1  0  0  0  0
 68 70  1  0  0  0  0
 68 79  1  0  0  0  0
 69 81  1  0  0  0  0
 71 72  1  0  0  0  0
M  CHG  2  80   1  81   1
M  ISO  4  40 100  67 101  77 100  88 101
M  END
> <Batch ID>
0037

> <Smiles>
C=C1C([101CH2:1][101O:1]c2ccc3c(c2)CN(C(=O)C(NC(=O)C(C)NC)C(C)(C)C)C(C(=O)NC2CCCc4ccccc42)C3)CCCN1Cc1c(C)c(C)c(C)c([100NH:0][100C:0](=O)N2CCCC(n3nc(-c4ccc(Oc5ccc(F)cc5F)cc4)c(C(N)=O)c3N)C2)c1C

> <Shape>
0.277

> <Color>
0.096

> <Negative vol penalty>
0.000

$$$$

  -OEChem-04042321573D

 90 99  0     1  0  0  0  0  0999 V2000
  -27.2195  -33.9608   20.5771 C   0  0  0  0  0  0  0  0  0  0  0  0
  -27.5099  -32.6239   20.8297 C   0  0  0  0  0  0  0  0  0  0  0  0
  -22.5581  -11.5445   21.7490 C   0  0  0  0  0  0  0  0  0  0  0  0
  -23.2309  -13.8645   21.7955 C   0  0  0  0  0  0  0  0  0  0  0  0
  -26.0237  -34.5119   21.0356 C   0  0  0  0  0  0  0  0  0  0  0  0
  -26.6050  -31.8376   21.5420 C   0  0  0  0  0  0  0  0  0  0  0  0
  -25.9126  -27.2836   19.4380 C   0  0  0  0  0  0  0  0  0  0  0  0
  -21.5353  -11.8229   22.6557 C   0  0  0  0  0  0  0  0  0  0  0  0
  -22.2081  -14.1429   22.7022 C   0  0  0  0  0  0  0  0  0  0  0  0
  -26.9028  -26.3259   19.6526 C   0  0  0  0  0  0  0  0  0  0  0  0
  -18.8681  -14.6492   22.6084 C   0  0  0  0  0  0  0  0  0  0  0  0
  -18.0947  -15.7875   22.3811 C   0  0  0  0  0  0  0  0  0  0  0  0
  -25.5503  -25.3235   21.3804 C   0  0  0  0  0  0  0  0  0  0  0  0
  -29.3948  -17.9795   18.9708 C   0  0  0  0  0  0  0  0  0  0  0  0
  -31.4842  -17.4217   20.0480 C   0  0  0  0  0  0  0  0  0  0  0  0
  -18.7735  -16.6765   24.5226 C   0  0  0  0  0  0  0  0  0  0  0  0
  -23.4059  -12.5653   21.3190 C   0  0  0  0  0  0  0  0  0  0  0  0
  -24.3280  -11.7594   19.0811 C   0  0  0  0  0  0  0  0  0  0  0  0
  -25.0993  -33.7294   21.7455 C   0  0  0  0  0  0  0  0  0  0  0  0
  -24.7366  -27.2751   20.2017 C   0  0  0  0  0  0  0  0  0  0  0  0
  -25.3963  -32.3791   22.0115 C   0  0  0  0  0  0  0  0  0  0  0  0
  -24.5456  -26.2807   21.1718 C   0  0  0  0  0  0  0  0  0  0  0  0
  -29.7440  -19.3297   18.9924 C   0  0  0  0  0  0  0  0  0  0  0  0
  -31.8335  -18.7720   20.0695 C   0  0  0  0  0  0  0  0  0  0  0  0
  -30.9634  -19.7260   19.5417 C   0  0  0  0  0  0  0  0  0  0  0  0
  -30.2648  -17.0255   19.4987 C   0  0  0  0  0  0  0  0  0  0  0  0
  -21.3603  -13.1221   23.1322 C   0  0  0  0  0  0  0  0  0  0  0  0
  -26.7230  -25.3474   20.6259 C   0  0  0  0  0  0  0  0  0  0  0  0
  -19.5942  -14.5245   23.7929 C   0  0  0  0  0  0  0  0  0  0  0  0
  -18.0474  -16.8011   23.3381 C   0  0  0  0  0  0  0  0  0  0  0  0
  -19.5469  -15.5381   24.7499 C   0  0  0  0  0  0  0  0  0  0  0  0
  -24.4630  -12.2782   20.3828 C   0  0  0  0  0  0  0  0  0  0  0  0
  -25.6157  -11.6719   18.6112 C   0  0  0  0  0  0  0  0  0  0  0  0
  -28.1700  -22.4719   19.5263 C   0  0  0  0  0  0  0  0  0  0  0  0
  -23.1446  -11.3897   18.3611 C   0  0  0  0  0  0  0  0  0  0  0  0
  -23.3673  -29.2991   22.2345 C   0  0  0  0  0  0  0  0  0  0  0  0
  -20.9489  -27.1389   22.1492 C   0  0  0  0  0  0  0  0  0  0  0  0
  -20.6266  -23.5454   22.1493 C   0  0  0  0  0  0  0  0  0  0  0  0
  -30.6590  -14.5800   19.9576 C   0  0  0  0  0  0  0  0  0  0  0  0
  -23.8413  -34.3816   22.2619 C   0  0  0  0  0  0  0  0  0  0  0  0
  -23.6665  -28.2990   19.9396 C   0  0  0  0  0  0  0  0  0  0  0  0
  -23.2924  -26.2156   22.0046 C   0  0  0  0  0  0  0  0  0  0  0  0
  -22.7669  -33.3830   22.6847 C   0  0  0  0  0  0  0  0  0  0  0  0
  -27.2601  -20.7850   21.7730 C   0  0  0  0  0  0  0  0  0  0  0  0
  -30.1197  -11.0643   20.1207 C   0  0  0  0  0  0  0  0  0  0  0  0
  -23.3738  -32.2774   23.5428 C   0  0  0  0  0  0  0  0  0  0  0  0
  -27.5646  -22.2732   21.9343 C   0  0  0  0  0  0  0  0  0  0  0  0
  -28.5958  -10.9291   20.0819 C   0  0  0  0  0  0  0  0  0  0  0  0
  -27.1695  -20.3453   20.3144 C   0  0  0  0  0  0  0  0  0  0  0  0
  -30.5601  -12.2904   20.9185 C   0  0  0  0  0  0  0  0  0  0  0  0
  -28.4192  -13.4212   20.4635 C   0  0  0  0  0  0  0  0  0  0  0  0
  -24.4289  -31.4873   22.7593 C   0  0  1  0  0  0  0  0  0  0  0  0
  -27.3241  -23.0559   20.6497 C   0  0  1  0  0  0  0  0  0  1  0  0
  -22.7325  -28.5049   21.1282 C   0  0  1  0  0  0  0  0  0  0  0  0
  -27.9257  -12.2368   19.6165 C   0  0  2  0  0  0  0  0  0  0  0  0
  -31.3381  -21.1738   19.5642 C   0  0  0  0  0  0  0  0  0  0  0  0
  -18.8190  -22.0694   21.2265 C   0  0  0  0  0  0  0  0  0  0  0  0
  -19.8020  -27.2683   24.9737 C   0  0  0  0  0  0  0  0  0  0  0  0
  -19.1633  -24.8579   24.7498 C   0  0  0  0  0  0  0  0  0  0  0  0
  -18.1705  -26.5570   23.2169 C   0  0  0  0  0  0  0  0  0  0  0  0
  -22.5560  -22.0084   20.5141 C   0  0  0  0  0  0  0  0  0  0  0  0
  -28.7896  -20.3365   18.4184 C   0  0  0  0  0  0  0  0  0  0  0  0
  -20.5950  -25.8987   22.9338 C   0  0  1  0  0  0  0  0  0  0  0  0
  -20.1945  -22.6717   20.9855 C   0  0  2  0  0  0  0  0  0  0  0  0
  -33.1451  -19.1699   20.6633 C   0  0  0  0  0  0  0  0  0  0  0  0
  -19.4597  -26.1537   23.9651 C   0  0  0  0  0  0  0  0  0  0  0  0
  -25.7359  -12.5043   20.7184 N   0  0  0  0  0  0  0  0  0  0  0  0
  -26.4125  -12.1256   19.6208 N   0  0  0  0  0  0  0  0  0  0  0  0
  -28.0928  -21.0783   19.4559 N   0  0  0  0  0  0  0  0  0  0  0  0
  -22.2780  -27.2427   21.7152 N   0  0  0  0  0  0  0  0  0  0  0  0
  -29.8881  -13.4920   20.4189 N   0  0  0  0  0  0  0  0  0  0  0  0
  -26.1327  -11.2518   17.4371 N   0  0  0  0  0  0  0  0  0  0  0  0
  -21.9028  -11.5438   18.9925 N   0  0  0  0  0  0  0  0  0  0  0  0
  -29.9107  -15.6537   19.4760 N   0  0  0  0  0  0  0  0  0  0  0  0
  -23.7927  -30.5568   21.8516 N   0  0  0  0  0  0  0  0  0  0  0  0
  -20.2874  -24.8668   21.9494 N   0  0  0  0  0  0  0  0  0  0  0  0
  -21.1658  -21.5595   20.7842 N   0  3  0  0  0  0  0  0  0  0  0  0
  -28.8308  -23.1820   18.7704 O   0  0  0  0  0  0  0  0  0  0  0  0
  -23.1881  -10.9207   17.1985 O   0  0  0  0  0  0  0  0  0  0  0  0
  -23.4627  -28.8077   23.3531 O   0  0  0  0  0  0  0  0  0  0  0  0
  -20.0763  -27.9811   21.9234 O   0  0  0  0  0  0  0  0  0  0  0  0
  -21.2037  -23.0996   23.1386 O   0  0  0  0  0  0  0  0  0  0  0  0
  -31.8923  -14.5498   19.9624 O   0  0  0  0  0  0  0  0  0  0  0  0
  -20.3622  -13.3942   24.0168 O   0  0  0  0  0  0  0  0  0  0  0  0
  -27.6881  -24.4118   20.8379 O   0  0  0  0  0  0  0  0  0  1  0  0
  -17.3058  -17.8948   23.1189 F   0  0  0  0  0  0  0  0  0  0  0  0
  -20.2433  -15.4245   25.8892 F   0  0  0  0  0  0  0  0  0  0  0  0
  -33.8733  -18.1152   21.1331 F   0  0  0  0  0  0  0  0  0  0  0  0
  -33.9692  -19.8104   19.7836 F   0  0  0  0  0  0  0  0  0  0  0  0
  -33.0039  -20.0198   21.7208 F   0  0  0  0  0  0  0  0  0  0  0  0
  1  2  1  0  0  0  0
  1  5  2  0  0  0  0
  2  6  2  0  0  0  0
  3  8  2  0  0  0  0
  3 17  1  0  0  0  0
  4  9  1  0  0  0  0
  4 17  2  0  0  0  0
  5 19  1  0  0  0  0
  6 21  1  0  0  0  0
  7 10  2  0  0  0  0
  7 20  1  0  0  0  0
  8 27  1  0  0  0  0
  9 27  2  0  0  0  0
 10 28  1  0  0  0  0
 11 12  2  0  0  0  0
 11 29  1  0  0  0  0
 12 30  1  0  0  0  0
 13 22  1  0  0  0  0
 13 28  2  0  0  0  0
 14 23  1  0  0  0  0
 14 26  2  0  0  0  0
 15 24  2  0  0  0  0
 15 26  1  0  0  0  0
 16 30  2  0  0  0  0
 16 31  1  0  0  0  0
 17 32  1  0  0  0  0
 18 32  1  0  0  0  0
 18 33  2  0  0  0  0
 18 35  1  0  0  0  0
 19 21  2  0  0  0  0
 19 40  1  0  0  0  0
 20 22  2  0  0  0  0
 20 41  1  0  0  0  0
 21 52  1  0  0  0  0
 22 42  1  0  0  0  0
 23 25  2  0  0  0  0
 23 62  1  0  0  0  0
 24 25  1  0  0  0  0
 24 65  1  0  0  0  0
 25 56  1  0  0  0  0
 26 74  1  0  0  0  0
 27 84  1  0  0  0  0
 28 85  1  0  0  0  0
 29 31  2  0  0  0  0
 29 84  1  0  0  0  0
 30 86  1  0  0  0  0
 31 87  1  0  0  0  0
 32 67  2  0  0  0  0
 33 68  1  0  0  0  0
 33 72  1  0  0  0  0
 34 53  1  0  0  0  0
 34 69  1  0  0  0  0
 34 78  2  0  0  0  0
 35 73  1  0  0  0  0
 35 79  2  0  0  0  0
 36 54  1  0  0  0  0
 36 75  1  0  0  0  0
 36 80  2  0  0  0  0
 37 63  1  0  0  0  0
 37 70  1  0  0  0  0
 37 81  2  0  0  0  0
 38 64  1  0  0  0  0
 38 76  1  0  0  0  0
 38 82  2  0  0  0  0
 39 71  1  0  0  0  0
 39 74  1  0  0  0  0
 39 83  2  0  0  0  0
 40 43  1  0  0  0  0
 41 54  1  0  0  0  0
 42 70  1  0  0  0  0
 43 46  1  0  0  0  0
 44 47  1  0  0  0  0
 44 49  1  0  0  0  0
 45 48  1  0  0  0  0
 45 50  1  0  0  0  0
 46 52  1  0  0  0  0
 47 53  1  0  0  0  0
 48 55  1  0  0  0  0
 49 69  1  0  0  0  0
 50 71  1  0  0  0  0
 51 55  1  0  0  0  0
 51 71  1  0  0  0  0
 52 75  1  0  0  0  0
 53 85  1  0  0  0  0
 54 70  1  0  0  0  0
 55 68  1  0  0  0  0
 57 64  1  0  0  0  0
 58 66  1  0  0  0  0
 59 66  1  0  0  0  0
 60 66  1  0  0  0  0
 61 77  1  0  0  0  0
 62 69  1  0  0  0  0
 63 66  1  0  0  0  0
 63 76  1  0  0  0  0
 64 77  1  0  0  0  0
 65 88  1  0  0  0  0
 65 89  1  0  0  0  0
 65 90  1  0  0  0  0
 67 68  1  0  0  0  0
M  CHG  1  77   1
M  ISO  4  39 100  53 101  74 100  85 101
M  END
> <Batch ID>
0037

> <Smiles>
CNC(C)C(=O)NC(C(=O)N1Cc2cc([101O:1][101CH:1]3CCCN(Cc4cc([100NH:0][100C:0](=O)N5CCCC(n6nc(-c7ccc(Oc8ccc(F)cc8F)cc7)c(C(N)=O)c6N)C5)cc(C(F)(F)F)c4C)C3=O)ccc2CC1C(=O)NC1CCCc2ccccc21)C(C)(C)C

> <Shape>
0.238

> <Color>
0.080

> <Negative vol penalty>
0.000

$$$$

  -OEChem-04042321573D

 86 95  0     1  0  0  0  0  0999 V2000
  -22.0554   -8.4144   21.2642 C   0  0  0  0  0  0  0  0  0  0  0  0
  -22.5637   -9.0347   22.3999 C   0  0  0  0  0  0  0  0  0  0  0  0
  -19.8931  -28.4088   23.4575 C   0  0  0  0  0  0  0  0  0  0  0  0
  -21.1910  -26.5131   22.7101 C   0  0  0  0  0  0  0  0  0  0  0  0
  -22.6253   -8.6730   20.0194 C   0  0  0  0  0  0  0  0  0  0  0  0
  -23.6343   -9.9227   22.2897 C   0  0  0  0  0  0  0  0  0  0  0  0
  -29.1682  -16.0993   23.0815 C   0  0  0  0  0  0  0  0  0  0  0  0
  -30.7722  -25.1586   19.9704 C   0  0  0  0  0  0  0  0  0  0  0  0
  -30.0414  -26.2667   20.3988 C   0  0  0  0  0  0  0  0  0  0  0  0
  -18.7310  -27.8000   22.9837 C   0  0  0  0  0  0  0  0  0  0  0  0
  -20.0289  -25.9043   22.2363 C   0  0  0  0  0  0  0  0  0  0  0  0
  -29.9038  -16.8775   22.1887 C   0  0  0  0  0  0  0  0  0  0  0  0
  -17.4209  -24.1806   23.5199 C   0  0  0  0  0  0  0  0  0  0  0  0
  -17.2363  -22.8282   23.8070 C   0  0  0  0  0  0  0  0  0  0  0  0
  -27.9884  -17.0005   20.7274 C   0  0  0  0  0  0  0  0  0  0  0  0
  -29.6773  -23.7927   21.6355 C   0  0  0  0  0  0  0  0  0  0  0  0
  -17.1723  -22.3351   21.4427 C   0  0  0  0  0  0  0  0  0  0  0  0
  -21.1231  -27.7654   23.3207 C   0  0  0  0  0  0  0  0  0  0  0  0
  -22.6037  -28.7778   25.1346 C   0  0  0  0  0  0  0  0  0  0  0  0
  -23.7114   -9.5552   19.8964 C   0  0  0  0  0  0  0  0  0  0  0  0
  -27.8384  -15.7561   22.7983 C   0  0  0  0  0  0  0  0  0  0  0  0
  -24.2077  -10.2151   21.0389 C   0  0  0  0  0  0  0  0  0  0  0  0
  -27.2374  -16.2199   21.6195 C   0  0  0  0  0  0  0  0  0  0  0  0
  -30.5902  -23.9215   20.5887 C   0  0  0  0  0  0  0  0  0  0  0  0
  -28.9465  -24.9008   22.0639 C   0  0  0  0  0  0  0  0  0  0  0  0
  -29.1285  -26.1378   21.4456 C   0  0  0  0  0  0  0  0  0  0  0  0
  -18.7989  -26.5478   22.3731 C   0  0  0  0  0  0  0  0  0  0  0  0
  -29.3148  -17.3258   21.0100 C   0  0  0  0  0  0  0  0  0  0  0  0
  -17.4811  -24.6103   22.1942 C   0  0  0  0  0  0  0  0  0  0  0  0
  -17.1121  -21.9054   22.7684 C   0  0  0  0  0  0  0  0  0  0  0  0
  -17.3568  -23.6876   21.1556 C   0  0  0  0  0  0  0  0  0  0  0  0
  -22.3240  -28.3940   23.8094 C   0  0  0  0  0  0  0  0  0  0  0  0
  -23.8623  -29.3245   25.0754 C   0  0  0  0  0  0  0  0  0  0  0  0
  -30.5402  -20.4210   20.3297 C   0  0  0  0  0  0  0  0  0  0  0  0
  -21.7980  -28.6514   26.3138 C   0  0  0  0  0  0  0  0  0  0  0  0
  -26.2762  -13.0271   22.3338 C   0  0  0  0  0  0  0  0  0  0  0  0
  -23.6820  -14.9738   22.2788 C   0  0  0  0  0  0  0  0  0  0  0  0
  -22.8370  -18.1966   20.8944 C   0  0  0  0  0  0  0  0  0  0  0  0
  -28.4704  -28.5676   21.3474 C   0  0  0  0  0  0  0  0  0  0  0  0
  -24.2848   -9.8047   18.5237 C   0  0  0  0  0  0  0  0  0  0  0  0
  -27.0502  -14.9383   23.7844 C   0  0  0  0  0  0  0  0  0  0  0  0
  -25.8065  -15.8963   21.2784 C   0  0  0  0  0  0  0  0  0  0  0  0
  -25.6850  -10.4080   18.5650 C   0  0  0  0  0  0  0  0  0  0  0  0
  -28.7709  -20.8708   18.0375 C   0  0  0  0  0  0  0  0  0  0  0  0
  -26.8072  -31.6285   22.0831 C   0  0  0  0  0  0  0  0  0  0  0  0
  -25.7104  -11.5984   19.5121 C   0  0  0  0  0  0  0  0  0  0  0  0
  -29.2326  -19.4669   18.3679 C   0  0  0  0  0  0  0  0  0  0  0  0
  -25.4969  -31.1815   22.7354 C   0  0  0  0  0  0  0  0  0  0  0  0
  -29.8716  -21.8620   18.3705 C   0  0  0  0  0  0  0  0  0  0  0  0
  -27.2311  -30.6860   20.9581 C   0  0  0  0  0  0  0  0  0  0  0  0
  -25.9908  -28.8201   21.9825 C   0  0  0  0  0  0  0  0  0  0  0  0
  -25.3913  -11.1612   20.9474 C   0  0  1  0  0  0  0  0  0  0  0  0
  -29.5338  -19.3822   19.8513 C   0  0  1  0  0  0  0  0  0  1  0  0
  -25.8636  -14.2188   23.1507 C   0  0  1  0  0  0  0  0  0  0  0  0
  -25.5569  -29.7024   23.1645 C   0  0  2  0  0  0  0  0  0  0  0  0
  -27.9777  -24.7343   23.1896 C   0  0  0  0  0  0  0  0  0  0  0  0
  -21.1585  -19.9050   21.6438 C   0  0  0  0  0  0  0  0  0  0  0  0
  -21.8254  -13.6007   20.2844 C   0  0  0  0  0  0  0  0  0  0  0  0
  -20.9204  -15.8557   19.6806 C   0  0  0  0  0  0  0  0  0  0  0  0
  -20.6614  -14.9915   22.0064 C   0  0  0  0  0  0  0  0  0  0  0  0
  -24.8926  -20.3205   21.0437 C   0  0  0  0  0  0  0  0  0  0  0  0
  -31.3787  -22.7294   20.1290 C   0  0  0  0  0  0  0  0  0  0  0  0
  -22.9413  -15.7379   21.2081 C   0  0  1  0  0  0  0  0  0  0  0  0
  -22.6208  -19.4876   21.6632 C   0  0  2  0  0  0  0  0  0  0  0  0
  -21.6150  -15.0410   20.7927 C   0  0  0  0  0  0  0  0  0  0  0  0
  -23.3243  -28.6734   22.9696 N   0  0  0  0  0  0  0  0  0  0  0  0
  -24.2449  -29.2386   23.7690 N   0  0  0  0  0  0  0  0  0  0  0  0
  -30.5159  -21.6500   19.6678 N   0  0  0  0  0  0  0  0  0  0  0  0
  -25.0794  -15.0884   22.2714 N   0  0  0  0  0  0  0  0  0  0  0  0
  -27.2699  -29.3032   21.4391 N   0  0  0  0  0  0  0  0  0  0  0  0
  -24.6680  -29.8656   26.0137 N   0  0  0  0  0  0  0  0  0  0  0  0
  -20.5300  -28.0658   26.1969 N   0  0  0  0  0  0  0  0  0  0  0  0
  -28.3958  -27.2753   21.8662 N   0  0  0  0  0  0  0  0  0  0  0  0
  -25.2191  -12.3371   21.7717 N   0  0  0  0  0  0  0  0  0  0  0  0
  -22.7694  -17.0936   21.7190 N   0  0  0  0  0  0  0  0  0  0  0  0
  -23.4313  -20.5872   21.0675 N   0  3  0  0  0  0  0  0  0  0  0  0
  -31.2694  -20.1720   21.2932 O   0  0  0  0  0  0  0  0  0  0  0  0
  -22.1842  -29.0608   27.4348 O   0  0  0  0  0  0  0  0  0  0  0  0
  -27.4656  -12.7548   22.2206 O   0  0  0  0  0  0  0  0  0  0  0  0
  -23.0438  -14.3057   23.0962 O   0  0  0  0  0  0  0  0  0  0  0  0
  -23.0414  -18.1691   19.6827 O   0  0  0  0  0  0  0  0  0  0  0  0
  -29.4971  -29.0578   20.8703 O   0  0  0  0  0  0  0  0  0  0  0  0
  -17.6651  -25.9533   21.9109 O   0  0  0  0  0  0  0  0  0  0  0  0
  -30.0307  -18.0850   20.1365 O   0  0  0  0  0  0  0  0  0  1  0  0
  -16.9364  -20.6064   23.0442 F   0  0  0  0  0  0  0  0  0  0  0  0
  -17.4150  -24.0943   19.8801 F   0  0  0  0  0  0  0  0  0  0  0  0
  1  2  1  0  0  0  0
  1  5  2  0  0  0  0
  2  6  2  0  0  0  0
  3 10  2  0  0  0  0
  3 18  1  0  0  0  0
  4 11  1  0  0  0  0
  4 18  2  0  0  0  0
  5 20  1  0  0  0  0
  6 22  1  0  0  0  0
  7 12  2  0  0  0  0
  7 21  1  0  0  0  0
  8  9  2  0  0  0  0
  8 24  1  0  0  0  0
  9 26  1  0  0  0  0
 10 27  1  0  0  0  0
 11 27  2  0  0  0  0
 12 28  1  0  0  0  0
 13 14  2  0  0  0  0
 13 29  1  0  0  0  0
 14 30  1  0  0  0  0
 15 23  1  0  0  0  0
 15 28  2  0  0  0  0
 16 24  2  0  0  0  0
 16 25  1  0  0  0  0
 17 30  2  0  0  0  0
 17 31  1  0  0  0  0
 18 32  1  0  0  0  0
 19 32  1  0  0  0  0
 19 33  2  0  0  0  0
 19 35  1  0  0  0  0
 20 22  2  0  0  0  0
 20 40  1  0  0  0  0
 21 23  2  0  0  0  0
 21 41  1  0  0  0  0
 22 52  1  0  0  0  0
 23 42  1  0  0  0  0
 24 62  1  0  0  0  0
 25 26  2  0  0  0  0
 25 56  1  0  0  0  0
 26 73  1  0  0  0  0
 27 83  1  0  0  0  0
 28 84  1  0  0  0  0
 29 31  2  0  0  0  0
 29 83  1  0  0  0  0
 30 85  1  0  0  0  0
 31 86  1  0  0  0  0
 32 66  2  0  0  0  0
 33 67  1  0  0  0  0
 33 71  1  0  0  0  0
 34 53  1  0  0  0  0
 34 68  1  0  0  0  0
 34 77  2  0  0  0  0
 35 72  1  0  0  0  0
 35 78  2  0  0  0  0
 36 54  1  0  0  0  0
 36 74  1  0  0  0  0
 36 79  2  0  0  0  0
 37 63  1  0  0  0  0
 37 69  1  0  0  0  0
 37 80  2  0  0  0  0
 38 64  1  0  0  0  0
 38 75  1  0  0  0  0
 38 81  2  0  0  0  0
 39 70  1  0  0  0  0
 39 73  1  0  0  0  0
 39 82  2  0  0  0  0
 40 43  1  0  0  0  0
 41 54  1  0  0  0  0
 42 69  1  0  0  0  0
 43 46  1  0  0  0  0
 44 47  1  0  0  0  0
 44 49  1  0  0  0  0
 45 48  1  0  0  0  0
 45 50  1  0  0  0  0
 46 52  1  0  0  0  0
 47 53  1  0  0  0  0
 48 55  1  0  0  0  0
 49 68  1  0  0  0  0
 50 70  1  0  0  0  0
 51 55  1  0  0  0  0
 51 70  1  0  0  0  0
 52 74  1  0  0  0  0
 53 84  1  0  0  0  0
 54 69  1  0  0  0  0
 55 67  1  0  0  0  0
 57 64  1  0  0  0  0
 58 65  1  0  0  0  0
 59 65  1  0  0  0  0
 60 65  1  0  0  0  0
 61 76  1  0  0  0  0
 62 68  1  0  0  0  0
 63 65  1  0  0  0  0
 63 75  1  0  0  0  0
 64 76  1  0  0  0  0
 66 67  1  0  0  0  0
M  CHG  1  76   1
M  ISO  4  39 100  53 101  73 100  84 101
M  END
> <Batch ID>
0037

> <Smiles>
CNC(C)C(=O)NC(C(=O)N1Cc2cc([101O:1][101CH:1]3CCCN(Cc4ccc([100NH:0][100C:0](=O)N5CCCC(n6nc(-c7ccc(Oc8ccc(F)cc8F)cc7)c(C(N)=O)c6N)C5)c(C)c4)C3=O)ccc2CC1C(=O)NC1CCCc2ccccc21)C(C)(C)C

> <Shape>
0.231

> <Color>
0.060

> <Negative vol penalty>
0.000

$$$$

  -OEChem-04042321573D

 83 91  0     1  0  0  0  0  0999 V2000
  -24.7396  -37.0989   21.1146 C   0  0  0  0  0  0  0  0  0  0  0  0
  -25.4504  -36.0178   20.6032 C   0  0  0  0  0  0  0  0  0  0  0  0
  -24.4298   -9.3805   21.7114 C   0  0  0  0  0  0  0  0  0  0  0  0
  -22.5958  -10.4722   20.5794 C   0  0  0  0  0  0  0  0  0  0  0  0
  -24.1567  -37.0135   22.3783 C   0  0  0  0  0  0  0  0  0  0  0  0
  -25.5796  -34.8510   21.3558 C   0  0  0  0  0  0  0  0  0  0  0  0
  -25.7577  -29.1066   19.2402 C   0  0  0  0  0  0  0  0  0  0  0  0
  -23.7036   -8.1900   21.7400 C   0  0  0  0  0  0  0  0  0  0  0  0
  -21.8695   -9.2817   20.6079 C   0  0  0  0  0  0  0  0  0  0  0  0
  -26.8144  -28.2350   18.9804 C   0  0  0  0  0  0  0  0  0  0  0  0
  -21.1924   -6.8479   23.5612 C   0  0  0  0  0  0  0  0  0  0  0  0
  -21.1764   -6.1279   24.7557 C   0  0  0  0  0  0  0  0  0  0  0  0
  -26.5137  -27.2322   21.1537 C   0  0  0  0  0  0  0  0  0  0  0  0
  -27.0363  -20.4810   18.7946 C   0  0  0  0  0  0  0  0  0  0  0  0
  -26.8651  -20.3703   21.5769 C   0  0  0  0  0  0  0  0  0  0  0  0
  -22.1733   -4.2372   23.6294 C   0  0  0  0  0  0  0  0  0  0  0  0
  -23.8759  -10.5217   21.1311 C   0  0  0  0  0  0  0  0  0  0  0  0
  -25.5063  -12.1868   20.0935 C   0  0  0  0  0  0  0  0  0  0  0  0
  -24.2707  -35.8416   23.1427 C   0  0  0  0  0  0  0  0  0  0  0  0
  -25.0769  -29.0547   20.4651 C   0  0  0  0  0  0  0  0  0  0  0  0
  -24.9988  -34.7503   22.6314 C   0  0  0  0  0  0  0  0  0  0  0  0
  -25.4470  -28.1025   21.4255 C   0  0  0  0  0  0  0  0  0  0  0  0
  -26.1828  -19.5619   19.4048 C   0  0  0  0  0  0  0  0  0  0  0  0
  -27.8044  -21.3447   19.5756 C   0  0  0  0  0  0  0  0  0  0  0  0
  -26.0971  -19.5066   20.7959 C   0  0  0  0  0  0  0  0  0  0  0  0
  -22.4234   -8.1406   21.1882 C   0  0  0  0  0  0  0  0  0  0  0  0
  -27.1944  -27.2996   19.9383 C   0  0  0  0  0  0  0  0  0  0  0  0
  -21.6987   -6.2626   22.4007 C   0  0  0  0  0  0  0  0  0  0  0  0
  -21.6669   -4.8226   24.7899 C   0  0  0  0  0  0  0  0  0  0  0  0
  -22.1892   -4.9572   22.4349 C   0  0  0  0  0  0  0  0  0  0  0  0
  -27.7187  -21.2894   20.9667 C   0  0  0  0  0  0  0  0  0  0  0  0
  -24.6254  -11.7519   21.1018 C   0  0  0  0  0  0  0  0  0  0  0  0
  -25.9584  -13.4063   20.5351 C   0  0  0  0  0  0  0  0  0  0  0  0
  -25.8822  -11.5459   18.8673 C   0  0  0  0  0  0  0  0  0  0  0  0
  -24.6360  -31.0812   22.8739 C   0  0  0  0  0  0  0  0  0  0  0  0
  -22.6560  -28.7520   23.9586 C   0  0  0  0  0  0  0  0  0  0  0  0
  -21.7948  -25.4497   23.9596 C   0  0  0  0  0  0  0  0  0  0  0  0
  -25.0473  -18.4082   22.8053 C   0  0  0  0  0  0  0  0  0  0  0  0
  -23.6635  -35.8133   24.5230 C   0  0  0  0  0  0  0  0  0  0  0  0
  -23.9219  -29.9839   20.7193 C   0  0  0  0  0  0  0  0  0  0  0  0
  -24.7353  -27.9924   22.7483 C   0  0  0  0  0  0  0  0  0  0  0  0
  -23.5292  -34.4066   25.1006 C   0  0  0  0  0  0  0  0  0  0  0  0
  -25.4700  -15.6668   25.0377 C   0  0  0  0  0  0  0  0  0  0  0  0
  -24.8209  -33.6209   24.8982 C   0  0  0  0  0  0  0  0  0  0  0  0
  -25.3604  -14.4397   24.1298 C   0  0  0  0  0  0  0  0  0  0  0  0
  -24.5164  -16.7792   24.6052 C   0  0  0  0  0  0  0  0  0  0  0  0
  -24.5119  -15.9465   22.2867 C   0  0  0  0  0  0  0  0  0  0  0  0
  -25.1401  -33.4587   23.4072 C   0  0  1  0  0  0  0  0  0  0  0  0
  -23.6328  -30.1856   22.2036 C   0  0  1  0  0  0  0  0  0  0  0  0
  -25.5000  -14.8239   22.6437 C   0  0  2  0  0  0  0  0  0  0  0  0
  -25.3733  -18.6474   18.5435 C   0  0  0  0  0  0  0  0  0  0  0  0
  -20.1567  -23.8414   24.9733 C   0  0  0  0  0  0  0  0  0  0  0  0
  -24.2113  -28.8254   26.5826 C   0  0  0  0  0  0  0  0  0  0  0  0
  -23.1878  -26.6175   27.1704 C   0  0  0  0  0  0  0  0  0  0  0  0
  -21.7329  -28.6174   26.8445 C   0  0  0  0  0  0  0  0  0  0  0  0
  -20.6925  -24.7226   21.3110 C   0  0  0  0  0  0  0  0  0  0  0  0
  -28.7107  -22.3179   18.8811 C   0  0  0  0  0  0  0  0  0  0  0  0
  -29.0964  -24.7095   18.2726 C   0  0  0  0  0  0  0  0  0  0  0  0
  -28.4466  -26.0781   18.3271 C   0  0  0  0  0  0  0  0  0  1  0  0
  -22.8181  -27.5333   24.8347 C   0  0  1  0  0  0  0  0  0  0  0  0
  -20.4530  -24.7586   23.7970 C   0  0  2  0  0  0  0  0  0  0  0  0
  -23.0024  -27.9015   26.3340 C   0  0  0  0  0  0  0  0  0  0  0  0
  -24.5227  -12.6241   22.1082 N   0  0  0  0  0  0  0  0  0  0  0  0
  -25.3450  -13.6192   21.7345 N   0  0  0  0  0  0  0  0  0  0  0  0
  -23.6164  -28.9273   22.9523 N   0  0  0  0  0  0  0  0  0  0  0  0
  -24.7086  -17.0929   23.1877 N   0  0  0  0  0  0  0  0  0  0  0  0
  -26.8170  -14.3064   20.0107 N   0  0  0  0  0  0  0  0  0  0  0  0
  -25.3237  -10.2957   18.5683 N   0  0  0  0  0  0  0  0  0  0  0  0
  -25.2367  -18.5794   21.4344 N   0  0  0  0  0  0  0  0  0  0  0  0
  -24.3138  -32.4240   22.8231 N   0  0  0  0  0  0  0  0  0  0  0  0
  -21.6648  -26.6812   24.5661 N   0  0  0  0  0  0  0  0  0  0  0  0
  -20.4382  -23.9430   22.5498 N   0  3  0  0  0  0  0  0  0  0  0  0
  -28.1927  -23.7126   18.9001 N   0  3  0  0  0  0  0  0  0  0  0  0
  -26.7021  -12.0589   18.0685 O   0  0  0  0  0  0  0  0  0  0  0  0
  -25.6280  -30.5902   23.3996 O   0  0  0  0  0  0  0  0  0  0  0  0
  -21.7079  -29.5163   24.1552 O   0  0  0  0  0  0  0  0  0  0  0  0
  -22.8528  -24.9458   23.5893 O   0  0  0  0  0  0  0  0  0  0  0  0
  -25.1876  -19.3096   23.6358 O   0  0  0  0  0  0  0  0  0  0  0  0
  -21.7146   -6.9790   21.2158 O   0  0  0  0  0  0  0  0  0  0  0  0
  -28.2260  -26.4481   19.6875 O   0  0  0  0  0  0  0  0  0  1  0  0
  -21.6530   -4.1318   25.9374 F   0  0  0  0  0  0  0  0  0  0  0  0
  -22.6780   -4.3900   21.3235 F   0  0  0  0  0  0  0  0  0  0  0  0
  -28.6539  -22.3420   21.9653 Cl  0  0  0  0  0  0  0  0  0  0  0  0
  1  2  1  0  0  0  0
  1  5  2  0  0  0  0
  2  6  2  0  0  0  0
  3  8  2  0  0  0  0
  3 17  1  0  0  0  0
  4  9  1  0  0  0  0
  4 17  2  0  0  0  0
  5 19  1  0  0  0  0
  6 21  1  0  0  0  0
  7 10  2  0  0  0  0
  7 20  1  0  0  0  0
  8 26  1  0  0  0  0
  9 26  2  0  0  0  0
 10 27  1  0  0  0  0
 11 12  2  0  0  0  0
 11 28  1  0  0  0  0
 12 29  1  0  0  0  0
 13 22  1  0  0  0  0
 13 27  2  0  0  0  0
 14 23  2  0  0  0  0
 14 24  1  0  0  0  0
 15 25  2  0  0  0  0
 15 31  1  0  0  0  0
 16 29  2  0  0  0  0
 16 30  1  0  0  0  0
 17 32  1  0  0  0  0
 18 32  1  0  0  0  0
 18 33  2  0  0  0  0
 18 34  1  0  0  0  0
 19 21  2  0  0  0  0
 19 39  1  0  0  0  0
 20 22  2  0  0  0  0
 20 40  1  0  0  0  0
 21 48  1  0  0  0  0
 22 41  1  0  0  0  0
 23 25  1  0  0  0  0
 23 51  1  0  0  0  0
 24 31  2  0  0  0  0
 24 57  1  0  0  0  0
 25 69  1  0  0  0  0
 26 79  1  0  0  0  0
 27 80  1  0  0  0  0
 28 30  2  0  0  0  0
 28 79  1  0  0  0  0
 29 81  1  0  0  0  0
 30 82  1  0  0  0  0
 31 83  1  0  0  0  0
 32 63  2  0  0  0  0
 33 64  1  0  0  0  0
 33 67  1  0  0  0  0
 34 68  1  0  0  0  0
 34 74  2  0  0  0  0
 35 49  1  0  0  0  0
 35 70  1  0  0  0  0
 35 75  2  0  0  0  0
 36 60  1  0  0  0  0
 36 65  1  0  0  0  0
 36 76  2  0  0  0  0
 37 61  1  0  0  0  0
 37 71  1  0  0  0  0
 37 77  2  0  0  0  0
 38 66  1  0  0  0  0
 38 69  1  0  0  0  0
 38 78  2  0  0  0  0
 39 42  1  0  0  0  0
 40 49  1  0  0  0  0
 41 65  1  0  0  0  0
 42 44  1  0  0  0  0
 43 45  1  0  0  0  0
 43 46  1  0  0  0  0
 44 48  1  0  0  0  0
 45 50  1  0  0  0  0
 46 66  1  0  0  0  0
 47 50  1  0  0  0  0
 47 66  1  0  0  0  0
 48 70  1  0  0  0  0
 49 65  1  0  0  0  0
 50 64  1  0  0  0  0
 52 61  1  0  0  0  0
 53 62  1  0  0  0  0
 54 62  1  0  0  0  0
 55 62  1  0  0  0  0
 56 72  1  0  0  0  0
 57 73  1  0  0  0  0
 58 59  1  0  0  0  0
 58 73  1  0  0  0  0
 59 80  1  0  0  0  0
 60 62  1  0  0  0  0
 60 71  1  0  0  0  0
 61 72  1  0  0  0  0
 63 64  1  0  0  0  0
M  CHG  2  72   1  73   1
M  ISO  4  38 100  59 101  69 100  80 101
M  END
> <Batch ID>
0037

> <Smiles>
CNC(C)C(=O)NC(C(=O)N1Cc2cc([101O:1][101CH2:1]CNCc3cc(C)c([100NH:0][100C:0](=O)N4CCCC(n5nc(-c6ccc(Oc7ccc(F)cc7F)cc6)c(C(N)=O)c5N)C4)cc3Cl)ccc2CC1C(=O)NC1CCCc2ccccc21)C(C)(C)C

> <Shape>
0.269

> <Color>
0.113

> <Negative vol penalty>
0.000

$$$$

  -OEChem-04042321573D

 89 98  0     1  0  0  0  0  0999 V2000
  -28.8969  -31.9973   26.3551 C   0  0  0  0  0  0  0  0  0  0  0  0
  -28.7812  -30.8800   25.5343 C   0  0  0  0  0  0  0  0  0  0  0  0
  -22.5910  -12.0656   22.3650 C   0  0  0  0  0  0  0  0  0  0  0  0
  -21.1257  -12.4021   20.4737 C   0  0  0  0  0  0  0  0  0  0  0  0
  -27.7512  -32.6196   26.8490 C   0  0  0  0  0  0  0  0  0  0  0  0
  -27.5196  -30.3837   25.2078 C   0  0  0  0  0  0  0  0  0  0  0  0
  -27.0922  -29.2461   20.2917 C   0  0  0  0  0  0  0  0  0  0  0  0
  -22.4550  -10.6845   22.2247 C   0  0  0  0  0  0  0  0  0  0  0  0
  -20.9898  -11.0210   20.3334 C   0  0  0  0  0  0  0  0  0  0  0  0
  -27.6658  -28.0499   19.8628 C   0  0  0  0  0  0  0  0  0  0  0  0
  -20.1727   -8.3152   23.0007 C   0  0  0  0  0  0  0  0  0  0  0  0
  -19.9490   -7.5661   24.1559 C   0  0  0  0  0  0  0  0  0  0  0  0
  -25.4958  -26.9975   19.9155 C   0  0  0  0  0  0  0  0  0  0  0  0
  -30.5469  -17.7074   19.4858 C   0  0  0  0  0  0  0  0  0  0  0  0
  -21.9810   -6.3255   23.7448 C   0  0  0  0  0  0  0  0  0  0  0  0
  -21.9263  -12.9244   21.4896 C   0  0  0  0  0  0  0  0  0  0  0  0
  -21.7216  -15.1295   22.7557 C   0  0  0  0  0  0  0  0  0  0  0  0
  -26.4747  -32.1366   26.5205 C   0  0  0  0  0  0  0  0  0  0  0  0
  -25.7155  -29.3241   20.5467 C   0  0  0  0  0  0  0  0  0  0  0  0
  -26.3558  -30.9994   25.6989 C   0  0  0  0  0  0  0  0  0  0  0  0
  -24.9068  -28.1964   20.3451 C   0  0  0  0  0  0  0  0  0  0  0  0
  -29.1979  -17.4064   19.2984 C   0  0  0  0  0  0  0  0  0  0  0  0
  -28.6021  -19.6411   19.9972 C   0  0  0  0  0  0  0  0  0  0  0  0
  -29.9511  -19.9421   20.1847 C   0  0  0  0  0  0  0  0  0  0  0  0
  -28.2255  -18.3732   19.5540 C   0  0  0  0  0  0  0  0  0  0  0  0
  -21.6544  -10.1622   21.2089 C   0  0  0  0  0  0  0  0  0  0  0  0
  -26.8680  -26.9246   19.6774 C   0  0  0  0  0  0  0  0  0  0  0  0
  -21.3005   -8.0694   22.2176 C   0  0  0  0  0  0  0  0  0  0  0  0
  -20.8532   -6.5712   24.5279 C   0  0  0  0  0  0  0  0  0  0  0  0
  -22.2047   -7.0746   22.5896 C   0  0  0  0  0  0  0  0  0  0  0  0
  -30.9235  -18.9753   19.9290 C   0  0  0  0  0  0  0  0  0  0  0  0
  -22.0660  -14.3511   21.6344 C   0  0  0  0  0  0  0  0  0  0  0  0
  -22.0459  -16.4144   22.3944 C   0  0  0  0  0  0  0  0  0  0  0  0
  -29.4117  -23.4187   19.7862 C   0  0  0  0  0  0  0  0  0  0  0  0
  -21.1589  -14.7272   24.0115 C   0  0  0  0  0  0  0  0  0  0  0  0
  -23.9404  -29.9431   23.1098 C   0  0  0  0  0  0  0  0  0  0  0  0
  -21.5057  -29.8308   20.9693 C   0  0  0  0  0  0  0  0  0  0  0  0
  -20.3349  -28.6999   17.9698 C   0  0  0  0  0  0  0  0  0  0  0  0
  -25.9608  -18.6946   18.4984 C   0  0  0  0  0  0  0  0  0  0  0  0
  -25.2664  -32.8143   27.1168 C   0  0  0  0  0  0  0  0  0  0  0  0
  -25.1079  -30.6290   20.9832 C   0  0  0  0  0  0  0  0  0  0  0  0
  -23.4204  -28.2334   20.5854 C   0  0  0  0  0  0  0  0  0  0  0  0
  -23.9581  -32.4510   26.4192 C   0  0  0  0  0  0  0  0  0  0  0  0
  -30.9257  -23.0390   17.3061 C   0  0  0  0  0  0  0  0  0  0  0  0
  -22.4419  -19.2351   18.5446 C   0  0  0  0  0  0  0  0  0  0  0  0
  -23.8684  -30.9435   26.2044 C   0  0  0  0  0  0  0  0  0  0  0  0
  -30.5263  -24.4369   17.7362 C   0  0  0  0  0  0  0  0  0  0  0  0
  -21.9154  -18.1185   19.4491 C   0  0  0  0  0  0  0  0  0  0  0  0
  -31.2245  -22.1945   18.5297 C   0  0  0  0  0  0  0  0  0  0  0  0
  -23.6137  -18.7638   17.6853 C   0  0  0  0  0  0  0  0  0  0  0  0
  -24.1909  -17.0250   19.3323 C   0  0  0  0  0  0  0  0  0  0  0  0
  -25.0042  -30.4462   25.3021 C   0  0  1  0  0  0  0  0  0  0  0  0
  -29.2634  -24.3554   18.5850 C   0  0  2  0  0  0  0  0  0  0  0  0
  -23.7762  -30.4555   21.7070 C   0  0  1  0  0  0  0  0  0  0  0  0
  -23.0519  -17.4704   20.2640 C   0  0  2  0  0  0  0  0  0  0  0  0
  -28.8256  -16.0393   18.8227 C   0  0  0  0  0  0  0  0  0  0  0  0
  -27.5603  -20.6808   20.2724 C   0  0  0  0  0  0  0  0  0  0  0  0
  -18.2943  -28.7404   16.5098 C   0  0  0  0  0  0  0  0  0  0  0  0
  -20.1643  -27.7836   22.7913 C   0  0  0  0  0  0  0  0  0  0  0  0
  -18.6639  -27.1716   20.8828 C   0  0  0  0  0  0  0  0  0  0  0  0
  -18.6135  -29.4851   21.8144 C   0  0  0  0  0  0  0  0  0  0  0  0
  -21.7893  -30.0528   15.7759 C   0  0  0  0  0  0  0  0  0  0  0  0
  -30.3426  -21.3107   20.6621 C   0  0  0  0  0  0  0  0  0  0  0  0
  -28.8338  -25.7533   19.0297 C   0  0  0  0  0  0  0  0  0  1  0  0
  -20.6002  -28.7470   20.4359 C   0  0  1  0  0  0  0  0  0  0  0  0
  -19.6201  -29.4107   16.8348 C   0  0  2  0  0  0  0  0  0  0  0  0
  -19.5388  -28.2953   21.4784 C   0  0  0  0  0  0  0  0  0  0  0  0
  -22.5702  -15.0805   20.6355 N   0  0  0  0  0  0  0  0  0  0  0  0
  -22.5450  -16.3308   21.1279 N   0  0  0  0  0  0  0  0  0  0  0  0
  -30.2387  -22.3076   19.6043 N   0  0  0  0  0  0  0  0  0  0  0  0
  -22.8744  -29.5306   21.0174 N   0  0  0  0  0  0  0  0  0  0  0  0
  -24.6533  -18.1650   18.5252 N   0  0  0  0  0  0  0  0  0  0  0  0
  -21.9498  -17.5962   23.0397 N   0  0  0  0  0  0  0  0  0  0  0  0
  -19.7635  -14.6970   24.1395 N   0  0  0  0  0  0  0  0  0  0  0  0
  -26.8557  -18.0649   19.3628 N   0  0  0  0  0  0  0  0  0  0  0  0
  -24.7191  -30.7509   23.9163 N   0  0  0  0  0  0  0  0  0  0  0  0
  -20.0358  -29.2617   19.1930 N   0  0  0  0  0  0  0  0  0  0  0  0
  -20.4639  -29.4037   15.6063 N   0  3  0  0  0  0  0  0  0  0  0  0
  -28.7493  -23.6119   20.8096 O   0  0  0  0  0  0  0  0  0  0  0  0
  -21.8725  -14.4197   24.9963 O   0  0  0  0  0  0  0  0  0  0  0  0
  -23.3994  -28.8933   23.4368 O   0  0  0  0  0  0  0  0  0  0  0  0
  -21.0174  -30.9068   21.3234 O   0  0  0  0  0  0  0  0  0  0  0  0
  -21.0808  -27.7398   17.7898 O   0  0  0  0  0  0  0  0  0  0  0  0
  -26.2575  -19.6549   17.7829 O   0  0  0  0  0  0  0  0  0  0  0  0
  -21.5216   -8.8146   21.0715 O   0  0  0  0  0  0  0  0  0  0  0  0
  -27.4254  -25.7556   19.2594 O   0  0  0  0  0  0  0  0  0  1  0  0
  -20.6390   -5.8530   25.6381 F   0  0  0  0  0  0  0  0  0  0  0  0
  -23.2906   -6.8347   21.8419 F   0  0  0  0  0  0  0  0  0  0  0  0
  -32.6036  -19.3077   20.1485 Cl  0  0  0  0  0  0  0  0  0  0  0  0
  1  2  1  0  0  0  0
  1  5  2  0  0  0  0
  2  6  2  0  0  0  0
  3  8  2  0  0  0  0
  3 16  1  0  0  0  0
  4  9  1  0  0  0  0
  4 16  2  0  0  0  0
  5 18  1  0  0  0  0
  6 20  1  0  0  0  0
  7 10  2  0  0  0  0
  7 19  1  0  0  0  0
  8 26  1  0  0  0  0
  9 26  2  0  0  0  0
 10 27  1  0  0  0  0
 11 12  2  0  0  0  0
 11 28  1  0  0  0  0
 12 29  1  0  0  0  0
 13 21  1  0  0  0  0
 13 27  2  0  0  0  0
 14 22  1  0  0  0  0
 14 31  2  0  0  0  0
 15 29  2  0  0  0  0
 15 30  1  0  0  0  0
 16 32  1  0  0  0  0
 17 32  1  0  0  0  0
 17 33  2  0  0  0  0
 17 35  1  0  0  0  0
 18 20  2  0  0  0  0
 18 40  1  0  0  0  0
 19 21  2  0  0  0  0
 19 41  1  0  0  0  0
 20 52  1  0  0  0  0
 21 42  1  0  0  0  0
 22 25  2  0  0  0  0
 22 56  1  0  0  0  0
 23 24  2  0  0  0  0
 23 25  1  0  0  0  0
 23 57  1  0  0  0  0
 24 31  1  0  0  0  0
 24 63  1  0  0  0  0
 25 75  1  0  0  0  0
 26 85  1  0  0  0  0
 27 86  1  0  0  0  0
 28 30  2  0  0  0  0
 28 85  1  0  0  0  0
 29 87  1  0  0  0  0
 30 88  1  0  0  0  0
 31 89  1  0  0  0  0
 32 68  2  0  0  0  0
 33 69  1  0  0  0  0
 33 73  1  0  0  0  0
 34 53  1  0  0  0  0
 34 70  1  0  0  0  0
 34 79  2  0  0  0  0
 35 74  1  0  0  0  0
 35 80  2  0  0  0  0
 36 54  1  0  0  0  0
 36 76  1  0  0  0  0
 36 81  2  0  0  0  0
 37 65  1  0  0  0  0
 37 71  1  0  0  0  0
 37 82  2  0  0  0  0
 38 66  1  0  0  0  0
 38 77  1  0  0  0  0
 38 83  2  0  0  0  0
 39 72  1  0  0  0  0
 39 75  1  0  0  0  0
 39 84  2  0  0  0  0
 40 43  1  0  0  0  0
 41 54  1  0  0  0  0
 42 71  1  0  0  0  0
 43 46  1  0  0  0  0
 44 47  1  0  0  0  0
 44 49  1  0  0  0  0
 45 48  1  0  0  0  0
 45 50  1  0  0  0  0
 46 52  1  0  0  0  0
 47 53  1  0  0  0  0
 48 55  1  0  0  0  0
 49 70  1  0  0  0  0
 50 72  1  0  0  0  0
 51 55  1  0  0  0  0
 51 72  1  0  0  0  0
 52 76  1  0  0  0  0
 53 64  1  0  0  0  0
 54 71  1  0  0  0  0
 55 69  1  0  0  0  0
 58 66  1  0  0  0  0
 59 67  1  0  0  0  0
 60 67  1  0  0  0  0
 61 67  1  0  0  0  0
 62 78  1  0  0  0  0
 63 70  1  0  0  0  0
 64 86  1  0  0  0  0
 65 67  1  0  0  0  0
 65 77  1  0  0  0  0
 66 78  1  0  0  0  0
 68 69  1  0  0  0  0
M  CHG  1  78   1
M  ISO  4  39 100  64 101  75 100  86 101
M  END
> <Batch ID>
0037

> <Smiles>
CNC(C)C(=O)NC(C(=O)N1Cc2cc([101O:1][101CH2:1]C3CCCN(Cc4c(Cl)cc(C)c([100NH:0][100C:0](=O)N5CCCC(n6nc(-c7ccc(Oc8ccc(F)cc8F)cc7)c(C(N)=O)c6N)C5)c4C)C3=O)ccc2CC1C(=O)NC1CCCc2ccccc21)C(C)(C)C

> <Shape>
0.300

> <Color>
0.062

> <Negative vol penalty>
0.000

$$$$

  -OEChem-04042321573D

 83 91  0     1  0  0  0  0  0999 V2000
  -29.5809  -23.9882   17.1609 C   0  0  0  0  0  0  0  0  0  0  0  0
  -28.3899  -24.0162   17.8792 C   0  0  0  0  0  0  0  0  0  0  0  0
  -24.2946  -23.0244   25.5255 C   0  0  0  0  0  0  0  0  0  0  0  0
  -24.3146  -12.6037   19.6204 C   0  0  0  0  0  0  0  0  0  0  0  0
  -25.3403  -12.5913   21.8079 C   0  0  0  0  0  0  0  0  0  0  0  0
  -30.6610  -24.7675   17.5733 C   0  0  0  0  0  0  0  0  0  0  0  0
  -28.2786  -24.8229   19.0112 C   0  0  0  0  0  0  0  0  0  0  0  0
  -23.9205  -27.3987   19.1402 C   0  0  0  0  0  0  0  0  0  0  0  0
  -25.5631  -22.7414   25.0191 C   0  0  0  0  0  0  0  0  0  0  0  0
  -23.2020  -23.1090   24.6625 C   0  0  0  0  0  0  0  0  0  0  0  0
  -24.3873  -11.2114   19.5784 C   0  0  0  0  0  0  0  0  0  0  0  0
  -25.4130  -11.1989   21.7659 C   0  0  0  0  0  0  0  0  0  0  0  0
  -22.7797  -26.7007   19.5343 C   0  0  0  0  0  0  0  0  0  0  0  0
  -25.5395   -7.6193   22.3892 C   0  0  0  0  0  0  0  0  0  0  0  0
  -25.1561   -6.9145   23.5301 C   0  0  0  0  0  0  0  0  0  0  0  0
  -22.9743  -27.6435   21.7462 C   0  0  0  0  0  0  0  0  0  0  0  0
  -22.9440   -7.8744   23.3797 C   0  0  0  0  0  0  0  0  0  0  0  0
  -24.7912  -13.2937   20.7351 C   0  0  0  0  0  0  0  0  0  0  0  0
  -23.6586  -15.5137   21.2798 C   0  0  0  0  0  0  0  0  0  0  0  0
  -30.5597  -25.5915   18.7053 C   0  0  0  0  0  0  0  0  0  0  0  0
  -24.6041  -28.2172   20.0508 C   0  0  0  0  0  0  0  0  0  0  0  0
  -29.3587  -25.6129   19.4399 C   0  0  0  0  0  0  0  0  0  0  0  0
  -24.1220  -28.3528   21.3605 C   0  0  0  0  0  0  0  0  0  0  0  0
  -25.7390  -22.5431   23.6497 C   0  0  0  0  0  0  0  0  0  0  0  0
  -24.6464  -22.6277   22.7866 C   0  0  0  0  0  0  0  0  0  0  0  0
  -23.3779  -22.9107   23.2931 C   0  0  0  0  0  0  0  0  0  0  0  0
  -24.9365  -10.5090   20.6511 C   0  0  0  0  0  0  0  0  0  0  0  0
  -22.3082  -26.8207   20.8383 C   0  0  0  0  0  0  0  0  0  0  0  0
  -24.6253   -8.4518   21.7436 C   0  0  0  0  0  0  0  0  0  0  0  0
  -23.8583   -7.0419   24.0254 C   0  0  0  0  0  0  0  0  0  0  0  0
  -23.3276   -8.5793   22.2388 C   0  0  0  0  0  0  0  0  0  0  0  0
  -24.7169  -14.7319   20.7789 C   0  0  0  0  0  0  0  0  0  0  0  0
  -24.0719  -16.8103   21.0943 C   0  0  0  0  0  0  0  0  0  0  0  0
  -22.4134  -15.1043   21.8609 C   0  0  0  0  0  0  0  0  0  0  0  0
  -27.5293  -28.2334   21.2945 C   0  0  0  0  0  0  0  0  0  0  0  0
  -26.5489  -31.0496   22.5714 C   0  0  0  0  0  0  0  0  0  0  0  0
  -23.9562  -33.0313   23.5700 C   0  0  0  0  0  0  0  0  0  0  0  0
  -28.0169  -20.7479   21.3725 C   0  0  0  0  0  0  0  0  0  0  0  0
  -31.7696  -26.3801   19.1398 C   0  0  0  0  0  0  0  0  0  0  0  0
  -25.8177  -28.9844   19.6026 C   0  0  0  0  0  0  0  0  0  0  0  0
  -24.8079  -29.2346   22.3707 C   0  0  0  0  0  0  0  0  0  0  0  0
  -31.4467  -27.4929   20.1336 C   0  0  0  0  0  0  0  0  0  0  0  0
  -27.9751  -18.6790   18.4752 C   0  0  0  0  0  0  0  0  0  0  0  0
  -30.5282  -26.9744   21.2356 C   0  0  0  0  0  0  0  0  0  0  0  0
  -27.0418  -17.5296   18.8599 C   0  0  0  0  0  0  0  0  0  0  0  0
  -28.8161  -19.1444   19.6618 C   0  0  0  0  0  0  0  0  0  0  0  0
  -27.1105  -18.3478   21.2525 C   0  0  0  0  0  0  0  0  0  0  0  0
  -29.1910  -26.4940   20.6588 C   0  0  1  0  0  0  0  0  0  0  0  0
  -26.7303  -29.3868   20.7570 C   0  0  1  0  0  0  0  0  0  0  0  0
  -26.2017  -17.8814   20.1024 C   0  0  2  0  0  0  0  0  0  0  0  0
  -24.8397  -22.4145   21.3180 C   0  0  0  0  0  0  0  0  0  0  0  0
  -23.4693  -35.2629   24.6095 C   0  0  0  0  0  0  0  0  0  0  0  0
  -27.3728  -29.9564   25.2983 C   0  0  0  0  0  0  0  0  0  0  0  0
  -26.0204  -31.7768   26.3590 C   0  0  0  0  0  0  0  0  0  0  0  0
  -27.9688  -32.3544   24.9123 C   0  0  0  0  0  0  0  0  0  0  0  0
  -22.4428  -33.9380   21.1937 C   0  0  0  0  0  0  0  0  0  0  0  0
  -27.1080  -22.2416   23.1338 C   0  0  0  0  0  0  0  0  0  0  0  0
  -20.2260  -23.9699   21.5576 C   0  0  0  0  0  0  0  0  0  0  0  0
  -21.0536  -23.6739   22.8025 C   0  0  0  0  0  0  0  0  0  0  0  0
  -20.9364  -24.8956   20.5771 C   0  0  0  0  0  0  0  0  0  1  0  0
  -25.8565  -31.4610   23.8482 C   0  0  1  0  0  0  0  0  0  0  0  0
  -23.6485  -34.4948   23.3092 C   0  0  2  0  0  0  0  0  0  0  0  0
  -26.7926  -31.3689   25.0862 C   0  0  0  0  0  0  0  0  0  0  0  0
  -25.7264  -15.4703   20.3103 N   0  0  0  0  0  0  0  0  0  0  0  0
  -25.3044  -16.7296   20.5158 N   0  0  0  0  0  0  0  0  0  0  0  0
  -25.9943  -29.9593   21.8861 N   0  0  0  0  0  0  0  0  0  0  0  0
  -27.9593  -19.4637   20.8063 N   0  0  0  0  0  0  0  0  0  0  0  0
  -23.4976  -18.0002   21.3711 N   0  0  0  0  0  0  0  0  0  0  0  0
  -22.1489  -13.7328   21.9763 N   0  0  0  0  0  0  0  0  0  0  0  0
  -22.2796  -22.9984   22.4520 N   0  0  0  0  0  0  0  0  0  0  0  0
  -28.3373  -27.6224   20.3547 N   0  0  0  0  0  0  0  0  0  0  0  0
  -25.3139  -32.7936   23.6071 N   0  0  0  0  0  0  0  0  0  0  0  0
  -27.1675  -20.9690   22.4497 N   0  0  0  0  0  0  0  0  0  0  0  0
  -22.3980  -34.6266   22.5093 N   0  3  0  0  0  0  0  0  0  0  0  0
  -21.5537  -15.9304   22.2507 O   0  0  0  0  0  0  0  0  0  0  0  0
  -27.4219  -27.9219   22.4748 O   0  0  0  0  0  0  0  0  0  0  0  0
  -27.5409  -31.6770   22.1921 O   0  0  0  0  0  0  0  0  0  0  0  0
  -23.0798  -32.1844   23.7288 O   0  0  0  0  0  0  0  0  0  0  0  0
  -28.7657  -21.6335   20.9460 O   0  0  0  0  0  0  0  0  0  0  0  0
  -25.0073   -9.1504   20.6105 O   0  0  0  0  0  0  0  0  0  0  0  0
  -21.1953  -26.1400   21.2258 O   0  0  0  0  0  0  0  0  0  1  0  0
  -23.4897   -6.3638   25.1201 F   0  0  0  0  0  0  0  0  0  0  0  0
  -22.4445   -9.3766   21.6221 F   0  0  0  0  0  0  0  0  0  0  0  0
  1  2  1  0  0  0  0
  1  6  2  0  0  0  0
  2  7  2  0  0  0  0
  3  9  1  0  0  0  0
  3 10  2  0  0  0  0
  4 11  2  0  0  0  0
  4 18  1  0  0  0  0
  5 12  1  0  0  0  0
  5 18  2  0  0  0  0
  6 20  1  0  0  0  0
  7 22  1  0  0  0  0
  8 13  2  0  0  0  0
  8 21  1  0  0  0  0
  9 24  2  0  0  0  0
 10 26  1  0  0  0  0
 11 27  1  0  0  0  0
 12 27  2  0  0  0  0
 13 28  1  0  0  0  0
 14 15  2  0  0  0  0
 14 29  1  0  0  0  0
 15 30  1  0  0  0  0
 16 23  1  0  0  0  0
 16 28  2  0  0  0  0
 17 30  2  0  0  0  0
 17 31  1  0  0  0  0
 18 32  1  0  0  0  0
 19 32  1  0  0  0  0
 19 33  2  0  0  0  0
 19 34  1  0  0  0  0
 20 22  2  0  0  0  0
 20 39  1  0  0  0  0
 21 23  2  0  0  0  0
 21 40  1  0  0  0  0
 22 48  1  0  0  0  0
 23 41  1  0  0  0  0
 24 25  1  0  0  0  0
 24 57  1  0  0  0  0
 25 26  2  0  0  0  0
 25 51  1  0  0  0  0
 26 70  1  0  0  0  0
 27 80  1  0  0  0  0
 28 81  1  0  0  0  0
 29 31  2  0  0  0  0
 29 80  1  0  0  0  0
 30 82  1  0  0  0  0
 31 83  1  0  0  0  0
 32 64  2  0  0  0  0
 33 65  1  0  0  0  0
 33 68  1  0  0  0  0
 34 69  1  0  0  0  0
 34 75  2  0  0  0  0
 35 49  1  0  0  0  0
 35 71  1  0  0  0  0
 35 76  2  0  0  0  0
 36 61  1  0  0  0  0
 36 66  1  0  0  0  0
 36 77  2  0  0  0  0
 37 62  1  0  0  0  0
 37 72  1  0  0  0  0
 37 78  2  0  0  0  0
 38 67  1  0  0  0  0
 38 73  1  0  0  0  0
 38 79  2  0  0  0  0
 39 42  1  0  0  0  0
 40 49  1  0  0  0  0
 41 66  1  0  0  0  0
 42 44  1  0  0  0  0
 43 45  1  0  0  0  0
 43 46  1  0  0  0  0
 44 48  1  0  0  0  0
 45 50  1  0  0  0  0
 46 67  1  0  0  0  0
 47 50  1  0  0  0  0
 47 67  1  0  0  0  0
 48 71  1  0  0  0  0
 49 66  1  0  0  0  0
 50 65  1  0  0  0  0
 52 62  1  0  0  0  0
 53 63  1  0  0  0  0
 54 63  1  0  0  0  0
 55 63  1  0  0  0  0
 56 74  1  0  0  0  0
 57 73  1  0  0  0  0
 58 59  1  0  0  0  0
 58 60  1  0  0  0  0
 59 70  1  0  0  0  0
 60 81  1  0  0  0  0
 61 63  1  0  0  0  0
 61 72  1  0  0  0  0
 62 74  1  0  0  0  0
 64 65  1  0  0  0  0
M  CHG  1  74   1
M  ISO  4  38 100  60 101  73 100  81 101
M  END
> <Batch ID>
0037

> <Smiles>
CNC(C)C(=O)NC(C(=O)N1Cc2cc([101O:1][101CH2:1]CCNc3cccc(C[100NH:0][100C:0](=O)N4CCCC(n5nc(-c6ccc(Oc7ccc(F)cc7F)cc6)c(C(N)=O)c5N)C4)c3C)ccc2CC1C(=O)NC1CCCc2ccccc21)C(C)(C)C

> <Shape>
0.282

> <Color>
0.079

> <Negative vol penalty>
0.000

$$$$

  -OEChem-04042321573D

 89 98  0     1  0  0  0  0  0999 V2000
  -26.9557  -34.7346   25.3107 C   0  0  0  0  0  0  0  0  0  0  0  0
  -27.3381  -33.4969   24.8034 C   0  0  0  0  0  0  0  0  0  0  0  0
  -23.5424  -12.0585   19.9003 C   0  0  0  0  0  0  0  0  0  0  0  0
  -25.5316  -13.2609   20.5592 C   0  0  0  0  0  0  0  0  0  0  0  0
  -25.6207  -34.9713   25.6354 C   0  0  0  0  0  0  0  0  0  0  0  0
  -26.3857  -32.4947   24.6217 C   0  0  0  0  0  0  0  0  0  0  0  0
  -26.8663  -30.1437   20.1622 C   0  0  0  0  0  0  0  0  0  0  0  0
  -24.2871  -10.8838   19.7954 C   0  0  0  0  0  0  0  0  0  0  0  0
  -26.2764  -12.0862   20.4544 C   0  0  0  0  0  0  0  0  0  0  0  0
  -27.8788  -29.1918   20.0501 C   0  0  0  0  0  0  0  0  0  0  0  0
  -26.8074   -9.3028   22.2960 C   0  0  0  0  0  0  0  0  0  0  0  0
  -27.7035   -9.0114   23.3244 C   0  0  0  0  0  0  0  0  0  0  0  0
  -26.2573  -27.4369   20.3822 C   0  0  0  0  0  0  0  0  0  0  0  0
  -28.1694  -22.0612   22.2238 C   0  0  0  0  0  0  0  0  0  0  0  0
  -28.8467  -22.3440   19.9220 C   0  0  0  0  0  0  0  0  0  0  0  0
  -29.5286   -9.0373   21.7415 C   0  0  0  0  0  0  0  0  0  0  0  0
  -24.1646  -13.2471   20.2821 C   0  0  0  0  0  0  0  0  0  0  0  0
  -22.2932  -14.6968   21.2328 C   0  0  0  0  0  0  0  0  0  0  0  0
  -24.6498  -33.9747   25.4485 C   0  0  0  0  0  0  0  0  0  0  0  0
  -25.5412  -29.7491   20.3964 C   0  0  0  0  0  0  0  0  0  0  0  0
  -25.0366  -32.7178   24.9455 C   0  0  0  0  0  0  0  0  0  0  0  0
  -25.2295  -28.3856   20.4943 C   0  0  0  0  0  0  0  0  0  0  0  0
  -29.0847  -22.5337   21.2833 C   0  0  0  0  0  0  0  0  0  0  0  0
  -27.0161  -21.3989   21.8030 C   0  0  0  0  0  0  0  0  0  0  0  0
  -26.7780  -21.2093   20.4418 C   0  0  0  0  0  0  0  0  0  0  0  0
  -25.6541  -10.8976   20.0725 C   0  0  0  0  0  0  0  0  0  0  0  0
  -27.5748  -27.8383   20.1629 C   0  0  0  0  0  0  0  0  0  0  0  0
  -27.2719   -9.4614   20.9903 C   0  0  0  0  0  0  0  0  0  0  0  0
  -29.0640   -8.8787   23.0472 C   0  0  0  0  0  0  0  0  0  0  0  0
  -28.6324   -9.3287   20.7131 C   0  0  0  0  0  0  0  0  0  0  0  0
  -27.6933  -21.6818   19.5012 C   0  0  0  0  0  0  0  0  0  0  0  0
  -23.3960  -14.4610   20.3901 C   0  0  0  0  0  0  0  0  0  0  0  0
  -21.9235  -15.9913   20.9603 C   0  0  0  0  0  0  0  0  0  0  0  0
  -29.6833  -25.6722   21.7767 C   0  0  0  0  0  0  0  0  0  0  0  0
  -29.0360  -25.6215   22.9570 C   0  0  0  0  0  0  0  0  0  0  0  0
  -21.6597  -13.8238   22.1774 C   0  0  0  0  0  0  0  0  0  0  0  0
  -23.4342  -30.2361   22.7260 C   0  0  0  0  0  0  0  0  0  0  0  0
  -21.4230  -28.6971   20.6989 C   0  0  0  0  0  0  0  0  0  0  0  0
  -21.5766  -25.8387   18.5028 C   0  0  0  0  0  0  0  0  0  0  0  0
  -24.8923  -20.7250   18.8431 C   0  0  0  0  0  0  0  0  0  0  0  0
  -23.2270  -34.2614   25.8584 C   0  0  0  0  0  0  0  0  0  0  0  0
  -24.4564  -30.7870   20.4883 C   0  0  0  0  0  0  0  0  0  0  0  0
  -23.8195  -27.9090   20.7254 C   0  0  0  0  0  0  0  0  0  0  0  0
  -22.2165  -33.2717   25.2842 C   0  0  0  0  0  0  0  0  0  0  0  0
  -21.9760  -19.2391   17.4414 C   0  0  0  0  0  0  0  0  0  0  0  0
  -22.7112  -31.8398   25.4624 C   0  0  0  0  0  0  0  0  0  0  0  0
  -21.9055  -17.8691   18.1197 C   0  0  0  0  0  0  0  0  0  0  0  0
  -30.9220  -27.2734   20.2415 C   0  0  0  0  0  0  0  0  0  0  0  0
  -23.4173  -19.6557   17.1532 C   0  0  0  0  0  0  0  0  0  0  0  0
  -24.2497  -18.2388   18.9885 C   0  0  0  0  0  0  0  0  0  0  0  0
  -31.5263  -24.8365   20.2811 C   0  0  0  0  0  0  0  0  0  0  0  0
  -24.0286  -31.6138   24.7108 C   0  0  1  0  0  0  0  0  0  0  0  0
  -29.6302  -26.9778   21.0023 C   0  0  1  0  0  0  0  0  0  1  0  0
  -23.2225  -30.2968   21.2397 C   0  0  1  0  0  0  0  0  0  0  0  0
  -22.8216  -17.8052   19.3575 C   0  0  2  0  0  0  0  0  0  0  0  0
  -31.3118  -26.0622   19.4035 C   0  0  2  0  0  0  0  0  0  0  0  0
  -26.0556  -20.9052   22.8362 C   0  0  0  0  0  0  0  0  0  0  0  0
  -20.2831  -25.3117   16.4179 C   0  0  0  0  0  0  0  0  0  0  0  0
  -19.5622  -27.1822   22.5837 C   0  0  0  0  0  0  0  0  0  0  0  0
  -19.3208  -25.4228   20.8189 C   0  0  0  0  0  0  0  0  0  0  0  0
  -18.5596  -27.7547   20.3653 C   0  0  0  0  0  0  0  0  0  0  0  0
  -33.0653  -25.2555   17.8177 C   0  0  0  0  0  0  0  0  0  0  0  0
  -24.0511  -25.4723   16.9211 C   0  0  0  0  0  0  0  0  0  0  0  0
  -30.3256  -23.2473   21.7361 C   0  0  0  0  0  0  0  0  0  0  0  0
  -21.0363  -27.2567   20.4654 C   0  0  1  0  0  0  0  0  0  0  0  0
  -21.5841  -25.8583   16.9849 C   0  0  2  0  0  0  0  0  0  0  0  0
  -19.6454  -26.9112   21.0683 C   0  0  0  0  0  0  0  0  0  0  0  0
  -23.7065  -15.5206   19.6385 N   0  0  0  0  0  0  0  0  0  0  0  0
  -22.7932  -16.4347   20.0079 N   0  0  0  0  0  0  0  0  0  0  0  0
  -30.4002  -24.6092   21.2024 N   0  0  1  0  0  0  0  0  0  0  0  0
  -22.7949  -28.9624   20.8145 N   0  0  0  0  0  0  0  0  0  0  0  0
  -24.2248  -19.5746   18.3723 N   0  0  0  0  0  0  0  0  0  0  0  0
  -20.9425  -16.7820   21.4449 N   0  0  0  0  0  0  0  0  0  0  0  0
  -22.1669  -12.5266   22.3327 N   0  0  0  0  0  0  0  0  0  0  0  0
  -25.6023  -20.5352   20.0282 N   0  0  0  0  0  0  0  0  0  0  0  0
  -23.7805  -31.4469   23.2948 N   0  0  0  0  0  0  0  0  0  0  0  0
  -21.1356  -27.0355   19.0268 N   0  0  0  0  0  0  0  0  0  0  0  0
  -32.5780  -26.3628   18.6818 N   0  3  0  0  0  0  0  0  0  0  0  0
  -22.7086  -25.0319   16.4618 N   0  3  0  0  0  0  0  0  0  0  0  0
  -20.6629  -14.1781   22.8514 O   0  0  0  0  0  0  0  0  0  0  0  0
  -23.2922  -29.1701   23.3135 O   0  0  0  0  0  0  0  0  0  0  0  0
  -20.5407  -29.5564   20.7689 O   0  0  0  0  0  0  0  0  0  0  0  0
  -21.9234  -24.8584   19.1580 O   0  0  0  0  0  0  0  0  0  0  0  0
  -24.8158  -21.8064   18.2541 O   0  0  0  0  0  0  0  0  0  0  0  0
  -26.3811   -9.7515   19.9705 O   0  0  0  0  0  0  0  0  0  0  0  0
  -28.5613  -26.9072   20.0546 O   0  0  0  0  0  0  0  0  0  1  0  0
  -29.9246   -8.6004   24.0352 F   0  0  0  0  0  0  0  0  0  0  0  0
  -29.0847   -9.4811   19.4609 F   0  0  0  0  0  0  0  0  0  0  0  0
  -27.4404  -21.4701   17.8046 Cl  0  0  0  0  0  0  0  0  0  0  0  0
  1  2  1  0  0  0  0
  1  5  2  0  0  0  0
  2  6  2  0  0  0  0
  3  8  2  0  0  0  0
  3 17  1  0  0  0  0
  4  9  1  0  0  0  0
  4 17  2  0  0  0  0
  5 19  1  0  0  0  0
  6 21  1  0  0  0  0
  7 10  2  0  0  0  0
  7 20  1  0  0  0  0
  8 26  1  0  0  0  0
  9 26  2  0  0  0  0
 10 27  1  0  0  0  0
 11 12  2  0  0  0  0
 11 28  1  0  0  0  0
 12 29  1  0  0  0  0
 13 22  1  0  0  0  0
 13 27  2  0  0  0  0
 14 23  1  0  0  0  0
 14 24  2  0  0  0  0
 15 23  2  0  0  0  0
 15 31  1  0  0  0  0
 16 29  2  0  0  0  0
 16 30  1  0  0  0  0
 17 32  1  0  0  0  0
 18 32  1  0  0  0  0
 18 33  2  0  0  0  0
 18 36  1  0  0  0  0
 19 21  2  0  0  0  0
 19 41  1  0  0  0  0
 20 22  2  0  0  0  0
 20 42  1  0  0  0  0
 21 52  1  0  0  0  0
 22 43  1  0  0  0  0
 23 64  1  0  0  0  0
 24 25  1  0  0  0  0
 24 57  1  0  0  0  0
 25 31  2  0  0  0  0
 25 75  1  0  0  0  0
 26 85  1  0  0  0  0
 27 86  1  0  0  0  0
 28 30  2  0  0  0  0
 28 85  1  0  0  0  0
 29 87  1  0  0  0  0
 30 88  1  0  0  0  0
 31 89  1  0  0  0  0
 32 68  2  0  0  0  0
 33 69  1  0  0  0  0
 33 73  1  0  0  0  0
 34 35  2  0  0  0  0
 34 53  1  0  0  0  0
 34 70  1  0  0  0  0
 36 74  1  0  0  0  0
 36 80  2  0  0  0  0
 37 54  1  0  0  0  0
 37 76  1  0  0  0  0
 37 81  2  0  0  0  0
 38 65  1  0  0  0  0
 38 71  1  0  0  0  0
 38 82  2  0  0  0  0
 39 66  1  0  0  0  0
 39 77  1  0  0  0  0
 39 83  2  0  0  0  0
 40 72  1  0  0  0  0
 40 75  1  0  0  0  0
 40 84  2  0  0  0  0
 41 44  1  0  0  0  0
 42 54  1  0  0  0  0
 43 71  1  0  0  0  0
 44 46  1  0  0  0  0
 45 47  1  0  0  0  0
 45 49  1  0  0  0  0
 46 52  1  0  0  0  0
 47 55  1  0  0  0  0
 48 53  1  0  0  0  0
 48 56  1  0  0  0  0
 49 72  1  0  0  0  0
 50 55  1  0  0  0  0
 50 72  1  0  0  0  0
 51 56  1  0  0  0  0
 51 70  1  0  0  0  0
 52 76  1  0  0  0  0
 53 86  1  0  0  0  0
 54 71  1  0  0  0  0
 55 69  1  0  0  0  0
 56 78  1  0  0  0  0
 58 66  1  0  0  0  0
 59 67  1  0  0  0  0
 60 67  1  0  0  0  0
 61 67  1  0  0  0  0
 62 78  1  0  0  0  0
 63 79  1  0  0  0  0
 64 70  1  0  0  0  0
 65 67  1  0  0  0  0
 65 77  1  0  0  0  0
 66 79  1  0  0  0  0
 68 69  1  0  0  0  0
M  CHG  2  78   1  79   1
M  ISO  4  40 100  53 101  75 100  86 101
M  END
> <Batch ID>
0037

> <Smiles>
C=C1N(Cc2cc(C)c([100NH:0][100C:0](=O)N3CCCC(n4nc(-c5ccc(Oc6ccc(F)cc6F)cc5)c(C(N)=O)c4N)C3)c(Cl)c2)CC(NC)C[101CH:1]1[101O:1]c1ccc2c(c1)CN(C(=O)C(NC(=O)C(C)NC)C(C)(C)C)C(C(=O)NC1CCCc3ccccc31)C2

> <Shape>
0.238

> <Color>
0.077

> <Negative vol penalty>
0.000

$$$$

  -OEChem-04042321573D

 86 95  0     1  0  0  0  0  0999 V2000
  -42.9522  -29.6609   17.6555 C   0  0  0  0  0  0  0  0  0  0  0  0
  -41.7045  -30.2484   17.8386 C   0  0  0  0  0  0  0  0  0  0  0  0
  -23.4438   -9.9985   22.2182 C   0  0  0  0  0  0  0  0  0  0  0  0
  -23.5384   -9.6521   19.8291 C   0  0  0  0  0  0  0  0  0  0  0  0
  -43.1085  -28.6352   16.7241 C   0  0  0  0  0  0  0  0  0  0  0  0
  -40.6126  -29.8113   17.0895 C   0  0  0  0  0  0  0  0  0  0  0  0
  -33.6718  -27.1254   19.4639 C   0  0  0  0  0  0  0  0  0  0  0  0
  -22.7088   -8.8216   22.3598 C   0  0  0  0  0  0  0  0  0  0  0  0
  -22.8034   -8.4751   19.9707 C   0  0  0  0  0  0  0  0  0  0  0  0
  -32.4680  -26.4869   19.7629 C   0  0  0  0  0  0  0  0  0  0  0  0
  -19.5112   -7.8151   21.9276 C   0  0  0  0  0  0  0  0  0  0  0  0
  -18.3936   -7.8462   22.7616 C   0  0  0  0  0  0  0  0  0  0  0  0
  -32.5373  -25.3371   17.6366 C   0  0  0  0  0  0  0  0  0  0  0  0
  -31.6482  -18.3614   20.5548 C   0  0  0  0  0  0  0  0  0  0  0  0
  -29.2329  -19.7317   20.8217 C   0  0  0  0  0  0  0  0  0  0  0  0
  -19.3784   -6.1278   24.1453 C   0  0  0  0  0  0  0  0  0  0  0  0
  -23.8586  -10.4139   20.9528 C   0  0  0  0  0  0  0  0  0  0  0  0
  -24.2179  -12.9302   21.1683 C   0  0  0  0  0  0  0  0  0  0  0  0
  -42.0159  -28.1787   15.9701 C   0  0  0  0  0  0  0  0  0  0  0  0
  -34.3215  -26.8601   18.2552 C   0  0  0  0  0  0  0  0  0  0  0  0
  -40.7547  -28.7795   16.1462 C   0  0  0  0  0  0  0  0  0  0  0  0
  -33.7496  -25.9642   17.3370 C   0  0  0  0  0  0  0  0  0  0  0  0
  -31.4119  -19.5114   19.8017 C   0  0  0  0  0  0  0  0  0  0  0  0
  -30.6768  -17.8964   21.4413 C   0  0  0  0  0  0  0  0  0  0  0  0
  -30.2042  -20.1966   19.9352 C   0  0  0  0  0  0  0  0  0  0  0  0
  -22.3886   -8.0598   21.2361 C   0  0  0  0  0  0  0  0  0  0  0  0
  -31.9020  -25.5952   18.8514 C   0  0  0  0  0  0  0  0  0  0  0  0
  -20.5624   -6.9403   22.2024 C   0  0  0  0  0  0  0  0  0  0  0  0
  -18.3272   -7.0026   23.8705 C   0  0  0  0  0  0  0  0  0  0  0  0
  -20.4960   -6.0966   23.3112 C   0  0  0  0  0  0  0  0  0  0  0  0
  -29.4692  -18.5816   21.5748 C   0  0  0  0  0  0  0  0  0  0  0  0
  -24.6173  -11.6299   20.8059 C   0  0  0  0  0  0  0  0  0  0  0  0
  -25.2850  -13.7248   20.8273 C   0  0  0  0  0  0  0  0  0  0  0  0
  -22.9918  -13.3797   21.7604 C   0  0  0  0  0  0  0  0  0  0  0  0
  -37.2787  -27.5304   16.0458 C   0  0  0  0  0  0  0  0  0  0  0  0
  -36.6944  -24.5244   15.8648 C   0  0  0  0  0  0  0  0  0  0  0  0
  -35.9839  -21.2124   16.2686 C   0  0  0  0  0  0  0  0  0  0  0  0
  -30.7769  -14.7095   20.7061 C   0  0  0  0  0  0  0  0  0  0  0  0
  -42.2438  -27.0996   14.9415 C   0  0  0  0  0  0  0  0  0  0  0  0
  -35.5885  -27.5714   17.8646 C   0  0  0  0  0  0  0  0  0  0  0  0
  -34.4663  -25.7357   16.0342 C   0  0  0  0  0  0  0  0  0  0  0  0
  -40.9561  -26.4392   14.4558 C   0  0  0  0  0  0  0  0  0  0  0  0
  -29.4210  -12.6924   18.1043 C   0  0  0  0  0  0  0  0  0  0  0  0
  -28.9696  -22.3469   17.1531 C   0  0  0  0  0  0  0  0  0  0  0  0
  -39.9056  -27.4954   14.1274 C   0  0  0  0  0  0  0  0  0  0  0  0
  -28.0205  -12.3386   18.6079 C   0  0  0  0  0  0  0  0  0  0  0  0
  -29.2965  -23.7315   17.6917 C   0  0  0  0  0  0  0  0  0  0  0  0
  -28.7926  -21.3332   18.2812 C   0  0  0  0  0  0  0  0  0  0  0  0
  -30.4357  -12.7388   19.2445 C   0  0  0  0  0  0  0  0  0  0  0  0
  -28.6622  -13.2617   20.8739 C   0  0  0  0  0  0  0  0  0  0  0  0
  -30.3494  -22.6575   19.7207 C   0  0  0  0  0  0  0  0  0  0  0  0
  -39.5409  -28.3160   15.3704 C   0  0  1  0  0  0  0  0  0  0  0  0
  -36.5507  -26.6874   17.0511 C   0  0  1  0  0  0  0  0  0  0  0  0
  -27.5930  -13.2577   19.7680 C   0  0  2  0  0  0  0  0  0  0  0  0
  -30.5226  -23.6775   18.5944 C   0  0  2  0  0  0  0  0  0  1  0  0
  -32.4688  -19.9867   18.8584 C   0  0  0  0  0  0  0  0  0  0  0  0
  -36.7065  -18.9350   15.5013 C   0  0  0  0  0  0  0  0  0  0  0  0
  -35.2868  -24.9804   13.1974 C   0  0  0  0  0  0  0  0  0  0  0  0
  -35.1997  -22.4961   12.8995 C   0  0  0  0  0  0  0  0  0  0  0  0
  -37.4031  -23.6562   13.0477 C   0  0  0  0  0  0  0  0  0  0  0  0
  -36.6948  -20.3839   19.0194 C   0  0  0  0  0  0  0  0  0  0  0  0
  -30.9681  -16.6599   22.2288 C   0  0  0  0  0  0  0  0  0  0  0  0
  -35.9867  -23.4155   15.1280 C   0  0  1  0  0  0  0  0  0  0  0  0
  -36.8762  -20.0182   16.5552 C   0  0  2  0  0  0  0  0  0  0  0  0
  -35.9577  -23.6493   13.5912 C   0  0  0  0  0  0  0  0  0  0  0  0
  -25.8426  -11.5960   20.2751 N   0  0  0  0  0  0  0  0  0  0  0  0
  -26.2222  -12.8849   20.3014 N   0  0  0  0  0  0  0  0  0  0  0  0
  -29.9503  -21.3524   19.1862 N   0  0  1  0  0  0  0  0  0  0  0  0
  -35.9131  -25.6127   16.2717 N   0  0  0  0  0  0  0  0  0  0  0  0
  -29.9712  -13.6288   20.3112 N   0  0  0  0  0  0  0  0  0  0  0  0
  -25.5037  -15.0531   20.9288 N   0  0  0  0  0  0  0  0  0  0  0  0
  -21.9391  -13.7539   20.9142 N   0  0  0  0  0  0  0  0  0  0  0  0
  -38.6481  -27.5656   16.2273 N   0  0  0  0  0  0  0  0  0  0  0  0
  -36.6404  -22.1752   15.5315 N   0  0  0  0  0  0  0  0  0  0  0  0
  -30.2592  -15.5072   21.7192 N   0  0  0  0  0  0  0  0  0  0  0  0
  -36.5481  -19.4342   17.8865 N   0  3  0  0  0  0  0  0  0  0  0  0
  -22.8402  -13.4630   23.0028 O   0  0  0  0  0  0  0  0  0  0  0  0
  -36.6458  -28.1060   15.1684 O   0  0  0  0  0  0  0  0  0  0  0  0
  -37.9080  -24.4334   16.0703 O   0  0  0  0  0  0  0  0  0  0  0  0
  -34.8197  -21.2824   16.6563 O   0  0  0  0  0  0  0  0  0  0  0  0
  -31.8738  -14.9491   20.1900 O   0  0  0  0  0  0  0  0  0  0  0  0
  -21.6716   -6.9111   21.3739 O   0  0  0  0  0  0  0  0  0  0  0  0
  -30.7289  -24.9720   19.1516 O   0  0  0  0  0  0  0  0  0  1  0  0
  -17.2546   -7.0336   24.6722 F   0  0  0  0  0  0  0  0  0  0  0  0
  -21.5032   -5.2549   23.5810 F   0  0  0  0  0  0  0  0  0  0  0  0
  -28.2449  -18.0366   22.6629 Cl  0  0  0  0  0  0  0  0  0  0  0  0
  1  2  1  0  0  0  0
  1  5  2  0  0  0  0
  2  6  2  0  0  0  0
  3  8  2  0  0  0  0
  3 17  1  0  0  0  0
  4  9  1  0  0  0  0
  4 17  2  0  0  0  0
  5 19  1  0  0  0  0
  6 21  1  0  0  0  0
  7 10  2  0  0  0  0
  7 20  1  0  0  0  0
  8 26  1  0  0  0  0
  9 26  2  0  0  0  0
 10 27  1  0  0  0  0
 11 12  2  0  0  0  0
 11 28  1  0  0  0  0
 12 29  1  0  0  0  0
 13 22  1  0  0  0  0
 13 27  2  0  0  0  0
 14 23  1  0  0  0  0
 14 24  2  0  0  0  0
 15 25  1  0  0  0  0
 15 31  2  0  0  0  0
 16 29  2  0  0  0  0
 16 30  1  0  0  0  0
 17 32  1  0  0  0  0
 18 32  1  0  0  0  0
 18 33  2  0  0  0  0
 18 34  1  0  0  0  0
 19 21  2  0  0  0  0
 19 39  1  0  0  0  0
 20 22  2  0  0  0  0
 20 40  1  0  0  0  0
 21 52  1  0  0  0  0
 22 41  1  0  0  0  0
 23 25  2  0  0  0  0
 23 56  1  0  0  0  0
 24 31  1  0  0  0  0
 24 62  1  0  0  0  0
 25 68  1  0  0  0  0
 26 82  1  0  0  0  0
 27 83  1  0  0  0  0
 28 30  2  0  0  0  0
 28 82  1  0  0  0  0
 29 84  1  0  0  0  0
 30 85  1  0  0  0  0
 31 86  1  0  0  0  0
 32 66  2  0  0  0  0
 33 67  1  0  0  0  0
 33 71  1  0  0  0  0
 34 72  1  0  0  0  0
 34 77  2  0  0  0  0
 35 53  1  0  0  0  0
 35 73  1  0  0  0  0
 35 78  2  0  0  0  0
 36 63  1  0  0  0  0
 36 69  1  0  0  0  0
 36 79  2  0  0  0  0
 37 64  1  0  0  0  0
 37 74  1  0  0  0  0
 37 80  2  0  0  0  0
 38 70  1  0  0  0  0
 38 75  1  0  0  0  0
 38 81  2  0  0  0  0
 39 42  1  0  0  0  0
 40 53  1  0  0  0  0
 41 69  1  0  0  0  0
 42 45  1  0  0  0  0
 43 46  1  0  0  0  0
 43 49  1  0  0  0  0
 44 47  1  0  0  0  0
 44 48  1  0  0  0  0
 45 52  1  0  0  0  0
 46 54  1  0  0  0  0
 47 55  1  0  0  0  0
 48 68  1  0  0  0  0
 49 70  1  0  0  0  0
 50 54  1  0  0  0  0
 50 70  1  0  0  0  0
 51 55  1  0  0  0  0
 51 68  1  0  0  0  0
 52 73  1  0  0  0  0
 53 69  1  0  0  0  0
 54 67  1  0  0  0  0
 55 83  1  0  0  0  0
 57 64  1  0  0  0  0
 58 65  1  0  0  0  0
 59 65  1  0  0  0  0
 60 65  1  0  0  0  0
 61 76  1  0  0  0  0
 62 75  1  0  0  0  0
 63 65  1  0  0  0  0
 63 74  1  0  0  0  0
 64 76  1  0  0  0  0
 66 67  1  0  0  0  0
M  CHG  1  76   1
M  ISO  4  38 100  55 101  75 100  83 101
M  END
> <Batch ID>
0037

> <Smiles>
CNC(C)C(=O)NC(C(=O)N1Cc2cc([101O:1][101CH:1]3CCCN(c4cc(Cl)c(C[100NH:0][100C:0](=O)N5CCCC(n6nc(-c7ccc(Oc8ccc(F)cc8F)cc7)c(C(N)=O)c6N)C5)cc4C)C3)ccc2CC1C(=O)NC1CCCc2ccccc21)C(C)(C)C

> <Shape>
0.211

> <Color>
0.174

> <Negative vol penalty>
0.000

$$$$

  -OEChem-04042321573D

 85 93  0     1  0  0  0  0  0999 V2000
  -16.9539  -28.1922   24.1671 C   0  0  0  0  0  0  0  0  0  0  0  0
  -17.6888  -27.2960   23.3975 C   0  0  0  0  0  0  0  0  0  0  0  0
  -26.4780  -11.7859   20.8501 C   0  0  0  0  0  0  0  0  0  0  0  0
  -25.4269  -13.8007   20.0300 C   0  0  0  0  0  0  0  0  0  0  0  0
  -17.2567  -29.5526   24.1300 C   0  0  0  0  0  0  0  0  0  0  0  0
  -18.7263  -27.7599   22.5895 C   0  0  0  0  0  0  0  0  0  0  0  0
  -22.8894  -24.8978   22.9388 C   0  0  0  0  0  0  0  0  0  0  0  0
  -25.2858  -11.4177   21.4735 C   0  0  0  0  0  0  0  0  0  0  0  0
  -24.2346  -13.4325   20.6534 C   0  0  0  0  0  0  0  0  0  0  0  0
  -22.8935  -23.6919   22.2392 C   0  0  0  0  0  0  0  0  0  0  0  0
  -22.4162   -9.7706   22.9793 C   0  0  0  0  0  0  0  0  0  0  0  0
  -21.9953   -8.4477   22.8442 C   0  0  0  0  0  0  0  0  0  0  0  0
  -24.1951  -24.7195   20.4874 C   0  0  0  0  0  0  0  0  0  0  0  0
  -28.7152  -21.7058   17.2075 C   0  0  0  0  0  0  0  0  0  0  0  0
  -21.9062   -8.7211   20.4453 C   0  0  0  0  0  0  0  0  0  0  0  0
  -26.5485  -12.9774   20.1283 C   0  0  0  0  0  0  0  0  0  0  0  0
  -28.1892  -13.0397   18.1758 C   0  0  0  0  0  0  0  0  0  0  0  0
  -18.3047  -30.0323   23.3285 C   0  0  0  0  0  0  0  0  0  0  0  0
  -23.5299  -26.0286   22.4119 C   0  0  0  0  0  0  0  0  0  0  0  0
  -19.0425  -29.1282   22.5407 C   0  0  0  0  0  0  0  0  0  0  0  0
  -24.1999  -25.9380   21.1834 C   0  0  0  0  0  0  0  0  0  0  0  0
  -27.5315  -21.8902   17.9219 C   0  0  0  0  0  0  0  0  0  0  0  0
  -29.8093  -20.9353   19.2190 C   0  0  0  0  0  0  0  0  0  0  0  0
  -27.4867  -21.5971   19.2849 C   0  0  0  0  0  0  0  0  0  0  0  0
  -24.1641  -12.2410   21.3752 C   0  0  0  0  0  0  0  0  0  0  0  0
  -23.5440  -23.6034   21.0120 C   0  0  0  0  0  0  0  0  0  0  0  0
  -22.5819  -10.5689   21.8475 C   0  0  0  0  0  0  0  0  0  0  0  0
  -21.7404   -7.9229   21.5772 C   0  0  0  0  0  0  0  0  0  0  0  0
  -22.3270  -10.0441   20.5805 C   0  0  0  0  0  0  0  0  0  0  0  0
  -29.8541  -21.2283   17.8560 C   0  0  0  0  0  0  0  0  0  0  0  0
  -28.6256  -21.1196   19.9335 C   0  0  0  0  0  0  0  0  0  0  0  0
  -27.7799  -13.3586   19.4845 C   0  0  0  0  0  0  0  0  0  0  0  0
  -29.4219  -13.6316   18.0477 C   0  0  0  0  0  0  0  0  0  0  0  0
  -27.5152  -12.2766   17.1663 C   0  0  0  0  0  0  0  0  0  0  0  0
  -22.5825  -28.9231   21.5020 C   0  0  0  0  0  0  0  0  0  0  0  0
  -25.7670  -29.4266   21.1446 C   0  0  0  0  0  0  0  0  0  0  0  0
  -28.8703  -28.1018   20.6338 C   0  0  0  0  0  0  0  0  0  0  0  0
  -32.0042  -18.3022   20.7623 C   0  0  0  0  0  0  0  0  0  0  0  0
  -18.5641  -31.5174   23.2850 C   0  0  0  0  0  0  0  0  0  0  0  0
  -23.5391  -27.3148   23.1915 C   0  0  0  0  0  0  0  0  0  0  0  0
  -24.9197  -27.1173   20.5839 C   0  0  0  0  0  0  0  0  0  0  0  0
  -19.9216  -31.8814   22.6894 C   0  0  0  0  0  0  0  0  0  0  0  0
  -33.2244  -14.9600   20.6299 C   0  0  0  0  0  0  0  0  0  0  0  0
  -20.1670  -31.0996   21.4027 C   0  0  0  0  0  0  0  0  0  0  0  0
  -32.0043  -14.1418   20.2033 C   0  0  0  0  0  0  0  0  0  0  0  0
  -32.8369  -16.1090   21.5581 C   0  0  0  0  0  0  0  0  0  0  0  0
  -30.5639  -16.1813   20.6083 C   0  0  0  0  0  0  0  0  0  0  0  0
  -20.1913  -29.5899   21.6706 C   0  0  1  0  0  0  0  0  0  0  0  0
  -23.7850  -28.5412   22.3180 C   0  0  1  0  0  0  0  0  0  0  0  0
  -30.8973  -15.0448   19.6268 C   0  0  2  0  0  0  0  0  0  0  0  0
  -26.3289  -22.4046   17.1984 C   0  0  0  0  0  0  0  0  0  0  0  0
  -31.2735  -28.7662   20.3498 C   0  0  0  0  0  0  0  0  0  0  0  0
  -23.0502  -20.2506   21.1515 C   0  0  0  0  0  0  0  0  0  0  0  0
  -25.1763  -30.3348   18.2922 C   0  0  0  0  0  0  0  0  0  0  0  0
  -27.6121  -30.0695   17.7775 C   0  0  0  0  0  0  0  0  0  0  0  0
  -26.8749  -31.7194   19.4971 C   0  0  0  0  0  0  0  0  0  0  0  0
  -29.6952  -26.5814   23.0352 C   0  0  0  0  0  0  0  0  0  0  0  0
  -31.0366  -20.4227   19.9101 C   0  0  0  0  0  0  0  0  0  0  0  0
  -25.2898  -20.7666   20.1272 C   0  0  0  0  0  0  0  0  0  0  0  0
  -26.7579  -29.2485   20.0197 C   0  0  1  0  0  0  0  0  0  0  0  0
  -30.1955  -28.3410   21.3346 C   0  0  2  0  0  0  0  0  0  0  0  0
  -24.1374  -21.3007   20.9748 C   0  0  1  0  0  0  0  0  0  1  0  0
  -26.5902  -30.3212   18.9067 C   0  0  0  0  0  0  0  0  0  0  0  0
  -28.6798  -14.0958   20.1409 N   0  0  0  0  0  0  0  0  0  0  0  0
  -29.6667  -14.2450   19.2411 N   0  0  0  0  0  0  0  0  0  0  0  0
  -24.8949  -28.3546   21.3813 N   0  0  0  0  0  0  0  0  0  0  0  0
  -31.7843  -16.9279   20.9519 N   0  0  0  0  0  0  0  0  0  0  0  0
  -30.3095  -13.6821   17.0319 N   0  0  0  0  0  0  0  0  0  0  0  0
  -26.2553  -11.7398   17.4642 N   0  0  0  0  0  0  0  0  0  0  0  0
  -26.3034  -21.7862   19.9792 N   0  0  0  0  0  0  0  0  0  0  0  0
  -21.4571  -29.2006   22.2543 N   0  0  0  0  0  0  0  0  0  0  0  0
  -28.0790  -29.2310   20.6384 N   0  0  0  0  0  0  0  0  0  0  0  0
  -30.9580  -19.0035   20.1756 N   0  0  0  0  0  0  0  0  0  0  0  0
  -30.6499  -27.0989   22.0214 N   0  3  0  0  0  0  0  0  0  0  0  0
  -28.0226  -12.0630   16.0392 O   0  0  0  0  0  0  0  0  0  0  0  0
  -22.6697  -28.9644   20.2804 O   0  0  0  0  0  0  0  0  0  0  0  0
  -25.7715  -30.4754   21.7940 O   0  0  0  0  0  0  0  0  0  0  0  0
  -28.5690  -27.0224   20.1292 O   0  0  0  0  0  0  0  0  0  0  0  0
  -33.0572  -18.8616   21.0866 O   0  0  0  0  0  0  0  0  0  0  0  0
  -23.0006  -11.8819   21.9832 O   0  0  0  0  0  0  0  0  0  0  0  0
  -23.5490  -22.4276   20.3267 O   0  0  0  0  0  0  0  0  0  1  0  0
  -21.3377   -6.6520   21.4475 F   0  0  0  0  0  0  0  0  0  0  0  0
  -22.4856  -10.8057   19.4894 F   0  0  0  0  0  0  0  0  0  0  0  0
  -31.2980  -21.0152   16.9329 Cl  0  0  0  0  0  0  0  0  0  0  0  0
  -28.5717  -20.7547   21.6291 Cl  0  0  0  0  0  0  0  0  0  0  0  0
  1  2  1  0  0  0  0
  1  5  2  0  0  0  0
  2  6  2  0  0  0  0
  3  8  2  0  0  0  0
  3 16  1  0  0  0  0
  4  9  1  0  0  0  0
  4 16  2  0  0  0  0
  5 18  1  0  0  0  0
  6 20  1  0  0  0  0
  7 10  2  0  0  0  0
  7 19  1  0  0  0  0
  8 25  1  0  0  0  0
  9 25  2  0  0  0  0
 10 26  1  0  0  0  0
 11 12  2  0  0  0  0
 11 27  1  0  0  0  0
 12 28  1  0  0  0  0
 13 21  1  0  0  0  0
 13 26  2  0  0  0  0
 14 22  2  0  0  0  0
 14 30  1  0  0  0  0
 15 28  2  0  0  0  0
 15 29  1  0  0  0  0
 16 32  1  0  0  0  0
 17 32  1  0  0  0  0
 17 33  2  0  0  0  0
 17 34  1  0  0  0  0
 18 20  2  0  0  0  0
 18 39  1  0  0  0  0
 19 21  2  0  0  0  0
 19 40  1  0  0  0  0
 20 48  1  0  0  0  0
 21 41  1  0  0  0  0
 22 24  1  0  0  0  0
 22 51  1  0  0  0  0
 23 30  2  0  0  0  0
 23 31  1  0  0  0  0
 23 58  1  0  0  0  0
 24 31  2  0  0  0  0
 24 70  1  0  0  0  0
 25 80  1  0  0  0  0
 26 81  1  0  0  0  0
 27 29  2  0  0  0  0
 27 80  1  0  0  0  0
 28 82  1  0  0  0  0
 29 83  1  0  0  0  0
 30 84  1  0  0  0  0
 31 85  1  0  0  0  0
 32 64  2  0  0  0  0
 33 65  1  0  0  0  0
 33 68  1  0  0  0  0
 34 69  1  0  0  0  0
 34 75  2  0  0  0  0
 35 49  1  0  0  0  0
 35 71  1  0  0  0  0
 35 76  2  0  0  0  0
 36 60  1  0  0  0  0
 36 66  1  0  0  0  0
 36 77  2  0  0  0  0
 37 61  1  0  0  0  0
 37 72  1  0  0  0  0
 37 78  2  0  0  0  0
 38 67  1  0  0  0  0
 38 73  1  0  0  0  0
 38 79  2  0  0  0  0
 39 42  1  0  0  0  0
 40 49  1  0  0  0  0
 41 66  1  0  0  0  0
 42 44  1  0  0  0  0
 43 45  1  0  0  0  0
 43 46  1  0  0  0  0
 44 48  1  0  0  0  0
 45 50  1  0  0  0  0
 46 67  1  0  0  0  0
 47 50  1  0  0  0  0
 47 67  1  0  0  0  0
 48 71  1  0  0  0  0
 49 66  1  0  0  0  0
 50 65  1  0  0  0  0
 52 61  1  0  0  0  0
 53 62  1  0  0  0  0
 54 63  1  0  0  0  0
 55 63  1  0  0  0  0
 56 63  1  0  0  0  0
 57 74  1  0  0  0  0
 58 73  1  0  0  0  0
 59 62  1  0  0  0  0
 59 70  1  0  0  0  0
 60 63  1  0  0  0  0
 60 72  1  0  0  0  0
 61 74  1  0  0  0  0
 62 81  1  0  0  0  0
 64 65  1  0  0  0  0
M  CHG  1  74   1
M  ISO  4  38 100  62 101  73 100  81 101
M  END
> <Batch ID>
0037

> <Smiles>
CNC(C)C(=O)NC(C(=O)N1Cc2cc([101O:1][101CH:1](C)CNc3c(C)cc(Cl)c(C[100NH:0][100C:0](=O)N4CCCC(n5nc(-c6ccc(Oc7ccc(F)cc7F)cc6)c(C(N)=O)c5N)C4)c3Cl)ccc2CC1C(=O)NC1CCCc2ccccc21)C(C)(C)C

> <Shape>
0.274

> <Color>
0.078

> <Negative vol penalty>
0.000

$$$$

  -OEChem-04042321573D

 86 94  0     1  0  0  0  0  0999 V2000
  -22.4815  -20.4708   20.4700 C   0  0  0  0  0  0  0  0  0  0  0  0
  -23.5841  -20.6612   21.2966 C   0  0  0  0  0  0  0  0  0  0  0  0
  -22.9956   -9.8585   20.0502 C   0  0  0  0  0  0  0  0  0  0  0  0
  -23.6776  -10.0500   22.3600 C   0  0  0  0  0  0  0  0  0  0  0  0
  -22.6020  -20.6611   19.0940 C   0  0  0  0  0  0  0  0  0  0  0  0
  -24.8084  -21.0410   20.7476 C   0  0  0  0  0  0  0  0  0  0  0  0
  -28.9996  -24.7154   23.2849 C   0  0  0  0  0  0  0  0  0  0  0  0
  -22.2199   -8.7447   20.3715 C   0  0  0  0  0  0  0  0  0  0  0  0
  -22.9018   -8.9362   22.6814 C   0  0  0  0  0  0  0  0  0  0  0  0
  -30.1770  -24.4530   23.9839 C   0  0  0  0  0  0  0  0  0  0  0  0
  -23.1421   -5.5738   22.4216 C   0  0  0  0  0  0  0  0  0  0  0  0
  -23.7115   -4.6036   23.2461 C   0  0  0  0  0  0  0  0  0  0  0  0
  -31.4397  -24.7218   21.9461 C   0  0  0  0  0  0  0  0  0  0  0  0
  -32.3922  -17.2658   23.7306 C   0  0  0  0  0  0  0  0  0  0  0  0
  -21.9574   -4.9543   24.8701 C   0  0  0  0  0  0  0  0  0  0  0  0
  -23.7245  -10.5111   21.0444 C   0  0  0  0  0  0  0  0  0  0  0  0
  -24.1228  -13.0099   20.7205 C   0  0  0  0  0  0  0  0  0  0  0  0
  -23.8259  -21.0528   18.5290 C   0  0  0  0  0  0  0  0  0  0  0  0
  -29.0323  -24.9727   21.9068 C   0  0  0  0  0  0  0  0  0  0  0  0
  -24.9458  -21.2355   19.3626 C   0  0  0  0  0  0  0  0  0  0  0  0
  -30.2616  -24.9897   21.2324 C   0  0  0  0  0  0  0  0  0  0  0  0
  -31.8045  -18.5222   23.8783 C   0  0  0  0  0  0  0  0  0  0  0  0
  -30.6387  -18.8334   23.1785 C   0  0  0  0  0  0  0  0  0  0  0  0
  -30.6482  -16.6320   22.1834 C   0  0  0  0  0  0  0  0  0  0  0  0
  -22.1729   -8.2836   21.6871 C   0  0  0  0  0  0  0  0  0  0  0  0
  -31.3970  -24.4534   23.3140 C   0  0  0  0  0  0  0  0  0  0  0  0
  -21.9804   -6.2344   22.8213 C   0  0  0  0  0  0  0  0  0  0  0  0
  -23.1192   -4.2938   24.4704 C   0  0  0  0  0  0  0  0  0  0  0  0
  -21.3880   -5.9246   24.0455 C   0  0  0  0  0  0  0  0  0  0  0  0
  -31.8140  -16.3207   22.8831 C   0  0  0  0  0  0  0  0  0  0  0  0
  -30.0606  -17.8883   22.3310 C   0  0  0  0  0  0  0  0  0  0  0  0
  -24.5265  -11.6613   20.7129 C   0  0  0  0  0  0  0  0  0  0  0  0
  -25.2419  -13.7056   20.3333 C   0  0  0  0  0  0  0  0  0  0  0  0
  -35.7535  -23.0026   24.3693 C   0  0  0  0  0  0  0  0  0  0  0  0
  -22.8499  -13.5826   21.0484 C   0  0  0  0  0  0  0  0  0  0  0  0
  -34.4457  -22.7491   24.2037 C   0  0  0  0  0  0  0  0  0  0  0  0
  -27.8188  -23.5587   19.3316 C   0  0  0  0  0  0  0  0  0  0  0  0
  -29.0075  -26.1695   17.8172 C   0  0  0  0  0  0  0  0  0  0  0  0
  -31.2611  -28.7322   17.7984 C   0  0  0  0  0  0  0  0  0  0  0  0
  -30.7197  -14.6647   20.6114 C   0  0  0  0  0  0  0  0  0  0  0  0
  -23.9197  -21.2004   17.0309 C   0  0  0  0  0  0  0  0  0  0  0  0
  -27.7563  -25.2802   21.1723 C   0  0  0  0  0  0  0  0  0  0  0  0
  -30.3529  -25.2801   19.7574 C   0  0  0  0  0  0  0  0  0  0  0  0
  -25.1570  -21.9669   16.5706 C   0  0  0  0  0  0  0  0  0  0  0  0
  -29.6359  -12.0755   18.4207 C   0  0  0  0  0  0  0  0  0  0  0  0
  -26.4000  -21.4575   17.2934 C   0  0  0  0  0  0  0  0  0  0  0  0
  -28.1768  -11.8479   18.8224 C   0  0  0  0  0  0  0  0  0  0  0  0
  -30.5144  -12.3910   19.6300 C   0  0  0  0  0  0  0  0  0  0  0  0
  -28.5774  -13.2660   20.8756 C   0  0  0  0  0  0  0  0  0  0  0  0
  -26.2843  -21.6715   18.8074 C   0  0  1  0  0  0  0  0  0  0  0  0
  -27.8532  -25.0218   19.6719 C   0  0  1  0  0  0  0  0  0  0  0  0
  -27.6415  -13.0090   19.6833 C   0  0  2  0  0  0  0  0  0  0  0  0
  -30.0266  -20.1893   23.3523 C   0  0  0  0  0  0  0  0  0  0  0  0
  -32.0167  -30.6809   16.4094 C   0  0  0  0  0  0  0  0  0  0  0  0
  -30.4625  -24.2598   15.9341 C   0  0  0  0  0  0  0  0  0  0  0  0
  -31.9029  -26.1773   15.2150 C   0  0  0  0  0  0  0  0  0  0  0  0
  -29.4414  -26.2506   14.8166 C   0  0  0  0  0  0  0  0  0  0  0  0
  -30.5629  -30.6680   19.9254 C   0  0  0  0  0  0  0  0  0  0  0  0
  -32.4484  -19.5195   24.7957 C   0  0  0  0  0  0  0  0  0  0  0  0
  -33.7698  -21.6333   24.9532 C   0  0  0  0  0  0  0  0  0  0  0  0
  -33.6064  -23.5747   23.2671 C   0  0  0  0  0  0  0  0  0  1  0  0
  -30.3248  -26.5226   17.1699 C   0  0  1  0  0  0  0  0  0  0  0  0
  -31.0960  -30.2167   17.5273 C   0  0  2  0  0  0  0  0  0  0  0  0
  -30.5313  -25.7951   15.8113 C   0  0  0  0  0  0  0  0  0  0  0  0
  -25.8025  -11.5072   20.3495 N   0  0  0  0  0  0  0  0  0  0  0  0
  -26.2102  -12.7679   20.1251 N   0  0  0  0  0  0  0  0  0  0  0  0
  -29.0769  -25.5687   19.0821 N   0  0  0  0  0  0  0  0  0  0  0  0
  -29.9477  -13.5036   20.3954 N   0  0  0  0  0  0  0  0  0  0  0  0
  -25.4824  -15.0218   20.1539 N   0  0  0  0  0  0  0  0  0  0  0  0
  -21.8084  -12.7242   21.4263 N   0  0  0  0  0  0  0  0  0  0  0  0
  -30.0644  -15.6684   21.3240 N   0  0  0  0  0  0  0  0  0  0  0  0
  -26.5460  -23.0546   19.1438 N   0  0  0  0  0  0  0  0  0  0  0  0
  -30.3579  -27.9783   17.0793 N   0  0  0  0  0  0  0  0  0  0  0  0
  -31.4100  -31.0050   18.7525 N   0  3  0  0  0  0  0  0  0  0  0  0
  -33.1690  -20.5985   24.0697 N   0  3  0  0  0  0  0  0  0  0  0  0
  -22.6375  -14.8176   20.9916 O   0  0  0  0  0  0  0  0  0  0  0  0
  -28.8693  -22.9338   19.2442 O   0  0  0  0  0  0  0  0  0  0  0  0
  -27.9555  -26.4241   17.2255 O   0  0  0  0  0  0  0  0  0  0  0  0
  -32.1090  -28.2859   18.5680 O   0  0  0  0  0  0  0  0  0  0  0  0
  -31.8672  -14.7722   20.1713 O   0  0  0  0  0  0  0  0  0  0  0  0
  -21.4159   -7.1969   22.0011 O   0  0  0  0  0  0  0  0  0  0  0  0
  -32.5476  -24.1969   23.9938 O   0  0  0  0  0  0  0  0  0  1  0  0
  -23.6652   -3.3609   25.2614 F   0  0  0  0  0  0  0  0  0  0  0  0
  -20.2712   -6.5550   24.4344 F   0  0  0  0  0  0  0  0  0  0  0  0
  -32.5801  -14.7784   22.7340 Cl  0  0  0  0  0  0  0  0  0  0  0  0
  -28.6102  -18.2839   21.4638 Cl  0  0  0  0  0  0  0  0  0  0  0  0
  1  2  1  0  0  0  0
  1  5  2  0  0  0  0
  2  6  2  0  0  0  0
  3  8  2  0  0  0  0
  3 16  1  0  0  0  0
  4  9  1  0  0  0  0
  4 16  2  0  0  0  0
  5 18  1  0  0  0  0
  6 20  1  0  0  0  0
  7 10  2  0  0  0  0
  7 19  1  0  0  0  0
  8 25  1  0  0  0  0
  9 25  2  0  0  0  0
 10 26  1  0  0  0  0
 11 12  2  0  0  0  0
 11 27  1  0  0  0  0
 12 28  1  0  0  0  0
 13 21  1  0  0  0  0
 13 26  2  0  0  0  0
 14 22  1  0  0  0  0
 14 30  2  0  0  0  0
 15 28  2  0  0  0  0
 15 29  1  0  0  0  0
 16 32  1  0  0  0  0
 17 32  1  0  0  0  0
 17 33  2  0  0  0  0
 17 35  1  0  0  0  0
 18 20  2  0  0  0  0
 18 41  1  0  0  0  0
 19 21  2  0  0  0  0
 19 42  1  0  0  0  0
 20 50  1  0  0  0  0
 21 43  1  0  0  0  0
 22 23  2  0  0  0  0
 22 59  1  0  0  0  0
 23 31  1  0  0  0  0
 23 53  1  0  0  0  0
 24 30  1  0  0  0  0
 24 31  2  0  0  0  0
 24 71  1  0  0  0  0
 25 81  1  0  0  0  0
 26 82  1  0  0  0  0
 27 29  2  0  0  0  0
 27 81  1  0  0  0  0
 28 83  1  0  0  0  0
 29 84  1  0  0  0  0
 30 85  1  0  0  0  0
 31 86  1  0  0  0  0
 32 65  2  0  0  0  0
 33 66  1  0  0  0  0
 33 69  1  0  0  0  0
 34 36  2  0  0  0  0
 35 70  1  0  0  0  0
 35 76  2  0  0  0  0
 36 60  1  0  0  0  0
 36 61  1  0  0  0  0
 37 51  1  0  0  0  0
 37 72  1  0  0  0  0
 37 77  2  0  0  0  0
 38 62  1  0  0  0  0
 38 67  1  0  0  0  0
 38 78  2  0  0  0  0
 39 63  1  0  0  0  0
 39 73  1  0  0  0  0
 39 79  2  0  0  0  0
 40 68  1  0  0  0  0
 40 71  1  0  0  0  0
 40 80  2  0  0  0  0
 41 44  1  0  0  0  0
 42 51  1  0  0  0  0
 43 67  1  0  0  0  0
 44 46  1  0  0  0  0
 45 47  1  0  0  0  0
 45 48  1  0  0  0  0
 46 50  1  0  0  0  0
 47 52  1  0  0  0  0
 48 68  1  0  0  0  0
 49 52  1  0  0  0  0
 49 68  1  0  0  0  0
 50 72  1  0  0  0  0
 51 67  1  0  0  0  0
 52 66  1  0  0  0  0
 54 63  1  0  0  0  0
 55 64  1  0  0  0  0
 56 64  1  0  0  0  0
 57 64  1  0  0  0  0
 58 74  1  0  0  0  0
 59 75  1  0  0  0  0
 60 75  1  0  0  0  0
 61 82  1  0  0  0  0
 62 64  1  0  0  0  0
 62 73  1  0  0  0  0
 63 74  1  0  0  0  0
 65 66  1  0  0  0  0
M  CHG  2  74   1  75   1
M  ISO  4  40 100  61 101  71 100  82 101
M  END
> <Batch ID>
0037

> <Smiles>
C=C(CNCc1cc(Cl)c([100NH:0][100C:0](=O)N2CCCC(n3nc(-c4ccc(Oc5ccc(F)cc5F)cc4)c(C(N)=O)c3N)C2)c(Cl)c1C)[101CH2:1][101O:1]c1ccc2c(c1)CN(C(=O)C(NC(=O)C(C)NC)C(C)(C)C)C(C(=O)NC1CCCc3ccccc31)C2

> <Shape>
0.225

> <Color>
0.210

> <Negative vol penalty>
0.000

$$$$

  -OEChem-04042321573D

 90 99  0     1  0  0  0  0  0999 V2000
  -29.7553  -22.1066   15.7381 C   0  0  0  0  0  0  0  0  0  0  0  0
  -29.6568  -23.4923   15.6811 C   0  0  0  0  0  0  0  0  0  0  0  0
  -25.6643  -13.3215   21.1904 C   0  0  0  0  0  0  0  0  0  0  0  0
  -24.2649  -14.2847   19.4726 C   0  0  0  0  0  0  0  0  0  0  0  0
  -28.9039  -21.3849   16.5720 C   0  0  0  0  0  0  0  0  0  0  0  0
  -28.7150  -24.1575   16.4668 C   0  0  0  0  0  0  0  0  0  0  0  0
  -24.6850  -30.3619   19.5088 C   0  0  0  0  0  0  0  0  0  0  0  0
  -25.2417  -12.0452   20.8191 C   0  0  0  0  0  0  0  0  0  0  0  0
  -23.8423  -13.0083   19.1012 C   0  0  0  0  0  0  0  0  0  0  0  0
  -23.5237  -30.7237   20.1900 C   0  0  0  0  0  0  0  0  0  0  0  0
  -24.2555   -8.5547   20.5587 C   0  0  0  0  0  0  0  0  0  0  0  0
  -23.9047   -7.6651   21.5741 C   0  0  0  0  0  0  0  0  0  0  0  0
  -24.0342  -29.1075   21.9063 C   0  0  0  0  0  0  0  0  0  0  0  0
  -21.3425  -25.1764   23.7745 C   0  0  0  0  0  0  0  0  0  0  0  0
  -22.6948  -25.4160   21.7869 C   0  0  0  0  0  0  0  0  0  0  0  0
  -22.1815   -9.1886   22.3136 C   0  0  0  0  0  0  0  0  0  0  0  0
  -25.1758  -14.4413   20.5172 C   0  0  0  0  0  0  0  0  0  0  0  0
  -26.7180  -16.4698   20.3969 C   0  0  0  0  0  0  0  0  0  0  0  0
  -27.9431  -22.0414   17.3586 C   0  0  0  0  0  0  0  0  0  0  0  0
  -25.5262  -29.3611   20.0164 C   0  0  0  0  0  0  0  0  0  0  0  0
  -27.8627  -23.4486   17.3328 C   0  0  0  0  0  0  0  0  0  0  0  0
  -25.2080  -28.7383   21.2320 C   0  0  0  0  0  0  0  0  0  0  0  0
  -22.5539  -24.9920   23.1083 C   0  0  0  0  0  0  0  0  0  0  0  0
  -20.2717  -25.7847   23.1194 C   0  0  0  0  0  0  0  0  0  0  0  0
  -21.6241  -26.0244   21.1318 C   0  0  0  0  0  0  0  0  0  0  0  0
  -20.4126  -26.2088   21.7980 C   0  0  0  0  0  0  0  0  0  0  0  0
  -24.3307  -11.8885   19.7745 C   0  0  0  0  0  0  0  0  0  0  0  0
  -23.1970  -30.0949   21.3878 C   0  0  0  0  0  0  0  0  0  0  0  0
  -23.5694   -9.7614   20.4208 C   0  0  0  0  0  0  0  0  0  0  0  0
  -22.8677   -7.9820   22.4515 C   0  0  0  0  0  0  0  0  0  0  0  0
  -22.5324  -10.0782   21.2982 C   0  0  0  0  0  0  0  0  0  0  0  0
  -25.6116  -15.7601   20.9007 C   0  0  0  0  0  0  0  0  0  0  0  0
  -26.7005  -17.6621   21.0786 C   0  0  0  0  0  0  0  0  0  0  0  0
  -27.6760  -16.0857   19.4018 C   0  0  0  0  0  0  0  0  0  0  0  0
  -26.5899  -26.5069   19.0326 C   0  0  0  0  0  0  0  0  0  0  0  0
  -28.3765  -26.7926   21.8218 C   0  0  0  0  0  0  0  0  0  0  0  0
  -31.1456  -25.2741   20.5311 C   0  0  0  0  0  0  0  0  0  0  0  0
  -23.9884  -22.0294   22.9543 C   0  0  0  0  0  0  0  0  0  0  0  0
  -27.0524  -21.2117   18.2494 C   0  0  0  0  0  0  0  0  0  0  0  0
  -26.7904  -29.0068   19.2812 C   0  0  0  0  0  0  0  0  0  0  0  0
  -26.0794  -27.6617   21.8203 C   0  0  0  0  0  0  0  0  0  0  0  0
  -25.8022  -21.9590   18.7020 C   0  0  0  0  0  0  0  0  0  0  0  0
  -24.0022  -19.1171   25.1027 C   0  0  0  0  0  0  0  0  0  0  0  0
  -21.4263  -24.9261   16.5271 C   0  0  0  0  0  0  0  0  0  0  0  0
  -21.2433  -23.6770   17.3655 C   0  0  0  0  0  0  0  0  0  0  0  0
  -26.1834  -23.3269   19.2479 C   0  0  0  0  0  0  0  0  0  0  0  0
  -24.5178  -18.0379   24.1489 C   0  0  0  0  0  0  0  0  0  0  0  0
  -23.0816  -20.0977   24.3822 C   0  0  0  0  0  0  0  0  0  0  0  0
  -24.2036  -19.6689   22.2303 C   0  0  0  0  0  0  0  0  0  0  0  0
  -22.3724  -25.7855   17.3472 C   0  0  0  0  0  0  0  0  0  0  0  0
  -21.1273  -24.2348   18.7679 C   0  0  0  0  0  0  0  0  0  0  0  0
  -26.8254  -24.1914   18.1554 C   0  0  1  0  0  0  0  0  0  0  0  0
  -27.3535  -27.6386   19.6600 C   0  0  1  0  0  0  0  0  0  0  0  0
  -25.1580  -18.6592   22.8934 C   0  0  2  0  0  0  0  0  0  0  0  0
  -18.9854  -25.9714   23.8557 C   0  0  0  0  0  0  0  0  0  0  0  0
  -33.3708  -24.1141   20.5150 C   0  0  0  0  0  0  0  0  0  0  0  0
  -29.4537  -29.6403   22.0107 C   0  0  0  0  0  0  0  0  0  0  0  0
  -31.7607  -28.7114   21.7228 C   0  0  0  0  0  0  0  0  0  0  0  0
  -30.3921  -28.0553   23.7024 C   0  0  0  0  0  0  0  0  0  0  0  0
  -29.8890  -22.6097   20.8155 C   0  0  0  0  0  0  0  0  0  0  0  0
  -23.6984  -24.3410   23.8085 C   0  0  0  0  0  0  0  0  0  0  0  0
  -21.8006  -26.4696   19.7167 C   0  0  0  0  0  0  0  0  0  0  0  0
  -19.2609  -26.8635   21.0938 C   0  0  0  0  0  0  0  0  0  0  0  0
  -19.6694  -30.5635   21.9907 C   0  0  0  0  0  0  0  0  0  0  0  0
  -19.4868  -29.0733   22.2360 C   0  0  0  0  0  0  0  0  0  0  0  0
  -20.9665  -30.9120   21.2710 C   0  0  0  0  0  0  0  0  0  1  0  0
  -29.7864  -27.1487   21.4214 C   0  0  1  0  0  0  0  0  0  0  0  0
  -31.9236  -24.0495   20.9778 C   0  0  2  0  0  0  0  0  0  0  0  0
  -30.3281  -28.3839   22.1949 C   0  0  0  0  0  0  0  0  0  0  0  0
  -24.9401  -16.4444   21.8307 N   0  0  0  0  0  0  0  0  0  0  0  0
  -25.6266  -17.5965   21.9168 N   0  0  0  0  0  0  0  0  0  0  0  0
  -27.3411  -27.4125   21.1109 N   0  0  0  0  0  0  0  0  0  0  0  0
  -23.7575  -20.6671   23.2079 N   0  0  0  0  0  0  0  0  0  0  0  0
  -27.4991  -18.7497   21.0368 N   0  0  0  0  0  0  0  0  0  0  0  0
  -27.5472  -14.8258   18.8014 N   0  0  0  0  0  0  0  0  0  0  0  0
  -27.3598  -25.3930   18.7573 N   0  0  0  0  0  0  0  0  0  0  0  0
  -30.5796  -25.9373   21.5993 N   0  0  0  0  0  0  0  0  0  0  0  0
  -23.5288  -22.9097   23.9261 N   0  0  0  0  0  0  0  0  0  0  0  0
  -22.1462  -25.3532   18.7843 N   0  3  0  0  0  0  0  0  0  0  0  0
  -31.3068  -22.8124   20.4208 N   0  3  0  0  0  0  0  0  0  0  0  0
  -19.4251  -28.3367   20.9518 N   0  3  0  0  0  0  0  0  0  0  0  0
  -28.6280  -16.8308   19.0670 O   0  0  0  0  0  0  0  0  0  0  0  0
  -25.3905  -26.6343   18.8158 O   0  0  0  0  0  0  0  0  0  0  0  0
  -28.1956  -25.9929   22.7443 O   0  0  0  0  0  0  0  0  0  0  0  0
  -31.0527  -25.6109   19.3527 O   0  0  0  0  0  0  0  0  0  0  0  0
  -24.5666  -22.4315   21.9389 O   0  0  0  0  0  0  0  0  0  0  0  0
  -23.9183  -10.6432   19.4117 O   0  0  0  0  0  0  0  0  0  0  0  0
  -22.0642  -30.4466   22.0551 O   0  0  0  0  0  0  0  0  0  1  0  0
  -22.5299   -7.1268   23.4256 F   0  0  0  0  0  0  0  0  0  0  0  0
  -21.8688  -11.2354   21.1699 F   0  0  0  0  0  0  0  0  0  0  0  0
  1  2  1  0  0  0  0
  1  5  2  0  0  0  0
  2  6  2  0  0  0  0
  3  8  2  0  0  0  0
  3 17  1  0  0  0  0
  4  9  1  0  0  0  0
  4 17  2  0  0  0  0
  5 19  1  0  0  0  0
  6 21  1  0  0  0  0
  7 10  2  0  0  0  0
  7 20  1  0  0  0  0
  8 27  1  0  0  0  0
  9 27  2  0  0  0  0
 10 28  1  0  0  0  0
 11 12  2  0  0  0  0
 11 29  1  0  0  0  0
 12 30  1  0  0  0  0
 13 22  1  0  0  0  0
 13 28  2  0  0  0  0
 14 23  1  0  0  0  0
 14 24  2  0  0  0  0
 15 23  2  0  0  0  0
 15 25  1  0  0  0  0
 16 30  2  0  0  0  0
 16 31  1  0  0  0  0
 17 32  1  0  0  0  0
 18 32  1  0  0  0  0
 18 33  2  0  0  0  0
 18 34  1  0  0  0  0
 19 21  2  0  0  0  0
 19 39  1  0  0  0  0
 20 22  2  0  0  0  0
 20 40  1  0  0  0  0
 21 52  1  0  0  0  0
 22 41  1  0  0  0  0
 23 61  1  0  0  0  0
 24 26  1  0  0  0  0
 24 55  1  0  0  0  0
 25 26  2  0  0  0  0
 25 62  1  0  0  0  0
 26 63  1  0  0  0  0
 27 87  1  0  0  0  0
 28 88  1  0  0  0  0
 29 31  2  0  0  0  0
 29 87  1  0  0  0  0
 30 89  1  0  0  0  0
 31 90  1  0  0  0  0
 32 70  2  0  0  0  0
 33 71  1  0  0  0  0
 33 74  1  0  0  0  0
 34 75  1  0  0  0  0
 34 82  2  0  0  0  0
 35 53  1  0  0  0  0
 35 76  1  0  0  0  0
 35 83  2  0  0  0  0
 36 67  1  0  0  0  0
 36 72  1  0  0  0  0
 36 84  2  0  0  0  0
 37 68  1  0  0  0  0
 37 77  1  0  0  0  0
 37 85  2  0  0  0  0
 38 73  1  0  0  0  0
 38 78  1  0  0  0  0
 38 86  2  0  0  0  0
 39 42  1  0  0  0  0
 40 53  1  0  0  0  0
 41 72  1  0  0  0  0
 42 46  1  0  0  0  0
 43 47  1  0  0  0  0
 43 48  1  0  0  0  0
 44 45  1  0  0  0  0
 44 50  1  0  0  0  0
 45 51  1  0  0  0  0
 46 52  1  0  0  0  0
 47 54  1  0  0  0  0
 48 73  1  0  0  0  0
 49 54  1  0  0  0  0
 49 73  1  0  0  0  0
 50 79  1  0  0  0  0
 51 79  1  0  0  0  0
 52 76  1  0  0  0  0
 53 72  1  0  0  0  0
 54 71  1  0  0  0  0
 56 68  1  0  0  0  0
 57 69  1  0  0  0  0
 58 69  1  0  0  0  0
 59 69  1  0  0  0  0
 60 80  1  0  0  0  0
 61 78  1  0  0  0  0
 62 79  1  0  0  0  0
 63 81  1  0  0  0  0
 64 65  1  0  0  0  0
 64 66  1  0  0  0  0
 65 81  1  0  0  0  0
 66 88  1  0  0  0  0
 67 69  1  0  0  0  0
 67 77  1  0  0  0  0
 68 80  1  0  0  0  0
 70 71  1  0  0  0  0
M  CHG  3  79   1  80   1  81   1
M  ISO  4  38 100  66 101  78 100  88 101
M  END
> <Batch ID>
0037

> <Smiles>
CNC(C)C(=O)NC(C(=O)N1Cc2cc([101O:1][101CH2:1]CCNCc3c(C)cc(C[100NH:0][100C:0](=O)N4CCCC(n5nc(-c6ccc(Oc7ccc(F)cc7F)cc6)c(C(N)=O)c5N)C4)cc3CN3CCCC3)ccc2CC1C(=O)NC1CCCc2ccccc21)C(C)(C)C

> <Shape>
0.219

> <Color>
0.065

> <Negative vol penalty>
0.000

$$$$

  -OEChem-04042321573D

 85 93  0     1  0  0  0  0  0999 V2000
  -24.1969  -23.5503   23.9435 C   0  0  0  0  0  0  0  0  0  0  0  0
  -23.7023  -22.4137   23.3118 C   0  0  0  0  0  0  0  0  0  0  0  0
  -24.8697  -30.3403   20.3320 C   0  0  0  0  0  0  0  0  0  0  0  0
  -24.3181  -28.5825   21.8950 C   0  0  0  0  0  0  0  0  0  0  0  0
  -25.4228  -24.0865   23.5515 C   0  0  0  0  0  0  0  0  0  0  0  0
  -24.4327  -21.8133   22.2869 C   0  0  0  0  0  0  0  0  0  0  0  0
  -24.6211  -16.7723   22.7311 C   0  0  0  0  0  0  0  0  0  0  0  0
  -24.4726  -31.2962   21.2669 C   0  0  0  0  0  0  0  0  0  0  0  0
  -23.9211  -29.5384   22.8300 C   0  0  0  0  0  0  0  0  0  0  0  0
  -23.4922  -16.0557   22.3365 C   0  0  0  0  0  0  0  0  0  0  0  0
  -23.9437  -34.2106   23.3744 C   0  0  0  0  0  0  0  0  0  0  0  0
  -24.7706  -35.3183   23.5605 C   0  0  0  0  0  0  0  0  0  0  0  0
  -20.3203  -20.2112   19.6314 C   0  0  0  0  0  0  0  0  0  0  0  0
  -24.5609  -15.5405   20.2361 C   0  0  0  0  0  0  0  0  0  0  0  0
  -21.2244  -20.6350   17.0265 C   0  0  0  0  0  0  0  0  0  0  0  0
  -26.5766  -33.8582   24.2267 C   0  0  0  0  0  0  0  0  0  0  0  0
  -24.7924  -28.9834   20.6460 C   0  0  0  0  0  0  0  0  0  0  0  0
  -20.2818  -19.1717   18.7021 C   0  0  0  0  0  0  0  0  0  0  0  0
  -26.4883  -27.4473   19.5182 C   0  0  0  0  0  0  0  0  0  0  0  0
  -26.1732  -23.4867   22.5278 C   0  0  0  0  0  0  0  0  0  0  0  0
  -25.7260  -16.8877   21.8754 C   0  0  0  0  0  0  0  0  0  0  0  0
  -25.6692  -22.3428   21.8799 C   0  0  0  0  0  0  0  0  0  0  0  0
  -25.7036  -16.2569   20.6233 C   0  0  0  0  0  0  0  0  0  0  0  0
  -20.8107  -21.4626   19.2583 C   0  0  0  0  0  0  0  0  0  0  0  0
  -20.7339  -19.3836   17.3996 C   0  0  0  0  0  0  0  0  0  0  0  0
  -21.2628  -21.6744   17.9558 C   0  0  0  0  0  0  0  0  0  0  0  0
  -23.9984  -30.8953   22.5159 C   0  0  0  0  0  0  0  0  0  0  0  0
  -23.4608  -15.4421   21.0877 C   0  0  0  0  0  0  0  0  0  0  0  0
  -24.4331  -32.9266   23.6145 C   0  0  0  0  0  0  0  0  0  0  0  0
  -26.0871  -35.1421   23.9866 C   0  0  0  0  0  0  0  0  0  0  0  0
  -25.7496  -32.7504   24.0406 C   0  0  0  0  0  0  0  0  0  0  0  0
  -25.2018  -27.9954   19.6804 C   0  0  0  0  0  0  0  0  0  0  0  0
  -26.3555  -26.5618   18.4768 C   0  0  0  0  0  0  0  0  0  0  0  0
  -19.7588  -17.8548   19.1176 C   0  0  0  0  0  0  0  0  0  0  0  0
  -27.6955  -27.7146   20.2442 C   0  0  0  0  0  0  0  0  0  0  0  0
  -27.2190  -19.3070   20.4536 C   0  0  0  0  0  0  0  0  0  0  0  0
  -29.3061  -16.9876   19.5665 C   0  0  0  0  0  0  0  0  0  0  0  0
  -29.8744  -13.6763   18.9670 C   0  0  0  0  0  0  0  0  0  0  0  0
  -21.7127  -23.5049   16.2846 C   0  0  0  0  0  0  0  0  0  0  0  0
  -27.4707  -24.1300   22.1065 C   0  0  0  0  0  0  0  0  0  0  0  0
  -26.9467  -17.6417   22.3267 C   0  0  0  0  0  0  0  0  0  0  0  0
  -26.8718  -16.3336   19.6757 C   0  0  0  0  0  0  0  0  0  0  0  0
  -28.3592  -23.2160   21.2666 C   0  0  0  0  0  0  0  0  0  0  0  0
  -23.7774  -25.8019   14.5131 C   0  0  0  0  0  0  0  0  0  0  0  0
  -27.5414  -22.5320   20.1757 C   0  0  0  0  0  0  0  0  0  0  0  0
  -24.4986  -26.5711   15.6223 C   0  0  0  0  0  0  0  0  0  0  0  0
  -22.3366  -25.4701   14.8975 C   0  0  0  0  0  0  0  0  0  0  0  0
  -22.9017  -25.5501   17.2941 C   0  0  0  0  0  0  0  0  0  0  0  0
  -26.4439  -21.6485   20.7809 C   0  0  1  0  0  0  0  0  0  0  0  0
  -27.8126  -18.1257   21.1676 C   0  0  1  0  0  0  0  0  0  0  0  0
  -24.3763  -25.8502   16.9792 C   0  0  2  0  0  0  0  0  0  0  0  0
  -20.8402  -22.5578   20.2744 C   0  0  0  0  0  0  0  0  0  0  0  0
  -20.7027  -18.2861   16.3868 C   0  0  0  0  0  0  0  0  0  0  0  0
  -31.6684  -12.0896   18.2179 C   0  0  0  0  0  0  0  0  0  0  0  0
  -20.4818  -14.0492   22.0432 C   0  0  0  0  0  0  0  0  0  0  0  0
  -28.9254  -17.9207   16.6866 C   0  0  0  0  0  0  0  0  0  0  0  0
  -29.9478  -15.7654   15.9266 C   0  0  0  0  0  0  0  0  0  0  0  0
  -31.2850  -17.3626   17.2990 C   0  0  0  0  0  0  0  0  0  0  0  0
  -29.7867  -12.1875   21.5233 C   0  0  0  0  0  0  0  0  0  0  0  0
  -20.2194  -15.6212   20.0639 C   0  0  0  0  0  0  0  0  0  0  0  0
  -29.4230  -16.0469   18.3916 C   0  0  1  0  0  0  0  0  0  0  0  0
  -30.9927  -12.7500   19.4095 C   0  0  2  0  0  0  0  0  0  0  0  0
  -21.1019  -15.1701   21.2204 C   0  0  2  0  0  0  0  0  0  1  0  0
  -29.8723  -16.7739   17.0928 C   0  0  0  0  0  0  0  0  0  0  0  0
  -24.3169  -27.4997   18.8114 N   0  0  0  0  0  0  0  0  0  0  0  0
  -25.0485  -26.6309   18.0931 N   0  0  0  0  0  0  0  0  0  0  0  0
  -28.0398  -17.0877   20.1601 N   0  0  0  0  0  0  0  0  0  0  0  0
  -22.2992  -24.7848   16.1913 N   0  0  0  0  0  0  0  0  0  0  0  0
  -27.2303  -25.7386   17.8608 N   0  0  0  0  0  0  0  0  0  0  0  0
  -18.4542  -17.6227   18.9721 N   0  0  0  0  0  0  0  0  0  0  0  0
  -27.6557  -28.6531   21.2844 N   0  0  0  0  0  0  0  0  0  0  0  0
  -21.7646  -22.9383   17.5577 N   0  0  0  0  0  0  0  0  0  0  0  0
  -27.0052  -20.4053   21.2644 N   0  0  0  0  0  0  0  0  0  0  0  0
  -30.3159  -14.9737   18.8152 N   0  0  0  0  0  0  0  0  0  0  0  0
  -20.6172  -16.9604   19.6212 N   0  3  0  0  0  0  0  0  0  0  0  0
  -30.4579  -11.6803   20.2988 N   0  3  0  0  0  0  0  0  0  0  0  0
  -28.7812  -27.1505   19.9675 O   0  0  0  0  0  0  0  0  0  0  0  0
  -26.9747  -19.2284   19.2553 O   0  0  0  0  0  0  0  0  0  0  0  0
  -30.3033  -17.6052   19.9482 O   0  0  0  0  0  0  0  0  0  0  0  0
  -28.7251  -13.2872   18.7717 O   0  0  0  0  0  0  0  0  0  0  0  0
  -21.2264  -22.9407   15.3011 O   0  0  0  0  0  0  0  0  0  0  0  0
  -23.6111  -31.8278   23.4286 O   0  0  0  0  0  0  0  0  0  0  0  0
  -22.3598  -14.7426   20.6997 O   0  0  0  0  0  0  0  0  0  1  0  0
  -26.8816  -36.2059   24.1638 F   0  0  0  0  0  0  0  0  0  0  0  0
  -26.2257  -31.5193   24.2718 F   0  0  0  0  0  0  0  0  0  0  0  0
  1  2  1  0  0  0  0
  1  5  2  0  0  0  0
  2  6  2  0  0  0  0
  3  8  2  0  0  0  0
  3 17  1  0  0  0  0
  4  9  1  0  0  0  0
  4 17  2  0  0  0  0
  5 20  1  0  0  0  0
  6 22  1  0  0  0  0
  7 10  2  0  0  0  0
  7 21  1  0  0  0  0
  8 27  1  0  0  0  0
  9 27  2  0  0  0  0
 10 28  1  0  0  0  0
 11 12  2  0  0  0  0
 11 29  1  0  0  0  0
 12 30  1  0  0  0  0
 13 18  1  0  0  0  0
 13 24  2  0  0  0  0
 14 23  1  0  0  0  0
 14 28  2  0  0  0  0
 15 25  1  0  0  0  0
 15 26  2  0  0  0  0
 16 30  2  0  0  0  0
 16 31  1  0  0  0  0
 17 32  1  0  0  0  0
 18 25  2  0  0  0  0
 18 34  1  0  0  0  0
 19 32  1  0  0  0  0
 19 33  2  0  0  0  0
 19 35  1  0  0  0  0
 20 22  2  0  0  0  0
 20 40  1  0  0  0  0
 21 23  2  0  0  0  0
 21 41  1  0  0  0  0
 22 49  1  0  0  0  0
 23 42  1  0  0  0  0
 24 26  1  0  0  0  0
 24 52  1  0  0  0  0
 25 53  1  0  0  0  0
 26 72  1  0  0  0  0
 27 82  1  0  0  0  0
 28 83  1  0  0  0  0
 29 31  2  0  0  0  0
 29 82  1  0  0  0  0
 30 84  1  0  0  0  0
 31 85  1  0  0  0  0
 32 65  2  0  0  0  0
 33 66  1  0  0  0  0
 33 69  1  0  0  0  0
 34 70  1  0  0  0  0
 34 75  2  0  0  0  0
 35 71  1  0  0  0  0
 35 77  2  0  0  0  0
 36 50  1  0  0  0  0
 36 73  1  0  0  0  0
 36 78  2  0  0  0  0
 37 61  1  0  0  0  0
 37 67  1  0  0  0  0
 37 79  2  0  0  0  0
 38 62  1  0  0  0  0
 38 74  1  0  0  0  0
 38 80  2  0  0  0  0
 39 68  1  0  0  0  0
 39 72  1  0  0  0  0
 39 81  2  0  0  0  0
 40 43  1  0  0  0  0
 41 50  1  0  0  0  0
 42 67  1  0  0  0  0
 43 45  1  0  0  0  0
 44 46  1  0  0  0  0
 44 47  1  0  0  0  0
 45 49  1  0  0  0  0
 46 51  1  0  0  0  0
 47 68  1  0  0  0  0
 48 51  1  0  0  0  0
 48 68  1  0  0  0  0
 49 73  1  0  0  0  0
 50 67  1  0  0  0  0
 51 66  1  0  0  0  0
 54 62  1  0  0  0  0
 55 63  1  0  0  0  0
 56 64  1  0  0  0  0
 57 64  1  0  0  0  0
 58 64  1  0  0  0  0
 59 76  1  0  0  0  0
 60 63  1  0  0  0  0
 60 75  1  0  0  0  0
 61 64  1  0  0  0  0
 61 74  1  0  0  0  0
 62 76  1  0  0  0  0
 63 83  1  0  0  0  0
 65 66  1  0  0  0  0
M  CHG  2  75   1  76   1
M  ISO  4  39 100  63 101  72 100  83 101
M  END
> <Batch ID>
0037

> <Smiles>
CNC(C)C(=O)NC(C(=O)N1Cc2cc([101O:1][101CH:1](C)CNC(=N)c3cc(C)c([100NH:0][100C:0](=O)N4CCCC(n5nc(-c6ccc(Oc7ccc(F)cc7F)cc6)c(C(N)=O)c5N)C4)cc3C)ccc2CC1C(=O)NC1CCCc2ccccc21)C(C)(C)C

> <Shape>
0.206

> <Color>
0.079

> <Negative vol penalty>
0.000

$$$$

  -OEChem-04042321573D

 86 94  0     1  0  0  0  0  0999 V2000
  -15.7671  -26.4347   19.5288 C   0  0  0  0  0  0  0  0  0  0  0  0
  -16.5415  -25.8384   20.5189 C   0  0  0  0  0  0  0  0  0  0  0  0
  -22.9999   -9.8951   19.9820 C   0  0  0  0  0  0  0  0  0  0  0  0
  -23.7311   -9.9438   22.2842 C   0  0  0  0  0  0  0  0  0  0  0  0
  -15.3085  -25.6760   18.4527 C   0  0  0  0  0  0  0  0  0  0  0  0
  -16.8567  -24.4827   20.4340 C   0  0  0  0  0  0  0  0  0  0  0  0
  -22.0516  -21.7907   22.2428 C   0  0  0  0  0  0  0  0  0  0  0  0
  -22.2350   -8.7597   20.2490 C   0  0  0  0  0  0  0  0  0  0  0  0
  -22.9662   -8.8084   22.5512 C   0  0  0  0  0  0  0  0  0  0  0  0
  -22.3919  -21.0907   23.3996 C   0  0  0  0  0  0  0  0  0  0  0  0
  -23.2120   -5.4702   22.0745 C   0  0  0  0  0  0  0  0  0  0  0  0
  -23.8023   -4.4526   22.8238 C   0  0  0  0  0  0  0  0  0  0  0  0
  -21.9199  -19.0107   22.2726 C   0  0  0  0  0  0  0  0  0  0  0  0
  -29.8272  -18.9635   21.0364 C   0  0  0  0  0  0  0  0  0  0  0  0
  -22.0827   -4.6921   24.5039 C   0  0  0  0  0  0  0  0  0  0  0  0
  -23.7480  -10.4872   20.9996 C   0  0  0  0  0  0  0  0  0  0  0  0
  -24.1308  -13.0033   20.8257 C   0  0  0  0  0  0  0  0  0  0  0  0
  -15.6264  -24.3126   18.3496 C   0  0  0  0  0  0  0  0  0  0  0  0
  -21.6317  -21.1053   21.0938 C   0  0  0  0  0  0  0  0  0  0  0  0
  -16.4007  -23.7048   19.3562 C   0  0  0  0  0  0  0  0  0  0  0  0
  -21.5773  -19.7042   21.1017 C   0  0  0  0  0  0  0  0  0  0  0  0
  -29.8764  -17.9916   22.0357 C   0  0  0  0  0  0  0  0  0  0  0  0
  -29.0530  -18.1011   23.1562 C   0  0  0  0  0  0  0  0  0  0  0  0
  -28.1804  -19.1826   23.2775 C   0  0  0  0  0  0  0  0  0  0  0  0
  -28.1312  -20.1545   22.2782 C   0  0  0  0  0  0  0  0  0  0  0  0
  -22.2181   -8.2163   21.5336 C   0  0  0  0  0  0  0  0  0  0  0  0
  -22.3233  -19.7007   23.4155 C   0  0  0  0  0  0  0  0  0  0  0  0
  -22.0570   -6.0989   22.5399 C   0  0  0  0  0  0  0  0  0  0  0  0
  -23.2377   -4.0635   24.0385 C   0  0  0  0  0  0  0  0  0  0  0  0
  -21.4924   -5.7098   23.7546 C   0  0  0  0  0  0  0  0  0  0  0  0
  -28.9547  -20.0450   21.1577 C   0  0  0  0  0  0  0  0  0  0  0  0
  -24.5388  -11.6598   20.7243 C   0  0  0  0  0  0  0  0  0  0  0  0
  -25.2390  -13.7272   20.4592 C   0  0  0  0  0  0  0  0  0  0  0  0
  -22.8635  -13.5482   21.2162 C   0  0  0  0  0  0  0  0  0  0  0  0
  -18.9619  -21.0415   19.3698 C   0  0  0  0  0  0  0  0  0  0  0  0
  -20.7337  -19.1580   17.4114 C   0  0  0  0  0  0  0  0  0  0  0  0
  -23.3817  -17.0357   17.0494 C   0  0  0  0  0  0  0  0  0  0  0  0
  -30.7353  -14.6660   20.6942 C   0  0  0  0  0  0  0  0  0  0  0  0
  -15.0682  -23.5226   17.1924 C   0  0  0  0  0  0  0  0  0  0  0  0
  -21.2937  -21.8736   19.8456 C   0  0  0  0  0  0  0  0  0  0  0  0
  -21.1523  -18.9201   19.8881 C   0  0  0  0  0  0  0  0  0  0  0  0
  -15.7601  -22.1781   16.9827 C   0  0  0  0  0  0  0  0  0  0  0  0
  -29.5903  -12.2443   18.3488 C   0  0  0  0  0  0  0  0  0  0  0  0
  -15.9125  -21.4433   18.3108 C   0  0  0  0  0  0  0  0  0  0  0  0
  -28.1431  -11.9828   18.7700 C   0  0  0  0  0  0  0  0  0  0  0  0
  -30.4957  -12.4789   19.5559 C   0  0  0  0  0  0  0  0  0  0  0  0
  -28.5886  -13.2712   20.9008 C   0  0  0  0  0  0  0  0  0  0  0  0
  -16.7845  -22.2426   19.2866 C   0  0  1  0  0  0  0  0  0  0  0  0
  -20.3862  -21.0993   18.8947 C   0  0  1  0  0  0  0  0  0  0  0  0
  -27.6265  -13.0842   19.7151 C   0  0  2  0  0  0  0  0  0  0  0  0
  -29.1083  -17.0571   24.2264 C   0  0  0  0  0  0  0  0  0  0  0  0
  -27.1897  -21.3103   22.4215 C   0  0  0  0  0  0  0  0  0  0  0  0
  -24.5560  -15.6251   15.3381 C   0  0  0  0  0  0  0  0  0  0  0  0
  -18.5011  -17.0860   17.5907 C   0  0  0  0  0  0  0  0  0  0  0  0
  -20.1014  -15.3856   16.6876 C   0  0  0  0  0  0  0  0  0  0  0  0
  -19.4811  -17.3687   15.3073 C   0  0  0  0  0  0  0  0  0  0  0  0
  -25.9040  -18.5522   17.3608 C   0  0  0  0  0  0  0  0  0  0  0  0
  -30.8194  -16.8435   21.8819 C   0  0  0  0  0  0  0  0  0  0  0  0
  -27.2951  -19.2985   24.4833 C   0  0  0  0  0  0  0  0  0  0  0  0
  -24.1349  -17.4108   25.5371 C   0  0  0  0  0  0  0  0  0  0  0  0
  -25.2863  -18.3971   25.6626 C   0  0  0  0  0  0  0  0  0  0  0  0
  -23.1982  -17.7070   24.3723 C   0  0  0  0  0  0  0  0  0  1  0  0
  -20.9986  -17.6755   17.3060 C   0  0  1  0  0  0  0  0  0  0  0  0
  -24.4969  -16.9827   16.0208 C   0  0  2  0  0  0  0  0  0  0  0  0
  -19.7767  -16.8935   16.7465 C   0  0  0  0  0  0  0  0  0  0  0  0
  -25.8071  -11.5348   20.3246 N   0  0  0  0  0  0  0  0  0  0  0  0
  -26.2057  -12.8091   20.1715 N   0  0  0  0  0  0  0  0  0  0  0  0
  -20.8258  -19.7170   18.6939 N   0  0  0  0  0  0  0  0  0  0  0  0
  -29.9504  -13.5361   20.4108 N   0  0  0  0  0  0  0  0  0  0  0  0
  -25.4712  -15.0532   20.3582 N   0  0  0  0  0  0  0  0  0  0  0  0
  -21.8333  -12.6628   21.5614 N   0  0  0  0  0  0  0  0  0  0  0  0
  -18.1839  -22.1018   18.9457 N   0  0  0  0  0  0  0  0  0  0  0  0
  -22.2138  -17.5334   16.5114 N   0  0  0  0  0  0  0  0  0  0  0  0
  -30.1403  -15.6233   21.5069 N   0  0  0  0  0  0  0  0  0  0  0  0
  -25.8133  -17.2399   16.6703 N   0  3  0  0  0  0  0  0  0  0  0  0
  -26.1453  -18.3527   24.4561 N   0  3  0  0  0  0  0  0  0  0  0  0
  -22.6458  -14.7833   21.2421 O   0  0  0  0  0  0  0  0  0  0  0  0
  -18.5956  -20.1036   20.0683 O   0  0  0  0  0  0  0  0  0  0  0  0
  -20.4625  -19.7978   16.3923 O   0  0  0  0  0  0  0  0  0  0  0  0
  -23.5306  -16.6685   18.2128 O   0  0  0  0  0  0  0  0  0  0  0  0
  -31.8794  -14.8133   20.2513 O   0  0  0  0  0  0  0  0  0  0  0  0
  -21.4716   -7.1085   21.7945 O   0  0  0  0  0  0  0  0  0  0  0  0
  -22.6543  -19.0151   24.5435 O   0  0  0  0  0  0  0  0  0  1  0  0
  -23.8039   -3.0852   24.7572 F   0  0  0  0  0  0  0  0  0  0  0  0
  -20.3822   -6.3092   24.2063 F   0  0  0  0  0  0  0  0  0  0  0  0
  -28.9237  -21.2259   19.8983 Cl  0  0  0  0  0  0  0  0  0  0  0  0
  1  2  1  0  0  0  0
  1  5  2  0  0  0  0
  2  6  2  0  0  0  0
  3  8  2  0  0  0  0
  3 16  1  0  0  0  0
  4  9  1  0  0  0  0
  4 16  2  0  0  0  0
  5 18  1  0  0  0  0
  6 20  1  0  0  0  0
  7 10  2  0  0  0  0
  7 19  1  0  0  0  0
  8 26  1  0  0  0  0
  9 26  2  0  0  0  0
 10 27  1  0  0  0  0
 11 12  2  0  0  0  0
 11 28  1  0  0  0  0
 12 29  1  0  0  0  0
 13 21  1  0  0  0  0
 13 27  2  0  0  0  0
 14 22  2  0  0  0  0
 14 31  1  0  0  0  0
 15 29  2  0  0  0  0
 15 30  1  0  0  0  0
 16 32  1  0  0  0  0
 17 32  1  0  0  0  0
 17 33  2  0  0  0  0
 17 34  1  0  0  0  0
 18 20  2  0  0  0  0
 18 39  1  0  0  0  0
 19 21  2  0  0  0  0
 19 40  1  0  0  0  0
 20 48  1  0  0  0  0
 21 41  1  0  0  0  0
 22 23  1  0  0  0  0
 22 58  1  0  0  0  0
 23 24  2  0  0  0  0
 23 51  1  0  0  0  0
 24 25  1  0  0  0  0
 24 59  1  0  0  0  0
 25 31  2  0  0  0  0
 25 52  1  0  0  0  0
 26 82  1  0  0  0  0
 27 83  1  0  0  0  0
 28 30  2  0  0  0  0
 28 82  1  0  0  0  0
 29 84  1  0  0  0  0
 30 85  1  0  0  0  0
 31 86  1  0  0  0  0
 32 66  2  0  0  0  0
 33 67  1  0  0  0  0
 33 70  1  0  0  0  0
 34 71  1  0  0  0  0
 34 77  2  0  0  0  0
 35 49  1  0  0  0  0
 35 72  1  0  0  0  0
 35 78  2  0  0  0  0
 36 63  1  0  0  0  0
 36 68  1  0  0  0  0
 36 79  2  0  0  0  0
 37 64  1  0  0  0  0
 37 73  1  0  0  0  0
 37 80  2  0  0  0  0
 38 69  1  0  0  0  0
 38 74  1  0  0  0  0
 38 81  2  0  0  0  0
 39 42  1  0  0  0  0
 40 49  1  0  0  0  0
 41 68  1  0  0  0  0
 42 44  1  0  0  0  0
 43 45  1  0  0  0  0
 43 46  1  0  0  0  0
 44 48  1  0  0  0  0
 45 50  1  0  0  0  0
 46 69  1  0  0  0  0
 47 50  1  0  0  0  0
 47 69  1  0  0  0  0
 48 72  1  0  0  0  0
 49 68  1  0  0  0  0
 50 67  1  0  0  0  0
 53 64  1  0  0  0  0
 54 65  1  0  0  0  0
 55 65  1  0  0  0  0
 56 65  1  0  0  0  0
 57 75  1  0  0  0  0
 58 74  1  0  0  0  0
 59 76  1  0  0  0  0
 60 61  1  0  0  0  0
 60 62  1  0  0  0  0
 61 76  1  0  0  0  0
 62 83  1  0  0  0  0
 63 65  1  0  0  0  0
 63 73  1  0  0  0  0
 64 75  1  0  0  0  0
 66 67  1  0  0  0  0
M  CHG  2  75   1  76   1
M  ISO  4  38 100  62 101  74 100  83 101
M  END
> <Batch ID>
0037

> <Smiles>
CNC(C)C(=O)NC(C(=O)N1Cc2cc([101O:1][101CH2:1]CCNCc3c(C)c(Cl)cc(C[100NH:0][100C:0](=O)N4CCCC(n5nc(-c6ccc(Oc7ccc(F)cc7F)cc6)c(C(N)=O)c5N)C4)c3C)ccc2CC1C(=O)NC1CCCc2ccccc21)C(C)(C)C

> <Shape>
0.194

> <Color>
0.197

> <Negative vol penalty>
0.000

$$$$

  -OEChem-04042321573D

 85 93  0     1  0  0  0  0  0999 V2000
  -27.8564  -24.4423   17.3195 C   0  0  0  0  0  0  0  0  0  0  0  0
  -26.8045  -25.3298   17.5163 C   0  0  0  0  0  0  0  0  0  0  0  0
  -24.5318  -11.8697   19.5654 C   0  0  0  0  0  0  0  0  0  0  0  0
  -25.5882  -12.0967   21.7263 C   0  0  0  0  0  0  0  0  0  0  0  0
  -28.8637  -24.3383   18.2764 C   0  0  0  0  0  0  0  0  0  0  0  0
  -26.7657  -26.1221   18.6642 C   0  0  0  0  0  0  0  0  0  0  0  0
  -23.2448  -29.5504   18.8956 C   0  0  0  0  0  0  0  0  0  0  0  0
  -24.9551  -10.5423   19.4979 C   0  0  0  0  0  0  0  0  0  0  0  0
  -26.0115  -10.7693   21.6589 C   0  0  0  0  0  0  0  0  0  0  0  0
  -21.9002  -29.2379   19.0906 C   0  0  0  0  0  0  0  0  0  0  0  0
  -24.6739   -7.7028   22.1366 C   0  0  0  0  0  0  0  0  0  0  0  0
  -24.5114   -6.9137   23.2752 C   0  0  0  0  0  0  0  0  0  0  0  0
  -22.0785  -29.9341   21.3933 C   0  0  0  0  0  0  0  0  0  0  0  0
  -23.8753  -23.6862   21.8036 C   0  0  0  0  0  0  0  0  0  0  0  0
  -21.3059  -22.6735   22.1979 C   0  0  0  0  0  0  0  0  0  0  0  0
  -26.8975   -6.5441   23.3595 C   0  0  0  0  0  0  0  0  0  0  0  0
  -24.8485  -12.6469   20.6796 C   0  0  0  0  0  0  0  0  0  0  0  0
  -23.2044  -14.4995   21.2897 C   0  0  0  0  0  0  0  0  0  0  0  0
  -28.8300  -25.1210   19.4422 C   0  0  0  0  0  0  0  0  0  0  0  0
  -24.0205  -30.0477   19.9527 C   0  0  0  0  0  0  0  0  0  0  0  0
  -27.7854  -26.0489   19.6302 C   0  0  0  0  0  0  0  0  0  0  0  0
  -23.4321  -30.2546   21.2085 C   0  0  0  0  0  0  0  0  0  0  0  0
  -22.7770  -24.3292   21.2328 C   0  0  0  0  0  0  0  0  0  0  0  0
  -22.4042  -22.0304   22.7688 C   0  0  0  0  0  0  0  0  0  0  0  0
  -23.6889  -22.5367   22.5716 C   0  0  0  0  0  0  0  0  0  0  0  0
  -21.4923  -23.8229   21.4299 C   0  0  0  0  0  0  0  0  0  0  0  0
  -25.6949   -9.9921   20.5446 C   0  0  0  0  0  0  0  0  0  0  0  0
  -21.3175  -29.4270   20.3403 C   0  0  0  0  0  0  0  0  0  0  0  0
  -25.9481   -7.9125   21.6093 C   0  0  0  0  0  0  0  0  0  0  0  0
  -25.6233   -6.3344   23.8867 C   0  0  0  0  0  0  0  0  0  0  0  0
  -27.0599   -7.3332   22.2208 C   0  0  0  0  0  0  0  0  0  0  0  0
  -24.4120  -14.0183   20.7496 C   0  0  0  0  0  0  0  0  0  0  0  0
  -23.2688  -15.8605   21.1162 C   0  0  0  0  0  0  0  0  0  0  0  0
  -22.1211  -13.7806   21.8943 C   0  0  0  0  0  0  0  0  0  0  0  0
  -26.6051  -29.0412   21.5053 C   0  0  0  0  0  0  0  0  0  0  0  0
  -26.3949  -31.9424   22.9410 C   0  0  0  0  0  0  0  0  0  0  0  0
  -24.4455  -34.5949   23.8415 C   0  0  0  0  0  0  0  0  0  0  0  0
  -26.0888  -20.6700   21.3639 C   0  0  0  0  0  0  0  0  0  0  0  0
  -29.9504  -24.9738   20.4414 C   0  0  0  0  0  0  0  0  0  0  0  0
  -25.4627  -30.4051   19.7190 C   0  0  0  0  0  0  0  0  0  0  0  0
  -24.2162  -30.8050   22.3706 C   0  0  0  0  0  0  0  0  0  0  0  0
  -29.5942  -25.5227   21.8191 C   0  0  0  0  0  0  0  0  0  0  0  0
  -26.4929  -18.6883   18.4337 C   0  0  0  0  0  0  0  0  0  0  0  0
  -29.0142  -26.9229   21.6867 C   0  0  0  0  0  0  0  0  0  0  0  0
  -25.8939  -17.3353   18.8217 C   0  0  0  0  0  0  0  0  0  0  0  0
  -27.2210  -19.3404   19.6070 C   0  0  0  0  0  0  0  0  0  0  0  0
  -25.8197  -18.1196   21.2255 C   0  0  0  0  0  0  0  0  0  0  0  0
  -27.7062  -26.8987   20.8856 C   0  0  1  0  0  0  0  0  0  0  0  0
  -26.2896  -30.4210   21.0010 C   0  0  1  0  0  0  0  0  0  0  0  0
  -25.0273  -17.4488   20.0904 C   0  0  2  0  0  0  0  0  0  0  0  0
  -23.0010  -25.5587   20.4150 C   0  0  0  0  0  0  0  0  0  0  0  0
  -22.1803  -20.8009   23.5864 C   0  0  0  0  0  0  0  0  0  0  0  0
  -24.5477  -36.7982   25.0383 C   0  0  0  0  0  0  0  0  0  0  0  0
  -26.4550  -30.4819   25.6193 C   0  0  0  0  0  0  0  0  0  0  0  0
  -25.6119  -32.5764   26.7013 C   0  0  0  0  0  0  0  0  0  0  0  0
  -27.8206  -32.5756   25.5419 C   0  0  0  0  0  0  0  0  0  0  0  0
  -23.6313  -36.0821   21.4157 C   0  0  0  0  0  0  0  0  0  0  0  0
  -24.8799  -21.8649   23.1722 C   0  0  0  0  0  0  0  0  0  0  0  0
  -20.2960  -24.4977   20.8263 C   0  0  0  0  0  0  0  0  0  0  0  0
  -18.4520  -27.7322   21.7202 C   0  0  0  0  0  0  0  0  0  0  0  0
  -18.7757  -26.4772   20.9238 C   0  0  0  0  0  0  0  0  0  0  0  0
  -19.6225  -28.7001   21.8418 C   0  0  0  0  0  0  0  0  0  1  0  0
  -25.6999  -32.4798   24.1687 C   0  0  1  0  0  0  0  0  0  0  0  0
  -24.6515  -36.0918   23.6956 C   0  0  2  0  0  0  0  0  0  0  0  0
  -26.3823  -32.0162   25.4866 C   0  0  0  0  0  0  0  0  0  0  0  0
  -25.1870  -14.9942   20.2688 N   0  0  0  0  0  0  0  0  0  0  0  0
  -24.4645  -16.1022   20.5061 N   0  0  0  0  0  0  0  0  0  0  0  0
  -25.6245  -31.1333   22.0938 N   0  0  0  0  0  0  0  0  0  0  0  0
  -26.3438  -19.4194   20.7775 N   0  0  0  0  0  0  0  0  0  0  0  0
  -22.4188  -16.8620   21.4273 N   0  0  0  0  0  0  0  0  0  0  0  0
  -22.2175  -12.3859   21.9929 N   0  0  0  0  0  0  0  0  0  0  0  0
  -27.3001  -28.2579   20.6037 N   0  0  0  0  0  0  0  0  0  0  0  0
  -25.6415  -33.9281   24.0035 N   0  0  0  0  0  0  0  0  0  0  0  0
  -25.2418  -20.6565   22.4653 N   0  0  0  0  0  0  0  0  0  0  0  0
  -23.6266  -36.6690   22.7804 N   0  3  0  0  0  0  0  0  0  0  0  0
  -19.9152  -25.7519   21.5330 N   0  3  0  0  0  0  0  0  0  0  0  0
  -21.0909  -14.3564   22.3192 O   0  0  0  0  0  0  0  0  0  0  0  0
  -26.2458  -28.7121   22.6297 O   0  0  0  0  0  0  0  0  0  0  0  0
  -27.5756  -32.2356   22.7374 O   0  0  0  0  0  0  0  0  0  0  0  0
  -23.3344  -34.0700   23.8180 O   0  0  0  0  0  0  0  0  0  0  0  0
  -26.5754  -21.7215   20.9342 O   0  0  0  0  0  0  0  0  0  0  0  0
  -26.1078   -8.6968   20.4792 O   0  0  0  0  0  0  0  0  0  0  0  0
  -20.0054  -29.1221   20.5335 O   0  0  0  0  0  0  0  0  0  1  0  0
  -25.4673   -5.5780   24.9811 F   0  0  0  0  0  0  0  0  0  0  0  0
  -28.2867   -7.5320   21.7195 F   0  0  0  0  0  0  0  0  0  0  0  0
  1  2  1  0  0  0  0
  1  5  2  0  0  0  0
  2  6  2  0  0  0  0
  3  8  2  0  0  0  0
  3 17  1  0  0  0  0
  4  9  1  0  0  0  0
  4 17  2  0  0  0  0
  5 19  1  0  0  0  0
  6 21  1  0  0  0  0
  7 10  2  0  0  0  0
  7 20  1  0  0  0  0
  8 27  1  0  0  0  0
  9 27  2  0  0  0  0
 10 28  1  0  0  0  0
 11 12  2  0  0  0  0
 11 29  1  0  0  0  0
 12 30  1  0  0  0  0
 13 22  1  0  0  0  0
 13 28  2  0  0  0  0
 14 23  1  0  0  0  0
 14 25  2  0  0  0  0
 15 24  2  0  0  0  0
 15 26  1  0  0  0  0
 16 30  2  0  0  0  0
 16 31  1  0  0  0  0
 17 32  1  0  0  0  0
 18 32  1  0  0  0  0
 18 33  2  0  0  0  0
 18 34  1  0  0  0  0
 19 21  2  0  0  0  0
 19 39  1  0  0  0  0
 20 22  2  0  0  0  0
 20 40  1  0  0  0  0
 21 48  1  0  0  0  0
 22 41  1  0  0  0  0
 23 26  2  0  0  0  0
 23 51  1  0  0  0  0
 24 25  1  0  0  0  0
 24 52  1  0  0  0  0
 25 58  1  0  0  0  0
 26 59  1  0  0  0  0
 27 82  1  0  0  0  0
 28 83  1  0  0  0  0
 29 31  2  0  0  0  0
 29 82  1  0  0  0  0
 30 84  1  0  0  0  0
 31 85  1  0  0  0  0
 32 66  2  0  0  0  0
 33 67  1  0  0  0  0
 33 70  1  0  0  0  0
 34 71  1  0  0  0  0
 34 77  2  0  0  0  0
 35 49  1  0  0  0  0
 35 72  1  0  0  0  0
 35 78  2  0  0  0  0
 36 63  1  0  0  0  0
 36 68  1  0  0  0  0
 36 79  2  0  0  0  0
 37 64  1  0  0  0  0
 37 73  1  0  0  0  0
 37 80  2  0  0  0  0
 38 69  1  0  0  0  0
 38 74  1  0  0  0  0
 38 81  2  0  0  0  0
 39 42  1  0  0  0  0
 40 49  1  0  0  0  0
 41 68  1  0  0  0  0
 42 44  1  0  0  0  0
 43 45  1  0  0  0  0
 43 46  1  0  0  0  0
 44 48  1  0  0  0  0
 45 50  1  0  0  0  0
 46 69  1  0  0  0  0
 47 50  1  0  0  0  0
 47 69  1  0  0  0  0
 48 72  1  0  0  0  0
 49 68  1  0  0  0  0
 50 67  1  0  0  0  0
 53 64  1  0  0  0  0
 54 65  1  0  0  0  0
 55 65  1  0  0  0  0
 56 65  1  0  0  0  0
 57 75  1  0  0  0  0
 58 74  1  0  0  0  0
 59 76  1  0  0  0  0
 60 61  1  0  0  0  0
 60 62  1  0  0  0  0
 61 76  1  0  0  0  0
 62 83  1  0  0  0  0
 63 65  1  0  0  0  0
 63 73  1  0  0  0  0
 64 75  1  0  0  0  0
 66 67  1  0  0  0  0
M  CHG  2  75   1  76   1
M  ISO  4  38 100  62 101  74 100  83 101
M  END
> <Batch ID>
0037

> <Smiles>
CNC(C)C(=O)NC(C(=O)N1Cc2cc([101O:1][101CH2:1]CCNCc3cc(C)c(C[100NH:0][100C:0](=O)N4CCCC(n5nc(-c6ccc(Oc7ccc(F)cc7F)cc6)c(C(N)=O)c5N)C4)cc3C)ccc2CC1C(=O)NC1CCCc2ccccc21)C(C)(C)C

> <Shape>
0.271

> <Color>
0.085

> <Negative vol penalty>
0.000

$$$$

  -OEChem-04042321573D

 88 97  0     1  0  0  0  0  0999 V2000
  -22.2068   -7.2649   24.0934 C   0  0  0  0  0  0  0  0  0  0  0  0
  -23.4903   -7.7415   24.3402 C   0  0  0  0  0  0  0  0  0  0  0  0
  -25.0306  -26.8437   20.8902 C   0  0  0  0  0  0  0  0  0  0  0  0
  -26.9045  -27.7611   22.1084 C   0  0  0  0  0  0  0  0  0  0  0  0
  -21.5797   -7.5499   22.8812 C   0  0  0  0  0  0  0  0  0  0  0  0
  -24.1480   -8.5024   23.3743 C   0  0  0  0  0  0  0  0  0  0  0  0
  -28.8254  -13.8915   22.7447 C   0  0  0  0  0  0  0  0  0  0  0  0
  -24.1670  -27.6990   21.5744 C   0  0  0  0  0  0  0  0  0  0  0  0
  -26.0409  -28.6166   22.7926 C   0  0  0  0  0  0  0  0  0  0  0  0
  -30.0249  -14.2077   22.1084 C   0  0  0  0  0  0  0  0  0  0  0  0
  -22.6960  -27.8436   24.6141 C   0  0  0  0  0  0  0  0  0  0  0  0
  -21.5107  -27.3035   25.1129 C   0  0  0  0  0  0  0  0  0  0  0  0
  -28.8126  -14.7040   20.0828 C   0  0  0  0  0  0  0  0  0  0  0  0
  -32.6576  -19.6902   15.0191 C   0  0  0  0  0  0  0  0  0  0  0  0
  -20.2374  -28.8478   23.7597 C   0  0  0  0  0  0  0  0  0  0  0  0
  -26.3994  -26.8747   21.1573 C   0  0  0  0  0  0  0  0  0  0  0  0
  -27.2639  -24.5834   20.4428 C   0  0  0  0  0  0  0  0  0  0  0  0
  -22.2262   -8.3228   21.9038 C   0  0  0  0  0  0  0  0  0  0  0  0
  -27.6094  -13.9688   22.0504 C   0  0  0  0  0  0  0  0  0  0  0  0
  -23.5294   -8.7968   22.1473 C   0  0  0  0  0  0  0  0  0  0  0  0
  -27.5988  -14.3906   20.7133 C   0  0  0  0  0  0  0  0  0  0  0  0
  -31.6023  -18.9131   15.4964 C   0  0  0  0  0  0  0  0  0  0  0  0
  -30.2927  -19.3849   15.4071 C   0  0  0  0  0  0  0  0  0  0  0  0
  -30.0384  -20.6340   14.8406 C   0  0  0  0  0  0  0  0  0  0  0  0
  -31.0938  -21.4112   14.3634 C   0  0  0  0  0  0  0  0  0  0  0  0
  -24.6721  -28.5855   22.5255 C   0  0  0  0  0  0  0  0  0  0  0  0
  -30.0189  -14.6113   20.7764 C   0  0  0  0  0  0  0  0  0  0  0  0
  -22.6521  -28.8859   23.6881 C   0  0  0  0  0  0  0  0  0  0  0  0
  -20.2814  -27.8055   24.6857 C   0  0  0  0  0  0  0  0  0  0  0  0
  -21.4228  -29.3879   23.2609 C   0  0  0  0  0  0  0  0  0  0  0  0
  -32.4034  -20.9393   14.4526 C   0  0  0  0  0  0  0  0  0  0  0  0
  -27.2919  -25.9909   20.4513 C   0  0  0  0  0  0  0  0  0  0  0  0
  -28.3105  -24.2241   19.6292 C   0  0  0  0  0  0  0  0  0  0  0  0
  -26.3716  -23.6815   21.1106 C   0  0  0  0  0  0  0  0  0  0  0  0
  -25.3496  -11.8834   21.2455 C   0  0  0  0  0  0  0  0  0  0  0  0
  -23.8107  -14.5435   20.2073 C   0  0  0  0  0  0  0  0  0  0  0  0
  -24.0186  -17.7680   19.1091 C   0  0  0  0  0  0  0  0  0  0  0  0
  -31.2834  -24.8734   14.9510 C   0  0  0  0  0  0  0  0  0  0  0  0
  -21.5266   -8.5649   20.5899 C   0  0  0  0  0  0  0  0  0  0  0  0
  -26.3215  -13.6500   22.7589 C   0  0  0  0  0  0  0  0  0  0  0  0
  -26.3181  -14.5095   19.9294 C   0  0  0  0  0  0  0  0  0  0  0  0
  -22.1456   -9.6933   19.7690 C   0  0  0  0  0  0  0  0  0  0  0  0
  -32.0814  -26.9896   17.7008 C   0  0  0  0  0  0  0  0  0  0  0  0
  -32.7804  -18.2908   19.7540 C   0  0  0  0  0  0  0  0  0  0  0  0
  -23.6639   -9.5520   19.7271 C   0  0  0  0  0  0  0  0  0  0  0  0
  -30.9017  -26.8071   18.6572 C   0  0  0  0  0  0  0  0  0  0  0  0
  -32.4896  -16.9191   20.3483 C   0  0  0  0  0  0  0  0  0  0  0  0
  -31.6343  -26.9589   16.2409 C   0  0  0  0  0  0  0  0  0  0  0  0
  -29.6682  -25.5885   16.8154 C   0  0  0  0  0  0  0  0  0  0  0  0
  -32.9934  -18.2179   18.2487 C   0  0  0  0  0  0  0  0  0  0  0  0
  -31.5362  -16.1799   18.1337 C   0  0  0  0  0  0  0  0  0  0  0  0
  -24.2658   -9.6464   21.1343 C   0  0  1  0  0  0  0  0  0  0  0  0
  -25.1934  -13.2690   21.8052 C   0  0  1  0  0  0  0  0  0  0  0  0
  -30.0769  -25.5565   18.2980 C   0  0  2  0  0  0  0  0  0  0  0  0
  -31.3204  -16.2420   19.6401 C   0  0  1  0  0  0  0  0  0  1  0  0
  -29.1629  -18.5489   15.9202 C   0  0  0  0  0  0  0  0  0  0  0  0
  -28.6326  -21.1384   14.7453 C   0  0  0  0  0  0  0  0  0  0  0  0
  -22.5943  -19.6693   18.3003 C   0  0  0  0  0  0  0  0  0  0  0  0
  -23.4939  -13.1550   17.5088 C   0  0  0  0  0  0  0  0  0  0  0  0
  -22.9493  -15.3830   16.5049 C   0  0  0  0  0  0  0  0  0  0  0  0
  -21.4772  -14.4207   18.2740 C   0  0  0  0  0  0  0  0  0  0  0  0
  -24.8743  -19.5116   21.3421 C   0  0  0  0  0  0  0  0  0  0  0  0
  -30.8063  -22.7503   13.7576 C   0  0  0  0  0  0  0  0  0  0  0  0
  -31.9026  -17.5733   16.1012 C   0  0  0  0  0  0  0  0  0  0  0  0
  -23.7578  -15.3092   18.9073 C   0  0  1  0  0  0  0  0  0  0  0  0
  -23.2547  -19.0184   19.5057 C   0  0  2  0  0  0  0  0  0  0  0  0
  -22.9440  -14.5630   17.8127 C   0  0  0  0  0  0  0  0  0  0  0  0
  -28.2783  -26.4915   19.7026 N   0  0  0  0  0  0  0  0  0  0  0  0
  -28.8798  -25.3927   19.2162 N   0  0  0  0  0  0  0  0  0  0  0  0
  -25.0856  -14.1807   20.6644 N   0  0  0  0  0  0  0  0  0  0  0  0
  -30.8587  -25.7471   15.9654 N   0  0  0  0  0  0  0  0  0  0  0  0
  -28.7902  -23.0257   19.2340 N   0  0  0  0  0  0  0  0  0  0  0  0
  -26.7072  -23.2404   22.3978 N   0  0  0  0  0  0  0  0  0  0  0  0
  -24.3165  -11.0253   21.5709 N   0  0  0  0  0  0  0  0  0  0  0  0
  -23.2435  -16.6346   19.2349 N   0  0  0  0  0  0  0  0  0  0  0  0
  -30.4949  -23.7454   14.7594 N   0  0  0  0  0  0  0  0  0  0  0  0
  -31.7947  -17.5664   17.6012 N   0  3  2  0  0  0  0  0  0  0  0  0
  -24.1743  -20.0108   20.1306 N   0  3  0  0  0  0  0  0  0  0  0  0
  -25.3162  -23.2658   20.5749 O   0  0  0  0  0  0  0  0  0  0  0  0
  -26.3338  -11.6132   20.5672 O   0  0  0  0  0  0  0  0  0  0  0  0
  -22.7602  -14.2833   20.7990 O   0  0  0  0  0  0  0  0  0  0  0  0
  -25.1849  -17.7945   18.7224 O   0  0  0  0  0  0  0  0  0  0  0  0
  -32.2937  -25.0803   14.2702 O   0  0  0  0  0  0  0  0  0  0  0  0
  -23.8297  -29.4205   23.1932 O   0  0  0  0  0  0  0  0  0  0  0  0
  -31.1884  -14.9199   20.1528 O   0  0  0  0  0  0  0  0  0  1  0  0
  -19.1432  -27.2857   25.1637 F   0  0  0  0  0  0  0  0  0  0  0  0
  -21.3743  -30.3883   22.3706 F   0  0  0  0  0  0  0  0  0  0  0  0
  -33.7374  -21.8699   13.8730 Cl  0  0  0  0  0  0  0  0  0  0  0  0
  1  2  1  0  0  0  0
  1  5  2  0  0  0  0
  2  6  2  0  0  0  0
  3  8  2  0  0  0  0
  3 16  1  0  0  0  0
  4  9  1  0  0  0  0
  4 16  2  0  0  0  0
  5 18  1  0  0  0  0
  6 20  1  0  0  0  0
  7 10  2  0  0  0  0
  7 19  1  0  0  0  0
  8 26  1  0  0  0  0
  9 26  2  0  0  0  0
 10 27  1  0  0  0  0
 11 12  2  0  0  0  0
 11 28  1  0  0  0  0
 12 29  1  0  0  0  0
 13 21  1  0  0  0  0
 13 27  2  0  0  0  0
 14 22  1  0  0  0  0
 14 31  2  0  0  0  0
 15 29  2  0  0  0  0
 15 30  1  0  0  0  0
 16 32  1  0  0  0  0
 17 32  1  0  0  0  0
 17 33  2  0  0  0  0
 17 34  1  0  0  0  0
 18 20  2  0  0  0  0
 18 39  1  0  0  0  0
 19 21  2  0  0  0  0
 19 40  1  0  0  0  0
 20 52  1  0  0  0  0
 21 41  1  0  0  0  0
 22 23  2  0  0  0  0
 22 64  1  0  0  0  0
 23 24  1  0  0  0  0
 23 56  1  0  0  0  0
 24 25  2  0  0  0  0
 24 57  1  0  0  0  0
 25 31  1  0  0  0  0
 25 63  1  0  0  0  0
 26 84  1  0  0  0  0
 27 85  1  0  0  0  0
 28 30  2  0  0  0  0
 28 84  1  0  0  0  0
 29 86  1  0  0  0  0
 30 87  1  0  0  0  0
 31 88  1  0  0  0  0
 32 68  2  0  0  0  0
 33 69  1  0  0  0  0
 33 72  1  0  0  0  0
 34 73  1  0  0  0  0
 34 79  2  0  0  0  0
 35 53  1  0  0  0  0
 35 74  1  0  0  0  0
 35 80  2  0  0  0  0
 36 65  1  0  0  0  0
 36 70  1  0  0  0  0
 36 81  2  0  0  0  0
 37 66  1  0  0  0  0
 37 75  1  0  0  0  0
 37 82  2  0  0  0  0
 38 71  1  0  0  0  0
 38 76  1  0  0  0  0
 38 83  2  0  0  0  0
 39 42  1  0  0  0  0
 40 53  1  0  0  0  0
 41 70  1  0  0  0  0
 42 45  1  0  0  0  0
 43 46  1  0  0  0  0
 43 48  1  0  0  0  0
 44 47  1  0  0  0  0
 44 50  1  0  0  0  0
 45 52  1  0  0  0  0
 46 54  1  0  0  0  0
 47 55  1  0  0  0  0
 48 71  1  0  0  0  0
 49 54  1  0  0  0  0
 49 71  1  0  0  0  0
 50 77  1  0  0  0  0
 51 55  1  0  0  0  0
 51 77  1  0  0  0  0
 52 74  1  0  0  0  0
 53 70  1  0  0  0  0
 54 69  1  0  0  0  0
 55 85  1  0  0  0  0
 58 66  1  0  0  0  0
 59 67  1  0  0  0  0
 60 67  1  0  0  0  0
 61 67  1  0  0  0  0
 62 78  1  0  0  0  0
 63 76  1  0  0  0  0
 64 77  1  0  0  0  0
 65 67  1  0  0  0  0
 65 75  1  0  0  0  0
 66 78  1  0  0  0  0
 68 69  1  0  0  0  0
M  CHG  2  77   1  78   1
M  ISO  4  38 100  55 101  76 100  85 101
M  END
> <Batch ID>
0037

> <Smiles>
CNC(C)C(=O)NC(C(=O)N1Cc2cc([101O:1][101CH:1]3CCCN(Cc4cc(Cl)c(C[100NH:0][100C:0](=O)N5CCCC(n6nc(-c7ccc(Oc8ccc(F)cc8F)cc7)c(C(N)=O)c6N)C5)c(C)c4C)C3)ccc2CC1C(=O)NC1CCCc2ccccc21)C(C)(C)C

> <Shape>
0.190

> <Color>
0.106

> <Negative vol penalty>
0.000

$$$$

  -OEChem-04042321573D

 93102  0     1  0  0  0  0  0999 V2000
  -18.7916  -27.8797   22.3112 C   0  0  0  0  0  0  0  0  0  0  0  0
  -18.9522  -26.5208   22.0598 C   0  0  0  0  0  0  0  0  0  0  0  0
  -28.6764  -23.9531   19.7588 C   0  0  0  0  0  0  0  0  0  0  0  0
  -30.7455  -23.0599   18.8881 C   0  0  0  0  0  0  0  0  0  0  0  0
  -19.9002  -28.6653   22.6241 C   0  0  0  0  0  0  0  0  0  0  0  0
  -20.2217  -25.9470   22.1201 C   0  0  0  0  0  0  0  0  0  0  0  0
  -21.6219  -20.2995   24.0307 C   0  0  0  0  0  0  0  0  0  0  0  0
  -29.2812  -25.1999   19.9172 C   0  0  0  0  0  0  0  0  0  0  0  0
  -31.3503  -24.3068   19.0465 C   0  0  0  0  0  0  0  0  0  0  0  0
  -21.8725  -19.1122   23.3442 C   0  0  0  0  0  0  0  0  0  0  0  0
  -30.1169  -27.8294   17.9626 C   0  0  0  0  0  0  0  0  0  0  0  0
  -29.4062  -28.9529   17.5403 C   0  0  0  0  0  0  0  0  0  0  0  0
  -24.2421  -19.5461   23.4708 C   0  0  0  0  0  0  0  0  0  0  0  0
  -24.4359  -12.7383   21.5056 C   0  0  0  0  0  0  0  0  0  0  0  0
  -29.4668  -29.8360   19.7884 C   0  0  0  0  0  0  0  0  0  0  0  0
  -29.4085  -22.8830   19.2443 C   0  0  0  0  0  0  0  0  0  0  0  0
  -28.1015  -21.1186   17.9458 C   0  0  0  0  0  0  0  0  0  0  0  0
  -21.1825  -28.0989   22.6978 C   0  0  0  0  0  0  0  0  0  0  0  0
  -22.6809  -21.1258   24.4336 C   0  0  0  0  0  0  0  0  0  0  0  0
  -21.3486  -26.7260   22.4330 C   0  0  0  0  0  0  0  0  0  0  0  0
  -24.0024  -20.7421   24.1646 C   0  0  0  0  0  0  0  0  0  0  0  0
  -25.1800  -11.6153   21.1441 C   0  0  0  0  0  0  0  0  0  0  0  0
  -26.0846  -11.6894   20.0848 C   0  0  0  0  0  0  0  0  0  0  0  0
  -26.2450  -12.8865   19.3871 C   0  0  0  0  0  0  0  0  0  0  0  0
  -25.5008  -14.0095   19.7486 C   0  0  0  0  0  0  0  0  0  0  0  0
  -24.5963  -13.9355   20.8078 C   0  0  0  0  0  0  0  0  0  0  0  0
  -30.6182  -25.3768   19.5610 C   0  0  0  0  0  0  0  0  0  0  0  0
  -23.1826  -18.7368   23.0616 C   0  0  0  0  0  0  0  0  0  0  0  0
  -30.5024  -27.7091   19.2977 C   0  0  0  0  0  0  0  0  0  0  0  0
  -29.0812  -29.9562   18.4532 C   0  0  0  0  0  0  0  0  0  0  0  0
  -30.1774  -28.7124   20.2106 C   0  0  0  0  0  0  0  0  0  0  0  0
  -28.7845  -21.5946   19.0810 C   0  0  0  0  0  0  0  0  0  0  0  0
  -27.7012  -19.8512   18.2922 C   0  0  0  0  0  0  0  0  0  0  0  0
  -23.9836   -8.1175   21.9263 C   0  0  0  0  0  0  0  0  0  0  0  0
  -25.0039   -7.3058   22.2272 C   0  0  0  0  0  0  0  0  0  0  0  0
  -27.8514  -21.7643   16.6903 C   0  0  0  0  0  0  0  0  0  0  0  0
  -23.5784  -24.1032   23.7751 C   0  0  0  0  0  0  0  0  0  0  0  0
  -25.7924  -23.5300   26.0756 C   0  0  0  0  0  0  0  0  0  0  0  0
  -27.6247  -21.2458   27.8283 C   0  0  0  0  0  0  0  0  0  0  0  0
  -28.7474  -14.8753   20.5925 C   0  0  0  0  0  0  0  0  0  0  0  0
  -22.3571  -28.9975   22.9934 C   0  0  0  0  0  0  0  0  0  0  0  0
  -22.3951  -22.3901   25.1968 C   0  0  0  0  0  0  0  0  0  0  0  0
  -25.1755  -21.5839   24.5932 C   0  0  0  0  0  0  0  0  0  0  0  0
  -22.5359   -7.8103   22.1391 C   0  0  0  0  0  0  0  0  0  0  0  0
  -23.6162  -28.2388   23.4047 C   0  0  0  0  0  0  0  0  0  0  0  0
  -21.9283   -8.5448   20.9572 C   0  0  0  0  0  0  0  0  0  0  0  0
  -27.7255  -17.4998   22.7707 C   0  0  0  0  0  0  0  0  0  0  0  0
  -23.8644  -27.0656   22.4619 C   0  0  0  0  0  0  0  0  0  0  0  0
  -27.8596  -18.7597   21.9135 C   0  0  0  0  0  0  0  0  0  0  0  0
  -28.8315  -16.4911   22.4683 C   0  0  0  0  0  0  0  0  0  0  0  0
  -29.0997  -17.3871   20.1881 C   0  0  0  0  0  0  0  0  0  0  0  0
  -22.7914   -9.7886   20.8154 C   0  0  0  0  0  0  0  0  0  0  0  0
  -22.7061  -26.0620   22.5131 C   0  0  1  0  0  0  0  0  0  0  0  0
  -23.5257  -23.4104   25.1074 C   0  0  1  0  0  0  0  0  0  0  0  0
  -27.9743  -18.4104   20.4175 C   0  0  2  0  0  0  0  0  0  0  0  0
  -26.8804  -10.4830   19.6983 C   0  0  0  0  0  0  0  0  0  0  0  0
  -25.6761  -15.2945   19.0012 C   0  0  0  0  0  0  0  0  0  0  0  0
  -29.3776  -21.0809   29.6165 C   0  0  0  0  0  0  0  0  0  0  0  0
  -27.9212  -24.3860   24.0644 C   0  0  0  0  0  0  0  0  0  0  0  0
  -29.6418  -23.3170   25.5358 C   0  0  0  0  0  0  0  0  0  0  0  0
  -28.2854  -25.2281   26.3909 C   0  0  0  0  0  0  0  0  0  0  0  0
  -25.8300  -19.7059   29.6078 C   0  0  0  0  0  0  0  0  0  0  0  0
  -24.9903  -10.3458   21.9081 C   0  0  0  0  0  0  0  0  0  0  0  0
  -23.2235  -15.1828   22.4767 C   0  0  0  0  0  0  0  0  0  0  0  0
  -28.6719  -13.3835   18.6106 C   0  0  0  0  0  0  0  0  0  0  0  0
  -22.4964  -16.5140   22.5674 C   0  0  0  0  0  0  0  0  0  1  0  0
  -27.1931  -22.9673   26.0949 C   0  0  1  0  0  0  0  0  0  0  0  0
  -27.8869  -21.0924   29.3156 C   0  0  2  0  0  0  0  0  0  0  0  0
  -27.2152  -12.9653   18.2506 C   0  0  0  0  0  0  0  0  0  0  0  0
  -28.2384  -23.9595   25.5116 C   0  0  0  0  0  0  0  0  0  0  0  0
  -28.8179  -20.7024   20.0744 N   0  0  0  0  0  0  0  0  0  0  0  0
  -28.1509  -19.6530   19.5645 N   0  0  0  0  0  0  0  0  0  0  0  0
  -24.8442  -22.8141   25.3311 N   0  0  0  0  0  0  0  0  0  0  0  0
  -28.8860  -16.2018   21.0333 N   0  0  0  0  0  0  0  0  0  0  0  0
  -27.0119  -18.8982   17.6296 N   0  0  0  0  0  0  0  0  0  0  0  0
  -28.3332  -23.0668   16.5012 N   0  0  0  0  0  0  0  0  0  0  0  0
  -23.8483  -15.0396   21.1817 N   0  0  0  0  0  0  0  0  0  0  0  0
  -22.7997  -25.2423   23.7022 N   0  0  0  0  0  0  0  0  0  0  0  0
  -27.4533  -22.5672   27.4735 N   0  0  0  0  0  0  0  0  0  0  0  0
  -28.8046  -14.6896   19.2167 N   0  0  0  0  0  0  0  0  0  0  0  0
  -24.1971   -9.3170   21.1607 N   0  3  1  0  0  0  0  0  0  0  0  0
  -27.2964  -19.8193   29.8171 N   0  3  0  0  0  0  0  0  0  0  0  0
  -27.2053  -21.2090   15.7696 O   0  0  0  0  0  0  0  0  0  0  0  0
  -24.2752  -23.6394   22.8801 O   0  0  0  0  0  0  0  0  0  0  0  0
  -25.5468  -24.5626   26.7041 O   0  0  0  0  0  0  0  0  0  0  0  0
  -27.5804  -20.2895   27.0576 O   0  0  0  0  0  0  0  0  0  0  0  0
  -28.5793  -13.9275   21.3673 O   0  0  0  0  0  0  0  0  0  0  0  0
  -31.2086  -26.5934   19.7152 O   0  0  0  0  0  0  0  0  0  0  0  0
  -23.4299  -17.5787   22.3911 O   0  0  0  0  0  0  0  0  0  1  0  0
  -28.4001  -31.0358   18.0473 F   0  0  0  0  0  0  0  0  0  0  0  0
  -30.5462  -28.6031   21.4943 F   0  0  0  0  0  0  0  0  0  0  0  0
  -27.3142  -11.3447   17.4271 Cl  0  0  0  0  0  0  0  0  0  0  0  0
  -26.6067  -14.1607   17.0192 Cl  0  0  0  0  0  0  0  0  0  0  0  0
  1  2  1  0  0  0  0
  1  5  2  0  0  0  0
  2  6  2  0  0  0  0
  3  8  2  0  0  0  0
  3 16  1  0  0  0  0
  4  9  1  0  0  0  0
  4 16  2  0  0  0  0
  5 18  1  0  0  0  0
  6 20  1  0  0  0  0
  7 10  2  0  0  0  0
  7 19  1  0  0  0  0
  8 27  1  0  0  0  0
  9 27  2  0  0  0  0
 10 28  1  0  0  0  0
 11 12  2  0  0  0  0
 11 29  1  0  0  0  0
 12 30  1  0  0  0  0
 13 21  1  0  0  0  0
 13 28  2  0  0  0  0
 14 22  1  0  0  0  0
 14 26  2  0  0  0  0
 15 30  2  0  0  0  0
 15 31  1  0  0  0  0
 16 32  1  0  0  0  0
 17 32  1  0  0  0  0
 17 33  2  0  0  0  0
 17 36  1  0  0  0  0
 18 20  2  0  0  0  0
 18 41  1  0  0  0  0
 19 21  2  0  0  0  0
 19 42  1  0  0  0  0
 20 53  1  0  0  0  0
 21 43  1  0  0  0  0
 22 23  2  0  0  0  0
 22 63  1  0  0  0  0
 23 24  1  0  0  0  0
 23 56  1  0  0  0  0
 24 25  2  0  0  0  0
 24 69  1  0  0  0  0
 25 26  1  0  0  0  0
 25 57  1  0  0  0  0
 26 77  1  0  0  0  0
 27 88  1  0  0  0  0
 28 89  1  0  0  0  0
 29 31  2  0  0  0  0
 29 88  1  0  0  0  0
 30 90  1  0  0  0  0
 31 91  1  0  0  0  0
 32 71  2  0  0  0  0
 33 72  1  0  0  0  0
 33 75  1  0  0  0  0
 34 35  2  0  0  0  0
 34 44  1  0  0  0  0
 34 81  1  0  0  0  0
 36 76  1  0  0  0  0
 36 83  2  0  0  0  0
 37 54  1  0  0  0  0
 37 78  1  0  0  0  0
 37 84  2  0  0  0  0
 38 67  1  0  0  0  0
 38 73  1  0  0  0  0
 38 85  2  0  0  0  0
 39 68  1  0  0  0  0
 39 79  1  0  0  0  0
 39 86  2  0  0  0  0
 40 74  1  0  0  0  0
 40 80  1  0  0  0  0
 40 87  2  0  0  0  0
 41 45  1  0  0  0  0
 42 54  1  0  0  0  0
 43 73  1  0  0  0  0
 44 46  1  0  0  0  0
 45 48  1  0  0  0  0
 46 52  1  0  0  0  0
 47 49  1  0  0  0  0
 47 50  1  0  0  0  0
 48 53  1  0  0  0  0
 49 55  1  0  0  0  0
 50 74  1  0  0  0  0
 51 55  1  0  0  0  0
 51 74  1  0  0  0  0
 52 81  1  0  0  0  0
 53 78  1  0  0  0  0
 54 73  1  0  0  0  0
 55 72  1  0  0  0  0
 58 68  1  0  0  0  0
 59 70  1  0  0  0  0
 60 70  1  0  0  0  0
 61 70  1  0  0  0  0
 62 82  1  0  0  0  0
 63 81  1  0  0  0  0
 64 66  1  0  0  0  0
 64 77  1  0  0  0  0
 65 69  1  0  0  0  0
 65 80  1  0  0  0  0
 66 89  1  0  0  0  0
 67 70  1  0  0  0  0
 67 79  1  0  0  0  0
 68 82  1  0  0  0  0
 69 92  1  0  0  0  0
 69 93  1  0  0  0  0
 71 72  1  0  0  0  0
M  CHG  2  81   1  82   1
M  ISO  4  40 100  66 101  80 100  89 101
M  END
> <Batch ID>
0037

> <Smiles>
C=C1CCCN1Cc1cc(NC[101CH2:1][101O:1]c2ccc3c(c2)CN(C(=O)C(NC(=O)C(C)NC)C(C)(C)C)C(C(=O)NC2CCCc4ccccc42)C3)c(C)c(C(Cl)(Cl)C[100NH:0][100C:0](=O)N2CCCC(n3nc(-c4ccc(Oc5ccc(F)cc5F)cc4)c(C(N)=O)c3N)C2)c1C

> <Shape>
0.235

> <Color>
0.056

> <Negative vol penalty>
0.000

$$$$

  -OEChem-04042321573D

 85 93  0     1  0  0  0  0  0999 V2000
  -30.2020  -23.6278   14.2960 C   0  0  0  0  0  0  0  0  0  0  0  0
  -29.9393  -24.9931   14.2896 C   0  0  0  0  0  0  0  0  0  0  0  0
  -26.1180  -13.5771   18.8967 C   0  0  0  0  0  0  0  0  0  0  0  0
  -25.2881  -13.9121   21.1408 C   0  0  0  0  0  0  0  0  0  0  0  0
  -29.4741  -22.7858   15.1341 C   0  0  0  0  0  0  0  0  0  0  0  0
  -28.9569  -25.5183   15.1298 C   0  0  0  0  0  0  0  0  0  0  0  0
  -24.2457  -30.1608   20.1948 C   0  0  0  0  0  0  0  0  0  0  0  0
  -25.9816  -12.1977   19.0522 C   0  0  0  0  0  0  0  0  0  0  0  0
  -25.1517  -12.5327   21.2963 C   0  0  0  0  0  0  0  0  0  0  0  0
  -23.4606  -29.8997   21.3169 C   0  0  0  0  0  0  0  0  0  0  0  0
  -24.2446   -9.1185   22.1559 C   0  0  0  0  0  0  0  0  0  0  0  0
  -23.0664   -8.6435   22.7318 C   0  0  0  0  0  0  0  0  0  0  0  0
  -25.1289  -28.3515   22.1165 C   0  0  0  0  0  0  0  0  0  0  0  0
  -25.0486  -24.4850   21.3207 C   0  0  0  0  0  0  0  0  0  0  0  0
  -23.4196  -23.6358   23.4201 C   0  0  0  0  0  0  0  0  0  0  0  0
  -21.7877   -9.6494   20.9458 C   0  0  0  0  0  0  0  0  0  0  0  0
  -25.7713  -14.4343   19.9410 C   0  0  0  0  0  0  0  0  0  0  0  0
  -24.9478  -16.7594   19.2903 C   0  0  0  0  0  0  0  0  0  0  0  0
  -28.4739  -23.3001   15.9756 C   0  0  0  0  0  0  0  0  0  0  0  0
  -25.4754  -29.5100   20.0194 C   0  0  0  0  0  0  0  0  0  0  0  0
  -28.2279  -24.6880   16.0004 C   0  0  0  0  0  0  0  0  0  0  0  0
  -25.9289  -28.6081   20.9925 C   0  0  0  0  0  0  0  0  0  0  0  0
  -25.6062  -23.8122   22.4078 C   0  0  0  0  0  0  0  0  0  0  0  0
  -22.8620  -24.3086   22.3329 C   0  0  0  0  0  0  0  0  0  0  0  0
  -25.4985  -11.6754   20.2520 C   0  0  0  0  0  0  0  0  0  0  0  0
  -23.9008  -28.9928   22.2765 C   0  0  0  0  0  0  0  0  0  0  0  0
  -24.1944   -9.8592   20.9749 C   0  0  0  0  0  0  0  0  0  0  0  0
  -21.8379   -8.9089   22.1268 C   0  0  0  0  0  0  0  0  0  0  0  0
  -22.9659  -10.1246   20.3699 C   0  0  0  0  0  0  0  0  0  0  0  0
  -24.7917  -23.3875   23.4576 C   0  0  0  0  0  0  0  0  0  0  0  0
  -23.6765  -24.7333   21.2832 C   0  0  0  0  0  0  0  0  0  0  0  0
  -25.9125  -15.8593   19.7812 C   0  0  0  0  0  0  0  0  0  0  0  0
  -25.5663  -17.9849   19.3370 C   0  0  0  0  0  0  0  0  0  0  0  0
  -23.6119  -16.5101   18.8331 C   0  0  0  0  0  0  0  0  0  0  0  0
  -26.6713  -27.5220   17.8465 C   0  0  0  0  0  0  0  0  0  0  0  0
  -29.4039  -27.9286   19.5465 C   0  0  0  0  0  0  0  0  0  0  0  0
  -30.3361  -28.1221   23.0266 C   0  0  0  0  0  0  0  0  0  0  0  0
  -28.7178  -21.7476   21.9931 C   0  0  0  0  0  0  0  0  0  0  0  0
  -27.7219  -22.3446   16.8681 C   0  0  0  0  0  0  0  0  0  0  0  0
  -26.3228  -29.8227   18.8167 C   0  0  0  0  0  0  0  0  0  0  0  0
  -27.2508  -27.8983   20.8613 C   0  0  0  0  0  0  0  0  0  0  0  0
  -26.4110  -22.9246   17.3892 C   0  0  0  0  0  0  0  0  0  0  0  0
  -30.4059  -19.2005   20.1659 C   0  0  0  0  0  0  0  0  0  0  0  0
  -26.6497  -24.3113   17.9676 C   0  0  0  0  0  0  0  0  0  0  0  0
  -29.3095  -18.1761   19.8682 C   0  0  0  0  0  0  0  0  0  0  0  0
  -30.2264  -19.8350   21.5433 C   0  0  0  0  0  0  0  0  0  0  0  0
  -27.8008  -19.4027   21.4862 C   0  0  0  0  0  0  0  0  0  0  0  0
  -27.1431  -25.2778   16.8834 C   0  0  1  0  0  0  0  0  0  0  0  0
  -27.3205  -28.7173   18.4850 C   0  0  1  0  0  0  0  0  0  0  0  0
  -27.9074  -18.7764   20.0853 C   0  0  2  0  0  0  0  0  0  0  0  0
  -32.2699  -29.2741   24.1360 C   0  0  0  0  0  0  0  0  0  0  0  0
  -30.7850  -25.2190   19.3000 C   0  0  0  0  0  0  0  0  0  0  0  0
  -31.8022  -25.6106   21.5538 C   0  0  0  0  0  0  0  0  0  0  0  0
  -32.3327  -27.1495   19.6636 C   0  0  0  0  0  0  0  0  0  0  0  0
  -28.5469  -29.6408   24.8297 C   0  0  0  0  0  0  0  0  0  0  0  0
  -27.0804  -23.5656   22.4093 C   0  0  0  0  0  0  0  0  0  0  0  0
  -21.3824  -24.5570   22.3304 C   0  0  0  0  0  0  0  0  0  0  0  0
  -21.0459  -27.8879   24.1886 C   0  0  0  0  0  0  0  0  0  0  0  0
  -21.4360  -26.4325   23.9791 C   0  0  0  0  0  0  0  0  0  0  0  0
  -21.7219  -28.8495   23.2189 C   0  0  0  0  0  0  0  0  0  1  0  0
  -30.0410  -27.2374   20.7277 C   0  0  1  0  0  0  0  0  0  0  0  0
  -30.7945  -29.3594   23.7771 C   0  0  2  0  0  0  0  0  0  0  0  0
  -31.2120  -26.3047   20.3079 C   0  0  0  0  0  0  0  0  0  0  0  0
  -27.0570  -16.4616   20.1151 N   0  0  0  0  0  0  0  0  0  0  0  0
  -26.8154  -17.7533   19.8334 N   0  0  0  0  0  0  0  0  0  0  0  0
  -28.0404  -28.2329   19.6646 N   0  0  0  0  0  0  0  0  0  0  0  0
  -28.8767  -20.3867   21.6840 N   0  0  0  0  0  0  0  0  0  0  0  0
  -25.1582  -19.2271   19.0014 N   0  0  0  0  0  0  0  0  0  0  0  0
  -23.1341  -15.1927   18.8523 N   0  0  0  0  0  0  0  0  0  0  0  0
  -27.5555  -26.5159   17.5068 N   0  0  0  0  0  0  0  0  0  0  0  0
  -30.4222  -28.2920   21.6609 N   0  0  0  0  0  0  0  0  0  0  0  0
  -27.4053  -22.1905   22.1022 N   0  0  0  0  0  0  0  0  0  0  0  0
  -30.0132  -29.5208   25.0359 N   0  3  0  0  0  0  0  0  0  0  0  0
  -21.0277  -25.9716   22.6314 N   0  3  0  0  0  0  0  0  0  0  0  0
  -22.8699  -17.4261   18.4043 O   0  0  0  0  0  0  0  0  0  0  0  0
  -25.4578  -27.5126   17.6761 O   0  0  0  0  0  0  0  0  0  0  0  0
  -30.0925  -28.1952   18.5583 O   0  0  0  0  0  0  0  0  0  0  0  0
  -29.9446  -27.1052   23.5949 O   0  0  0  0  0  0  0  0  0  0  0  0
  -29.6747  -22.5127   22.1544 O   0  0  0  0  0  0  0  0  0  0  0  0
  -25.3650  -10.3295   20.4040 O   0  0  0  0  0  0  0  0  0  0  0  0
  -23.1361  -28.7356   23.3724 O   0  0  0  0  0  0  0  0  0  1  0  0
  -20.7067   -8.4513   22.6791 F   0  0  0  0  0  0  0  0  0  0  0  0
  -22.9114  -10.8345   19.2346 F   0  0  0  0  0  0  0  0  0  0  0  0
  -25.4466  -22.5511   24.8180 Cl  0  0  0  0  0  0  0  0  0  0  0  0
  -23.0218  -25.5686   19.9219 Cl  0  0  0  0  0  0  0  0  0  0  0  0
  1  2  1  0  0  0  0
  1  5  2  0  0  0  0
  2  6  2  0  0  0  0
  3  8  2  0  0  0  0
  3 17  1  0  0  0  0
  4  9  1  0  0  0  0
  4 17  2  0  0  0  0
  5 19  1  0  0  0  0
  6 21  1  0  0  0  0
  7 10  2  0  0  0  0
  7 20  1  0  0  0  0
  8 25  1  0  0  0  0
  9 25  2  0  0  0  0
 10 26  1  0  0  0  0
 11 12  2  0  0  0  0
 11 27  1  0  0  0  0
 12 28  1  0  0  0  0
 13 22  1  0  0  0  0
 13 26  2  0  0  0  0
 14 23  2  0  0  0  0
 14 31  1  0  0  0  0
 15 24  1  0  0  0  0
 15 30  2  0  0  0  0
 16 28  2  0  0  0  0
 16 29  1  0  0  0  0
 17 32  1  0  0  0  0
 18 32  1  0  0  0  0
 18 33  2  0  0  0  0
 18 34  1  0  0  0  0
 19 21  2  0  0  0  0
 19 39  1  0  0  0  0
 20 22  2  0  0  0  0
 20 40  1  0  0  0  0
 21 48  1  0  0  0  0
 22 41  1  0  0  0  0
 23 30  1  0  0  0  0
 23 56  1  0  0  0  0
 24 31  2  0  0  0  0
 24 57  1  0  0  0  0
 25 80  1  0  0  0  0
 26 81  1  0  0  0  0
 27 29  2  0  0  0  0
 27 80  1  0  0  0  0
 28 82  1  0  0  0  0
 29 83  1  0  0  0  0
 30 84  1  0  0  0  0
 31 85  1  0  0  0  0
 32 64  2  0  0  0  0
 33 65  1  0  0  0  0
 33 68  1  0  0  0  0
 34 69  1  0  0  0  0
 34 75  2  0  0  0  0
 35 49  1  0  0  0  0
 35 70  1  0  0  0  0
 35 76  2  0  0  0  0
 36 61  1  0  0  0  0
 36 66  1  0  0  0  0
 36 77  2  0  0  0  0
 37 62  1  0  0  0  0
 37 71  1  0  0  0  0
 37 78  2  0  0  0  0
 38 67  1  0  0  0  0
 38 72  1  0  0  0  0
 38 79  2  0  0  0  0
 39 42  1  0  0  0  0
 40 49  1  0  0  0  0
 41 66  1  0  0  0  0
 42 44  1  0  0  0  0
 43 45  1  0  0  0  0
 43 46  1  0  0  0  0
 44 48  1  0  0  0  0
 45 50  1  0  0  0  0
 46 67  1  0  0  0  0
 47 50  1  0  0  0  0
 47 67  1  0  0  0  0
 48 70  1  0  0  0  0
 49 66  1  0  0  0  0
 50 65  1  0  0  0  0
 51 62  1  0  0  0  0
 52 63  1  0  0  0  0
 53 63  1  0  0  0  0
 54 63  1  0  0  0  0
 55 73  1  0  0  0  0
 56 72  1  0  0  0  0
 57 74  1  0  0  0  0
 58 59  1  0  0  0  0
 58 60  1  0  0  0  0
 59 74  1  0  0  0  0
 60 81  1  0  0  0  0
 61 63  1  0  0  0  0
 61 71  1  0  0  0  0
 62 73  1  0  0  0  0
 64 65  1  0  0  0  0
M  CHG  2  73   1  74   1
M  ISO  4  38 100  60 101  72 100  81 101
M  END
> <Batch ID>
0037

> <Smiles>
CNC(C)C(=O)NC(C(=O)N1Cc2cc([101O:1][101CH2:1]CCNCc3cc(Cl)c(C[100NH:0][100C:0](=O)N4CCCC(n5nc(-c6ccc(Oc7ccc(F)cc7F)cc6)c(C(N)=O)c5N)C4)cc3Cl)ccc2CC1C(=O)NC1CCCc2ccccc21)C(C)(C)C

> <Shape>
0.214

> <Color>
0.063

> <Negative vol penalty>
0.000

$$$$

  -OEChem-04042321573D

 92101  0     1  0  0  0  0  0999 V2000
  -29.0799  -31.9120   26.6802 C   0  0  0  0  0  0  0  0  0  0  0  0
  -28.8528  -30.8047   25.8693 C   0  0  0  0  0  0  0  0  0  0  0  0
  -24.1536   -8.3224   20.7343 C   0  0  0  0  0  0  0  0  0  0  0  0
  -23.2886  -10.5609   21.0135 C   0  0  0  0  0  0  0  0  0  0  0  0
  -28.0114  -32.7150   27.0769 C   0  0  0  0  0  0  0  0  0  0  0  0
  -27.5568  -30.4990   25.4554 C   0  0  0  0  0  0  0  0  0  0  0  0
  -27.3165  -29.3130   20.5381 C   0  0  0  0  0  0  0  0  0  0  0  0
  -23.1716   -7.8353   21.5968 C   0  0  0  0  0  0  0  0  0  0  0  0
  -22.3065  -10.0738   21.8760 C   0  0  0  0  0  0  0  0  0  0  0  0
  -27.7279  -28.0324   20.1711 C   0  0  0  0  0  0  0  0  0  0  0  0
  -19.8823   -7.0666   21.4459 C   0  0  0  0  0  0  0  0  0  0  0  0
  -19.2016   -5.9100   21.0660 C   0  0  0  0  0  0  0  0  0  0  0  0
  -25.4234  -27.3261   20.0746 C   0  0  0  0  0  0  0  0  0  0  0  0
  -27.7143  -18.5200   20.0739 C   0  0  0  0  0  0  0  0  0  0  0  0
  -25.7112  -17.8162   18.9210 C   0  0  0  0  0  0  0  0  0  0  0  0
  -19.9855   -4.7935   23.0599 C   0  0  0  0  0  0  0  0  0  0  0  0
  -24.2121   -9.6853   20.4427 C   0  0  0  0  0  0  0  0  0  0  0  0
  -25.4307   -9.8306   18.2063 C   0  0  0  0  0  0  0  0  0  0  0  0
  -26.7028  -32.4246   26.6598 C   0  0  0  0  0  0  0  0  0  0  0  0
  -25.9535  -29.6073   20.6869 C   0  0  0  0  0  0  0  0  0  0  0  0
  -26.4695  -31.2981   25.8480 C   0  0  0  0  0  0  0  0  0  0  0  0
  -24.9971  -28.6119   20.4411 C   0  0  0  0  0  0  0  0  0  0  0  0
  -27.1758  -19.7972   20.2299 C   0  0  0  0  0  0  0  0  0  0  0  0
  -25.1726  -19.0934   19.0771 C   0  0  0  0  0  0  0  0  0  0  0  0
  -25.9050  -20.0839   19.7315 C   0  0  0  0  0  0  0  0  0  0  0  0
  -26.9820  -17.5295   19.4194 C   0  0  0  0  0  0  0  0  0  0  0  0
  -22.2480   -8.7110   22.1676 C   0  0  0  0  0  0  0  0  0  0  0  0
  -26.7815  -27.0380   19.9421 C   0  0  0  0  0  0  0  0  0  0  0  0
  -20.6148   -7.0867   22.6329 C   0  0  0  0  0  0  0  0  0  0  0  0
  -19.2531   -4.7734   21.8730 C   0  0  0  0  0  0  0  0  0  0  0  0
  -20.6663   -5.9501   23.4399 C   0  0  0  0  0  0  0  0  0  0  0  0
  -25.2267  -10.1891   19.5522 C   0  0  0  0  0  0  0  0  0  0  0  0
  -26.5092  -10.5833   17.8101 C   0  0  0  0  0  0  0  0  0  0  0  0
  -28.2608  -23.1697   20.1501 C   0  0  0  0  0  0  0  0  0  0  0  0
  -24.7099   -8.9004   17.3873 C   0  0  0  0  0  0  0  0  0  0  0  0
  -24.1142  -30.5570   23.0992 C   0  0  0  0  0  0  0  0  0  0  0  0
  -21.8532  -30.7631   20.7824 C   0  0  0  0  0  0  0  0  0  0  0  0
  -20.7425  -29.7472   17.7195 C   0  0  0  0  0  0  0  0  0  0  0  0
  -28.7739  -15.7807   19.6976 C   0  0  0  0  0  0  0  0  0  0  0  0
  -25.5738  -33.2944   27.1530 C   0  0  0  0  0  0  0  0  0  0  0  0
  -25.5249  -31.0007   21.0573 C   0  0  0  0  0  0  0  0  0  0  0  0
  -23.5208  -28.8820   20.5676 C   0  0  0  0  0  0  0  0  0  0  0  0
  -24.2791  -33.1176   26.3637 C   0  0  0  0  0  0  0  0  0  0  0  0
  -28.8370  -22.6891   16.9279 C   0  0  0  0  0  0  0  0  0  0  0  0
  -28.7667  -21.3165   17.5887 C   0  0  0  0  0  0  0  0  0  0  0  0
  -30.4678  -12.6532   19.5361 C   0  0  0  0  0  0  0  0  0  0  0  0
  -23.9734  -31.6366   26.1646 C   0  0  0  0  0  0  0  0  0  0  0  0
  -28.1633  -23.8137   17.7128 C   0  0  0  0  0  0  0  0  0  0  0  0
  -29.3349  -11.6342   19.3933 C   0  0  0  0  0  0  0  0  0  0  0  0
  -29.4240  -21.2706   18.9624 C   0  0  0  0  0  0  0  0  0  0  0  0
  -30.0793  -13.8077   20.4580 C   0  0  0  0  0  0  0  0  0  0  0  0
  -27.6895  -13.4642   19.9683 C   0  0  0  0  0  0  0  0  0  0  0  0
  -25.0811  -30.9481   25.3581 C   0  0  1  0  0  0  0  0  0  0  0  0
  -28.8247  -24.1002   19.0702 C   0  0  1  0  0  0  0  0  0  0  0  0
  -24.1334  -31.0519   21.6806 C   0  0  1  0  0  0  0  0  0  0  0  0
  -28.0104  -12.3159   18.9977 C   0  0  2  0  0  0  0  0  0  0  0  0
  -25.3274  -21.4534   19.8994 C   0  0  0  0  0  0  0  0  0  0  0  0
  -18.8440  -30.0616   16.1088 C   0  0  0  0  0  0  0  0  0  0  0  0
  -22.7183  -19.0892   19.5620 C   0  0  0  0  0  0  0  0  0  0  0  0
  -20.0830  -28.9932   22.5270 C   0  0  0  0  0  0  0  0  0  0  0  0
  -18.6485  -28.5687   20.5195 C   0  0  0  0  0  0  0  0  0  0  0  0
  -18.8887  -30.8860   21.4111 C   0  0  0  0  0  0  0  0  0  0  0  0
  -22.5438  -30.8042   15.6227 C   0  0  0  0  0  0  0  0  0  0  0  0
  -27.9847  -20.8456   20.9375 C   0  0  0  0  0  0  0  0  0  0  0  0
  -28.5844  -25.5633   19.4621 C   0  0  0  0  0  0  0  0  0  1  0  0
  -20.8323  -29.8171   20.1977 C   0  0  1  0  0  0  0  0  0  0  0  0
  -20.2304  -30.5293   16.5234 C   0  0  2  0  0  0  0  0  0  0  0  0
  -23.8097  -19.3744   18.5343 C   0  0  0  0  0  0  0  0  0  0  0  0
  -19.6409  -29.5603   21.1632 C   0  0  0  0  0  0  0  0  0  0  0  0
  -26.1051  -11.0987   19.9824 N   0  0  0  0  0  0  0  0  0  0  0  0
  -26.8716  -11.3181   18.9005 N   0  0  0  0  0  0  0  0  0  0  0  0
  -28.5561  -21.8129   20.0087 N   0  0  0  0  0  0  0  0  0  0  0  0
  -23.1519  -30.2583   20.9382 N   0  0  0  0  0  0  0  0  0  0  0  0
  -28.8173  -14.4076   20.0194 N   0  0  0  0  0  0  0  0  0  0  0  0
  -27.1733  -10.6816   16.6390 N   0  0  0  0  0  0  0  0  0  0  0  0
  -23.6280   -8.2115   17.9523 N   0  0  0  0  0  0  0  0  0  0  0  0
  -27.5284  -16.2317   19.2618 N   0  0  0  0  0  0  0  0  0  0  0  0
  -24.9479  -31.2568   23.9505 N   0  0  0  0  0  0  0  0  0  0  0  0
  -20.4458  -30.3797   18.9083 N   0  0  0  0  0  0  0  0  0  0  0  0
  -21.1498  -30.3614   15.3626 N   0  3  0  0  0  0  0  0  0  0  0  0
  -27.5752  -23.6187   21.0728 O   0  0  0  0  0  0  0  0  0  0  0  0
  -25.0263   -8.6743   16.1947 O   0  0  0  0  0  0  0  0  0  0  0  0
  -23.3952  -29.6112   23.3994 O   0  0  0  0  0  0  0  0  0  0  0  0
  -21.5126  -31.9100   21.0829 O   0  0  0  0  0  0  0  0  0  0  0  0
  -21.3421  -28.6799   17.6104 O   0  0  0  0  0  0  0  0  0  0  0  0
  -29.7751  -16.4974   19.7751 O   0  0  0  0  0  0  0  0  0  0  0  0
  -21.2894   -8.2360   23.0091 O   0  0  0  0  0  0  0  0  0  0  0  0
  -27.1804  -25.7871   19.5845 O   0  0  0  0  0  0  0  0  0  1  0  0
  -18.5981   -3.6633   21.5087 F   0  0  0  0  0  0  0  0  0  0  0  0
  -21.3674   -5.9638   24.5819 F   0  0  0  0  0  0  0  0  0  0  0  0
  -23.5160  -18.6338   17.4187 F   0  0  0  0  0  0  0  0  0  0  0  0
  -23.6533  -20.6753   18.1309 F   0  0  0  0  0  0  0  0  0  0  0  0
  1  2  1  0  0  0  0
  1  5  2  0  0  0  0
  2  6  2  0  0  0  0
  3  8  2  0  0  0  0
  3 17  1  0  0  0  0
  4  9  1  0  0  0  0
  4 17  2  0  0  0  0
  5 19  1  0  0  0  0
  6 21  1  0  0  0  0
  7 10  2  0  0  0  0
  7 20  1  0  0  0  0
  8 27  1  0  0  0  0
  9 27  2  0  0  0  0
 10 28  1  0  0  0  0
 11 12  2  0  0  0  0
 11 29  1  0  0  0  0
 12 30  1  0  0  0  0
 13 22  1  0  0  0  0
 13 28  2  0  0  0  0
 14 23  1  0  0  0  0
 14 26  2  0  0  0  0
 15 24  2  0  0  0  0
 15 26  1  0  0  0  0
 16 30  2  0  0  0  0
 16 31  1  0  0  0  0
 17 32  1  0  0  0  0
 18 32  1  0  0  0  0
 18 33  2  0  0  0  0
 18 35  1  0  0  0  0
 19 21  2  0  0  0  0
 19 40  1  0  0  0  0
 20 22  2  0  0  0  0
 20 41  1  0  0  0  0
 21 53  1  0  0  0  0
 22 42  1  0  0  0  0
 23 25  2  0  0  0  0
 23 64  1  0  0  0  0
 24 25  1  0  0  0  0
 24 68  1  0  0  0  0
 25 57  1  0  0  0  0
 26 77  1  0  0  0  0
 27 87  1  0  0  0  0
 28 88  1  0  0  0  0
 29 31  2  0  0  0  0
 29 87  1  0  0  0  0
 30 89  1  0  0  0  0
 31 90  1  0  0  0  0
 32 70  2  0  0  0  0
 33 71  1  0  0  0  0
 33 75  1  0  0  0  0
 34 54  1  0  0  0  0
 34 72  1  0  0  0  0
 34 81  2  0  0  0  0
 35 76  1  0  0  0  0
 35 82  2  0  0  0  0
 36 55  1  0  0  0  0
 36 78  1  0  0  0  0
 36 83  2  0  0  0  0
 37 66  1  0  0  0  0
 37 73  1  0  0  0  0
 37 84  2  0  0  0  0
 38 67  1  0  0  0  0
 38 79  1  0  0  0  0
 38 85  2  0  0  0  0
 39 74  1  0  0  0  0
 39 77  1  0  0  0  0
 39 86  2  0  0  0  0
 40 43  1  0  0  0  0
 41 55  1  0  0  0  0
 42 73  1  0  0  0  0
 43 47  1  0  0  0  0
 44 45  1  0  0  0  0
 44 48  1  0  0  0  0
 45 50  1  0  0  0  0
 46 49  1  0  0  0  0
 46 51  1  0  0  0  0
 47 53  1  0  0  0  0
 48 54  1  0  0  0  0
 49 56  1  0  0  0  0
 50 72  1  0  0  0  0
 51 74  1  0  0  0  0
 52 56  1  0  0  0  0
 52 74  1  0  0  0  0
 53 78  1  0  0  0  0
 54 65  1  0  0  0  0
 55 73  1  0  0  0  0
 56 71  1  0  0  0  0
 58 67  1  0  0  0  0
 59 68  1  0  0  0  0
 60 69  1  0  0  0  0
 61 69  1  0  0  0  0
 62 69  1  0  0  0  0
 63 80  1  0  0  0  0
 64 72  1  0  0  0  0
 65 88  1  0  0  0  0
 66 69  1  0  0  0  0
 66 79  1  0  0  0  0
 67 80  1  0  0  0  0
 68 91  1  0  0  0  0
 68 92  1  0  0  0  0
 70 71  1  0  0  0  0
M  CHG  1  80   1
M  ISO  4  39 100  65 101  77 100  88 101
M  END
> <Batch ID>
0037

> <Smiles>
CNC(C)C(=O)NC(C(=O)N1Cc2cc([101O:1][101CH2:1]C3CCCCN(Cc4cc([100NH:0][100C:0](=O)N5CCCC(n6nc(-c7ccc(Oc8ccc(F)cc8F)cc7)c(C(N)=O)c6N)C5)cc(C(C)(F)F)c4C)C3=O)ccc2CC1C(=O)NC1CCCc2ccccc21)C(C)(C)C

> <Shape>
0.287

> <Color>
0.097

> <Negative vol penalty>
0.000

$$$$

  -OEChem-04042321573D

 87 95  0     1  0  0  0  0  0999 V2000
  -20.3292  -27.9192   26.2108 C   0  0  0  0  0  0  0  0  0  0  0  0
  -21.5061  -27.3518   25.7331 C   0  0  0  0  0  0  0  0  0  0  0  0
  -26.8875  -13.2149   20.9310 C   0  0  0  0  0  0  0  0  0  0  0  0
  -27.1619  -13.0644   18.5353 C   0  0  0  0  0  0  0  0  0  0  0  0
  -19.2673  -28.1569   25.3392 C   0  0  0  0  0  0  0  0  0  0  0  0
  -21.6214  -27.0207   24.3834 C   0  0  0  0  0  0  0  0  0  0  0  0
  -26.0579  -28.4509   22.4044 C   0  0  0  0  0  0  0  0  0  0  0  0
  -26.2558  -11.9713   20.9368 C   0  0  0  0  0  0  0  0  0  0  0  0
  -26.5302  -11.8207   18.5412 C   0  0  0  0  0  0  0  0  0  0  0  0
  -27.1673  -27.6551   22.6869 C   0  0  0  0  0  0  0  0  0  0  0  0
  -23.1968  -10.7285   20.2142 C   0  0  0  0  0  0  0  0  0  0  0  0
  -22.0313  -10.5979   20.9693 C   0  0  0  0  0  0  0  0  0  0  0  0
  -30.7546  -24.1936   17.8351 C   0  0  0  0  0  0  0  0  0  0  0  0
  -26.9601  -26.6086   20.5234 C   0  0  0  0  0  0  0  0  0  0  0  0
  -32.9227  -22.9132   19.0361 C   0  0  0  0  0  0  0  0  0  0  0  0
  -23.0810   -8.8690   22.2907 C   0  0  0  0  0  0  0  0  0  0  0  0
  -27.3405  -13.7615   19.7302 C   0  0  0  0  0  0  0  0  0  0  0  0
  -31.4963  -24.8508   18.8166 C   0  0  0  0  0  0  0  0  0  0  0  0
  -29.3697  -15.3014   19.8650 C   0  0  0  0  0  0  0  0  0  0  0  0
  -19.3731  -27.8374   23.9763 C   0  0  0  0  0  0  0  0  0  0  0  0
  -25.3836  -28.3236   21.1815 C   0  0  0  0  0  0  0  0  0  0  0  0
  -20.5594  -27.2531   23.4930 C   0  0  0  0  0  0  0  0  0  0  0  0
  -25.8440  -27.4057   20.2267 C   0  0  0  0  0  0  0  0  0  0  0  0
  -31.0969  -22.8961   17.4541 C   0  0  0  0  0  0  0  0  0  0  0  0
  -32.5804  -24.2107   19.4171 C   0  0  0  0  0  0  0  0  0  0  0  0
  -32.1810  -22.2560   18.0546 C   0  0  0  0  0  0  0  0  0  0  0  0
  -26.0772  -11.2742   19.7419 C   0  0  0  0  0  0  0  0  0  0  0  0
  -27.6168  -26.7318   21.7476 C   0  0  0  0  0  0  0  0  0  0  0  0
  -24.3044   -9.9292   20.4973 C   0  0  0  0  0  0  0  0  0  0  0  0
  -21.9734   -9.6683   22.0075 C   0  0  0  0  0  0  0  0  0  0  0  0
  -24.2465   -8.9995   21.5356 C   0  0  0  0  0  0  0  0  0  0  0  0
  -27.9925  -15.0463   19.7235 C   0  0  0  0  0  0  0  0  0  0  0  0
  -29.4751  -16.6688   19.7903 C   0  0  0  0  0  0  0  0  0  0  0  0
  -30.4566  -14.3844   20.0476 C   0  0  0  0  0  0  0  0  0  0  0  0
  -31.1146  -26.2151   19.1984 C   0  0  0  0  0  0  0  0  0  0  0  0
  -22.4366  -27.5009   20.3200 C   0  0  0  0  0  0  0  0  0  0  0  0
  -23.4831  -28.3438   17.3676 C   0  0  0  0  0  0  0  0  0  0  0  0
  -26.1190  -28.7925   15.2468 C   0  0  0  0  0  0  0  0  0  0  0  0
  -28.1241  -21.5311   17.4073 C   0  0  0  0  0  0  0  0  0  0  0  0
  -29.5193  -25.5151   21.0432 C   0  0  0  0  0  0  0  0  0  1  0  0
  -18.1813  -28.0692   23.0817 C   0  0  0  0  0  0  0  0  0  0  0  0
  -24.2047  -29.2082   20.8812 C   0  0  0  0  0  0  0  0  0  0  0  0
  -25.1675  -27.2446   18.8907 C   0  0  0  0  0  0  0  0  0  0  0  0
  -18.5207  -28.0350   21.5938 C   0  0  0  0  0  0  0  0  0  0  0  0
  -25.9097  -20.2557   19.8865 C   0  0  0  0  0  0  0  0  0  0  0  0
  -19.3999  -26.8301   21.2743 C   0  0  0  0  0  0  0  0  0  0  0  0
  -26.3637  -18.8067   20.0719 C   0  0  0  0  0  0  0  0  0  0  0  0
  -26.0262  -20.7017   18.4306 C   0  0  0  0  0  0  0  0  0  0  0  0
  -27.8112  -19.0547   18.0123 C   0  0  0  0  0  0  0  0  0  0  0  0
  -20.7318  -26.9030   22.0308 C   0  0  1  0  0  0  0  0  0  0  0  0
  -23.2833  -28.6327   19.8102 C   0  0  1  0  0  0  0  0  0  0  0  0
  -27.7648  -18.5772   19.4738 C   0  0  2  0  0  0  0  0  0  0  0  0
  -33.3911  -24.8914   20.4714 C   0  0  0  0  0  0  0  0  0  0  0  0
  -32.5664  -20.8673   17.6627 C   0  0  0  0  0  0  0  0  0  0  0  0
  -29.3499  -21.8183   21.3532 C   0  0  0  0  0  0  0  0  0  0  0  0
  -26.6579  -29.4501   12.8858 C   0  0  0  0  0  0  0  0  0  0  0  0
  -22.5705  -25.5987   16.3973 C   0  0  0  0  0  0  0  0  0  0  0  0
  -23.9604  -25.9398   14.3431 C   0  0  0  0  0  0  0  0  0  0  0  0
  -22.0608  -27.4811   14.8317 C   0  0  0  0  0  0  0  0  0  0  0  0
  -27.7076  -31.1257   16.1364 C   0  0  0  0  0  0  0  0  0  0  0  0
  -30.2881  -22.2122   16.4011 C   0  0  0  0  0  0  0  0  0  0  0  0
  -28.9603  -23.2187   21.7755 C   0  0  0  0  0  0  0  0  0  0  0  0
  -24.1633  -27.6236   16.2285 C   0  0  1  0  0  0  0  0  0  0  0  0
  -26.4793  -29.9360   14.3157 C   0  0  2  0  0  0  0  0  0  0  0  0
  -23.2006  -26.6622   15.4760 C   0  0  0  0  0  0  0  0  0  0  0  0
  -27.2745  -16.1621   19.5706 N   0  0  0  0  0  0  0  0  0  0  0  0
  -28.2040  -17.1316   19.6157 N   0  0  0  0  0  0  0  0  0  0  0  0
  -24.0152  -28.1278   18.6467 N   0  0  0  0  0  0  0  0  0  0  0  0
  -27.3791  -20.4584   17.9244 N   0  0  0  0  0  0  0  0  0  0  0  0
  -30.5300  -17.5085   19.8576 N   0  0  0  0  0  0  0  0  0  0  0  0
  -30.1719  -13.0131   20.1019 N   0  0  0  0  0  0  0  0  0  0  0  0
  -30.1623  -26.4023   20.2743 N   0  0  0  0  0  0  0  0  0  0  0  0
  -21.6277  -27.8401   21.3878 N   0  0  0  0  0  0  0  0  0  0  0  0
  -24.7538  -28.6581   15.3861 N   0  0  0  0  0  0  0  0  0  0  0  0
  -29.3992  -21.2150   16.9545 N   0  0  0  0  0  0  0  0  0  0  0  0
  -29.6630  -24.1897   20.9351 N   0  3  0  0  0  0  0  0  0  0  0  0
  -27.7490  -30.5811   14.7549 N   0  3  0  0  0  0  0  0  0  0  0  0
  -31.6432  -14.7705   20.1757 O   0  0  0  0  0  0  0  0  0  0  0  0
  -22.5106  -26.4017   19.7834 O   0  0  0  0  0  0  0  0  0  0  0  0
  -22.5197  -29.0768   17.1304 O   0  0  0  0  0  0  0  0  0  0  0  0
  -26.9640  -28.0865   15.7929 O   0  0  0  0  0  0  0  0  0  0  0  0
  -27.6875  -22.6861   17.3582 O   0  0  0  0  0  0  0  0  0  0  0  0
  -25.4611  -10.0605   19.7473 O   0  0  0  0  0  0  0  0  0  0  0  0
  -28.6990  -25.9534   22.0211 O   0  0  0  0  0  0  0  0  0  1  0  0
  -20.8546   -9.5441   22.7335 F   0  0  0  0  0  0  0  0  0  0  0  0
  -25.3078   -8.2298   21.8130 F   0  0  0  0  0  0  0  0  0  0  0  0
  -31.7723  -27.5506   18.4166 S   0  0  0  0  0  0  0  0  0  0  0  0
  1  2  1  0  0  0  0
  1  5  2  0  0  0  0
  2  6  2  0  0  0  0
  3  8  2  0  0  0  0
  3 17  1  0  0  0  0
  4  9  1  0  0  0  0
  4 17  2  0  0  0  0
  5 20  1  0  0  0  0
  6 22  1  0  0  0  0
  7 10  2  0  0  0  0
  7 21  1  0  0  0  0
  8 27  1  0  0  0  0
  9 27  2  0  0  0  0
 10 28  1  0  0  0  0
 11 12  2  0  0  0  0
 11 29  1  0  0  0  0
 12 30  1  0  0  0  0
 13 18  1  0  0  0  0
 13 24  2  0  0  0  0
 14 23  1  0  0  0  0
 14 28  2  0  0  0  0
 15 25  1  0  0  0  0
 15 26  2  0  0  0  0
 16 30  2  0  0  0  0
 16 31  1  0  0  0  0
 17 32  1  0  0  0  0
 18 25  2  0  0  0  0
 18 35  1  0  0  0  0
 19 32  1  0  0  0  0
 19 33  2  0  0  0  0
 19 34  1  0  0  0  0
 20 22  2  0  0  0  0
 20 41  1  0  0  0  0
 21 23  2  0  0  0  0
 21 42  1  0  0  0  0
 22 50  1  0  0  0  0
 23 43  1  0  0  0  0
 24 26  1  0  0  0  0
 24 61  1  0  0  0  0
 25 53  1  0  0  0  0
 26 54  1  0  0  0  0
 27 83  1  0  0  0  0
 28 84  1  0  0  0  0
 29 31  2  0  0  0  0
 29 83  1  0  0  0  0
 30 85  1  0  0  0  0
 31 86  1  0  0  0  0
 32 66  2  0  0  0  0
 33 67  1  0  0  0  0
 33 70  1  0  0  0  0
 34 71  1  0  0  0  0
 34 78  2  0  0  0  0
 35 72  1  0  0  0  0
 35 87  2  0  0  0  0
 36 51  1  0  0  0  0
 36 73  1  0  0  0  0
 36 79  2  0  0  0  0
 37 63  1  0  0  0  0
 37 68  1  0  0  0  0
 37 80  2  0  0  0  0
 38 64  1  0  0  0  0
 38 74  1  0  0  0  0
 38 81  2  0  0  0  0
 39 69  1  0  0  0  0
 39 75  1  0  0  0  0
 39 82  2  0  0  0  0
 40 72  1  0  0  0  0
 40 76  2  0  0  0  0
 40 84  1  0  0  0  0
 41 44  1  0  0  0  0
 42 51  1  0  0  0  0
 43 68  1  0  0  0  0
 44 46  1  0  0  0  0
 45 47  1  0  0  0  0
 45 48  1  0  0  0  0
 46 50  1  0  0  0  0
 47 52  1  0  0  0  0
 48 69  1  0  0  0  0
 49 52  1  0  0  0  0
 49 69  1  0  0  0  0
 50 73  1  0  0  0  0
 51 68  1  0  0  0  0
 52 67  1  0  0  0  0
 55 62  1  0  0  0  0
 56 64  1  0  0  0  0
 57 65  1  0  0  0  0
 58 65  1  0  0  0  0
 59 65  1  0  0  0  0
 60 77  1  0  0  0  0
 61 75  1  0  0  0  0
 62 76  1  0  0  0  0
 63 65  1  0  0  0  0
 63 74  1  0  0  0  0
 64 77  1  0  0  0  0
 66 67  1  0  0  0  0
M  CHG  2  76   1  77   1
M  ISO  4  39 100  40 101  75 100  84 101
M  END
> <Batch ID>
0037

> <Smiles>
CCN[101C:1](=NC(=S)c1cc(C[100NH:0][100C:0](=O)N2CCCC(n3nc(-c4ccc(Oc5ccc(F)cc5F)cc4)c(C(N)=O)c3N)C2)c(C)cc1C)[101O:1]c1ccc2c(c1)CN(C(=O)C(NC(=O)C(C)NC)C(C)(C)C)C(C(=O)NC1CCCc3ccccc31)C2

> <Shape>
0.246

> <Color>
0.074

> <Negative vol penalty>
0.000

$$$$

  -OEChem-04042321573D

 87 96  0     1  0  0  0  0  0999 V2000
  -27.8033  -37.5304   25.8481 C   0  0  0  0  0  0  0  0  0  0  0  0
  -27.3382  -36.3967   26.5049 C   0  0  0  0  0  0  0  0  0  0  0  0
  -25.8592  -13.5141   20.5250 C   0  0  0  0  0  0  0  0  0  0  0  0
  -24.2450  -14.9299   21.6326 C   0  0  0  0  0  0  0  0  0  0  0  0
  -27.4451  -37.7586   24.5211 C   0  0  0  0  0  0  0  0  0  0  0  0
  -26.5248  -35.4848   25.8314 C   0  0  0  0  0  0  0  0  0  0  0  0
  -22.0504  -28.9963   24.7820 C   0  0  0  0  0  0  0  0  0  0  0  0
  -25.3139  -12.3972   21.1581 C   0  0  0  0  0  0  0  0  0  0  0  0
  -23.6997  -13.8130   22.2657 C   0  0  0  0  0  0  0  0  0  0  0  0
  -21.0649  -28.4446   23.9644 C   0  0  0  0  0  0  0  0  0  0  0  0
  -22.6213  -10.3871   20.7808 C   0  0  0  0  0  0  0  0  0  0  0  0
  -22.3965   -9.2487   20.0068 C   0  0  0  0  0  0  0  0  0  0  0  0
  -22.4735  -28.7984   22.0382 C   0  0  0  0  0  0  0  0  0  0  0  0
  -22.6674  -24.5004   23.9809 C   0  0  0  0  0  0  0  0  0  0  0  0
  -24.9645  -23.8231   23.6623 C   0  0  0  0  0  0  0  0  0  0  0  0
  -23.8892   -7.9879   21.4279 C   0  0  0  0  0  0  0  0  0  0  0  0
  -25.3248  -14.7805   20.7623 C   0  0  0  0  0  0  0  0  0  0  0  0
  -25.9804  -16.1668   18.7237 C   0  0  0  0  0  0  0  0  0  0  0  0
  -26.6166  -36.8549   23.8356 C   0  0  0  0  0  0  0  0  0  0  0  0
  -23.2523  -29.4639   24.2315 C   0  0  0  0  0  0  0  0  0  0  0  0
  -26.1718  -35.6852   24.4846 C   0  0  0  0  0  0  0  0  0  0  0  0
  -23.4736  -29.3532   22.8513 C   0  0  0  0  0  0  0  0  0  0  0  0
  -22.2614  -23.5765   23.0180 C   0  0  0  0  0  0  0  0  0  0  0  0
  -23.2070  -22.7759   22.3773 C   0  0  0  0  0  0  0  0  0  0  0  0
  -24.5586  -22.8991   22.6994 C   0  0  0  0  0  0  0  0  0  0  0  0
  -24.2341  -12.5466   22.0284 C   0  0  0  0  0  0  0  0  0  0  0  0
  -21.2752  -28.3483   22.5920 C   0  0  0  0  0  0  0  0  0  0  0  0
  -23.4801  -10.3260   21.8782 C   0  0  0  0  0  0  0  0  0  0  0  0
  -23.0304   -8.0490   20.3304 C   0  0  0  0  0  0  0  0  0  0  0  0
  -24.1140   -9.1264   22.2018 C   0  0  0  0  0  0  0  0  0  0  0  0
  -24.0190  -24.6237   24.3030 C   0  0  0  0  0  0  0  0  0  0  0  0
  -25.8880  -15.9347   20.1091 C   0  0  0  0  0  0  0  0  0  0  0  0
  -26.5888  -17.3939   18.6210 C   0  0  0  0  0  0  0  0  0  0  0  0
  -19.0381  -23.9260   21.0924 C   0  0  0  0  0  0  0  0  0  0  0  0
  -18.6848  -22.9976   20.1907 C   0  0  0  0  0  0  0  0  0  0  0  0
  -25.5542  -15.3466   17.6277 C   0  0  0  0  0  0  0  0  0  0  0  0
  -24.6989  -32.2900   24.0768 C   0  0  0  0  0  0  0  0  0  0  0  0
  -27.1053  -30.5501   22.7712 C   0  0  0  0  0  0  0  0  0  0  0  0
  -27.4147  -27.8448   20.4042 C   0  0  0  0  0  0  0  0  0  0  0  0
  -26.9130  -22.1086   22.2777 C   0  0  0  0  0  0  0  0  0  0  0  0
  -26.2665  -37.1470   22.3978 C   0  0  0  0  0  0  0  0  0  0  0  0
  -24.3162  -30.0318   25.1303 C   0  0  0  0  0  0  0  0  0  0  0  0
  -24.7549  -29.8220   22.2135 C   0  0  0  0  0  0  0  0  0  0  0  0
  -18.0428  -24.8143   21.7881 C   0  0  0  0  0  0  0  0  0  0  0  0
  -25.0514  -36.3641   21.9110 C   0  0  0  0  0  0  0  0  0  0  0  0
  -18.4626  -26.2746   21.6708 C   0  0  0  0  0  0  0  0  0  0  0  0
  -29.6460  -20.2633   20.9350 C   0  0  0  0  0  0  0  0  0  0  0  0
  -25.2072  -34.8919   22.2613 C   0  0  0  0  0  0  0  0  0  0  0  0
  -28.9999  -18.9676   20.4392 C   0  0  0  0  0  0  0  0  0  0  0  0
  -29.0002  -20.7609   22.2269 C   0  0  0  0  0  0  0  0  0  0  0  0
  -26.8933  -19.6069   21.6805 C   0  0  0  0  0  0  0  0  0  0  0  0
  -20.8392  -25.5428   21.2458 C   0  0  0  0  0  0  0  0  0  0  0  0
  -25.2609  -34.6950   23.7817 C   0  0  1  0  0  0  0  0  0  0  0  0
  -25.2919  -30.9471   24.3971 C   0  0  1  0  0  0  0  0  0  0  0  0
  -27.4672  -19.1016   20.3467 C   0  0  2  0  0  0  0  0  0  0  0  0
  -19.9299  -26.4642   22.0548 C   0  0  1  0  0  0  0  0  0  1  0  0
  -22.7667  -21.7859   21.3449 C   0  0  0  0  0  0  0  0  0  0  0  0
  -29.1837  -26.0811   20.1643 C   0  0  0  0  0  0  0  0  0  0  0  0
  -28.3507  -32.4828   20.7652 C   0  0  0  0  0  0  0  0  0  0  0  0
  -28.9726  -30.5093   19.3556 C   0  0  0  0  0  0  0  0  0  0  0  0
  -29.9173  -30.7468   21.6521 C   0  0  0  0  0  0  0  0  0  0  0  0
  -25.4240  -25.6611   20.5692 C   0  0  0  0  0  0  0  0  0  0  0  0
  -20.8017  -23.4639   22.6901 C   0  0  0  0  0  0  0  0  0  0  0  0
  -27.4820  -30.1283   21.3715 C   0  0  1  0  0  0  0  0  0  0  0  0
  -27.8028  -26.4095   20.7102 C   0  0  2  0  0  0  0  0  0  0  0  0
  -28.6535  -30.9713   20.7935 C   0  0  0  0  0  0  0  0  0  0  0  0
  -26.3972  -16.9340   20.8345 N   0  0  0  0  0  0  0  0  0  0  0  0
  -26.8154  -17.8060   19.9012 N   0  0  0  0  0  0  0  0  0  0  0  0
  -25.7621  -30.3756   23.1335 N   0  0  0  0  0  0  0  0  0  0  0  0
  -27.5488  -20.8674   22.0630 N   0  0  0  0  0  0  0  0  0  0  0  0
  -26.9469  -18.1497   17.5613 N   0  0  0  0  0  0  0  0  0  0  0  0
  -24.2526  -15.5130   17.1353 N   0  0  0  0  0  0  0  0  0  0  0  0
  -25.5356  -22.0961   22.0605 N   0  0  0  0  0  0  0  0  0  0  0  0
  -25.6170  -33.3227   24.0677 N   0  0  0  0  0  0  0  0  0  0  0  0
  -27.7514  -28.6959   21.4355 N   0  0  0  0  0  0  0  0  0  0  0  0
  -20.4439  -24.0918   21.3714 N   0  3  1  0  0  0  0  0  0  0  0  0
  -26.8211  -25.4668   20.1031 N   0  3  0  0  0  0  0  0  0  0  0  0
  -26.2999  -14.4801   17.1113 O   0  0  0  0  0  0  0  0  0  0  0  0
  -23.4977  -32.3822   23.8529 O   0  0  0  0  0  0  0  0  0  0  0  0
  -27.9724  -31.0107   23.5179 O   0  0  0  0  0  0  0  0  0  0  0  0
  -26.8710  -28.1783   19.3536 O   0  0  0  0  0  0  0  0  0  0  0  0
  -27.5480  -23.1154   22.6020 O   0  0  0  0  0  0  0  0  0  0  0  0
  -23.7016  -11.4569   22.6461 O   0  0  0  0  0  0  0  0  0  0  0  0
  -20.3148  -27.8108   21.7916 O   0  0  0  0  0  0  0  0  0  1  0  0
  -22.8133   -6.9555   19.5880 F   0  0  0  0  0  0  0  0  0  0  0  0
  -24.9392   -9.0612   23.2557 F   0  0  0  0  0  0  0  0  0  0  0  0
  -24.5197  -25.7646   25.4902 Cl  0  0  0  0  0  0  0  0  0  0  0  0
  1  2  1  0  0  0  0
  1  5  2  0  0  0  0
  2  6  2  0  0  0  0
  3  8  2  0  0  0  0
  3 17  1  0  0  0  0
  4  9  1  0  0  0  0
  4 17  2  0  0  0  0
  5 19  1  0  0  0  0
  6 21  1  0  0  0  0
  7 10  2  0  0  0  0
  7 20  1  0  0  0  0
  8 26  1  0  0  0  0
  9 26  2  0  0  0  0
 10 27  1  0  0  0  0
 11 12  2  0  0  0  0
 11 28  1  0  0  0  0
 12 29  1  0  0  0  0
 13 22  1  0  0  0  0
 13 27  2  0  0  0  0
 14 23  1  0  0  0  0
 14 31  2  0  0  0  0
 15 25  2  0  0  0  0
 15 31  1  0  0  0  0
 16 29  2  0  0  0  0
 16 30  1  0  0  0  0
 17 32  1  0  0  0  0
 18 32  1  0  0  0  0
 18 33  2  0  0  0  0
 18 36  1  0  0  0  0
 19 21  2  0  0  0  0
 19 41  1  0  0  0  0
 20 22  2  0  0  0  0
 20 42  1  0  0  0  0
 21 53  1  0  0  0  0
 22 43  1  0  0  0  0
 23 24  2  0  0  0  0
 23 63  1  0  0  0  0
 24 25  1  0  0  0  0
 24 57  1  0  0  0  0
 25 73  1  0  0  0  0
 26 83  1  0  0  0  0
 27 84  1  0  0  0  0
 28 30  2  0  0  0  0
 28 83  1  0  0  0  0
 29 85  1  0  0  0  0
 30 86  1  0  0  0  0
 31 87  1  0  0  0  0
 32 67  2  0  0  0  0
 33 68  1  0  0  0  0
 33 71  1  0  0  0  0
 34 35  2  0  0  0  0
 34 44  1  0  0  0  0
 34 76  1  0  0  0  0
 36 72  1  0  0  0  0
 36 78  2  0  0  0  0
 37 54  1  0  0  0  0
 37 74  1  0  0  0  0
 37 79  2  0  0  0  0
 38 64  1  0  0  0  0
 38 69  1  0  0  0  0
 38 80  2  0  0  0  0
 39 65  1  0  0  0  0
 39 75  1  0  0  0  0
 39 81  2  0  0  0  0
 40 70  1  0  0  0  0
 40 73  1  0  0  0  0
 40 82  2  0  0  0  0
 41 45  1  0  0  0  0
 42 54  1  0  0  0  0
 43 69  1  0  0  0  0
 44 46  1  0  0  0  0
 45 48  1  0  0  0  0
 46 56  1  0  0  0  0
 47 49  1  0  0  0  0
 47 50  1  0  0  0  0
 48 53  1  0  0  0  0
 49 55  1  0  0  0  0
 50 70  1  0  0  0  0
 51 55  1  0  0  0  0
 51 70  1  0  0  0  0
 52 56  1  0  0  0  0
 52 76  1  0  0  0  0
 53 74  1  0  0  0  0
 54 69  1  0  0  0  0
 55 68  1  0  0  0  0
 56 84  1  0  0  0  0
 58 65  1  0  0  0  0
 59 66  1  0  0  0  0
 60 66  1  0  0  0  0
 61 66  1  0  0  0  0
 62 77  1  0  0  0  0
 63 76  1  0  0  0  0
 64 66  1  0  0  0  0
 64 75  1  0  0  0  0
 65 77  1  0  0  0  0
 67 68  1  0  0  0  0
M  CHG  2  76   1  77   1
M  ISO  4  40 100  56 101  73 100  84 101
M  END
> <Batch ID>
0037

> <Smiles>
C=C1CC[101CH:1]([101O:1]c2ccc3c(c2)CN(C(=O)C(NC(=O)C(C)NC)C(C)(C)C)C(C(=O)NC2CCCc4ccccc42)C3)CN1Cc1cc(Cl)cc([100NH:0][100C:0](=O)N2CCCC(n3nc(-c4ccc(Oc5ccc(F)cc5F)cc4)c(C(N)=O)c3N)C2)c1C

> <Shape>
0.279

> <Color>
0.052

> <Negative vol penalty>
0.000

$$$$

  -OEChem-04042321573D

 88 97  0     1  0  0  0  0  0999 V2000
  -16.4314  -27.2544   21.7316 C   0  0  0  0  0  0  0  0  0  0  0  0
  -17.6426  -26.9181   21.1354 C   0  0  0  0  0  0  0  0  0  0  0  0
  -22.9827   -9.8319   21.5192 C   0  0  0  0  0  0  0  0  0  0  0  0
  -24.3346  -10.5157   23.4012 C   0  0  0  0  0  0  0  0  0  0  0  0
  -16.3973  -28.2077   22.7485 C   0  0  0  0  0  0  0  0  0  0  0  0
  -18.8202  -27.5358   21.5550 C   0  0  0  0  0  0  0  0  0  0  0  0
  -22.6277  -24.2521   22.1590 C   0  0  0  0  0  0  0  0  0  0  0  0
  -22.3113   -8.9195   22.3329 C   0  0  0  0  0  0  0  0  0  0  0  0
  -23.6632   -9.6032   24.2150 C   0  0  0  0  0  0  0  0  0  0  0  0
  -23.2777  -23.8119   21.0068 C   0  0  0  0  0  0  0  0  0  0  0  0
  -22.8746   -5.8447   23.6187 C   0  0  0  0  0  0  0  0  0  0  0  0
  -22.6644   -4.5609   23.1154 C   0  0  0  0  0  0  0  0  0  0  0  0
  -25.0594  -25.3853   21.4180 C   0  0  0  0  0  0  0  0  0  0  0  0
  -31.2747  -17.8700   20.4221 C   0  0  0  0  0  0  0  0  0  0  0  0
  -20.2775   -4.8685   23.3276 C   0  0  0  0  0  0  0  0  0  0  0  0
  -23.9945  -10.6300   22.0533 C   0  0  0  0  0  0  0  0  0  0  0  0
  -24.1291  -12.6514   20.5030 C   0  0  0  0  0  0  0  0  0  0  0  0
  -17.5764  -28.8303   23.1874 C   0  0  0  0  0  0  0  0  0  0  0  0
  -23.1843  -25.2715   22.9448 C   0  0  0  0  0  0  0  0  0  0  0  0
  -18.8016  -28.4993   22.5778 C   0  0  0  0  0  0  0  0  0  0  0  0
  -24.4158  -25.8349   22.5811 C   0  0  0  0  0  0  0  0  0  0  0  0
  -29.3337  -19.8730   20.4772 C   0  0  0  0  0  0  0  0  0  0  0  0
  -28.9665  -18.5530   20.2156 C   0  0  0  0  0  0  0  0  0  0  0  0
  -30.6714  -20.1915   20.7112 C   0  0  0  0  0  0  0  0  0  0  0  0
  -29.9370  -17.5515   20.1881 C   0  0  0  0  0  0  0  0  0  0  0  0
  -22.6515   -8.8051   23.6808 C   0  0  0  0  0  0  0  0  0  0  0  0
  -24.4923  -24.3805   20.6346 C   0  0  0  0  0  0  0  0  0  0  0  0
  -21.7861   -6.6404   23.9765 C   0  0  0  0  0  0  0  0  0  0  0  0
  -21.3659   -4.0728   22.9698 C   0  0  0  0  0  0  0  0  0  0  0  0
  -20.4876   -6.1523   23.8309 C   0  0  0  0  0  0  0  0  0  0  0  0
  -31.6419  -19.1900   20.6837 C   0  0  0  0  0  0  0  0  0  0  0  0
  -24.6888  -11.5723   21.2130 C   0  0  0  0  0  0  0  0  0  0  0  0
  -25.1972  -13.2336   19.8652 C   0  0  0  0  0  0  0  0  0  0  0  0
  -26.5050  -21.9688   19.2119 C   0  0  0  0  0  0  0  0  0  0  0  0
  -25.4491  -21.2259   18.8410 C   0  0  0  0  0  0  0  0  0  0  0  0
  -22.7658  -13.0886   20.4270 C   0  0  0  0  0  0  0  0  0  0  0  0
  -22.2769  -28.1966   23.7958 C   0  0  0  0  0  0  0  0  0  0  0  0
  -24.9373  -28.0614   25.6468 C   0  0  0  0  0  0  0  0  0  0  0  0
  -28.3282  -26.8782   25.3016 C   0  0  0  0  0  0  0  0  0  0  0  0
  -30.4415  -15.1045   19.8654 C   0  0  0  0  0  0  0  0  0  0  0  0
  -17.4832  -29.8892   24.2573 C   0  0  0  0  0  0  0  0  0  0  0  0
  -22.4839  -25.7166   24.1992 C   0  0  0  0  0  0  0  0  0  0  0  0
  -25.0655  -26.9181   23.4015 C   0  0  0  0  0  0  0  0  0  0  0  0
  -18.8261  -30.2243   24.9013 C   0  0  0  0  0  0  0  0  0  0  0  0
  -29.9610  -11.6253   19.2811 C   0  0  0  0  0  0  0  0  0  0  0  0
  -28.8153  -23.6318   18.8705 C   0  0  0  0  0  0  0  0  0  0  0  0
  -19.8978  -30.4149   23.8327 C   0  0  0  0  0  0  0  0  0  0  0  0
  -27.4274  -24.2626   18.8862 C   0  0  0  0  0  0  0  0  0  0  0  0
  -28.5005  -11.3901   19.6733 C   0  0  0  0  0  0  0  0  0  0  0  0
  -30.6353  -12.6488   20.1930 C   0  0  0  0  0  0  0  0  0  0  0  0
  -28.4655  -13.6931   20.7135 C   0  0  0  0  0  0  0  0  0  0  0  0
  -28.7695  -22.1978   18.3529 C   0  0  0  0  0  0  0  0  0  0  0  0
  -20.1037  -29.1293   23.0224 C   0  0  1  0  0  0  0  0  0  0  0  0
  -26.4340  -23.4077   19.6716 C   0  0  1  0  0  0  0  0  0  1  0  0
  -22.8890  -27.1183   24.6446 C   0  0  1  0  0  0  0  0  0  0  0  0
  -27.7257  -12.7180   19.7832 C   0  0  2  0  0  0  0  0  0  0  0  0
  -27.5305  -18.2131   19.9647 C   0  0  0  0  0  0  0  0  0  0  0  0
  -31.0514  -21.6126   20.9907 C   0  0  0  0  0  0  0  0  0  0  0  0
  -29.9560  -26.0641   27.0293 C   0  0  0  0  0  0  0  0  0  0  0  0
  -25.9191  -30.9504   25.6639 C   0  0  0  0  0  0  0  0  0  0  0  0
  -28.2553  -30.0817   25.9006 C   0  0  0  0  0  0  0  0  0  0  0  0
  -26.5675  -29.6163   27.6775 C   0  0  0  0  0  0  0  0  0  0  0  0
  -28.7343  -24.3150   23.8790 C   0  0  0  0  0  0  0  0  0  0  0  0
  -28.2888  -20.9493   20.5064 C   0  0  0  0  0  0  0  0  0  0  0  0
  -26.3913  -28.4205   25.4569 C   0  0  1  0  0  0  0  0  0  0  0  0
  -28.9389  -25.6613   25.9728 C   0  0  2  0  0  0  0  0  0  0  0  0
  -26.7670  -29.7591   26.1528 C   0  0  0  0  0  0  0  0  0  0  0  0
  -26.0098  -11.4725   21.0424 N   0  0  0  0  0  0  0  0  0  0  0  0
  -26.2891  -12.4963   20.2179 N   0  0  0  0  0  0  0  0  0  0  0  0
  -24.3386  -27.3236   24.6158 N   0  0  0  0  0  0  0  0  0  0  0  0
  -29.8474  -13.8823   20.2449 N   0  0  0  0  0  0  0  0  0  0  0  0
  -25.2995  -14.2991   19.0425 N   0  0  0  0  0  0  0  0  0  0  0  0
  -22.3115  -14.0263   21.3643 N   0  0  0  0  0  0  0  0  0  0  0  0
  -29.5861  -16.2042   19.9244 N   0  0  0  0  0  0  0  0  0  0  0  0
  -20.8953  -28.1793   23.7743 N   0  0  0  0  0  0  0  0  0  0  0  0
  -27.1597  -27.2700   25.9199 N   0  0  0  0  0  0  0  0  0  0  0  0
  -27.8048  -21.3381   19.1366 N   0  3  1  0  0  0  0  0  0  0  0  0
  -29.6229  -24.8025   24.9651 N   0  3  0  0  0  0  0  0  0  0  0  0
  -21.9693  -12.6480   19.5638 O   0  0  0  0  0  0  0  0  0  0  0  0
  -23.0042  -28.9867   23.2054 O   0  0  0  0  0  0  0  0  0  0  0  0
  -24.3562  -28.4162   26.6755 O   0  0  0  0  0  0  0  0  0  0  0  0
  -28.8388  -27.4286   24.3285 O   0  0  0  0  0  0  0  0  0  0  0  0
  -31.6144  -15.1663   19.4880 O   0  0  0  0  0  0  0  0  0  0  0  0
  -21.9964   -7.9150   24.4753 O   0  0  0  0  0  0  0  0  0  0  0  0
  -25.1285  -23.9531   19.5101 O   0  0  0  0  0  0  0  0  0  1  0  0
  -21.1642   -2.8405   22.4851 F   0  0  0  0  0  0  0  0  0  0  0  0
  -19.4380   -6.9125   24.1718 F   0  0  0  0  0  0  0  0  0  0  0  0
  -33.3081  -19.5426   20.9682 Cl  0  0  0  0  0  0  0  0  0  0  0  0
  1  2  1  0  0  0  0
  1  5  2  0  0  0  0
  2  6  2  0  0  0  0
  3  8  2  0  0  0  0
  3 16  1  0  0  0  0
  4  9  1  0  0  0  0
  4 16  2  0  0  0  0
  5 18  1  0  0  0  0
  6 20  1  0  0  0  0
  7 10  2  0  0  0  0
  7 19  1  0  0  0  0
  8 26  1  0  0  0  0
  9 26  2  0  0  0  0
 10 27  1  0  0  0  0
 11 12  2  0  0  0  0
 11 28  1  0  0  0  0
 12 29  1  0  0  0  0
 13 21  1  0  0  0  0
 13 27  2  0  0  0  0
 14 25  2  0  0  0  0
 14 31  1  0  0  0  0
 15 29  2  0  0  0  0
 15 30  1  0  0  0  0
 16 32  1  0  0  0  0
 17 32  1  0  0  0  0
 17 33  2  0  0  0  0
 17 36  1  0  0  0  0
 18 20  2  0  0  0  0
 18 41  1  0  0  0  0
 19 21  2  0  0  0  0
 19 42  1  0  0  0  0
 20 53  1  0  0  0  0
 21 43  1  0  0  0  0
 22 23  2  0  0  0  0
 22 24  1  0  0  0  0
 22 64  1  0  0  0  0
 23 25  1  0  0  0  0
 23 57  1  0  0  0  0
 24 31  2  0  0  0  0
 24 58  1  0  0  0  0
 25 74  1  0  0  0  0
 26 84  1  0  0  0  0
 27 85  1  0  0  0  0
 28 30  2  0  0  0  0
 28 84  1  0  0  0  0
 29 86  1  0  0  0  0
 30 87  1  0  0  0  0
 31 88  1  0  0  0  0
 32 68  2  0  0  0  0
 33 69  1  0  0  0  0
 33 72  1  0  0  0  0
 34 35  2  0  0  0  0
 34 54  1  0  0  0  0
 34 77  1  0  0  0  0
 36 73  1  0  0  0  0
 36 79  2  0  0  0  0
 37 55  1  0  0  0  0
 37 75  1  0  0  0  0
 37 80  2  0  0  0  0
 38 65  1  0  0  0  0
 38 70  1  0  0  0  0
 38 81  2  0  0  0  0
 39 66  1  0  0  0  0
 39 76  1  0  0  0  0
 39 82  2  0  0  0  0
 40 71  1  0  0  0  0
 40 74  1  0  0  0  0
 40 83  2  0  0  0  0
 41 44  1  0  0  0  0
 42 55  1  0  0  0  0
 43 70  1  0  0  0  0
 44 47  1  0  0  0  0
 45 49  1  0  0  0  0
 45 50  1  0  0  0  0
 46 48  1  0  0  0  0
 46 52  1  0  0  0  0
 47 53  1  0  0  0  0
 48 54  1  0  0  0  0
 49 56  1  0  0  0  0
 50 71  1  0  0  0  0
 51 56  1  0  0  0  0
 51 71  1  0  0  0  0
 52 77  1  0  0  0  0
 53 75  1  0  0  0  0
 54 85  1  0  0  0  0
 55 70  1  0  0  0  0
 56 69  1  0  0  0  0
 59 66  1  0  0  0  0
 60 67  1  0  0  0  0
 61 67  1  0  0  0  0
 62 67  1  0  0  0  0
 63 78  1  0  0  0  0
 64 77  1  0  0  0  0
 65 67  1  0  0  0  0
 65 76  1  0  0  0  0
 66 78  1  0  0  0  0
 68 69  1  0  0  0  0
M  CHG  2  77   1  78   1
M  ISO  4  40 100  54 101  74 100  85 101
M  END
> <Batch ID>
0037

> <Smiles>
C=C1N(Cc2c(C)c(Cl)cc([100NH:0][100C:0](=O)N3CCCC(n4nc(-c5ccc(Oc6ccc(F)cc6F)cc5)c(C(N)=O)c4N)C3)c2C)CCC[101CH:1]1[101O:1]c1ccc2c(c1)CN(C(=O)C(NC(=O)C(C)NC)C(C)(C)C)C(C(=O)NC1CCCc3ccccc31)C2

> <Shape>
0.276

> <Color>
0.110

> <Negative vol penalty>
0.000

$$$$

  -OEChem-04042321573D

 95104  0     1  0  0  0  0  0999 V2000
  -24.5424  -24.3646   13.9396 C   0  0  0  0  0  0  0  0  0  0  0  0
  -24.2888  -24.9183   15.1904 C   0  0  0  0  0  0  0  0  0  0  0  0
  -27.4905  -12.6829   19.1923 C   0  0  0  0  0  0  0  0  0  0  0  0
  -26.6612  -12.9041   21.4507 C   0  0  0  0  0  0  0  0  0  0  0  0
  -25.7708  -23.7568   13.6837 C   0  0  0  0  0  0  0  0  0  0  0  0
  -25.2632  -24.8636   16.1864 C   0  0  0  0  0  0  0  0  0  0  0  0
  -25.7970  -29.2692   18.6259 C   0  0  0  0  0  0  0  0  0  0  0  0
  -26.9916  -11.3816   19.1365 C   0  0  0  0  0  0  0  0  0  0  0  0
  -26.1623  -11.6027   21.3949 C   0  0  0  0  0  0  0  0  0  0  0  0
  -24.8398  -29.5834   19.5896 C   0  0  0  0  0  0  0  0  0  0  0  0
  -23.4780  -10.0198   20.0875 C   0  0  0  0  0  0  0  0  0  0  0  0
  -22.1874   -9.8009   20.5693 C   0  0  0  0  0  0  0  0  0  0  0  0
  -20.6853  -23.4792   18.0633 C   0  0  0  0  0  0  0  0  0  0  0  0
  -26.3566  -28.8638   21.3220 C   0  0  0  0  0  0  0  0  0  0  0  0
  -22.1550  -21.5672   18.2080 C   0  0  0  0  0  0  0  0  0  0  0  0
  -23.0601   -8.2479   22.2013 C   0  0  0  0  0  0  0  0  0  0  0  0
  -27.3253  -13.4442   20.3494 C   0  0  0  0  0  0  0  0  0  0  0  0
  -21.5109  -24.1805   18.9420 C   0  0  0  0  0  0  0  0  0  0  0  0
  -29.1817  -15.1917   20.2610 C   0  0  0  0  0  0  0  0  0  0  0  0
  -26.7643  -23.7031   14.6740 C   0  0  0  0  0  0  0  0  0  0  0  0
  -27.0392  -28.7388   19.0029 C   0  0  0  0  0  0  0  0  0  0  0  0
  -26.5055  -24.2534   15.9439 C   0  0  0  0  0  0  0  0  0  0  0  0
  -27.3288  -28.5461   20.3613 C   0  0  0  0  0  0  0  0  0  0  0  0
  -22.6587  -23.5751   19.4536 C   0  0  0  0  0  0  0  0  0  0  0  0
  -22.9808  -22.2685   19.0867 C   0  0  0  0  0  0  0  0  0  0  0  0
  -26.3275  -10.8414   20.2378 C   0  0  0  0  0  0  0  0  0  0  0  0
  -25.1184  -29.3780   20.9377 C   0  0  0  0  0  0  0  0  0  0  0  0
  -24.5596   -9.3527   20.6626 C   0  0  0  0  0  0  0  0  0  0  0  0
  -21.9785   -8.9150   21.6262 C   0  0  0  0  0  0  0  0  0  0  0  0
  -24.3507   -8.4667   21.7195 C   0  0  0  0  0  0  0  0  0  0  0  0
  -21.0072  -22.1726   17.6964 C   0  0  0  0  0  0  0  0  0  0  0  0
  -27.8409  -14.7884   20.4078 C   0  0  0  0  0  0  0  0  0  0  0  0
  -29.1461  -16.5580   20.3978 C   0  0  0  0  0  0  0  0  0  0  0  0
  -19.7324  -27.1162   22.3745 C   0  0  0  0  0  0  0  0  0  0  0  0
  -18.9243  -26.2331   22.9894 C   0  0  0  0  0  0  0  0  0  0  0  0
  -21.1496  -25.5625   19.3160 C   0  0  0  0  0  0  0  0  0  0  0  0
  -30.3543  -14.4021   20.0223 C   0  0  0  0  0  0  0  0  0  0  0  0
  -28.5740  -26.0105   18.4512 C   0  0  0  0  0  0  0  0  0  0  0  0
  -30.9932  -27.5089   20.0084 C   0  0  0  0  0  0  0  0  0  0  0  0
  -31.9596  -29.9171   22.2250 C   0  0  0  0  0  0  0  0  0  0  0  0
  -24.5972  -20.3410   19.3247 C   0  0  0  0  0  0  0  0  0  0  0  0
  -28.0591  -22.9939   14.3656 C   0  0  0  0  0  0  0  0  0  0  0  0
  -28.0710  -28.4301   17.9529 C   0  0  0  0  0  0  0  0  0  0  0  0
  -28.6548  -27.9983   20.8195 C   0  0  0  0  0  0  0  0  0  0  0  0
  -29.1772  -23.3092   15.3559 C   0  0  0  0  0  0  0  0  0  0  0  0
  -18.2291  -29.7209   21.3014 C   0  0  0  0  0  0  0  0  0  0  0  0
  -18.4180  -28.9907   19.9724 C   0  0  0  0  0  0  0  0  0  0  0  0
  -19.5399  -30.1926   21.9456 C   0  0  0  0  0  0  0  0  0  0  0  0
  -26.0740  -19.4598   22.7549 C   0  0  0  0  0  0  0  0  0  0  0  0
  -28.6630  -23.2156   16.7890 C   0  0  0  0  0  0  0  0  0  0  0  0
  -18.6846  -27.4846   20.0646 C   0  0  0  0  0  0  0  0  0  0  0  0
  -19.8574  -29.5165   23.2819 C   0  0  0  0  0  0  0  0  0  0  0  0
  -27.3094  -18.6823   22.3069 C   0  0  0  0  0  0  0  0  0  0  0  0
  -25.5713  -20.4148   21.6797 C   0  0  0  0  0  0  0  0  0  0  0  0
  -25.8388  -18.3888   20.2377 C   0  0  0  0  0  0  0  0  0  0  0  0
  -27.5464  -24.2358   17.0422 C   0  0  1  0  0  0  0  0  0  0  0  0
  -19.9355  -27.0982   20.8680 C   0  0  2  0  0  0  0  0  0  0  0  0
  -20.4924  -28.1242   23.2037 C   0  0  2  0  0  0  0  0  0  0  0  0
  -29.1099  -27.4138   18.4166 C   0  0  1  0  0  0  0  0  0  0  0  0
  -27.2532  -18.2618   20.8249 C   0  0  2  0  0  0  0  0  0  0  0  0
  -23.5423  -24.3310   20.3963 C   0  0  0  0  0  0  0  0  0  0  0  0
  -18.6916  -26.2080   24.4587 C   0  0  0  0  0  0  0  0  0  0  0  0
  -34.0007  -30.8780   23.3240 C   0  0  0  0  0  0  0  0  0  0  0  0
  -31.1296  -25.0905   21.8639 C   0  0  0  0  0  0  0  0  0  0  0  0
  -32.4704  -26.4778   23.4594 C   0  0  0  0  0  0  0  0  0  0  0  0
  -33.3536  -26.0036   21.1751 C   0  0  0  0  0  0  0  0  0  0  0  0
  -31.4814  -32.5876   21.0423 C   0  0  0  0  0  0  0  0  0  0  0  0
  -22.8027  -28.8706   23.6769 C   0  0  0  0  0  0  0  0  0  0  0  0
  -24.1952  -28.9112   23.0792 C   0  0  0  0  0  0  0  0  0  1  0  0
  -31.4298  -27.6211   21.4492 C   0  0  1  0  0  0  0  0  0  0  0  0
  -33.0404  -30.9805   22.1493 C   0  0  2  0  0  0  0  0  0  0  0  0
  -32.0700  -26.3068   21.9785 C   0  0  0  0  0  0  0  0  0  0  0  0
  -27.0140  -15.8153   20.6216 N   0  0  0  0  0  0  0  0  0  0  0  0
  -27.8373  -16.8774   20.6102 N   0  0  0  0  0  0  0  0  0  0  0  0
  -29.6284  -27.7059   19.7545 N   0  0  0  0  0  0  0  0  0  0  0  0
  -25.3208  -19.7532   20.3910 N   0  0  0  0  0  0  0  0  0  0  0  0
  -30.1071  -17.5052   20.3559 N   0  0  0  0  0  0  0  0  0  0  0  0
  -21.6174  -26.5593   18.5647 N   0  0  0  0  0  0  0  0  0  0  0  0
  -30.2121  -13.0125   19.9078 N   0  0  0  0  0  0  0  0  0  0  0  0
  -24.1421  -21.6343   19.5948 N   0  0  0  0  0  0  0  0  0  0  0  0
  -28.1035  -25.5577   17.2334 N   0  0  0  0  0  0  0  0  0  0  0  0
  -32.3076  -28.7842   21.5203 N   0  0  0  0  0  0  0  0  0  0  0  0
  -20.3754  -25.7415   20.3880 N   0  3  0  0  0  0  0  0  0  0  0  0
  -21.8737  -28.2408   22.7098 N   0  3  0  0  0  0  0  0  0  0  0  0
  -32.4306  -32.3403   22.1580 N   0  3  0  0  0  0  0  0  0  0  0  0
  -31.4967  -14.9120   19.9301 O   0  0  0  0  0  0  0  0  0  0  0  0
  -28.5878  -25.3843   19.5045 O   0  0  0  0  0  0  0  0  0  0  0  0
  -31.8333  -27.2627   19.1394 O   0  0  0  0  0  0  0  0  0  0  0  0
  -30.9131  -30.0743   22.8500 O   0  0  0  0  0  0  0  0  0  0  0  0
  -24.4129  -19.7456   18.2610 O   0  0  0  0  0  0  0  0  0  0  0  0
  -25.8404   -9.5717   20.1837 O   0  0  0  0  0  0  0  0  0  0  0  0
  -24.1790  -29.6855   21.8872 O   0  0  0  0  0  0  0  0  0  1  0  0
  -20.7393   -8.7061   22.0898 F   0  0  0  0  0  0  0  0  0  0  0  0
  -25.3860   -7.8238   22.2768 F   0  0  0  0  0  0  0  0  0  0  0  0
  -19.9883  -21.3074   16.6122 Cl  0  0  0  0  0  0  0  0  0  0  0  0
  1  2  1  0  0  0  0
  1  5  2  0  0  0  0
  2  6  2  0  0  0  0
  3  8  2  0  0  0  0
  3 17  1  0  0  0  0
  4  9  1  0  0  0  0
  4 17  2  0  0  0  0
  5 20  1  0  0  0  0
  6 22  1  0  0  0  0
  7 10  2  0  0  0  0
  7 21  1  0  0  0  0
  8 26  1  0  0  0  0
  9 26  2  0  0  0  0
 10 27  1  0  0  0  0
 11 12  2  0  0  0  0
 11 28  1  0  0  0  0
 12 29  1  0  0  0  0
 13 18  1  0  0  0  0
 13 31  2  0  0  0  0
 14 23  1  0  0  0  0
 14 27  2  0  0  0  0
 15 25  2  0  0  0  0
 15 31  1  0  0  0  0
 16 29  2  0  0  0  0
 16 30  1  0  0  0  0
 17 32  1  0  0  0  0
 18 24  2  0  0  0  0
 18 36  1  0  0  0  0
 19 32  1  0  0  0  0
 19 33  2  0  0  0  0
 19 37  1  0  0  0  0
 20 22  2  0  0  0  0
 20 42  1  0  0  0  0
 21 23  2  0  0  0  0
 21 43  1  0  0  0  0
 22 56  1  0  0  0  0
 23 44  1  0  0  0  0
 24 25  1  0  0  0  0
 24 61  1  0  0  0  0
 25 80  1  0  0  0  0
 26 91  1  0  0  0  0
 27 92  1  0  0  0  0
 28 30  2  0  0  0  0
 28 91  1  0  0  0  0
 29 93  1  0  0  0  0
 30 94  1  0  0  0  0
 31 95  1  0  0  0  0
 32 73  2  0  0  0  0
 33 74  1  0  0  0  0
 33 77  1  0  0  0  0
 34 35  2  0  0  0  0
 34 57  1  0  0  0  0
 34 58  1  0  0  0  0
 35 62  1  0  0  0  0
 36 78  1  0  0  0  0
 36 83  2  0  0  0  0
 37 79  1  0  0  0  0
 37 86  2  0  0  0  0
 38 59  1  0  0  0  0
 38 81  1  0  0  0  0
 38 87  2  0  0  0  0
 39 70  1  0  0  0  0
 39 75  1  0  0  0  0
 39 88  2  0  0  0  0
 40 71  1  0  0  0  0
 40 82  1  0  0  0  0
 40 89  2  0  0  0  0
 41 76  1  0  0  0  0
 41 80  1  0  0  0  0
 41 90  2  0  0  0  0
 42 45  1  0  0  0  0
 43 59  1  0  0  0  0
 44 75  1  0  0  0  0
 45 50  1  0  0  0  0
 46 47  1  0  0  0  0
 46 48  1  0  0  0  0
 47 51  1  0  0  0  0
 48 52  1  0  0  0  0
 49 53  1  0  0  0  0
 49 54  1  0  0  0  0
 50 56  1  0  0  0  0
 51 57  1  0  0  0  0
 52 58  1  0  0  0  0
 53 60  1  0  0  0  0
 54 76  1  0  0  0  0
 55 60  1  0  0  0  0
 55 76  1  0  0  0  0
 56 81  1  0  0  0  0
 57 83  1  0  0  0  0
 58 84  1  0  0  0  0
 59 75  1  0  0  0  0
 60 74  1  0  0  0  0
 63 71  1  0  0  0  0
 64 72  1  0  0  0  0
 65 72  1  0  0  0  0
 66 72  1  0  0  0  0
 67 85  1  0  0  0  0
 68 69  1  0  0  0  0
 68 84  1  0  0  0  0
 69 92  1  0  0  0  0
 70 72  1  0  0  0  0
 70 82  1  0  0  0  0
 71 85  1  0  0  0  0
 73 74  1  0  0  0  0
M  CHG  3  83   1  84   1  85   1
M  ISO  4  41 100  69 101  80 100  92 101
M  END
> <Batch ID>
0037

> <Smiles>
CC=C1C(NC[101CH2:1][101O:1]c2ccc3c(c2)CN(C(=O)C(NC(=O)C(C)NC)C(C)(C)C)C(C(=O)NC2CCCc4ccccc42)C3)CCCCCC1NC(=N)c1cc(Cl)cc([100NH:0][100C:0](=O)N2CCCC(n3nc(-c4ccc(Oc5ccc(F)cc5F)cc4)c(C(N)=O)c3N)C2)c1C

> <Shape>
0.221

> <Color>
0.065

> <Negative vol penalty>
0.000

$$$$

  -OEChem-04042321573D

 87 96  0     1  0  0  0  0  0999 V2000
  -20.1951  -22.1488   16.5481 C   0  0  0  0  0  0  0  0  0  0  0  0
  -20.6415  -23.1075   17.4520 C   0  0  0  0  0  0  0  0  0  0  0  0
  -24.4003  -14.0518   22.3913 C   0  0  0  0  0  0  0  0  0  0  0  0
  -22.5834  -15.1103   21.2016 C   0  0  0  0  0  0  0  0  0  0  0  0
  -20.9072  -20.9613   16.3847 C   0  0  0  0  0  0  0  0  0  0  0  0
  -21.7999  -22.8788   18.1939 C   0  0  0  0  0  0  0  0  0  0  0  0
  -24.8507  -26.9185   18.3274 C   0  0  0  0  0  0  0  0  0  0  0  0
  -23.6861  -12.8540   22.4164 C   0  0  0  0  0  0  0  0  0  0  0  0
  -21.8691  -13.9124   21.2266 C   0  0  0  0  0  0  0  0  0  0  0  0
  -24.5043  -27.9495   19.1996 C   0  0  0  0  0  0  0  0  0  0  0  0
  -22.4927   -9.4207   22.4765 C   0  0  0  0  0  0  0  0  0  0  0  0
  -23.1801   -8.2491   22.1598 C   0  0  0  0  0  0  0  0  0  0  0  0
  -26.1225  -27.1366   20.7934 C   0  0  0  0  0  0  0  0  0  0  0  0
  -21.3291  -26.0577   23.0319 C   0  0  0  0  0  0  0  0  0  0  0  0
  -20.4508  -24.6183   21.3017 C   0  0  0  0  0  0  0  0  0  0  0  0
  -23.6936   -9.1411   19.9740 C   0  0  0  0  0  0  0  0  0  0  0  0
  -23.8489  -15.1800   21.7840 C   0  0  0  0  0  0  0  0  0  0  0  0
  -25.8464  -16.6447   21.1739 C   0  0  0  0  0  0  0  0  0  0  0  0
  -22.0802  -20.7221   17.1179 C   0  0  0  0  0  0  0  0  0  0  0  0
  -25.8295  -25.9809   18.6867 C   0  0  0  0  0  0  0  0  0  0  0  0
  -22.5277  -21.6864   18.0411 C   0  0  0  0  0  0  0  0  0  0  0  0
  -26.4813  -26.0962   19.9228 C   0  0  0  0  0  0  0  0  0  0  0  0
  -20.5166  -27.0973   22.5796 C   0  0  0  0  0  0  0  0  0  0  0  0
  -19.6711  -26.8974   21.4883 C   0  0  0  0  0  0  0  0  0  0  0  0
  -21.2963  -24.8182   22.3929 C   0  0  0  0  0  0  0  0  0  0  0  0
  -22.4205  -12.7842   21.8340 C   0  0  0  0  0  0  0  0  0  0  0  0
  -25.1381  -28.0570   20.4341 C   0  0  0  0  0  0  0  0  0  0  0  0
  -22.4056  -10.4526   21.5419 C   0  0  0  0  0  0  0  0  0  0  0  0
  -23.7806   -8.1093   20.9086 C   0  0  0  0  0  0  0  0  0  0  0  0
  -23.0061  -10.3128   20.2907 C   0  0  0  0  0  0  0  0  0  0  0  0
  -19.6382  -25.6579   20.8494 C   0  0  0  0  0  0  0  0  0  0  0  0
  -24.5859  -16.4179   21.7583 C   0  0  0  0  0  0  0  0  0  0  0  0
  -26.1051  -17.9710   21.4197 C   0  0  0  0  0  0  0  0  0  0  0  0
  -26.7066  -15.7377   20.4717 C   0  0  0  0  0  0  0  0  0  0  0  0
  -25.8628  -22.8351   19.1413 C   0  0  0  0  0  0  0  0  0  0  0  0
  -29.0565  -23.3069   19.4576 C   0  0  0  0  0  0  0  0  0  0  0  0
  -31.3398  -25.4650   19.6560 C   0  0  0  0  0  0  0  0  0  0  0  0
  -22.2191  -22.4666   22.3387 C   0  0  0  0  0  0  0  0  0  0  0  0
  -22.7902  -19.4032   16.9416 C   0  0  0  0  0  0  0  0  0  0  0  0
  -26.2108  -24.8904   17.7234 C   0  0  0  0  0  0  0  0  0  0  0  0
  -27.5532  -25.1272   20.3476 C   0  0  0  0  0  0  0  0  0  0  0  0
  -24.2139  -19.3994   17.4923 C   0  0  0  0  0  0  0  0  0  0  0  0
  -22.1532  -31.7427   20.8450 C   0  0  0  0  0  0  0  0  0  0  0  0
  -24.5890  -20.9295   24.9359 C   0  0  0  0  0  0  0  0  0  0  0  0
  -21.6542  -31.9851   22.2664 C   0  0  0  0  0  0  0  0  0  0  0  0
  -24.2494  -20.0221   18.8844 C   0  0  0  0  0  0  0  0  0  0  0  0
  -25.4382  -20.0540   24.0173 C   0  0  0  0  0  0  0  0  0  0  0  0
  -23.4942  -31.0142   20.8150 C   0  0  0  0  0  0  0  0  0  0  0  0
  -23.9312  -22.0827   24.1885 C   0  0  0  0  0  0  0  0  0  0  0  0
  -23.3253  -20.2536   22.5938 C   0  0  0  0  0  0  0  0  0  0  0  0
  -20.8543  -30.8509   22.8959 C   0  0  0  0  0  0  0  0  0  0  0  0
  -22.8154  -29.2638   22.5830 C   0  0  0  0  0  0  0  0  0  0  0  0
  -23.7933  -21.4856   18.8460 C   0  0  1  0  0  0  0  0  0  0  0  0
  -26.8569  -23.6889   18.4062 C   0  0  1  0  0  0  0  0  0  0  0  0
  -24.8078  -19.8504   22.6254 C   0  0  2  0  0  0  0  0  0  0  0  0
  -23.4557  -29.5439   21.2275 C   0  0  2  0  0  0  0  0  0  1  0  0
  -18.8062  -28.0240   21.0146 C   0  0  0  0  0  0  0  0  0  0  0  0
  -33.4213  -26.8544   19.8408 C   0  0  0  0  0  0  0  0  0  0  0  0
  -28.8795  -21.8533   22.1345 C   0  0  0  0  0  0  0  0  0  0  0  0
  -31.1284  -22.7894   22.7124 C   0  0  0  0  0  0  0  0  0  0  0  0
  -30.8806  -21.2614   20.7563 C   0  0  0  0  0  0  0  0  0  0  0  0
  -31.9179  -25.1921   16.7663 C   0  0  0  0  0  0  0  0  0  0  0  0
  -20.5726  -28.4205   23.2846 C   0  0  0  0  0  0  0  0  0  0  0  0
  -29.9821  -23.6199   20.6083 C   0  0  1  0  0  0  0  0  0  0  0  0
  -32.7086  -25.7558   19.0675 C   0  0  2  0  0  0  0  0  0  0  0  0
  -30.1961  -22.3983   21.5460 C   0  0  0  0  0  0  0  0  0  0  0  0
  -24.0791  -17.5123   22.3322 N   0  0  0  0  0  0  0  0  0  0  0  0
  -25.0260  -18.4397   22.1097 N   0  0  0  0  0  0  0  0  0  0  0  0
  -27.8863  -24.0746   19.3736 N   0  0  0  0  0  0  0  0  0  0  0  0
  -23.1438  -21.6438   23.0273 N   0  0  0  0  0  0  0  0  0  0  0  0
  -27.1481  -18.7705   21.1108 N   0  0  0  0  0  0  0  0  0  0  0  0
  -27.6541  -15.0115   21.2060 N   0  0  0  0  0  0  0  0  0  0  0  0
  -22.1225  -23.7624   22.8528 N   0  0  0  0  0  0  0  0  0  0  0  0
  -24.8535  -22.3323   18.3425 N   0  0  0  0  0  0  0  0  0  0  0  0
  -31.2093  -24.1401   20.0152 N   0  0  0  0  0  0  0  0  0  0  0  0
  -21.3227  -29.4741   22.5063 N   0  3  1  0  0  0  0  0  0  0  0  0
  -32.5805  -26.1881   17.6471 N   0  3  0  0  0  0  0  0  0  0  0  0
  -26.6480  -15.5880   19.2276 O   0  0  0  0  0  0  0  0  0  0  0  0
  -26.0019  -22.6453   20.3439 O   0  0  0  0  0  0  0  0  0  0  0  0
  -29.3639  -22.4189   18.6585 O   0  0  0  0  0  0  0  0  0  0  0  0
  -30.4743  -26.3276   19.7875 O   0  0  0  0  0  0  0  0  0  0  0  0
  -21.5811  -22.0528   21.3684 O   0  0  0  0  0  0  0  0  0  0  0  0
  -21.7235  -11.6154   21.8581 O   0  0  0  0  0  0  0  0  0  0  0  0
  -24.8014  -29.0619   21.2877 O   0  0  0  0  0  0  0  0  0  1  0  0
  -24.4420   -6.9847   20.6052 F   0  0  0  0  0  0  0  0  0  0  0  0
  -22.9268  -11.3011   19.3891 F   0  0  0  0  0  0  0  0  0  0  0  0
  -18.6039  -25.3692   19.4972 Cl  0  0  0  0  0  0  0  0  0  0  0  0
  1  2  1  0  0  0  0
  1  5  2  0  0  0  0
  2  6  2  0  0  0  0
  3  8  2  0  0  0  0
  3 17  1  0  0  0  0
  4  9  1  0  0  0  0
  4 17  2  0  0  0  0
  5 19  1  0  0  0  0
  6 21  1  0  0  0  0
  7 10  2  0  0  0  0
  7 20  1  0  0  0  0
  8 26  1  0  0  0  0
  9 26  2  0  0  0  0
 10 27  1  0  0  0  0
 11 12  2  0  0  0  0
 11 28  1  0  0  0  0
 12 29  1  0  0  0  0
 13 22  1  0  0  0  0
 13 27  2  0  0  0  0
 14 23  1  0  0  0  0
 14 25  2  0  0  0  0
 15 25  1  0  0  0  0
 15 31  2  0  0  0  0
 16 29  2  0  0  0  0
 16 30  1  0  0  0  0
 17 32  1  0  0  0  0
 18 32  1  0  0  0  0
 18 33  2  0  0  0  0
 18 34  1  0  0  0  0
 19 21  2  0  0  0  0
 19 39  1  0  0  0  0
 20 22  2  0  0  0  0
 20 40  1  0  0  0  0
 21 53  1  0  0  0  0
 22 41  1  0  0  0  0
 23 24  2  0  0  0  0
 23 63  1  0  0  0  0
 24 31  1  0  0  0  0
 24 57  1  0  0  0  0
 25 73  1  0  0  0  0
 26 83  1  0  0  0  0
 27 84  1  0  0  0  0
 28 30  2  0  0  0  0
 28 83  1  0  0  0  0
 29 85  1  0  0  0  0
 30 86  1  0  0  0  0
 31 87  1  0  0  0  0
 32 67  2  0  0  0  0
 33 68  1  0  0  0  0
 33 71  1  0  0  0  0
 34 72  1  0  0  0  0
 34 78  2  0  0  0  0
 35 54  1  0  0  0  0
 35 74  1  0  0  0  0
 35 79  2  0  0  0  0
 36 64  1  0  0  0  0
 36 69  1  0  0  0  0
 36 80  2  0  0  0  0
 37 65  1  0  0  0  0
 37 75  1  0  0  0  0
 37 81  2  0  0  0  0
 38 70  1  0  0  0  0
 38 73  1  0  0  0  0
 38 82  2  0  0  0  0
 39 42  1  0  0  0  0
 40 54  1  0  0  0  0
 41 69  1  0  0  0  0
 42 46  1  0  0  0  0
 43 45  1  0  0  0  0
 43 48  1  0  0  0  0
 44 47  1  0  0  0  0
 44 49  1  0  0  0  0
 45 51  1  0  0  0  0
 46 53  1  0  0  0  0
 47 55  1  0  0  0  0
 48 56  1  0  0  0  0
 49 70  1  0  0  0  0
 50 55  1  0  0  0  0
 50 70  1  0  0  0  0
 51 76  1  0  0  0  0
 52 56  1  0  0  0  0
 52 76  1  0  0  0  0
 53 74  1  0  0  0  0
 54 69  1  0  0  0  0
 55 68  1  0  0  0  0
 56 84  1  0  0  0  0
 58 65  1  0  0  0  0
 59 66  1  0  0  0  0
 60 66  1  0  0  0  0
 61 66  1  0  0  0  0
 62 77  1  0  0  0  0
 63 76  1  0  0  0  0
 64 66  1  0  0  0  0
 64 75  1  0  0  0  0
 65 77  1  0  0  0  0
 67 68  1  0  0  0  0
M  CHG  2  76   1  77   1
M  ISO  4  38 100  56 101  73 100  84 101
M  END
> <Batch ID>
0037

> <Smiles>
CNC(C)C(=O)NC(C(=O)N1Cc2cc([101O:1][101CH:1]3CCCCN(Cc4cc([100NH:0][100C:0](=O)N5CCCC(n6nc(-c7ccc(Oc8ccc(F)cc8F)cc7)c(C(N)=O)c6N)C5)cc(Cl)c4C)C3)ccc2CC1C(=O)NC1CCCc2ccccc21)C(C)(C)C

> <Shape>
0.211

> <Color>
0.056

> <Negative vol penalty>
0.000

$$$$

  -OEChem-04042321573D

 84 92  0     1  0  0  0  0  0999 V2000
  -22.3238  -24.2430   33.0257 C   0  0  0  0  0  0  0  0  0  0  0  0
  -23.0959  -23.8684   31.9307 C   0  0  0  0  0  0  0  0  0  0  0  0
  -23.0743   -9.8685   19.9410 C   0  0  0  0  0  0  0  0  0  0  0  0
  -23.8380   -9.8743   22.2332 C   0  0  0  0  0  0  0  0  0  0  0  0
  -21.9816  -23.2979   33.9919 C   0  0  0  0  0  0  0  0  0  0  0  0
  -23.5273  -22.5487   31.8020 C   0  0  0  0  0  0  0  0  0  0  0  0
  -22.9308  -20.7595   27.1022 C   0  0  0  0  0  0  0  0  0  0  0  0
  -31.5061  -18.4288   20.0493 C   0  0  0  0  0  0  0  0  0  0  0  0
  -31.2463  -19.4817   19.1721 C   0  0  0  0  0  0  0  0  0  0  0  0
  -22.3316   -8.7147   20.1914 C   0  0  0  0  0  0  0  0  0  0  0  0
  -23.0953   -8.7205   22.4835 C   0  0  0  0  0  0  0  0  0  0  0  0
  -23.8685  -21.1515   26.1479 C   0  0  0  0  0  0  0  0  0  0  0  0
  -19.8686   -7.9200   23.0908 C   0  0  0  0  0  0  0  0  0  0  0  0
  -19.1137   -7.8787   24.2629 C   0  0  0  0  0  0  0  0  0  0  0  0
  -25.0080  -19.0414   26.4096 C   0  0  0  0  0  0  0  0  0  0  0  0
  -29.2944  -18.6682   20.9918 C   0  0  0  0  0  0  0  0  0  0  0  0
  -20.3576   -5.9416   24.9958 C   0  0  0  0  0  0  0  0  0  0  0  0
  -23.8275  -10.4483   20.9619 C   0  0  0  0  0  0  0  0  0  0  0  0
  -24.1675  -12.9738   20.8432 C   0  0  0  0  0  0  0  0  0  0  0  0
  -22.4009  -21.9638   33.8700 C   0  0  0  0  0  0  0  0  0  0  0  0
  -23.0310  -19.5077   27.7264 C   0  0  0  0  0  0  0  0  0  0  0  0
  -23.1916  -21.5852   32.7683 C   0  0  0  0  0  0  0  0  0  0  0  0
  -24.0688  -18.6348   27.3696 C   0  0  0  0  0  0  0  0  0  0  0  0
  -30.5301  -18.0220   20.9591 C   0  0  0  0  0  0  0  0  0  0  0  0
  -30.0106  -20.1279   19.2048 C   0  0  0  0  0  0  0  0  0  0  0  0
  -29.0346  -19.7212   20.1146 C   0  0  0  0  0  0  0  0  0  0  0  0
  -22.3421   -8.1407   21.4626 C   0  0  0  0  0  0  0  0  0  0  0  0
  -24.9090  -20.2936   25.8035 C   0  0  0  0  0  0  0  0  0  0  0  0
  -20.8681   -6.9721   22.8711 C   0  0  0  0  0  0  0  0  0  0  0  0
  -19.3581   -6.8895   25.2155 C   0  0  0  0  0  0  0  0  0  0  0  0
  -21.1125   -5.9829   23.8237 C   0  0  0  0  0  0  0  0  0  0  0  0
  -24.5954  -11.6399   20.7038 C   0  0  0  0  0  0  0  0  0  0  0  0
  -25.2585  -13.7243   20.4787 C   0  0  0  0  0  0  0  0  0  0  0  0
  -27.6122  -21.3465   21.3355 C   0  0  0  0  0  0  0  0  0  0  0  0
  -22.8973  -13.4884   21.2647 C   0  0  0  0  0  0  0  0  0  0  0  0
  -23.4422  -18.5203   30.7197 C   0  0  0  0  0  0  0  0  0  0  0  0
  -22.9636  -15.5927   29.4073 C   0  0  0  0  0  0  0  0  0  0  0  0
  -23.0655  -13.6103   26.6312 C   0  0  0  0  0  0  0  0  0  0  0  0
  -30.7419  -14.7469   20.6588 C   0  0  0  0  0  0  0  0  0  0  0  0
  -22.0460  -20.9884   34.9642 C   0  0  0  0  0  0  0  0  0  0  0  0
  -21.9961  -19.0890   28.7344 C   0  0  0  0  0  0  0  0  0  0  0  0
  -24.2093  -17.2722   27.9956 C   0  0  0  0  0  0  0  0  0  0  0  0
  -22.2282  -19.5275   34.5607 C   0  0  0  0  0  0  0  0  0  0  0  0
  -29.6019  -12.3634   18.2721 C   0  0  0  0  0  0  0  0  0  0  0  0
  -23.5726  -19.3288   33.8679 C   0  0  0  0  0  0  0  0  0  0  0  0
  -28.1654  -12.0684   18.7072 C   0  0  0  0  0  0  0  0  0  0  0  0
  -30.5209  -12.5839   19.4716 C   0  0  0  0  0  0  0  0  0  0  0  0
  -28.6210  -13.3127   20.8619 C   0  0  0  0  0  0  0  0  0  0  0  0
  -23.6578  -20.1577   32.5806 C   0  0  1  0  0  0  0  0  0  0  0  0
  -22.4902  -17.9991   29.6806 C   0  0  1  0  0  0  0  0  0  0  0  0
  -27.6450  -13.1383   19.6858 C   0  0  2  0  0  0  0  0  0  0  0  0
  -29.7558  -21.2534   18.2567 C   0  0  0  0  0  0  0  0  0  0  0  0
  -22.6529  -11.2523   25.8783 C   0  0  0  0  0  0  0  0  0  0  0  0
  -25.5915  -14.7251   30.6924 C   0  0  0  0  0  0  0  0  0  0  0  0
  -25.6026  -12.7411   29.1653 C   0  0  0  0  0  0  0  0  0  0  0  0
  -23.7580  -13.0290   30.8197 C   0  0  0  0  0  0  0  0  0  0  0  0
  -20.9534  -14.4606   24.7406 C   0  0  0  0  0  0  0  0  0  0  0  0
  -27.6948  -20.4033   20.1684 C   0  0  0  0  0  0  0  0  0  0  0  0
  -30.8083  -16.8965   21.8972 C   0  0  0  0  0  0  0  0  0  0  0  0
  -26.7744  -22.2102   23.2864 C   0  0  0  0  0  0  0  0  0  0  0  0
  -25.6616  -21.9657   24.2892 C   0  0  0  0  0  0  0  0  0  1  0  0
  -23.8522  -14.5380   28.7934 C   0  0  1  0  0  0  0  0  0  0  0  0
  -22.0540  -12.6397   26.0489 C   0  0  2  0  0  0  0  0  0  0  0  0
  -24.6998  -13.7847   29.8571 C   0  0  0  0  0  0  0  0  0  0  0  0
  -25.8596  -11.5452   20.2834 N   0  0  0  0  0  0  0  0  0  0  0  0
  -26.6918  -21.2059   22.2225 N   0  0  0  0  0  0  0  0  0  0  0  0
  -26.2354  -12.8292   20.1554 N   0  0  0  0  0  0  0  0  0  0  0  0
  -23.1761  -16.9112   28.9804 N   0  0  0  0  0  0  0  0  0  0  0  0
  -29.9711  -13.6114   20.3593 N   0  0  0  0  0  0  0  0  0  0  0  0
  -25.4679  -15.0559   20.4064 N   0  0  0  0  0  0  0  0  0  0  0  0
  -21.8866  -12.5783   21.6029 N   0  0  0  0  0  0  0  0  0  0  0  0
  -22.9139  -19.5175   31.5171 N   0  0  0  0  0  0  0  0  0  0  0  0
  -22.9780  -13.6756   28.0058 N   0  0  0  0  0  0  0  0  0  0  0  0
  -30.1435  -15.6747   21.5025 N   0  0  0  0  0  0  0  0  0  0  0  0
  -21.5859  -13.1166   24.7168 N   0  3  0  0  0  0  0  0  0  0  0  0
  -22.6604  -14.7189   21.3233 O   0  0  0  0  0  0  0  0  0  0  0  0
  -24.5720  -18.0514   30.7935 O   0  0  0  0  0  0  0  0  0  0  0  0
  -22.1074  -15.2580   30.2298 O   0  0  0  0  0  0  0  0  0  0  0  0
  -23.8569  -14.2442   25.9366 O   0  0  0  0  0  0  0  0  0  0  0  0
  -31.8770  -14.9234   20.2034 O   0  0  0  0  0  0  0  0  0  0  0  0
  -21.6173   -7.0149   21.7073 O   0  0  0  0  0  0  0  0  0  0  0  0
  -25.8260  -20.6740   24.8728 O   0  0  0  0  0  0  0  0  0  1  0  0
  -18.6341   -6.8509   26.3417 F   0  0  0  0  0  0  0  0  0  0  0  0
  -22.0721   -5.0702   23.6188 F   0  0  0  0  0  0  0  0  0  0  0  0
  1  2  1  0  0  0  0
  1  5  2  0  0  0  0
  2  6  2  0  0  0  0
  3 10  2  0  0  0  0
  3 18  1  0  0  0  0
  4 11  1  0  0  0  0
  4 18  2  0  0  0  0
  5 20  1  0  0  0  0
  6 22  1  0  0  0  0
  7 12  2  0  0  0  0
  7 21  1  0  0  0  0
  8  9  2  0  0  0  0
  8 24  1  0  0  0  0
  9 25  1  0  0  0  0
 10 27  1  0  0  0  0
 11 27  2  0  0  0  0
 12 28  1  0  0  0  0
 13 14  2  0  0  0  0
 13 29  1  0  0  0  0
 14 30  1  0  0  0  0
 15 23  1  0  0  0  0
 15 28  2  0  0  0  0
 16 24  2  0  0  0  0
 16 26  1  0  0  0  0
 17 30  2  0  0  0  0
 17 31  1  0  0  0  0
 18 32  1  0  0  0  0
 19 32  1  0  0  0  0
 19 33  2  0  0  0  0
 19 35  1  0  0  0  0
 20 22  2  0  0  0  0
 20 40  1  0  0  0  0
 21 23  2  0  0  0  0
 21 41  1  0  0  0  0
 22 49  1  0  0  0  0
 23 42  1  0  0  0  0
 24 59  1  0  0  0  0
 25 26  2  0  0  0  0
 25 52  1  0  0  0  0
 26 58  1  0  0  0  0
 27 81  1  0  0  0  0
 28 82  1  0  0  0  0
 29 31  2  0  0  0  0
 29 81  1  0  0  0  0
 30 83  1  0  0  0  0
 31 84  1  0  0  0  0
 32 65  2  0  0  0  0
 33 67  1  0  0  0  0
 33 70  1  0  0  0  0
 34 58  1  0  0  0  0
 34 66  2  0  0  0  0
 35 71  1  0  0  0  0
 35 76  2  0  0  0  0
 36 50  1  0  0  0  0
 36 72  1  0  0  0  0
 36 77  2  0  0  0  0
 37 62  1  0  0  0  0
 37 68  1  0  0  0  0
 37 78  2  0  0  0  0
 38 63  1  0  0  0  0
 38 73  1  0  0  0  0
 38 79  2  0  0  0  0
 39 69  1  0  0  0  0
 39 74  1  0  0  0  0
 39 80  2  0  0  0  0
 40 43  1  0  0  0  0
 41 50  1  0  0  0  0
 42 68  1  0  0  0  0
 43 45  1  0  0  0  0
 44 46  1  0  0  0  0
 44 47  1  0  0  0  0
 45 49  1  0  0  0  0
 46 51  1  0  0  0  0
 47 69  1  0  0  0  0
 48 51  1  0  0  0  0
 48 69  1  0  0  0  0
 49 72  1  0  0  0  0
 50 68  1  0  0  0  0
 51 67  1  0  0  0  0
 53 63  1  0  0  0  0
 54 64  1  0  0  0  0
 55 64  1  0  0  0  0
 56 64  1  0  0  0  0
 57 75  1  0  0  0  0
 59 74  1  0  0  0  0
 60 61  1  0  0  0  0
 60 66  1  0  0  0  0
 61 82  1  0  0  0  0
 62 64  1  0  0  0  0
 62 73  1  0  0  0  0
 63 75  1  0  0  0  0
 65 67  1  0  0  0  0
M  CHG  1  75   1
M  ISO  4  39 100  61 101  74 100  82 101
M  END
> <Batch ID>
0037

> <Smiles>
CNC(C)C(=O)NC(C(=O)N1Cc2cc([101O:1][101CH2:1]CNC=Cc3cc(C[100NH:0][100C:0](=O)N4CCCC(n5nc(-c6ccc(Oc7ccc(F)cc7F)cc6)c(C(N)=O)c5N)C4)ccc3C)ccc2CC1C(=O)NC1CCCc2ccccc21)C(C)(C)C

> <Shape>
0.199

> <Color>
0.196

> <Negative vol penalty>
0.000

$$$$

  -OEChem-04042321573D

 85 93  0     1  0  0  0  0  0999 V2000
  -28.8147  -29.6383   19.8206 C   0  0  0  0  0  0  0  0  0  0  0  0
  -28.5684  -28.6406   20.7584 C   0  0  0  0  0  0  0  0  0  0  0  0
  -29.4894  -25.2853   22.9723 C   0  0  0  0  0  0  0  0  0  0  0  0
  -24.4822  -13.7556   21.1797 C   0  0  0  0  0  0  0  0  0  0  0  0
  -26.5859  -13.4177   20.0408 C   0  0  0  0  0  0  0  0  0  0  0  0
  -27.8213  -30.5682   19.5165 C   0  0  0  0  0  0  0  0  0  0  0  0
  -27.3288  -28.5729   21.3934 C   0  0  0  0  0  0  0  0  0  0  0  0
  -25.5089  -23.8518   21.6038 C   0  0  0  0  0  0  0  0  0  0  0  0
  -29.5828  -24.7344   24.2503 C   0  0  0  0  0  0  0  0  0  0  0  0
  -29.8323  -24.5213   21.8567 C   0  0  0  0  0  0  0  0  0  0  0  0
  -24.0459  -12.5040   20.7453 C   0  0  0  0  0  0  0  0  0  0  0  0
  -26.1497  -12.1660   19.6063 C   0  0  0  0  0  0  0  0  0  0  0  0
  -26.0441  -23.0058   22.5741 C   0  0  0  0  0  0  0  0  0  0  0  0
  -24.5078   -9.2675   21.6082 C   0  0  0  0  0  0  0  0  0  0  0  0
  -23.8779   -8.4415   22.5391 C   0  0  0  0  0  0  0  0  0  0  0  0
  -24.1256  -23.4127   23.9786 C   0  0  0  0  0  0  0  0  0  0  0  0
  -21.8872   -8.4170   21.1704 C   0  0  0  0  0  0  0  0  0  0  0  0
  -25.7522  -14.2125   20.8274 C   0  0  0  0  0  0  0  0  0  0  0  0
  -26.8951  -15.7991   22.4657 C   0  0  0  0  0  0  0  0  0  0  0  0
  -26.5657  -30.5060   20.1411 C   0  0  0  0  0  0  0  0  0  0  0  0
  -24.2811  -24.4943   21.8186 C   0  0  0  0  0  0  0  0  0  0  0  0
  -26.3182  -29.5037   21.0984 C   0  0  0  0  0  0  0  0  0  0  0  0
  -23.5757  -24.2644   23.0084 C   0  0  0  0  0  0  0  0  0  0  0  0
  -30.0192  -23.4196   24.4129 C   0  0  0  0  0  0  0  0  0  0  0  0
  -30.2687  -23.2065   22.0192 C   0  0  0  0  0  0  0  0  0  0  0  0
  -24.8797  -11.7092   19.9586 C   0  0  0  0  0  0  0  0  0  0  0  0
  -25.3539  -22.7884   23.7629 C   0  0  0  0  0  0  0  0  0  0  0  0
  -23.8274   -9.6683   20.4584 C   0  0  0  0  0  0  0  0  0  0  0  0
  -22.5676   -8.0163   22.3202 C   0  0  0  0  0  0  0  0  0  0  0  0
  -22.5171   -9.2431   20.2395 C   0  0  0  0  0  0  0  0  0  0  0  0
  -30.3621  -22.6556   23.2973 C   0  0  0  0  0  0  0  0  0  0  0  0
  -26.2032  -15.5056   21.2754 C   0  0  0  0  0  0  0  0  0  0  0  0
  -27.0911  -17.1579   22.4228 C   0  0  0  0  0  0  0  0  0  0  0  0
  -27.9627  -22.6000   26.5780 C   0  0  0  0  0  0  0  0  0  0  0  0
  -27.3225  -14.9220   23.5163 C   0  0  0  0  0  0  0  0  0  0  0  0
  -23.3417  -27.5235   22.0325 C   0  0  0  0  0  0  0  0  0  0  0  0
  -20.3862  -26.1914   22.1466 C   0  0  0  0  0  0  0  0  0  0  0  0
  -18.4639  -23.4621   22.8552 C   0  0  0  0  0  0  0  0  0  0  0  0
  -28.5207  -21.7835   19.6469 C   0  0  0  0  0  0  0  0  0  0  0  0
  -25.5394  -31.5619   19.8145 C   0  0  0  0  0  0  0  0  0  0  0  0
  -23.7046  -25.3830   20.7507 C   0  0  0  0  0  0  0  0  0  0  0  0
  -22.2442  -24.9143   23.2790 C   0  0  0  0  0  0  0  0  0  0  0  0
  -24.1254  -31.1943   20.2569 C   0  0  0  0  0  0  0  0  0  0  0  0
  -25.1537  -20.6678   19.3384 C   0  0  0  0  0  0  0  0  0  0  0  0
  -24.1350  -30.6591   21.6853 C   0  0  0  0  0  0  0  0  0  0  0  0
  -25.1852  -19.2481   19.9070 C   0  0  0  0  0  0  0  0  0  0  0  0
  -26.4324  -20.9970   18.5713 C   0  0  0  0  0  0  0  0  0  0  0  0
  -27.7124  -19.3582   19.8940 C   0  0  0  0  0  0  0  0  0  0  0  0
  -24.9778  -29.3824   21.7904 C   0  0  1  0  0  0  0  0  0  0  0  0
  -22.6928  -26.3884   21.2921 C   0  0  1  0  0  0  0  0  0  0  0  0
  -26.4676  -18.9994   20.7236 C   0  0  2  0  0  0  0  0  0  0  0  0
  -16.0769  -22.6882   22.8863 C   0  0  0  0  0  0  0  0  0  0  0  0
  -19.9099  -27.7719   24.7128 C   0  0  0  0  0  0  0  0  0  0  0  0
  -17.9622  -26.2733   25.1917 C   0  0  0  0  0  0  0  0  0  0  0  0
  -17.9584  -27.7069   23.1502 C   0  0  0  0  0  0  0  0  0  0  0  0
  -19.0050  -21.3381   20.8665 C   0  0  0  0  0  0  0  0  0  0  0  0
  -30.1074  -22.8702   25.8092 C   0  0  0  0  0  0  0  0  0  0  0  0
  -30.6250  -22.4247   20.7957 C   0  0  0  0  0  0  0  0  0  0  0  0
  -25.5489  -22.2507   26.0713 C   0  0  0  0  0  0  0  0  0  1  0  0
  -26.7175  -21.8399   26.9540 C   0  0  1  0  0  0  0  0  0  0  0  0
  -19.4810  -25.6908   23.2461 C   0  0  1  0  0  0  0  0  0  0  0  0
  -17.3580  -22.7781   22.0718 C   0  0  2  0  0  0  0  0  0  0  0  0
  -18.8539  -26.8498   24.0712 C   0  0  0  0  0  0  0  0  0  0  0  0
  -25.9749  -16.5906   20.5307 N   0  0  0  0  0  0  0  0  0  0  0  0
  -28.9917  -21.9796   26.1144 N   0  0  0  0  0  0  0  0  0  0  0  0
  -26.5264  -17.5792   21.2550 N   0  0  0  0  0  0  0  0  0  0  0  0
  -21.7251  -25.7796   22.2070 N   0  0  0  0  0  0  0  0  0  0  0  0
  -27.6115  -20.7412   19.4021 N   0  0  0  0  0  0  0  0  0  0  0  0
  -27.6895  -18.0214   23.2705 N   0  0  0  0  0  0  0  0  0  0  0  0
  -27.0396  -13.5541   23.4012 N   0  0  0  0  0  0  0  0  0  0  0  0
  -24.2425  -28.2475   21.2749 N   0  0  0  0  0  0  0  0  0  0  0  0
  -18.5042  -24.8174   22.6046 N   0  0  0  0  0  0  0  0  0  0  0  0
  -29.6074  -21.4577   20.4493 N   0  0  0  0  0  0  0  0  0  0  0  0
  -26.9697  -20.3864   26.7654 N   0  3  0  0  0  0  0  0  0  0  0  0
  -17.7706  -21.3976   21.6910 N   0  3  0  0  0  0  0  0  0  0  0  0
  -27.9226  -15.3412   24.5350 O   0  0  0  0  0  0  0  0  0  0  0  0
  -23.0460  -27.7282   23.2039 O   0  0  0  0  0  0  0  0  0  0  0  0
  -19.9209  -26.9152   21.2628 O   0  0  0  0  0  0  0  0  0  0  0  0
  -19.2143  -22.8554   23.6164 O   0  0  0  0  0  0  0  0  0  0  0  0
  -28.3720  -22.9216   19.1891 O   0  0  0  0  0  0  0  0  0  0  0  0
  -24.4544  -10.4877   19.5348 O   0  0  0  0  0  0  0  0  0  0  0  0
  -25.8743  -21.9635   24.7119 O   0  0  0  0  0  0  0  0  0  1  0  0
  -21.9634   -7.2218   23.2135 F   0  0  0  0  0  0  0  0  0  0  0  0
  -21.8587   -9.6238   19.1361 F   0  0  0  0  0  0  0  0  0  0  0  0
  -30.9058  -21.0238   23.4995 Cl  0  0  0  0  0  0  0  0  0  0  0  0
  1  2  1  0  0  0  0
  1  6  2  0  0  0  0
  2  7  2  0  0  0  0
  3  9  2  0  0  0  0
  3 10  1  0  0  0  0
  4 11  2  0  0  0  0
  4 18  1  0  0  0  0
  5 12  1  0  0  0  0
  5 18  2  0  0  0  0
  6 20  1  0  0  0  0
  7 22  1  0  0  0  0
  8 13  2  0  0  0  0
  8 21  1  0  0  0  0
  9 24  1  0  0  0  0
 10 25  2  0  0  0  0
 11 26  1  0  0  0  0
 12 26  2  0  0  0  0
 13 27  1  0  0  0  0
 14 15  2  0  0  0  0
 14 28  1  0  0  0  0
 15 29  1  0  0  0  0
 16 23  1  0  0  0  0
 16 27  2  0  0  0  0
 17 29  2  0  0  0  0
 17 30  1  0  0  0  0
 18 32  1  0  0  0  0
 19 32  1  0  0  0  0
 19 33  2  0  0  0  0
 19 35  1  0  0  0  0
 20 22  2  0  0  0  0
 20 40  1  0  0  0  0
 21 23  2  0  0  0  0
 21 41  1  0  0  0  0
 22 49  1  0  0  0  0
 23 42  1  0  0  0  0
 24 31  2  0  0  0  0
 24 57  1  0  0  0  0
 25 31  1  0  0  0  0
 25 58  1  0  0  0  0
 26 81  1  0  0  0  0
 27 82  1  0  0  0  0
 28 30  2  0  0  0  0
 28 81  1  0  0  0  0
 29 83  1  0  0  0  0
 30 84  1  0  0  0  0
 31 85  1  0  0  0  0
 32 64  2  0  0  0  0
 33 66  1  0  0  0  0
 33 69  1  0  0  0  0
 34 60  1  0  0  0  0
 34 65  2  0  0  0  0
 35 70  1  0  0  0  0
 35 76  2  0  0  0  0
 36 50  1  0  0  0  0
 36 71  1  0  0  0  0
 36 77  2  0  0  0  0
 37 61  1  0  0  0  0
 37 67  1  0  0  0  0
 37 78  2  0  0  0  0
 38 62  1  0  0  0  0
 38 72  1  0  0  0  0
 38 79  2  0  0  0  0
 39 68  1  0  0  0  0
 39 73  1  0  0  0  0
 39 80  2  0  0  0  0
 40 43  1  0  0  0  0
 41 50  1  0  0  0  0
 42 67  1  0  0  0  0
 43 45  1  0  0  0  0
 44 46  1  0  0  0  0
 44 47  1  0  0  0  0
 45 49  1  0  0  0  0
 46 51  1  0  0  0  0
 47 68  1  0  0  0  0
 48 51  1  0  0  0  0
 48 68  1  0  0  0  0
 49 71  1  0  0  0  0
 50 67  1  0  0  0  0
 51 66  1  0  0  0  0
 52 62  1  0  0  0  0
 53 63  1  0  0  0  0
 54 63  1  0  0  0  0
 55 63  1  0  0  0  0
 56 75  1  0  0  0  0
 57 65  1  0  0  0  0
 58 73  1  0  0  0  0
 59 60  1  0  0  0  0
 59 82  1  0  0  0  0
 60 74  1  0  0  0  0
 61 63  1  0  0  0  0
 61 72  1  0  0  0  0
 62 75  1  0  0  0  0
 64 66  1  0  0  0  0
M  CHG  2  74   1  75   1
M  ISO  4  39 100  59 101  73 100  82 101
M  END
> <Batch ID>
0037

> <Smiles>
CNC(C)C(=O)NC(C(=O)N1Cc2cc([101O:1][101CH2:1]C(=N)CNCc3cccc(C[100NH:0][100C:0](=O)N4CCCC(n5nc(-c6ccc(Oc7ccc(F)cc7F)cc6)c(C(N)=O)c5N)C4)c3Cl)ccc2CC1C(=O)NC1CCCc2ccccc21)C(C)(C)C

> <Shape>
0.199

> <Color>
0.061

> <Negative vol penalty>
0.000

$$$$

  -OEChem-04042321573D

 84 92  0     1  0  0  0  0  0999 V2000
  -38.1103  -26.5541   21.1297 C   0  0  0  0  0  0  0  0  0  0  0  0
  -36.8575  -26.2360   21.6443 C   0  0  0  0  0  0  0  0  0  0  0  0
  -23.0769   -9.8710   19.9322 C   0  0  0  0  0  0  0  0  0  0  0  0
  -23.8447   -9.8634   22.2229 C   0  0  0  0  0  0  0  0  0  0  0  0
  -38.2917  -26.6525   19.7508 C   0  0  0  0  0  0  0  0  0  0  0  0
  -35.7852  -26.0171   20.7803 C   0  0  0  0  0  0  0  0  0  0  0  0
  -33.0682  -21.9368   22.0508 C   0  0  0  0  0  0  0  0  0  0  0  0
  -22.3370   -8.7140   20.1763 C   0  0  0  0  0  0  0  0  0  0  0  0
  -23.1048   -8.7064   22.4671 C   0  0  0  0  0  0  0  0  0  0  0  0
  -32.1754  -22.0719   23.1131 C   0  0  0  0  0  0  0  0  0  0  0  0
  -19.8809   -7.8953   23.0749 C   0  0  0  0  0  0  0  0  0  0  0  0
  -19.1282   -7.8448   24.2480 C   0  0  0  0  0  0  0  0  0  0  0  0
  -30.3603  -22.3354   21.5462 C   0  0  0  0  0  0  0  0  0  0  0  0
  -20.3774   -5.9055   24.9661 C   0  0  0  0  0  0  0  0  0  0  0  0
  -29.4698  -18.2541   25.7661 C   0  0  0  0  0  0  0  0  0  0  0  0
  -23.8307  -10.4457   20.9555 C   0  0  0  0  0  0  0  0  0  0  0  0
  -24.1652  -12.9726   20.8526 C   0  0  0  0  0  0  0  0  0  0  0  0
  -37.2233  -26.4252   18.8691 C   0  0  0  0  0  0  0  0  0  0  0  0
  -32.6146  -22.0111   20.7260 C   0  0  0  0  0  0  0  0  0  0  0  0
  -35.9522  -26.1138   19.3884 C   0  0  0  0  0  0  0  0  0  0  0  0
  -31.2490  -22.1984   20.4689 C   0  0  0  0  0  0  0  0  0  0  0  0
  -30.7694  -16.7356   24.4088 C   0  0  0  0  0  0  0  0  0  0  0  0
  -30.3274  -17.3867   23.2572 C   0  0  0  0  0  0  0  0  0  0  0  0
  -22.3510   -8.1317   21.4437 C   0  0  0  0  0  0  0  0  0  0  0  0
  -30.8216  -22.2741   22.8609 C   0  0  0  0  0  0  0  0  0  0  0  0
  -20.8819   -6.9509   22.8472 C   0  0  0  0  0  0  0  0  0  0  0  0
  -19.3764   -6.8499   25.1937 C   0  0  0  0  0  0  0  0  0  0  0  0
  -21.1302   -5.9560   23.7929 C   0  0  0  0  0  0  0  0  0  0  0  0
  -29.0278  -18.9052   24.6145 C   0  0  0  0  0  0  0  0  0  0  0  0
  -30.3407  -17.1693   25.6633 C   0  0  0  0  0  0  0  0  0  0  0  0
  -29.4566  -18.4715   23.3600 C   0  0  0  0  0  0  0  0  0  0  0  0
  -24.5956  -11.6405   20.7037 C   0  0  0  0  0  0  0  0  0  0  0  0
  -25.2540  -13.7277   20.4911 C   0  0  0  0  0  0  0  0  0  0  0  0
  -22.8947  -13.4818   21.2796 C   0  0  0  0  0  0  0  0  0  0  0  0
  -33.1810  -23.9427   18.2660 C   0  0  0  0  0  0  0  0  0  0  0  0
  -31.3388  -21.8057   16.6654 C   0  0  0  0  0  0  0  0  0  0  0  0
  -28.9166  -19.4046   16.7874 C   0  0  0  0  0  0  0  0  0  0  0  0
  -30.7355  -14.7606   20.6680 C   0  0  0  0  0  0  0  0  0  0  0  0
  -37.4568  -26.5894   17.3881 C   0  0  0  0  0  0  0  0  0  0  0  0
  -33.5864  -21.8367   19.5913 C   0  0  0  0  0  0  0  0  0  0  0  0
  -30.7082  -22.2653   19.0647 C   0  0  0  0  0  0  0  0  0  0  0  0
  -36.3570  -25.9745   16.5263 C   0  0  0  0  0  0  0  0  0  0  0  0
  -29.5963  -12.3903   18.2679 C   0  0  0  0  0  0  0  0  0  0  0  0
  -34.9815  -26.3669   17.0561 C   0  0  0  0  0  0  0  0  0  0  0  0
  -28.1611  -12.0895   18.7036 C   0  0  0  0  0  0  0  0  0  0  0  0
  -30.5169  -12.6050   19.4672 C   0  0  0  0  0  0  0  0  0  0  0  0
  -28.6180  -13.3207   20.8656 C   0  0  0  0  0  0  0  0  0  0  0  0
  -34.7702  -25.8450   18.4824 C   0  0  1  0  0  0  0  0  0  0  0  0
  -33.0911  -22.4429   18.2819 C   0  0  1  0  0  0  0  0  0  0  0  0
  -27.6402  -13.1519   19.6900 C   0  0  2  0  0  0  0  0  0  0  0  0
  -31.7047  -15.5723   24.2865 C   0  0  0  0  0  0  0  0  0  0  0  0
  -27.3962  -17.5870   15.9618 C   0  0  0  0  0  0  0  0  0  0  0  0
  -29.6153  -24.1564   15.7632 C   0  0  0  0  0  0  0  0  0  0  0  0
  -27.8349  -22.5159   15.1250 C   0  0  0  0  0  0  0  0  0  0  0  0
  -30.0565  -22.4462   13.9926 C   0  0  0  0  0  0  0  0  0  0  0  0
  -30.9383  -17.3106   17.3229 C   0  0  0  0  0  0  0  0  0  0  0  0
  -30.7997  -16.9023   21.9202 C   0  0  0  0  0  0  0  0  0  0  0  0
  -30.2651  -21.7193   25.1055 C   0  0  0  0  0  0  0  0  0  1  0  0
  -28.9895  -21.3530   25.8473 C   0  0  0  0  0  0  0  0  0  0  0  0
  -29.8616  -21.6636   16.3888 C   0  0  1  0  0  0  0  0  0  0  0  0
  -28.8390  -18.0199   16.1702 C   0  0  2  0  0  0  0  0  0  0  0  0
  -29.3522  -22.6962   15.3440 C   0  0  0  0  0  0  0  0  0  0  0  0
  -25.8593  -11.5513   20.2804 N   0  0  0  0  0  0  0  0  0  0  0  0
  -26.2322  -12.8368   20.1601 N   0  0  0  0  0  0  0  0  0  0  0  0
  -31.6991  -22.0955   17.9891 N   0  0  0  0  0  0  0  0  0  0  0  0
  -29.9666  -13.6255   20.3625 N   0  0  0  0  0  0  0  0  0  0  0  0
  -25.4605  -15.0603   20.4270 N   0  0  0  0  0  0  0  0  0  0  0  0
  -21.8865  -12.5674   21.6138 N   0  0  0  0  0  0  0  0  0  0  0  0
  -34.4583  -24.4319   18.4625 N   0  0  0  0  0  0  0  0  0  0  0  0
  -29.6501  -20.2719   16.0056 N   0  0  0  0  0  0  0  0  0  0  0  0
  -30.1367  -15.6816   21.5188 N   0  0  0  0  0  0  0  0  0  0  0  0
  -29.5065  -17.0214   17.0526 N   0  3  0  0  0  0  0  0  0  0  0  0
  -22.6553  -14.7113   21.3467 O   0  0  0  0  0  0  0  0  0  0  0  0
  -32.1668  -24.6069   18.0871 O   0  0  0  0  0  0  0  0  0  0  0  0
  -32.1438  -21.6578   15.7426 O   0  0  0  0  0  0  0  0  0  0  0  0
  -28.3772  -19.6896   17.8543 O   0  0  0  0  0  0  0  0  0  0  0  0
  -31.8694  -14.9425   20.2117 O   0  0  0  0  0  0  0  0  0  0  0  0
  -21.6290   -7.0029   21.6824 O   0  0  0  0  0  0  0  0  0  0  0  0
  -29.9481  -22.4068   23.8959 O   0  0  0  0  0  0  0  0  0  1  0  0
  -18.6545   -6.8024   26.3209 F   0  0  0  0  0  0  0  0  0  0  0  0
  -22.0913   -5.0467   23.5803 F   0  0  0  0  0  0  0  0  0  0  0  0
  -27.9302  -20.2697   24.8413 S   0  0  0  0  0  0  0  0  0  0  0  0
  -30.8672  -16.3927   27.1131 Cl  0  0  0  0  0  0  0  0  0  0  0  0
  -28.9233  -19.2606   21.9067 Cl  0  0  0  0  0  0  0  0  0  0  0  0
  1  2  1  0  0  0  0
  1  5  2  0  0  0  0
  2  6  2  0  0  0  0
  3  8  2  0  0  0  0
  3 16  1  0  0  0  0
  4  9  1  0  0  0  0
  4 16  2  0  0  0  0
  5 18  1  0  0  0  0
  6 20  1  0  0  0  0
  7 10  2  0  0  0  0
  7 19  1  0  0  0  0
  8 24  1  0  0  0  0
  9 24  2  0  0  0  0
 10 25  1  0  0  0  0
 11 12  2  0  0  0  0
 11 26  1  0  0  0  0
 12 27  1  0  0  0  0
 13 21  1  0  0  0  0
 13 25  2  0  0  0  0
 14 27  2  0  0  0  0
 14 28  1  0  0  0  0
 15 29  1  0  0  0  0
 15 30  2  0  0  0  0
 16 32  1  0  0  0  0
 17 32  1  0  0  0  0
 17 33  2  0  0  0  0
 17 34  1  0  0  0  0
 18 20  2  0  0  0  0
 18 39  1  0  0  0  0
 19 21  2  0  0  0  0
 19 40  1  0  0  0  0
 20 48  1  0  0  0  0
 21 41  1  0  0  0  0
 22 23  2  0  0  0  0
 22 30  1  0  0  0  0
 22 51  1  0  0  0  0
 23 31  1  0  0  0  0
 23 57  1  0  0  0  0
 24 78  1  0  0  0  0
 25 79  1  0  0  0  0
 26 28  2  0  0  0  0
 26 78  1  0  0  0  0
 27 80  1  0  0  0  0
 28 81  1  0  0  0  0
 29 31  2  0  0  0  0
 29 82  1  0  0  0  0
 30 83  1  0  0  0  0
 31 84  1  0  0  0  0
 32 63  2  0  0  0  0
 33 64  1  0  0  0  0
 33 67  1  0  0  0  0
 34 68  1  0  0  0  0
 34 73  2  0  0  0  0
 35 49  1  0  0  0  0
 35 69  1  0  0  0  0
 35 74  2  0  0  0  0
 36 60  1  0  0  0  0
 36 65  1  0  0  0  0
 36 75  2  0  0  0  0
 37 61  1  0  0  0  0
 37 70  1  0  0  0  0
 37 76  2  0  0  0  0
 38 66  1  0  0  0  0
 38 71  1  0  0  0  0
 38 77  2  0  0  0  0
 39 42  1  0  0  0  0
 40 49  1  0  0  0  0
 41 65  1  0  0  0  0
 42 44  1  0  0  0  0
 43 45  1  0  0  0  0
 43 46  1  0  0  0  0
 44 48  1  0  0  0  0
 45 50  1  0  0  0  0
 46 66  1  0  0  0  0
 47 50  1  0  0  0  0
 47 66  1  0  0  0  0
 48 69  1  0  0  0  0
 49 65  1  0  0  0  0
 50 64  1  0  0  0  0
 52 61  1  0  0  0  0
 53 62  1  0  0  0  0
 54 62  1  0  0  0  0
 55 62  1  0  0  0  0
 56 72  1  0  0  0  0
 57 71  1  0  0  0  0
 58 59  1  0  0  0  0
 58 79  1  0  0  0  0
 59 82  1  0  0  0  0
 60 62  1  0  0  0  0
 60 70  1  0  0  0  0
 61 72  1  0  0  0  0
 63 64  1  0  0  0  0
M  CHG  1  72   1
M  ISO  4  38 100  58 101  71 100  79 101
M  END
> <Batch ID>
0037

> <Smiles>
CNC(C)C(=O)NC(C(=O)N1Cc2cc([101O:1][101CH2:1]CSc3cc(Cl)c(C)c(C[100NH:0][100C:0](=O)N4CCCC(n5nc(-c6ccc(Oc7ccc(F)cc7F)cc6)c(C(N)=O)c5N)C4)c3Cl)ccc2CC1C(=O)NC1CCCc2ccccc21)C(C)(C)C

> <Shape>
0.197

> <Color>
0.200

> <Negative vol penalty>
0.000

$$$$
