
  -OEChem-04042322003D

 89 98  0     1  0  0  0  0  0999 V2000
  -17.0601  -27.6542   23.8163 C   0  0  0  0  0  0  0  0  0  0  0  0
  -17.8465  -26.9785   22.8887 C   0  0  0  0  0  0  0  0  0  0  0  0
  -22.8793   -9.5856   19.5635 C   0  0  0  0  0  0  0  0  0  0  0  0
  -23.7110  -10.0323   21.7874 C   0  0  0  0  0  0  0  0  0  0  0  0
  -17.3437  -28.9819   24.1334 C   0  0  0  0  0  0  0  0  0  0  0  0
  -18.9164  -27.6307   22.2767 C   0  0  0  0  0  0  0  0  0  0  0  0
  -23.0993  -24.7802   22.1255 C   0  0  0  0  0  0  0  0  0  0  0  0
  -22.0688   -8.5700   20.0706 C   0  0  0  0  0  0  0  0  0  0  0  0
  -22.9005   -9.0167   22.2945 C   0  0  0  0  0  0  0  0  0  0  0  0
  -23.1571  -23.7856   21.1502 C   0  0  0  0  0  0  0  0  0  0  0  0
  -22.9520   -5.6405   22.4676 C   0  0  0  0  0  0  0  0  0  0  0  0
  -23.5206   -4.7526   23.3808 C   0  0  0  0  0  0  0  0  0  0  0  0
  -24.5301  -25.2186   19.7788 C   0  0  0  0  0  0  0  0  0  0  0  0
  -30.7843  -17.6939   19.1093 C   0  0  0  0  0  0  0  0  0  0  0  0
  -28.6069  -18.4005   19.8817 C   0  0  0  0  0  0  0  0  0  0  0  0
  -21.8900   -5.4119   25.0372 C   0  0  0  0  0  0  0  0  0  0  0  0
  -23.7005  -10.3168   20.4219 C   0  0  0  0  0  0  0  0  0  0  0  0
  -24.1233  -12.5225   19.2122 C   0  0  0  0  0  0  0  0  0  0  0  0
  -18.4235  -29.6477   23.5322 C   0  0  0  0  0  0  0  0  0  0  0  0
  -23.7485  -26.0077   21.9297 C   0  0  0  0  0  0  0  0  0  0  0  0
  -19.2139  -28.9690   22.5851 C   0  0  0  0  0  0  0  0  0  0  0  0
  -24.4811  -26.2262   20.7543 C   0  0  0  0  0  0  0  0  0  0  0  0
  -30.9703  -18.9343   18.4990 C   0  0  0  0  0  0  0  0  0  0  0  0
  -28.7929  -19.6409   19.2715 C   0  0  0  0  0  0  0  0  0  0  0  0
  -29.9747  -19.9078   18.5802 C   0  0  0  0  0  0  0  0  0  0  0  0
  -29.6025  -17.4270   19.8006 C   0  0  0  0  0  0  0  0  0  0  0  0
  -22.0794   -8.2855   21.4361 C   0  0  0  0  0  0  0  0  0  0  0  0
  -23.8701  -24.0058   19.9754 C   0  0  0  0  0  0  0  0  0  0  0  0
  -21.8524   -6.4142   22.8393 C   0  0  0  0  0  0  0  0  0  0  0  0
  -22.9896   -4.6383   24.6655 C   0  0  0  0  0  0  0  0  0  0  0  0
  -21.3214   -6.2998   24.1240 C   0  0  0  0  0  0  0  0  0  0  0  0
  -24.5383  -11.3657   19.8986 C   0  0  0  0  0  0  0  0  0  0  0  0
  -25.2893  -13.1914   18.9302 C   0  0  0  0  0  0  0  0  0  0  0  0
  -25.3465  -21.0612   18.9553 C   0  0  0  0  0  0  0  0  0  0  0  0
  -23.6786  -18.1619   20.4710 C   0  0  0  0  0  0  0  0  0  0  0  0
  -24.4293  -20.3147   19.5924 C   0  0  0  0  0  0  0  0  0  0  0  0
  -24.5924  -18.9049   19.8365 C   0  0  0  0  0  0  0  0  0  0  0  0
  -22.8019  -12.9540   18.8609 C   0  0  0  0  0  0  0  0  0  0  0  0
  -22.8047  -29.0355   21.7164 C   0  0  0  0  0  0  0  0  0  0  0  0
  -25.9952  -29.6187   21.6636 C   0  0  0  0  0  0  0  0  0  0  0  0
  -28.9130  -28.1630   20.1193 C   0  0  0  0  0  0  0  0  0  0  0  0
  -30.3012  -15.0919   20.4375 C   0  0  0  0  0  0  0  0  0  0  0  0
  -18.6623  -31.0977   23.8717 C   0  0  0  0  0  0  0  0  0  0  0  0
  -23.6987  -27.0603   23.0030 C   0  0  0  0  0  0  0  0  0  0  0  0
  -25.2125  -27.5189   20.5044 C   0  0  0  0  0  0  0  0  0  0  0  0
  -20.0426  -31.6010   23.4574 C   0  0  0  0  0  0  0  0  0  0  0  0
  -30.1139  -11.7132   19.3300 C   0  0  0  0  0  0  0  0  0  0  0  0
  -26.7657  -22.1644   16.7219 C   0  0  0  0  0  0  0  0  0  0  0  0
  -20.3646  -31.1635   22.0320 C   0  0  0  0  0  0  0  0  0  0  0  0
  -25.4778  -22.8264   17.1987 C   0  0  0  0  0  0  0  0  0  0  0  0
  -28.6125  -11.4168   19.3227 C   0  0  0  0  0  0  0  0  0  0  0  0
  -30.5081  -12.6163   20.4974 C   0  0  0  0  0  0  0  0  0  0  0  0
  -28.2371  -13.5658   20.5986 C   0  0  0  0  0  0  0  0  0  0  0  0
  -26.7664  -20.6685   17.0192 C   0  0  0  0  0  0  0  0  0  0  0  0
  -20.3982  -29.6346   21.9184 C   0  0  1  0  0  0  0  0  0  0  0  0
  -25.2178  -22.5421   18.6773 C   0  0  1  0  0  0  0  0  0  1  0  0
  -23.9699  -28.4655   22.4748 C   0  0  1  0  0  0  0  0  0  0  0  0
  -27.7819  -12.7126   19.4034 C   0  0  2  0  0  0  0  0  0  0  0  0
  -32.2445  -19.1948   17.7643 C   0  0  0  0  0  0  0  0  0  0  0  0
  -30.1746  -21.2381   17.9262 C   0  0  0  0  0  0  0  0  0  0  0  0
  -31.3170  -28.1743   20.8390 C   0  0  0  0  0  0  0  0  0  0  0  0
  -26.2244  -32.0640   19.8532 C   0  0  0  0  0  0  0  0  0  0  0  0
  -28.4844  -31.2463   19.1517 C   0  0  0  0  0  0  0  0  0  0  0  0
  -28.0591  -31.8374   21.5376 C   0  0  0  0  0  0  0  0  0  0  0  0
  -29.0734  -25.2091   20.0330 C   0  0  0  0  0  0  0  0  0  0  0  0
  -27.7065  -20.6706   19.3737 C   0  0  0  0  0  0  0  0  0  0  0  0
  -27.0444  -29.7273   20.5836 C   0  0  1  0  0  0  0  0  0  0  0  0
  -30.0167  -27.3860   20.8139 C   0  0  2  0  0  0  0  0  0  0  0  0
  -27.4301  -31.2023   20.2783 C   0  0  0  0  0  0  0  0  0  0  0  0
  -25.8645  -11.3001   20.0437 N   0  0  0  0  0  0  0  0  0  0  0  0
  -26.2928  -12.4242   19.4445 N   0  0  0  0  0  0  0  0  0  0  0  0
  -25.1286  -28.5196   21.5810 N   0  0  0  0  0  0  0  0  0  0  0  0
  -29.6824  -13.8258   20.5075 N   0  0  0  0  0  0  0  0  0  0  0  0
  -25.5438  -14.3550   18.2949 N   0  0  0  0  0  0  0  0  0  0  0  0
  -22.0987  -13.7589   19.7677 N   0  0  0  0  0  0  0  0  0  0  0  0
  -29.4137  -16.1674   20.4215 N   0  0  0  0  0  0  0  0  0  0  0  0
  -21.6386  -29.1152   22.4535 N   0  0  0  0  0  0  0  0  0  0  0  0
  -28.1619  -28.8945   21.0148 N   0  0  0  0  0  0  0  0  0  0  0  0
  -26.5306  -20.3770   18.4833 N   0  3  1  0  0  0  0  0  0  0  0  0
  -30.2631  -26.0953   20.1107 N   0  3  0  0  0  0  0  0  0  0  0  0
  -22.2544  -12.6217   17.7823 O   0  0  0  0  0  0  0  0  0  0  0  0
  -22.9530  -29.3789   20.5495 O   0  0  0  0  0  0  0  0  0  0  0  0
  -25.9509  -30.4734   22.5519 O   0  0  0  0  0  0  0  0  0  0  0  0
  -28.7372  -28.1277   18.9034 O   0  0  0  0  0  0  0  0  0  0  0  0
  -31.5270  -15.2121   20.3675 O   0  0  0  0  0  0  0  0  0  0  0  0
  -21.2884   -7.2947   21.9313 O   0  0  0  0  0  0  0  0  0  0  0  0
  -23.9276  -23.0369   19.0216 O   0  0  0  0  0  0  0  0  0  1  0  0
  -23.5348   -3.7845   25.5418 F   0  0  0  0  0  0  0  0  0  0  0  0
  -20.2644   -7.0395   24.4864 F   0  0  0  0  0  0  0  0  0  0  0  0
  1  2  1  0  0  0  0
  1  5  2  0  0  0  0
  2  6  2  0  0  0  0
  3  8  2  0  0  0  0
  3 17  1  0  0  0  0
  4  9  1  0  0  0  0
  4 17  2  0  0  0  0
  5 19  1  0  0  0  0
  6 21  1  0  0  0  0
  7 10  2  0  0  0  0
  7 20  1  0  0  0  0
  8 27  1  0  0  0  0
  9 27  2  0  0  0  0
 10 28  1  0  0  0  0
 11 12  2  0  0  0  0
 11 29  1  0  0  0  0
 12 30  1  0  0  0  0
 13 22  1  0  0  0  0
 13 28  2  0  0  0  0
 14 23  2  0  0  0  0
 14 26  1  0  0  0  0
 15 24  1  0  0  0  0
 15 26  2  0  0  0  0
 16 30  2  0  0  0  0
 16 31  1  0  0  0  0
 17 32  1  0  0  0  0
 18 32  1  0  0  0  0
 18 33  2  0  0  0  0
 18 38  1  0  0  0  0
 19 21  2  0  0  0  0
 19 43  1  0  0  0  0
 20 22  2  0  0  0  0
 20 44  1  0  0  0  0
 21 55  1  0  0  0  0
 22 45  1  0  0  0  0
 23 25  1  0  0  0  0
 23 59  1  0  0  0  0
 24 25  2  0  0  0  0
 24 66  1  0  0  0  0
 25 60  1  0  0  0  0
 26 76  1  0  0  0  0
 27 86  1  0  0  0  0
 28 87  1  0  0  0  0
 29 31  2  0  0  0  0
 29 86  1  0  0  0  0
 30 88  1  0  0  0  0
 31 89  1  0  0  0  0
 32 70  2  0  0  0  0
 33 71  1  0  0  0  0
 33 74  1  0  0  0  0
 34 36  2  0  0  0  0
 34 56  1  0  0  0  0
 34 79  1  0  0  0  0
 35 37  2  0  0  0  0
 36 37  1  0  0  0  0
 38 75  1  0  0  0  0
 38 81  2  0  0  0  0
 39 57  1  0  0  0  0
 39 77  1  0  0  0  0
 39 82  2  0  0  0  0
 40 67  1  0  0  0  0
 40 72  1  0  0  0  0
 40 83  2  0  0  0  0
 41 68  1  0  0  0  0
 41 78  1  0  0  0  0
 41 84  2  0  0  0  0
 42 73  1  0  0  0  0
 42 76  1  0  0  0  0
 42 85  2  0  0  0  0
 43 46  1  0  0  0  0
 44 57  1  0  0  0  0
 45 72  1  0  0  0  0
 46 49  1  0  0  0  0
 47 51  1  0  0  0  0
 47 52  1  0  0  0  0
 48 50  1  0  0  0  0
 48 54  1  0  0  0  0
 49 55  1  0  0  0  0
 50 56  1  0  0  0  0
 51 58  1  0  0  0  0
 52 73  1  0  0  0  0
 53 58  1  0  0  0  0
 53 73  1  0  0  0  0
 54 79  1  0  0  0  0
 55 77  1  0  0  0  0
 56 87  1  0  0  0  0
 57 72  1  0  0  0  0
 58 71  1  0  0  0  0
 61 68  1  0  0  0  0
 62 69  1  0  0  0  0
 63 69  1  0  0  0  0
 64 69  1  0  0  0  0
 65 80  1  0  0  0  0
 66 79  1  0  0  0  0
 67 69  1  0  0  0  0
 67 78  1  0  0  0  0
 68 80  1  0  0  0  0
 70 71  1  0  0  0  0
M  CHG  2  79   1  80   1
M  ISO  4  42 100  56 101  76 100  87 101
M  END
> <Batch ID>
0038

> <Smiles>
C=CC=C1N(Cc2cc([100NH:0][100C:0](=O)N3CCCC(n4nc(-c5ccc(Oc6ccc(F)cc6F)cc5)c(C(N)=O)c4N)C3)cc(C)c2C)CCC[101CH:1]1[101O:1]c1ccc2c(c1)CN(C(=O)C(NC(=O)C(C)NC)C(C)(C)C)C(C(=O)NC1CCCc3ccccc31)C2

> <Shape>
0.312

> <Color>
0.107

> <Negative vol penalty>
0.000

$$$$

  -OEChem-04042322003D

 90 99  0     1  0  0  0  0  0999 V2000
  -30.8165  -23.7667   23.0776 C   0  0  0  0  0  0  0  0  0  0  0  0
  -29.4360  -23.7076   22.9166 C   0  0  0  0  0  0  0  0  0  0  0  0
  -29.9977  -28.2423   19.8836 C   0  0  0  0  0  0  0  0  0  0  0  0
  -29.4135  -27.4850   22.1022 C   0  0  0  0  0  0  0  0  0  0  0  0
  -31.6403  -22.9189   22.3383 C   0  0  0  0  0  0  0  0  0  0  0  0
  -28.8784  -22.8014   22.0152 C   0  0  0  0  0  0  0  0  0  0  0  0
  -24.8794  -20.3605   23.9374 C   0  0  0  0  0  0  0  0  0  0  0  0
  -31.3456  -28.0143   20.1607 C   0  0  0  0  0  0  0  0  0  0  0  0
  -30.7614  -27.2570   22.3793 C   0  0  0  0  0  0  0  0  0  0  0  0
  -23.6700  -21.0530   23.9782 C   0  0  0  0  0  0  0  0  0  0  0  0
  -33.4475  -25.3694   20.2992 C   0  0  0  0  0  0  0  0  0  0  0  0
  -34.2079  -24.7183   19.3279 C   0  0  0  0  0  0  0  0  0  0  0  0
  -22.9495  -19.8999   21.9856 C   0  0  0  0  0  0  0  0  0  0  0  0
  -18.8721  -27.9690   21.3690 C   0  0  0  0  0  0  0  0  0  0  0  0
  -35.6696  -26.6367   19.1864 C   0  0  0  0  0  0  0  0  0  0  0  0
  -29.0316  -27.9777   20.8543 C   0  0  0  0  0  0  0  0  0  0  0  0
  -26.7187  -27.3031   20.0160 C   0  0  0  0  0  0  0  0  0  0  0  0
  -31.0921  -21.9952   21.4345 C   0  0  0  0  0  0  0  0  0  0  0  0
  -25.1377  -19.4390   22.9125 C   0  0  0  0  0  0  0  0  0  0  0  0
  -29.6957  -21.9415   21.2621 C   0  0  0  0  0  0  0  0  0  0  0  0
  -24.1619  -19.1951   21.9355 C   0  0  0  0  0  0  0  0  0  0  0  0
  -19.4877  -28.5135   22.4960 C   0  0  0  0  0  0  0  0  0  0  0  0
  -18.5363  -26.6154   21.3432 C   0  0  0  0  0  0  0  0  0  0  0  0
  -19.7675  -27.7044   23.5972 C   0  0  0  0  0  0  0  0  0  0  0  0
  -19.4317  -26.3508   23.5714 C   0  0  0  0  0  0  0  0  0  0  0  0
  -18.8161  -25.8063   22.4444 C   0  0  0  0  0  0  0  0  0  0  0  0
  -31.7274  -27.5217   21.4085 C   0  0  0  0  0  0  0  0  0  0  0  0
  -22.7060  -20.8249   23.0006 C   0  0  0  0  0  0  0  0  0  0  0  0
  -33.7981  -26.6542   20.7142 C   0  0  0  0  0  0  0  0  0  0  0  0
  -35.3190  -25.3520   18.7715 C   0  0  0  0  0  0  0  0  0  0  0  0
  -34.9092  -27.2878   20.1578 C   0  0  0  0  0  0  0  0  0  0  0  0
  -27.6391  -28.2135   20.5689 C   0  0  0  0  0  0  0  0  0  0  0  0
  -25.5405  -28.0056   19.9464 C   0  0  0  0  0  0  0  0  0  0  0  0
  -26.9114  -25.9439   19.6023 C   0  0  0  0  0  0  0  0  0  0  0  0
  -27.2945  -19.2151   20.5883 C   0  0  0  0  0  0  0  0  0  0  0  0
  -25.9066  -16.3225   20.1099 C   0  0  0  0  0  0  0  0  0  0  0  0
  -23.1539  -14.3361   20.4618 C   0  0  0  0  0  0  0  0  0  0  0  0
  -21.7955  -31.4646   22.2170 C   0  0  0  0  0  0  0  0  0  0  0  0
  -32.0254  -21.1321   20.6229 C   0  0  0  0  0  0  0  0  0  0  0  0
  -26.4365  -18.6805   22.8978 C   0  0  0  0  0  0  0  0  0  0  0  0
  -24.3821  -18.2011   20.8256 C   0  0  0  0  0  0  0  0  0  0  0  0
  -31.3349  -19.9409   19.9637 C   0  0  0  0  0  0  0  0  0  0  0  0
  -24.6029  -32.9340   20.5935 C   0  0  0  0  0  0  0  0  0  0  0  0
  -20.3580  -25.2983   17.4968 C   0  0  0  0  0  0  0  0  0  0  0  0
  -18.9898  -25.0650   16.8883 C   0  0  0  0  0  0  0  0  0  0  0  0
  -30.0395  -20.3810   19.2891 C   0  0  0  0  0  0  0  0  0  0  0  0
  -25.5691  -31.7635   20.4027 C   0  0  0  0  0  0  0  0  0  0  0  0
  -23.8414  -32.8278   21.9129 C   0  0  0  0  0  0  0  0  0  0  0  0
  -24.1046  -30.3775   21.9301 C   0  0  0  0  0  0  0  0  0  0  0  0
  -20.0243  -25.9738   18.8095 C   0  0  0  0  0  0  0  0  0  0  0  0
  -18.1368  -24.6138   18.0609 C   0  0  0  0  0  0  0  0  0  0  0  0
  -29.0519  -20.9547   20.3124 C   0  0  1  0  0  0  0  0  0  0  0  0
  -26.7989  -18.1429   21.5169 C   0  0  1  0  0  0  0  0  0  0  0  0
  -24.8549  -30.4111   20.5876 C   0  0  2  0  0  0  0  0  0  0  0  0
  -20.4277  -28.2910   24.8048 C   0  0  0  0  0  0  0  0  0  0  0  0
  -19.7314  -25.4830   24.7529 C   0  0  0  0  0  0  0  0  0  0  0  0
  -22.3072  -12.0324   19.9389 C   0  0  0  0  0  0  0  0  0  0  0  0
  -25.5266  -17.1272   17.1914 C   0  0  0  0  0  0  0  0  0  0  0  0
  -23.8775  -15.2573   16.9630 C   0  0  0  0  0  0  0  0  0  0  0  0
  -26.2541  -14.7592   17.5343 C   0  0  0  0  0  0  0  0  0  0  0  0
  -22.7593  -13.7051   23.3262 C   0  0  0  0  0  0  0  0  0  0  0  0
  -19.8374  -29.9657   22.4977 C   0  0  0  0  0  0  0  0  0  0  0  0
  -17.8770  -26.0574   20.1244 C   0  0  0  0  0  0  0  0  0  0  0  0
  -18.4545  -24.3505   22.4135 C   0  0  0  0  0  0  0  0  0  0  0  0
  -19.3137  -22.0114   22.2433 C   0  0  0  0  0  0  0  0  0  0  0  0
  -20.5824  -21.2169   22.0042 C   0  0  0  0  0  0  0  0  0  1  0  0
  -24.7555  -15.8138   19.2761 C   0  0  1  0  0  0  0  0  0  0  0  0
  -22.9961  -12.9140   20.9689 C   0  0  2  0  0  0  0  0  0  0  0  0
  -25.0997  -15.7596   17.7609 C   0  0  0  0  0  0  0  0  0  0  0  0
  -27.0927  -29.4036   20.8318 N   0  0  0  0  0  0  0  0  0  0  0  0
  -25.8162  -29.2459   20.4423 N   0  0  0  0  0  0  0  0  0  0  0  0
  -25.6705  -17.4892   20.8508 N   0  0  0  0  0  0  0  0  0  0  0  0
  -23.1857  -31.5226   22.0253 N   0  0  0  0  0  0  0  0  0  0  0  0
  -24.3059  -27.6773   19.5100 N   0  0  0  0  0  0  0  0  0  0  0  0
  -28.1853  -25.3768   19.7434 N   0  0  0  0  0  0  0  0  0  0  0  0
  -28.4104  -19.8871   21.0493 N   0  0  0  0  0  0  0  0  0  0  0  0
  -24.3740  -14.5273   19.8486 N   0  0  0  0  0  0  0  0  0  0  0  0
  -21.2533  -30.1884   22.3068 N   0  0  0  0  0  0  0  0  0  0  0  0
  -18.7942  -25.2304   19.2821 N   0  3  0  0  0  0  0  0  0  0  0  0
  -22.1857  -12.8970   22.2195 N   0  3  0  0  0  0  0  0  0  0  0  0
  -19.6315  -23.4615   22.2185 N   0  3  0  0  0  0  0  0  0  0  0  0
  -25.9855  -25.2580   19.1066 O   0  0  0  0  0  0  0  0  0  0  0  0
  -26.7086  -19.4169   19.5310 O   0  0  0  0  0  0  0  0  0  0  0  0
  -26.9735  -15.7034   20.1096 O   0  0  0  0  0  0  0  0  0  0  0  0
  -22.2805  -15.1908   20.5929 O   0  0  0  0  0  0  0  0  0  0  0  0
  -21.0889  -32.4752   22.2966 O   0  0  0  0  0  0  0  0  0  0  0  0
  -33.0426  -27.2989   21.6792 O   0  0  0  0  0  0  0  0  0  0  0  0
  -21.5250  -21.4999   23.0376 O   0  0  0  0  0  0  0  0  0  1  0  0
  -36.0500  -24.7261   17.8398 F   0  0  0  0  0  0  0  0  0  0  0  0
  -35.2517  -28.5216   20.5532 F   0  0  0  0  0  0  0  0  0  0  0  0
  1  2  1  0  0  0  0
  1  5  2  0  0  0  0
  2  6  2  0  0  0  0
  3  8  2  0  0  0  0
  3 16  1  0  0  0  0
  4  9  1  0  0  0  0
  4 16  2  0  0  0  0
  5 18  1  0  0  0  0
  6 20  1  0  0  0  0
  7 10  2  0  0  0  0
  7 19  1  0  0  0  0
  8 27  1  0  0  0  0
  9 27  2  0  0  0  0
 10 28  1  0  0  0  0
 11 12  2  0  0  0  0
 11 29  1  0  0  0  0
 12 30  1  0  0  0  0
 13 21  1  0  0  0  0
 13 28  2  0  0  0  0
 14 22  1  0  0  0  0
 14 23  2  0  0  0  0
 15 30  2  0  0  0  0
 15 31  1  0  0  0  0
 16 32  1  0  0  0  0
 17 32  1  0  0  0  0
 17 33  2  0  0  0  0
 17 34  1  0  0  0  0
 18 20  2  0  0  0  0
 18 39  1  0  0  0  0
 19 21  2  0  0  0  0
 19 40  1  0  0  0  0
 20 52  1  0  0  0  0
 21 41  1  0  0  0  0
 22 24  2  0  0  0  0
 22 62  1  0  0  0  0
 23 26  1  0  0  0  0
 23 63  1  0  0  0  0
 24 25  1  0  0  0  0
 24 55  1  0  0  0  0
 25 26  2  0  0  0  0
 25 56  1  0  0  0  0
 26 64  1  0  0  0  0
 27 87  1  0  0  0  0
 28 88  1  0  0  0  0
 29 31  2  0  0  0  0
 29 87  1  0  0  0  0
 30 89  1  0  0  0  0
 31 90  1  0  0  0  0
 32 70  2  0  0  0  0
 33 71  1  0  0  0  0
 33 74  1  0  0  0  0
 34 75  1  0  0  0  0
 34 82  2  0  0  0  0
 35 53  1  0  0  0  0
 35 76  1  0  0  0  0
 35 83  2  0  0  0  0
 36 67  1  0  0  0  0
 36 72  1  0  0  0  0
 36 84  2  0  0  0  0
 37 68  1  0  0  0  0
 37 77  1  0  0  0  0
 37 85  2  0  0  0  0
 38 73  1  0  0  0  0
 38 78  1  0  0  0  0
 38 86  2  0  0  0  0
 39 42  1  0  0  0  0
 40 53  1  0  0  0  0
 41 72  1  0  0  0  0
 42 46  1  0  0  0  0
 43 47  1  0  0  0  0
 43 48  1  0  0  0  0
 44 45  1  0  0  0  0
 44 50  1  0  0  0  0
 45 51  1  0  0  0  0
 46 52  1  0  0  0  0
 47 54  1  0  0  0  0
 48 73  1  0  0  0  0
 49 54  1  0  0  0  0
 49 73  1  0  0  0  0
 50 79  1  0  0  0  0
 51 79  1  0  0  0  0
 52 76  1  0  0  0  0
 53 72  1  0  0  0  0
 54 71  1  0  0  0  0
 57 68  1  0  0  0  0
 58 69  1  0  0  0  0
 59 69  1  0  0  0  0
 60 69  1  0  0  0  0
 61 80  1  0  0  0  0
 62 78  1  0  0  0  0
 63 79  1  0  0  0  0
 64 81  1  0  0  0  0
 65 66  1  0  0  0  0
 65 81  1  0  0  0  0
 66 88  1  0  0  0  0
 67 69  1  0  0  0  0
 67 77  1  0  0  0  0
 68 80  1  0  0  0  0
 70 71  1  0  0  0  0
M  CHG  3  79   1  80   1  81   1
M  ISO  4  38 100  66 101  78 100  88 101
M  END
> <Batch ID>
0038

> <Smiles>
CNC(C)C(=O)NC(C(=O)N1Cc2cc([101O:1][101CH2:1]CNCc3c(CN4CCCC4)cc(C[100NH:0][100C:0](=O)N4CCCC(n5nc(-c6ccc(Oc7ccc(F)cc7F)cc6)c(C(N)=O)c5N)C4)c(C)c3C)ccc2CC1C(=O)NC1CCCc2ccccc21)C(C)(C)C

> <Shape>
0.203

> <Color>
0.069

> <Negative vol penalty>
0.000

$$$$

  -OEChem-04042322003D

 88 97  0     1  0  0  0  0  0999 V2000
  -24.1464  -35.3406   22.1654 C   0  0  0  0  0  0  0  0  0  0  0  0
  -24.9976  -34.2453   22.0605 C   0  0  0  0  0  0  0  0  0  0  0  0
  -24.9072  -13.6754   21.2237 C   0  0  0  0  0  0  0  0  0  0  0  0
  -26.7160  -13.0545   19.7472 C   0  0  0  0  0  0  0  0  0  0  0  0
  -22.8874  -35.1906   22.7454 C   0  0  0  0  0  0  0  0  0  0  0  0
  -24.5907  -32.9994   22.5366 C   0  0  0  0  0  0  0  0  0  0  0  0
  -25.6530  -29.2447   19.3087 C   0  0  0  0  0  0  0  0  0  0  0  0
  -24.6960  -12.3312   21.5302 C   0  0  0  0  0  0  0  0  0  0  0  0
  -26.5048  -11.7102   20.0538 C   0  0  0  0  0  0  0  0  0  0  0  0
  -26.9710  -28.7916   19.2705 C   0  0  0  0  0  0  0  0  0  0  0  0
  -23.2067   -9.6550   20.1005 C   0  0  0  0  0  0  0  0  0  0  0  0
  -21.8908   -9.1925   20.1113 C   0  0  0  0  0  0  0  0  0  0  0  0
  -26.3622  -26.9216   20.6675 C   0  0  0  0  0  0  0  0  0  0  0  0
  -27.6560  -21.8461   24.6319 C   0  0  0  0  0  0  0  0  0  0  0  0
  -29.7398  -23.0079   24.2515 C   0  0  0  0  0  0  0  0  0  0  0  0
  -22.1276   -8.5733   22.4346 C   0  0  0  0  0  0  0  0  0  0  0  0
  -25.9172  -14.0371   20.3321 C   0  0  0  0  0  0  0  0  0  0  0  0
  -25.2171  -16.3186   19.4309 C   0  0  0  0  0  0  0  0  0  0  0  0
  -22.4611  -33.9402   23.2201 C   0  0  0  0  0  0  0  0  0  0  0  0
  -24.6804  -28.5444   20.0367 C   0  0  0  0  0  0  0  0  0  0  0  0
  -23.3254  -32.8328   23.1247 C   0  0  0  0  0  0  0  0  0  0  0  0
  -25.0320  -27.3664   20.7112 C   0  0  0  0  0  0  0  0  0  0  0  0
  -29.0444  -21.8246   24.4999 C   0  0  0  0  0  0  0  0  0  0  0  0
  -26.9629  -23.0509   24.5152 C   0  0  0  0  0  0  0  0  0  0  0  0
  -29.0467  -24.2128   24.1349 C   0  0  0  0  0  0  0  0  0  0  0  0
  -27.6583  -24.2343   24.2668 C   0  0  0  0  0  0  0  0  0  0  0  0
  -25.4948  -11.3486   20.9454 C   0  0  0  0  0  0  0  0  0  0  0  0
  -27.3264  -27.6315   19.9523 C   0  0  0  0  0  0  0  0  0  0  0  0
  -23.9831   -9.5765   21.2567 C   0  0  0  0  0  0  0  0  0  0  0  0
  -21.3512   -8.6517   21.2784 C   0  0  0  0  0  0  0  0  0  0  0  0
  -23.4435   -9.0357   22.4237 C   0  0  0  0  0  0  0  0  0  0  0  0
  -26.1355  -15.4255   20.0145 C   0  0  0  0  0  0  0  0  0  0  0  0
  -25.9031  -17.5049   19.3387 C   0  0  0  0  0  0  0  0  0  0  0  0
  -29.7278  -25.6601   21.4482 C   0  0  0  0  0  0  0  0  0  0  0  0
  -29.3866  -24.5885   20.7135 C   0  0  0  0  0  0  0  0  0  0  0  0
  -23.8648  -16.0959   19.0099 C   0  0  0  0  0  0  0  0  0  0  0  0
  -22.8171  -29.2230   22.5210 C   0  0  0  0  0  0  0  0  0  0  0  0
  -21.5378  -26.3167   21.8586 C   0  0  0  0  0  0  0  0  0  0  0  0
  -22.7586  -23.0553   20.9151 C   0  0  0  0  0  0  0  0  0  0  0  0
  -30.5298  -19.7865   22.3783 C   0  0  0  0  0  0  0  0  0  0  0  0
  -21.1099  -33.8372   23.8821 C   0  0  0  0  0  0  0  0  0  0  0  0
  -23.2574  -29.0316   20.0460 C   0  0  0  0  0  0  0  0  0  0  0  0
  -24.0212  -26.5669   21.4906 C   0  0  0  0  0  0  0  0  0  0  0  0
  -20.6081  -32.4023   24.0223 C   0  0  0  0  0  0  0  0  0  0  0  0
  -30.3369  -19.2394   18.8654 C   0  0  0  0  0  0  0  0  0  0  0  0
  -31.3842  -27.8093   22.3737 C   0  0  0  0  0  0  0  0  0  0  0  0
  -21.7129  -31.5009   24.5641 C   0  0  0  0  0  0  0  0  0  0  0  0
  -30.5092  -28.0082   21.1412 C   0  0  0  0  0  0  0  0  0  0  0  0
  -29.1554  -18.2804   18.7089 C   0  0  0  0  0  0  0  0  0  0  0  0
  -31.1400  -18.9437   20.1302 C   0  0  0  0  0  0  0  0  0  0  0  0
  -29.1651  -17.9469   21.2164 C   0  0  0  0  0  0  0  0  0  0  0  0
  -31.7908  -26.3486   22.5384 C   0  0  0  0  0  0  0  0  0  0  0  0
  -22.9103  -31.4597   23.6070 C   0  0  1  0  0  0  0  0  0  0  0  0
  -29.2952  -27.0806   21.1623 C   0  0  1  0  0  0  0  0  0  1  0  0
  -22.4589  -28.5213   21.2415 C   0  0  1  0  0  0  0  0  0  0  0  0
  -28.2923  -18.2413   19.9844 C   0  0  2  0  0  0  0  0  0  0  0  0
  -25.4762  -23.0469   24.6618 C   0  0  0  0  0  0  0  0  0  0  0  0
  -26.9149  -25.5261   24.1423 C   0  0  0  0  0  0  0  0  0  0  0  0
  -21.6506  -21.2082   19.6273 C   0  0  0  0  0  0  0  0  0  0  0  0
  -20.7576  -25.2574   24.6116 C   0  0  0  0  0  0  0  0  0  0  0  0
  -21.1716  -22.9397   23.7602 C   0  0  0  0  0  0  0  0  0  0  0  0
  -19.3960  -24.3499   22.7204 C   0  0  0  0  0  0  0  0  0  0  0  0
  -24.9648  -22.9481   18.9453 C   0  0  0  0  0  0  0  0  0  0  0  0
  -29.7854  -20.5363   24.6239 C   0  0  0  0  0  0  0  0  0  0  0  0
  -29.8181  -25.4716   23.8676 C   0  0  0  0  0  0  0  0  0  0  0  0
  -21.8259  -24.8986   22.2887 C   0  0  1  0  0  0  0  0  0  0  0  0
  -22.6101  -22.3862   19.5605 C   0  0  2  0  0  0  0  0  0  0  0  0
  -20.8083  -24.3811   23.3441 C   0  0  0  0  0  0  0  0  0  0  0  0
  -27.3151  -15.9955   20.2745 N   0  0  0  0  0  0  0  0  0  0  0  0
  -27.1426  -17.2597   19.8523 N   0  0  0  0  0  0  0  0  0  0  0  0
  -22.6442  -27.0876   21.4746 N   0  0  0  0  0  0  0  0  0  0  0  0
  -30.2632  -18.9223   21.3035 N   0  0  0  0  0  0  0  0  0  0  0  0
  -25.5611  -18.7235   18.8691 N   0  0  0  0  0  0  0  0  0  0  0  0
  -23.6359  -15.6728   17.6935 N   0  0  0  0  0  0  0  0  0  0  0  0
  -22.6298  -30.5916   22.4835 N   0  0  0  0  0  0  0  0  0  0  0  0
  -21.8756  -24.1035   21.0665 N   0  0  0  0  0  0  0  0  0  0  0  0
  -29.6464  -19.7067   23.4478 N   0  0  0  0  0  0  0  0  0  0  0  0
  -30.5959  -25.4243   22.5812 N   0  3  1  0  0  0  0  0  0  0  0  0
  -23.9308  -21.8900   19.0804 N   0  3  0  0  0  0  0  0  0  0  0  0
  -22.8872  -16.2828   19.7735 O   0  0  0  0  0  0  0  0  0  0  0  0
  -23.2314  -28.5709   23.4722 O   0  0  0  0  0  0  0  0  0  0  0  0
  -20.3731  -26.7232   21.8564 O   0  0  0  0  0  0  0  0  0  0  0  0
  -23.5735  -22.6827   21.7563 O   0  0  0  0  0  0  0  0  0  0  0  0
  -31.4814  -20.5748   22.3820 O   0  0  0  0  0  0  0  0  0  0  0  0
  -25.2891  -10.0368   21.2445 O   0  0  0  0  0  0  0  0  0  0  0  0
  -28.6122  -27.1874   19.9173 O   0  0  0  0  0  0  0  0  0  1  0  0
  -20.0870   -8.2091   21.2891 F   0  0  0  0  0  0  0  0  0  0  0  0
  -24.1842   -8.9588   23.5379 F   0  0  0  0  0  0  0  0  0  0  0  0
  1  2  1  0  0  0  0
  1  5  2  0  0  0  0
  2  6  2  0  0  0  0
  3  8  2  0  0  0  0
  3 17  1  0  0  0  0
  4  9  1  0  0  0  0
  4 17  2  0  0  0  0
  5 19  1  0  0  0  0
  6 21  1  0  0  0  0
  7 10  2  0  0  0  0
  7 20  1  0  0  0  0
  8 27  1  0  0  0  0
  9 27  2  0  0  0  0
 10 28  1  0  0  0  0
 11 12  2  0  0  0  0
 11 29  1  0  0  0  0
 12 30  1  0  0  0  0
 13 22  1  0  0  0  0
 13 28  2  0  0  0  0
 14 23  1  0  0  0  0
 14 24  2  0  0  0  0
 15 23  2  0  0  0  0
 15 25  1  0  0  0  0
 16 30  2  0  0  0  0
 16 31  1  0  0  0  0
 17 32  1  0  0  0  0
 18 32  1  0  0  0  0
 18 33  2  0  0  0  0
 18 36  1  0  0  0  0
 19 21  2  0  0  0  0
 19 41  1  0  0  0  0
 20 22  2  0  0  0  0
 20 42  1  0  0  0  0
 21 53  1  0  0  0  0
 22 43  1  0  0  0  0
 23 64  1  0  0  0  0
 24 26  1  0  0  0  0
 24 57  1  0  0  0  0
 25 26  2  0  0  0  0
 25 65  1  0  0  0  0
 26 58  1  0  0  0  0
 27 85  1  0  0  0  0
 28 86  1  0  0  0  0
 29 31  2  0  0  0  0
 29 85  1  0  0  0  0
 30 87  1  0  0  0  0
 31 88  1  0  0  0  0
 32 69  2  0  0  0  0
 33 70  1  0  0  0  0
 33 73  1  0  0  0  0
 34 35  2  0  0  0  0
 34 54  1  0  0  0  0
 34 78  1  0  0  0  0
 36 74  1  0  0  0  0
 36 80  2  0  0  0  0
 37 55  1  0  0  0  0
 37 75  1  0  0  0  0
 37 81  2  0  0  0  0
 38 66  1  0  0  0  0
 38 71  1  0  0  0  0
 38 82  2  0  0  0  0
 39 67  1  0  0  0  0
 39 76  1  0  0  0  0
 39 83  2  0  0  0  0
 40 72  1  0  0  0  0
 40 77  1  0  0  0  0
 40 84  2  0  0  0  0
 41 44  1  0  0  0  0
 42 55  1  0  0  0  0
 43 71  1  0  0  0  0
 44 47  1  0  0  0  0
 45 49  1  0  0  0  0
 45 50  1  0  0  0  0
 46 48  1  0  0  0  0
 46 52  1  0  0  0  0
 47 53  1  0  0  0  0
 48 54  1  0  0  0  0
 49 56  1  0  0  0  0
 50 72  1  0  0  0  0
 51 56  1  0  0  0  0
 51 72  1  0  0  0  0
 52 78  1  0  0  0  0
 53 75  1  0  0  0  0
 54 86  1  0  0  0  0
 55 71  1  0  0  0  0
 56 70  1  0  0  0  0
 59 67  1  0  0  0  0
 60 68  1  0  0  0  0
 61 68  1  0  0  0  0
 62 68  1  0  0  0  0
 63 79  1  0  0  0  0
 64 77  1  0  0  0  0
 65 78  1  0  0  0  0
 66 68  1  0  0  0  0
 66 76  1  0  0  0  0
 67 79  1  0  0  0  0
 69 70  1  0  0  0  0
M  CHG  2  78   1  79   1
M  ISO  4  40 100  54 101  77 100  86 101
M  END
> <Batch ID>
0038

> <Smiles>
C=C1N(Cc2cc(C[100NH:0][100C:0](=O)N3CCCC(n4nc(-c5ccc(Oc6ccc(F)cc6F)cc5)c(C(N)=O)c4N)C3)cc(C)c2C)CCC[101CH:1]1[101O:1]c1ccc2c(c1)CN(C(=O)C(NC(=O)C(C)NC)C(C)(C)C)C(C(=O)NC1CCCc3ccccc31)C2

> <Shape>
0.218

> <Color>
0.081

> <Negative vol penalty>
0.000

$$$$

  -OEChem-04042322003D

 88 97  0     1  0  0  0  0  0999 V2000
  -21.7031  -32.9267   14.9961 C   0  0  0  0  0  0  0  0  0  0  0  0
  -22.7831  -32.0949   15.2737 C   0  0  0  0  0  0  0  0  0  0  0  0
  -22.3017  -10.3866   22.3142 C   0  0  0  0  0  0  0  0  0  0  0  0
  -24.0471   -9.9694   20.6966 C   0  0  0  0  0  0  0  0  0  0  0  0
  -21.3281  -33.9093   15.9114 C   0  0  0  0  0  0  0  0  0  0  0  0
  -23.4895  -32.2459   16.4664 C   0  0  0  0  0  0  0  0  0  0  0  0
  -24.4574  -27.8180   18.7251 C   0  0  0  0  0  0  0  0  0  0  0  0
  -21.8750   -9.0640   22.1949 C   0  0  0  0  0  0  0  0  0  0  0  0
  -23.6204   -8.6467   20.5774 C   0  0  0  0  0  0  0  0  0  0  0  0
  -25.5049  -27.0558   18.2097 C   0  0  0  0  0  0  0  0  0  0  0  0
  -22.8269   -6.0269   23.3363 C   0  0  0  0  0  0  0  0  0  0  0  0
  -22.5413   -5.3296   24.5101 C   0  0  0  0  0  0  0  0  0  0  0  0
  -26.9436  -27.8498   19.9757 C   0  0  0  0  0  0  0  0  0  0  0  0
  -27.9535  -19.9730   20.2532 C   0  0  0  0  0  0  0  0  0  0  0  0
  -29.6098  -19.5237   22.4526 C   0  0  0  0  0  0  0  0  0  0  0  0
  -20.2677   -5.0012   23.7616 C   0  0  0  0  0  0  0  0  0  0  0  0
  -23.3877  -10.8393   21.5650 C   0  0  0  0  0  0  0  0  0  0  0  0
  -24.2860  -12.8502   22.8523 C   0  0  0  0  0  0  0  0  0  0  0  0
  -22.0242  -34.0661   17.1203 C   0  0  0  0  0  0  0  0  0  0  0  0
  -24.6486  -28.6116   19.8653 C   0  0  0  0  0  0  0  0  0  0  0  0
  -23.1243  -33.2324   17.3982 C   0  0  0  0  0  0  0  0  0  0  0  0
  -25.8963  -28.6191   20.5051 C   0  0  0  0  0  0  0  0  0  0  0  0
  -28.4852  -21.0529   20.9579 C   0  0  0  0  0  0  0  0  0  0  0  0
  -29.3134  -20.8283   22.0576 C   0  0  0  0  0  0  0  0  0  0  0  0
  -28.2498  -18.6684   20.6482 C   0  0  0  0  0  0  0  0  0  0  0  0
  -22.5343   -8.1941   21.3265 C   0  0  0  0  0  0  0  0  0  0  0  0
  -26.7490  -27.0739   18.8332 C   0  0  0  0  0  0  0  0  0  0  0  0
  -21.8330   -6.2115   22.3752 C   0  0  0  0  0  0  0  0  0  0  0  0
  -21.2617   -4.8167   24.7227 C   0  0  0  0  0  0  0  0  0  0  0  0
  -20.5534   -5.6986   22.5878 C   0  0  0  0  0  0  0  0  0  0  0  0
  -29.0780  -18.4438   21.7479 C   0  0  0  0  0  0  0  0  0  0  0  0
  -23.8286  -12.2056   21.6873 C   0  0  0  0  0  0  0  0  0  0  0  0
  -24.5809  -14.1281   22.4443 C   0  0  0  0  0  0  0  0  0  0  0  0
  -28.1945  -23.9511   18.6104 C   0  0  0  0  0  0  0  0  0  0  0  0
  -27.4924  -23.6427   17.5075 C   0  0  0  0  0  0  0  0  0  0  0  0
  -24.4314  -12.3395   24.1841 C   0  0  0  0  0  0  0  0  0  0  0  0
  -24.4899  -31.7255   20.4833 C   0  0  0  0  0  0  0  0  0  0  0  0
  -24.9533  -30.7461   23.5407 C   0  0  0  0  0  0  0  0  0  0  0  0
  -27.0070  -28.3185   25.2456 C   0  0  0  0  0  0  0  0  0  0  0  0
  -26.8499  -17.6773   18.8031 C   0  0  0  0  0  0  0  0  0  0  0  0
  -21.6113  -35.1733   18.0575 C   0  0  0  0  0  0  0  0  0  0  0  0
  -23.5010  -29.4072   20.4244 C   0  0  0  0  0  0  0  0  0  0  0  0
  -26.1475  -29.4385   21.7436 C   0  0  0  0  0  0  0  0  0  0  0  0
  -22.1787  -35.0220   19.4665 C   0  0  0  0  0  0  0  0  0  0  0  0
  -23.5573  -16.5182   18.1013 C   0  0  0  0  0  0  0  0  0  0  0  0
  -30.5159  -24.5532   20.1814 C   0  0  0  0  0  0  0  0  0  0  0  0
  -23.6650  -34.6836   19.4100 C   0  0  0  0  0  0  0  0  0  0  0  0
  -29.8099  -25.6696   19.4201 C   0  0  0  0  0  0  0  0  0  0  0  0
  -23.3720  -15.3459   19.0675 C   0  0  0  0  0  0  0  0  0  0  0  0
  -24.9867  -16.5926   17.5674 C   0  0  0  0  0  0  0  0  0  0  0  0
  -25.8487  -15.4332   19.5629 C   0  0  0  0  0  0  0  0  0  0  0  0
  -30.3382  -23.2068   19.4873 C   0  0  0  0  0  0  0  0  0  0  0  0
  -23.9001  -33.3490   18.6923 C   0  0  1  0  0  0  0  0  0  0  0  0
  -28.3359  -25.3417   19.1874 C   0  0  1  0  0  0  0  0  0  1  0  0
  -23.9524  -30.5785   21.2914 C   0  0  1  0  0  0  0  0  0  0  0  0
  -24.4415  -15.3558   20.1773 C   0  0  2  0  0  0  0  0  0  0  0  0
  -29.8940  -21.9687   22.8276 C   0  0  0  0  0  0  0  0  0  0  0  0
  -27.3702  -22.2632   16.9614 C   0  0  0  0  0  0  0  0  0  0  0  0
  -26.6398  -27.1033   27.4103 C   0  0  0  0  0  0  0  0  0  0  0  0
  -26.5833  -33.0196   24.7590 C   0  0  0  0  0  0  0  0  0  0  0  0
  -27.6620  -31.3422   26.2725 C   0  0  0  0  0  0  0  0  0  0  0  0
  -25.2013  -31.7321   26.3981 C   0  0  0  0  0  0  0  0  0  0  0  0
  -27.3435  -25.6771   23.9538 C   0  0  0  0  0  0  0  0  0  0  0  0
  -28.1493  -22.4468   20.5163 C   0  0  0  0  0  0  0  0  0  0  0  0
  -26.1606  -30.4964   24.4120 C   0  0  1  0  0  0  0  0  0  0  0  0
  -26.5396  -27.0283   25.8946 C   0  0  2  0  0  0  0  0  0  0  0  0
  -26.4029  -31.6444   25.4321 C   0  0  0  0  0  0  0  0  0  0  0  0
  -23.8308  -13.0079   20.6194 N   0  0  0  0  0  0  0  0  0  0  0  0
  -24.2931  -14.1698   21.1118 N   0  0  0  0  0  0  0  0  0  0  0  0
  -24.9958  -30.2044   22.2482 N   0  0  0  0  0  0  0  0  0  0  0  0
  -25.9447  -16.6026   18.6752 N   0  0  0  0  0  0  0  0  0  0  0  0
  -25.0556  -15.2090   23.0990 N   0  0  0  0  0  0  0  0  0  0  0  0
  -25.6519  -11.7527   24.5451 N   0  0  0  0  0  0  0  0  0  0  0  0
  -27.6903  -17.5942   19.9128 N   0  0  0  0  0  0  0  0  0  0  0  0
  -23.5897  -32.2413   19.5705 N   0  0  0  0  0  0  0  0  0  0  0  0
  -25.9594  -29.1869   25.0228 N   0  0  0  0  0  0  0  0  0  0  0  0
  -28.8825  -22.8632   19.2708 N   0  3  1  0  0  0  0  0  0  0  0  0
  -27.3685  -25.8823   25.4250 N   0  3  0  0  0  0  0  0  0  0  0  0
  -23.5008  -12.3868   25.0239 O   0  0  0  0  0  0  0  0  0  0  0  0
  -25.6360  -32.1148   20.6747 O   0  0  0  0  0  0  0  0  0  0  0  0
  -24.0044  -31.3917   23.9928 O   0  0  0  0  0  0  0  0  0  0  0  0
  -28.1843  -28.5359   24.9677 O   0  0  0  0  0  0  0  0  0  0  0  0
  -26.8591  -18.6167   18.0036 O   0  0  0  0  0  0  0  0  0  0  0  0
  -22.1184   -6.9033   21.2101 O   0  0  0  0  0  0  0  0  0  0  0  0
  -27.7733  -26.3314   18.3318 O   0  0  0  0  0  0  0  0  0  1  0  0
  -20.9879   -4.1458   25.8492 F   0  0  0  0  0  0  0  0  0  0  0  0
  -19.5947   -5.8716   21.6676 F   0  0  0  0  0  0  0  0  0  0  0  0
  -29.4711  -16.8445   22.2708 Cl  0  0  0  0  0  0  0  0  0  0  0  0
  1  2  1  0  0  0  0
  1  5  2  0  0  0  0
  2  6  2  0  0  0  0
  3  8  2  0  0  0  0
  3 17  1  0  0  0  0
  4  9  1  0  0  0  0
  4 17  2  0  0  0  0
  5 19  1  0  0  0  0
  6 21  1  0  0  0  0
  7 10  2  0  0  0  0
  7 20  1  0  0  0  0
  8 26  1  0  0  0  0
  9 26  2  0  0  0  0
 10 27  1  0  0  0  0
 11 12  2  0  0  0  0
 11 28  1  0  0  0  0
 12 29  1  0  0  0  0
 13 22  1  0  0  0  0
 13 27  2  0  0  0  0
 14 23  1  0  0  0  0
 14 25  2  0  0  0  0
 15 24  1  0  0  0  0
 15 31  2  0  0  0  0
 16 29  2  0  0  0  0
 16 30  1  0  0  0  0
 17 32  1  0  0  0  0
 18 32  1  0  0  0  0
 18 33  2  0  0  0  0
 18 36  1  0  0  0  0
 19 21  2  0  0  0  0
 19 41  1  0  0  0  0
 20 22  2  0  0  0  0
 20 42  1  0  0  0  0
 21 53  1  0  0  0  0
 22 43  1  0  0  0  0
 23 24  2  0  0  0  0
 23 64  1  0  0  0  0
 24 57  1  0  0  0  0
 25 31  1  0  0  0  0
 25 74  1  0  0  0  0
 26 84  1  0  0  0  0
 27 85  1  0  0  0  0
 28 30  2  0  0  0  0
 28 84  1  0  0  0  0
 29 86  1  0  0  0  0
 30 87  1  0  0  0  0
 31 88  1  0  0  0  0
 32 68  2  0  0  0  0
 33 69  1  0  0  0  0
 33 72  1  0  0  0  0
 34 35  2  0  0  0  0
 34 54  1  0  0  0  0
 34 77  1  0  0  0  0
 35 58  1  0  0  0  0
 36 73  1  0  0  0  0
 36 79  2  0  0  0  0
 37 55  1  0  0  0  0
 37 75  1  0  0  0  0
 37 80  2  0  0  0  0
 38 65  1  0  0  0  0
 38 70  1  0  0  0  0
 38 81  2  0  0  0  0
 39 66  1  0  0  0  0
 39 76  1  0  0  0  0
 39 82  2  0  0  0  0
 40 71  1  0  0  0  0
 40 74  1  0  0  0  0
 40 83  2  0  0  0  0
 41 44  1  0  0  0  0
 42 55  1  0  0  0  0
 43 70  1  0  0  0  0
 44 47  1  0  0  0  0
 45 49  1  0  0  0  0
 45 50  1  0  0  0  0
 46 48  1  0  0  0  0
 46 52  1  0  0  0  0
 47 53  1  0  0  0  0
 48 54  1  0  0  0  0
 49 56  1  0  0  0  0
 50 71  1  0  0  0  0
 51 56  1  0  0  0  0
 51 71  1  0  0  0  0
 52 77  1  0  0  0  0
 53 75  1  0  0  0  0
 54 85  1  0  0  0  0
 55 70  1  0  0  0  0
 56 69  1  0  0  0  0
 59 66  1  0  0  0  0
 60 67  1  0  0  0  0
 61 67  1  0  0  0  0
 62 67  1  0  0  0  0
 63 78  1  0  0  0  0
 64 77  1  0  0  0  0
 65 67  1  0  0  0  0
 65 76  1  0  0  0  0
 66 78  1  0  0  0  0
 68 69  1  0  0  0  0
M  CHG  2  77   1  78   1
M  ISO  4  40 100  54 101  74 100  85 101
M  END
> <Batch ID>
0038

> <Smiles>
CC=C1N(Cc2cc([100NH:0][100C:0](=O)N3CCCC(n4nc(-c5ccc(Oc6ccc(F)cc6F)cc5)c(C(N)=O)c4N)C3)c(Cl)cc2C)CCC[101CH:1]1[101O:1]c1ccc2c(c1)CN(C(=O)C(NC(=O)C(C)NC)C(C)(C)C)C(C(=O)NC1CCCc3ccccc31)C2

> <Shape>
0.278

> <Color>
0.090

> <Negative vol penalty>
0.000

$$$$

  -OEChem-04042322003D

 84 92  0     1  0  0  0  0  0999 V2000
  -27.9850  -24.6173   16.8752 C   0  0  0  0  0  0  0  0  0  0  0  0
  -26.8048  -24.8392   17.5776 C   0  0  0  0  0  0  0  0  0  0  0  0
  -25.8421  -12.1691   19.9633 C   0  0  0  0  0  0  0  0  0  0  0  0
  -24.2007  -12.9081   21.5748 C   0  0  0  0  0  0  0  0  0  0  0  0
  -29.1909  -25.1170   17.3650 C   0  0  0  0  0  0  0  0  0  0  0  0
  -26.8301  -25.5601   18.7709 C   0  0  0  0  0  0  0  0  0  0  0  0
  -23.1039  -28.9777   19.0553 C   0  0  0  0  0  0  0  0  0  0  0  0
  -26.0185  -10.9883   20.6845 C   0  0  0  0  0  0  0  0  0  0  0  0
  -24.3771  -11.7272   22.2960 C   0  0  0  0  0  0  0  0  0  0  0  0
  -21.8312  -28.5069   19.3750 C   0  0  0  0  0  0  0  0  0  0  0  0
  -24.1314   -8.7486   24.3661 C   0  0  0  0  0  0  0  0  0  0  0  0
  -22.9895   -8.0863   24.8167 C   0  0  0  0  0  0  0  0  0  0  0  0
  -22.1511  -29.2115   21.6598 C   0  0  0  0  0  0  0  0  0  0  0  0
  -22.0744  -21.9317   23.3732 C   0  0  0  0  0  0  0  0  0  0  0  0
  -24.2485  -22.6458   21.7776 C   0  0  0  0  0  0  0  0  0  0  0  0
  -22.2307   -7.8428   22.5359 C   0  0  0  0  0  0  0  0  0  0  0  0
  -24.9333  -13.1291   20.4086 C   0  0  0  0  0  0  0  0  0  0  0  0
  -23.8326  -14.5809   18.6230 C   0  0  0  0  0  0  0  0  0  0  0  0
  -29.2295  -25.8527   18.5600 C   0  0  0  0  0  0  0  0  0  0  0  0
  -23.9154  -29.5601   20.0395 C   0  0  0  0  0  0  0  0  0  0  0  0
  -28.0378  -26.0690   19.2779 C   0  0  0  0  0  0  0  0  0  0  0  0
  -23.4327  -29.6913   21.3494 C   0  0  0  0  0  0  0  0  0  0  0  0
  -22.1871  -23.2357   22.8912 C   0  0  0  0  0  0  0  0  0  0  0  0
  -24.1357  -21.3418   22.2597 C   0  0  0  0  0  0  0  0  0  0  0  0
  -25.2859  -10.7673   21.8508 C   0  0  0  0  0  0  0  0  0  0  0  0
  -21.3557  -28.6212   20.6781 C   0  0  0  0  0  0  0  0  0  0  0  0
  -24.3230   -8.9580   23.0004 C   0  0  0  0  0  0  0  0  0  0  0  0
  -22.0392   -7.6334   23.9016 C   0  0  0  0  0  0  0  0  0  0  0  0
  -23.3726   -8.5051   22.0853 C   0  0  0  0  0  0  0  0  0  0  0  0
  -23.0487  -20.9847   23.0575 C   0  0  0  0  0  0  0  0  0  0  0  0
  -23.2741  -23.5928   22.0934 C   0  0  0  0  0  0  0  0  0  0  0  0
  -24.7511  -14.3494   19.6644 C   0  0  0  0  0  0  0  0  0  0  0  0
  -24.0548  -15.8848   18.2527 C   0  0  0  0  0  0  0  0  0  0  0  0
  -22.8649  -13.6965   18.0423 C   0  0  0  0  0  0  0  0  0  0  0  0
  -26.7404  -28.8626   21.3189 C   0  0  0  0  0  0  0  0  0  0  0  0
  -26.3313  -31.7133   22.8117 C   0  0  0  0  0  0  0  0  0  0  0  0
  -24.1804  -34.1122   23.9367 C   0  0  0  0  0  0  0  0  0  0  0  0
  -26.2732  -20.6255   21.1352 C   0  0  0  0  0  0  0  0  0  0  0  0
  -30.5637  -26.3324   19.0744 C   0  0  0  0  0  0  0  0  0  0  0  0
  -25.2755  -30.0872   19.6725 C   0  0  0  0  0  0  0  0  0  0  0  0
  -24.2566  -30.3270   22.4382 C   0  0  0  0  0  0  0  0  0  0  0  0
  -30.4502  -27.4069   20.1527 C   0  0  0  0  0  0  0  0  0  0  0  0
  -27.5062  -19.2018   18.1137 C   0  0  0  0  0  0  0  0  0  0  0  0
  -29.4107  -27.0088   21.1957 C   0  0  0  0  0  0  0  0  0  0  0  0
  -26.8513  -17.8193   18.0706 C   0  0  0  0  0  0  0  0  0  0  0  0
  -27.8816  -19.6074   19.5379 C   0  0  0  0  0  0  0  0  0  0  0  0
  -26.1333  -18.1444   20.4718 C   0  0  0  0  0  0  0  0  0  0  0  0
  -28.0208  -26.8675   20.5633 C   0  0  1  0  0  0  0  0  0  0  0  0
  -26.2165  -30.1968   20.8683 C   0  0  1  0  0  0  0  0  0  0  0  0
  -25.6785  -17.7200   19.0658 C   0  0  2  0  0  0  0  0  0  0  0  0
  -24.1389  -36.3079   25.1510 C   0  0  0  0  0  0  0  0  0  0  0  0
  -26.8256  -30.2611   25.4493 C   0  0  0  0  0  0  0  0  0  0  0  0
  -25.8515  -32.2368   26.6393 C   0  0  0  0  0  0  0  0  0  0  0  0
  -27.9205  -32.5025   25.2713 C   0  0  0  0  0  0  0  0  0  0  0  0
  -22.9626  -35.5004   21.6240 C   0  0  0  0  0  0  0  0  0  0  0  0
  -21.1179  -24.2241   23.2530 C   0  0  0  0  0  0  0  0  0  0  0  0
  -18.6694  -26.2512   21.1183 C   0  0  0  0  0  0  0  0  0  0  0  0
  -19.3125  -25.7189   22.3900 C   0  0  0  0  0  0  0  0  0  0  0  0
  -19.6208  -27.0545   20.2400 C   0  0  0  0  0  0  0  0  0  1  0  0
  -25.7016  -32.1601   24.1090 C   0  0  1  0  0  0  0  0  0  0  0  0
  -24.1931  -35.6235   23.7941 C   0  0  2  0  0  0  0  0  0  0  0  0
  -26.5598  -31.7764   25.3474 C   0  0  0  0  0  0  0  0  0  0  0  0
  -25.5011  -15.4202   19.9380 N   0  0  0  0  0  0  0  0  0  0  0  0
  -25.0542  -16.3372   19.0630 N   0  0  0  0  0  0  0  0  0  0  0  0
  -25.5823  -30.8213   22.0311 N   0  0  0  0  0  0  0  0  0  0  0  0
  -26.7207  -19.4925   20.4233 N   0  0  0  0  0  0  0  0  0  0  0  0
  -23.4909  -16.6769   17.3162 N   0  0  0  0  0  0  0  0  0  0  0  0
  -22.7686  -12.3906   18.5420 N   0  0  0  0  0  0  0  0  0  0  0  0
  -25.1418  -20.4038   21.9197 N   0  0  0  0  0  0  0  0  0  0  0  0
  -27.4312  -28.1705   20.3425 N   0  0  0  0  0  0  0  0  0  0  0  0
  -25.4568  -33.5918   23.9720 N   0  0  0  0  0  0  0  0  0  0  0  0
  -23.0225  -36.0779   22.9914 N   0  3  0  0  0  0  0  0  0  0  0  0
  -20.4175  -24.7867   22.0654 N   0  3  0  0  0  0  0  0  0  0  0  0
  -22.1194  -14.0486   17.0970 O   0  0  0  0  0  0  0  0  0  0  0  0
  -26.5345  -28.4893   22.4678 O   0  0  0  0  0  0  0  0  0  0  0  0
  -27.4435  -32.1455   22.4990 O   0  0  0  0  0  0  0  0  0  0  0  0
  -23.1421  -33.4591   24.0132 O   0  0  0  0  0  0  0  0  0  0  0  0
  -26.8348  -21.7193   21.0337 O   0  0  0  0  0  0  0  0  0  0  0  0
  -25.4576   -9.6150   22.5546 O   0  0  0  0  0  0  0  0  0  0  0  0
  -20.1140  -28.1619   20.9930 O   0  0  0  0  0  0  0  0  0  1  0  0
  -20.9434   -6.9961   24.3344 F   0  0  0  0  0  0  0  0  0  0  0  0
  -23.5517   -8.7024   20.7720 F   0  0  0  0  0  0  0  0  0  0  0  0
  -22.8709  -19.3814   23.6757 Cl  0  0  0  0  0  0  0  0  0  0  0  0
  -23.4468  -25.1972   21.4804 Cl  0  0  0  0  0  0  0  0  0  0  0  0
  1  2  1  0  0  0  0
  1  5  2  0  0  0  0
  2  6  2  0  0  0  0
  3  8  2  0  0  0  0
  3 17  1  0  0  0  0
  4  9  1  0  0  0  0
  4 17  2  0  0  0  0
  5 19  1  0  0  0  0
  6 21  1  0  0  0  0
  7 10  2  0  0  0  0
  7 20  1  0  0  0  0
  8 25  1  0  0  0  0
  9 25  2  0  0  0  0
 10 26  1  0  0  0  0
 11 12  2  0  0  0  0
 11 27  1  0  0  0  0
 12 28  1  0  0  0  0
 13 22  1  0  0  0  0
 13 26  2  0  0  0  0
 14 23  1  0  0  0  0
 14 30  2  0  0  0  0
 15 24  2  0  0  0  0
 15 31  1  0  0  0  0
 16 28  2  0  0  0  0
 16 29  1  0  0  0  0
 17 32  1  0  0  0  0
 18 32  1  0  0  0  0
 18 33  2  0  0  0  0
 18 34  1  0  0  0  0
 19 21  2  0  0  0  0
 19 39  1  0  0  0  0
 20 22  2  0  0  0  0
 20 40  1  0  0  0  0
 21 48  1  0  0  0  0
 22 41  1  0  0  0  0
 23 31  2  0  0  0  0
 23 56  1  0  0  0  0
 24 30  1  0  0  0  0
 24 69  1  0  0  0  0
 25 79  1  0  0  0  0
 26 80  1  0  0  0  0
 27 29  2  0  0  0  0
 27 79  1  0  0  0  0
 28 81  1  0  0  0  0
 29 82  1  0  0  0  0
 30 83  1  0  0  0  0
 31 84  1  0  0  0  0
 32 63  2  0  0  0  0
 33 64  1  0  0  0  0
 33 67  1  0  0  0  0
 34 68  1  0  0  0  0
 34 74  2  0  0  0  0
 35 49  1  0  0  0  0
 35 70  1  0  0  0  0
 35 75  2  0  0  0  0
 36 60  1  0  0  0  0
 36 65  1  0  0  0  0
 36 76  2  0  0  0  0
 37 61  1  0  0  0  0
 37 71  1  0  0  0  0
 37 77  2  0  0  0  0
 38 66  1  0  0  0  0
 38 69  1  0  0  0  0
 38 78  2  0  0  0  0
 39 42  1  0  0  0  0
 40 49  1  0  0  0  0
 41 65  1  0  0  0  0
 42 44  1  0  0  0  0
 43 45  1  0  0  0  0
 43 46  1  0  0  0  0
 44 48  1  0  0  0  0
 45 50  1  0  0  0  0
 46 66  1  0  0  0  0
 47 50  1  0  0  0  0
 47 66  1  0  0  0  0
 48 70  1  0  0  0  0
 49 65  1  0  0  0  0
 50 64  1  0  0  0  0
 51 61  1  0  0  0  0
 52 62  1  0  0  0  0
 53 62  1  0  0  0  0
 54 62  1  0  0  0  0
 55 72  1  0  0  0  0
 56 73  1  0  0  0  0
 57 58  1  0  0  0  0
 57 59  1  0  0  0  0
 58 73  1  0  0  0  0
 59 80  1  0  0  0  0
 60 62  1  0  0  0  0
 60 71  1  0  0  0  0
 61 72  1  0  0  0  0
 63 64  1  0  0  0  0
M  CHG  2  72   1  73   1
M  ISO  4  38 100  59 101  69 100  80 101
M  END
> <Batch ID>
0038

> <Smiles>
CNC(C)C(=O)NC(C(=O)N1Cc2cc([101O:1][101CH2:1]CCNCc3cc(Cl)c([100NH:0][100C:0](=O)N4CCCC(n5nc(-c6ccc(Oc7ccc(F)cc7F)cc6)c(C(N)=O)c5N)C4)cc3Cl)ccc2CC1C(=O)NC1CCCc2ccccc21)C(C)(C)C

> <Shape>
0.295

> <Color>
0.078

> <Negative vol penalty>
0.000

$$$$

  -OEChem-04042322003D

 88 97  0     1  0  0  0  0  0999 V2000
  -19.6469  -24.2838   21.5711 C   0  0  0  0  0  0  0  0  0  0  0  0
  -20.7741  -24.8341   20.9695 C   0  0  0  0  0  0  0  0  0  0  0  0
  -27.2862  -14.3706   21.2817 C   0  0  0  0  0  0  0  0  0  0  0  0
  -24.9304  -14.7362   20.8896 C   0  0  0  0  0  0  0  0  0  0  0  0
  -18.7190  -25.1128   22.2000 C   0  0  0  0  0  0  0  0  0  0  0  0
  -20.9735  -26.2139   20.9955 C   0  0  0  0  0  0  0  0  0  0  0  0
  -25.7384  -27.4665   22.1671 C   0  0  0  0  0  0  0  0  0  0  0  0
  -27.1278  -13.0194   20.9738 C   0  0  0  0  0  0  0  0  0  0  0  0
  -24.7720  -13.3850   20.5817 C   0  0  0  0  0  0  0  0  0  0  0  0
  -26.6928  -27.3549   21.1569 C   0  0  0  0  0  0  0  0  0  0  0  0
  -24.4978  -10.4628   22.2599 C   0  0  0  0  0  0  0  0  0  0  0  0
  -23.4071   -9.7948   22.8165 C   0  0  0  0  0  0  0  0  0  0  0  0
  -26.5542  -29.7322   20.7717 C   0  0  0  0  0  0  0  0  0  0  0  0
  -30.2354  -24.6442   19.5003 C   0  0  0  0  0  0  0  0  0  0  0  0
  -22.5847   -9.2919   20.6011 C   0  0  0  0  0  0  0  0  0  0  0  0
  -26.1875  -15.2290   21.2397 C   0  0  0  0  0  0  0  0  0  0  0  0
  -26.8081  -17.1719   22.7718 C   0  0  0  0  0  0  0  0  0  0  0  0
  -18.9120  -26.5027   22.2422 C   0  0  0  0  0  0  0  0  0  0  0  0
  -25.1757  -28.7122   22.4803 C   0  0  0  0  0  0  0  0  0  0  0  0
  -20.0466  -27.0625   21.6245 C   0  0  0  0  0  0  0  0  0  0  0  0
  -25.5947  -29.8573   21.7880 C   0  0  0  0  0  0  0  0  0  0  0  0
  -31.3991  -25.4105   19.5655 C   0  0  0  0  0  0  0  0  0  0  0  0
  -32.2860  -25.2426   20.6290 C   0  0  0  0  0  0  0  0  0  0  0  0
  -30.8455  -23.5422   21.5620 C   0  0  0  0  0  0  0  0  0  0  0  0
  -29.9586  -23.7101   20.4986 C   0  0  0  0  0  0  0  0  0  0  0  0
  -25.8707  -12.5266   20.6237 C   0  0  0  0  0  0  0  0  0  0  0  0
  -27.0987  -28.4874   20.4571 C   0  0  0  0  0  0  0  0  0  0  0  0
  -24.6320  -10.5454   20.8740 C   0  0  0  0  0  0  0  0  0  0  0  0
  -22.4506   -9.2093   21.9871 C   0  0  0  0  0  0  0  0  0  0  0  0
  -23.6755   -9.9599   20.0446 C   0  0  0  0  0  0  0  0  0  0  0  0
  -32.0092  -24.3085   21.6272 C   0  0  0  0  0  0  0  0  0  0  0  0
  -26.3504  -16.6247   21.5582 C   0  0  0  0  0  0  0  0  0  0  0  0
  -26.7809  -18.5299   22.5681 C   0  0  0  0  0  0  0  0  0  0  0  0
  -27.2211  -16.5117   23.9757 C   0  0  0  0  0  0  0  0  0  0  0  0
  -22.2413  -29.9315   22.4024 C   0  0  0  0  0  0  0  0  0  0  0  0
  -23.6790  -32.4698   23.8210 C   0  0  0  0  0  0  0  0  0  0  0  0
  -26.7728  -34.2890   23.4519 C   0  0  0  0  0  0  0  0  0  0  0  0
  -27.7983  -23.0032   19.4125 C   0  0  0  0  0  0  0  0  0  0  0  0
  -17.8574  -27.3626   22.8926 C   0  0  0  0  0  0  0  0  0  0  0  0
  -24.1670  -28.8199   23.5907 C   0  0  0  0  0  0  0  0  0  0  0  0
  -25.0363  -31.2210   22.0995 C   0  0  0  0  0  0  0  0  0  0  0  0
  -18.3327  -28.7800   23.2016 C   0  0  0  0  0  0  0  0  0  0  0  0
  -24.7522  -21.2581   18.8180 C   0  0  0  0  0  0  0  0  0  0  0  0
  -19.0621  -29.3723   22.0000 C   0  0  0  0  0  0  0  0  0  0  0  0
  -24.9341  -19.9421   19.5777 C   0  0  0  0  0  0  0  0  0  0  0  0
  -29.3985  -30.1251   18.4960 C   0  0  0  0  0  0  0  0  0  0  0  0
  -29.6464  -29.4251   17.1648 C   0  0  0  0  0  0  0  0  0  0  0  0
  -26.0574  -21.7292   18.1790 C   0  0  0  0  0  0  0  0  0  0  0  0
  -27.3823  -20.5041   19.8562 C   0  0  0  0  0  0  0  0  0  0  0  0
  -30.4034  -28.1514   19.7019 C   0  0  0  0  0  0  0  0  0  0  0  0
  -20.3106  -28.5523   21.6533 C   0  0  1  0  0  0  0  0  0  0  0  0
  -23.2835  -30.0584   23.4774 C   0  0  1  0  0  0  0  0  0  0  0  0
  -26.1093  -20.0230   20.5716 C   0  0  2  0  0  0  0  0  0  0  0  0
  -29.2356  -29.1241   19.6330 C   0  0  2  0  0  0  0  0  0  1  0  0
  -30.8343  -28.4577   17.2289 C   0  0  2  0  0  0  0  0  0  0  0  0
  -33.5286  -26.0769   20.6787 C   0  0  0  0  0  0  0  0  0  0  0  0
  -30.5322  -22.5353   22.6268 C   0  0  0  0  0  0  0  0  0  0  0  0
  -30.9814  -27.7318   15.8930 C   0  0  0  0  0  0  0  0  0  0  0  0
  -28.0940  -35.6166   25.1220 C   0  0  0  0  0  0  0  0  0  0  0  0
  -22.1170  -34.8525   22.7288 C   0  0  0  0  0  0  0  0  0  0  0  0
  -24.2012  -36.2243   22.9347 C   0  0  0  0  0  0  0  0  0  0  0  0
  -23.1598  -35.2279   24.9707 C   0  0  0  0  0  0  0  0  0  0  0  0
  -29.2239  -32.7109   22.9410 C   0  0  0  0  0  0  0  0  0  0  0  0
  -31.6706  -26.4082   18.4784 C   0  0  0  0  0  0  0  0  0  0  0  0
  -24.3601  -33.7245   23.3302 C   0  0  1  0  0  0  0  0  0  0  0  0
  -27.9513  -34.2811   24.4087 C   0  0  2  0  0  0  0  0  0  0  0  0
  -23.4594  -34.9834   23.4756 C   0  0  0  0  0  0  0  0  0  0  0  0
  -26.0539  -17.5588   20.6507 N   0  0  0  0  0  0  0  0  0  0  0  0
  -26.3259  -18.7067   21.2945 N   0  0  0  0  0  0  0  0  0  0  0  0
  -24.0480  -31.2736   23.1895 N   0  0  0  0  0  0  0  0  0  0  0  0
  -27.1241  -21.7855   19.1809 N   0  0  0  0  0  0  0  0  0  0  0  0
  -27.1019  -19.5781   23.3559 N   0  0  0  0  0  0  0  0  0  0  0  0
  -27.1874  -15.1111   24.0148 N   0  0  0  0  0  0  0  0  0  0  0  0
  -28.7702  -22.9434   20.4106 N   0  0  0  0  0  0  0  0  0  0  0  0
  -21.3871  -28.8584   22.5708 N   0  0  0  0  0  0  0  0  0  0  0  0
  -25.6265  -33.8095   24.0496 N   0  0  0  0  0  0  0  0  0  0  0  0
  -30.5959  -27.4625   18.3610 N   0  3  1  0  0  0  0  0  0  0  0  0
  -29.2161  -34.0052   23.6703 N   0  3  0  0  0  0  0  0  0  0  0  0
  -27.5929  -17.1455   24.9923 O   0  0  0  0  0  0  0  0  0  0  0  0
  -22.2132  -30.7476   21.4887 O   0  0  0  0  0  0  0  0  0  0  0  0
  -22.8552  -32.5472   24.7359 O   0  0  0  0  0  0  0  0  0  0  0  0
  -26.8595  -34.6846   22.2915 O   0  0  0  0  0  0  0  0  0  0  0  0
  -27.5141  -24.0306   18.7914 O   0  0  0  0  0  0  0  0  0  0  0  0
  -25.7158  -11.2082   20.3230 O   0  0  0  0  0  0  0  0  0  0  0  0
  -28.0296  -28.3812   19.4701 O   0  0  0  0  0  0  0  0  0  1  0  0
  -21.4040   -8.5666   22.5216 F   0  0  0  0  0  0  0  0  0  0  0  0
  -23.7996  -10.0349   18.7123 F   0  0  0  0  0  0  0  0  0  0  0  0
  -33.1123  -24.1000   22.9477 Cl  0  0  0  0  0  0  0  0  0  0  0  0
  1  2  1  0  0  0  0
  1  5  2  0  0  0  0
  2  6  2  0  0  0  0
  3  8  2  0  0  0  0
  3 16  1  0  0  0  0
  4  9  1  0  0  0  0
  4 16  2  0  0  0  0
  5 18  1  0  0  0  0
  6 20  1  0  0  0  0
  7 10  2  0  0  0  0
  7 19  1  0  0  0  0
  8 26  1  0  0  0  0
  9 26  2  0  0  0  0
 10 27  1  0  0  0  0
 11 12  2  0  0  0  0
 11 28  1  0  0  0  0
 12 29  1  0  0  0  0
 13 21  1  0  0  0  0
 13 27  2  0  0  0  0
 14 22  1  0  0  0  0
 14 25  2  0  0  0  0
 15 29  2  0  0  0  0
 15 30  1  0  0  0  0
 16 32  1  0  0  0  0
 17 32  1  0  0  0  0
 17 33  2  0  0  0  0
 17 34  1  0  0  0  0
 18 20  2  0  0  0  0
 18 39  1  0  0  0  0
 19 21  2  0  0  0  0
 19 40  1  0  0  0  0
 20 51  1  0  0  0  0
 21 41  1  0  0  0  0
 22 23  2  0  0  0  0
 22 64  1  0  0  0  0
 23 31  1  0  0  0  0
 23 56  1  0  0  0  0
 24 25  1  0  0  0  0
 24 31  2  0  0  0  0
 24 57  1  0  0  0  0
 25 74  1  0  0  0  0
 26 84  1  0  0  0  0
 27 85  1  0  0  0  0
 28 30  2  0  0  0  0
 28 84  1  0  0  0  0
 29 86  1  0  0  0  0
 30 87  1  0  0  0  0
 31 88  1  0  0  0  0
 32 68  2  0  0  0  0
 33 69  1  0  0  0  0
 33 72  1  0  0  0  0
 34 73  1  0  0  0  0
 34 79  2  0  0  0  0
 35 52  1  0  0  0  0
 35 75  1  0  0  0  0
 35 80  2  0  0  0  0
 36 65  1  0  0  0  0
 36 70  1  0  0  0  0
 36 81  2  0  0  0  0
 37 66  1  0  0  0  0
 37 76  1  0  0  0  0
 37 82  2  0  0  0  0
 38 71  1  0  0  0  0
 38 74  1  0  0  0  0
 38 83  2  0  0  0  0
 39 42  1  0  0  0  0
 40 52  1  0  0  0  0
 41 70  1  0  0  0  0
 42 44  1  0  0  0  0
 43 45  1  0  0  0  0
 43 48  1  0  0  0  0
 44 51  1  0  0  0  0
 45 53  1  0  0  0  0
 46 47  1  0  0  0  0
 46 54  1  0  0  0  0
 47 55  1  0  0  0  0
 48 71  1  0  0  0  0
 49 53  1  0  0  0  0
 49 71  1  0  0  0  0
 50 54  1  0  0  0  0
 50 77  1  0  0  0  0
 51 75  1  0  0  0  0
 52 70  1  0  0  0  0
 53 69  1  0  0  0  0
 54 85  1  0  0  0  0
 55 58  1  0  0  0  0
 55 77  1  0  0  0  0
 59 66  1  0  0  0  0
 60 67  1  0  0  0  0
 61 67  1  0  0  0  0
 62 67  1  0  0  0  0
 63 78  1  0  0  0  0
 64 77  1  0  0  0  0
 65 67  1  0  0  0  0
 65 76  1  0  0  0  0
 66 78  1  0  0  0  0
 68 69  1  0  0  0  0
M  CHG  2  77   1  78   1
M  ISO  4  38 100  54 101  74 100  85 101
M  END
> <Batch ID>
0038

> <Smiles>
CNC(C)C(=O)NC(C(=O)N1Cc2cc([101O:1][101CH:1]3CCC(C)N(Cc4cc([100NH:0][100C:0](=O)N5CCCC(n6nc(-c7ccc(Oc8ccc(F)cc8F)cc7)c(C(N)=O)c6N)C5)c(C)c(Cl)c4C)C3)ccc2CC1C(=O)NC1CCCc2ccccc21)C(C)(C)C

> <Shape>
0.274

> <Color>
0.101

> <Negative vol penalty>
0.000

$$$$

  -OEChem-04042322003D

 86 95  0     1  0  0  0  0  0999 V2000
  -25.1507  -35.7344   21.9901 C   0  0  0  0  0  0  0  0  0  0  0  0
  -25.8732  -34.5460   21.9542 C   0  0  0  0  0  0  0  0  0  0  0  0
  -23.9597  -10.7867   23.5444 C   0  0  0  0  0  0  0  0  0  0  0  0
  -24.5858   -9.2508   21.7877 C   0  0  0  0  0  0  0  0  0  0  0  0
  -23.8502  -35.7433   22.4928 C   0  0  0  0  0  0  0  0  0  0  0  0
  -25.2959  -33.3661   22.4221 C   0  0  0  0  0  0  0  0  0  0  0  0
  -26.1052  -29.4448   19.3215 C   0  0  0  0  0  0  0  0  0  0  0  0
  -30.6403  -20.1763   20.5539 C   0  0  0  0  0  0  0  0  0  0  0  0
  -30.3785  -18.8524   20.2014 C   0  0  0  0  0  0  0  0  0  0  0  0
  -23.5781   -9.7123   24.3479 C   0  0  0  0  0  0  0  0  0  0  0  0
  -24.2043   -8.1763   22.5913 C   0  0  0  0  0  0  0  0  0  0  0  0
  -27.3613  -28.8419   19.3720 C   0  0  0  0  0  0  0  0  0  0  0  0
  -21.3307   -6.6527   23.5143 C   0  0  0  0  0  0  0  0  0  0  0  0
  -20.5693   -5.6424   22.9268 C   0  0  0  0  0  0  0  0  0  0  0  0
  -26.4558  -27.0853   20.7554 C   0  0  0  0  0  0  0  0  0  0  0  0
  -22.2946   -4.0355   23.4542 C   0  0  0  0  0  0  0  0  0  0  0  0
  -24.4634  -10.5560   22.2643 C   0  0  0  0  0  0  0  0  0  0  0  0
  -24.0439  -12.7247   20.9883 C   0  0  0  0  0  0  0  0  0  0  0  0
  -23.2533  -34.5611   22.9581 C   0  0  0  0  0  0  0  0  0  0  0  0
  -25.0156  -28.8774   19.9978 C   0  0  0  0  0  0  0  0  0  0  0  0
  -23.9868  -33.3595   22.9328 C   0  0  0  0  0  0  0  0  0  0  0  0
  -25.1864  -27.6816   20.7098 C   0  0  0  0  0  0  0  0  0  0  0  0
  -29.5897  -21.0278   20.8958 C   0  0  0  0  0  0  0  0  0  0  0  0
  -28.2773  -20.5554   20.8849 C   0  0  0  0  0  0  0  0  0  0  0  0
  -28.0155  -19.2315   20.5324 C   0  0  0  0  0  0  0  0  0  0  0  0
  -29.0662  -18.3799   20.1906 C   0  0  0  0  0  0  0  0  0  0  0  0
  -23.7004   -8.4071   23.8714 C   0  0  0  0  0  0  0  0  0  0  0  0
  -27.5374  -27.6635   20.0913 C   0  0  0  0  0  0  0  0  0  0  0  0
  -22.5741   -6.3544   24.0717 C   0  0  0  0  0  0  0  0  0  0  0  0
  -21.0512   -4.3338   22.8968 C   0  0  0  0  0  0  0  0  0  0  0  0
  -23.0560   -5.0458   24.0416 C   0  0  0  0  0  0  0  0  0  0  0  0
  -24.8572  -11.6655   21.4336 C   0  0  0  0  0  0  0  0  0  0  0  0
  -24.8836  -13.5098   20.2366 C   0  0  0  0  0  0  0  0  0  0  0  0
  -22.6537  -12.9766   21.2325 C   0  0  0  0  0  0  0  0  0  0  0  0
  -23.0984  -29.8203   22.3512 C   0  0  0  0  0  0  0  0  0  0  0  0
  -21.5310  -27.0675   21.6529 C   0  0  0  0  0  0  0  0  0  0  0  0
  -22.4177  -23.6673   20.8347 C   0  0  0  0  0  0  0  0  0  0  0  0
  -29.7673  -16.0710   19.4669 C   0  0  0  0  0  0  0  0  0  0  0  0
  -21.8620  -34.6291   23.5363 C   0  0  0  0  0  0  0  0  0  0  0  0
  -23.6612  -29.5258   19.9114 C   0  0  0  0  0  0  0  0  0  0  0  0
  -24.0443  -27.0213   21.4364 C   0  0  0  0  0  0  0  0  0  0  0  0
  -21.1888  -33.2652   23.6659 C   0  0  0  0  0  0  0  0  0  0  0  0
  -29.5743  -12.6370   18.5463 C   0  0  0  0  0  0  0  0  0  0  0  0
  -30.1106  -24.3426   17.9558 C   0  0  0  0  0  0  0  0  0  0  0  0
  -22.1465  -32.2542   24.2883 C   0  0  0  0  0  0  0  0  0  0  0  0
  -28.2630  -12.1653   19.1788 C   0  0  0  0  0  0  0  0  0  0  0  0
  -29.8431  -25.7531   18.4642 C   0  0  0  0  0  0  0  0  0  0  0  0
  -30.3021  -13.6445   19.4345 C   0  0  0  0  0  0  0  0  0  0  0  0
  -28.1830  -14.3232   20.4919 C   0  0  0  0  0  0  0  0  0  0  0  0
  -30.5699  -23.4190   19.0750 C   0  0  0  0  0  0  0  0  0  0  0  0
  -29.3261  -24.8145   20.7470 C   0  0  0  0  0  0  0  0  0  0  0  0
  -23.3863  -32.0543   23.4082 C   0  0  1  0  0  0  0  0  0  0  0  0
  -22.7382  -29.1371   21.0623 C   0  0  1  0  0  0  0  0  0  0  0  0
  -27.3821  -13.3563   19.6045 C   0  0  2  0  0  0  0  0  0  0  0  0
  -28.8647  -25.7468   19.6346 C   0  0  1  0  0  0  0  0  0  1  0  0
  -27.1526  -21.4711   21.2521 C   0  0  0  0  0  0  0  0  0  0  0  0
  -26.6064  -18.7266   20.5215 C   0  0  0  0  0  0  0  0  0  0  0  0
  -21.1814  -21.9331   19.5075 C   0  0  0  0  0  0  0  0  0  0  0  0
  -20.4688  -26.1653   24.3672 C   0  0  0  0  0  0  0  0  0  0  0  0
  -20.6601  -23.7973   23.5769 C   0  0  0  0  0  0  0  0  0  0  0  0
  -19.1267  -25.3803   22.4083 C   0  0  0  0  0  0  0  0  0  0  0  0
  -24.7107  -23.2634   19.0076 C   0  0  0  0  0  0  0  0  0  0  0  0
  -29.8990  -22.4471   21.2710 C   0  0  0  0  0  0  0  0  0  0  0  0
  -21.6255  -25.6353   22.1206 C   0  0  1  0  0  0  0  0  0  0  0  0
  -22.2739  -22.9907   19.4834 C   0  0  2  0  0  0  0  0  0  0  0  0
  -20.4929  -25.2617   23.1182 C   0  0  0  0  0  0  0  0  0  0  0  0
  -26.1168  -11.7654   21.0007 N   0  0  0  0  0  0  0  0  0  0  0  0
  -26.1013  -12.8967   20.2755 N   0  0  0  0  0  0  0  0  0  0  0  0
  -22.7408  -27.6970   21.3272 N   0  0  0  0  0  0  0  0  0  0  0  0
  -29.4073  -14.7467   19.7943 N   0  0  0  0  0  0  0  0  0  0  0  0
  -24.6917  -14.6578   19.5527 N   0  0  0  0  0  0  0  0  0  0  0  0
  -21.9397  -12.0690   22.0267 N   0  0  0  0  0  0  0  0  0  0  0  0
  -28.8235  -17.0315   19.8294 N   0  0  0  0  0  0  0  0  0  0  0  0
  -23.0744  -31.2003   22.2823 N   0  0  0  0  0  0  0  0  0  0  0  0
  -21.6555  -24.8135   20.9156 N   0  0  0  0  0  0  0  0  0  0  0  0
  -29.5506  -23.4320   20.1893 N   0  3  2  0  0  0  0  0  0  0  0  0
  -23.5542  -22.3350   19.0935 N   0  3  0  0  0  0  0  0  0  0  0  0
  -22.0582  -13.9681   20.7469 O   0  0  0  0  0  0  0  0  0  0  0  0
  -23.3759  -29.1455   23.3357 O   0  0  0  0  0  0  0  0  0  0  0  0
  -20.4239  -27.6056   21.5723 O   0  0  0  0  0  0  0  0  0  0  0  0
  -23.1317  -23.2214   21.7302 O   0  0  0  0  0  0  0  0  0  0  0  0
  -30.8218  -16.3311   18.8819 O   0  0  0  0  0  0  0  0  0  0  0  0
  -23.3285   -7.3584   24.6552 O   0  0  0  0  0  0  0  0  0  0  0  0
  -28.7625  -27.0733   20.1427 O   0  0  0  0  0  0  0  0  0  1  0  0
  -20.3193   -3.3634   22.3340 F   0  0  0  0  0  0  0  0  0  0  0  0
  -24.2493   -4.7529   24.5765 F   0  0  0  0  0  0  0  0  0  0  0  0
  1  2  1  0  0  0  0
  1  5  2  0  0  0  0
  2  6  2  0  0  0  0
  3 10  2  0  0  0  0
  3 17  1  0  0  0  0
  4 11  1  0  0  0  0
  4 17  2  0  0  0  0
  5 19  1  0  0  0  0
  6 21  1  0  0  0  0
  7 12  2  0  0  0  0
  7 20  1  0  0  0  0
  8  9  2  0  0  0  0
  8 23  1  0  0  0  0
  9 26  1  0  0  0  0
 10 27  1  0  0  0  0
 11 27  2  0  0  0  0
 12 28  1  0  0  0  0
 13 14  2  0  0  0  0
 13 29  1  0  0  0  0
 14 30  1  0  0  0  0
 15 22  1  0  0  0  0
 15 28  2  0  0  0  0
 16 30  2  0  0  0  0
 16 31  1  0  0  0  0
 17 32  1  0  0  0  0
 18 32  1  0  0  0  0
 18 33  2  0  0  0  0
 18 34  1  0  0  0  0
 19 21  2  0  0  0  0
 19 39  1  0  0  0  0
 20 22  2  0  0  0  0
 20 40  1  0  0  0  0
 21 52  1  0  0  0  0
 22 41  1  0  0  0  0
 23 24  2  0  0  0  0
 23 63  1  0  0  0  0
 24 25  1  0  0  0  0
 24 56  1  0  0  0  0
 25 26  2  0  0  0  0
 25 57  1  0  0  0  0
 26 73  1  0  0  0  0
 27 83  1  0  0  0  0
 28 84  1  0  0  0  0
 29 31  2  0  0  0  0
 29 83  1  0  0  0  0
 30 85  1  0  0  0  0
 31 86  1  0  0  0  0
 32 67  2  0  0  0  0
 33 68  1  0  0  0  0
 33 71  1  0  0  0  0
 34 72  1  0  0  0  0
 34 78  2  0  0  0  0
 35 53  1  0  0  0  0
 35 74  1  0  0  0  0
 35 79  2  0  0  0  0
 36 64  1  0  0  0  0
 36 69  1  0  0  0  0
 36 80  2  0  0  0  0
 37 65  1  0  0  0  0
 37 75  1  0  0  0  0
 37 81  2  0  0  0  0
 38 70  1  0  0  0  0
 38 73  1  0  0  0  0
 38 82  2  0  0  0  0
 39 42  1  0  0  0  0
 40 53  1  0  0  0  0
 41 69  1  0  0  0  0
 42 45  1  0  0  0  0
 43 46  1  0  0  0  0
 43 48  1  0  0  0  0
 44 47  1  0  0  0  0
 44 50  1  0  0  0  0
 45 52  1  0  0  0  0
 46 54  1  0  0  0  0
 47 55  1  0  0  0  0
 48 70  1  0  0  0  0
 49 54  1  0  0  0  0
 49 70  1  0  0  0  0
 50 76  1  0  0  0  0
 51 55  1  0  0  0  0
 51 76  1  0  0  0  0
 52 74  1  0  0  0  0
 53 69  1  0  0  0  0
 54 68  1  0  0  0  0
 55 84  1  0  0  0  0
 58 65  1  0  0  0  0
 59 66  1  0  0  0  0
 60 66  1  0  0  0  0
 61 66  1  0  0  0  0
 62 77  1  0  0  0  0
 63 76  1  0  0  0  0
 64 66  1  0  0  0  0
 64 75  1  0  0  0  0
 65 77  1  0  0  0  0
 67 68  1  0  0  0  0
M  CHG  2  76   1  77   1
M  ISO  4  38 100  55 101  73 100  84 101
M  END
> <Batch ID>
0038

> <Smiles>
CNC(C)C(=O)NC(C(=O)N1Cc2cc([101O:1][101CH:1]3CCCN(Cc4ccc([100NH:0][100C:0](=O)N5CCCC(n6nc(-c7ccc(Oc8ccc(F)cc8F)cc7)c(C(N)=O)c6N)C5)c(C)c4C)C3)ccc2CC1C(=O)NC1CCCc2ccccc21)C(C)(C)C

> <Shape>
0.338

> <Color>
0.154

> <Negative vol penalty>
0.000

$$$$

  -OEChem-04042322003D

 91100  0     1  0  0  0  0  0999 V2000
  -15.9242  -30.4572   20.7258 C   0  0  0  0  0  0  0  0  0  0  0  0
  -17.0408  -30.9053   20.0273 C   0  0  0  0  0  0  0  0  0  0  0  0
  -24.4474   -9.5250   21.7655 C   0  0  0  0  0  0  0  0  0  0  0  0
  -22.7857  -10.2101   20.1511 C   0  0  0  0  0  0  0  0  0  0  0  0
  -16.0246  -30.1661   22.0856 C   0  0  0  0  0  0  0  0  0  0  0  0
  -18.2582  -31.0636   20.6885 C   0  0  0  0  0  0  0  0  0  0  0  0
  -25.2489  -27.9554   19.1085 C   0  0  0  0  0  0  0  0  0  0  0  0
  -23.6855   -8.3974   22.0713 C   0  0  0  0  0  0  0  0  0  0  0  0
  -22.0238   -9.0824   20.4569 C   0  0  0  0  0  0  0  0  0  0  0  0
  -26.4996  -27.3433   19.0234 C   0  0  0  0  0  0  0  0  0  0  0  0
  -23.0885   -5.3542   20.7241 C   0  0  0  0  0  0  0  0  0  0  0  0
  -23.7522   -4.1317   20.8269 C   0  0  0  0  0  0  0  0  0  0  0  0
  -26.8276  -27.6591   21.3984 C   0  0  0  0  0  0  0  0  0  0  0  0
  -25.7184  -20.2339   15.7014 C   0  0  0  0  0  0  0  0  0  0  0  0
  -23.0172   -3.9253   23.1191 C   0  0  0  0  0  0  0  0  0  0  0  0
  -23.9975  -10.4314   20.8054 C   0  0  0  0  0  0  0  0  0  0  0  0
  -25.7846  -11.7057   19.5053 C   0  0  0  0  0  0  0  0  0  0  0  0
  -17.2463  -30.3117   22.7617 C   0  0  0  0  0  0  0  0  0  0  0  0
  -24.7757  -28.4085   20.3431 C   0  0  0  0  0  0  0  0  0  0  0  0
  -18.3748  -30.7754   22.0589 C   0  0  0  0  0  0  0  0  0  0  0  0
  -25.5703  -28.2619   21.4920 C   0  0  0  0  0  0  0  0  0  0  0  0
  -26.8867  -20.9661   15.9123 C   0  0  0  0  0  0  0  0  0  0  0  0
  -25.2865  -19.3180   16.6607 C   0  0  0  0  0  0  0  0  0  0  0  0
  -27.6232  -20.7825   17.0825 C   0  0  0  0  0  0  0  0  0  0  0  0
  -26.0230  -19.1343   17.8310 C   0  0  0  0  0  0  0  0  0  0  0  0
  -22.4737   -8.1761   21.4170 C   0  0  0  0  0  0  0  0  0  0  0  0
  -27.2871  -27.1957   20.1656 C   0  0  0  0  0  0  0  0  0  0  0  0
  -22.3892   -5.8623   21.8189 C   0  0  0  0  0  0  0  0  0  0  0  0
  -23.7166   -3.4172   22.0243 C   0  0  0  0  0  0  0  0  0  0  0  0
  -22.3535   -5.1479   23.0163 C   0  0  0  0  0  0  0  0  0  0  0  0
  -27.1914  -19.8665   18.0419 C   0  0  0  0  0  0  0  0  0  0  0  0
  -24.7839  -11.5967   20.4894 C   0  0  0  0  0  0  0  0  0  0  0  0
  -26.2229  -13.0037   19.6036 C   0  0  0  0  0  0  0  0  0  0  0  0
  -26.2741  -10.7217   18.5846 C   0  0  0  0  0  0  0  0  0  0  0  0
  -21.9935  -30.0533   22.2484 C   0  0  0  0  0  0  0  0  0  0  0  0
  -23.0502  -27.7720   24.0061 C   0  0  0  0  0  0  0  0  0  0  0  0
  -24.2179  -24.9088   25.4468 C   0  0  0  0  0  0  0  0  0  0  0  0
  -25.2226  -18.4566   20.1214 C   0  0  0  0  0  0  0  0  0  0  0  0
  -17.2946  -30.0298   24.2425 C   0  0  0  0  0  0  0  0  0  0  0  0
  -23.4611  -29.1291   20.4711 C   0  0  0  0  0  0  0  0  0  0  0  0
  -25.0353  -28.7955   22.7927 C   0  0  0  0  0  0  0  0  0  0  0  0
  -18.7119  -29.8661   24.7855 C   0  0  0  0  0  0  0  0  0  0  0  0
  -26.3168  -26.1621   14.9165 C   0  0  0  0  0  0  0  0  0  0  0  0
  -25.3084  -16.5321   23.1158 C   0  0  0  0  0  0  0  0  0  0  0  0
  -27.7773  -25.7354   15.0174 C   0  0  0  0  0  0  0  0  0  0  0  0
  -25.3998  -25.1609   15.6107 C   0  0  0  0  0  0  0  0  0  0  0  0
  -19.6149  -30.9797   24.2648 C   0  0  0  0  0  0  0  0  0  0  0  0
  -25.2619  -15.0855   22.6185 C   0  0  0  0  0  0  0  0  0  0  0  0
  -24.4441  -17.4547   22.2581 C   0  0  0  0  0  0  0  0  0  0  0  0
  -24.6712  -15.9521   20.3191 C   0  0  0  0  0  0  0  0  0  0  0  0
  -27.9871  -24.3179   14.5045 C   0  0  0  0  0  0  0  0  0  0  0  0
  -25.6181  -23.7454   15.0962 C   0  0  0  0  0  0  0  0  0  0  0  0
  -19.7188  -30.9360   22.7355 C   0  0  1  0  0  0  0  0  0  0  0  0
  -22.7356  -28.8304   21.7953 C   0  0  1  0  0  0  0  0  0  0  0  0
  -25.5777  -14.9969   21.1125 C   0  0  2  0  0  0  0  0  0  0  0  0
  -24.0298  -18.5501   16.4043 C   0  0  0  0  0  0  0  0  0  0  0  0
  -23.9381  -23.4743   27.4867 C   0  0  0  0  0  0  0  0  0  0  0  0
  -24.6373  -29.7977   25.6437 C   0  0  0  0  0  0  0  0  0  0  0  0
  -25.1368  -27.9736   27.2843 C   0  0  0  0  0  0  0  0  0  0  0  0
  -22.7774  -28.6789   26.8862 C   0  0  0  0  0  0  0  0  0  0  0  0
  -23.3642  -22.5790   23.8336 C   0  0  0  0  0  0  0  0  0  0  0  0
  -27.3244  -21.9412   14.8685 C   0  0  0  0  0  0  0  0  0  0  0  0
  -28.8761  -21.5816   17.2885 C   0  0  0  0  0  0  0  0  0  0  0  0
  -29.6735  -24.5648   19.5526 C   0  0  0  0  0  0  0  0  0  0  0  0
  -29.9452  -23.4545   18.5487 C   0  0  0  0  0  0  0  0  0  0  0  0
  -28.6633  -25.5970   19.0667 C   0  0  0  0  0  0  0  0  0  1  0  0
  -23.9925  -27.3559   25.1071 C   0  0  1  0  0  0  0  0  0  0  0  0
  -23.4959  -23.7186   26.0523 C   0  0  2  0  0  0  0  0  0  0  0  0
  -24.1430  -28.4486   26.2029 C   0  0  0  0  0  0  0  0  0  0  0  0
  -24.5974  -12.7347   21.1635 N   0  0  0  0  0  0  0  0  0  0  0  0
  -25.4870  -13.5710   20.6020 N   0  0  0  0  0  0  0  0  0  0  0  0
  -23.6082  -28.4624   22.9233 N   0  0  0  0  0  0  0  0  0  0  0  0
  -24.8025  -17.3201   20.8445 N   0  0  0  0  0  0  0  0  0  0  0  0
  -27.1622  -13.7036   18.9327 N   0  0  0  0  0  0  0  0  0  0  0  0
  -25.7133   -9.4377   18.6182 N   0  0  0  0  0  0  0  0  0  0  0  0
  -25.5684  -18.2006   18.7950 N   0  0  0  0  0  0  0  0  0  0  0  0
  -20.6238  -29.8858   22.3202 N   0  0  0  0  0  0  0  0  0  0  0  0
  -23.5000  -26.0755   25.6037 N   0  0  0  0  0  0  0  0  0  0  0  0
  -27.0739  -23.3740   15.2507 N   0  3  0  0  0  0  0  0  0  0  0  0
  -23.7714  -22.4873   25.2593 N   0  3  0  0  0  0  0  0  0  0  0  0
  -28.7090  -22.6849   18.2745 N   0  3  0  0  0  0  0  0  0  0  0  0
  -27.1934  -10.9689   17.7677 O   0  0  0  0  0  0  0  0  0  0  0  0
  -22.6169  -31.0741   22.5150 O   0  0  0  0  0  0  0  0  0  0  0  0
  -21.8505  -27.4987   24.1036 O   0  0  0  0  0  0  0  0  0  0  0  0
  -25.3112  -24.8136   24.8935 O   0  0  0  0  0  0  0  0  0  0  0  0
  -25.2980  -19.5696   20.6482 O   0  0  0  0  0  0  0  0  0  0  0  0
  -21.7301   -7.0758   21.7150 O   0  0  0  0  0  0  0  0  0  0  0  0
  -28.5051  -26.5931   20.0762 O   0  0  0  0  0  0  0  0  0  1  0  0
  -24.3527   -2.2426   22.1224 F   0  0  0  0  0  0  0  0  0  0  0  0
  -21.6823   -5.6303   24.0711 F   0  0  0  0  0  0  0  0  0  0  0  0
  -28.1130  -19.6421   19.4947 Cl  0  0  0  0  0  0  0  0  0  0  0  0
  1  2  1  0  0  0  0
  1  5  2  0  0  0  0
  2  6  2  0  0  0  0
  3  8  2  0  0  0  0
  3 16  1  0  0  0  0
  4  9  1  0  0  0  0
  4 16  2  0  0  0  0
  5 18  1  0  0  0  0
  6 20  1  0  0  0  0
  7 10  2  0  0  0  0
  7 19  1  0  0  0  0
  8 26  1  0  0  0  0
  9 26  2  0  0  0  0
 10 27  1  0  0  0  0
 11 12  2  0  0  0  0
 11 28  1  0  0  0  0
 12 29  1  0  0  0  0
 13 21  1  0  0  0  0
 13 27  2  0  0  0  0
 14 22  2  0  0  0  0
 14 23  1  0  0  0  0
 15 29  2  0  0  0  0
 15 30  1  0  0  0  0
 16 32  1  0  0  0  0
 17 32  1  0  0  0  0
 17 33  2  0  0  0  0
 17 34  1  0  0  0  0
 18 20  2  0  0  0  0
 18 39  1  0  0  0  0
 19 21  2  0  0  0  0
 19 40  1  0  0  0  0
 20 53  1  0  0  0  0
 21 41  1  0  0  0  0
 22 24  1  0  0  0  0
 22 62  1  0  0  0  0
 23 25  2  0  0  0  0
 23 56  1  0  0  0  0
 24 31  2  0  0  0  0
 24 63  1  0  0  0  0
 25 31  1  0  0  0  0
 25 76  1  0  0  0  0
 26 87  1  0  0  0  0
 27 88  1  0  0  0  0
 28 30  2  0  0  0  0
 28 87  1  0  0  0  0
 29 89  1  0  0  0  0
 30 90  1  0  0  0  0
 31 91  1  0  0  0  0
 32 70  2  0  0  0  0
 33 71  1  0  0  0  0
 33 74  1  0  0  0  0
 34 75  1  0  0  0  0
 34 82  2  0  0  0  0
 35 54  1  0  0  0  0
 35 77  1  0  0  0  0
 35 83  2  0  0  0  0
 36 67  1  0  0  0  0
 36 72  1  0  0  0  0
 36 84  2  0  0  0  0
 37 68  1  0  0  0  0
 37 78  1  0  0  0  0
 37 85  2  0  0  0  0
 38 73  1  0  0  0  0
 38 76  1  0  0  0  0
 38 86  2  0  0  0  0
 39 42  1  0  0  0  0
 40 54  1  0  0  0  0
 41 72  1  0  0  0  0
 42 47  1  0  0  0  0
 43 45  1  0  0  0  0
 43 46  1  0  0  0  0
 44 48  1  0  0  0  0
 44 49  1  0  0  0  0
 45 51  1  0  0  0  0
 46 52  1  0  0  0  0
 47 53  1  0  0  0  0
 48 55  1  0  0  0  0
 49 73  1  0  0  0  0
 50 55  1  0  0  0  0
 50 73  1  0  0  0  0
 51 79  1  0  0  0  0
 52 79  1  0  0  0  0
 53 77  1  0  0  0  0
 54 72  1  0  0  0  0
 55 71  1  0  0  0  0
 57 68  1  0  0  0  0
 58 69  1  0  0  0  0
 59 69  1  0  0  0  0
 60 69  1  0  0  0  0
 61 80  1  0  0  0  0
 62 79  1  0  0  0  0
 63 81  1  0  0  0  0
 64 65  1  0  0  0  0
 64 66  1  0  0  0  0
 65 81  1  0  0  0  0
 66 88  1  0  0  0  0
 67 69  1  0  0  0  0
 67 78  1  0  0  0  0
 68 80  1  0  0  0  0
 70 71  1  0  0  0  0
M  CHG  3  79   1  80   1  81   1
M  ISO  4  38 100  66 101  76 100  88 101
M  END
> <Batch ID>
0038

> <Smiles>
CNC(C)C(=O)NC(C(=O)N1Cc2cc([101O:1][101CH2:1]CCNCc3c(CN4CCCCC4)cc(C)c([100NH:0][100C:0](=O)N4CCCC(n5nc(-c6ccc(Oc7ccc(F)cc7F)cc6)c(C(N)=O)c5N)C4)c3Cl)ccc2CC1C(=O)NC1CCCc2ccccc21)C(C)(C)C

> <Shape>
0.229

> <Color>
0.097

> <Negative vol penalty>
0.000

$$$$

  -OEChem-04042322003D

 88 97  0     1  0  0  0  0  0999 V2000
  -16.6803  -30.5469   23.3382 C   0  0  0  0  0  0  0  0  0  0  0  0
  -17.8419  -31.2513   23.6382 C   0  0  0  0  0  0  0  0  0  0  0  0
  -25.3989  -13.8151   19.7003 C   0  0  0  0  0  0  0  0  0  0  0  0
  -26.8822  -13.8920   21.6059 C   0  0  0  0  0  0  0  0  0  0  0  0
  -16.7477  -29.1850   23.0473 C   0  0  0  0  0  0  0  0  0  0  0  0
  -19.0715  -30.5938   23.6485 C   0  0  0  0  0  0  0  0  0  0  0  0
  -26.0075  -31.7035   22.2422 C   0  0  0  0  0  0  0  0  0  0  0  0
  -25.2111  -12.4477   19.9016 C   0  0  0  0  0  0  0  0  0  0  0  0
  -26.6943  -12.5245   21.8073 C   0  0  0  0  0  0  0  0  0  0  0  0
  -27.2625  -31.5594   22.8320 C   0  0  0  0  0  0  0  0  0  0  0  0
  -23.4068  -10.4568   21.9543 C   0  0  0  0  0  0  0  0  0  0  0  0
  -22.1039   -9.9640   21.8830 C   0  0  0  0  0  0  0  0  0  0  0  0
  -27.2676  -29.2218   22.2362 C   0  0  0  0  0  0  0  0  0  0  0  0
  -30.5464  -24.2833   24.3347 C   0  0  0  0  0  0  0  0  0  0  0  0
  -28.3096  -24.9160   23.6763 C   0  0  0  0  0  0  0  0  0  0  0  0
  -22.7518   -8.5145   20.0619 C   0  0  0  0  0  0  0  0  0  0  0  0
  -26.2345  -14.5373   20.5525 C   0  0  0  0  0  0  0  0  0  0  0  0
  -25.4441  -16.9551   20.3600 C   0  0  0  0  0  0  0  0  0  0  0  0
  -17.9800  -28.5126   23.0447 C   0  0  0  0  0  0  0  0  0  0  0  0
  -25.3672  -30.6035   21.6536 C   0  0  0  0  0  0  0  0  0  0  0  0
  -19.1553  -29.2214   23.3587 C   0  0  0  0  0  0  0  0  0  0  0  0
  -26.0056  -29.3551   21.6373 C   0  0  0  0  0  0  0  0  0  0  0  0
  -29.4363  -25.1162   24.4740 C   0  0  0  0  0  0  0  0  0  0  0  0
  -30.5300  -23.2502   23.3977 C   0  0  0  0  0  0  0  0  0  0  0  0
  -29.4034  -23.0499   22.6000 C   0  0  0  0  0  0  0  0  0  0  0  0
  -25.8588  -11.8024   20.9551 C   0  0  0  0  0  0  0  0  0  0  0  0
  -27.8915  -30.3179   22.8316 C   0  0  0  0  0  0  0  0  0  0  0  0
  -24.3823   -9.9785   21.0794 C   0  0  0  0  0  0  0  0  0  0  0  0
  -21.7764   -8.9928   20.9368 C   0  0  0  0  0  0  0  0  0  0  0  0
  -24.0548   -9.0073   20.1332 C   0  0  0  0  0  0  0  0  0  0  0  0
  -28.2932  -23.8828   22.7393 C   0  0  0  0  0  0  0  0  0  0  0  0
  -26.4294  -15.9497   20.3447 C   0  0  0  0  0  0  0  0  0  0  0  0
  -26.1346  -18.1163   20.1124 C   0  0  0  0  0  0  0  0  0  0  0  0
  -30.1969  -28.1344   24.1764 C   0  0  0  0  0  0  0  0  0  0  0  0
  -30.7843  -27.9322   22.9855 C   0  0  0  0  0  0  0  0  0  0  0  0
  -24.0311  -16.8488   20.5786 C   0  0  0  0  0  0  0  0  0  0  0  0
  -22.6565  -29.0334   22.1925 C   0  0  0  0  0  0  0  0  0  0  0  0
  -23.4796  -27.4653   19.4748 C   0  0  0  0  0  0  0  0  0  0  0  0
  -26.4942  -26.1140   18.0245 C   0  0  0  0  0  0  0  0  0  0  0  0
  -30.4972  -21.4672   20.9737 C   0  0  0  0  0  0  0  0  0  0  0  0
  -17.9972  -27.0297   22.7704 C   0  0  0  0  0  0  0  0  0  0  0  0
  -24.0252  -30.7813   20.9979 C   0  0  0  0  0  0  0  0  0  0  0  0
  -25.3695  -28.1474   21.0007 C   0  0  0  0  0  0  0  0  0  0  0  0
  -19.3846  -26.4882   22.4355 C   0  0  0  0  0  0  0  0  0  0  0  0
  -30.9070  -18.8508   18.5938 C   0  0  0  0  0  0  0  0  0  0  0  0
  -29.9629  -29.0410   26.8862 C   0  0  0  0  0  0  0  0  0  0  0  0
  -20.4179  -27.0197   23.4238 C   0  0  0  0  0  0  0  0  0  0  0  0
  -29.6580  -30.0001   25.7410 C   0  0  0  0  0  0  0  0  0  0  0  0
  -29.6976  -17.9455   18.8385 C   0  0  0  0  0  0  0  0  0  0  0  0
  -31.4472  -19.4397   19.8958 C   0  0  0  0  0  0  0  0  0  0  0  0
  -29.2413  -19.2226   20.9710 C   0  0  0  0  0  0  0  0  0  0  0  0
  -30.9854  -27.9874   26.4732 C   0  0  0  0  0  0  0  0  0  0  0  0
  -20.5110  -28.5488   23.3557 C   0  0  1  0  0  0  0  0  0  0  0  0
  -29.2218  -29.2486   24.4841 C   0  0  1  0  0  0  0  0  0  1  0  0
  -23.2398  -29.4787   20.8814 C   0  0  1  0  0  0  0  0  0  0  0  0
  -28.6221  -18.6576   19.6822 C   0  0  2  0  0  0  0  0  0  0  0  0
  -32.0887  -21.6888   24.5890 C   0  0  0  0  0  0  0  0  0  0  0  0
  -27.1203  -25.7303   15.6249 C   0  0  0  0  0  0  0  0  0  0  0  0
  -22.4126  -24.6463   19.9491 C   0  0  0  0  0  0  0  0  0  0  0  0
  -24.2790  -23.7756   18.5255 C   0  0  0  0  0  0  0  0  0  0  0  0
  -22.5746  -25.3094   17.5431 C   0  0  0  0  0  0  0  0  0  0  0  0
  -28.9675  -27.7170   18.2926 C   0  0  0  0  0  0  0  0  0  0  0  0
  -31.7356  -22.3756   23.2736 C   0  0  0  0  0  0  0  0  0  0  0  0
  -29.4535  -26.2269   25.4825 C   0  0  0  0  0  0  0  0  0  0  0  0
  -24.2895  -26.2319   19.1557 C   0  0  1  0  0  0  0  0  0  0  0  0
  -27.2476  -26.6572   16.8238 C   0  0  2  0  0  0  0  0  0  0  0  0
  -23.3944  -25.0067   18.8163 C   0  0  0  0  0  0  0  0  0  0  0  0
  -27.6526  -16.4301   20.1061 N   0  0  0  0  0  0  0  0  0  0  0  0
  -27.4405  -17.7501   19.9690 N   0  0  0  0  0  0  0  0  0  0  0  0
  -24.0542  -28.3707   20.3781 N   0  0  0  0  0  0  0  0  0  0  0  0
  -30.3735  -20.1019   20.6398 N   0  0  0  0  0  0  0  0  0  0  0  0
  -25.7459  -19.4047   20.0053 N   0  0  0  0  0  0  0  0  0  0  0  0
  -23.5482  -16.9530   21.8902 N   0  0  0  0  0  0  0  0  0  0  0  0
  -29.4000  -21.9965   21.6523 N   0  0  0  0  0  0  0  0  0  0  0  0
  -21.2767  -28.9575   22.1977 N   0  0  0  0  0  0  0  0  0  0  0  0
  -25.2103  -26.6127   18.0901 N   0  0  0  0  0  0  0  0  0  0  0  0
  -30.5537  -27.2238   25.2425 N   0  3  1  0  0  0  0  0  0  0  0  0
  -28.6943  -26.8120   17.1467 N   0  3  0  0  0  0  0  0  0  0  0  0
  -23.2222  -16.6505   19.6406 O   0  0  0  0  0  0  0  0  0  0  0  0
  -23.4030  -28.7762   23.1297 O   0  0  0  0  0  0  0  0  0  0  0  0
  -22.3808  -27.6233   18.9368 O   0  0  0  0  0  0  0  0  0  0  0  0
  -26.9933  -25.3233   18.8221 O   0  0  0  0  0  0  0  0  0  0  0  0
  -31.4907  -22.1257   20.6553 O   0  0  0  0  0  0  0  0  0  0  0  0
  -25.6756  -10.4682   21.1520 O   0  0  0  0  0  0  0  0  0  0  0  0
  -29.1162  -30.1744   23.4072 O   0  0  0  0  0  0  0  0  0  1  0  0
  -20.5255   -8.5186   20.8695 F   0  0  0  0  0  0  0  0  0  0  0  0
  -24.9878   -8.5431   19.2908 F   0  0  0  0  0  0  0  0  0  0  0  0
  -26.8755  -23.6725   21.7732 Cl  0  0  0  0  0  0  0  0  0  0  0  0
  1  2  1  0  0  0  0
  1  5  2  0  0  0  0
  2  6  2  0  0  0  0
  3  8  2  0  0  0  0
  3 17  1  0  0  0  0
  4  9  1  0  0  0  0
  4 17  2  0  0  0  0
  5 19  1  0  0  0  0
  6 21  1  0  0  0  0
  7 10  2  0  0  0  0
  7 20  1  0  0  0  0
  8 26  1  0  0  0  0
  9 26  2  0  0  0  0
 10 27  1  0  0  0  0
 11 12  2  0  0  0  0
 11 28  1  0  0  0  0
 12 29  1  0  0  0  0
 13 22  1  0  0  0  0
 13 27  2  0  0  0  0
 14 23  2  0  0  0  0
 14 24  1  0  0  0  0
 15 23  1  0  0  0  0
 15 31  2  0  0  0  0
 16 29  2  0  0  0  0
 16 30  1  0  0  0  0
 17 32  1  0  0  0  0
 18 32  1  0  0  0  0
 18 33  2  0  0  0  0
 18 36  1  0  0  0  0
 19 21  2  0  0  0  0
 19 41  1  0  0  0  0
 20 22  2  0  0  0  0
 20 42  1  0  0  0  0
 21 53  1  0  0  0  0
 22 43  1  0  0  0  0
 23 64  1  0  0  0  0
 24 25  2  0  0  0  0
 24 63  1  0  0  0  0
 25 31  1  0  0  0  0
 25 74  1  0  0  0  0
 26 84  1  0  0  0  0
 27 85  1  0  0  0  0
 28 30  2  0  0  0  0
 28 84  1  0  0  0  0
 29 86  1  0  0  0  0
 30 87  1  0  0  0  0
 31 88  1  0  0  0  0
 32 68  2  0  0  0  0
 33 69  1  0  0  0  0
 33 72  1  0  0  0  0
 34 35  2  0  0  0  0
 34 54  1  0  0  0  0
 34 77  1  0  0  0  0
 36 73  1  0  0  0  0
 36 79  2  0  0  0  0
 37 55  1  0  0  0  0
 37 75  1  0  0  0  0
 37 80  2  0  0  0  0
 38 65  1  0  0  0  0
 38 70  1  0  0  0  0
 38 81  2  0  0  0  0
 39 66  1  0  0  0  0
 39 76  1  0  0  0  0
 39 82  2  0  0  0  0
 40 71  1  0  0  0  0
 40 74  1  0  0  0  0
 40 83  2  0  0  0  0
 41 44  1  0  0  0  0
 42 55  1  0  0  0  0
 43 70  1  0  0  0  0
 44 47  1  0  0  0  0
 45 49  1  0  0  0  0
 45 50  1  0  0  0  0
 46 48  1  0  0  0  0
 46 52  1  0  0  0  0
 47 53  1  0  0  0  0
 48 54  1  0  0  0  0
 49 56  1  0  0  0  0
 50 71  1  0  0  0  0
 51 56  1  0  0  0  0
 51 71  1  0  0  0  0
 52 77  1  0  0  0  0
 53 75  1  0  0  0  0
 54 85  1  0  0  0  0
 55 70  1  0  0  0  0
 56 69  1  0  0  0  0
 57 63  1  0  0  0  0
 58 66  1  0  0  0  0
 59 67  1  0  0  0  0
 60 67  1  0  0  0  0
 61 67  1  0  0  0  0
 62 78  1  0  0  0  0
 64 77  1  0  0  0  0
 65 67  1  0  0  0  0
 65 76  1  0  0  0  0
 66 78  1  0  0  0  0
 68 69  1  0  0  0  0
M  CHG  2  77   1  78   1
M  ISO  4  40 100  54 101  74 100  85 101
M  END
> <Batch ID>
0038

> <Smiles>
C=C1N(Cc2cc(Cl)c([100NH:0][100C:0](=O)N3CCCC(n4nc(-c5ccc(Oc6ccc(F)cc6F)cc5)c(C(N)=O)c4N)C3)c(CC)c2)CCC[101CH:1]1[101O:1]c1ccc2c(c1)CN(C(=O)C(NC(=O)C(C)NC)C(C)(C)C)C(C(=O)NC1CCCc3ccccc31)C2

> <Shape>
0.255

> <Color>
0.104

> <Negative vol penalty>
0.000

$$$$

  -OEChem-04042322003D

 88 97  0     1  0  0  0  0  0999 V2000
  -23.8459  -37.4705   24.4803 C   0  0  0  0  0  0  0  0  0  0  0  0
  -23.0029  -36.6115   23.7844 C   0  0  0  0  0  0  0  0  0  0  0  0
  -23.1398  -10.3056   20.4433 C   0  0  0  0  0  0  0  0  0  0  0  0
  -24.7494   -8.8121   21.4512 C   0  0  0  0  0  0  0  0  0  0  0  0
  -25.2268  -37.3054   24.3962 C   0  0  0  0  0  0  0  0  0  0  0  0
  -23.5401  -35.5799   23.0136 C   0  0  0  0  0  0  0  0  0  0  0  0
  -25.1717  -28.5008   18.9361 C   0  0  0  0  0  0  0  0  0  0  0  0
  -22.1461   -9.3391   20.5981 C   0  0  0  0  0  0  0  0  0  0  0  0
  -23.7556   -7.8456   21.6061 C   0  0  0  0  0  0  0  0  0  0  0  0
  -26.3214  -27.7491   18.6974 C   0  0  0  0  0  0  0  0  0  0  0  0
  -21.1911   -7.2285   23.7187 C   0  0  0  0  0  0  0  0  0  0  0  0
  -21.1195   -6.5653   24.9437 C   0  0  0  0  0  0  0  0  0  0  0  0
  -27.0595  -28.1726   20.9547 C   0  0  0  0  0  0  0  0  0  0  0  0
  -27.7798  -20.3000   20.2770 C   0  0  0  0  0  0  0  0  0  0  0  0
  -28.5551  -19.3872   22.7966 C   0  0  0  0  0  0  0  0  0  0  0  0
  -21.4914   -4.4570   23.8240 C   0  0  0  0  0  0  0  0  0  0  0  0
  -24.4415  -10.0421   20.8698 C   0  0  0  0  0  0  0  0  0  0  0  0
  -25.9151  -11.6144   19.5045 C   0  0  0  0  0  0  0  0  0  0  0  0
  -25.7807  -36.2787   23.6138 C   0  0  0  0  0  0  0  0  0  0  0  0
  -24.9621  -29.1041   20.1845 C   0  0  0  0  0  0  0  0  0  0  0  0
  -24.9305  -35.3821   22.9350 C   0  0  0  0  0  0  0  0  0  0  0  0
  -25.9051  -28.9292   21.2074 C   0  0  0  0  0  0  0  0  0  0  0  0
  -28.0501  -21.2126   21.2966 C   0  0  0  0  0  0  0  0  0  0  0  0
  -28.2847  -18.4745   21.7770 C   0  0  0  0  0  0  0  0  0  0  0  0
  -22.4540   -8.1091   21.1795 C   0  0  0  0  0  0  0  0  0  0  0  0
  -27.2669  -27.5873   19.7058 C   0  0  0  0  0  0  0  0  0  0  0  0
  -21.4128   -6.5059   22.5463 C   0  0  0  0  0  0  0  0  0  0  0  0
  -21.2696   -5.1796   24.9963 C   0  0  0  0  0  0  0  0  0  0  0  0
  -21.5630   -5.1202   22.5990 C   0  0  0  0  0  0  0  0  0  0  0  0
  -27.8971  -18.9309   20.5172 C   0  0  0  0  0  0  0  0  0  0  0  0
  -28.4378  -20.7562   22.5564 C   0  0  0  0  0  0  0  0  0  0  0  0
  -25.4686  -11.0399   20.7096 C   0  0  0  0  0  0  0  0  0  0  0  0
  -26.8936  -12.4988   19.8876 C   0  0  0  0  0  0  0  0  0  0  0  0
  -28.6491  -24.4353   19.4937 C   0  0  0  0  0  0  0  0  0  0  0  0
  -28.3749  -24.3417   18.1820 C   0  0  0  0  0  0  0  0  0  0  0  0
  -25.4838  -11.3705   18.1591 C   0  0  0  0  0  0  0  0  0  0  0  0
  -24.6453  -32.0980   21.2041 C   0  0  0  0  0  0  0  0  0  0  0  0
  -23.9884  -30.6529   24.0330 C   0  0  0  0  0  0  0  0  0  0  0  0
  -25.2729  -27.8625   25.9253 C   0  0  0  0  0  0  0  0  0  0  0  0
  -28.7920  -16.5022   23.2598 C   0  0  0  0  0  0  0  0  0  0  0  0
  -27.2819  -36.1407   23.5644 C   0  0  0  0  0  0  0  0  0  0  0  0
  -23.7039  -29.8895   20.4344 C   0  0  0  0  0  0  0  0  0  0  0  0
  -25.7175  -29.5394   22.5716 C   0  0  0  0  0  0  0  0  0  0  0  0
  -27.7638  -35.3078   22.3810 C   0  0  0  0  0  0  0  0  0  0  0  0
  -29.1924  -13.1370   24.3519 C   0  0  0  0  0  0  0  0  0  0  0  0
  -30.2789  -24.6348   21.8439 C   0  0  0  0  0  0  0  0  0  0  0  0
  -26.9832  -34.0038   22.3111 C   0  0  0  0  0  0  0  0  0  0  0  0
  -29.9034  -25.8977   21.0769 C   0  0  0  0  0  0  0  0  0  0  0  0
  -28.2961  -12.3387   23.4025 C   0  0  0  0  0  0  0  0  0  0  0  0
  -28.5806  -14.4916   24.7048 C   0  0  0  0  0  0  0  0  0  0  0  0
  -27.2938  -14.5170   22.6041 C   0  0  0  0  0  0  0  0  0  0  0  0
  -30.3355  -23.4201   20.9233 C   0  0  0  0  0  0  0  0  0  0  0  0
  -25.4929  -34.2719   22.0659 C   0  0  1  0  0  0  0  0  0  0  0  0
  -28.6004  -25.7133   20.3006 C   0  0  1  0  0  0  0  0  0  1  0  0
  -23.8399  -30.8868   21.5809 C   0  0  1  0  0  0  0  0  0  0  0  0
  -27.8984  -13.1723   22.1686 C   0  0  2  0  0  0  0  0  0  0  0  0
  -28.4309  -23.0689   17.4121 C   0  0  0  0  0  0  0  0  0  0  0  0
  -24.1489  -26.3741   27.6042 C   0  0  0  0  0  0  0  0  0  0  0  0
  -25.1215  -32.6025   26.0885 C   0  0  0  0  0  0  0  0  0  0  0  0
  -25.5724  -30.6497   27.5891 C   0  0  0  0  0  0  0  0  0  0  0  0
  -23.2312  -31.1917   26.9200 C   0  0  0  0  0  0  0  0  0  0  0  0
  -26.0006  -25.4203   24.4203 C   0  0  0  0  0  0  0  0  0  0  0  0
  -27.9129  -22.6764   20.9976 C   0  0  0  0  0  0  0  0  0  0  0  0
  -24.8081  -30.1934   25.2145 C   0  0  1  0  0  0  0  0  0  0  0  0
  -24.5869  -26.5281   26.1560 C   0  0  2  0  0  0  0  0  0  0  0  0
  -24.6942  -31.1602   26.4268 C   0  0  0  0  0  0  0  0  0  0  0  0
  -26.1109  -11.5188   21.7783 N   0  0  0  0  0  0  0  0  0  0  0  0
  -26.9710  -12.4037   21.2460 N   0  0  0  0  0  0  0  0  0  0  0  0
  -24.4742  -30.3037   22.7649 N   0  0  0  0  0  0  0  0  0  0  0  0
  -28.2330  -15.2267   23.4867 N   0  0  0  0  0  0  0  0  0  0  0  0
  -27.6869  -13.3407   19.1917 N   0  0  0  0  0  0  0  0  0  0  0  0
  -26.1290  -10.3682   17.4219 N   0  0  0  0  0  0  0  0  0  0  0  0
  -28.4144  -17.0909   22.0534 N   0  0  0  0  0  0  0  0  0  0  0  0
  -24.7600  -33.0339   22.2143 N   0  0  0  0  0  0  0  0  0  0  0  0
  -24.3844  -28.8265   25.4984 N   0  0  0  0  0  0  0  0  0  0  0  0
  -29.0437  -23.2165   20.1659 N   0  3  1  0  0  0  0  0  0  0  0  0
  -25.5099  -25.4066   25.8224 N   0  3  0  0  0  0  0  0  0  0  0  0
  -24.5648  -12.0333   17.6208 O   0  0  0  0  0  0  0  0  0  0  0  0
  -25.1281  -32.1770   20.0806 O   0  0  0  0  0  0  0  0  0  0  0  0
  -22.9514  -31.2918   24.2282 O   0  0  0  0  0  0  0  0  0  0  0  0
  -26.4760  -28.0335   26.1093 O   0  0  0  0  0  0  0  0  0  0  0  0
  -29.5713  -17.0214   24.0630 O   0  0  0  0  0  0  0  0  0  0  0  0
  -21.4845   -7.1659   21.3310 O   0  0  0  0  0  0  0  0  0  0  0  0
  -28.3903  -26.8547   19.4753 O   0  0  0  0  0  0  0  0  0  1  0  0
  -21.2024   -4.5430   26.1730 F   0  0  0  0  0  0  0  0  0  0  0  0
  -21.7774   -4.4207   21.4762 F   0  0  0  0  0  0  0  0  0  0  0  0
  -27.5523  -17.8351   19.2270 Cl  0  0  0  0  0  0  0  0  0  0  0  0
  -28.7791  -21.8565   23.8419 Cl  0  0  0  0  0  0  0  0  0  0  0  0
  1  2  1  0  0  0  0
  1  5  2  0  0  0  0
  2  6  2  0  0  0  0
  3  8  2  0  0  0  0
  3 17  1  0  0  0  0
  4  9  1  0  0  0  0
  4 17  2  0  0  0  0
  5 19  1  0  0  0  0
  6 21  1  0  0  0  0
  7 10  2  0  0  0  0
  7 20  1  0  0  0  0
  8 25  1  0  0  0  0
  9 25  2  0  0  0  0
 10 26  1  0  0  0  0
 11 12  2  0  0  0  0
 11 27  1  0  0  0  0
 12 28  1  0  0  0  0
 13 22  1  0  0  0  0
 13 26  2  0  0  0  0
 14 23  1  0  0  0  0
 14 30  2  0  0  0  0
 15 24  2  0  0  0  0
 15 31  1  0  0  0  0
 16 28  2  0  0  0  0
 16 29  1  0  0  0  0
 17 32  1  0  0  0  0
 18 32  1  0  0  0  0
 18 33  2  0  0  0  0
 18 36  1  0  0  0  0
 19 21  2  0  0  0  0
 19 41  1  0  0  0  0
 20 22  2  0  0  0  0
 20 42  1  0  0  0  0
 21 53  1  0  0  0  0
 22 43  1  0  0  0  0
 23 31  2  0  0  0  0
 23 63  1  0  0  0  0
 24 30  1  0  0  0  0
 24 73  1  0  0  0  0
 25 83  1  0  0  0  0
 26 84  1  0  0  0  0
 27 29  2  0  0  0  0
 27 83  1  0  0  0  0
 28 85  1  0  0  0  0
 29 86  1  0  0  0  0
 30 87  1  0  0  0  0
 31 88  1  0  0  0  0
 32 67  2  0  0  0  0
 33 68  1  0  0  0  0
 33 71  1  0  0  0  0
 34 35  2  0  0  0  0
 34 54  1  0  0  0  0
 34 76  1  0  0  0  0
 35 57  1  0  0  0  0
 36 72  1  0  0  0  0
 36 78  2  0  0  0  0
 37 55  1  0  0  0  0
 37 74  1  0  0  0  0
 37 79  2  0  0  0  0
 38 64  1  0  0  0  0
 38 69  1  0  0  0  0
 38 80  2  0  0  0  0
 39 65  1  0  0  0  0
 39 75  1  0  0  0  0
 39 81  2  0  0  0  0
 40 70  1  0  0  0  0
 40 73  1  0  0  0  0
 40 82  2  0  0  0  0
 41 44  1  0  0  0  0
 42 55  1  0  0  0  0
 43 69  1  0  0  0  0
 44 47  1  0  0  0  0
 45 49  1  0  0  0  0
 45 50  1  0  0  0  0
 46 48  1  0  0  0  0
 46 52  1  0  0  0  0
 47 53  1  0  0  0  0
 48 54  1  0  0  0  0
 49 56  1  0  0  0  0
 50 70  1  0  0  0  0
 51 56  1  0  0  0  0
 51 70  1  0  0  0  0
 52 76  1  0  0  0  0
 53 74  1  0  0  0  0
 54 84  1  0  0  0  0
 55 69  1  0  0  0  0
 56 68  1  0  0  0  0
 58 65  1  0  0  0  0
 59 66  1  0  0  0  0
 60 66  1  0  0  0  0
 61 66  1  0  0  0  0
 62 77  1  0  0  0  0
 63 76  1  0  0  0  0
 64 66  1  0  0  0  0
 64 75  1  0  0  0  0
 65 77  1  0  0  0  0
 67 68  1  0  0  0  0
M  CHG  2  76   1  77   1
M  ISO  4  40 100  54 101  73 100  84 101
M  END
> <Batch ID>
0038

> <Smiles>
CC=C1N(Cc2cc(Cl)c([100NH:0][100C:0](=O)N3CCCC(n4nc(-c5ccc(Oc6ccc(F)cc6F)cc5)c(C(N)=O)c4N)C3)cc2Cl)CCC[101CH:1]1[101O:1]c1ccc2c(c1)CN(C(=O)C(NC(=O)C(C)NC)C(C)(C)C)C(C(=O)NC1CCCc3ccccc31)C2

> <Shape>
0.324

> <Color>
0.105

> <Negative vol penalty>
0.000

$$$$

  -OEChem-04042322003D

 88 97  0     1  0  0  0  0  0999 V2000
  -23.8518  -37.4209   24.6326 C   0  0  0  0  0  0  0  0  0  0  0  0
  -23.0114  -36.5802   23.9116 C   0  0  0  0  0  0  0  0  0  0  0  0
  -23.1501  -10.2605   20.4141 C   0  0  0  0  0  0  0  0  0  0  0  0
  -24.7518   -8.7897   21.4669 C   0  0  0  0  0  0  0  0  0  0  0  0
  -25.2326  -37.2497   24.5594 C   0  0  0  0  0  0  0  0  0  0  0  0
  -23.5508  -35.5605   23.1267 C   0  0  0  0  0  0  0  0  0  0  0  0
  -25.1858  -28.5515   18.9312 C   0  0  0  0  0  0  0  0  0  0  0  0
  -22.1584   -9.2920   20.5698 C   0  0  0  0  0  0  0  0  0  0  0  0
  -23.7602   -7.8212   21.6227 C   0  0  0  0  0  0  0  0  0  0  0  0
  -26.3337  -27.7980   18.6900 C   0  0  0  0  0  0  0  0  0  0  0  0
  -21.1691   -7.2247   23.7086 C   0  0  0  0  0  0  0  0  0  0  0  0
  -21.0833   -6.5799   24.9424 C   0  0  0  0  0  0  0  0  0  0  0  0
  -27.0507  -28.1740   20.9624 C   0  0  0  0  0  0  0  0  0  0  0  0
  -28.4942  -19.3969   22.7072 C   0  0  0  0  0  0  0  0  0  0  0  0
  -21.4798   -4.4565   23.8603 C   0  0  0  0  0  0  0  0  0  0  0  0
  -24.4468  -10.0093   20.8626 C   0  0  0  0  0  0  0  0  0  0  0  0
  -25.9325  -11.5674   19.4941 C   0  0  0  0  0  0  0  0  0  0  0  0
  -25.7889  -36.2350   23.7632 C   0  0  0  0  0  0  0  0  0  0  0  0
  -24.9666  -29.1320   20.1888 C   0  0  0  0  0  0  0  0  0  0  0  0
  -24.9409  -35.3564   23.0587 C   0  0  0  0  0  0  0  0  0  0  0  0
  -25.8979  -28.9322   21.2178 C   0  0  0  0  0  0  0  0  0  0  0  0
  -28.3735  -20.7626   22.4504 C   0  0  0  0  0  0  0  0  0  0  0  0
  -27.9994  -21.2032   21.1810 C   0  0  0  0  0  0  0  0  0  0  0  0
  -27.7460  -20.2781   20.1682 C   0  0  0  0  0  0  0  0  0  0  0  0
  -28.2409  -18.4718   21.6944 C   0  0  0  0  0  0  0  0  0  0  0  0
  -22.4635   -8.0724   21.1741 C   0  0  0  0  0  0  0  0  0  0  0  0
  -27.2678  -27.6115   19.7048 C   0  0  0  0  0  0  0  0  0  0  0  0
  -21.4102   -6.4854   22.5506 C   0  0  0  0  0  0  0  0  0  0  0  0
  -21.2386   -5.1958   25.0183 C   0  0  0  0  0  0  0  0  0  0  0  0
  -21.5656   -5.1013   22.6264 C   0  0  0  0  0  0  0  0  0  0  0  0
  -27.8667  -18.9124   20.4250 C   0  0  0  0  0  0  0  0  0  0  0  0
  -25.4717  -11.0092   20.7015 C   0  0  0  0  0  0  0  0  0  0  0  0
  -26.9018  -12.4619   19.8772 C   0  0  0  0  0  0  0  0  0  0  0  0
  -28.6348  -24.4563   19.4464 C   0  0  0  0  0  0  0  0  0  0  0  0
  -28.3738  -24.3894   18.1305 C   0  0  0  0  0  0  0  0  0  0  0  0
  -25.5210  -11.3012   18.1466 C   0  0  0  0  0  0  0  0  0  0  0  0
  -24.6556  -32.1076   21.2623 C   0  0  0  0  0  0  0  0  0  0  0  0
  -23.9615  -30.6124   24.0560 C   0  0  0  0  0  0  0  0  0  0  0  0
  -25.2109  -27.7791   25.9076 C   0  0  0  0  0  0  0  0  0  0  0  0
  -28.7358  -16.5245   23.2140 C   0  0  0  0  0  0  0  0  0  0  0  0
  -27.2898  -36.0894   23.7267 C   0  0  0  0  0  0  0  0  0  0  0  0
  -23.7102  -29.9196   20.4407 C   0  0  0  0  0  0  0  0  0  0  0  0
  -25.6995  -29.5172   22.5914 C   0  0  0  0  0  0  0  0  0  0  0  0
  -27.7793  -35.2765   22.5325 C   0  0  0  0  0  0  0  0  0  0  0  0
  -29.1355  -13.1781   24.3627 C   0  0  0  0  0  0  0  0  0  0  0  0
  -30.2411  -24.6015   21.8167 C   0  0  0  0  0  0  0  0  0  0  0  0
  -26.9924  -33.9786   22.4296 C   0  0  0  0  0  0  0  0  0  0  0  0
  -29.8806  -25.8811   21.0702 C   0  0  0  0  0  0  0  0  0  0  0  0
  -28.2558  -12.3614   23.4132 C   0  0  0  0  0  0  0  0  0  0  0  0
  -28.5129  -14.5351   24.6864 C   0  0  0  0  0  0  0  0  0  0  0  0
  -27.2554  -14.5228   22.5679 C   0  0  0  0  0  0  0  0  0  0  0  0
  -30.3007  -23.4044   20.8736 C   0  0  0  0  0  0  0  0  0  0  0  0
  -25.5062  -34.2597   22.1743 C   0  0  1  0  0  0  0  0  0  0  0  0
  -28.5847  -25.7189   20.2772 C   0  0  1  0  0  0  0  0  0  1  0  0
  -23.8397  -30.8940   21.6075 C   0  0  1  0  0  0  0  0  0  0  0  0
  -27.8718  -13.1744   22.1613 C   0  0  2  0  0  0  0  0  0  0  0  0
  -28.6514  -21.7325   23.5523 C   0  0  0  0  0  0  0  0  0  0  0  0
  -27.3473  -20.7718   18.8116 C   0  0  0  0  0  0  0  0  0  0  0  0
  -24.0613  -26.2653   27.5460 C   0  0  0  0  0  0  0  0  0  0  0  0
  -25.0838  -32.5159   26.1601 C   0  0  0  0  0  0  0  0  0  0  0  0
  -25.5084  -30.5322   27.6275 C   0  0  0  0  0  0  0  0  0  0  0  0
  -23.1773  -31.1003   26.9449 C   0  0  0  0  0  0  0  0  0  0  0  0
  -25.9407  -25.3620   24.3635 C   0  0  0  0  0  0  0  0  0  0  0  0
  -27.8734  -22.6732   20.9087 C   0  0  0  0  0  0  0  0  0  0  0  0
  -24.7663  -30.1257   25.2368 C   0  0  1  0  0  0  0  0  0  0  0  0
  -24.5152  -26.4444   26.1056 C   0  0  2  0  0  0  0  0  0  0  0  0
  -24.6452  -31.0699   26.4662 C   0  0  0  0  0  0  0  0  0  0  0  0
  -26.0970  -11.5072   21.7715 N   0  0  0  0  0  0  0  0  0  0  0  0
  -26.9607  -12.3877   21.2378 N   0  0  0  0  0  0  0  0  0  0  0  0
  -24.4585  -30.2848   22.7866 N   0  0  0  0  0  0  0  0  0  0  0  0
  -28.1792  -15.2501   23.4526 N   0  0  0  0  0  0  0  0  0  0  0  0
  -27.7011  -13.2967   19.1796 N   0  0  0  0  0  0  0  0  0  0  0  0
  -26.1807  -10.2907   17.4338 N   0  0  0  0  0  0  0  0  0  0  0  0
  -28.3726  -17.0931   21.9937 N   0  0  0  0  0  0  0  0  0  0  0  0
  -24.7650  -33.0233   22.2914 N   0  0  0  0  0  0  0  0  0  0  0  0
  -24.3321  -28.7562   25.4902 N   0  0  0  0  0  0  0  0  0  0  0  0
  -29.0156  -23.2227   20.0992 N   0  3  1  0  0  0  0  0  0  0  0  0
  -25.4354  -25.3243   25.7600 N   0  3  0  0  0  0  0  0  0  0  0  0
  -24.6068  -11.9516   17.5856 O   0  0  0  0  0  0  0  0  0  0  0  0
  -25.1506  -32.2053   20.1455 O   0  0  0  0  0  0  0  0  0  0  0  0
  -22.9260  -31.2534   24.2528 O   0  0  0  0  0  0  0  0  0  0  0  0
  -26.4129  -27.9397   26.1071 O   0  0  0  0  0  0  0  0  0  0  0  0
  -29.5016  -17.0593   24.0200 O   0  0  0  0  0  0  0  0  0  0  0  0
  -21.4960   -7.1272   21.3264 O   0  0  0  0  0  0  0  0  0  0  0  0
  -28.3895  -26.8771   19.4719 O   0  0  0  0  0  0  0  0  0  1  0  0
  -21.1577   -4.5769   26.2035 F   0  0  0  0  0  0  0  0  0  0  0  0
  -21.7986   -4.3859   21.5175 F   0  0  0  0  0  0  0  0  0  0  0  0
  -27.5500  -17.7634   19.1649 Cl  0  0  0  0  0  0  0  0  0  0  0  0
  1  2  1  0  0  0  0
  1  5  2  0  0  0  0
  2  6  2  0  0  0  0
  3  8  2  0  0  0  0
  3 16  1  0  0  0  0
  4  9  1  0  0  0  0
  4 16  2  0  0  0  0
  5 18  1  0  0  0  0
  6 20  1  0  0  0  0
  7 10  2  0  0  0  0
  7 19  1  0  0  0  0
  8 26  1  0  0  0  0
  9 26  2  0  0  0  0
 10 27  1  0  0  0  0
 11 12  2  0  0  0  0
 11 28  1  0  0  0  0
 12 29  1  0  0  0  0
 13 21  1  0  0  0  0
 13 27  2  0  0  0  0
 14 22  2  0  0  0  0
 14 25  1  0  0  0  0
 15 29  2  0  0  0  0
 15 30  1  0  0  0  0
 16 32  1  0  0  0  0
 17 32  1  0  0  0  0
 17 33  2  0  0  0  0
 17 36  1  0  0  0  0
 18 20  2  0  0  0  0
 18 41  1  0  0  0  0
 19 21  2  0  0  0  0
 19 42  1  0  0  0  0
 20 53  1  0  0  0  0
 21 43  1  0  0  0  0
 22 23  1  0  0  0  0
 22 57  1  0  0  0  0
 23 24  2  0  0  0  0
 23 64  1  0  0  0  0
 24 31  1  0  0  0  0
 24 58  1  0  0  0  0
 25 31  2  0  0  0  0
 25 74  1  0  0  0  0
 26 84  1  0  0  0  0
 27 85  1  0  0  0  0
 28 30  2  0  0  0  0
 28 84  1  0  0  0  0
 29 86  1  0  0  0  0
 30 87  1  0  0  0  0
 31 88  1  0  0  0  0
 32 68  2  0  0  0  0
 33 69  1  0  0  0  0
 33 72  1  0  0  0  0
 34 35  2  0  0  0  0
 34 54  1  0  0  0  0
 34 77  1  0  0  0  0
 36 73  1  0  0  0  0
 36 79  2  0  0  0  0
 37 55  1  0  0  0  0
 37 75  1  0  0  0  0
 37 80  2  0  0  0  0
 38 65  1  0  0  0  0
 38 70  1  0  0  0  0
 38 81  2  0  0  0  0
 39 66  1  0  0  0  0
 39 76  1  0  0  0  0
 39 82  2  0  0  0  0
 40 71  1  0  0  0  0
 40 74  1  0  0  0  0
 40 83  2  0  0  0  0
 41 44  1  0  0  0  0
 42 55  1  0  0  0  0
 43 70  1  0  0  0  0
 44 47  1  0  0  0  0
 45 49  1  0  0  0  0
 45 50  1  0  0  0  0
 46 48  1  0  0  0  0
 46 52  1  0  0  0  0
 47 53  1  0  0  0  0
 48 54  1  0  0  0  0
 49 56  1  0  0  0  0
 50 71  1  0  0  0  0
 51 56  1  0  0  0  0
 51 71  1  0  0  0  0
 52 77  1  0  0  0  0
 53 75  1  0  0  0  0
 54 85  1  0  0  0  0
 55 70  1  0  0  0  0
 56 69  1  0  0  0  0
 59 66  1  0  0  0  0
 60 67  1  0  0  0  0
 61 67  1  0  0  0  0
 62 67  1  0  0  0  0
 63 78  1  0  0  0  0
 64 77  1  0  0  0  0
 65 67  1  0  0  0  0
 65 76  1  0  0  0  0
 66 78  1  0  0  0  0
 68 69  1  0  0  0  0
M  CHG  2  77   1  78   1
M  ISO  4  40 100  54 101  74 100  85 101
M  END
> <Batch ID>
0038

> <Smiles>
C=C1N(Cc2c(C)cc([100NH:0][100C:0](=O)N3CCCC(n4nc(-c5ccc(Oc6ccc(F)cc6F)cc5)c(C(N)=O)c4N)C3)c(Cl)c2C)CCC[101CH:1]1[101O:1]c1ccc2c(c1)CN(C(=O)C(NC(=O)C(C)NC)C(C)(C)C)C(C(=O)NC1CCCc3ccccc31)C2

> <Shape>
0.323

> <Color>
0.105

> <Negative vol penalty>
0.000

$$$$

  -OEChem-04042322003D

 87 96  0     1  0  0  0  0  0999 V2000
  -24.0849   -8.1840   21.4074 C   0  0  0  0  0  0  0  0  0  0  0  0
  -24.4287   -9.2293   20.5563 C   0  0  0  0  0  0  0  0  0  0  0  0
  -24.3159  -28.4508   23.5598 C   0  0  0  0  0  0  0  0  0  0  0  0
  -24.7809  -29.6316   21.5040 C   0  0  0  0  0  0  0  0  0  0  0  0
  -22.9396   -8.2774   22.1970 C   0  0  0  0  0  0  0  0  0  0  0  0
  -23.6267  -10.3683   20.4933 C   0  0  0  0  0  0  0  0  0  0  0  0
  -26.3273  -14.6518   20.5527 C   0  0  0  0  0  0  0  0  0  0  0  0
  -22.9533  -28.6982   23.3938 C   0  0  0  0  0  0  0  0  0  0  0  0
  -23.4182  -29.8791   21.3379 C   0  0  0  0  0  0  0  0  0  0  0  0
  -26.9464  -15.0307   19.3624 C   0  0  0  0  0  0  0  0  0  0  0  0
  -20.3980  -27.4439   21.5688 C   0  0  0  0  0  0  0  0  0  0  0  0
  -19.5158  -26.3856   21.7859 C   0  0  0  0  0  0  0  0  0  0  0  0
  -25.1615  -16.5975   18.9400 C   0  0  0  0  0  0  0  0  0  0  0  0
  -28.5991  -19.9593   22.1799 C   0  0  0  0  0  0  0  0  0  0  0  0
  -30.0486  -21.1220   20.0990 C   0  0  0  0  0  0  0  0  0  0  0  0
  -18.4348  -27.6465   23.5405 C   0  0  0  0  0  0  0  0  0  0  0  0
  -25.2297  -28.9175   22.6150 C   0  0  0  0  0  0  0  0  0  0  0  0
  -27.4502  -29.0684   23.8618 C   0  0  0  0  0  0  0  0  0  0  0  0
  -22.1284   -9.4222   22.1508 C   0  0  0  0  0  0  0  0  0  0  0  0
  -25.1131  -15.2360   20.9409 C   0  0  0  0  0  0  0  0  0  0  0  0
  -22.4687  -10.4765   21.2820 C   0  0  0  0  0  0  0  0  0  0  0  0
  -24.5303  -16.2261   20.1370 C   0  0  0  0  0  0  0  0  0  0  0  0
  -29.0577  -19.1715   21.1241 C   0  0  0  0  0  0  0  0  0  0  0  0
  -28.8652  -21.3285   22.1952 C   0  0  0  0  0  0  0  0  0  0  0  0
  -29.7824  -19.7528   20.0837 C   0  0  0  0  0  0  0  0  0  0  0  0
  -29.5900  -21.9098   21.1548 C   0  0  0  0  0  0  0  0  0  0  0  0
  -22.5044  -29.4123   22.2828 C   0  0  0  0  0  0  0  0  0  0  0  0
  -26.3620  -16.0017   18.5544 C   0  0  0  0  0  0  0  0  0  0  0  0
  -20.2987  -28.6036   22.3376 C   0  0  0  0  0  0  0  0  0  0  0  0
  -18.5342  -26.4869   22.7717 C   0  0  0  0  0  0  0  0  0  0  0  0
  -19.3170  -28.7049   23.3234 C   0  0  0  0  0  0  0  0  0  0  0  0
  -26.6375  -28.6627   22.7862 C   0  0  0  0  0  0  0  0  0  0  0  0
  -28.6969  -28.5818   23.5527 C   0  0  0  0  0  0  0  0  0  0  0  0
  -30.2635  -18.7320   16.5213 C   0  0  0  0  0  0  0  0  0  0  0  0
  -30.7878  -19.7059   15.7620 C   0  0  0  0  0  0  0  0  0  0  0  0
  -27.1087  -29.8180   25.0353 C   0  0  0  0  0  0  0  0  0  0  0  0
  -22.1707  -14.1548   21.4675 C   0  0  0  0  0  0  0  0  0  0  0  0
  -21.6476  -17.2003   22.4541 C   0  0  0  0  0  0  0  0  0  0  0  0
  -22.5551  -20.5159   21.3584 C   0  0  0  0  0  0  0  0  0  0  0  0
  -30.5782  -24.0160   20.1885 C   0  0  0  0  0  0  0  0  0  0  0  0
  -20.8743   -9.4575   22.9880 C   0  0  0  0  0  0  0  0  0  0  0  0
  -24.4717  -14.8354   22.2411 C   0  0  0  0  0  0  0  0  0  0  0  0
  -23.2378  -16.8985   20.5188 C   0  0  0  0  0  0  0  0  0  0  0  0
  -30.4160  -17.2700   16.2007 C   0  0  0  0  0  0  0  0  0  0  0  0
  -20.2822  -10.8563   23.1394 C   0  0  0  0  0  0  0  0  0  0  0  0
  -29.0580  -16.5788   16.2181 C   0  0  0  0  0  0  0  0  0  0  0  0
  -31.4497  -27.4465   19.8021 C   0  0  0  0  0  0  0  0  0  0  0  0
  -20.2309  -11.5633   21.7887 C   0  0  0  0  0  0  0  0  0  0  0  0
  -30.3921  -28.1842   20.6264 C   0  0  0  0  0  0  0  0  0  0  0  0
  -30.8656  -26.2270   19.0912 C   0  0  0  0  0  0  0  0  0  0  0  0
  -29.0876  -26.0255   20.7845 C   0  0  0  0  0  0  0  0  0  0  0  0
  -28.1499  -18.4301   17.6717 C   0  0  0  0  0  0  0  0  0  0  0  0
  -21.6376  -11.7388   21.2040 C   0  0  1  0  0  0  0  0  0  0  0  0
  -22.9748  -15.1269   22.2837 C   0  0  1  0  0  0  0  0  0  0  0  0
  -29.6431  -27.2240   21.5710 C   0  0  2  0  0  0  0  0  0  0  0  0
  -28.2762  -16.9200   17.4865 C   0  0  1  0  0  0  0  0  0  1  0  0
  -28.7603  -17.7079   21.1290 C   0  0  0  0  0  0  0  0  0  0  0  0
  -28.3619  -22.1481   23.3388 C   0  0  0  0  0  0  0  0  0  0  0  0
  -22.8151  -22.6487   22.6550 C   0  0  0  0  0  0  0  0  0  0  0  0
  -18.7462  -17.7012   21.6536 C   0  0  0  0  0  0  0  0  0  0  0  0
  -19.3194  -20.1198   21.3539 C   0  0  0  0  0  0  0  0  0  0  0  0
  -19.5403  -19.0565   23.5996 C   0  0  0  0  0  0  0  0  0  0  0  0
  -25.3181  -20.9129   20.3750 C   0  0  0  0  0  0  0  0  0  0  0  0
  -30.2855  -18.9256   18.9376 C   0  0  0  0  0  0  0  0  0  0  0  0
  -21.2045  -18.4794   21.7859 C   0  0  1  0  0  0  0  0  0  0  0  0
  -23.5329  -21.4605   22.0338 C   0  0  2  0  0  0  0  0  0  0  0  0
  -19.7168  -18.8191   22.0839 C   0  0  0  0  0  0  0  0  0  0  0  0
  -27.3113  -27.9717   21.8629 N   0  0  0  0  0  0  0  0  0  0  0  0
  -28.5605  -27.9396   22.3573 N   0  0  0  0  0  0  0  0  0  0  0  0
  -22.6460  -16.4680   21.7963 N   0  0  0  0  0  0  0  0  0  0  0  0
  -30.1749  -25.3608   20.0492 N   0  0  0  0  0  0  0  0  0  0  0  0
  -29.8855  -28.6451   24.1896 N   0  0  0  0  0  0  0  0  0  0  0  0
  -25.7819  -30.2404   25.1957 N   0  0  0  0  0  0  0  0  0  0  0  0
  -29.8706  -23.2987   21.1525 N   0  0  0  0  0  0  0  0  0  0  0  0
  -22.3215  -12.8365   21.8534 N   0  0  0  0  0  0  0  0  0  0  0  0
  -22.1485  -19.5086   22.2076 N   0  0  0  0  0  0  0  0  0  0  0  0
  -29.4912  -19.1218   17.6760 N   0  3  1  0  0  0  0  0  0  0  0  0
  -24.5236  -21.9738   21.0460 N   0  3  0  0  0  0  0  0  0  0  0  0
  -27.9585  -30.1189   25.9075 O   0  0  0  0  0  0  0  0  0  0  0  0
  -21.4646  -14.5702   20.5562 O   0  0  0  0  0  0  0  0  0  0  0  0
  -21.1322  -16.8670   23.5241 O   0  0  0  0  0  0  0  0  0  0  0  0
  -22.1858  -20.6596   20.1949 O   0  0  0  0  0  0  0  0  0  0  0  0
  -31.5028  -23.5434   19.5222 O   0  0  0  0  0  0  0  0  0  0  0  0
  -21.1748  -29.6538   22.1204 O   0  0  0  0  0  0  0  0  0  0  0  0
  -26.9638  -16.3729   17.3917 O   0  0  0  0  0  0  0  0  0  1  0  0
  -17.6861  -25.4710   22.9790 F   0  0  0  0  0  0  0  0  0  0  0  0
  -19.2159  -29.8170   24.0643 F   0  0  0  0  0  0  0  0  0  0  0  0
  1  2  1  0  0  0  0
  1  5  2  0  0  0  0
  2  6  2  0  0  0  0
  3  8  2  0  0  0  0
  3 17  1  0  0  0  0
  4  9  1  0  0  0  0
  4 17  2  0  0  0  0
  5 19  1  0  0  0  0
  6 21  1  0  0  0  0
  7 10  2  0  0  0  0
  7 20  1  0  0  0  0
  8 27  1  0  0  0  0
  9 27  2  0  0  0  0
 10 28  1  0  0  0  0
 11 12  2  0  0  0  0
 11 29  1  0  0  0  0
 12 30  1  0  0  0  0
 13 22  1  0  0  0  0
 13 28  2  0  0  0  0
 14 23  1  0  0  0  0
 14 24  2  0  0  0  0
 15 25  1  0  0  0  0
 15 26  2  0  0  0  0
 16 30  2  0  0  0  0
 16 31  1  0  0  0  0
 17 32  1  0  0  0  0
 18 32  1  0  0  0  0
 18 33  2  0  0  0  0
 18 36  1  0  0  0  0
 19 21  2  0  0  0  0
 19 41  1  0  0  0  0
 20 22  2  0  0  0  0
 20 42  1  0  0  0  0
 21 53  1  0  0  0  0
 22 43  1  0  0  0  0
 23 25  2  0  0  0  0
 23 57  1  0  0  0  0
 24 26  1  0  0  0  0
 24 58  1  0  0  0  0
 25 64  1  0  0  0  0
 26 74  1  0  0  0  0
 27 84  1  0  0  0  0
 28 85  1  0  0  0  0
 29 31  2  0  0  0  0
 29 84  1  0  0  0  0
 30 86  1  0  0  0  0
 31 87  1  0  0  0  0
 32 68  2  0  0  0  0
 33 69  1  0  0  0  0
 33 72  1  0  0  0  0
 34 35  2  0  0  0  0
 34 44  1  0  0  0  0
 34 77  1  0  0  0  0
 36 73  1  0  0  0  0
 36 79  2  0  0  0  0
 37 54  1  0  0  0  0
 37 75  1  0  0  0  0
 37 80  2  0  0  0  0
 38 65  1  0  0  0  0
 38 70  1  0  0  0  0
 38 81  2  0  0  0  0
 39 66  1  0  0  0  0
 39 76  1  0  0  0  0
 39 82  2  0  0  0  0
 40 71  1  0  0  0  0
 40 74  1  0  0  0  0
 40 83  2  0  0  0  0
 41 45  1  0  0  0  0
 42 54  1  0  0  0  0
 43 70  1  0  0  0  0
 44 46  1  0  0  0  0
 45 48  1  0  0  0  0
 46 56  1  0  0  0  0
 47 49  1  0  0  0  0
 47 50  1  0  0  0  0
 48 53  1  0  0  0  0
 49 55  1  0  0  0  0
 50 71  1  0  0  0  0
 51 55  1  0  0  0  0
 51 71  1  0  0  0  0
 52 56  1  0  0  0  0
 52 77  1  0  0  0  0
 53 75  1  0  0  0  0
 54 70  1  0  0  0  0
 55 69  1  0  0  0  0
 56 85  1  0  0  0  0
 59 66  1  0  0  0  0
 60 67  1  0  0  0  0
 61 67  1  0  0  0  0
 62 67  1  0  0  0  0
 63 78  1  0  0  0  0
 64 77  1  0  0  0  0
 65 67  1  0  0  0  0
 65 76  1  0  0  0  0
 66 78  1  0  0  0  0
 68 69  1  0  0  0  0
M  CHG  2  77   1  78   1
M  ISO  4  40 100  56 101  74 100  85 101
M  END
> <Batch ID>
0038

> <Smiles>
C=C1CC[101CH:1]([101O:1]c2ccc3c(c2)CN(C(=O)C(NC(=O)C(C)NC)C(C)(C)C)C(C(=O)NC2CCCc4ccccc42)C3)CN1Cc1cc([100NH:0][100C:0](=O)N2CCCC(n3nc(-c4ccc(Oc5ccc(F)cc5F)cc4)c(C(N)=O)c3N)C2)c(C)cc1C

> <Shape>
0.259

> <Color>
0.062

> <Negative vol penalty>
0.000

$$$$

  -OEChem-04042322003D

 88 97  0     1  0  0  0  0  0999 V2000
  -36.8051  -22.5773   37.8427 C   0  0  0  0  0  0  0  0  0  0  0  0
  -35.4210  -22.7083   37.7928 C   0  0  0  0  0  0  0  0  0  0  0  0
  -22.6670  -10.1988   20.1661 C   0  0  0  0  0  0  0  0  0  0  0  0
  -24.3245   -9.4118   21.7379 C   0  0  0  0  0  0  0  0  0  0  0  0
  -37.5852  -23.0237   36.7769 C   0  0  0  0  0  0  0  0  0  0  0  0
  -34.8163  -23.2869   36.6775 C   0  0  0  0  0  0  0  0  0  0  0  0
  -29.2869  -20.4444   31.9474 C   0  0  0  0  0  0  0  0  0  0  0  0
  -21.9328   -9.0278   20.3541 C   0  0  0  0  0  0  0  0  0  0  0  0
  -23.5903   -8.2408   21.9258 C   0  0  0  0  0  0  0  0  0  0  0  0
  -28.4260  -19.9876   30.9493 C   0  0  0  0  0  0  0  0  0  0  0  0
  -20.8484   -7.2712   23.6469 C   0  0  0  0  0  0  0  0  0  0  0  0
  -20.6679   -6.8243   24.9558 C   0  0  0  0  0  0  0  0  0  0  0  0
  -29.4572  -21.4884   29.3580 C   0  0  0  0  0  0  0  0  0  0  0  0
  -29.0575  -17.8722   25.1954 C   0  0  0  0  0  0  0  0  0  0  0  0
  -21.7890   -4.7564   24.4043 C   0  0  0  0  0  0  0  0  0  0  0  0
  -23.8629  -10.3908   20.8580 C   0  0  0  0  0  0  0  0  0  0  0  0
  -24.1972  -12.9192   20.9104 C   0  0  0  0  0  0  0  0  0  0  0  0
  -36.9891  -23.5993   35.6437 C   0  0  0  0  0  0  0  0  0  0  0  0
  -30.2477  -21.4151   31.6505 C   0  0  0  0  0  0  0  0  0  0  0  0
  -35.5893  -23.7427   35.5961 C   0  0  0  0  0  0  0  0  0  0  0  0
  -30.3306  -21.9408   30.3506 C   0  0  0  0  0  0  0  0  0  0  0  0
  -28.6086  -19.4832   23.4518 C   0  0  0  0  0  0  0  0  0  0  0  0
  -30.0150  -17.5720   22.9977 C   0  0  0  0  0  0  0  0  0  0  0  0
  -28.4391  -19.0463   24.7656 C   0  0  0  0  0  0  0  0  0  0  0  0
  -22.3944   -8.0488   21.2339 C   0  0  0  0  0  0  0  0  0  0  0  0
  -28.5108  -20.5085   29.6579 C   0  0  0  0  0  0  0  0  0  0  0  0
  -21.4991   -6.4607   22.7167 C   0  0  0  0  0  0  0  0  0  0  0  0
  -21.1382   -5.5669   25.3346 C   0  0  0  0  0  0  0  0  0  0  0  0
  -21.9694   -5.2033   23.0954 C   0  0  0  0  0  0  0  0  0  0  0  0
  -29.8455  -17.1351   24.3114 C   0  0  0  0  0  0  0  0  0  0  0  0
  -29.3966  -18.7460   22.5678 C   0  0  0  0  0  0  0  0  0  0  0  0
  -24.6220  -11.6000   20.6639 C   0  0  0  0  0  0  0  0  0  0  0  0
  -25.2767  -13.6970   20.5694 C   0  0  0  0  0  0  0  0  0  0  0  0
  -26.2899  -19.6659   25.9426 C   0  0  0  0  0  0  0  0  0  0  0  0
  -25.3226  -18.9508   25.3506 C   0  0  0  0  0  0  0  0  0  0  0  0
  -22.9392  -13.3988   21.4035 C   0  0  0  0  0  0  0  0  0  0  0  0
  -33.0778  -23.5415   32.8934 C   0  0  0  0  0  0  0  0  0  0  0  0
  -33.8596  -22.5664   30.0919 C   0  0  0  0  0  0  0  0  0  0  0  0
  -34.5232  -20.9414   27.1668 C   0  0  0  0  0  0  0  0  0  0  0  0
  -30.7621  -14.7198   20.6655 C   0  0  0  0  0  0  0  0  0  0  0  0
  -37.8771  -24.1102   34.5368 C   0  0  0  0  0  0  0  0  0  0  0  0
  -31.1550  -21.9809   32.7090 C   0  0  0  0  0  0  0  0  0  0  0  0
  -31.3566  -23.0085   30.0855 C   0  0  0  0  0  0  0  0  0  0  0  0
  -25.9479  -20.6115   27.0781 C   0  0  0  0  0  0  0  0  0  0  0  0
  -37.1325  -24.3706   33.2299 C   0  0  0  0  0  0  0  0  0  0  0  0
  -29.5562  -12.5095   18.1481 C   0  0  0  0  0  0  0  0  0  0  0  0
  -35.8444  -25.1437   33.4942 C   0  0  0  0  0  0  0  0  0  0  0  0
  -28.1330  -12.1801   18.6018 C   0  0  0  0  0  0  0  0  0  0  0  0
  -30.5090  -12.6465   19.3336 C   0  0  0  0  0  0  0  0  0  0  0  0
  -28.6491  -13.2687   20.8261 C   0  0  0  0  0  0  0  0  0  0  0  0
  -28.2923  -20.8131   26.4883 C   0  0  0  0  0  0  0  0  0  0  0  0
  -34.8946  -24.3425   34.3928 C   0  0  1  0  0  0  0  0  0  0  0  0
  -32.5573  -22.3292   32.1787 C   0  0  1  0  0  0  0  0  0  0  0  0
  -27.6399  -13.1760   19.6688 C   0  0  2  0  0  0  0  0  0  0  0  0
  -27.3168  -20.9721   27.6562 C   0  0  2  0  0  0  0  0  0  1  0  0
  -27.9360  -20.7466   23.0082 C   0  0  0  0  0  0  0  0  0  0  0  0
  -25.5595  -17.9976   24.2294 C   0  0  0  0  0  0  0  0  0  0  0  0
  -36.2854  -20.7164   25.3944 C   0  0  0  0  0  0  0  0  0  0  0  0
  -33.0477  -25.2742   28.9462 C   0  0  0  0  0  0  0  0  0  0  0  0
  -34.0761  -24.5824   26.7708 C   0  0  0  0  0  0  0  0  0  0  0  0
  -35.4949  -24.7761   28.8134 C   0  0  0  0  0  0  0  0  0  0  0  0
  -34.8587  -18.0504   27.7038 C   0  0  0  0  0  0  0  0  0  0  0  0
  -30.8623  -16.7758   22.0519 C   0  0  0  0  0  0  0  0  0  0  0  0
  -33.8700  -22.8498   28.6111 C   0  0  1  0  0  0  0  0  0  0  0  0
  -35.7395  -20.1616   26.7009 C   0  0  2  0  0  0  0  0  0  0  0  0
  -34.1018  -24.3549   28.2974 C   0  0  0  0  0  0  0  0  0  0  0  0
  -25.8738  -11.5392   20.2018 N   0  0  0  0  0  0  0  0  0  0  0  0
  -26.2447  -12.8300   20.1552 N   0  0  0  0  0  0  0  0  0  0  0  0
  -27.6486  -19.7745   25.6735 N   0  0  0  0  0  0  0  0  0  0  0  0
  -32.6249  -22.6613   30.7454 N   0  0  0  0  0  0  0  0  0  0  0  0
  -29.9840  -13.6064   20.3078 N   0  0  0  0  0  0  0  0  0  0  0  0
  -25.4828  -15.0310   20.5864 N   0  0  0  0  0  0  0  0  0  0  0  0
  -22.7753  -13.5426   22.7880 N   0  0  0  0  0  0  0  0  0  0  0  0
  -34.2250  -23.3119   33.6287 N   0  0  0  0  0  0  0  0  0  0  0  0
  -34.8689  -21.9580   28.0318 N   0  0  0  0  0  0  0  0  0  0  0  0
  -30.1874  -15.5833   21.5900 N   0  0  0  0  0  0  0  0  0  0  0  0
  -35.3873  -18.7286   26.4924 N   0  3  0  0  0  0  0  0  0  0  0  0
  -21.9832  -13.6757   20.6401 O   0  0  0  0  0  0  0  0  0  0  0  0
  -32.4839  -24.6080   32.7853 O   0  0  0  0  0  0  0  0  0  0  0  0
  -34.9169  -22.2741   30.6576 O   0  0  0  0  0  0  0  0  0  0  0  0
  -33.3811  -20.6776   26.7972 O   0  0  0  0  0  0  0  0  0  0  0  0
  -31.8835  -14.9317   20.1917 O   0  0  0  0  0  0  0  0  0  0  0  0
  -21.6781   -6.9061   21.4177 O   0  0  0  0  0  0  0  0  0  0  0  0
  -27.6702  -20.0548   28.6872 O   0  0  0  0  0  0  0  0  0  1  0  0
  -20.9662   -5.1385   26.5920 F   0  0  0  0  0  0  0  0  0  0  0  0
  -22.5963   -4.4207   22.2064 F   0  0  0  0  0  0  0  0  0  0  0  0
  -30.5923  -15.6878   24.8855 Cl  0  0  0  0  0  0  0  0  0  0  0  0
  -29.6065  -19.2922   20.9358 Cl  0  0  0  0  0  0  0  0  0  0  0  0
  1  2  1  0  0  0  0
  1  5  2  0  0  0  0
  2  6  2  0  0  0  0
  3  8  2  0  0  0  0
  3 16  1  0  0  0  0
  4  9  1  0  0  0  0
  4 16  2  0  0  0  0
  5 18  1  0  0  0  0
  6 20  1  0  0  0  0
  7 10  2  0  0  0  0
  7 19  1  0  0  0  0
  8 25  1  0  0  0  0
  9 25  2  0  0  0  0
 10 26  1  0  0  0  0
 11 12  2  0  0  0  0
 11 27  1  0  0  0  0
 12 28  1  0  0  0  0
 13 21  1  0  0  0  0
 13 26  2  0  0  0  0
 14 24  1  0  0  0  0
 14 30  2  0  0  0  0
 15 28  2  0  0  0  0
 15 29  1  0  0  0  0
 16 32  1  0  0  0  0
 17 32  1  0  0  0  0
 17 33  2  0  0  0  0
 17 36  1  0  0  0  0
 18 20  2  0  0  0  0
 18 41  1  0  0  0  0
 19 21  2  0  0  0  0
 19 42  1  0  0  0  0
 20 52  1  0  0  0  0
 21 43  1  0  0  0  0
 22 24  2  0  0  0  0
 22 31  1  0  0  0  0
 22 56  1  0  0  0  0
 23 30  1  0  0  0  0
 23 31  2  0  0  0  0
 23 63  1  0  0  0  0
 24 69  1  0  0  0  0
 25 83  1  0  0  0  0
 26 84  1  0  0  0  0
 27 29  2  0  0  0  0
 27 83  1  0  0  0  0
 28 85  1  0  0  0  0
 29 86  1  0  0  0  0
 30 87  1  0  0  0  0
 31 88  1  0  0  0  0
 32 67  2  0  0  0  0
 33 68  1  0  0  0  0
 33 72  1  0  0  0  0
 34 35  2  0  0  0  0
 34 44  1  0  0  0  0
 34 69  1  0  0  0  0
 35 57  1  0  0  0  0
 36 73  1  0  0  0  0
 36 78  2  0  0  0  0
 37 53  1  0  0  0  0
 37 74  1  0  0  0  0
 37 79  2  0  0  0  0
 38 64  1  0  0  0  0
 38 70  1  0  0  0  0
 38 80  2  0  0  0  0
 39 65  1  0  0  0  0
 39 75  1  0  0  0  0
 39 81  2  0  0  0  0
 40 71  1  0  0  0  0
 40 76  1  0  0  0  0
 40 82  2  0  0  0  0
 41 45  1  0  0  0  0
 42 53  1  0  0  0  0
 43 70  1  0  0  0  0
 44 55  1  0  0  0  0
 45 47  1  0  0  0  0
 46 48  1  0  0  0  0
 46 49  1  0  0  0  0
 47 52  1  0  0  0  0
 48 54  1  0  0  0  0
 49 71  1  0  0  0  0
 50 54  1  0  0  0  0
 50 71  1  0  0  0  0
 51 55  1  0  0  0  0
 51 69  1  0  0  0  0
 52 74  1  0  0  0  0
 53 70  1  0  0  0  0
 54 68  1  0  0  0  0
 55 84  1  0  0  0  0
 58 65  1  0  0  0  0
 59 66  1  0  0  0  0
 60 66  1  0  0  0  0
 61 66  1  0  0  0  0
 62 77  1  0  0  0  0
 63 76  1  0  0  0  0
 64 66  1  0  0  0  0
 64 75  1  0  0  0  0
 65 77  1  0  0  0  0
 67 68  1  0  0  0  0
M  CHG  1  77   1
M  ISO  4  40 100  55 101  76 100  84 101
M  END
> <Batch ID>
0038

> <Smiles>
CC=C1C[101CH:1]([101O:1]c2ccc3c(c2)CN(C(=O)C(NC(=O)C(C)NC)C(C)(C)C)C(C(=O)NC2CCCc4ccccc42)C3)CN1c1cc(Cl)c(C[100NH:0][100C:0](=O)N2CCCC(n3nc(-c4ccc(Oc5ccc(F)cc5F)cc4)c(C(N)=O)c3N)C2)c(Cl)c1C

> <Shape>
0.187

> <Color>
0.179

> <Negative vol penalty>
0.000

$$$$

  -OEChem-04042322003D

 94103  0     1  0  0  0  0  0999 V2000
  -27.7183  -38.5881   24.4618 C   0  0  0  0  0  0  0  0  0  0  0  0
  -28.0356  -37.5344   25.3129 C   0  0  0  0  0  0  0  0  0  0  0  0
  -21.4720  -11.0279   21.2789 C   0  0  0  0  0  0  0  0  0  0  0  0
  -23.7942  -11.5903   21.6367 C   0  0  0  0  0  0  0  0  0  0  0  0
  -26.5371  -38.5536   23.7219 C   0  0  0  0  0  0  0  0  0  0  0  0
  -27.1713  -36.4460   25.4255 C   0  0  0  0  0  0  0  0  0  0  0  0
  -28.5428  -28.8348   24.3228 C   0  0  0  0  0  0  0  0  0  0  0  0
  -21.8078   -9.6751   21.2256 C   0  0  0  0  0  0  0  0  0  0  0  0
  -24.1301  -10.2375   21.5834 C   0  0  0  0  0  0  0  0  0  0  0  0
  -28.6236  -27.4794   24.0028 C   0  0  0  0  0  0  0  0  0  0  0  0
  -22.5362   -7.2013   23.4126 C   0  0  0  0  0  0  0  0  0  0  0  0
  -21.7364   -6.3064   24.1233 C   0  0  0  0  0  0  0  0  0  0  0  0
  -26.2599  -27.4481   23.4925 C   0  0  0  0  0  0  0  0  0  0  0  0
  -30.0612  -19.3511   21.0224 C   0  0  0  0  0  0  0  0  0  0  0  0
  -28.0807  -19.4195   19.6405 C   0  0  0  0  0  0  0  0  0  0  0  0
  -21.2042   -5.1509   22.0693 C   0  0  0  0  0  0  0  0  0  0  0  0
  -22.4652  -11.9855   21.4844 C   0  0  0  0  0  0  0  0  0  0  0  0
  -21.2442  -14.0073   22.4484 C   0  0  0  0  0  0  0  0  0  0  0  0
  -25.6626  -37.4598   23.8181 C   0  0  0  0  0  0  0  0  0  0  0  0
  -27.3220  -29.5066   24.2139 C   0  0  0  0  0  0  0  0  0  0  0  0
  -25.9766  -36.3974   24.6872 C   0  0  0  0  0  0  0  0  0  0  0  0
  -26.1756  -28.8087   23.7997 C   0  0  0  0  0  0  0  0  0  0  0  0
  -29.4252  -19.7323   19.8410 C   0  0  0  0  0  0  0  0  0  0  0  0
  -29.3528  -18.6571   22.0034 C   0  0  0  0  0  0  0  0  0  0  0  0
  -27.3722  -18.7255   20.6214 C   0  0  0  0  0  0  0  0  0  0  0  0
  -23.1368   -9.2799   21.3779 C   0  0  0  0  0  0  0  0  0  0  0  0
  -27.4849  -26.7877   23.5890 C   0  0  0  0  0  0  0  0  0  0  0  0
  -22.6699   -7.0711   22.0302 C   0  0  0  0  0  0  0  0  0  0  0  0
  -21.0705   -5.2812   23.4517 C   0  0  0  0  0  0  0  0  0  0  0  0
  -22.0039   -6.0459   21.3586 C   0  0  0  0  0  0  0  0  0  0  0  0
  -28.0083  -18.3443   21.8029 C   0  0  0  0  0  0  0  0  0  0  0  0
  -22.1190  -13.3831   21.5390 C   0  0  0  0  0  0  0  0  0  0  0  0
  -21.2561  -15.3312   22.0826 C   0  0  0  0  0  0  0  0  0  0  0  0
  -28.6021  -23.8496   21.7637 C   0  0  0  0  0  0  0  0  0  0  0  0
  -27.4390  -23.1668   21.7984 C   0  0  0  0  0  0  0  0  0  0  0  0
  -20.4885  -13.4411   23.5272 C   0  0  0  0  0  0  0  0  0  0  0  0
  -25.4548  -32.7415   24.5672 C   0  0  0  0  0  0  0  0  0  0  0  0
  -29.4755  -22.6645   19.7722 C   0  0  0  0  0  0  0  0  0  0  0  0
  -24.4148  -31.3860   22.0194 C   0  0  0  0  0  0  0  0  0  0  0  0
  -23.8457  -29.7680   19.0705 C   0  0  0  0  0  0  0  0  0  0  0  0
  -25.2580  -18.7483   19.2518 C   0  0  0  0  0  0  0  0  0  0  0  0
  -24.3744  -37.4891   23.0343 C   0  0  0  0  0  0  0  0  0  0  0  0
  -27.1756  -30.9515   24.6070 C   0  0  0  0  0  0  0  0  0  0  0  0
  -24.8765  -29.5640   23.7304 C   0  0  0  0  0  0  0  0  0  0  0  0
  -23.6950  -36.1263   22.9277 C   0  0  0  0  0  0  0  0  0  0  0  0
  -31.1956  -24.5700   23.6340 C   0  0  0  0  0  0  0  0  0  0  0  0
  -31.6062  -23.6843   22.4637 C   0  0  0  0  0  0  0  0  0  0  0  0
  -21.8876  -18.1568   18.2680 C   0  0  0  0  0  0  0  0  0  0  0  0
  -23.6592  -35.4397   24.2894 C   0  0  0  0  0  0  0  0  0  0  0  0
  -29.7007  -24.5888   23.9360 C   0  0  0  0  0  0  0  0  0  0  0  0
  -21.4829  -16.9260   19.0825 C   0  0  0  0  0  0  0  0  0  0  0  0
  -30.9903  -24.1222   21.1367 C   0  0  0  0  0  0  0  0  0  0  0  0
  -23.3442  -18.0823   17.8135 C   0  0  0  0  0  0  0  0  0  0  0  0
  -23.9122  -16.6026   19.6995 C   0  0  0  0  0  0  0  0  0  0  0  0
  -25.0766  -35.1879   24.8177 C   0  0  1  0  0  0  0  0  0  0  0  0
  -28.8227  -25.0017   22.7476 C   0  0  2  0  0  0  0  0  0  1  0  0
  -26.1640  -31.7150   23.7336 C   0  0  1  0  0  0  0  0  0  0  0  0
  -22.4722  -16.6624   20.2346 C   0  0  2  0  0  0  0  0  0  0  0  0
  -30.0759  -18.2686   23.2530 C   0  0  0  0  0  0  0  0  0  0  0  0
  -22.4775  -29.9200   16.9724 C   0  0  0  0  0  0  0  0  0  0  0  0
  -21.9592  -30.4303   23.5559 C   0  0  0  0  0  0  0  0  0  0  0  0
  -20.9655  -29.7039   21.3757 C   0  0  0  0  0  0  0  0  0  0  0  0
  -21.4821  -32.1126   21.7680 C   0  0  0  0  0  0  0  0  0  0  0  0
  -31.9733  -17.5718   17.0146 C   0  0  0  0  0  0  0  0  0  0  0  0
  -26.2613  -29.9475   17.3700 C   0  0  0  0  0  0  0  0  0  0  0  0
  -30.6648  -21.8359   19.3406 C   0  0  0  0  0  0  0  0  0  0  0  0
  -31.3843  -19.6767   18.2234 C   0  0  0  0  0  0  0  0  0  0  0  0
  -30.1987  -20.4905   18.7713 C   0  0  1  0  0  0  0  0  0  0  0  0
  -23.3790  -30.4822   21.4000 C   0  0  1  0  0  0  0  0  0  0  0  0
  -23.7990  -30.2698   17.6386 C   0  0  2  0  0  0  0  0  0  0  0  0
  -21.9717  -30.6723   22.0333 C   0  0  0  0  0  0  0  0  0  0  0  0
  -22.6480  -14.2399   20.6615 N   0  0  0  0  0  0  0  0  0  0  0  0
  -22.1040  -15.4161   21.0177 N   0  0  0  0  0  0  0  0  0  0  0  0
  -29.6650  -23.5120   20.8895 N   0  0  0  0  0  0  0  0  0  0  0  0
  -25.0984  -30.8919   23.1370 N   0  0  0  0  0  0  0  0  0  0  0  0
  -24.2233  -17.8350   18.9584 N   0  0  0  0  0  0  0  0  0  0  0  0
  -20.6239  -16.4192   22.5713 N   0  0  0  0  0  0  0  0  0  0  0  0
  -20.5924  -12.0638   23.7651 N   0  0  0  0  0  0  0  0  0  0  0  0
  -26.0080  -18.4261   20.3824 N   0  0  0  0  0  0  0  0  0  0  0  0
  -25.6665  -34.0437   24.1564 N   0  0  0  0  0  0  0  0  0  0  0  0
  -23.4263  -30.7314   19.9633 N   0  0  0  0  0  0  0  0  0  0  0  0
  -30.8957  -18.4394   17.5602 N   0  3  0  0  0  0  0  0  0  0  0  0
  -24.9024  -29.6637   16.8410 N   0  3  0  0  0  0  0  0  0  0  0  0
  -19.7306  -14.1332   24.2484 O   0  0  0  0  0  0  0  0  0  0  0  0
  -24.7646  -32.3797   25.5129 O   0  0  0  0  0  0  0  0  0  0  0  0
  -28.4301  -22.5543   19.1257 O   0  0  0  0  0  0  0  0  0  0  0  0
  -24.6105  -32.5024   21.5310 O   0  0  0  0  0  0  0  0  0  0  0  0
  -24.2137  -28.6334   19.3671 O   0  0  0  0  0  0  0  0  0  0  0  0
  -25.4462  -19.7575   18.5676 O   0  0  0  0  0  0  0  0  0  0  0  0
  -23.4649   -7.9600   21.3262 O   0  0  0  0  0  0  0  0  0  0  0  0
  -27.5717  -25.4656   23.2739 O   0  0  0  0  0  0  0  0  0  1  0  0
  -20.3037   -4.4209   24.1345 F   0  0  0  0  0  0  0  0  0  0  0  0
  -22.1295   -5.9151   20.0309 F   0  0  0  0  0  0  0  0  0  0  0  0
  -27.1336  -17.4811   23.0256 Cl  0  0  0  0  0  0  0  0  0  0  0  0
  1  2  1  0  0  0  0
  1  5  2  0  0  0  0
  2  6  2  0  0  0  0
  3  8  2  0  0  0  0
  3 17  1  0  0  0  0
  4  9  1  0  0  0  0
  4 17  2  0  0  0  0
  5 19  1  0  0  0  0
  6 21  1  0  0  0  0
  7 10  2  0  0  0  0
  7 20  1  0  0  0  0
  8 26  1  0  0  0  0
  9 26  2  0  0  0  0
 10 27  1  0  0  0  0
 11 12  2  0  0  0  0
 11 28  1  0  0  0  0
 12 29  1  0  0  0  0
 13 22  1  0  0  0  0
 13 27  2  0  0  0  0
 14 23  1  0  0  0  0
 14 24  2  0  0  0  0
 15 23  2  0  0  0  0
 15 25  1  0  0  0  0
 16 29  2  0  0  0  0
 16 30  1  0  0  0  0
 17 32  1  0  0  0  0
 18 32  1  0  0  0  0
 18 33  2  0  0  0  0
 18 36  1  0  0  0  0
 19 21  2  0  0  0  0
 19 42  1  0  0  0  0
 20 22  2  0  0  0  0
 20 43  1  0  0  0  0
 21 55  1  0  0  0  0
 22 44  1  0  0  0  0
 23 68  1  0  0  0  0
 24 31  1  0  0  0  0
 24 59  1  0  0  0  0
 25 31  2  0  0  0  0
 25 79  1  0  0  0  0
 26 90  1  0  0  0  0
 27 91  1  0  0  0  0
 28 30  2  0  0  0  0
 28 90  1  0  0  0  0
 29 92  1  0  0  0  0
 30 93  1  0  0  0  0
 31 94  1  0  0  0  0
 32 72  2  0  0  0  0
 33 73  1  0  0  0  0
 33 77  1  0  0  0  0
 34 35  2  0  0  0  0
 34 56  1  0  0  0  0
 34 74  1  0  0  0  0
 36 78  1  0  0  0  0
 36 84  2  0  0  0  0
 37 57  1  0  0  0  0
 37 80  1  0  0  0  0
 37 85  2  0  0  0  0
 38 66  1  0  0  0  0
 38 74  1  0  0  0  0
 38 86  2  0  0  0  0
 39 69  1  0  0  0  0
 39 75  1  0  0  0  0
 39 87  2  0  0  0  0
 40 70  1  0  0  0  0
 40 81  1  0  0  0  0
 40 88  2  0  0  0  0
 41 76  1  0  0  0  0
 41 79  1  0  0  0  0
 41 89  2  0  0  0  0
 42 45  1  0  0  0  0
 43 57  1  0  0  0  0
 44 75  1  0  0  0  0
 45 49  1  0  0  0  0
 46 47  1  0  0  0  0
 46 50  1  0  0  0  0
 47 52  1  0  0  0  0
 48 51  1  0  0  0  0
 48 53  1  0  0  0  0
 49 55  1  0  0  0  0
 50 56  1  0  0  0  0
 51 58  1  0  0  0  0
 52 74  1  0  0  0  0
 53 76  1  0  0  0  0
 54 58  1  0  0  0  0
 54 76  1  0  0  0  0
 55 80  1  0  0  0  0
 56 91  1  0  0  0  0
 57 75  1  0  0  0  0
 58 73  1  0  0  0  0
 60 70  1  0  0  0  0
 61 71  1  0  0  0  0
 62 71  1  0  0  0  0
 63 71  1  0  0  0  0
 64 82  1  0  0  0  0
 65 83  1  0  0  0  0
 66 68  1  0  0  0  0
 67 68  1  0  0  0  0
 67 82  1  0  0  0  0
 69 71  1  0  0  0  0
 69 81  1  0  0  0  0
 70 83  1  0  0  0  0
 72 73  1  0  0  0  0
M  CHG  2  82   1  83   1
M  ISO  4  41 100  56 101  79 100  91 101
M  END
> <Batch ID>
0038

> <Smiles>
C=C1N(C(=O)CC(CNC)c2cc(C)c(Cl)c([100NH:0][100C:0](=O)N3CCCC(n4nc(-c5ccc(Oc6ccc(F)cc6F)cc5)c(C(N)=O)c4N)C3)c2)CCCC[101CH:1]1[101O:1]c1ccc2c(c1)CN(C(=O)C(NC(=O)C(C)NC)C(C)(C)C)C(C(=O)NC1CCCc3ccccc31)C2

> <Shape>
0.294

> <Color>
0.048

> <Negative vol penalty>
0.000

$$$$

  -OEChem-04042322003D

 87 96  0     1  0  0  0  0  0999 V2000
  -21.5841  -35.0442   23.3244 C   0  0  0  0  0  0  0  0  0  0  0  0
  -22.7172  -34.3789   22.8674 C   0  0  0  0  0  0  0  0  0  0  0  0
  -24.2950   -9.6809   20.4628 C   0  0  0  0  0  0  0  0  0  0  0  0
  -22.6696  -10.3995   22.0995 C   0  0  0  0  0  0  0  0  0  0  0  0
  -20.5999  -34.3445   24.0212 C   0  0  0  0  0  0  0  0  0  0  0  0
  -22.8672  -33.0136   23.1078 C   0  0  0  0  0  0  0  0  0  0  0  0
  -25.5113  -28.8957   19.4259 C   0  0  0  0  0  0  0  0  0  0  0  0
  -23.7069   -8.4164   20.4340 C   0  0  0  0  0  0  0  0  0  0  0  0
  -22.0815   -9.1350   22.0707 C   0  0  0  0  0  0  0  0  0  0  0  0
  -26.7863  -28.3317   19.4121 C   0  0  0  0  0  0  0  0  0  0  0  0
  -22.6947   -6.0721   23.3644 C   0  0  0  0  0  0  0  0  0  0  0  0
  -22.3665   -5.4820   24.5849 C   0  0  0  0  0  0  0  0  0  0  0  0
  -25.9516  -26.4296   20.6387 C   0  0  0  0  0  0  0  0  0  0  0  0
  -27.2932  -20.9567   23.6069 C   0  0  0  0  0  0  0  0  0  0  0  0
  -26.2343  -20.2287   21.5611 C   0  0  0  0  0  0  0  0  0  0  0  0
  -20.0455   -5.3967   23.9194 C   0  0  0  0  0  0  0  0  0  0  0  0
  -23.7763  -10.6724   21.2957 C   0  0  0  0  0  0  0  0  0  0  0  0
  -24.5292  -12.8740   20.2498 C   0  0  0  0  0  0  0  0  0  0  0  0
  -20.7334  -32.9679   24.2620 C   0  0  0  0  0  0  0  0  0  0  0  0
  -24.4475  -28.2348   20.0567 C   0  0  0  0  0  0  0  0  0  0  0  0
  -21.8845  -32.2951   23.8097 C   0  0  0  0  0  0  0  0  0  0  0  0
  -24.6636  -26.9861   20.6569 C   0  0  0  0  0  0  0  0  0  0  0  0
  -26.2253  -20.3444   22.9511 C   0  0  0  0  0  0  0  0  0  0  0  0
  -28.3702  -21.4535   22.8727 C   0  0  0  0  0  0  0  0  0  0  0  0
  -28.3792  -21.3378   21.4827 C   0  0  0  0  0  0  0  0  0  0  0  0
  -22.6002   -8.1434   21.2379 C   0  0  0  0  0  0  0  0  0  0  0  0
  -27.0072  -27.0998   20.0210 C   0  0  0  0  0  0  0  0  0  0  0  0
  -21.6983   -6.3246   22.4214 C   0  0  0  0  0  0  0  0  0  0  0  0
  -21.0419   -5.1443   24.8624 C   0  0  0  0  0  0  0  0  0  0  0  0
  -20.3737   -5.9868   22.6989 C   0  0  0  0  0  0  0  0  0  0  0  0
  -27.3113  -20.7254   20.8268 C   0  0  0  0  0  0  0  0  0  0  0  0
  -24.3837  -11.9787   21.3263 C   0  0  0  0  0  0  0  0  0  0  0  0
  -25.1637  -13.9642   20.7932 C   0  0  0  0  0  0  0  0  0  0  0  0
  -24.1266  -12.7329   18.8809 C   0  0  0  0  0  0  0  0  0  0  0  0
  -22.5266  -28.9001   22.5003 C   0  0  0  0  0  0  0  0  0  0  0  0
  -21.0396  -26.1716   21.5692 C   0  0  0  0  0  0  0  0  0  0  0  0
  -21.2373  -23.1687   19.9598 C   0  0  0  0  0  0  0  0  0  0  0  0
  -25.7488  -17.7167   24.8824 C   0  0  0  0  0  0  0  0  0  0  0  0
  -19.6653  -32.2638   25.0609 C   0  0  0  0  0  0  0  0  0  0  0  0
  -23.0724  -28.8440   20.0396 C   0  0  0  0  0  0  0  0  0  0  0  0
  -23.5506  -26.2265   21.3299 C   0  0  0  0  0  0  0  0  0  0  0  0
  -19.7238  -30.7426   24.9480 C   0  0  0  0  0  0  0  0  0  0  0  0
  -27.3759  -14.5775   25.3006 C   0  0  0  0  0  0  0  0  0  0  0  0
  -29.6612  -24.0692   17.5752 C   0  0  0  0  0  0  0  0  0  0  0  0
  -21.1562  -30.2488   25.1243 C   0  0  0  0  0  0  0  0  0  0  0  0
  -26.7502  -13.6944   24.2197 C   0  0  0  0  0  0  0  0  0  0  0  0
  -29.3547  -25.4190   18.2107 C   0  0  0  0  0  0  0  0  0  0  0  0
  -26.3559  -15.5421   25.9017 C   0  0  0  0  0  0  0  0  0  0  0  0
  -25.0096  -15.4898   23.8381 C   0  0  0  0  0  0  0  0  0  0  0  0
  -30.1614  -23.0643   18.6031 C   0  0  0  0  0  0  0  0  0  0  0  0
  -28.8920  -24.2630   20.4037 C   0  0  0  0  0  0  0  0  0  0  0  0
  -22.0717  -30.8095   24.0293 C   0  0  1  0  0  0  0  0  0  0  0  0
  -22.1745  -28.3239   21.1580 C   0  0  1  0  0  0  0  0  0  0  0  0
  -26.0128  -14.5388   23.1631 C   0  0  2  0  0  0  0  0  0  0  0  0
  -28.3895  -25.2760   19.3834 C   0  0  1  0  0  0  0  0  0  1  0  0
  -29.4995  -22.1058   23.6014 C   0  0  0  0  0  0  0  0  0  0  0  0
  -19.8696  -21.1412   19.3975 C   0  0  0  0  0  0  0  0  0  0  0  0
  -21.3358  -25.1789   24.4392 C   0  0  0  0  0  0  0  0  0  0  0  0
  -20.8450  -22.8660   23.6160 C   0  0  0  0  0  0  0  0  0  0  0  0
  -19.1305  -24.6623   23.3790 C   0  0  0  0  0  0  0  0  0  0  0  0
  -21.5339  -23.6319   17.0518 C   0  0  0  0  0  0  0  0  0  0  0  0
  -25.0746  -19.8125   23.7369 C   0  0  0  0  0  0  0  0  0  0  0  0
  -29.5450  -21.8780   20.7079 C   0  0  0  0  0  0  0  0  0  0  0  0
  -21.1843  -24.7070   21.9053 C   0  0  1  0  0  0  0  0  0  0  0  0
  -20.3302  -22.5143   18.9335 C   0  0  2  0  0  0  0  0  0  0  0  0
  -20.6455  -24.3685   23.3239 C   0  0  0  0  0  0  0  0  0  0  0  0
  -24.8857  -12.4584   22.4674 N   0  0  0  0  0  0  0  0  0  0  0  0
  -25.3528  -13.6670   22.1108 N   0  0  0  0  0  0  0  0  0  0  0  0
  -22.2254  -26.8667   21.2921 N   0  0  0  0  0  0  0  0  0  0  0  0
  -25.6934  -16.3136   24.8473 N   0  0  0  0  0  0  0  0  0  0  0  0
  -25.5729  -15.1384   20.2677 N   0  0  0  0  0  0  0  0  0  0  0  0
  -22.8464  -13.1688   18.5127 N   0  0  0  0  0  0  0  0  0  0  0  0
  -21.8798  -30.0862   22.7906 N   0  0  0  0  0  0  0  0  0  0  0  0
  -20.5298  -23.9741   20.8270 N   0  0  0  0  0  0  0  0  0  0  0  0
  -25.1003  -18.3706   23.8420 N   0  0  0  0  0  0  0  0  0  0  0  0
  -29.1541  -22.9442   19.7220 N   0  3  2  0  0  0  0  0  0  0  0  0
  -21.0457  -22.3561   17.6357 N   0  3  0  0  0  0  0  0  0  0  0  0
  -24.8736  -12.2200   18.0135 O   0  0  0  0  0  0  0  0  0  0  0  0
  -23.3247  -28.3112   23.2200 O   0  0  0  0  0  0  0  0  0  0  0  0
  -19.9153  -26.6785   21.5460 O   0  0  0  0  0  0  0  0  0  0  0  0
  -22.4515  -22.9810   19.9915 O   0  0  0  0  0  0  0  0  0  0  0  0
  -26.3375  -18.3404   25.7720 O   0  0  0  0  0  0  0  0  0  0  0  0
  -22.0259   -6.9097   21.2098 O   0  0  0  0  0  0  0  0  0  0  0  0
  -28.2508  -26.5474   20.0096 O   0  0  0  0  0  0  0  0  0  1  0  0
  -20.7271   -4.5763   26.0339 F   0  0  0  0  0  0  0  0  0  0  0  0
  -19.4123   -6.2258   21.7964 F   0  0  0  0  0  0  0  0  0  0  0  0
  -27.2859  -20.5613   19.1082 Cl  0  0  0  0  0  0  0  0  0  0  0  0
  1  2  1  0  0  0  0
  1  5  2  0  0  0  0
  2  6  2  0  0  0  0
  3  8  2  0  0  0  0
  3 17  1  0  0  0  0
  4  9  1  0  0  0  0
  4 17  2  0  0  0  0
  5 19  1  0  0  0  0
  6 21  1  0  0  0  0
  7 10  2  0  0  0  0
  7 20  1  0  0  0  0
  8 26  1  0  0  0  0
  9 26  2  0  0  0  0
 10 27  1  0  0  0  0
 11 12  2  0  0  0  0
 11 28  1  0  0  0  0
 12 29  1  0  0  0  0
 13 22  1  0  0  0  0
 13 27  2  0  0  0  0
 14 23  1  0  0  0  0
 14 24  2  0  0  0  0
 15 23  2  0  0  0  0
 15 31  1  0  0  0  0
 16 29  2  0  0  0  0
 16 30  1  0  0  0  0
 17 32  1  0  0  0  0
 18 32  1  0  0  0  0
 18 33  2  0  0  0  0
 18 34  1  0  0  0  0
 19 21  2  0  0  0  0
 19 39  1  0  0  0  0
 20 22  2  0  0  0  0
 20 40  1  0  0  0  0
 21 52  1  0  0  0  0
 22 41  1  0  0  0  0
 23 62  1  0  0  0  0
 24 25  1  0  0  0  0
 24 56  1  0  0  0  0
 25 31  2  0  0  0  0
 25 63  1  0  0  0  0
 26 83  1  0  0  0  0
 27 84  1  0  0  0  0
 28 30  2  0  0  0  0
 28 83  1  0  0  0  0
 29 85  1  0  0  0  0
 30 86  1  0  0  0  0
 31 87  1  0  0  0  0
 32 67  2  0  0  0  0
 33 68  1  0  0  0  0
 33 71  1  0  0  0  0
 34 72  1  0  0  0  0
 34 78  2  0  0  0  0
 35 53  1  0  0  0  0
 35 73  1  0  0  0  0
 35 79  2  0  0  0  0
 36 64  1  0  0  0  0
 36 69  1  0  0  0  0
 36 80  2  0  0  0  0
 37 65  1  0  0  0  0
 37 74  1  0  0  0  0
 37 81  2  0  0  0  0
 38 70  1  0  0  0  0
 38 75  1  0  0  0  0
 38 82  2  0  0  0  0
 39 42  1  0  0  0  0
 40 53  1  0  0  0  0
 41 69  1  0  0  0  0
 42 45  1  0  0  0  0
 43 46  1  0  0  0  0
 43 48  1  0  0  0  0
 44 47  1  0  0  0  0
 44 50  1  0  0  0  0
 45 52  1  0  0  0  0
 46 54  1  0  0  0  0
 47 55  1  0  0  0  0
 48 70  1  0  0  0  0
 49 54  1  0  0  0  0
 49 70  1  0  0  0  0
 50 76  1  0  0  0  0
 51 55  1  0  0  0  0
 51 76  1  0  0  0  0
 52 73  1  0  0  0  0
 53 69  1  0  0  0  0
 54 68  1  0  0  0  0
 55 84  1  0  0  0  0
 57 65  1  0  0  0  0
 58 66  1  0  0  0  0
 59 66  1  0  0  0  0
 60 66  1  0  0  0  0
 61 77  1  0  0  0  0
 62 75  1  0  0  0  0
 63 76  1  0  0  0  0
 64 66  1  0  0  0  0
 64 74  1  0  0  0  0
 65 77  1  0  0  0  0
 67 68  1  0  0  0  0
M  CHG  2  76   1  77   1
M  ISO  4  38 100  55 101  75 100  84 101
M  END
> <Batch ID>
0038

> <Smiles>
CNC(C)C(=O)NC(C(=O)N1Cc2cc([101O:1][101CH:1]3CCCN(Cc4c(C)cc(C[100NH:0][100C:0](=O)N5CCCC(n6nc(-c7ccc(Oc8ccc(F)cc8F)cc7)c(C(N)=O)c6N)C5)cc4Cl)C3)ccc2CC1C(=O)NC1CCCc2ccccc21)C(C)(C)C

> <Shape>
0.219

> <Color>
0.153

> <Negative vol penalty>
0.000

$$$$

  -OEChem-04042322003D

 88 97  0     1  0  0  0  0  0999 V2000
  -20.0296  -23.8920   17.0254 C   0  0  0  0  0  0  0  0  0  0  0  0
  -21.1222  -24.6005   16.5360 C   0  0  0  0  0  0  0  0  0  0  0  0
  -23.7645  -13.8889   19.9448 C   0  0  0  0  0  0  0  0  0  0  0  0
  -25.9748  -14.2973   20.8305 C   0  0  0  0  0  0  0  0  0  0  0  0
  -19.3344  -24.3655   18.1373 C   0  0  0  0  0  0  0  0  0  0  0  0
  -21.5196  -25.7837   17.1578 C   0  0  0  0  0  0  0  0  0  0  0  0
  -28.1609  -26.5074   19.8525 C   0  0  0  0  0  0  0  0  0  0  0  0
  -24.0149  -12.5168   19.9523 C   0  0  0  0  0  0  0  0  0  0  0  0
  -26.2253  -12.9251   20.8382 C   0  0  0  0  0  0  0  0  0  0  0  0
  -29.4788  -26.7990   20.2050 C   0  0  0  0  0  0  0  0  0  0  0  0
  -24.0613  -10.0056   22.2162 C   0  0  0  0  0  0  0  0  0  0  0  0
  -23.0637   -9.1674   22.7140 C   0  0  0  0  0  0  0  0  0  0  0  0
  -28.7974  -28.9833   20.9878 C   0  0  0  0  0  0  0  0  0  0  0  0
  -31.8456  -24.7001   18.1757 C   0  0  0  0  0  0  0  0  0  0  0  0
  -31.1903  -22.4169   19.6387 C   0  0  0  0  0  0  0  0  0  0  0  0
  -22.9414   -8.0446   20.5782 C   0  0  0  0  0  0  0  0  0  0  0  0
  -24.7445  -14.7792   20.3838 C   0  0  0  0  0  0  0  0  0  0  0  0
  -23.4696  -16.8798   21.0691 C   0  0  0  0  0  0  0  0  0  0  0  0
  -19.7294  -25.5500   18.7788 C   0  0  0  0  0  0  0  0  0  0  0  0
  -27.1526  -27.4479   20.0808 C   0  0  0  0  0  0  0  0  0  0  0  0
  -20.8282  -26.2742   18.2785 C   0  0  0  0  0  0  0  0  0  0  0  0
  -27.4736  -28.6920   20.6483 C   0  0  0  0  0  0  0  0  0  0  0  0
  -30.6683  -24.0065   17.8957 C   0  0  0  0  0  0  0  0  0  0  0  0
  -32.6953  -24.2521   19.1872 C   0  0  0  0  0  0  0  0  0  0  0  0
  -30.3406  -22.8649   18.6272 C   0  0  0  0  0  0  0  0  0  0  0  0
  -25.2452  -12.0348   20.3991 C   0  0  0  0  0  0  0  0  0  0  0  0
  -29.7963  -28.0339   20.7710 C   0  0  0  0  0  0  0  0  0  0  0  0
  -24.4988   -9.8635   20.8993 C   0  0  0  0  0  0  0  0  0  0  0  0
  -22.5038   -8.1869   21.8950 C   0  0  0  0  0  0  0  0  0  0  0  0
  -23.9389   -8.8829   20.0804 C   0  0  0  0  0  0  0  0  0  0  0  0
  -32.3677  -23.1106   19.9187 C   0  0  0  0  0  0  0  0  0  0  0  0
  -24.4866  -16.1968   20.3757 C   0  0  0  0  0  0  0  0  0  0  0  0
  -23.6509  -18.1991   20.7327 C   0  0  0  0  0  0  0  0  0  0  0  0
  -22.4520  -16.3676   21.9396 C   0  0  0  0  0  0  0  0  0  0  0  0
  -23.5036  -28.2871   19.8417 C   0  0  0  0  0  0  0  0  0  0  0  0
  -24.4923  -29.3699   22.5362 C   0  0  0  0  0  0  0  0  0  0  0  0
  -25.8749  -30.0373   25.5826 C   0  0  0  0  0  0  0  0  0  0  0  0
  -28.6837  -20.9930   18.9946 C   0  0  0  0  0  0  0  0  0  0  0  0
  -18.9179  -26.0472   19.9489 C   0  0  0  0  0  0  0  0  0  0  0  0
  -25.7292  -27.2006   19.6603 C   0  0  0  0  0  0  0  0  0  0  0  0
  -26.3618  -29.6864   20.8435 C   0  0  0  0  0  0  0  0  0  0  0  0
  -19.6326  -27.1116   20.7773 C   0  0  0  0  0  0  0  0  0  0  0  0
  -34.5207  -26.3765   23.7450 C   0  0  0  0  0  0  0  0  0  0  0  0
  -32.9955  -26.2790   23.6662 C   0  0  0  0  0  0  0  0  0  0  0  0
  -25.6083  -20.2640   16.8187 C   0  0  0  0  0  0  0  0  0  0  0  0
  -35.2727  -26.9410   22.5425 C   0  0  0  0  0  0  0  0  0  0  0  0
  -20.2529  -28.1681   19.8685 C   0  0  0  0  0  0  0  0  0  0  0  0
  -24.6403  -19.7878   17.8993 C   0  0  0  0  0  0  0  0  0  0  0  0
  -32.2889  -27.4434   22.9744 C   0  0  0  0  0  0  0  0  0  0  0  0
  -26.7144  -21.1469   17.3826 C   0  0  0  0  0  0  0  0  0  0  0  0
  -26.8626  -19.3002   19.0630 C   0  0  0  0  0  0  0  0  0  0  0  0
  -35.2561  -26.1027   21.2702 C   0  0  0  0  0  0  0  0  0  0  0  0
  -33.0522  -27.1082   20.5026 C   0  0  0  0  0  0  0  0  0  0  0  0
  -21.3050  -27.5487   18.9407 C   0  0  1  0  0  0  0  0  0  0  0  0
  -24.6995  -27.8232   20.6202 C   0  0  1  0  0  0  0  0  0  0  0  0
  -25.3415  -19.4427   19.2281 C   0  0  2  0  0  0  0  0  0  0  0  0
  -31.9058  -27.2024   21.5088 C   0  0  2  0  0  0  0  0  0  1  0  0
  -29.7778  -24.5079   16.8052 C   0  0  0  0  0  0  0  0  0  0  0  0
  -25.3255  -31.0329   27.8196 C   0  0  0  0  0  0  0  0  0  0  0  0
  -24.6564  -32.1659   21.3281 C   0  0  0  0  0  0  0  0  0  0  0  0
  -25.0577  -33.0606   23.6318 C   0  0  0  0  0  0  0  0  0  0  0  0
  -22.9156  -31.8966   23.1034 C   0  0  0  0  0  0  0  0  0  0  0  0
  -26.4394  -27.4922   26.9835 C   0  0  0  0  0  0  0  0  0  0  0  0
  -33.9524  -25.0255   19.4567 C   0  0  0  0  0  0  0  0  0  0  0  0
  -25.0439  -30.5463   23.3012 C   0  0  1  0  0  0  0  0  0  0  0  0
  -25.3881  -29.7579   26.9930 C   0  0  2  0  0  0  0  0  0  0  0  0
  -24.4355  -31.8974   22.8302 C   0  0  0  0  0  0  0  0  0  0  0  0
  -25.2569  -17.0145   19.6532 N   0  0  0  0  0  0  0  0  0  0  0  0
  -24.7235  -18.2250   19.8907 N   0  0  0  0  0  0  0  0  0  0  0  0
  -25.1652  -29.0063   21.3634 N   0  0  0  0  0  0  0  0  0  0  0  0
  -27.4503  -20.5156   18.4876 N   0  0  0  0  0  0  0  0  0  0  0  0
  -22.9958  -19.3278   21.0779 N   0  0  0  0  0  0  0  0  0  0  0  0
  -22.7310  -16.2714   23.3098 N   0  0  0  0  0  0  0  0  0  0  0  0
  -29.1494  -22.1460   18.3571 N   0  0  0  0  0  0  0  0  0  0  0  0
  -22.5386  -27.3148   19.6604 N   0  0  0  0  0  0  0  0  0  0  0  0
  -24.8263  -30.2531   24.7137 N   0  0  0  0  0  0  0  0  0  0  0  0
  -33.8764  -25.8591   20.7147 N   0  3  1  0  0  0  0  0  0  0  0  0
  -26.3021  -28.7993   27.6761 N   0  3  0  0  0  0  0  0  0  0  0  0
  -21.3343  -15.9905   21.5128 O   0  0  0  0  0  0  0  0  0  0  0  0
  -23.4578  -29.4425   19.4361 O   0  0  0  0  0  0  0  0  0  0  0  0
  -23.4888  -28.7907   22.9617 O   0  0  0  0  0  0  0  0  0  0  0  0
  -27.0664  -30.0653   25.2825 O   0  0  0  0  0  0  0  0  0  0  0  0
  -29.2640  -20.4285   19.9243 O   0  0  0  0  0  0  0  0  0  0  0  0
  -25.4898  -10.6959   20.4068 O   0  0  0  0  0  0  0  0  0  0  0  0
  -31.0842  -28.3103   21.1169 O   0  0  0  0  0  0  0  0  0  1  0  0
  -21.5469   -7.3810   22.3737 F   0  0  0  0  0  0  0  0  0  0  0  0
  -24.3560   -8.7408   18.8148 F   0  0  0  0  0  0  0  0  0  0  0  0
  -33.3947  -22.5265   21.1771 Cl  0  0  0  0  0  0  0  0  0  0  0  0
  1  2  1  0  0  0  0
  1  5  2  0  0  0  0
  2  6  2  0  0  0  0
  3  8  2  0  0  0  0
  3 17  1  0  0  0  0
  4  9  1  0  0  0  0
  4 17  2  0  0  0  0
  5 19  1  0  0  0  0
  6 21  1  0  0  0  0
  7 10  2  0  0  0  0
  7 20  1  0  0  0  0
  8 26  1  0  0  0  0
  9 26  2  0  0  0  0
 10 27  1  0  0  0  0
 11 12  2  0  0  0  0
 11 28  1  0  0  0  0
 12 29  1  0  0  0  0
 13 22  1  0  0  0  0
 13 27  2  0  0  0  0
 14 23  2  0  0  0  0
 14 24  1  0  0  0  0
 15 25  2  0  0  0  0
 15 31  1  0  0  0  0
 16 29  2  0  0  0  0
 16 30  1  0  0  0  0
 17 32  1  0  0  0  0
 18 32  1  0  0  0  0
 18 33  2  0  0  0  0
 18 34  1  0  0  0  0
 19 21  2  0  0  0  0
 19 39  1  0  0  0  0
 20 22  2  0  0  0  0
 20 40  1  0  0  0  0
 21 54  1  0  0  0  0
 22 41  1  0  0  0  0
 23 25  1  0  0  0  0
 23 58  1  0  0  0  0
 24 31  2  0  0  0  0
 24 64  1  0  0  0  0
 25 74  1  0  0  0  0
 26 84  1  0  0  0  0
 27 85  1  0  0  0  0
 28 30  2  0  0  0  0
 28 84  1  0  0  0  0
 29 86  1  0  0  0  0
 30 87  1  0  0  0  0
 31 88  1  0  0  0  0
 32 68  2  0  0  0  0
 33 69  1  0  0  0  0
 33 72  1  0  0  0  0
 34 73  1  0  0  0  0
 34 79  2  0  0  0  0
 35 55  1  0  0  0  0
 35 75  1  0  0  0  0
 35 80  2  0  0  0  0
 36 65  1  0  0  0  0
 36 70  1  0  0  0  0
 36 81  2  0  0  0  0
 37 66  1  0  0  0  0
 37 76  1  0  0  0  0
 37 82  2  0  0  0  0
 38 71  1  0  0  0  0
 38 74  1  0  0  0  0
 38 83  2  0  0  0  0
 39 42  1  0  0  0  0
 40 55  1  0  0  0  0
 41 70  1  0  0  0  0
 42 47  1  0  0  0  0
 43 44  1  0  0  0  0
 43 46  1  0  0  0  0
 44 49  1  0  0  0  0
 45 48  1  0  0  0  0
 45 50  1  0  0  0  0
 46 52  1  0  0  0  0
 47 54  1  0  0  0  0
 48 56  1  0  0  0  0
 49 57  1  0  0  0  0
 50 71  1  0  0  0  0
 51 56  1  0  0  0  0
 51 71  1  0  0  0  0
 52 77  1  0  0  0  0
 53 57  1  0  0  0  0
 53 77  1  0  0  0  0
 54 75  1  0  0  0  0
 55 70  1  0  0  0  0
 56 69  1  0  0  0  0
 57 85  1  0  0  0  0
 59 66  1  0  0  0  0
 60 67  1  0  0  0  0
 61 67  1  0  0  0  0
 62 67  1  0  0  0  0
 63 78  1  0  0  0  0
 64 77  1  0  0  0  0
 65 67  1  0  0  0  0
 65 76  1  0  0  0  0
 66 78  1  0  0  0  0
 68 69  1  0  0  0  0
M  CHG  2  77   1  78   1
M  ISO  4  38 100  57 101  74 100  85 101
M  END
> <Batch ID>
0038

> <Smiles>
CNC(C)C(=O)NC(C(=O)N1Cc2cc([101O:1][101CH:1]3CCCCCN(Cc4cc(C)c([100NH:0][100C:0](=O)N5CCCC(n6nc(-c7ccc(Oc8ccc(F)cc8F)cc7)c(C(N)=O)c6N)C5)cc4Cl)C3)ccc2CC1C(=O)NC1CCCc2ccccc21)C(C)(C)C

> <Shape>
0.246

> <Color>
0.085

> <Negative vol penalty>
0.000

$$$$

  -OEChem-04042322003D

 88 97  0     1  0  0  0  0  0999 V2000
  -29.0432  -33.5927   26.2471 C   0  0  0  0  0  0  0  0  0  0  0  0
  -29.0606  -32.4581   25.4422 C   0  0  0  0  0  0  0  0  0  0  0  0
  -25.0841   -6.7913   20.2614 C   0  0  0  0  0  0  0  0  0  0  0  0
  -23.7910   -8.7088   19.5626 C   0  0  0  0  0  0  0  0  0  0  0  0
  -27.8447  -34.0270   26.8118 C   0  0  0  0  0  0  0  0  0  0  0  0
  -27.8796  -31.7565   25.2025 C   0  0  0  0  0  0  0  0  0  0  0  0
  -27.3309  -30.4829   20.3320 C   0  0  0  0  0  0  0  0  0  0  0  0
  -23.9251   -6.1872   20.7485 C   0  0  0  0  0  0  0  0  0  0  0  0
  -22.6319   -8.1046   20.0496 C   0  0  0  0  0  0  0  0  0  0  0  0
  -28.0648  -29.3900   19.8731 C   0  0  0  0  0  0  0  0  0  0  0  0
  -21.9571   -6.4204   23.4865 C   0  0  0  0  0  0  0  0  0  0  0  0
  -22.0192   -5.8208   24.7443 C   0  0  0  0  0  0  0  0  0  0  0  0
  -26.1055  -27.9973   20.0749 C   0  0  0  0  0  0  0  0  0  0  0  0
  -26.9033  -19.4412   19.3779 C   0  0  0  0  0  0  0  0  0  0  0  0
  -28.9386  -19.4918   18.0772 C   0  0  0  0  0  0  0  0  0  0  0  0
  -21.4239   -3.6959   23.7608 C   0  0  0  0  0  0  0  0  0  0  0  0
  -25.0171   -8.0522   19.6685 C   0  0  0  0  0  0  0  0  0  0  0  0
  -27.0737   -8.1855   18.1651 C   0  0  0  0  0  0  0  0  0  0  0  0
  -26.6467  -33.3360   26.5711 C   0  0  0  0  0  0  0  0  0  0  0  0
  -25.9794  -30.3386   20.6767 C   0  0  0  0  0  0  0  0  0  0  0  0
  -26.6642  -32.1813   25.7656 C   0  0  0  0  0  0  0  0  0  0  0  0
  -25.3560  -29.0905   20.5355 C   0  0  0  0  0  0  0  0  0  0  0  0
  -27.7937  -20.1300   18.5544 C   0  0  0  0  0  0  0  0  0  0  0  0
  -27.1578  -18.1142   19.7245 C   0  0  0  0  0  0  0  0  0  0  0  0
  -29.1931  -18.1648   18.4237 C   0  0  0  0  0  0  0  0  0  0  0  0
  -28.3027  -17.4760   19.2473 C   0  0  0  0  0  0  0  0  0  0  0  0
  -22.6990   -6.8438   20.6426 C   0  0  0  0  0  0  0  0  0  0  0  0
  -27.4530  -28.1463   19.7472 C   0  0  0  0  0  0  0  0  0  0  0  0
  -21.6283   -5.6578   22.3657 C   0  0  0  0  0  0  0  0  0  0  0  0
  -21.7527   -4.4586   24.8815 C   0  0  0  0  0  0  0  0  0  0  0  0
  -21.3618   -4.2955   22.5029 C   0  0  0  0  0  0  0  0  0  0  0  0
  -26.2141   -8.6771   19.1657 C   0  0  0  0  0  0  0  0  0  0  0  0
  -28.0541   -9.1410   18.0548 C   0  0  0  0  0  0  0  0  0  0  0  0
  -26.6839  -23.6578   19.0355 C   0  0  0  0  0  0  0  0  0  0  0  0
  -25.3461  -23.5771   19.1419 C   0  0  0  0  0  0  0  0  0  0  0  0
  -26.9931   -6.9735   17.4033 C   0  0  0  0  0  0  0  0  0  0  0  0
  -24.2946  -30.7008   23.3477 C   0  0  0  0  0  0  0  0  0  0  0  0
  -21.7794  -30.1557   21.3731 C   0  0  0  0  0  0  0  0  0  0  0  0
  -19.6335  -29.2414   18.8819 C   0  0  0  0  0  0  0  0  0  0  0  0
  -27.7665  -15.0085   19.3380 C   0  0  0  0  0  0  0  0  0  0  0  0
  -25.3842  -33.8164   27.2417 C   0  0  0  0  0  0  0  0  0  0  0  0
  -25.1946  -31.5333   21.1448 C   0  0  0  0  0  0  0  0  0  0  0  0
  -23.9023  -28.8874   20.8730 C   0  0  0  0  0  0  0  0  0  0  0  0
  -27.3569  -24.9251   18.5880 C   0  0  0  0  0  0  0  0  0  0  0  0
  -24.1115  -33.2322   26.6341 C   0  0  0  0  0  0  0  0  0  0  0  0
  -29.7699  -12.3491   21.2453 C   0  0  0  0  0  0  0  0  0  0  0  0
  -28.7793  -23.7906   21.0736 C   0  0  0  0  0  0  0  0  0  0  0  0
  -24.2575  -31.7270   26.4344 C   0  0  0  0  0  0  0  0  0  0  0  0
  -29.6150  -11.1752   20.2813 C   0  0  0  0  0  0  0  0  0  0  0  0
  -28.9542  -25.2246   20.5752 C   0  0  0  0  0  0  0  0  0  0  0  0
  -29.5812  -13.6932   20.5536 C   0  0  0  0  0  0  0  0  0  0  0  0
  -27.5603  -12.5468   19.6275 C   0  0  0  0  0  0  0  0  0  0  0  0
  -28.8071  -22.7612   19.9467 C   0  0  0  0  0  0  0  0  0  0  0  0
  -25.3995  -31.4077   25.4621 C   0  0  1  0  0  0  0  0  0  0  0  0
  -23.9587  -31.1561   21.9557 C   0  0  1  0  0  0  0  0  0  0  0  0
  -28.4970  -11.3911   19.2421 C   0  0  2  0  0  0  0  0  0  0  0  0
  -27.7780  -25.7890   19.7791 C   0  0  1  0  0  0  0  0  0  1  0  0
  -26.1854  -17.4027   20.6089 C   0  0  0  0  0  0  0  0  0  0  0  0
  -30.4280  -17.5079   17.8966 C   0  0  0  0  0  0  0  0  0  0  0  0
  -17.2060  -28.7810   18.4434 C   0  0  0  0  0  0  0  0  0  0  0  0
  -22.0410  -27.4569   22.7724 C   0  0  0  0  0  0  0  0  0  0  0  0
  -20.0141  -26.6892   21.5192 C   0  0  0  0  0  0  0  0  0  0  0  0
  -19.8430  -28.6002   23.1135 C   0  0  0  0  0  0  0  0  0  0  0  0
  -19.4612  -31.4205   16.8868 C   0  0  0  0  0  0  0  0  0  0  0  0
  -27.5202  -21.5574   18.1819 C   0  0  0  0  0  0  0  0  0  0  0  0
  -21.0324  -28.9296   20.9069 C   0  0  1  0  0  0  0  0  0  0  0  0
  -18.3090  -29.8278   18.4277 C   0  0  2  0  0  0  0  0  0  0  0  0
  -20.7554  -27.9287   22.0640 C   0  0  0  0  0  0  0  0  0  0  0  0
  -26.6134   -9.8535   19.6563 N   0  0  0  0  0  0  0  0  0  0  0  0
  -27.7348  -10.1090   18.9610 N   0  0  0  0  0  0  0  0  0  0  0  0
  -23.1791  -30.0847   21.3325 N   0  0  0  0  0  0  0  0  0  0  0  0
  -28.3086  -13.7937   19.8243 N   0  0  0  0  0  0  0  0  0  0  0  0
  -29.1496   -9.2393   17.2721 N   0  0  0  0  0  0  0  0  0  0  0  0
  -26.2907   -6.9920   16.1906 N   0  0  0  0  0  0  0  0  0  0  0  0
  -28.5615  -16.1276   19.5992 N   0  0  0  0  0  0  0  0  0  0  0  0
  -24.9799  -31.6386   24.0964 N   0  0  0  0  0  0  0  0  0  0  0  0
  -19.8311  -29.4141   20.2356 N   0  0  0  0  0  0  0  0  0  0  0  0
  -27.4375  -22.4750   19.3772 N   0  3  2  0  0  0  0  0  0  0  0  0
  -18.4280  -30.3645   17.0425 N   0  3  0  0  0  0  0  0  0  0  0  0
  -27.5141   -5.9016   17.7947 O   0  0  0  0  0  0  0  0  0  0  0  0
  -23.9558  -29.5821   23.7157 O   0  0  0  0  0  0  0  0  0  0  0  0
  -21.1444  -31.1429   21.7524 O   0  0  0  0  0  0  0  0  0  0  0  0
  -20.4131  -28.6825   18.1135 O   0  0  0  0  0  0  0  0  0  0  0  0
  -26.6940  -15.0422   18.7310 O   0  0  0  0  0  0  0  0  0  0  0  0
  -21.5678   -6.2544   21.1175 O   0  0  0  0  0  0  0  0  0  0  0  0
  -28.1672  -27.0777   19.3002 O   0  0  0  0  0  0  0  0  0  1  0  0
  -21.8139   -3.8826   26.0892 F   0  0  0  0  0  0  0  0  0  0  0  0
  -21.0466   -3.5575   21.4297 F   0  0  0  0  0  0  0  0  0  0  0  0
  1  2  1  0  0  0  0
  1  5  2  0  0  0  0
  2  6  2  0  0  0  0
  3  8  2  0  0  0  0
  3 17  1  0  0  0  0
  4  9  1  0  0  0  0
  4 17  2  0  0  0  0
  5 19  1  0  0  0  0
  6 21  1  0  0  0  0
  7 10  2  0  0  0  0
  7 20  1  0  0  0  0
  8 27  1  0  0  0  0
  9 27  2  0  0  0  0
 10 28  1  0  0  0  0
 11 12  2  0  0  0  0
 11 29  1  0  0  0  0
 12 30  1  0  0  0  0
 13 22  1  0  0  0  0
 13 28  2  0  0  0  0
 14 23  1  0  0  0  0
 14 24  2  0  0  0  0
 15 23  2  0  0  0  0
 15 25  1  0  0  0  0
 16 30  2  0  0  0  0
 16 31  1  0  0  0  0
 17 32  1  0  0  0  0
 18 32  1  0  0  0  0
 18 33  2  0  0  0  0
 18 36  1  0  0  0  0
 19 21  2  0  0  0  0
 19 41  1  0  0  0  0
 20 22  2  0  0  0  0
 20 42  1  0  0  0  0
 21 54  1  0  0  0  0
 22 43  1  0  0  0  0
 23 65  1  0  0  0  0
 24 26  1  0  0  0  0
 24 58  1  0  0  0  0
 25 26  2  0  0  0  0
 25 59  1  0  0  0  0
 26 75  1  0  0  0  0
 27 85  1  0  0  0  0
 28 86  1  0  0  0  0
 29 31  2  0  0  0  0
 29 85  1  0  0  0  0
 30 87  1  0  0  0  0
 31 88  1  0  0  0  0
 32 69  2  0  0  0  0
 33 70  1  0  0  0  0
 33 73  1  0  0  0  0
 34 35  2  0  0  0  0
 34 44  1  0  0  0  0
 34 78  1  0  0  0  0
 36 74  1  0  0  0  0
 36 80  2  0  0  0  0
 37 55  1  0  0  0  0
 37 76  1  0  0  0  0
 37 81  2  0  0  0  0
 38 66  1  0  0  0  0
 38 71  1  0  0  0  0
 38 82  2  0  0  0  0
 39 67  1  0  0  0  0
 39 77  1  0  0  0  0
 39 83  2  0  0  0  0
 40 72  1  0  0  0  0
 40 75  1  0  0  0  0
 40 84  2  0  0  0  0
 41 45  1  0  0  0  0
 42 55  1  0  0  0  0
 43 71  1  0  0  0  0
 44 57  1  0  0  0  0
 45 48  1  0  0  0  0
 46 49  1  0  0  0  0
 46 51  1  0  0  0  0
 47 50  1  0  0  0  0
 47 53  1  0  0  0  0
 48 54  1  0  0  0  0
 49 56  1  0  0  0  0
 50 57  1  0  0  0  0
 51 72  1  0  0  0  0
 52 56  1  0  0  0  0
 52 72  1  0  0  0  0
 53 78  1  0  0  0  0
 54 76  1  0  0  0  0
 55 71  1  0  0  0  0
 56 70  1  0  0  0  0
 57 86  1  0  0  0  0
 60 67  1  0  0  0  0
 61 68  1  0  0  0  0
 62 68  1  0  0  0  0
 63 68  1  0  0  0  0
 64 79  1  0  0  0  0
 65 78  1  0  0  0  0
 66 68  1  0  0  0  0
 66 77  1  0  0  0  0
 67 79  1  0  0  0  0
 69 70  1  0  0  0  0
M  CHG  2  78   1  79   1
M  ISO  4  40 100  57 101  75 100  86 101
M  END
> <Batch ID>
0038

> <Smiles>
C=C1C[101CH:1]([101O:1]c2ccc3c(c2)CN(C(=O)C(NC(=O)C(C)NC)C(C)(C)C)C(C(=O)NC2CCCc4ccccc42)C3)CCCN1Cc1cc(C)c([100NH:0][100C:0](=O)N2CCCC(n3nc(-c4ccc(Oc5ccc(F)cc5F)cc4)c(C(N)=O)c3N)C2)c(C)c1

> <Shape>
0.300

> <Color>
0.083

> <Negative vol penalty>
0.000

$$$$

  -OEChem-04042322003D

 89 98  0     1  0  0  0  0  0999 V2000
  -25.0344  -36.5038   23.2887 C   0  0  0  0  0  0  0  0  0  0  0  0
  -26.1710  -35.7836   22.9353 C   0  0  0  0  0  0  0  0  0  0  0  0
  -22.8582   -9.6258   19.9638 C   0  0  0  0  0  0  0  0  0  0  0  0
  -24.5760   -8.7724   21.4329 C   0  0  0  0  0  0  0  0  0  0  0  0
  -23.8838  -35.8314   23.6984 C   0  0  0  0  0  0  0  0  0  0  0  0
  -26.1579  -34.3904   22.9924 C   0  0  0  0  0  0  0  0  0  0  0  0
  -28.9010  -28.6425   19.7131 C   0  0  0  0  0  0  0  0  0  0  0  0
  -21.8776   -9.0991   20.8045 C   0  0  0  0  0  0  0  0  0  0  0  0
  -23.5954   -8.2458   22.2736 C   0  0  0  0  0  0  0  0  0  0  0  0
  -29.5948  -27.4677   19.9999 C   0  0  0  0  0  0  0  0  0  0  0  0
  -21.5635   -5.5445   22.3449 C   0  0  0  0  0  0  0  0  0  0  0  0
  -21.7426   -4.2431   22.8139 C   0  0  0  0  0  0  0  0  0  0  0  0
  -25.6219  -17.6549   19.0225 C   0  0  0  0  0  0  0  0  0  0  0  0
  -27.5252  -26.4105   20.6466 C   0  0  0  0  0  0  0  0  0  0  0  0
  -27.6111  -18.3431   20.2085 C   0  0  0  0  0  0  0  0  0  0  0  0
  -21.7309   -5.0607   25.0873 C   0  0  0  0  0  0  0  0  0  0  0  0
  -24.2074   -9.4624   20.2780 C   0  0  0  0  0  0  0  0  0  0  0  0
  -25.0693  -18.9211   19.2146 C   0  0  0  0  0  0  0  0  0  0  0  0
  -25.4361   -9.6923   18.0542 C   0  0  0  0  0  0  0  0  0  0  0  0
  -23.8536  -34.4289   23.7513 C   0  0  0  0  0  0  0  0  0  0  0  0
  -27.5132  -28.7137   19.9017 C   0  0  0  0  0  0  0  0  0  0  0  0
  -25.0063  -33.6986   23.4045 C   0  0  0  0  0  0  0  0  0  0  0  0
  -26.8158  -27.5865   20.3591 C   0  0  0  0  0  0  0  0  0  0  0  0
  -27.0585  -19.6093   20.4005 C   0  0  0  0  0  0  0  0  0  0  0  0
  -25.7876  -19.8983   19.9036 C   0  0  0  0  0  0  0  0  0  0  0  0
  -26.8928  -17.3658   19.5195 C   0  0  0  0  0  0  0  0  0  0  0  0
  -22.2462   -8.4092   21.9593 C   0  0  0  0  0  0  0  0  0  0  0  0
  -28.9073  -26.3524   20.4694 C   0  0  0  0  0  0  0  0  0  0  0  0
  -21.4682   -6.6040   23.2471 C   0  0  0  0  0  0  0  0  0  0  0  0
  -21.8263   -4.0012   24.1850 C   0  0  0  0  0  0  0  0  0  0  0  0
  -21.5519   -6.3621   24.6183 C   0  0  0  0  0  0  0  0  0  0  0  0
  -25.2208  -10.0057   19.4097 C   0  0  0  0  0  0  0  0  0  0  0  0
  -26.5079  -10.4693   17.6882 C   0  0  0  0  0  0  0  0  0  0  0  0
  -23.7391  -19.1894   18.6831 C   0  0  0  0  0  0  0  0  0  0  0  0
  -24.7302   -8.7805   17.2021 C   0  0  0  0  0  0  0  0  0  0  0  0
  -22.5707  -18.9814   19.3220 C   0  0  0  0  0  0  0  0  0  0  0  0
  -25.5846  -30.4545   21.7330 C   0  0  0  0  0  0  0  0  0  0  0  0
  -23.2612  -28.9602   20.0327 C   0  0  0  0  0  0  0  0  0  0  0  0
  -22.6279  -25.6280   18.8027 C   0  0  0  0  0  0  0  0  0  0  0  0
  -28.7030  -15.6294   19.7523 C   0  0  0  0  0  0  0  0  0  0  0  0
  -22.6019  -33.7480   24.2458 C   0  0  0  0  0  0  0  0  0  0  0  0
  -26.7758  -29.9799   19.5623 C   0  0  0  0  0  0  0  0  0  0  0  0
  -25.3231  -27.6049   20.5592 C   0  0  0  0  0  0  0  0  0  0  0  0
  -22.5502  -32.2575   23.9200 C   0  0  0  0  0  0  0  0  0  0  0  0
  -30.4334  -12.5278   19.5013 C   0  0  0  0  0  0  0  0  0  0  0  0
  -30.1354  -22.2391   18.5244 C   0  0  0  0  0  0  0  0  0  0  0  0
  -23.8793  -31.5904   24.2596 C   0  0  0  0  0  0  0  0  0  0  0  0
  -29.3130  -11.5012   19.3199 C   0  0  0  0  0  0  0  0  0  0  0  0
  -30.4169  -23.5636   19.2216 C   0  0  0  0  0  0  0  0  0  0  0  0
  -30.0269  -13.6481   20.4571 C   0  0  0  0  0  0  0  0  0  0  0  0
  -27.6437  -13.2934   19.9433 C   0  0  0  0  0  0  0  0  0  0  0  0
  -29.6518  -21.1795   19.5042 C   0  0  0  0  0  0  0  0  0  0  0  0
  -28.7254  -22.9705   20.9955 C   0  0  0  0  0  0  0  0  0  0  0  0
  -25.0232  -32.1856   23.4297 C   0  0  1  0  0  0  0  0  0  0  0  0
  -25.4352  -30.1013   20.2802 C   0  0  1  0  0  0  0  0  0  0  0  0
  -27.9829  -12.1802   18.9386 C   0  0  2  0  0  0  0  0  0  0  0  0
  -29.2091  -24.0385   20.0233 C   0  0  1  0  0  0  0  0  0  1  0  0
  -25.2049  -21.2613   20.1160 C   0  0  0  0  0  0  0  0  0  0  0  0
  -21.2870  -24.8439   16.8318 C   0  0  0  0  0  0  0  0  0  0  0  0
  -20.9957  -28.6723   22.0562 C   0  0  0  0  0  0  0  0  0  0  0  0
  -20.2944  -26.5825   20.8691 C   0  0  0  0  0  0  0  0  0  0  0  0
  -20.2563  -28.7691   19.6691 C   0  0  0  0  0  0  0  0  0  0  0  0
  -24.9253  -24.1322   17.6875 C   0  0  0  0  0  0  0  0  0  0  0  0
  -27.8528  -20.6417   21.1449 C   0  0  0  0  0  0  0  0  0  0  0  0
  -22.4775  -27.6795   20.1895 C   0  0  1  0  0  0  0  0  0  0  0  0
  -22.6769  -25.1685   17.3567 C   0  0  2  0  0  0  0  0  0  0  0  0
  -21.0324  -27.9285   20.7063 C   0  0  0  0  0  0  0  0  0  0  0  0
  -26.0865  -10.9110   19.8734 N   0  0  0  0  0  0  0  0  0  0  0  0
  -26.8561  -11.1732   18.8034 N   0  0  0  0  0  0  0  0  0  0  0  0
  -24.6477  -28.8682   20.2194 N   0  0  0  0  0  0  0  0  0  0  0  0
  -28.7605  -14.2474   20.0306 N   0  0  0  0  0  0  0  0  0  0  0  0
  -27.1771  -10.6123   16.5246 N   0  0  0  0  0  0  0  0  0  0  0  0
  -23.6533   -8.0619   17.7389 N   0  0  0  0  0  0  0  0  0  0  0  0
  -27.4548  -16.0799   19.3239 N   0  0  0  0  0  0  0  0  0  0  0  0
  -24.9992  -31.6562   22.0830 N   0  0  0  0  0  0  0  0  0  0  0  0
  -22.5422  -27.0008   18.8997 N   0  0  0  0  0  0  0  0  0  0  0  0
  -28.4409  -21.6940   20.2457 N   0  3  2  0  0  0  0  0  0  0  0  0
  -23.5241  -23.9491   17.2291 N   0  3  0  0  0  0  0  0  0  0  0  0
  -25.0555   -8.5960   16.0048 O   0  0  0  0  0  0  0  0  0  0  0  0
  -26.1853  -29.6923   22.4814 O   0  0  0  0  0  0  0  0  0  0  0  0
  -22.6660  -30.0024   19.7478 O   0  0  0  0  0  0  0  0  0  0  0  0
  -22.6586  -24.8471   19.7512 O   0  0  0  0  0  0  0  0  0  0  0  0
  -29.6955  -16.3545   19.8581 O   0  0  0  0  0  0  0  0  0  0  0  0
  -21.2896   -7.8954   22.7800 O   0  0  0  0  0  0  0  0  0  0  0  0
  -29.5822  -25.2046   20.7507 O   0  0  0  0  0  0  0  0  0  1  0  0
  -21.9967   -2.7512   24.6353 F   0  0  0  0  0  0  0  0  0  0  0  0
  -21.4598   -7.3758   25.4899 F   0  0  0  0  0  0  0  0  0  0  0  0
  -21.0742  -19.3519   18.5313 Cl  0  0  0  0  0  0  0  0  0  0  0  0
  -22.4656  -18.3197   20.9152 Cl  0  0  0  0  0  0  0  0  0  0  0  0
  1  2  1  0  0  0  0
  1  5  2  0  0  0  0
  2  6  2  0  0  0  0
  3  8  2  0  0  0  0
  3 17  1  0  0  0  0
  4  9  1  0  0  0  0
  4 17  2  0  0  0  0
  5 20  1  0  0  0  0
  6 22  1  0  0  0  0
  7 10  2  0  0  0  0
  7 21  1  0  0  0  0
  8 27  1  0  0  0  0
  9 27  2  0  0  0  0
 10 28  1  0  0  0  0
 11 12  2  0  0  0  0
 11 29  1  0  0  0  0
 12 30  1  0  0  0  0
 13 18  2  0  0  0  0
 13 26  1  0  0  0  0
 14 23  1  0  0  0  0
 14 28  2  0  0  0  0
 15 24  1  0  0  0  0
 15 26  2  0  0  0  0
 16 30  2  0  0  0  0
 16 31  1  0  0  0  0
 17 32  1  0  0  0  0
 18 25  1  0  0  0  0
 18 34  1  0  0  0  0
 19 32  1  0  0  0  0
 19 33  2  0  0  0  0
 19 35  1  0  0  0  0
 20 22  2  0  0  0  0
 20 41  1  0  0  0  0
 21 23  2  0  0  0  0
 21 42  1  0  0  0  0
 22 54  1  0  0  0  0
 23 43  1  0  0  0  0
 24 25  2  0  0  0  0
 24 64  1  0  0  0  0
 25 58  1  0  0  0  0
 26 74  1  0  0  0  0
 27 84  1  0  0  0  0
 28 85  1  0  0  0  0
 29 31  2  0  0  0  0
 29 84  1  0  0  0  0
 30 86  1  0  0  0  0
 31 87  1  0  0  0  0
 32 68  2  0  0  0  0
 33 69  1  0  0  0  0
 33 72  1  0  0  0  0
 34 36  2  0  0  0  0
 35 73  1  0  0  0  0
 35 79  2  0  0  0  0
 36 88  1  0  0  0  0
 36 89  1  0  0  0  0
 37 55  1  0  0  0  0
 37 75  1  0  0  0  0
 37 80  2  0  0  0  0
 38 65  1  0  0  0  0
 38 70  1  0  0  0  0
 38 81  2  0  0  0  0
 39 66  1  0  0  0  0
 39 76  1  0  0  0  0
 39 82  2  0  0  0  0
 40 71  1  0  0  0  0
 40 74  1  0  0  0  0
 40 83  2  0  0  0  0
 41 44  1  0  0  0  0
 42 55  1  0  0  0  0
 43 70  1  0  0  0  0
 44 47  1  0  0  0  0
 45 48  1  0  0  0  0
 45 50  1  0  0  0  0
 46 49  1  0  0  0  0
 46 52  1  0  0  0  0
 47 54  1  0  0  0  0
 48 56  1  0  0  0  0
 49 57  1  0  0  0  0
 50 71  1  0  0  0  0
 51 56  1  0  0  0  0
 51 71  1  0  0  0  0
 52 77  1  0  0  0  0
 53 57  1  0  0  0  0
 53 77  1  0  0  0  0
 54 75  1  0  0  0  0
 55 70  1  0  0  0  0
 56 69  1  0  0  0  0
 57 85  1  0  0  0  0
 59 66  1  0  0  0  0
 60 67  1  0  0  0  0
 61 67  1  0  0  0  0
 62 67  1  0  0  0  0
 63 78  1  0  0  0  0
 64 77  1  0  0  0  0
 65 67  1  0  0  0  0
 65 76  1  0  0  0  0
 66 78  1  0  0  0  0
 68 69  1  0  0  0  0
M  CHG  2  77   1  78   1
M  ISO  4  40 100  57 101  74 100  85 101
M  END
> <Batch ID>
0038

> <Smiles>
CNC(C)C(=O)NC(C(=O)N1Cc2cc([101O:1][101CH:1]3CCCN(Cc4cc([100NH:0][100C:0](=O)N5CCCC(n6nc(-c7ccc(Oc8ccc(F)cc8F)cc7)c(C(N)=O)c6N)C5)cc(C=C(Cl)Cl)c4C)C3)ccc2CC1C(=O)NC1CCCc2ccccc21)C(C)(C)C

> <Shape>
0.329

> <Color>
0.079

> <Negative vol penalty>
0.000

$$$$

  -OEChem-04042322003D

 89 98  0     1  0  0  0  0  0999 V2000
  -19.0805  -12.5105   19.5154 C   0  0  0  0  0  0  0  0  0  0  0  0
  -18.2622  -13.3990   20.2055 C   0  0  0  0  0  0  0  0  0  0  0  0
  -28.6015  -18.1381   19.8049 C   0  0  0  0  0  0  0  0  0  0  0  0
  -30.6519  -18.4347   21.0478 C   0  0  0  0  0  0  0  0  0  0  0  0
  -20.4657  -12.6631   19.5584 C   0  0  0  0  0  0  0  0  0  0  0  0
  -18.8287  -14.4402   20.9400 C   0  0  0  0  0  0  0  0  0  0  0  0
  -17.6040  -22.1409   20.4644 C   0  0  0  0  0  0  0  0  0  0  0  0
  -23.9096  -29.5128   20.1913 C   0  0  0  0  0  0  0  0  0  0  0  0
  -25.2711  -29.3081   19.9680 C   0  0  0  0  0  0  0  0  0  0  0  0
  -28.5229  -16.8184   20.2494 C   0  0  0  0  0  0  0  0  0  0  0  0
  -30.5733  -17.1149   21.4924 C   0  0  0  0  0  0  0  0  0  0  0  0
  -17.5895  -23.5325   20.3675 C   0  0  0  0  0  0  0  0  0  0  0  0
  -29.9401  -13.8457   19.4887 C   0  0  0  0  0  0  0  0  0  0  0  0
  -29.6226  -12.8642   18.5498 C   0  0  0  0  0  0  0  0  0  0  0  0
  -19.8406  -23.6277   21.2459 C   0  0  0  0  0  0  0  0  0  0  0  0
  -27.6568  -12.2788   19.8265 C   0  0  0  0  0  0  0  0  0  0  0  0
  -29.6661  -18.9463   20.2040 C   0  0  0  0  0  0  0  0  0  0  0  0
  -29.8317  -20.7538   18.4115 C   0  0  0  0  0  0  0  0  0  0  0  0
  -21.0491  -13.7124   20.2860 C   0  0  0  0  0  0  0  0  0  0  0  0
  -18.7439  -21.4857   20.9385 C   0  0  0  0  0  0  0  0  0  0  0  0
  -20.2230  -14.6062   20.9939 C   0  0  0  0  0  0  0  0  0  0  0  0
  -19.8655  -22.2333   21.3334 C   0  0  0  0  0  0  0  0  0  0  0  0
  -23.4619  -29.9145   21.4498 C   0  0  0  0  0  0  0  0  0  0  0  0
  -26.1850  -29.5050   21.0032 C   0  0  0  0  0  0  0  0  0  0  0  0
  -24.3757  -30.1114   22.4850 C   0  0  0  0  0  0  0  0  0  0  0  0
  -29.5087  -16.3068   21.0932 C   0  0  0  0  0  0  0  0  0  0  0  0
  -18.7050  -24.2740   20.7576 C   0  0  0  0  0  0  0  0  0  0  0  0
  -29.1160  -14.0437   20.5966 C   0  0  0  0  0  0  0  0  0  0  0  0
  -28.4810  -12.0808   18.7187 C   0  0  0  0  0  0  0  0  0  0  0  0
  -27.9743  -13.2603   20.7654 C   0  0  0  0  0  0  0  0  0  0  0  0
  -25.7373  -29.9067   22.2618 C   0  0  0  0  0  0  0  0  0  0  0  0
  -29.7482  -20.3095   19.7447 C   0  0  0  0  0  0  0  0  0  0  0  0
  -29.8872  -22.1227   18.5086 C   0  0  0  0  0  0  0  0  0  0  0  0
  -21.5489  -27.7541   21.7808 C   0  0  0  0  0  0  0  0  0  0  0  0
  -22.7025  -27.1133   22.0377 C   0  0  0  0  0  0  0  0  0  0  0  0
  -29.8568  -19.9967   17.1941 C   0  0  0  0  0  0  0  0  0  0  0  0
  -20.4016  -18.2189   21.7484 C   0  0  0  0  0  0  0  0  0  0  0  0
  -22.5284  -19.9952   20.4323 C   0  0  0  0  0  0  0  0  0  0  0  0
  -24.4544  -22.1065   18.5694 C   0  0  0  0  0  0  0  0  0  0  0  0
  -28.0142  -26.8234   20.5924 C   0  0  0  0  0  0  0  0  0  0  0  0
  -22.5532  -13.8088   20.3415 C   0  0  0  0  0  0  0  0  0  0  0  0
  -18.7818  -19.9923   21.1176 C   0  0  0  0  0  0  0  0  0  0  0  0
  -21.0569  -21.4879   21.8700 C   0  0  0  0  0  0  0  0  0  0  0  0
  -20.5247  -27.1745   20.8456 C   0  0  0  0  0  0  0  0  0  0  0  0
  -23.0589  -15.1611   20.8372 C   0  0  0  0  0  0  0  0  0  0  0  0
  -30.5474  -25.1161   22.5329 C   0  0  0  0  0  0  0  0  0  0  0  0
  -19.1630  -28.1699   23.4231 C   0  0  0  0  0  0  0  0  0  0  0  0
  -22.2929  -15.5934   22.0834 C   0  0  0  0  0  0  0  0  0  0  0  0
  -30.5690  -23.7413   21.8623 C   0  0  0  0  0  0  0  0  0  0  0  0
  -18.5045  -27.2143   22.4289 C   0  0  0  0  0  0  0  0  0  0  0  0
  -29.1295  -25.6759   22.6004 C   0  0  0  0  0  0  0  0  0  0  0  0
  -28.4566  -24.3849   20.6120 C   0  0  0  0  0  0  0  0  0  0  0  0
  -19.8923  -29.3261   22.7436 C   0  0  0  0  0  0  0  0  0  0  0  0
  -20.7990  -15.7629   21.7815 C   0  0  1  0  0  0  0  0  0  0  0  0
  -20.1676  -19.3854   20.8341 C   0  0  1  0  0  0  0  0  0  0  0  0
  -29.8650  -23.7747   20.4928 C   0  0  2  0  0  0  0  0  0  0  0  0
  -19.4681  -26.3649   21.6008 C   0  0  1  0  0  0  0  0  0  1  0  0
  -23.8730  -30.5409   23.8285 C   0  0  0  0  0  0  0  0  0  0  0  0
  -26.4322  -22.8901   17.2385 C   0  0  0  0  0  0  0  0  0  0  0  0
  -23.6693  -20.6340   23.1880 C   0  0  0  0  0  0  0  0  0  0  0  0
  -25.6144  -21.7263   22.0513 C   0  0  0  0  0  0  0  0  0  0  0  0
  -25.1829  -19.2922   21.7173 C   0  0  0  0  0  0  0  0  0  0  0  0
  -23.3541  -20.9899   16.0591 C   0  0  0  0  0  0  0  0  0  0  0  0
  -27.6341  -29.2723   20.7175 C   0  0  0  0  0  0  0  0  0  0  0  0
  -21.9918  -30.1268   21.6613 C   0  0  0  0  0  0  0  0  0  0  0  0
  -23.6500  -20.9833   20.6300 C   0  0  1  0  0  0  0  0  0  0  0  0
  -25.3111  -21.8675   17.3393 C   0  0  2  0  0  0  0  0  0  0  0  0
  -24.5026  -20.6675   21.8913 C   0  0  0  0  0  0  0  0  0  0  0  0
  -29.7503  -21.3147   20.6243 N   0  0  0  0  0  0  0  0  0  0  0  0
  -29.8359  -22.4042   19.8421 N   0  0  0  0  0  0  0  0  0  0  0  0
  -21.3090  -20.2897   21.0542 N   0  0  0  0  0  0  0  0  0  0  0  0
  -28.5228  -25.6980   21.2619 N   0  0  0  0  0  0  0  0  0  0  0  0
  -29.9745  -23.1011   17.5825 N   0  0  0  0  0  0  0  0  0  0  0  0
  -31.0979  -19.5898   16.6859 N   0  0  0  0  0  0  0  0  0  0  0  0
  -20.5613  -17.0132   21.0925 N   0  0  0  0  0  0  0  0  0  0  0  0
  -24.4083  -20.9947   19.3837 N   0  0  0  0  0  0  0  0  0  0  0  0
  -28.1088  -28.0274   21.2796 N   0  0  0  0  0  0  0  0  0  0  0  0
  -21.3414  -29.0163   22.4497 N   0  3  2  0  0  0  0  0  0  0  0  0
  -24.4812  -21.9567   16.1047 N   0  3  0  0  0  0  0  0  0  0  0  0
  -28.8107  -19.7043   16.5667 O   0  0  0  0  0  0  0  0  0  0  0  0
  -20.4366  -18.3985   22.9601 O   0  0  0  0  0  0  0  0  0  0  0  0
  -22.7269  -18.9859   19.7502 O   0  0  0  0  0  0  0  0  0  0  0  0
  -23.8860  -23.1741   18.7882 O   0  0  0  0  0  0  0  0  0  0  0  0
  -27.5170  -26.7609   19.4628 O   0  0  0  0  0  0  0  0  0  0  0  0
  -29.4322  -15.0191   21.5274 O   0  0  0  0  0  0  0  0  0  0  0  0
  -18.6857  -25.6320   20.6562 O   0  0  0  0  0  0  0  0  0  1  0  0
  -28.1754  -11.1394   17.8162 F   0  0  0  0  0  0  0  0  0  0  0  0
  -27.1781  -13.4467   21.8271 F   0  0  0  0  0  0  0  0  0  0  0  0
  -26.8748  -30.1462   23.5462 Cl  0  0  0  0  0  0  0  0  0  0  0  0
  1  2  1  0  0  0  0
  1  5  2  0  0  0  0
  2  6  2  0  0  0  0
  3 10  2  0  0  0  0
  3 17  1  0  0  0  0
  4 11  1  0  0  0  0
  4 17  2  0  0  0  0
  5 19  1  0  0  0  0
  6 21  1  0  0  0  0
  7 12  2  0  0  0  0
  7 20  1  0  0  0  0
  8  9  2  0  0  0  0
  8 23  1  0  0  0  0
  9 24  1  0  0  0  0
 10 26  1  0  0  0  0
 11 26  2  0  0  0  0
 12 27  1  0  0  0  0
 13 14  2  0  0  0  0
 13 28  1  0  0  0  0
 14 29  1  0  0  0  0
 15 22  1  0  0  0  0
 15 27  2  0  0  0  0
 16 29  2  0  0  0  0
 16 30  1  0  0  0  0
 17 32  1  0  0  0  0
 18 32  1  0  0  0  0
 18 33  2  0  0  0  0
 18 36  1  0  0  0  0
 19 21  2  0  0  0  0
 19 41  1  0  0  0  0
 20 22  2  0  0  0  0
 20 42  1  0  0  0  0
 21 54  1  0  0  0  0
 22 43  1  0  0  0  0
 23 25  2  0  0  0  0
 23 65  1  0  0  0  0
 24 31  2  0  0  0  0
 24 64  1  0  0  0  0
 25 31  1  0  0  0  0
 25 58  1  0  0  0  0
 26 85  1  0  0  0  0
 27 86  1  0  0  0  0
 28 30  2  0  0  0  0
 28 85  1  0  0  0  0
 29 87  1  0  0  0  0
 30 88  1  0  0  0  0
 31 89  1  0  0  0  0
 32 69  2  0  0  0  0
 33 70  1  0  0  0  0
 33 73  1  0  0  0  0
 34 35  2  0  0  0  0
 34 44  1  0  0  0  0
 34 78  1  0  0  0  0
 36 74  1  0  0  0  0
 36 80  2  0  0  0  0
 37 55  1  0  0  0  0
 37 75  1  0  0  0  0
 37 81  2  0  0  0  0
 38 66  1  0  0  0  0
 38 71  1  0  0  0  0
 38 82  2  0  0  0  0
 39 67  1  0  0  0  0
 39 76  1  0  0  0  0
 39 83  2  0  0  0  0
 40 72  1  0  0  0  0
 40 77  1  0  0  0  0
 40 84  2  0  0  0  0
 41 45  1  0  0  0  0
 42 55  1  0  0  0  0
 43 71  1  0  0  0  0
 44 57  1  0  0  0  0
 45 48  1  0  0  0  0
 46 49  1  0  0  0  0
 46 51  1  0  0  0  0
 47 50  1  0  0  0  0
 47 53  1  0  0  0  0
 48 54  1  0  0  0  0
 49 56  1  0  0  0  0
 50 57  1  0  0  0  0
 51 72  1  0  0  0  0
 52 56  1  0  0  0  0
 52 72  1  0  0  0  0
 53 78  1  0  0  0  0
 54 75  1  0  0  0  0
 55 71  1  0  0  0  0
 56 70  1  0  0  0  0
 57 86  1  0  0  0  0
 59 67  1  0  0  0  0
 60 68  1  0  0  0  0
 61 68  1  0  0  0  0
 62 68  1  0  0  0  0
 63 79  1  0  0  0  0
 64 77  1  0  0  0  0
 65 78  1  0  0  0  0
 66 68  1  0  0  0  0
 66 76  1  0  0  0  0
 67 79  1  0  0  0  0
 69 70  1  0  0  0  0
M  CHG  2  78   1  79   1
M  ISO  4  40 100  57 101  77 100  86 101
M  END
> <Batch ID>
0038

> <Smiles>
C=C1C[101CH:1]([101O:1]c2ccc3c(c2)CN(C(=O)C(NC(=O)C(C)NC)C(C)(C)C)C(C(=O)NC2CCCc4ccccc42)C3)CCCN1Cc1ccc(C[100NH:0][100C:0](=O)N2CCCC(n3nc(-c4ccc(Oc5ccc(F)cc5F)cc4)c(C(N)=O)c3N)C2)c(Cl)c1C

> <Shape>
0.253

> <Color>
0.069

> <Negative vol penalty>
0.000

$$$$

  -OEChem-04042322003D

 88 97  0     1  0  0  0  0  0999 V2000
  -17.3844  -31.2089   24.1287 C   0  0  0  0  0  0  0  0  0  0  0  0
  -18.5472  -31.0074   24.8654 C   0  0  0  0  0  0  0  0  0  0  0  0
  -24.2577  -13.5675   20.0808 C   0  0  0  0  0  0  0  0  0  0  0  0
  -26.3710  -13.6560   21.2483 C   0  0  0  0  0  0  0  0  0  0  0  0
  -17.1089  -30.3990   23.0278 C   0  0  0  0  0  0  0  0  0  0  0  0
  -19.4347  -29.9951   24.5021 C   0  0  0  0  0  0  0  0  0  0  0  0
  -25.5402  -30.1103   24.9667 C   0  0  0  0  0  0  0  0  0  0  0  0
  -24.3463  -12.1766   20.0257 C   0  0  0  0  0  0  0  0  0  0  0  0
  -26.4596  -12.2651   21.1933 C   0  0  0  0  0  0  0  0  0  0  0  0
  -26.4185  -29.5927   25.9178 C   0  0  0  0  0  0  0  0  0  0  0  0
  -23.8193   -9.5628   22.1049 C   0  0  0  0  0  0  0  0  0  0  0  0
  -22.6776   -8.8274   22.4231 C   0  0  0  0  0  0  0  0  0  0  0  0
  -26.7415  -27.6353   24.5454 C   0  0  0  0  0  0  0  0  0  0  0  0
  -27.3880  -23.5326   25.3362 C   0  0  0  0  0  0  0  0  0  0  0  0
  -25.4721  -22.9729   23.9750 C   0  0  0  0  0  0  0  0  0  0  0  0
  -22.6975   -7.8420   20.2173 C   0  0  0  0  0  0  0  0  0  0  0  0
  -25.2700  -14.3073   20.6920 C   0  0  0  0  0  0  0  0  0  0  0  0
  -24.1680  -16.5086   21.3608 C   0  0  0  0  0  0  0  0  0  0  0  0
  -17.9983  -29.3825   22.6450 C   0  0  0  0  0  0  0  0  0  0  0  0
  -25.2471  -29.3881   23.8010 C   0  0  0  0  0  0  0  0  0  0  0  0
  -19.1702  -29.1700   23.3958 C   0  0  0  0  0  0  0  0  0  0  0  0
  -25.8612  -28.1470   23.5799 C   0  0  0  0  0  0  0  0  0  0  0  0
  -26.8321  -23.2623   24.0858 C   0  0  0  0  0  0  0  0  0  0  0  0
  -26.5839  -23.5134   26.4759 C   0  0  0  0  0  0  0  0  0  0  0  0
  -25.2239  -23.2239   26.3651 C   0  0  0  0  0  0  0  0  0  0  0  0
  -25.4473  -11.5253   20.5820 C   0  0  0  0  0  0  0  0  0  0  0  0
  -27.0170  -28.3537   25.7086 C   0  0  0  0  0  0  0  0  0  0  0  0
  -24.4001   -9.4379   20.8428 C   0  0  0  0  0  0  0  0  0  0  0  0
  -22.1167   -7.9669   21.4794 C   0  0  0  0  0  0  0  0  0  0  0  0
  -23.8392   -8.5774   19.8990 C   0  0  0  0  0  0  0  0  0  0  0  0
  -24.6680  -22.9536   25.1146 C   0  0  0  0  0  0  0  0  0  0  0  0
  -25.1793  -15.7442   20.7487 C   0  0  0  0  0  0  0  0  0  0  0  0
  -24.5401  -17.8118   21.1378 C   0  0  0  0  0  0  0  0  0  0  0  0
  -22.9969  -16.0791   22.0678 C   0  0  0  0  0  0  0  0  0  0  0  0
  -22.6122  -28.1302   22.5445 C   0  0  0  0  0  0  0  0  0  0  0  0
  -24.5726  -27.5110   20.0354 C   0  0  0  0  0  0  0  0  0  0  0  0
  -27.7503  -27.0086   18.8967 C   0  0  0  0  0  0  0  0  0  0  0  0
  -28.4335  -21.8083   21.0152 C   0  0  0  0  0  0  0  0  0  0  0  0
  -17.6344  -28.5018   21.4760 C   0  0  0  0  0  0  0  0  0  0  0  0
  -24.3182  -29.9723   22.7723 C   0  0  0  0  0  0  0  0  0  0  0  0
  -25.5955  -27.3413   22.3355 C   0  0  0  0  0  0  0  0  0  0  0  0
  -18.8104  -27.6943   20.9326 C   0  0  0  0  0  0  0  0  0  0  0  0
  -28.1185  -19.7452   18.1305 C   0  0  0  0  0  0  0  0  0  0  0  0
  -19.5829  -27.0417   22.0746 C   0  0  0  0  0  0  0  0  0  0  0  0
  -27.2480  -18.5810   18.6068 C   0  0  0  0  0  0  0  0  0  0  0  0
  -28.4555  -27.8110   28.9861 C   0  0  0  0  0  0  0  0  0  0  0  0
  -29.5110  -26.7159   28.8855 C   0  0  0  0  0  0  0  0  0  0  0  0
  -29.0725  -20.2208   19.2241 C   0  0  0  0  0  0  0  0  0  0  0  0
  -27.5554  -19.3950   20.9820 C   0  0  0  0  0  0  0  0  0  0  0  0
  -26.7495  -26.2337   28.0058 C   0  0  0  0  0  0  0  0  0  0  0  0
  -20.1698  -28.0983   23.0183 C   0  0  1  0  0  0  0  0  0  0  0  0
  -23.6948  -28.9181   21.8627 C   0  0  1  0  0  0  0  0  0  0  0  0
  -26.5379  -18.9173   19.9318 C   0  0  2  0  0  0  0  0  0  0  0  0
  -27.3573  -27.6272   27.9463 C   0  0  2  0  0  0  0  0  0  1  0  0
  -28.9008  -25.3114   28.9631 C   0  0  2  0  0  0  0  0  0  0  0  0
  -24.3750  -23.2067   27.5981 C   0  0  0  0  0  0  0  0  0  0  0  0
  -29.9954  -24.2622   28.7776 C   0  0  0  0  0  0  0  0  0  0  0  0
  -29.0335  -26.4862   16.8043 C   0  0  0  0  0  0  0  0  0  0  0  0
  -23.6806  -24.5988   20.2183 C   0  0  0  0  0  0  0  0  0  0  0  0
  -25.6445  -23.9805   18.7938 C   0  0  0  0  0  0  0  0  0  0  0  0
  -23.8739  -25.4863   17.8881 C   0  0  0  0  0  0  0  0  0  0  0  0
  -29.2604  -29.5492   19.0499 C   0  0  0  0  0  0  0  0  0  0  0  0
  -27.6923  -23.2842   22.8676 C   0  0  0  0  0  0  0  0  0  0  0  0
  -27.2091  -23.8065   27.8079 C   0  0  0  0  0  0  0  0  0  0  0  0
  -25.4722  -26.3653   19.6388 C   0  0  1  0  0  0  0  0  0  0  0  0
  -28.4973  -27.5857   17.7078 C   0  0  2  0  0  0  0  0  0  0  0  0
  -24.6715  -25.1218   19.1592 C   0  0  0  0  0  0  0  0  0  0  0  0
  -26.1230  -16.4988   20.1794 N   0  0  0  0  0  0  0  0  0  0  0  0
  -25.7062  -17.7510   20.4328 N   0  0  0  0  0  0  0  0  0  0  0  0
  -24.6751  -27.9522   21.3623 N   0  0  0  0  0  0  0  0  0  0  0  0
  -28.3359  -20.5246   20.4534 N   0  0  0  0  0  0  0  0  0  0  0  0
  -23.9804  -18.9922   21.4778 N   0  0  0  0  0  0  0  0  0  0  0  0
  -23.0884  -15.8776   23.4517 N   0  0  0  0  0  0  0  0  0  0  0  0
  -21.3545  -28.6926   22.4373 N   0  0  0  0  0  0  0  0  0  0  0  0
  -26.3988  -26.8986   18.6462 N   0  0  0  0  0  0  0  0  0  0  0  0
  -27.6987  -22.0142   22.1764 N   0  0  0  0  0  0  0  0  0  0  0  0
  -27.8359  -25.1785   27.8782 N   0  3  1  0  0  0  0  0  0  0  0  0
  -29.6456  -28.4153   18.1707 N   0  3  0  0  0  0  0  0  0  0  0  0
  -21.9062  -15.8642   21.4868 O   0  0  0  0  0  0  0  0  0  0  0  0
  -22.8965  -27.0883   23.1236 O   0  0  0  0  0  0  0  0  0  0  0  0
  -23.8123  -28.0012   19.1968 O   0  0  0  0  0  0  0  0  0  0  0  0
  -28.3102  -26.6839   19.9415 O   0  0  0  0  0  0  0  0  0  0  0  0
  -29.1201  -22.7062   20.5157 O   0  0  0  0  0  0  0  0  0  0  0  0
  -25.5340  -10.1681   20.5286 O   0  0  0  0  0  0  0  0  0  0  0  0
  -27.8741  -27.8459   26.6356 O   0  0  0  0  0  0  0  0  0  1  0  0
  -21.0212   -7.2596   21.7856 F   0  0  0  0  0  0  0  0  0  0  0  0
  -24.3933   -8.4524   18.6853 F   0  0  0  0  0  0  0  0  0  0  0  0
  -22.9890  -22.5927   24.9356 Cl  0  0  0  0  0  0  0  0  0  0  0  0
  1  2  1  0  0  0  0
  1  5  2  0  0  0  0
  2  6  2  0  0  0  0
  3  8  2  0  0  0  0
  3 17  1  0  0  0  0
  4  9  1  0  0  0  0
  4 17  2  0  0  0  0
  5 19  1  0  0  0  0
  6 21  1  0  0  0  0
  7 10  2  0  0  0  0
  7 20  1  0  0  0  0
  8 26  1  0  0  0  0
  9 26  2  0  0  0  0
 10 27  1  0  0  0  0
 11 12  2  0  0  0  0
 11 28  1  0  0  0  0
 12 29  1  0  0  0  0
 13 22  1  0  0  0  0
 13 27  2  0  0  0  0
 14 23  2  0  0  0  0
 14 24  1  0  0  0  0
 15 23  1  0  0  0  0
 15 31  2  0  0  0  0
 16 29  2  0  0  0  0
 16 30  1  0  0  0  0
 17 32  1  0  0  0  0
 18 32  1  0  0  0  0
 18 33  2  0  0  0  0
 18 34  1  0  0  0  0
 19 21  2  0  0  0  0
 19 39  1  0  0  0  0
 20 22  2  0  0  0  0
 20 40  1  0  0  0  0
 21 51  1  0  0  0  0
 22 41  1  0  0  0  0
 23 63  1  0  0  0  0
 24 25  2  0  0  0  0
 24 64  1  0  0  0  0
 25 31  1  0  0  0  0
 25 56  1  0  0  0  0
 26 84  1  0  0  0  0
 27 85  1  0  0  0  0
 28 30  2  0  0  0  0
 28 84  1  0  0  0  0
 29 86  1  0  0  0  0
 30 87  1  0  0  0  0
 31 88  1  0  0  0  0
 32 68  2  0  0  0  0
 33 69  1  0  0  0  0
 33 72  1  0  0  0  0
 34 73  1  0  0  0  0
 34 79  2  0  0  0  0
 35 52  1  0  0  0  0
 35 74  1  0  0  0  0
 35 80  2  0  0  0  0
 36 65  1  0  0  0  0
 36 70  1  0  0  0  0
 36 81  2  0  0  0  0
 37 66  1  0  0  0  0
 37 75  1  0  0  0  0
 37 82  2  0  0  0  0
 38 71  1  0  0  0  0
 38 76  1  0  0  0  0
 38 83  2  0  0  0  0
 39 42  1  0  0  0  0
 40 52  1  0  0  0  0
 41 70  1  0  0  0  0
 42 44  1  0  0  0  0
 43 45  1  0  0  0  0
 43 48  1  0  0  0  0
 44 51  1  0  0  0  0
 45 53  1  0  0  0  0
 46 47  1  0  0  0  0
 46 54  1  0  0  0  0
 47 55  1  0  0  0  0
 48 71  1  0  0  0  0
 49 53  1  0  0  0  0
 49 71  1  0  0  0  0
 50 54  1  0  0  0  0
 50 77  1  0  0  0  0
 51 74  1  0  0  0  0
 52 70  1  0  0  0  0
 53 69  1  0  0  0  0
 54 85  1  0  0  0  0
 55 57  1  0  0  0  0
 55 77  1  0  0  0  0
 58 66  1  0  0  0  0
 59 67  1  0  0  0  0
 60 67  1  0  0  0  0
 61 67  1  0  0  0  0
 62 78  1  0  0  0  0
 63 76  1  0  0  0  0
 64 77  1  0  0  0  0
 65 67  1  0  0  0  0
 65 75  1  0  0  0  0
 66 78  1  0  0  0  0
 68 69  1  0  0  0  0
M  CHG  2  77   1  78   1
M  ISO  4  38 100  54 101  76 100  85 101
M  END
> <Batch ID>
0038

> <Smiles>
CNC(C)C(=O)NC(C(=O)N1Cc2cc([101O:1][101CH:1]3CCC(C)N(Cc4cc(C[100NH:0][100C:0](=O)N5CCCC(n6nc(-c7ccc(Oc8ccc(F)cc8F)cc7)c(C(N)=O)c6N)C5)cc(Cl)c4C)C3)ccc2CC1C(=O)NC1CCCc2ccccc21)C(C)(C)C

> <Shape>
0.229

> <Color>
0.087

> <Negative vol penalty>
0.000

$$$$

  -OEChem-04042322003D

 90 99  0     1  0  0  0  0  0999 V2000
  -29.7639  -35.3513   20.2563 C   0  0  0  0  0  0  0  0  0  0  0  0
  -29.7361  -33.9672   20.3934 C   0  0  0  0  0  0  0  0  0  0  0  0
  -24.5049   -9.5045   21.6012 C   0  0  0  0  0  0  0  0  0  0  0  0
  -22.7159  -10.7127   20.5164 C   0  0  0  0  0  0  0  0  0  0  0  0
  -28.8436  -36.1378   20.9480 C   0  0  0  0  0  0  0  0  0  0  0  0
  -28.7885  -33.3688   21.2232 C   0  0  0  0  0  0  0  0  0  0  0  0
  -26.6053  -29.3315   19.0834 C   0  0  0  0  0  0  0  0  0  0  0  0
  -23.6632   -8.4043   21.7641 C   0  0  0  0  0  0  0  0  0  0  0  0
  -21.8741   -9.6124   20.6792 C   0  0  0  0  0  0  0  0  0  0  0  0
  -27.3353  -28.1438   19.0726 C   0  0  0  0  0  0  0  0  0  0  0  0
  -22.4914   -5.8621   19.8676 C   0  0  0  0  0  0  0  0  0  0  0  0
  -23.0045   -4.6021   19.5598 C   0  0  0  0  0  0  0  0  0  0  0  0
  -26.0729  -27.3577   20.9720 C   0  0  0  0  0  0  0  0  0  0  0  0
  -24.0477  -20.8735   18.5051 C   0  0  0  0  0  0  0  0  0  0  0  0
  -23.8635  -18.8888   17.1398 C   0  0  0  0  0  0  0  0  0  0  0  0
  -22.6070   -3.8850   21.8324 C   0  0  0  0  0  0  0  0  0  0  0  0
  -24.0313  -10.6588   20.9774 C   0  0  0  0  0  0  0  0  0  0  0  0
  -26.1161  -11.8392   20.1013 C   0  0  0  0  0  0  0  0  0  0  0  0
  -27.8782  -35.5482   21.7791 C   0  0  0  0  0  0  0  0  0  0  0  0
  -25.6093  -29.5461   20.0469 C   0  0  0  0  0  0  0  0  0  0  0  0
  -27.8553  -34.1483   21.9277 C   0  0  0  0  0  0  0  0  0  0  0  0
  -25.3299  -28.5479   20.9912 C   0  0  0  0  0  0  0  0  0  0  0  0
  -23.4953  -19.6139   18.2731 C   0  0  0  0  0  0  0  0  0  0  0  0
  -24.9683  -21.4081   17.6037 C   0  0  0  0  0  0  0  0  0  0  0  0
  -25.3366  -20.6830   16.4705 C   0  0  0  0  0  0  0  0  0  0  0  0
  -22.3478   -8.4582   21.3031 C   0  0  0  0  0  0  0  0  0  0  0  0
  -27.0711  -27.1578   20.0188 C   0  0  0  0  0  0  0  0  0  0  0  0
  -22.0361   -6.1336   21.1579 C   0  0  0  0  0  0  0  0  0  0  0  0
  -23.0623   -3.6136   20.5422 C   0  0  0  0  0  0  0  0  0  0  0  0
  -22.0939   -5.1450   22.1402 C   0  0  0  0  0  0  0  0  0  0  0  0
  -24.7842  -19.4233   16.2385 C   0  0  0  0  0  0  0  0  0  0  0  0
  -24.9001  -11.7958   20.8093 C   0  0  0  0  0  0  0  0  0  0  0  0
  -26.5485  -13.1354   20.2406 C   0  0  0  0  0  0  0  0  0  0  0  0
  -27.4818  -24.0479   18.5868 C   0  0  0  0  0  0  0  0  0  0  0  0
  -29.5681  -24.2555   15.5720 C   0  0  0  0  0  0  0  0  0  0  0  0
  -28.3345  -24.5230   17.6640 C   0  0  0  0  0  0  0  0  0  0  0  0
  -28.7189  -23.7818   16.4907 C   0  0  0  0  0  0  0  0  0  0  0  0
  -26.7942  -10.8007   19.3820 C   0  0  0  0  0  0  0  0  0  0  0  0
  -25.1639  -31.6575   22.3809 C   0  0  0  0  0  0  0  0  0  0  0  0
  -22.2891  -30.1778   22.6421 C   0  0  0  0  0  0  0  0  0  0  0  0
  -21.0527  -26.7898   22.5440 C   0  0  0  0  0  0  0  0  0  0  0  0
  -23.6960  -18.2949   21.2866 C   0  0  0  0  0  0  0  0  0  0  0  0
  -26.9344  -36.4426   22.5434 C   0  0  0  0  0  0  0  0  0  0  0  0
  -24.8125  -30.8217   20.0284 C   0  0  0  0  0  0  0  0  0  0  0  0
  -24.2571  -28.7209   22.0341 C   0  0  0  0  0  0  0  0  0  0  0  0
  -25.7230  -35.7068   23.1104 C   0  0  0  0  0  0  0  0  0  0  0  0
  -26.3101  -16.8611   23.2328 C   0  0  0  0  0  0  0  0  0  0  0  0
  -26.6321  -22.5259   20.8630 C   0  0  0  0  0  0  0  0  0  0  0  0
  -26.1557  -34.4142   23.7949 C   0  0  0  0  0  0  0  0  0  0  0  0
  -27.2429  -23.9080   21.0652 C   0  0  0  0  0  0  0  0  0  0  0  0
  -26.3549  -15.4043   22.7685 C   0  0  0  0  0  0  0  0  0  0  0  0
  -24.8810  -17.3983   23.2686 C   0  0  0  0  0  0  0  0  0  0  0  0
  -24.1735  -15.7847   21.5455 C   0  0  0  0  0  0  0  0  0  0  0  0
  -27.1689  -21.8588   19.6009 C   0  0  0  0  0  0  0  0  0  0  0  0
  -26.8268  -33.4605   22.7990 C   0  0  1  0  0  0  0  0  0  0  0  0
  -27.0505  -24.7896   19.8321 C   0  0  1  0  0  0  0  0  0  1  0  0
  -24.1722  -31.1458   21.3747 C   0  0  1  0  0  0  0  0  0  0  0  0
  -25.5988  -15.2158   21.4395 C   0  0  2  0  0  0  0  0  0  0  0  0
  -26.3254  -21.2714   15.5128 C   0  0  0  0  0  0  0  0  0  0  0  0
  -18.7986  -25.8935   21.9013 C   0  0  0  0  0  0  0  0  0  0  0  0
  -21.6954  -30.3360   25.6308 C   0  0  0  0  0  0  0  0  0  0  0  0
  -20.4272  -28.1875   25.4217 C   0  0  0  0  0  0  0  0  0  0  0  0
  -19.6695  -30.2080   24.1702 C   0  0  0  0  0  0  0  0  0  0  0  0
  -22.2226  -24.9748   20.5200 C   0  0  0  0  0  0  0  0  0  0  0  0
  -22.5117  -19.0425   19.2378 C   0  0  0  0  0  0  0  0  0  0  0  0
  -25.5452  -22.7656   17.8780 C   0  0  0  0  0  0  0  0  0  0  0  0
  -21.7605  -28.9990   23.4230 C   0  0  1  0  0  0  0  0  0  0  0  0
  -20.2240  -26.1563   21.4411 C   0  0  2  0  0  0  0  0  0  0  0  0
  -20.9154  -29.4342   24.6535 C   0  0  0  0  0  0  0  0  0  0  0  0
  -24.5806  -12.9710   21.3578 N   0  0  0  0  0  0  0  0  0  0  0  0
  -25.6022  -13.7650   20.9945 N   0  0  0  0  0  0  0  0  0  0  0  0
  -23.5097  -29.9881   21.9788 N   0  0  0  0  0  0  0  0  0  0  0  0
  -24.2203  -17.1902   21.9779 N   0  0  0  0  0  0  0  0  0  0  0  0
  -27.6420  -13.7867   19.7906 N   0  0  0  0  0  0  0  0  0  0  0  0
  -26.5023  -10.6298   18.0219 N   0  0  0  0  0  0  0  0  0  0  0  0
  -25.8312  -32.8000   21.9823 N   0  0  0  0  0  0  0  0  0  0  0  0
  -21.0388  -28.1664   22.4668 N   0  0  0  0  0  0  0  0  0  0  0  0
  -23.0920  -18.0106   20.0680 N   0  0  0  0  0  0  0  0  0  0  0  0
  -26.9649  -22.7139   18.3716 N   0  3  1  0  0  0  0  0  0  0  0  0
  -20.8277  -24.8611   21.0184 N   0  3  0  0  0  0  0  0  0  0  0  0
  -27.6220  -10.0361   19.9331 O   0  0  0  0  0  0  0  0  0  0  0  0
  -25.3116  -31.0608   23.4410 O   0  0  0  0  0  0  0  0  0  0  0  0
  -21.6393  -31.2260   22.6155 O   0  0  0  0  0  0  0  0  0  0  0  0
  -21.6495  -26.1295   23.3916 O   0  0  0  0  0  0  0  0  0  0  0  0
  -23.7661  -19.4498   21.7207 O   0  0  0  0  0  0  0  0  0  0  0  0
  -21.5262   -7.3847   21.4617 O   0  0  0  0  0  0  0  0  0  0  0  0
  -27.7827  -25.9979   20.0109 O   0  0  0  0  0  0  0  0  0  1  0  0
  -23.5536   -2.4032   20.2460 F   0  0  0  0  0  0  0  0  0  0  0  0
  -21.6569   -5.3996   23.3813 F   0  0  0  0  0  0  0  0  0  0  0  0
  -25.2155  -18.4940   14.8486 Cl  0  0  0  0  0  0  0  0  0  0  0  0
  1  2  1  0  0  0  0
  1  5  2  0  0  0  0
  2  6  2  0  0  0  0
  3  8  2  0  0  0  0
  3 17  1  0  0  0  0
  4  9  1  0  0  0  0
  4 17  2  0  0  0  0
  5 19  1  0  0  0  0
  6 21  1  0  0  0  0
  7 10  2  0  0  0  0
  7 20  1  0  0  0  0
  8 26  1  0  0  0  0
  9 26  2  0  0  0  0
 10 27  1  0  0  0  0
 11 12  2  0  0  0  0
 11 28  1  0  0  0  0
 12 29  1  0  0  0  0
 13 22  1  0  0  0  0
 13 27  2  0  0  0  0
 14 23  2  0  0  0  0
 14 24  1  0  0  0  0
 15 23  1  0  0  0  0
 15 31  2  0  0  0  0
 16 29  2  0  0  0  0
 16 30  1  0  0  0  0
 17 32  1  0  0  0  0
 18 32  1  0  0  0  0
 18 33  2  0  0  0  0
 18 38  1  0  0  0  0
 19 21  2  0  0  0  0
 19 43  1  0  0  0  0
 20 22  2  0  0  0  0
 20 44  1  0  0  0  0
 21 55  1  0  0  0  0
 22 45  1  0  0  0  0
 23 65  1  0  0  0  0
 24 25  2  0  0  0  0
 24 66  1  0  0  0  0
 25 31  1  0  0  0  0
 25 59  1  0  0  0  0
 26 86  1  0  0  0  0
 27 87  1  0  0  0  0
 28 30  2  0  0  0  0
 28 86  1  0  0  0  0
 29 88  1  0  0  0  0
 30 89  1  0  0  0  0
 31 90  1  0  0  0  0
 32 70  2  0  0  0  0
 33 71  1  0  0  0  0
 33 74  1  0  0  0  0
 34 36  2  0  0  0  0
 34 56  1  0  0  0  0
 34 79  1  0  0  0  0
 35 37  2  0  0  0  0
 36 37  1  0  0  0  0
 38 75  1  0  0  0  0
 38 81  2  0  0  0  0
 39 57  1  0  0  0  0
 39 76  1  0  0  0  0
 39 82  2  0  0  0  0
 40 67  1  0  0  0  0
 40 72  1  0  0  0  0
 40 83  2  0  0  0  0
 41 68  1  0  0  0  0
 41 77  1  0  0  0  0
 41 84  2  0  0  0  0
 42 73  1  0  0  0  0
 42 78  1  0  0  0  0
 42 85  2  0  0  0  0
 43 46  1  0  0  0  0
 44 57  1  0  0  0  0
 45 72  1  0  0  0  0
 46 49  1  0  0  0  0
 47 51  1  0  0  0  0
 47 52  1  0  0  0  0
 48 50  1  0  0  0  0
 48 54  1  0  0  0  0
 49 55  1  0  0  0  0
 50 56  1  0  0  0  0
 51 58  1  0  0  0  0
 52 73  1  0  0  0  0
 53 58  1  0  0  0  0
 53 73  1  0  0  0  0
 54 79  1  0  0  0  0
 55 76  1  0  0  0  0
 56 87  1  0  0  0  0
 57 72  1  0  0  0  0
 58 71  1  0  0  0  0
 60 68  1  0  0  0  0
 61 69  1  0  0  0  0
 62 69  1  0  0  0  0
 63 69  1  0  0  0  0
 64 80  1  0  0  0  0
 65 78  1  0  0  0  0
 66 79  1  0  0  0  0
 67 69  1  0  0  0  0
 67 77  1  0  0  0  0
 68 80  1  0  0  0  0
 70 71  1  0  0  0  0
M  CHG  2  79   1  80   1
M  ISO  4  42 100  56 101  78 100  87 101
M  END
> <Batch ID>
0038

> <Smiles>
C=CC=C1N(Cc2cc(C[100NH:0][100C:0](=O)N3CCCC(n4nc(-c5ccc(Oc6ccc(F)cc6F)cc5)c(C(N)=O)c4N)C3)cc(Cl)c2C)CCC[101CH:1]1[101O:1]c1ccc2c(c1)CN(C(=O)C(NC(=O)C(C)NC)C(C)(C)C)C(C(=O)NC1CCCc3ccccc31)C2

> <Shape>
0.258

> <Color>
0.095

> <Negative vol penalty>
0.000

$$$$

  -OEChem-04042322003D

 86 94  0     1  0  0  0  0  0999 V2000
  -16.5828  -30.2288   22.9716 C   0  0  0  0  0  0  0  0  0  0  0  0
  -17.6679  -31.0579   23.2376 C   0  0  0  0  0  0  0  0  0  0  0  0
  -25.4360  -15.4250   20.0280 C   0  0  0  0  0  0  0  0  0  0  0  0
  -27.1146  -15.1184   21.7384 C   0  0  0  0  0  0  0  0  0  0  0  0
  -16.7728  -28.8535   22.8439 C   0  0  0  0  0  0  0  0  0  0  0  0
  -18.9434  -30.5120   23.3770 C   0  0  0  0  0  0  0  0  0  0  0  0
  -25.8342  -32.0387   22.1512 C   0  0  0  0  0  0  0  0  0  0  0  0
  -31.9164  -25.3479   23.2663 C   0  0  0  0  0  0  0  0  0  0  0  0
  -31.6770  -24.3469   22.3248 C   0  0  0  0  0  0  0  0  0  0  0  0
  -25.3132  -14.0415   19.9005 C   0  0  0  0  0  0  0  0  0  0  0  0
  -26.9918  -13.7348   21.6109 C   0  0  0  0  0  0  0  0  0  0  0  0
  -27.0640  -32.0682   22.8072 C   0  0  0  0  0  0  0  0  0  0  0  0
  -23.8047  -11.5111   21.5602 C   0  0  0  0  0  0  0  0  0  0  0  0
  -22.5175  -10.9777   21.4964 C   0  0  0  0  0  0  0  0  0  0  0  0
  -27.2849  -29.6874   22.4874 C   0  0  0  0  0  0  0  0  0  0  0  0
  -31.7312  -23.7211   25.0429 C   0  0  0  0  0  0  0  0  0  0  0  0
  -23.0076  -10.0554   19.3179 C   0  0  0  0  0  0  0  0  0  0  0  0
  -26.3368  -15.9635   20.9470 C   0  0  0  0  0  0  0  0  0  0  0  0
  -25.7387  -18.2349   21.9423 C   0  0  0  0  0  0  0  0  0  0  0  0
  -18.0527  -28.2915   22.9722 C   0  0  0  0  0  0  0  0  0  0  0  0
  -25.3145  -30.8295   21.6672 C   0  0  0  0  0  0  0  0  0  0  0  0
  -19.1504  -29.1277   23.2522 C   0  0  0  0  0  0  0  0  0  0  0  0
  -26.0494  -29.6456   21.8234 C   0  0  0  0  0  0  0  0  0  0  0  0
  -31.9436  -25.0349   24.6254 C   0  0  0  0  0  0  0  0  0  0  0  0
  -31.4917  -22.7202   24.1015 C   0  0  0  0  0  0  0  0  0  0  0  0
  -31.4646  -23.0331   22.7424 C   0  0  0  0  0  0  0  0  0  0  0  0
  -26.0911  -13.1964   20.6920 C   0  0  0  0  0  0  0  0  0  0  0  0
  -27.7882  -30.8920   22.9780 C   0  0  0  0  0  0  0  0  0  0  0  0
  -24.6934  -11.3167   20.5028 C   0  0  0  0  0  0  0  0  0  0  0  0
  -22.1189  -10.2498   20.3753 C   0  0  0  0  0  0  0  0  0  0  0  0
  -24.2949  -10.5888   19.3816 C   0  0  0  0  0  0  0  0  0  0  0  0
  -26.4645  -17.3926   21.0788 C   0  0  0  0  0  0  0  0  0  0  0  0
  -26.2291  -19.4924   21.6876 C   0  0  0  0  0  0  0  0  0  0  0  0
  -29.5153  -29.5808   27.6475 C   0  0  0  0  0  0  0  0  0  0  0  0
  -24.7131  -17.9098   22.8899 C   0  0  0  0  0  0  0  0  0  0  0  0
  -30.3200  -29.3064   26.6122 C   0  0  0  0  0  0  0  0  0  0  0  0
  -30.1298  -30.1267   25.3798 C   0  0  0  0  0  0  0  0  0  0  0  0
  -22.7117  -29.1065   22.2675 C   0  0  0  0  0  0  0  0  0  0  0  0
  -23.7974  -27.3189   19.7880 C   0  0  0  0  0  0  0  0  0  0  0  0
  -26.4415  -26.3204   17.8753 C   0  0  0  0  0  0  0  0  0  0  0  0
  -31.1668  -22.1918   20.3866 C   0  0  0  0  0  0  0  0  0  0  0  0
  -18.2013  -26.7939   22.8728 C   0  0  0  0  0  0  0  0  0  0  0  0
  -23.9988  -30.8188   20.9382 C   0  0  0  0  0  0  0  0  0  0  0  0
  -25.5450  -28.3248   21.3043 C   0  0  0  0  0  0  0  0  0  0  0  0
  -19.6428  -26.3375   22.6630 C   0  0  0  0  0  0  0  0  0  0  0  0
  -28.6666  -21.5863   17.9250 C   0  0  0  0  0  0  0  0  0  0  0  0
  -20.5777  -27.0617   23.6265 C   0  0  0  0  0  0  0  0  0  0  0  0
  -27.7718  -20.5256   18.5703 C   0  0  0  0  0  0  0  0  0  0  0  0
  -30.1384  -21.3768   18.2763 C   0  0  0  0  0  0  0  0  0  0  0  0
  -29.5299  -20.2081   20.3579 C   0  0  0  0  0  0  0  0  0  0  0  0
  -20.5532  -28.5759   23.3856 C   0  0  1  0  0  0  0  0  0  0  0  0
  -23.3259  -29.4497   20.9399 C   0  0  1  0  0  0  0  0  0  0  0  0
  -28.0311  -20.4158   20.0856 C   0  0  2  0  0  0  0  0  0  0  0  0
  -31.2645  -21.3219   24.5775 C   0  0  0  0  0  0  0  0  0  0  0  0
  -31.3130  -30.9416   24.9038 C   0  0  0  0  0  0  0  0  0  0  0  0
  -27.0241  -24.8238   15.9471 C   0  0  0  0  0  0  0  0  0  0  0  0
  -23.6078  -24.8871   21.6212 C   0  0  0  0  0  0  0  0  0  0  0  0
  -25.0605  -23.6430   20.0056 C   0  0  0  0  0  0  0  0  0  0  0  0
  -22.8299  -24.4901   19.2778 C   0  0  0  0  0  0  0  0  0  0  0  0
  -27.3862  -28.5998   16.2411 C   0  0  0  0  0  0  0  0  0  0  0  0
  -32.1987  -26.1121   25.6381 C   0  0  0  0  0  0  0  0  0  0  0  0
  -31.3821  -28.2536   26.6311 C   0  0  0  0  0  0  0  0  0  0  0  0
  -24.7177  -26.1303   19.6492 C   0  0  1  0  0  0  0  0  0  0  0  0
  -26.6177  -26.2268   16.3705 C   0  0  2  0  0  0  0  0  0  0  0  0
  -24.0629  -24.8120   20.1501 C   0  0  0  0  0  0  0  0  0  0  0  0
  -27.3485  -18.0588   20.3313 N   0  0  0  0  0  0  0  0  0  0  0  0
  -28.9830  -30.1048   24.7638 N   0  0  0  0  0  0  0  0  0  1  0  0
  -27.1814  -19.3331   20.7243 N   0  0  0  0  0  0  0  0  0  0  0  0
  -24.2506  -28.3650   20.6040 N   0  0  0  0  0  0  0  0  0  0  0  0
  -30.3080  -21.2864   19.7282 N   0  0  0  0  0  0  0  0  0  0  0  0
  -25.9342  -20.7077   22.1959 N   0  0  0  0  0  0  0  0  0  0  0  0
  -24.3293  -16.5686   23.0252 N   0  0  0  0  0  0  0  0  0  0  0  0
  -31.2229  -22.0306   21.7706 N   0  0  0  0  0  0  0  0  0  0  0  0
  -21.3439  -28.9154   22.2220 N   0  0  0  0  0  0  0  0  0  0  0  0
  -25.1338  -26.0972   18.2513 N   0  0  0  0  0  0  0  0  0  0  0  0
  -27.6684  -27.1790   15.9117 N   0  3  0  0  0  0  0  0  0  0  0  0
  -31.1856  -27.1994   25.5998 N   0  3  0  0  0  0  0  0  0  0  0  0
  -24.1421  -18.7848   23.5841 O   0  0  0  0  0  0  0  0  0  0  0  0
  -23.4260  -29.0199   23.2594 O   0  0  0  0  0  0  0  0  0  0  0  0
  -22.7193  -27.3221   19.1885 O   0  0  0  0  0  0  0  0  0  0  0  0
  -27.3717  -26.5633   18.6411 O   0  0  0  0  0  0  0  0  0  0  0  0
  -31.7844  -23.0647   19.7713 O   0  0  0  0  0  0  0  0  0  0  0  0
  -25.9713  -11.8462   20.5680 O   0  0  0  0  0  0  0  0  0  0  0  0
  -28.9886  -30.9178   23.6185 O   0  0  0  0  0  0  0  0  0  1  0  0
  -20.8833   -9.7364   20.3149 F   0  0  0  0  0  0  0  0  0  0  0  0
  -25.1446  -10.3977   18.3632 F   0  0  0  0  0  0  0  0  0  0  0  0
  1  2  1  0  0  0  0
  1  5  2  0  0  0  0
  2  6  2  0  0  0  0
  3 10  2  0  0  0  0
  3 18  1  0  0  0  0
  4 11  1  0  0  0  0
  4 18  2  0  0  0  0
  5 20  1  0  0  0  0
  6 22  1  0  0  0  0
  7 12  2  0  0  0  0
  7 21  1  0  0  0  0
  8  9  2  0  0  0  0
  8 24  1  0  0  0  0
  9 26  1  0  0  0  0
 10 27  1  0  0  0  0
 11 27  2  0  0  0  0
 12 28  1  0  0  0  0
 13 14  2  0  0  0  0
 13 29  1  0  0  0  0
 14 30  1  0  0  0  0
 15 23  1  0  0  0  0
 15 28  2  0  0  0  0
 16 24  2  0  0  0  0
 16 25  1  0  0  0  0
 17 30  2  0  0  0  0
 17 31  1  0  0  0  0
 18 32  1  0  0  0  0
 19 32  1  0  0  0  0
 19 33  2  0  0  0  0
 19 35  1  0  0  0  0
 20 22  2  0  0  0  0
 20 42  1  0  0  0  0
 21 23  2  0  0  0  0
 21 43  1  0  0  0  0
 22 51  1  0  0  0  0
 23 44  1  0  0  0  0
 24 61  1  0  0  0  0
 25 26  2  0  0  0  0
 25 54  1  0  0  0  0
 26 73  1  0  0  0  0
 27 83  1  0  0  0  0
 28 84  1  0  0  0  0
 29 31  2  0  0  0  0
 29 83  1  0  0  0  0
 30 85  1  0  0  0  0
 31 86  1  0  0  0  0
 32 66  2  0  0  0  0
 33 68  1  0  0  0  0
 33 71  1  0  0  0  0
 34 36  2  0  0  0  0
 35 72  1  0  0  0  0
 35 78  2  0  0  0  0
 36 37  1  0  0  0  0
 36 62  1  0  0  0  0
 37 55  1  0  0  0  0
 37 67  2  0  0  0  0
 38 52  1  0  0  0  0
 38 74  1  0  0  0  0
 38 79  2  0  0  0  0
 39 63  1  0  0  0  0
 39 69  1  0  0  0  0
 39 80  2  0  0  0  0
 40 64  1  0  0  0  0
 40 75  1  0  0  0  0
 40 81  2  0  0  0  0
 41 70  1  0  0  0  0
 41 73  1  0  0  0  0
 41 82  2  0  0  0  0
 42 45  1  0  0  0  0
 43 52  1  0  0  0  0
 44 69  1  0  0  0  0
 45 47  1  0  0  0  0
 46 48  1  0  0  0  0
 46 49  1  0  0  0  0
 47 51  1  0  0  0  0
 48 53  1  0  0  0  0
 49 70  1  0  0  0  0
 50 53  1  0  0  0  0
 50 70  1  0  0  0  0
 51 74  1  0  0  0  0
 52 69  1  0  0  0  0
 53 68  1  0  0  0  0
 56 64  1  0  0  0  0
 57 65  1  0  0  0  0
 58 65  1  0  0  0  0
 59 65  1  0  0  0  0
 60 76  1  0  0  0  0
 61 77  1  0  0  0  0
 62 77  1  0  0  0  0
 63 65  1  0  0  0  0
 63 75  1  0  0  0  0
 64 76  1  0  0  0  0
 66 68  1  0  0  0  0
 67 84  1  0  0  0  0
M  CHG  2  76   1  77   1
M  ISO  4  41 100  67 101  73 100  84 101
M  END
> <Batch ID>
0038

> <Smiles>
C=C(CNCc1ccc([100NH:0][100C:0](=O)N2CCCC(n3nc(-c4ccc(Oc5ccc(F)cc5F)cc4)c(C(N)=O)c3N)C2)c(C)c1)C(C)=[101N:1][101O:1]c1ccc2c(c1)CN(C(=O)C(NC(=O)C(C)NC)C(C)(C)C)C(C(=O)NC1CCCc3ccccc31)C2

> <Shape>
0.238

> <Color>
0.099

> <Negative vol penalty>
0.000

$$$$

  -OEChem-04042322003D

 84 92  0     1  0  0  0  0  0999 V2000
  -30.1736  -24.9583   17.2070 C   0  0  0  0  0  0  0  0  0  0  0  0
  -28.9863  -24.8764   17.9274 C   0  0  0  0  0  0  0  0  0  0  0  0
  -24.2434   -9.3426   21.4482 C   0  0  0  0  0  0  0  0  0  0  0  0
  -22.1820  -10.5232   21.0081 C   0  0  0  0  0  0  0  0  0  0  0  0
  -31.1873  -25.8163   17.6313 C   0  0  0  0  0  0  0  0  0  0  0  0
  -28.8125  -25.6518   19.0732 C   0  0  0  0  0  0  0  0  0  0  0  0
  -24.2584  -27.8594   19.2526 C   0  0  0  0  0  0  0  0  0  0  0  0
  -23.5401   -8.1400   21.5169 C   0  0  0  0  0  0  0  0  0  0  0  0
  -21.4786   -9.3206   21.0767 C   0  0  0  0  0  0  0  0  0  0  0  0
  -23.1798  -27.0637   19.6362 C   0  0  0  0  0  0  0  0  0  0  0  0
  -21.6052   -6.5111   23.7590 C   0  0  0  0  0  0  0  0  0  0  0  0
  -21.9073   -5.6435   24.8085 C   0  0  0  0  0  0  0  0  0  0  0  0
  -23.3027  -27.9815   21.8637 C   0  0  0  0  0  0  0  0  0  0  0  0
  -21.2336  -18.3880   23.3493 C   0  0  0  0  0  0  0  0  0  0  0  0
  -23.0453  -19.6441   24.3378 C   0  0  0  0  0  0  0  0  0  0  0  0
  -22.5407   -3.9393   23.2174 C   0  0  0  0  0  0  0  0  0  0  0  0
  -23.5644  -10.5342   21.1939 C   0  0  0  0  0  0  0  0  0  0  0  0
  -21.2135  -20.8026   23.2703 C   0  0  0  0  0  0  0  0  0  0  0  0
  -24.8682  -12.3601   19.9800 C   0  0  0  0  0  0  0  0  0  0  0  0
  -31.0220  -26.6098   18.7774 C   0  0  0  0  0  0  0  0  0  0  0  0
  -24.8753  -28.7155   20.1761 C   0  0  0  0  0  0  0  0  0  0  0  0
  -29.8254  -26.5204   19.5140 C   0  0  0  0  0  0  0  0  0  0  0  0
  -24.3873  -28.7889   21.4886 C   0  0  0  0  0  0  0  0  0  0  0  0
  -20.6163  -19.5790   22.9672 C   0  0  0  0  0  0  0  0  0  0  0  0
  -22.4481  -18.4205   24.0347 C   0  0  0  0  0  0  0  0  0  0  0  0
  -22.1577   -8.1290   21.3311 C   0  0  0  0  0  0  0  0  0  0  0  0
  -22.7036  -27.1225   20.9427 C   0  0  0  0  0  0  0  0  0  0  0  0
  -21.7708   -6.0928   22.4386 C   0  0  0  0  0  0  0  0  0  0  0  0
  -22.3751   -4.3576   24.5377 C   0  0  0  0  0  0  0  0  0  0  0  0
  -22.4280  -20.8351   23.9556 C   0  0  0  0  0  0  0  0  0  0  0  0
  -22.2385   -4.8070   22.1678 C   0  0  0  0  0  0  0  0  0  0  0  0
  -24.2903  -11.7769   21.1235 C   0  0  0  0  0  0  0  0  0  0  0  0
  -25.4360  -13.5239   20.4378 C   0  0  0  0  0  0  0  0  0  0  0  0
  -21.3369  -22.9837   21.9693 C   0  0  0  0  0  0  0  0  0  0  0  0
  -20.7982  -24.1437   21.5688 C   0  0  0  0  0  0  0  0  0  0  0  0
  -20.5754  -22.0814   22.8748 C   0  0  0  0  0  0  0  0  0  0  0  0
  -24.8898  -11.8918   18.6250 C   0  0  0  0  0  0  0  0  0  0  0  0
  -27.7928  -28.9502   21.4158 C   0  0  0  0  0  0  0  0  0  0  0  0
  -26.5886  -31.6544   22.7423 C   0  0  0  0  0  0  0  0  0  0  0  0
  -23.8451  -33.3999   23.7784 C   0  0  0  0  0  0  0  0  0  0  0  0
  -24.2814  -17.0671   25.1088 C   0  0  0  0  0  0  0  0  0  0  0  0
  -32.1645  -27.4874   19.2237 C   0  0  0  0  0  0  0  0  0  0  0  0
  -26.0207  -29.5871   19.7394 C   0  0  0  0  0  0  0  0  0  0  0  0
  -25.0016  -29.7066   22.5129 C   0  0  0  0  0  0  0  0  0  0  0  0
  -31.7544  -28.5529   20.2370 C   0  0  0  0  0  0  0  0  0  0  0  0
  -27.3682  -15.4528   24.3724 C   0  0  0  0  0  0  0  0  0  0  0  0
  -30.8845  -27.9423   21.3312 C   0  0  0  0  0  0  0  0  0  0  0  0
  -26.9828  -14.3840   23.3470 C   0  0  0  0  0  0  0  0  0  0  0  0
  -26.2861  -15.6355   25.4351 C   0  0  0  0  0  0  0  0  0  0  0  0
  -24.5526  -14.8207   23.8858 C   0  0  0  0  0  0  0  0  0  0  0  0
  -29.5896  -27.3639   20.7481 C   0  0  1  0  0  0  0  0  0  0  0  0
  -26.9004  -30.0432   20.8994 C   0  0  1  0  0  0  0  0  0  0  0  0
  -25.5830  -14.6468   22.7581 C   0  0  2  0  0  0  0  0  0  0  0  0
  -19.3161  -19.5150   22.2339 C   0  0  0  0  0  0  0  0  0  0  0  0
  -23.1801  -35.5660   24.8568 C   0  0  0  0  0  0  0  0  0  0  0  0
  -27.5069  -30.5862   25.4489 C   0  0  0  0  0  0  0  0  0  0  0  0
  -26.0129  -32.2714   26.5426 C   0  0  0  0  0  0  0  0  0  0  0  0
  -27.9034  -33.0311   25.1033 C   0  0  0  0  0  0  0  0  0  0  0  0
  -22.2560  -34.2198   21.4202 C   0  0  0  0  0  0  0  0  0  0  0  0
  -21.4934  -25.0962   20.6503 C   0  0  0  0  0  0  0  0  0  1  0  0
  -25.8684  -31.9860   24.0269 C   0  0  1  0  0  0  0  0  0  0  0  0
  -23.4179  -34.8374   23.5432 C   0  0  2  0  0  0  0  0  0  0  0  0
  -26.8123  -31.9498   25.2619 C   0  0  0  0  0  0  0  0  0  0  0  0
  -24.4742  -12.5096   22.2250 N   0  0  0  0  0  0  0  0  0  0  0  0
  -25.1741  -13.5652   21.7757 N   0  0  0  0  0  0  0  0  0  0  0  0
  -26.1232  -30.5342   22.0391 N   0  0  0  0  0  0  0  0  0  0  0  0
  -24.9885  -15.8849   24.8036 N   0  0  0  0  0  0  0  0  0  0  0  0
  -26.1288  -14.5057   19.8226 N   0  0  0  0  0  0  0  0  0  0  0  0
  -24.2581  -10.6765   18.3280 N   0  0  0  0  0  0  0  0  0  0  0  0
  -23.0755  -17.2110   24.4233 N   0  0  0  0  0  0  0  0  0  0  0  0
  -28.6455  -28.4235   20.4646 N   0  0  0  0  0  0  0  0  0  0  0  0
  -25.2178  -33.2736   23.8096 N   0  0  0  0  0  0  0  0  0  0  0  0
  -22.1585  -34.8800   22.7475 N   0  3  0  0  0  0  0  0  0  0  0  0
  -19.4477  -22.3480   23.2753 O   0  0  0  0  0  0  0  0  0  0  0  0
  -25.4668  -12.5240   17.7080 O   0  0  0  0  0  0  0  0  0  0  0  0
  -27.7145  -28.6109   22.5907 O   0  0  0  0  0  0  0  0  0  0  0  0
  -27.5249  -32.3674   22.3725 O   0  0  0  0  0  0  0  0  0  0  0  0
  -23.0415  -32.4814   23.9239 O   0  0  0  0  0  0  0  0  0  0  0  0
  -24.7267  -17.9042   25.8980 O   0  0  0  0  0  0  0  0  0  0  0  0
  -21.4711   -6.9557   21.3977 O   0  0  0  0  0  0  0  0  0  0  0  0
  -21.6513  -26.3464   21.3199 O   0  0  0  0  0  0  0  0  0  1  0  0
  -22.6666   -3.5251   25.5457 F   0  0  0  0  0  0  0  0  0  0  0  0
  -23.0119  -22.0048   24.2531 F   0  0  0  0  0  0  0  0  0  0  0  0
  -22.4008   -4.3999   20.9014 F   0  0  0  0  0  0  0  0  0  0  0  0
  1  2  1  0  0  0  0
  1  5  2  0  0  0  0
  2  6  2  0  0  0  0
  3  8  2  0  0  0  0
  3 17  1  0  0  0  0
  4  9  1  0  0  0  0
  4 17  2  0  0  0  0
  5 20  1  0  0  0  0
  6 22  1  0  0  0  0
  7 10  2  0  0  0  0
  7 21  1  0  0  0  0
  8 26  1  0  0  0  0
  9 26  2  0  0  0  0
 10 27  1  0  0  0  0
 11 12  2  0  0  0  0
 11 28  1  0  0  0  0
 12 29  1  0  0  0  0
 13 23  1  0  0  0  0
 13 27  2  0  0  0  0
 14 24  2  0  0  0  0
 14 25  1  0  0  0  0
 15 25  2  0  0  0  0
 15 30  1  0  0  0  0
 16 29  2  0  0  0  0
 16 31  1  0  0  0  0
 17 32  1  0  0  0  0
 18 24  1  0  0  0  0
 18 30  2  0  0  0  0
 18 36  1  0  0  0  0
 19 32  1  0  0  0  0
 19 33  2  0  0  0  0
 19 37  1  0  0  0  0
 20 22  2  0  0  0  0
 20 42  1  0  0  0  0
 21 23  2  0  0  0  0
 21 43  1  0  0  0  0
 22 51  1  0  0  0  0
 23 44  1  0  0  0  0
 24 54  1  0  0  0  0
 25 70  1  0  0  0  0
 26 80  1  0  0  0  0
 27 81  1  0  0  0  0
 28 31  2  0  0  0  0
 28 80  1  0  0  0  0
 29 82  1  0  0  0  0
 30 83  1  0  0  0  0
 31 84  1  0  0  0  0
 32 64  2  0  0  0  0
 33 65  1  0  0  0  0
 33 68  1  0  0  0  0
 34 35  2  0  0  0  0
 34 36  1  0  0  0  0
 35 60  1  0  0  0  0
 36 74  2  0  0  0  0
 37 69  1  0  0  0  0
 37 75  2  0  0  0  0
 38 52  1  0  0  0  0
 38 71  1  0  0  0  0
 38 76  2  0  0  0  0
 39 61  1  0  0  0  0
 39 66  1  0  0  0  0
 39 77  2  0  0  0  0
 40 62  1  0  0  0  0
 40 72  1  0  0  0  0
 40 78  2  0  0  0  0
 41 67  1  0  0  0  0
 41 70  1  0  0  0  0
 41 79  2  0  0  0  0
 42 45  1  0  0  0  0
 43 52  1  0  0  0  0
 44 66  1  0  0  0  0
 45 47  1  0  0  0  0
 46 48  1  0  0  0  0
 46 49  1  0  0  0  0
 47 51  1  0  0  0  0
 48 53  1  0  0  0  0
 49 67  1  0  0  0  0
 50 53  1  0  0  0  0
 50 67  1  0  0  0  0
 51 71  1  0  0  0  0
 52 66  1  0  0  0  0
 53 65  1  0  0  0  0
 55 62  1  0  0  0  0
 56 63  1  0  0  0  0
 57 63  1  0  0  0  0
 58 63  1  0  0  0  0
 59 73  1  0  0  0  0
 60 81  1  0  0  0  0
 61 63  1  0  0  0  0
 61 72  1  0  0  0  0
 62 73  1  0  0  0  0
 64 65  1  0  0  0  0
M  CHG  1  73   1
M  ISO  4  41 100  60 101  70 100  81 101
M  END
> <Batch ID>
0038

> <Smiles>
CNC(C)C(=O)NC(C(=O)N1Cc2cc([101O:1][101CH2:1]C=CC(=O)c3c(C)cc([100NH:0][100C:0](=O)N4CCCC(n5nc(-c6ccc(Oc7ccc(F)cc7F)cc6)c(C(N)=O)c5N)C4)cc3F)ccc2CC1C(=O)NC1CCCc2ccccc21)C(C)(C)C

> <Shape>
0.269

> <Color>
0.125

> <Negative vol penalty>
0.000

$$$$

  -OEChem-04042322003D

 87 96  0     1  0  0  0  0  0999 V2000
  -32.3208  -31.0030   23.9381 C   0  0  0  0  0  0  0  0  0  0  0  0
  -31.4545  -29.9492   24.2107 C   0  0  0  0  0  0  0  0  0  0  0  0
  -23.6675   -9.5188   22.3421 C   0  0  0  0  0  0  0  0  0  0  0  0
  -23.4118   -9.6468   19.9431 C   0  0  0  0  0  0  0  0  0  0  0  0
  -32.4432  -31.4841   22.6353 C   0  0  0  0  0  0  0  0  0  0  0  0
  -30.7091  -29.3766   23.1807 C   0  0  0  0  0  0  0  0  0  0  0  0
  -30.7356  -24.3152   23.3452 C   0  0  0  0  0  0  0  0  0  0  0  0
  -31.6035  -18.5928   21.9407 C   0  0  0  0  0  0  0  0  0  0  0  0
  -31.3524  -17.2823   21.5347 C   0  0  0  0  0  0  0  0  0  0  0  0
  -22.9343   -8.3324   22.3570 C   0  0  0  0  0  0  0  0  0  0  0  0
  -22.6786   -8.4603   19.9580 C   0  0  0  0  0  0  0  0  0  0  0  0
  -29.9004  -23.7042   24.2795 C   0  0  0  0  0  0  0  0  0  0  0  0
  -19.5244   -7.4899   20.6927 C   0  0  0  0  0  0  0  0  0  0  0  0
  -18.3532   -7.4423   19.9367 C   0  0  0  0  0  0  0  0  0  0  0  0
  -28.2841  -23.2706   22.5420 C   0  0  0  0  0  0  0  0  0  0  0  0
  -19.2586   -5.6092   18.6494 C   0  0  0  0  0  0  0  0  0  0  0  0
  -23.9062  -10.1761   21.1352 C   0  0  0  0  0  0  0  0  0  0  0  0
  -24.3485  -12.6040   21.7813 C   0  0  0  0  0  0  0  0  0  0  0  0
  -31.7062  -30.9107   21.5871 C   0  0  0  0  0  0  0  0  0  0  0  0
  -30.3458  -24.4184   22.0021 C   0  0  0  0  0  0  0  0  0  0  0  0
  -30.8208  -29.8513   21.8628 C   0  0  0  0  0  0  0  0  0  0  0  0
  -29.1172  -23.8811   21.5922 C   0  0  0  0  0  0  0  0  0  0  0  0
  -31.1370  -19.0417   23.1764 C   0  0  0  0  0  0  0  0  0  0  0  0
  -30.4194  -18.1799   24.0058 C   0  0  0  0  0  0  0  0  0  0  0  0
  -30.1682  -16.8693   23.5997 C   0  0  0  0  0  0  0  0  0  0  0  0
  -30.6347  -16.4205   22.3641 C   0  0  0  0  0  0  0  0  0  0  0  0
  -22.4399   -7.8030   21.1650 C   0  0  0  0  0  0  0  0  0  0  0  0
  -28.6732  -23.1843   23.8785 C   0  0  0  0  0  0  0  0  0  0  0  0
  -20.5627   -6.5972   20.4271 C   0  0  0  0  0  0  0  0  0  0  0  0
  -18.2202   -6.5019   18.9151 C   0  0  0  0  0  0  0  0  0  0  0  0
  -20.4298   -5.6568   19.4055 C   0  0  0  0  0  0  0  0  0  0  0  0
  -24.6631  -11.4021   21.1192 C   0  0  0  0  0  0  0  0  0  0  0  0
  -25.3734  -13.4565   21.4506 C   0  0  0  0  0  0  0  0  0  0  0  0
  -27.9261  -18.9033   26.6936 C   0  0  0  0  0  0  0  0  0  0  0  0
  -27.2394  -17.8172   27.0792 C   0  0  0  0  0  0  0  0  0  0  0  0
  -23.2300  -12.9214   22.6203 C   0  0  0  0  0  0  0  0  0  0  0  0
  -29.7761  -26.8295   20.0107 C   0  0  0  0  0  0  0  0  0  0  0  0
  -29.4894  -24.4471   17.8280 C   0  0  0  0  0  0  0  0  0  0  0  0
  -28.0125  -21.1579   17.6987 C   0  0  0  0  0  0  0  0  0  0  0  0
  -30.7934  -14.5091   20.7308 C   0  0  0  0  0  0  0  0  0  0  0  0
  -31.8367  -31.4959   20.2031 C   0  0  0  0  0  0  0  0  0  0  0  0
  -31.2699  -25.0567   21.0016 C   0  0  0  0  0  0  0  0  0  0  0  0
  -28.6612  -23.9483   20.1583 C   0  0  0  0  0  0  0  0  0  0  0  0
  -28.1483  -20.0932   27.5871 C   0  0  0  0  0  0  0  0  0  0  0  0
  -31.2916  -30.5876   19.1040 C   0  0  0  0  0  0  0  0  0  0  0  0
  -27.7506  -21.3771   26.8690 C   0  0  0  0  0  0  0  0  0  0  0  0
  -29.0600  -12.9980   18.0126 C   0  0  0  0  0  0  0  0  0  0  0  0
  -29.9234  -30.0381   19.4951 C   0  0  0  0  0  0  0  0  0  0  0  0
  -27.7357  -12.5469   18.6329 C   0  0  0  0  0  0  0  0  0  0  0  0
  -30.2268  -12.8340   18.9849 C   0  0  0  0  0  0  0  0  0  0  0  0
  -28.7099  -13.0127   20.9179 C   0  0  0  0  0  0  0  0  0  0  0  0
  -28.0307  -20.2073   24.6514 C   0  0  0  0  0  0  0  0  0  0  0  0
  -30.0139  -29.1877   20.7680 C   0  0  1  0  0  0  0  0  0  0  0  0
  -30.5458  -25.5640   19.7583 C   0  0  1  0  0  0  0  0  0  0  0  0
  -27.4951  -13.2197   19.9986 C   0  0  2  0  0  0  0  0  0  0  0  0
  -28.3694  -21.4485   25.4730 C   0  0  1  0  0  0  0  0  0  1  0  0
  -31.4199  -20.4497   23.5870 C   0  0  0  0  0  0  0  0  0  0  0  0
  -29.3979  -15.9462   24.4915 C   0  0  0  0  0  0  0  0  0  0  0  0
  -28.6056  -19.1568   16.3054 C   0  0  0  0  0  0  0  0  0  0  0  0
  -27.3593  -25.5076   15.9180 C   0  0  0  0  0  0  0  0  0  0  0  0
  -26.6635  -23.1408   15.4908 C   0  0  0  0  0  0  0  0  0  0  0  0
  -28.9669  -23.8891   14.8930 C   0  0  0  0  0  0  0  0  0  0  0  0
  -28.3142  -19.4384   20.0885 C   0  0  0  0  0  0  0  0  0  0  0  0
  -29.9191  -18.6656   25.3343 C   0  0  0  0  0  0  0  0  0  0  0  0
  -28.3545  -23.5868   17.3273 C   0  0  1  0  0  0  0  0  0  0  0  0
  -28.7498  -19.8315   17.6606 C   0  0  2  0  0  0  0  0  0  0  0  0
  -27.8362  -24.0415   15.9337 C   0  0  0  0  0  0  0  0  0  0  0  0
  -25.7988  -11.4802   20.4206 N   0  0  0  0  0  0  0  0  0  0  0  0
  -26.2068  -12.7414   20.6418 N   0  0  0  0  0  0  0  0  0  0  0  0
  -29.5972  -24.5877   19.2188 N   0  0  0  0  0  0  0  0  0  0  0  0
  -29.9294  -13.5003   20.2548 N   0  0  0  0  0  0  0  0  0  0  0  0
  -25.6339  -14.7406   21.7756 N   0  0  0  0  0  0  0  0  0  0  0  0
  -22.0757  -13.4473   22.0243 N   0  0  0  0  0  0  0  0  0  0  0  0
  -30.3914  -15.0933   21.9315 N   0  0  0  0  0  0  0  0  0  0  0  0
  -30.5521  -27.8790   20.4644 N   0  0  0  0  0  0  0  0  0  0  0  0
  -28.8379  -22.2108   17.3651 N   0  0  0  0  0  0  0  0  0  0  0  0
  -28.4390  -18.9308   25.3453 N   0  3  1  0  0  0  0  0  0  0  0  0
  -28.2143  -18.9111   18.7032 N   0  3  0  0  0  0  0  0  0  0  0  0
  -23.2594  -12.7592   23.8638 O   0  0  0  0  0  0  0  0  0  0  0  0
  -28.5679  -26.8526   19.8074 O   0  0  0  0  0  0  0  0  0  0  0  0
  -30.2565  -24.9693   17.0152 O   0  0  0  0  0  0  0  0  0  0  0  0
  -26.8223  -21.2502   17.9911 O   0  0  0  0  0  0  0  0  0  0  0  0
  -31.8003  -14.8499   20.1046 O   0  0  0  0  0  0  0  0  0  0  0  0
  -21.7246   -6.6452   21.1791 O   0  0  0  0  0  0  0  0  0  0  0  0
  -27.8558  -22.5879   24.7885 O   0  0  0  0  0  0  0  0  0  1  0  0
  -17.0949   -6.4553   18.1901 F   0  0  0  0  0  0  0  0  0  0  0  0
  -21.4235   -4.7958   19.1464 F   0  0  0  0  0  0  0  0  0  0  0  0
  1  2  1  0  0  0  0
  1  5  2  0  0  0  0
  2  6  2  0  0  0  0
  3 10  2  0  0  0  0
  3 17  1  0  0  0  0
  4 11  1  0  0  0  0
  4 17  2  0  0  0  0
  5 19  1  0  0  0  0
  6 21  1  0  0  0  0
  7 12  2  0  0  0  0
  7 20  1  0  0  0  0
  8  9  1  0  0  0  0
  8 23  2  0  0  0  0
  9 26  2  0  0  0  0
 10 27  1  0  0  0  0
 11 27  2  0  0  0  0
 12 28  1  0  0  0  0
 13 14  2  0  0  0  0
 13 29  1  0  0  0  0
 14 30  1  0  0  0  0
 15 22  1  0  0  0  0
 15 28  2  0  0  0  0
 16 30  2  0  0  0  0
 16 31  1  0  0  0  0
 17 32  1  0  0  0  0
 18 32  1  0  0  0  0
 18 33  2  0  0  0  0
 18 36  1  0  0  0  0
 19 21  2  0  0  0  0
 19 41  1  0  0  0  0
 20 22  2  0  0  0  0
 20 42  1  0  0  0  0
 21 53  1  0  0  0  0
 22 43  1  0  0  0  0
 23 24  1  0  0  0  0
 23 57  1  0  0  0  0
 24 25  2  0  0  0  0
 24 64  1  0  0  0  0
 25 26  1  0  0  0  0
 25 58  1  0  0  0  0
 26 74  1  0  0  0  0
 27 84  1  0  0  0  0
 28 85  1  0  0  0  0
 29 31  2  0  0  0  0
 29 84  1  0  0  0  0
 30 86  1  0  0  0  0
 31 87  1  0  0  0  0
 32 68  2  0  0  0  0
 33 69  1  0  0  0  0
 33 72  1  0  0  0  0
 34 35  2  0  0  0  0
 34 44  1  0  0  0  0
 34 77  1  0  0  0  0
 36 73  1  0  0  0  0
 36 79  2  0  0  0  0
 37 54  1  0  0  0  0
 37 75  1  0  0  0  0
 37 80  2  0  0  0  0
 38 65  1  0  0  0  0
 38 70  1  0  0  0  0
 38 81  2  0  0  0  0
 39 66  1  0  0  0  0
 39 76  1  0  0  0  0
 39 82  2  0  0  0  0
 40 71  1  0  0  0  0
 40 74  1  0  0  0  0
 40 83  2  0  0  0  0
 41 45  1  0  0  0  0
 42 54  1  0  0  0  0
 43 70  1  0  0  0  0
 44 46  1  0  0  0  0
 45 48  1  0  0  0  0
 46 56  1  0  0  0  0
 47 49  1  0  0  0  0
 47 50  1  0  0  0  0
 48 53  1  0  0  0  0
 49 55  1  0  0  0  0
 50 71  1  0  0  0  0
 51 55  1  0  0  0  0
 51 71  1  0  0  0  0
 52 56  1  0  0  0  0
 52 77  1  0  0  0  0
 53 75  1  0  0  0  0
 54 70  1  0  0  0  0
 55 69  1  0  0  0  0
 56 85  1  0  0  0  0
 59 66  1  0  0  0  0
 60 67  1  0  0  0  0
 61 67  1  0  0  0  0
 62 67  1  0  0  0  0
 63 78  1  0  0  0  0
 64 77  1  0  0  0  0
 65 67  1  0  0  0  0
 65 76  1  0  0  0  0
 66 78  1  0  0  0  0
 68 69  1  0  0  0  0
M  CHG  2  77   1  78   1
M  ISO  4  40 100  56 101  74 100  85 101
M  END
> <Batch ID>
0038

> <Smiles>
C=C1CC[101CH:1]([101O:1]c2ccc3c(c2)CN(C(=O)C(NC(=O)C(C)NC)C(C)(C)C)C(C(=O)NC2CCCc4ccccc42)C3)CN1Cc1c(C)ccc([100NH:0][100C:0](=O)N2CCCC(n3nc(-c4ccc(Oc5ccc(F)cc5F)cc4)c(C(N)=O)c3N)C2)c1C

> <Shape>
0.217

> <Color>
0.144

> <Negative vol penalty>
0.000

$$$$

  -OEChem-04042322003D

 89 98  0     1  0  0  0  0  0999 V2000
  -31.6683  -24.7424   16.6707 C   0  0  0  0  0  0  0  0  0  0  0  0
  -30.4031  -24.5608   17.2201 C   0  0  0  0  0  0  0  0  0  0  0  0
  -24.6465   -9.5078   21.5317 C   0  0  0  0  0  0  0  0  0  0  0  0
  -24.5628  -10.7137   23.6236 C   0  0  0  0  0  0  0  0  0  0  0  0
  -32.5868  -25.5809   17.3008 C   0  0  0  0  0  0  0  0  0  0  0  0
  -30.0562  -25.2168   18.4007 C   0  0  0  0  0  0  0  0  0  0  0  0
  -25.4359  -27.2794   18.1914 C   0  0  0  0  0  0  0  0  0  0  0  0
  -24.4432   -8.3088   22.2148 C   0  0  0  0  0  0  0  0  0  0  0  0
  -24.3595   -9.5147   24.3067 C   0  0  0  0  0  0  0  0  0  0  0  0
  -24.3482  -26.4229   18.3562 C   0  0  0  0  0  0  0  0  0  0  0  0
  -23.5858   -4.9704   23.3702 C   0  0  0  0  0  0  0  0  0  0  0  0
  -22.6593   -4.0718   22.8413 C   0  0  0  0  0  0  0  0  0  0  0  0
  -24.1529  -27.1234   20.6562 C   0  0  0  0  0  0  0  0  0  0  0  0
  -27.0502  -22.2136   22.1911 C   0  0  0  0  0  0  0  0  0  0  0  0
  -28.4795  -20.3736   21.5523 C   0  0  0  0  0  0  0  0  0  0  0  0
  -20.9207   -5.7348   23.0617 C   0  0  0  0  0  0  0  0  0  0  0  0
  -24.7064  -10.7103   22.2362 C   0  0  0  0  0  0  0  0  0  0  0  0
  -23.9318  -12.8030   20.9998 C   0  0  0  0  0  0  0  0  0  0  0  0
  -32.2476  -26.2551   18.4844 C   0  0  0  0  0  0  0  0  0  0  0  0
  -25.8979  -28.0575   19.2626 C   0  0  0  0  0  0  0  0  0  0  0  0
  -30.9715  -26.0641   19.0479 C   0  0  0  0  0  0  0  0  0  0  0  0
  -25.2450  -27.9908   20.5018 C   0  0  0  0  0  0  0  0  0  0  0  0
  -28.3271  -21.6865   21.9979 C   0  0  0  0  0  0  0  0  0  0  0  0
  -25.9257  -21.4277   21.9388 C   0  0  0  0  0  0  0  0  0  0  0  0
  -26.0782  -20.1148   21.4932 C   0  0  0  0  0  0  0  0  0  0  0  0
  -27.3551  -19.5877   21.2999 C   0  0  0  0  0  0  0  0  0  0  0  0
  -24.2996   -8.3122   23.6022 C   0  0  0  0  0  0  0  0  0  0  0  0
  -23.7084  -26.3427   19.5895 C   0  0  0  0  0  0  0  0  0  0  0  0
  -23.1798   -6.2512   23.7449 C   0  0  0  0  0  0  0  0  0  0  0  0
  -21.3267   -4.4540   22.6870 C   0  0  0  0  0  0  0  0  0  0  0  0
  -21.8472   -6.6334   23.5906 C   0  0  0  0  0  0  0  0  0  0  0  0
  -24.9169  -11.9492   21.5312 C   0  0  0  0  0  0  0  0  0  0  0  0
  -24.6404  -13.8348   20.4344 C   0  0  0  0  0  0  0  0  0  0  0  0
  -22.5038  -12.6749   21.0161 C   0  0  0  0  0  0  0  0  0  0  0  0
  -28.6237  -28.2454   20.8870 C   0  0  0  0  0  0  0  0  0  0  0  0
  -27.1596  -30.7767   22.2912 C   0  0  0  0  0  0  0  0  0  0  0  0
  -24.2428  -32.3427   23.1198 C   0  0  0  0  0  0  0  0  0  0  0  0
  -28.7391  -17.5995   20.6088 C   0  0  0  0  0  0  0  0  0  0  0  0
  -33.2903  -27.1143   19.1548 C   0  0  0  0  0  0  0  0  0  0  0  0
  -27.0557  -28.9963   19.0612 C   0  0  0  0  0  0  0  0  0  0  0  0
  -25.6893  -28.8203   21.6778 C   0  0  0  0  0  0  0  0  0  0  0  0
  -32.7149  -28.0657   20.2008 C   0  0  0  0  0  0  0  0  0  0  0  0
  -29.5964  -14.3179   19.5255 C   0  0  0  0  0  0  0  0  0  0  0  0
  -30.3347  -22.5842   25.8725 C   0  0  0  0  0  0  0  0  0  0  0  0
  -31.2754  -23.5618   25.1974 C   0  0  0  0  0  0  0  0  0  0  0  0
  -31.7371  -27.3298   21.1113 C   0  0  0  0  0  0  0  0  0  0  0  0
  -28.3744  -13.4793   19.9070 C   0  0  0  0  0  0  0  0  0  0  0  0
  -29.8904  -15.3977   20.5653 C   0  0  0  0  0  0  0  0  0  0  0  0
  -27.5321  -15.4288   21.2771 C   0  0  0  0  0  0  0  0  0  0  0  0
  -29.3550  -22.2526   24.7674 C   0  0  0  0  0  0  0  0  0  0  0  0
  -31.4854  -22.9751   23.8125 C   0  0  0  0  0  0  0  0  0  0  0  0
  -30.5493  -26.7777   20.3139 C   0  0  1  0  0  0  0  0  0  0  0  0
  -27.7633  -29.3602   20.3628 C   0  0  1  0  0  0  0  0  0  0  0  0
  -27.1577  -14.3697   20.2274 C   0  0  2  0  0  0  0  0  0  0  0  0
  -24.8684  -19.2755   21.2248 C   0  0  0  0  0  0  0  0  0  0  0  0
  -23.3650  -34.3765   24.2991 C   0  0  0  0  0  0  0  0  0  0  0  0
  -27.7670  -29.4749   24.9831 C   0  0  0  0  0  0  0  0  0  0  0  0
  -26.0837  -31.0075   26.0253 C   0  0  0  0  0  0  0  0  0  0  0  0
  -28.1113  -31.9512   24.9204 C   0  0  0  0  0  0  0  0  0  0  0  0
  -22.9357  -33.3465   20.6616 C   0  0  0  0  0  0  0  0  0  0  0  0
  -29.5294  -22.5263   22.2691 C   0  0  0  0  0  0  0  0  0  0  0  0
  -24.5639  -22.0185   22.1567 C   0  0  0  0  0  0  0  0  0  0  0  0
  -21.8753  -23.2362   19.7174 C   0  0  0  0  0  0  0  0  0  0  0  0
  -22.4961  -22.8951   21.0637 C   0  0  0  0  0  0  0  0  0  0  0  0
  -22.6225  -24.3240   18.9557 C   0  0  0  0  0  0  0  0  0  1  0  0
  -26.2703  -30.9636   23.4966 C   0  0  1  0  0  0  0  0  0  0  0  0
  -23.7948  -33.7849   22.9656 C   0  0  2  0  0  0  0  0  0  0  0  0
  -27.0507  -30.8321   24.8349 C   0  0  0  0  0  0  0  0  0  0  0  0
  -26.1569  -12.3994   21.3218 N   0  0  0  0  0  0  0  0  0  0  0  0
  -25.9556  -13.5473   20.6526 N   0  0  0  0  0  0  0  0  0  0  0  0
  -26.8299  -29.7184   21.4326 N   0  0  0  0  0  0  0  0  0  0  0  0
  -28.6937  -16.2044   20.8148 N   0  0  0  0  0  0  0  0  0  0  0  0
  -24.2605  -14.9508   19.7766 N   0  0  0  0  0  0  0  0  0  0  0  0
  -21.9407  -11.5530   21.6394 N   0  0  0  0  0  0  0  0  0  0  0  0
  -27.5326  -18.2570   20.8466 N   0  0  0  0  0  0  0  0  0  0  0  0
  -29.6094  -27.8353   20.0098 N   0  0  0  0  0  0  0  0  0  0  0  0
  -25.6043  -32.2492   23.3171 N   0  0  0  0  0  0  0  0  0  0  0  0
  -30.2322  -22.1641   23.5378 N   0  3  0  0  0  0  0  0  0  0  0  0
  -22.6458  -33.8722   22.0206 N   0  3  0  0  0  0  0  0  0  0  0  0
  -23.8695  -22.3678   20.8866 N   0  3  0  0  0  0  0  0  0  0  0  0
  -21.7502  -13.5217   20.4789 O   0  0  0  0  0  0  0  0  0  0  0  0
  -28.4099  -27.7919   22.0052 O   0  0  0  0  0  0  0  0  0  0  0  0
  -28.1075  -31.5458   22.1139 O   0  0  0  0  0  0  0  0  0  0  0  0
  -23.4625  -31.3943   23.0739 O   0  0  0  0  0  0  0  0  0  0  0  0
  -29.7648  -18.1653   20.2217 O   0  0  0  0  0  0  0  0  0  0  0  0
  -24.1010   -7.1424   24.2691 O   0  0  0  0  0  0  0  0  0  0  0  0
  -22.6469  -25.5070   19.7533 O   0  0  0  0  0  0  0  0  0  1  0  0
  -20.4374   -3.5915   22.1777 F   0  0  0  0  0  0  0  0  0  0  0  0
  -21.4514   -7.8629   23.9477 F   0  0  0  0  0  0  0  0  0  0  0  0
  1  2  1  0  0  0  0
  1  5  2  0  0  0  0
  2  6  2  0  0  0  0
  3  8  2  0  0  0  0
  3 17  1  0  0  0  0
  4  9  1  0  0  0  0
  4 17  2  0  0  0  0
  5 19  1  0  0  0  0
  6 21  1  0  0  0  0
  7 10  2  0  0  0  0
  7 20  1  0  0  0  0
  8 27  1  0  0  0  0
  9 27  2  0  0  0  0
 10 28  1  0  0  0  0
 11 12  2  0  0  0  0
 11 29  1  0  0  0  0
 12 30  1  0  0  0  0
 13 22  1  0  0  0  0
 13 28  2  0  0  0  0
 14 23  2  0  0  0  0
 14 24  1  0  0  0  0
 15 23  1  0  0  0  0
 15 26  2  0  0  0  0
 16 30  2  0  0  0  0
 16 31  1  0  0  0  0
 17 32  1  0  0  0  0
 18 32  1  0  0  0  0
 18 33  2  0  0  0  0
 18 34  1  0  0  0  0
 19 21  2  0  0  0  0
 19 39  1  0  0  0  0
 20 22  2  0  0  0  0
 20 40  1  0  0  0  0
 21 52  1  0  0  0  0
 22 41  1  0  0  0  0
 23 61  1  0  0  0  0
 24 25  2  0  0  0  0
 24 62  1  0  0  0  0
 25 26  1  0  0  0  0
 25 55  1  0  0  0  0
 26 75  1  0  0  0  0
 27 86  1  0  0  0  0
 28 87  1  0  0  0  0
 29 31  2  0  0  0  0
 29 86  1  0  0  0  0
 30 88  1  0  0  0  0
 31 89  1  0  0  0  0
 32 69  2  0  0  0  0
 33 70  1  0  0  0  0
 33 73  1  0  0  0  0
 34 74  1  0  0  0  0
 34 81  2  0  0  0  0
 35 53  1  0  0  0  0
 35 76  1  0  0  0  0
 35 82  2  0  0  0  0
 36 66  1  0  0  0  0
 36 71  1  0  0  0  0
 36 83  2  0  0  0  0
 37 67  1  0  0  0  0
 37 77  1  0  0  0  0
 37 84  2  0  0  0  0
 38 72  1  0  0  0  0
 38 75  1  0  0  0  0
 38 85  2  0  0  0  0
 39 42  1  0  0  0  0
 40 53  1  0  0  0  0
 41 71  1  0  0  0  0
 42 46  1  0  0  0  0
 43 47  1  0  0  0  0
 43 48  1  0  0  0  0
 44 45  1  0  0  0  0
 44 50  1  0  0  0  0
 45 51  1  0  0  0  0
 46 52  1  0  0  0  0
 47 54  1  0  0  0  0
 48 72  1  0  0  0  0
 49 54  1  0  0  0  0
 49 72  1  0  0  0  0
 50 78  1  0  0  0  0
 51 78  1  0  0  0  0
 52 76  1  0  0  0  0
 53 71  1  0  0  0  0
 54 70  1  0  0  0  0
 56 67  1  0  0  0  0
 57 68  1  0  0  0  0
 58 68  1  0  0  0  0
 59 68  1  0  0  0  0
 60 79  1  0  0  0  0
 61 78  1  0  0  0  0
 62 80  1  0  0  0  0
 63 64  1  0  0  0  0
 63 65  1  0  0  0  0
 64 80  1  0  0  0  0
 65 87  1  0  0  0  0
 66 68  1  0  0  0  0
 66 77  1  0  0  0  0
 67 79  1  0  0  0  0
 69 70  1  0  0  0  0
M  CHG  3  78   1  79   1  80   1
M  ISO  4  38 100  65 101  75 100  87 101
M  END
> <Batch ID>
0038

> <Smiles>
CNC(C)C(=O)NC(C(=O)N1Cc2cc([101O:1][101CH2:1]CCNCc3cc(CN4CCCC4)cc([100NH:0][100C:0](=O)N4CCCC(n5nc(-c6ccc(Oc7ccc(F)cc7F)cc6)c(C(N)=O)c5N)C4)c3C)ccc2CC1C(=O)NC1CCCc2ccccc21)C(C)(C)C

> <Shape>
0.299

> <Color>
0.082

> <Negative vol penalty>
0.000

$$$$

  -OEChem-04042322003D

 88 97  0     1  0  0  0  0  0999 V2000
  -28.4817  -33.8993   24.0071 C   0  0  0  0  0  0  0  0  0  0  0  0
  -28.4921  -32.5440   23.6932 C   0  0  0  0  0  0  0  0  0  0  0  0
  -23.9723  -12.4280   20.7975 C   0  0  0  0  0  0  0  0  0  0  0  0
  -25.4412  -14.3453   20.7397 C   0  0  0  0  0  0  0  0  0  0  0  0
  -27.2949  -34.5118   24.4076 C   0  0  0  0  0  0  0  0  0  0  0  0
  -27.3158  -31.8002   23.7806 C   0  0  0  0  0  0  0  0  0  0  0  0
  -26.6319  -28.7697   19.7814 C   0  0  0  0  0  0  0  0  0  0  0  0
  -24.9124  -11.6862   20.0824 C   0  0  0  0  0  0  0  0  0  0  0  0
  -26.3813  -13.6035   20.0246 C   0  0  0  0  0  0  0  0  0  0  0  0
  -27.3688  -27.5867   19.7455 C   0  0  0  0  0  0  0  0  0  0  0  0
  -28.7288  -11.2633   20.6831 C   0  0  0  0  0  0  0  0  0  0  0  0
  -30.0625  -11.3539   21.0814 C   0  0  0  0  0  0  0  0  0  0  0  0
  -25.4405  -26.3689   20.5316 C   0  0  0  0  0  0  0  0  0  0  0  0
  -24.5394  -22.3163   24.4472 C   0  0  0  0  0  0  0  0  0  0  0  0
  -26.9329  -21.9926   24.3915 C   0  0  0  0  0  0  0  0  0  0  0  0
  -30.6573  -12.1983   18.8972 C   0  0  0  0  0  0  0  0  0  0  0  0
  -24.2366  -13.7576   21.1262 C   0  0  0  0  0  0  0  0  0  0  0  0
  -22.7588  -14.2449   23.1476 C   0  0  0  0  0  0  0  0  0  0  0  0
  -26.1015  -33.7773   24.4906 C   0  0  0  0  0  0  0  0  0  0  0  0
  -25.2947  -28.7629   20.2037 C   0  0  0  0  0  0  0  0  0  0  0  0
  -26.1123  -32.4032   24.1838 C   0  0  0  0  0  0  0  0  0  0  0  0
  -24.6881  -27.5528   20.5694 C   0  0  0  0  0  0  0  0  0  0  0  0
  -25.7609  -22.2185   25.1134 C   0  0  0  0  0  0  0  0  0  0  0  0
  -24.4898  -22.1880   23.0591 C   0  0  0  0  0  0  0  0  0  0  0  0
  -26.8833  -21.8644   23.0034 C   0  0  0  0  0  0  0  0  0  0  0  0
  -25.6617  -21.9621   22.3372 C   0  0  0  0  0  0  0  0  0  0  0  0
  -26.1169  -12.2739   19.6959 C   0  0  0  0  0  0  0  0  0  0  0  0
  -26.7740  -26.3865   20.1234 C   0  0  0  0  0  0  0  0  0  0  0  0
  -28.3593  -11.6400   19.3919 C   0  0  0  0  0  0  0  0  0  0  0  0
  -31.0267  -11.8214   20.1885 C   0  0  0  0  0  0  0  0  0  0  0  0
  -29.3235  -12.1076   18.4990 C   0  0  0  0  0  0  0  0  0  0  0  0
  -23.2656  -14.5246   21.8644 C   0  0  0  0  0  0  0  0  0  0  0  0
  -21.8737  -15.2650   23.3971 C   0  0  0  0  0  0  0  0  0  0  0  0
  -23.0612  -13.1599   24.0348 C   0  0  0  0  0  0  0  0  0  0  0  0
  -23.6911  -30.1075   22.5962 C   0  0  0  0  0  0  0  0  0  0  0  0
  -21.1231  -28.8450   21.0686 C   0  0  0  0  0  0  0  0  0  0  0  0
  -19.8942  -26.4807   18.9362 C   0  0  0  0  0  0  0  0  0  0  0  0
  -21.4238  -20.8684   21.3353 C   0  0  0  0  0  0  0  0  0  0  0  0
  -24.8534  -34.4725   24.9739 C   0  0  0  0  0  0  0  0  0  0  0  0
  -24.5057  -30.0434   20.2112 C   0  0  0  0  0  0  0  0  0  0  0  0
  -23.2496  -27.4885   21.0111 C   0  0  0  0  0  0  0  0  0  0  0  0
  -23.5717  -33.6971   24.6799 C   0  0  0  0  0  0  0  0  0  0  0  0
  -18.9480  -18.3159   21.1558 C   0  0  0  0  0  0  0  0  0  0  0  0
  -23.7363  -32.2294   25.0614 C   0  0  0  0  0  0  0  0  0  0  0  0
  -19.7281  -17.0296   21.4329 C   0  0  0  0  0  0  0  0  0  0  0  0
  -29.8959  -24.9500   20.0408 C   0  0  0  0  0  0  0  0  0  0  0  0
  -29.8942  -23.5671   19.3995 C   0  0  0  0  0  0  0  0  0  0  0  0
  -19.7722  -19.3117   20.3427 C   0  0  0  0  0  0  0  0  0  0  0  0
  -21.8753  -18.3443   21.1881 C   0  0  0  0  0  0  0  0  0  0  0  0
  -28.4827  -24.0578   21.9292 C   0  0  0  0  0  0  0  0  0  0  0  0
  -24.8515  -31.5682   24.2425 C   0  0  1  0  0  0  0  0  0  0  0  0
  -23.3030  -29.9986   21.1487 C   0  0  1  0  0  0  0  0  0  0  0  0
  -21.1055  -17.3317   22.0532 C   0  0  2  0  0  0  0  0  0  0  0  0
  -28.6599  -25.1681   20.9043 C   0  0  2  0  0  0  0  0  0  1  0  0
  -29.7334  -22.4468   20.4339 C   0  0  2  0  0  0  0  0  0  0  0  0
  -25.8139  -22.3549   26.5975 C   0  0  0  0  0  0  0  0  0  0  0  0
  -25.6083  -21.8252   20.8488 C   0  0  0  0  0  0  0  0  0  0  0  0
  -29.6598  -21.0960   19.7245 C   0  0  0  0  0  0  0  0  0  0  0  0
  -17.7495  -25.6769   17.9107 C   0  0  0  0  0  0  0  0  0  0  0  0
  -20.3556  -27.5280   23.7118 C   0  0  0  0  0  0  0  0  0  0  0  0
  -18.8148  -26.0236   22.4347 C   0  0  0  0  0  0  0  0  0  0  0  0
  -18.4359  -28.4892   22.4291 C   0  0  0  0  0  0  0  0  0  0  0  0
  -20.8624  -27.0341   16.1948 C   0  0  0  0  0  0  0  0  0  0  0  0
  -23.1691  -22.2979   22.3696 C   0  0  0  0  0  0  0  0  0  0  0  0
  -28.1581  -21.6219   22.2503 C   0  0  0  0  0  0  0  0  0  0  0  0
  -20.3819  -27.5312   21.1301 C   0  0  1  0  0  0  0  0  0  0  0  0
  -18.9571  -26.5867   17.7467 C   0  0  2  0  0  0  0  0  0  0  0  0
  -19.5248  -27.3942   22.4200 C   0  0  0  0  0  0  0  0  0  0  0  0
  -22.7456  -15.6354   21.3355 N   0  0  0  0  0  0  0  0  0  0  0  0
  -21.9028  -16.0626   22.2911 N   0  0  0  0  0  0  0  0  0  0  0  0
  -22.5217  -28.7683   21.0075 N   0  0  0  0  0  0  0  0  0  0  0  0
  -21.0655  -19.5560   20.9858 N   0  0  0  0  0  0  0  0  0  0  0  0
  -21.0811  -15.5487   24.4524 N   0  0  0  0  0  0  0  0  0  0  0  0
  -24.1095  -13.3186   24.9515 N   0  0  0  0  0  0  0  0  0  0  0  0
  -24.3844  -31.2615   22.9076 N   0  0  0  0  0  0  0  0  0  0  0  0
  -19.6170  -27.4357   19.8914 N   0  0  0  0  0  0  0  0  0  0  0  0
  -22.6636  -21.0110   21.9463 N   0  0  0  0  0  0  0  0  0  0  0  0
  -28.4638  -22.7028   21.2410 N   0  3  1  0  0  0  0  0  0  0  0  0
  -19.6663  -26.2048   16.4929 N   0  3  0  0  0  0  0  0  0  0  0  0
  -22.4314  -12.0755   24.0042 O   0  0  0  0  0  0  0  0  0  0  0  0
  -23.3830  -29.2115   23.3733 O   0  0  0  0  0  0  0  0  0  0  0  0
  -20.4842  -29.9002   21.0674 O   0  0  0  0  0  0  0  0  0  0  0  0
  -20.7809  -25.6330   19.0123 O   0  0  0  0  0  0  0  0  0  0  0  0
  -20.6907  -21.8404   21.1236 O   0  0  0  0  0  0  0  0  0  0  0  0
  -27.0346  -11.5502   18.9983 O   0  0  0  0  0  0  0  0  0  0  0  0
  -27.4911  -25.2305   20.0900 O   0  0  0  0  0  0  0  0  0  1  0  0
  -32.3072  -11.9099   20.5715 F   0  0  0  0  0  0  0  0  0  0  0  0
  -28.9744  -12.4721   17.2576 F   0  0  0  0  0  0  0  0  0  0  0  0
  1  2  1  0  0  0  0
  1  5  2  0  0  0  0
  2  6  2  0  0  0  0
  3  8  2  0  0  0  0
  3 17  1  0  0  0  0
  4  9  1  0  0  0  0
  4 17  2  0  0  0  0
  5 19  1  0  0  0  0
  6 21  1  0  0  0  0
  7 10  2  0  0  0  0
  7 20  1  0  0  0  0
  8 27  1  0  0  0  0
  9 27  2  0  0  0  0
 10 28  1  0  0  0  0
 11 12  2  0  0  0  0
 11 29  1  0  0  0  0
 12 30  1  0  0  0  0
 13 22  1  0  0  0  0
 13 28  2  0  0  0  0
 14 23  1  0  0  0  0
 14 24  2  0  0  0  0
 15 23  2  0  0  0  0
 15 25  1  0  0  0  0
 16 30  2  0  0  0  0
 16 31  1  0  0  0  0
 17 32  1  0  0  0  0
 18 32  1  0  0  0  0
 18 33  2  0  0  0  0
 18 34  1  0  0  0  0
 19 21  2  0  0  0  0
 19 39  1  0  0  0  0
 20 22  2  0  0  0  0
 20 40  1  0  0  0  0
 21 51  1  0  0  0  0
 22 41  1  0  0  0  0
 23 56  1  0  0  0  0
 24 26  1  0  0  0  0
 24 64  1  0  0  0  0
 25 26  2  0  0  0  0
 25 65  1  0  0  0  0
 26 57  1  0  0  0  0
 27 85  1  0  0  0  0
 28 86  1  0  0  0  0
 29 31  2  0  0  0  0
 29 85  1  0  0  0  0
 30 87  1  0  0  0  0
 31 88  1  0  0  0  0
 32 69  2  0  0  0  0
 33 70  1  0  0  0  0
 33 73  1  0  0  0  0
 34 74  1  0  0  0  0
 34 80  2  0  0  0  0
 35 52  1  0  0  0  0
 35 75  1  0  0  0  0
 35 81  2  0  0  0  0
 36 66  1  0  0  0  0
 36 71  1  0  0  0  0
 36 82  2  0  0  0  0
 37 67  1  0  0  0  0
 37 76  1  0  0  0  0
 37 83  2  0  0  0  0
 38 72  1  0  0  0  0
 38 77  1  0  0  0  0
 38 84  2  0  0  0  0
 39 42  1  0  0  0  0
 40 52  1  0  0  0  0
 41 71  1  0  0  0  0
 42 44  1  0  0  0  0
 43 45  1  0  0  0  0
 43 48  1  0  0  0  0
 44 51  1  0  0  0  0
 45 53  1  0  0  0  0
 46 47  1  0  0  0  0
 46 54  1  0  0  0  0
 47 55  1  0  0  0  0
 48 72  1  0  0  0  0
 49 53  1  0  0  0  0
 49 72  1  0  0  0  0
 50 54  1  0  0  0  0
 50 78  1  0  0  0  0
 51 75  1  0  0  0  0
 52 71  1  0  0  0  0
 53 70  1  0  0  0  0
 54 86  1  0  0  0  0
 55 58  1  0  0  0  0
 55 78  1  0  0  0  0
 59 67  1  0  0  0  0
 60 68  1  0  0  0  0
 61 68  1  0  0  0  0
 62 68  1  0  0  0  0
 63 79  1  0  0  0  0
 64 77  1  0  0  0  0
 65 78  1  0  0  0  0
 66 68  1  0  0  0  0
 66 76  1  0  0  0  0
 67 79  1  0  0  0  0
 69 70  1  0  0  0  0
M  CHG  2  78   1  79   1
M  ISO  4  38 100  54 101  77 100  86 101
M  END
> <Batch ID>
0038

> <Smiles>
CNC(C)C(=O)NC(C(=O)N1Cc2cc([101O:1][101CH:1]3CCC(C)N(Cc4cc(C)cc(C[100NH:0][100C:0](=O)N5CCCC(n6nc(-c7ccc(Oc8ccc(F)cc8F)cc7)c(C(N)=O)c6N)C5)c4C)C3)ccc2CC1C(=O)NC1CCCc2ccccc21)C(C)(C)C

> <Shape>
0.263

> <Color>
0.052

> <Negative vol penalty>
0.000

$$$$

  -OEChem-04042322003D

 89 98  0     1  0  0  0  0  0999 V2000
  -25.3478  -35.3280   23.5342 C   0  0  0  0  0  0  0  0  0  0  0  0
  -26.0180  -34.1411   23.2555 C   0  0  0  0  0  0  0  0  0  0  0  0
  -24.3189  -12.5534   22.2608 C   0  0  0  0  0  0  0  0  0  0  0  0
  -26.3036  -12.3882   20.8930 C   0  0  0  0  0  0  0  0  0  0  0  0
  -24.0386  -35.2922   24.0124 C   0  0  0  0  0  0  0  0  0  0  0  0
  -25.3796  -32.9177   23.4557 C   0  0  0  0  0  0  0  0  0  0  0  0
  -26.0817  -29.7065   19.6034 C   0  0  0  0  0  0  0  0  0  0  0  0
  -24.2835  -11.1639   22.3772 C   0  0  0  0  0  0  0  0  0  0  0  0
  -26.2682  -10.9986   21.0095 C   0  0  0  0  0  0  0  0  0  0  0  0
  -27.3087  -29.0476   19.5393 C   0  0  0  0  0  0  0  0  0  0  0  0
  -23.3102   -8.5311   20.4943 C   0  0  0  0  0  0  0  0  0  0  0  0
  -22.0786   -7.8985   20.3255 C   0  0  0  0  0  0  0  0  0  0  0  0
  -26.2976  -27.0833   20.5081 C   0  0  0  0  0  0  0  0  0  0  0  0
  -30.9109  -22.3553   18.0152 C   0  0  0  0  0  0  0  0  0  0  0  0
  -30.2206  -22.9755   20.2457 C   0  0  0  0  0  0  0  0  0  0  0  0
  -22.2295   -7.0067   22.5658 C   0  0  0  0  0  0  0  0  0  0  0  0
  -25.3290  -13.1656   21.5186 C   0  0  0  0  0  0  0  0  0  0  0  0
  -25.4801  -15.5394   22.4405 C   0  0  0  0  0  0  0  0  0  0  0  0
  -23.3805  -34.0680   24.2094 C   0  0  0  0  0  0  0  0  0  0  0  0
  -24.9541  -29.0614   20.1313 C   0  0  0  0  0  0  0  0  0  0  0  0
  -24.0608  -32.8655   23.9382 C   0  0  0  0  0  0  0  0  0  0  0  0
  -25.0569  -27.7354   20.5754 C   0  0  0  0  0  0  0  0  0  0  0  0
  -31.1113  -23.0972   19.1792 C   0  0  0  0  0  0  0  0  0  0  0  0
  -29.8198  -21.4918   17.9175 C   0  0  0  0  0  0  0  0  0  0  0  0
  -28.9291  -21.3701   18.9840 C   0  0  0  0  0  0  0  0  0  0  0  0
  -25.2581  -10.3865   21.7516 C   0  0  0  0  0  0  0  0  0  0  0  0
  -27.4175  -27.7368   19.9943 C   0  0  0  0  0  0  0  0  0  0  0  0
  -24.0016   -8.4014   21.6989 C   0  0  0  0  0  0  0  0  0  0  0  0
  -21.5382   -7.1364   21.3612 C   0  0  0  0  0  0  0  0  0  0  0  0
  -23.4612   -7.6393   22.7346 C   0  0  0  0  0  0  0  0  0  0  0  0
  -29.1294  -22.1120   20.1482 C   0  0  0  0  0  0  0  0  0  0  0  0
  -25.3658  -14.6009   21.3975 C   0  0  0  0  0  0  0  0  0  0  0  0
  -25.4690  -16.7586   21.8082 C   0  0  0  0  0  0  0  0  0  0  0  0
  -31.0733  -25.8967   18.3133 C   0  0  0  0  0  0  0  0  0  0  0  0
  -30.1464  -25.6630   17.3688 C   0  0  0  0  0  0  0  0  0  0  0  0
  -25.5868  -15.3279   23.8546 C   0  0  0  0  0  0  0  0  0  0  0  0
  -23.0303  -29.5755   22.6089 C   0  0  0  0  0  0  0  0  0  0  0  0
  -21.3587  -27.1101   21.3244 C   0  0  0  0  0  0  0  0  0  0  0  0
  -21.3616  -24.3203   19.3587 C   0  0  0  0  0  0  0  0  0  0  0  0
  -27.1419  -20.1348   17.7087 C   0  0  0  0  0  0  0  0  0  0  0  0
  -21.9815  -34.0783   24.7728 C   0  0  0  0  0  0  0  0  0  0  0  0
  -23.6316  -29.7769   20.1688 C   0  0  0  0  0  0  0  0  0  0  0  0
  -23.8716  -26.9914   21.1321 C   0  0  0  0  0  0  0  0  0  0  0  0
  -21.2464  -32.7514   24.6023 C   0  0  0  0  0  0  0  0  0  0  0  0
  -24.4012  -17.9717   17.0113 C   0  0  0  0  0  0  0  0  0  0  0  0
  -33.4961  -26.9682   19.4066 C   0  0  0  0  0  0  0  0  0  0  0  0
  -22.1452  -31.5873   25.0071 C   0  0  0  0  0  0  0  0  0  0  0  0
  -32.2226  -27.8098   19.4234 C   0  0  0  0  0  0  0  0  0  0  0  0
  -24.4172  -16.9791   18.1761 C   0  0  0  0  0  0  0  0  0  0  0  0
  -25.8136  -18.3635   16.5806 C   0  0  0  0  0  0  0  0  0  0  0  0
  -26.6945  -17.8616   18.8258 C   0  0  0  0  0  0  0  0  0  0  0  0
  -33.5036  -25.9882   18.2400 C   0  0  0  0  0  0  0  0  0  0  0  0
  -23.3935  -31.5193   24.1190 C   0  0  1  0  0  0  0  0  0  0  0  0
  -30.9643  -26.9286   19.4252 C   0  0  1  0  0  0  0  0  0  0  0  0
  -22.6681  -29.1981   21.2003 C   0  0  1  0  0  0  0  0  0  0  0  0
  -25.2939  -17.4872   19.3375 C   0  0  2  0  0  0  0  0  0  0  0  0
  -30.8406  -19.8349   16.3367 C   0  0  0  0  0  0  0  0  0  0  0  0
  -19.8543  -22.4936   18.5290 C   0  0  0  0  0  0  0  0  0  0  0  0
  -21.5045  -25.7534   24.0536 C   0  0  0  0  0  0  0  0  0  0  0  0
  -20.8554  -23.6056   22.9429 C   0  0  0  0  0  0  0  0  0  0  0  0
  -19.2928  -25.5496   22.9041 C   0  0  0  0  0  0  0  0  0  0  0  0
  -21.7662  -25.1102   16.5354 C   0  0  0  0  0  0  0  0  0  0  0  0
  -29.6339  -20.7112   16.6567 C   0  0  0  0  0  0  0  0  0  0  0  0
  -32.2854  -24.0253   19.2846 C   0  0  0  0  0  0  0  0  0  0  0  0
  -29.7167  -27.8176   19.3917 C   0  0  0  0  0  0  0  0  0  1  0  0
  -21.3802  -25.6085   21.4788 C   0  0  1  0  0  0  0  0  0  0  0  0
  -20.4322  -23.8715   18.2456 C   0  0  2  0  0  0  0  0  0  0  0  0
  -20.7812  -25.1437   22.8362 C   0  0  0  0  0  0  0  0  0  0  0  0
  -25.2877  -15.1747   20.1939 N   0  0  0  0  0  0  0  0  0  0  0  0
  -25.3529  -16.4868   20.4767 N   0  0  0  0  0  0  0  0  0  0  0  0
  -22.6017  -27.7360   21.1537 N   0  0  0  0  0  0  0  0  0  0  0  0
  -26.5840  -18.8391   17.7317 N   0  0  0  0  0  0  0  0  0  0  0  0
  -25.5472  -18.0259   22.2668 N   0  0  0  0  0  0  0  0  0  0  0  0
  -26.8640  -15.1896   24.4150 N   0  0  0  0  0  0  0  0  0  0  0  0
  -27.8251  -20.4891   18.8717 N   0  0  0  0  0  0  0  0  0  0  0  0
  -23.0685  -30.9384   22.8340 N   0  0  0  0  0  0  0  0  0  0  0  0
  -20.6977  -25.0681   20.3081 N   0  0  0  0  0  0  0  0  0  0  0  0
  -32.2817  -25.1019   18.2345 N   0  3  1  0  0  0  0  0  0  0  0  0
  -21.1654  -23.8161   16.9493 N   0  3  0  0  0  0  0  0  0  0  0  0
  -24.5788  -15.2473   24.5968 O   0  0  0  0  0  0  0  0  0  0  0  0
  -23.2568  -28.6955   23.4310 O   0  0  0  0  0  0  0  0  0  0  0  0
  -20.2783  -27.7050   21.3471 O   0  0  0  0  0  0  0  0  0  0  0  0
  -22.5563  -24.0330   19.3855 O   0  0  0  0  0  0  0  0  0  0  0  0
  -26.9993  -20.8857   16.7403 O   0  0  0  0  0  0  0  0  0  0  0  0
  -25.2239   -9.0306   21.8652 O   0  0  0  0  0  0  0  0  0  0  0  0
  -28.6140  -27.0915   19.9335 O   0  0  0  0  0  0  0  0  0  1  0  0
  -20.3547   -6.5303   21.1995 F   0  0  0  0  0  0  0  0  0  0  0  0
  -24.1202   -7.5120   23.8945 F   0  0  0  0  0  0  0  0  0  0  0  0
  -28.0525  -21.9937   21.4948 Cl  0  0  0  0  0  0  0  0  0  0  0  0
  1  2  1  0  0  0  0
  1  5  2  0  0  0  0
  2  6  2  0  0  0  0
  3  8  2  0  0  0  0
  3 17  1  0  0  0  0
  4  9  1  0  0  0  0
  4 17  2  0  0  0  0
  5 19  1  0  0  0  0
  6 21  1  0  0  0  0
  7 10  2  0  0  0  0
  7 20  1  0  0  0  0
  8 26  1  0  0  0  0
  9 26  2  0  0  0  0
 10 27  1  0  0  0  0
 11 12  2  0  0  0  0
 11 28  1  0  0  0  0
 12 29  1  0  0  0  0
 13 22  1  0  0  0  0
 13 27  2  0  0  0  0
 14 23  2  0  0  0  0
 14 24  1  0  0  0  0
 15 23  1  0  0  0  0
 15 31  2  0  0  0  0
 16 29  2  0  0  0  0
 16 30  1  0  0  0  0
 17 32  1  0  0  0  0
 18 32  1  0  0  0  0
 18 33  2  0  0  0  0
 18 36  1  0  0  0  0
 19 21  2  0  0  0  0
 19 41  1  0  0  0  0
 20 22  2  0  0  0  0
 20 42  1  0  0  0  0
 21 53  1  0  0  0  0
 22 43  1  0  0  0  0
 23 64  1  0  0  0  0
 24 25  2  0  0  0  0
 24 63  1  0  0  0  0
 25 31  1  0  0  0  0
 25 75  1  0  0  0  0
 26 85  1  0  0  0  0
 27 86  1  0  0  0  0
 28 30  2  0  0  0  0
 28 85  1  0  0  0  0
 29 87  1  0  0  0  0
 30 88  1  0  0  0  0
 31 89  1  0  0  0  0
 32 69  2  0  0  0  0
 33 70  1  0  0  0  0
 33 73  1  0  0  0  0
 34 35  2  0  0  0  0
 34 54  1  0  0  0  0
 34 78  1  0  0  0  0
 36 74  1  0  0  0  0
 36 80  2  0  0  0  0
 37 55  1  0  0  0  0
 37 76  1  0  0  0  0
 37 81  2  0  0  0  0
 38 66  1  0  0  0  0
 38 71  1  0  0  0  0
 38 82  2  0  0  0  0
 39 67  1  0  0  0  0
 39 77  1  0  0  0  0
 39 83  2  0  0  0  0
 40 72  1  0  0  0  0
 40 75  1  0  0  0  0
 40 84  2  0  0  0  0
 41 44  1  0  0  0  0
 42 55  1  0  0  0  0
 43 71  1  0  0  0  0
 44 47  1  0  0  0  0
 45 49  1  0  0  0  0
 45 50  1  0  0  0  0
 46 48  1  0  0  0  0
 46 52  1  0  0  0  0
 47 53  1  0  0  0  0
 48 54  1  0  0  0  0
 49 56  1  0  0  0  0
 50 72  1  0  0  0  0
 51 56  1  0  0  0  0
 51 72  1  0  0  0  0
 52 78  1  0  0  0  0
 53 76  1  0  0  0  0
 54 65  1  0  0  0  0
 55 71  1  0  0  0  0
 56 70  1  0  0  0  0
 57 63  1  0  0  0  0
 58 67  1  0  0  0  0
 59 68  1  0  0  0  0
 60 68  1  0  0  0  0
 61 68  1  0  0  0  0
 62 79  1  0  0  0  0
 64 78  1  0  0  0  0
 65 86  1  0  0  0  0
 66 68  1  0  0  0  0
 66 77  1  0  0  0  0
 67 79  1  0  0  0  0
 69 70  1  0  0  0  0
M  CHG  2  78   1  79   1
M  ISO  4  40 100  65 101  75 100  86 101
M  END
> <Batch ID>
0038

> <Smiles>
C=C1C([101CH2:1][101O:1]c2ccc3c(c2)CN(C(=O)C(NC(=O)C(C)NC)C(C)(C)C)C(C(=O)NC2CCCc4ccccc42)C3)CCCN1Cc1cc(Cl)c([100NH:0][100C:0](=O)N2CCCC(n3nc(-c4ccc(Oc5ccc(F)cc5F)cc4)c(C(N)=O)c3N)C2)c(CC)c1

> <Shape>
0.262

> <Color>
0.074

> <Negative vol penalty>
0.000

$$$$

  -OEChem-04042322003D

 87 96  0     1  0  0  0  0  0999 V2000
  -22.5187  -12.8030   19.5616 C   0  0  0  0  0  0  0  0  0  0  0  0
  -22.4800  -13.9509   18.7782 C   0  0  0  0  0  0  0  0  0  0  0  0
  -28.5554  -17.5080   19.6925 C   0  0  0  0  0  0  0  0  0  0  0  0
  -30.7773  -18.0569   18.9184 C   0  0  0  0  0  0  0  0  0  0  0  0
  -22.1880  -12.8747   20.9131 C   0  0  0  0  0  0  0  0  0  0  0  0
  -22.1221  -15.1730   19.3486 C   0  0  0  0  0  0  0  0  0  0  0  0
  -20.5427  -22.9592   19.6694 C   0  0  0  0  0  0  0  0  0  0  0  0
  -29.0101  -16.2575   20.1109 C   0  0  0  0  0  0  0  0  0  0  0  0
  -31.2320  -16.8063   19.3369 C   0  0  0  0  0  0  0  0  0  0  0  0
  -19.8982  -23.9333   20.4307 C   0  0  0  0  0  0  0  0  0  0  0  0
  -29.7415  -13.2739   18.7011 C   0  0  0  0  0  0  0  0  0  0  0  0
  -28.9582  -12.1627   18.3893 C   0  0  0  0  0  0  0  0  0  0  0  0
  -21.1874  -23.2707   22.3589 C   0  0  0  0  0  0  0  0  0  0  0  0
  -22.8667  -26.9254   19.8938 C   0  0  0  0  0  0  0  0  0  0  0  0
  -25.3182  -27.7783   20.9163 C   0  0  0  0  0  0  0  0  0  0  0  0
  -28.7219  -11.6690   20.7425 C   0  0  0  0  0  0  0  0  0  0  0  0
  -29.4390  -18.4077   19.0961 C   0  0  0  0  0  0  0  0  0  0  0  0
  -27.9644  -19.9644   17.7142 C   0  0  0  0  0  0  0  0  0  0  0  0
  -21.8140  -14.0964   21.4968 C   0  0  0  0  0  0  0  0  0  0  0  0
  -21.5083  -22.1249   20.2509 C   0  0  0  0  0  0  0  0  0  0  0  0
  -21.8081  -15.2703   20.7162 C   0  0  0  0  0  0  0  0  0  0  0  0
  -21.8446  -22.2886   21.6022 C   0  0  0  0  0  0  0  0  0  0  0  0
  -24.0375  -26.2469   19.5555 C   0  0  0  0  0  0  0  0  0  0  0  0
  -22.9216  -28.0304   20.7433 C   0  0  0  0  0  0  0  0  0  0  0  0
  -25.2632  -26.6733   20.0668 C   0  0  0  0  0  0  0  0  0  0  0  0
  -30.3484  -15.9067   19.9331 C   0  0  0  0  0  0  0  0  0  0  0  0
  -20.2184  -24.0872   21.7764 C   0  0  0  0  0  0  0  0  0  0  0  0
  -30.0152  -13.5826   20.0336 C   0  0  0  0  0  0  0  0  0  0  0  0
  -28.4484  -11.3603   19.4100 C   0  0  0  0  0  0  0  0  0  0  0  0
  -29.5054  -12.7802   21.0543 C   0  0  0  0  0  0  0  0  0  0  0  0
  -24.1474  -28.4569   21.2545 C   0  0  0  0  0  0  0  0  0  0  0  0
  -28.9699  -19.6994   18.6632 C   0  0  0  0  0  0  0  0  0  0  0  0
  -27.8954  -21.3351   17.6606 C   0  0  0  0  0  0  0  0  0  0  0  0
  -19.9422  -29.1637   22.7578 C   0  0  0  0  0  0  0  0  0  0  0  0
  -20.0298  -30.2473   23.5439 C   0  0  0  0  0  0  0  0  0  0  0  0
  -27.1642  -19.0529   16.9495 C   0  0  0  0  0  0  0  0  0  0  0  0
  -21.7731  -18.9934   20.7276 C   0  0  0  0  0  0  0  0  0  0  0  0
  -24.7411  -19.7959   21.7616 C   0  0  0  0  0  0  0  0  0  0  0  0
  -26.2137  -22.4076   23.7685 C   0  0  0  0  0  0  0  0  0  0  0  0
  -27.7537  -26.3065   20.1642 C   0  0  0  0  0  0  0  0  0  0  0  0
  -21.4735  -14.1184   22.9661 C   0  0  0  0  0  0  0  0  0  0  0  0
  -22.2136  -21.0968   19.4094 C   0  0  0  0  0  0  0  0  0  0  0  0
  -22.8886  -21.4318   22.2690 C   0  0  0  0  0  0  0  0  0  0  0  0
  -18.6400  -28.6606   22.1966 C   0  0  0  0  0  0  0  0  0  0  0  0
  -20.6839  -15.3576   23.3749 C   0  0  0  0  0  0  0  0  0  0  0  0
  -18.4772  -27.1733   22.4862 C   0  0  0  0  0  0  0  0  0  0  0  0
  -30.9604  -24.8658   19.6000 C   0  0  0  0  0  0  0  0  0  0  0  0
  -21.3668  -16.6083   22.8417 C   0  0  0  0  0  0  0  0  0  0  0  0
  -30.6457  -23.4150   19.2279 C   0  0  0  0  0  0  0  0  0  0  0  0
  -30.0093  -25.3955   20.6717 C   0  0  0  0  0  0  0  0  0  0  0  0
  -28.2666  -23.7919   19.9928 C   0  0  0  0  0  0  0  0  0  0  0  0
  -20.9754  -26.9696   22.7722 C   0  0  0  0  0  0  0  0  0  0  0  0
  -21.3922  -16.6049   21.3080 C   0  0  1  0  0  0  0  0  0  0  0  0
  -22.8115  -19.9596   20.2320 C   0  0  1  0  0  0  0  0  0  0  0  0
  -29.1573  -23.2352   18.8701 C   0  0  2  0  0  0  0  0  0  0  0  0
  -19.7325  -26.3908   22.1010 C   0  0  1  0  0  0  0  0  0  1  0  0
  -23.9492  -25.0676   18.6418 C   0  0  0  0  0  0  0  0  0  0  0  0
  -28.5336  -23.3642   23.7543 C   0  0  0  0  0  0  0  0  0  0  0  0
  -25.2823  -17.7589   23.9679 C   0  0  0  0  0  0  0  0  0  0  0  0
  -26.7012  -19.4768   25.1099 C   0  0  0  0  0  0  0  0  0  0  0  0
  -27.3315  -18.6478   22.8431 C   0  0  0  0  0  0  0  0  0  0  0  0
  -25.2013  -25.1601   23.3716 C   0  0  0  0  0  0  0  0  0  0  0  0
  -21.6403  -28.7334   21.0822 C   0  0  0  0  0  0  0  0  0  0  0  0
  -25.3408  -20.1865   23.0908 C   0  0  1  0  0  0  0  0  0  0  0  0
  -27.0995  -23.5393   23.2796 C   0  0  2  0  0  0  0  0  0  0  0  0
  -26.1367  -19.0230   23.7467 C   0  0  0  0  0  0  0  0  0  0  0  0
  -29.5016  -20.8125   19.1755 N   0  0  0  0  0  0  0  0  0  0  0  0
  -28.8277  -21.7901   18.5460 N   0  0  0  0  0  0  0  0  0  0  0  0
  -23.5457  -20.4365   21.4058 N   0  0  0  0  0  0  0  0  0  0  0  0
  -28.6175  -25.1952   20.2620 N   0  0  0  0  0  0  0  0  0  0  0  0
  -27.1288  -22.1835   16.9429 N   0  0  0  0  0  0  0  0  0  0  0  0
  -27.6380  -18.6358   15.6982 N   0  0  0  0  0  0  0  0  0  0  0  0
  -26.4636  -25.9978   19.7341 N   0  0  0  0  0  0  0  0  0  0  0  0
  -22.2258  -17.6933   20.8473 N   0  0  0  0  0  0  0  0  0  0  0  0
  -26.1318  -21.3874   22.8446 N   0  0  0  0  0  0  0  0  0  0  0  0
  -21.1568  -28.4381   22.4751 N   0  3  1  0  0  0  0  0  0  0  0  0
  -26.5940  -24.8475   23.7835 N   0  3  0  0  0  0  0  0  0  0  0  0
  -26.0540  -18.6340   17.3564 O   0  0  0  0  0  0  0  0  0  0  0  0
  -20.6450  -19.3977   20.9838 O   0  0  0  0  0  0  0  0  0  0  0  0
  -25.3159  -18.9586   21.0615 O   0  0  0  0  0  0  0  0  0  0  0  0
  -25.6537  -22.4251   24.8624 O   0  0  0  0  0  0  0  0  0  0  0  0
  -28.1383  -27.4515   20.4154 O   0  0  0  0  0  0  0  0  0  0  0  0
  -30.7924  -14.6866   20.3416 O   0  0  0  0  0  0  0  0  0  0  0  0
  -19.5904  -25.0368   22.5219 O   0  0  0  0  0  0  0  0  0  1  0  0
  -27.6949  -10.2942   19.1105 F   0  0  0  0  0  0  0  0  0  0  0  0
  -29.7638  -13.0724   22.3363 F   0  0  0  0  0  0  0  0  0  0  0  0
  -24.2541  -29.8201   22.3080 Cl  0  0  0  0  0  0  0  0  0  0  0  0
  1  2  1  0  0  0  0
  1  5  2  0  0  0  0
  2  6  2  0  0  0  0
  3  8  2  0  0  0  0
  3 17  1  0  0  0  0
  4  9  1  0  0  0  0
  4 17  2  0  0  0  0
  5 19  1  0  0  0  0
  6 21  1  0  0  0  0
  7 10  2  0  0  0  0
  7 20  1  0  0  0  0
  8 26  1  0  0  0  0
  9 26  2  0  0  0  0
 10 27  1  0  0  0  0
 11 12  2  0  0  0  0
 11 28  1  0  0  0  0
 12 29  1  0  0  0  0
 13 22  1  0  0  0  0
 13 27  2  0  0  0  0
 14 23  2  0  0  0  0
 14 24  1  0  0  0  0
 15 25  2  0  0  0  0
 15 31  1  0  0  0  0
 16 29  2  0  0  0  0
 16 30  1  0  0  0  0
 17 32  1  0  0  0  0
 18 32  1  0  0  0  0
 18 33  2  0  0  0  0
 18 36  1  0  0  0  0
 19 21  2  0  0  0  0
 19 41  1  0  0  0  0
 20 22  2  0  0  0  0
 20 42  1  0  0  0  0
 21 53  1  0  0  0  0
 22 43  1  0  0  0  0
 23 25  1  0  0  0  0
 23 57  1  0  0  0  0
 24 31  2  0  0  0  0
 24 63  1  0  0  0  0
 25 73  1  0  0  0  0
 26 83  1  0  0  0  0
 27 84  1  0  0  0  0
 28 30  2  0  0  0  0
 28 83  1  0  0  0  0
 29 85  1  0  0  0  0
 30 86  1  0  0  0  0
 31 87  1  0  0  0  0
 32 67  2  0  0  0  0
 33 68  1  0  0  0  0
 33 71  1  0  0  0  0
 34 35  2  0  0  0  0
 34 44  1  0  0  0  0
 34 76  1  0  0  0  0
 36 72  1  0  0  0  0
 36 78  2  0  0  0  0
 37 54  1  0  0  0  0
 37 74  1  0  0  0  0
 37 79  2  0  0  0  0
 38 64  1  0  0  0  0
 38 69  1  0  0  0  0
 38 80  2  0  0  0  0
 39 65  1  0  0  0  0
 39 75  1  0  0  0  0
 39 81  2  0  0  0  0
 40 70  1  0  0  0  0
 40 73  1  0  0  0  0
 40 82  2  0  0  0  0
 41 45  1  0  0  0  0
 42 54  1  0  0  0  0
 43 69  1  0  0  0  0
 44 46  1  0  0  0  0
 45 48  1  0  0  0  0
 46 56  1  0  0  0  0
 47 49  1  0  0  0  0
 47 50  1  0  0  0  0
 48 53  1  0  0  0  0
 49 55  1  0  0  0  0
 50 70  1  0  0  0  0
 51 55  1  0  0  0  0
 51 70  1  0  0  0  0
 52 56  1  0  0  0  0
 52 76  1  0  0  0  0
 53 74  1  0  0  0  0
 54 69  1  0  0  0  0
 55 68  1  0  0  0  0
 56 84  1  0  0  0  0
 58 65  1  0  0  0  0
 59 66  1  0  0  0  0
 60 66  1  0  0  0  0
 61 66  1  0  0  0  0
 62 77  1  0  0  0  0
 63 76  1  0  0  0  0
 64 66  1  0  0  0  0
 64 75  1  0  0  0  0
 65 77  1  0  0  0  0
 67 68  1  0  0  0  0
M  CHG  2  76   1  77   1
M  ISO  4  40 100  56 101  73 100  84 101
M  END
> <Batch ID>
0038

> <Smiles>
C=C1CC[101CH:1]([101O:1]c2ccc3c(c2)CN(C(=O)C(NC(=O)C(C)NC)C(C)(C)C)C(C(=O)NC2CCCc4ccccc42)C3)CN1Cc1cc(C)c([100NH:0][100C:0](=O)N2CCCC(n3nc(-c4ccc(Oc5ccc(F)cc5F)cc4)c(C(N)=O)c3N)C2)cc1Cl

> <Shape>
0.212

> <Color>
0.062

> <Negative vol penalty>
0.000

$$$$

  -OEChem-04042322003D

 87 96  0     1  0  0  0  0  0999 V2000
  -27.4686  -27.7751   18.8086 C   0  0  0  0  0  0  0  0  0  0  0  0
  -27.0436  -26.5743   18.2491 C   0  0  0  0  0  0  0  0  0  0  0  0
  -20.7254  -25.3108   21.7774 C   0  0  0  0  0  0  0  0  0  0  0  0
  -21.3640  -24.5234   23.9704 C   0  0  0  0  0  0  0  0  0  0  0  0
  -28.5424  -27.7871   19.6977 C   0  0  0  0  0  0  0  0  0  0  0  0
  -27.6931  -25.3849   18.5777 C   0  0  0  0  0  0  0  0  0  0  0  0
  -26.4149  -18.3973   19.5025 C   0  0  0  0  0  0  0  0  0  0  0  0
  -20.4347  -26.5657   22.3125 C   0  0  0  0  0  0  0  0  0  0  0  0
  -21.0733  -25.7783   24.5056 C   0  0  0  0  0  0  0  0  0  0  0  0
  -26.8796  -17.1523   19.0808 C   0  0  0  0  0  0  0  0  0  0  0  0
  -17.9233  -28.0093   24.0541 C   0  0  0  0  0  0  0  0  0  0  0  0
  -16.7344  -28.6221   23.6586 C   0  0  0  0  0  0  0  0  0  0  0  0
  -28.6725  -17.2835   20.6894 C   0  0  0  0  0  0  0  0  0  0  0  0
  -24.8976  -13.4477   20.9431 C   0  0  0  0  0  0  0  0  0  0  0  0
  -17.9902  -30.4840   22.7680 C   0  0  0  0  0  0  0  0  0  0  0  0
  -21.1900  -24.2896   22.6063 C   0  0  0  0  0  0  0  0  0  0  0  0
  -22.4336  -22.6926   21.0537 C   0  0  0  0  0  0  0  0  0  0  0  0
  -29.1992  -26.5960   20.0448 C   0  0  0  0  0  0  0  0  0  0  0  0
  -27.0830  -19.1008   20.5150 C   0  0  0  0  0  0  0  0  0  0  0  0
  -28.7776  -25.3812   19.4713 C   0  0  0  0  0  0  0  0  0  0  0  0
  -28.2127  -18.5361   21.1239 C   0  0  0  0  0  0  0  0  0  0  0  0
  -26.1016  -13.4153   21.6466 C   0  0  0  0  0  0  0  0  0  0  0  0
  -26.3555  -14.3625   22.6385 C   0  0  0  0  0  0  0  0  0  0  0  0
  -25.4054  -15.3423   22.9269 C   0  0  0  0  0  0  0  0  0  0  0  0
  -24.2015  -15.3748   22.2233 C   0  0  0  0  0  0  0  0  0  0  0  0
  -20.6087  -26.7994   23.6766 C   0  0  0  0  0  0  0  0  0  0  0  0
  -28.0103  -16.5965   19.6723 C   0  0  0  0  0  0  0  0  0  0  0  0
  -19.1458  -28.6339   23.8066 C   0  0  0  0  0  0  0  0  0  0  0  0
  -16.7678  -29.8594   23.0155 C   0  0  0  0  0  0  0  0  0  0  0  0
  -19.1792  -29.8712   23.1635 C   0  0  0  0  0  0  0  0  0  0  0  0
  -23.9476  -14.4275   21.2313 C   0  0  0  0  0  0  0  0  0  0  0  0
  -21.4899  -22.9930   22.0541 C   0  0  0  0  0  0  0  0  0  0  0  0
  -22.3358  -21.3329   20.8864 C   0  0  0  0  0  0  0  0  0  0  0  0
  -23.3196  -23.5648   20.3394 C   0  0  0  0  0  0  0  0  0  0  0  0
  -28.5831  -21.8978   20.6882 C   0  0  0  0  0  0  0  0  0  0  0  0
  -28.7544  -21.1692   23.8445 C   0  0  0  0  0  0  0  0  0  0  0  0
  -28.7490  -18.7659   26.2676 C   0  0  0  0  0  0  0  0  0  0  0  0
  -21.9364  -16.1852   22.9708 C   0  0  0  0  0  0  0  0  0  0  0  0
  -30.3853  -26.6652   20.9738 C   0  0  0  0  0  0  0  0  0  0  0  0
  -26.5533  -20.4307   20.9769 C   0  0  0  0  0  0  0  0  0  0  0  0
  -28.9541  -19.2417   22.2289 C   0  0  0  0  0  0  0  0  0  0  0  0
  -30.7804  -25.3118   21.5591 C   0  0  0  0  0  0  0  0  0  0  0  0
  -18.9141  -18.0370   22.6333 C   0  0  0  0  0  0  0  0  0  0  0  0
  -29.8226  -11.5642   19.2271 C   0  0  0  0  0  0  0  0  0  0  0  0
  -30.8206  -24.2487   20.4660 C   0  0  0  0  0  0  0  0  0  0  0  0
  -19.3925  -19.4668   22.3703 C   0  0  0  0  0  0  0  0  0  0  0  0
  -29.3031  -12.7083   18.3793 C   0  0  0  0  0  0  0  0  0  0  0  0
  -19.8194  -17.3097   23.6259 C   0  0  0  0  0  0  0  0  0  0  0  0
  -21.7261  -18.7481   23.0219 C   0  0  0  0  0  0  0  0  0  0  0  0
  -29.5151  -12.0013   20.6463 C   0  0  0  0  0  0  0  0  0  0  0  0
  -29.4408  -24.0670   19.8221 C   0  0  1  0  0  0  0  0  0  0  0  0
  -27.6119  -21.2906   21.6606 C   0  0  1  0  0  0  0  0  0  0  0  0
  -20.8828  -19.4993   21.9787 C   0  0  2  0  0  0  0  0  0  0  0  0
  -27.9772  -13.0443   19.0458 C   0  0  2  0  0  0  0  0  0  0  0  0
  -27.6482  -14.3254   23.3909 C   0  0  0  0  0  0  0  0  0  0  0  0
  -25.6844  -16.3560   23.9929 C   0  0  0  0  0  0  0  0  0  0  0  0
  -28.7397  -17.7906   28.5797 C   0  0  0  0  0  0  0  0  0  0  0  0
  -31.7644  -21.6340   23.6604 C   0  0  0  0  0  0  0  0  0  0  0  0
  -32.0130  -20.4333   25.8432 C   0  0  0  0  0  0  0  0  0  0  0  0
  -30.6925  -22.5464   25.7275 C   0  0  0  0  0  0  0  0  0  0  0  0
  -25.7937  -18.8345   26.4100 C   0  0  0  0  0  0  0  0  0  0  0  0
  -27.1059  -12.3505   21.3172 C   0  0  0  0  0  0  0  0  0  0  0  0
  -27.4980  -14.4572   18.7684 C   0  0  0  0  0  0  0  0  0  1  0  0
  -29.7395  -20.4326   24.7198 C   0  0  1  0  0  0  0  0  0  0  0  0
  -27.9936  -18.6605   27.5801 C   0  0  2  0  0  0  0  0  0  0  0  0
  -31.0397  -21.2489   24.9656 C   0  0  0  0  0  0  0  0  0  0  0  0
  -20.8402  -21.9111   22.4916 N   0  0  0  0  0  0  0  0  0  0  0  0
  -21.3765  -20.9177   21.7625 N   0  0  0  0  0  0  0  0  0  0  0  0
  -28.4009  -20.5422   22.6413 N   0  0  0  0  0  0  0  0  0  0  0  0
  -21.2152  -17.3784   23.1876 N   0  0  0  0  0  0  0  0  0  0  0  0
  -22.9775  -20.4639   20.0768 N   0  0  0  0  0  0  0  0  0  0  0  0
  -24.5946  -23.8028   20.8704 N   0  0  0  0  0  0  0  0  0  0  0  0
  -23.2438  -16.3747   22.5244 N   0  0  0  0  0  0  0  0  0  0  0  0
  -28.5821  -23.2796   20.6808 N   0  0  0  0  0  0  0  0  0  0  0  0
  -29.0179  -20.0773   25.9369 N   0  0  0  0  0  0  0  0  0  0  0  0
  -28.2713  -12.8662   20.5291 N   0  3  1  0  0  0  0  0  0  0  0  0
  -26.6451  -18.0673   27.3554 N   0  3  0  0  0  0  0  0  0  0  0  0
  -22.9843  -24.1296   19.2707 O   0  0  0  0  0  0  0  0  0  0  0  0
  -29.2828  -21.1668   19.9970 O   0  0  0  0  0  0  0  0  0  0  0  0
  -28.3094  -22.2573   24.2181 O   0  0  0  0  0  0  0  0  0  0  0  0
  -29.0718  -17.7831   25.6040 O   0  0  0  0  0  0  0  0  0  0  0  0
  -21.4227  -15.0765   23.1406 O   0  0  0  0  0  0  0  0  0  0  0  0
  -20.3254  -28.0239   24.1991 O   0  0  0  0  0  0  0  0  0  0  0  0
  -28.4664  -15.3818   19.2622 O   0  0  0  0  0  0  0  0  0  1  0  0
  -15.6260  -30.4470   22.6344 F   0  0  0  0  0  0  0  0  0  0  0  0
  -20.3507  -30.4755   22.9219 F   0  0  0  0  0  0  0  0  0  0  0  0
  -22.4705  -14.4285   20.3337 Cl  0  0  0  0  0  0  0  0  0  0  0  0
  1  2  1  0  0  0  0
  1  5  2  0  0  0  0
  2  6  2  0  0  0  0
  3  8  2  0  0  0  0
  3 16  1  0  0  0  0
  4  9  1  0  0  0  0
  4 16  2  0  0  0  0
  5 18  1  0  0  0  0
  6 20  1  0  0  0  0
  7 10  2  0  0  0  0
  7 19  1  0  0  0  0
  8 26  1  0  0  0  0
  9 26  2  0  0  0  0
 10 27  1  0  0  0  0
 11 12  2  0  0  0  0
 11 28  1  0  0  0  0
 12 29  1  0  0  0  0
 13 21  1  0  0  0  0
 13 27  2  0  0  0  0
 14 22  1  0  0  0  0
 14 31  2  0  0  0  0
 15 29  2  0  0  0  0
 15 30  1  0  0  0  0
 16 32  1  0  0  0  0
 17 32  1  0  0  0  0
 17 33  2  0  0  0  0
 17 34  1  0  0  0  0
 18 20  2  0  0  0  0
 18 39  1  0  0  0  0
 19 21  2  0  0  0  0
 19 40  1  0  0  0  0
 20 51  1  0  0  0  0
 21 41  1  0  0  0  0
 22 23  2  0  0  0  0
 22 62  1  0  0  0  0
 23 24  1  0  0  0  0
 23 55  1  0  0  0  0
 24 25  2  0  0  0  0
 24 56  1  0  0  0  0
 25 31  1  0  0  0  0
 25 73  1  0  0  0  0
 26 83  1  0  0  0  0
 27 84  1  0  0  0  0
 28 30  2  0  0  0  0
 28 83  1  0  0  0  0
 29 85  1  0  0  0  0
 30 86  1  0  0  0  0
 31 87  1  0  0  0  0
 32 67  2  0  0  0  0
 33 68  1  0  0  0  0
 33 71  1  0  0  0  0
 34 72  1  0  0  0  0
 34 78  2  0  0  0  0
 35 52  1  0  0  0  0
 35 74  1  0  0  0  0
 35 79  2  0  0  0  0
 36 64  1  0  0  0  0
 36 69  1  0  0  0  0
 36 80  2  0  0  0  0
 37 65  1  0  0  0  0
 37 75  1  0  0  0  0
 37 81  2  0  0  0  0
 38 70  1  0  0  0  0
 38 73  1  0  0  0  0
 38 82  2  0  0  0  0
 39 42  1  0  0  0  0
 40 52  1  0  0  0  0
 41 69  1  0  0  0  0
 42 45  1  0  0  0  0
 43 46  1  0  0  0  0
 43 48  1  0  0  0  0
 44 47  1  0  0  0  0
 44 50  1  0  0  0  0
 45 51  1  0  0  0  0
 46 53  1  0  0  0  0
 47 54  1  0  0  0  0
 48 70  1  0  0  0  0
 49 53  1  0  0  0  0
 49 70  1  0  0  0  0
 50 76  1  0  0  0  0
 51 74  1  0  0  0  0
 52 69  1  0  0  0  0
 53 68  1  0  0  0  0
 54 63  1  0  0  0  0
 54 76  1  0  0  0  0
 57 65  1  0  0  0  0
 58 66  1  0  0  0  0
 59 66  1  0  0  0  0
 60 66  1  0  0  0  0
 61 77  1  0  0  0  0
 62 76  1  0  0  0  0
 63 84  1  0  0  0  0
 64 66  1  0  0  0  0
 64 75  1  0  0  0  0
 65 77  1  0  0  0  0
 67 68  1  0  0  0  0
M  CHG  2  76   1  77   1
M  ISO  4  38 100  63 101  73 100  84 101
M  END
> <Batch ID>
0038

> <Smiles>
CNC(C)C(=O)NC(C(=O)N1Cc2cc([101O:1][101CH2:1]C3CCCN3Cc3cc(Cl)c([100NH:0][100C:0](=O)N4CCCC(n5nc(-c6ccc(Oc7ccc(F)cc7F)cc6)c(C(N)=O)c5N)C4)c(C)c3C)ccc2CC1C(=O)NC1CCCc2ccccc21)C(C)(C)C

> <Shape>
0.195

> <Color>
0.045

> <Negative vol penalty>
0.000

$$$$

  -OEChem-04042322003D

 87 96  0     1  0  0  0  0  0999 V2000
  -37.6666  -10.5449   21.2731 C   0  0  0  0  0  0  0  0  0  0  0  0
  -37.2356  -11.8625   21.1568 C   0  0  0  0  0  0  0  0  0  0  0  0
  -22.6293  -10.2809   20.2331 C   0  0  0  0  0  0  0  0  0  0  0  0
  -24.2471   -9.5352   21.8652 C   0  0  0  0  0  0  0  0  0  0  0  0
  -37.1809   -9.7423   22.3046 C   0  0  0  0  0  0  0  0  0  0  0  0
  -36.3177  -12.3780   22.0712 C   0  0  0  0  0  0  0  0  0  0  0  0
  -37.5868  -17.0016   23.7010 C   0  0  0  0  0  0  0  0  0  0  0  0
  -31.7160  -19.2488   22.9749 C   0  0  0  0  0  0  0  0  0  0  0  0
  -31.3427  -18.2429   23.8662 C   0  0  0  0  0  0  0  0  0  0  0  0
  -21.8727   -9.1308   20.4576 C   0  0  0  0  0  0  0  0  0  0  0  0
  -23.4904   -8.3851   22.0897 C   0  0  0  0  0  0  0  0  0  0  0  0
  -37.3257  -18.0719   22.8466 C   0  0  0  0  0  0  0  0  0  0  0  0
  -22.9769   -5.4060   20.5756 C   0  0  0  0  0  0  0  0  0  0  0  0
  -23.6531   -4.1878   20.6397 C   0  0  0  0  0  0  0  0  0  0  0  0
  -35.3302  -18.5802   24.1031 C   0  0  0  0  0  0  0  0  0  0  0  0
  -22.8484   -3.8597   22.8940 C   0  0  0  0  0  0  0  0  0  0  0  0
  -23.8165  -10.4831   20.9369 C   0  0  0  0  0  0  0  0  0  0  0  0
  -24.1920  -13.0059   20.8883 C   0  0  0  0  0  0  0  0  0  0  0  0
  -36.2640  -10.2511   23.2379 C   0  0  0  0  0  0  0  0  0  0  0  0
  -36.7143  -16.7055   24.7582 C   0  0  0  0  0  0  0  0  0  0  0  0
  -35.8183  -11.5811   23.1153 C   0  0  0  0  0  0  0  0  0  0  0  0
  -35.5839  -17.5073   24.9711 C   0  0  0  0  0  0  0  0  0  0  0  0
  -31.5688  -19.0538   21.6016 C   0  0  0  0  0  0  0  0  0  0  0  0
  -30.8223  -17.0419   23.3841 C   0  0  0  0  0  0  0  0  0  0  0  0
  -31.0484  -17.8528   21.1195 C   0  0  0  0  0  0  0  0  0  0  0  0
  -30.6751  -16.8468   22.0108 C   0  0  0  0  0  0  0  0  0  0  0  0
  -22.3032   -8.1829   21.3858 C   0  0  0  0  0  0  0  0  0  0  0  0
  -36.1957  -18.8596   23.0457 C   0  0  0  0  0  0  0  0  0  0  0  0
  -22.2365   -5.8513   21.6707 C   0  0  0  0  0  0  0  0  0  0  0  0
  -23.5888   -3.4146   21.7989 C   0  0  0  0  0  0  0  0  0  0  0  0
  -22.1722   -5.0781   22.8299 C   0  0  0  0  0  0  0  0  0  0  0  0
  -24.5988  -11.6707   20.7051 C   0  0  0  0  0  0  0  0  0  0  0  0
  -25.2898  -13.7511   20.5336 C   0  0  0  0  0  0  0  0  0  0  0  0
  -22.9341  -13.5260   21.3389 C   0  0  0  0  0  0  0  0  0  0  0  0
  -34.8997  -14.2151   25.5383 C   0  0  0  0  0  0  0  0  0  0  0  0
  -34.3901  -15.9297   28.2444 C   0  0  0  0  0  0  0  0  0  0  0  0
  -33.7844  -19.3822   29.0994 C   0  0  0  0  0  0  0  0  0  0  0  0
  -30.7718  -14.7169   20.6690 C   0  0  0  0  0  0  0  0  0  0  0  0
  -35.7311   -9.3313   24.3077 C   0  0  0  0  0  0  0  0  0  0  0  0
  -37.0244  -15.5639   25.6871 C   0  0  0  0  0  0  0  0  0  0  0  0
  -34.6266  -17.2437   26.1036 C   0  0  0  0  0  0  0  0  0  0  0  0
  -35.0461  -10.0662   25.4571 C   0  0  0  0  0  0  0  0  0  0  0  0
  -29.5944  -12.3909   18.2440 C   0  0  0  0  0  0  0  0  0  0  0  0
  -34.0902  -11.1259   24.9187 C   0  0  0  0  0  0  0  0  0  0  0  0
  -28.1563  -12.1060   18.6832 C   0  0  0  0  0  0  0  0  0  0  0  0
  -36.2346  -20.7693   19.9705 C   0  0  0  0  0  0  0  0  0  0  0  0
  -35.3359  -21.9892   20.1368 C   0  0  0  0  0  0  0  0  0  0  0  0
  -30.5275  -12.5710   19.4400 C   0  0  0  0  0  0  0  0  0  0  0  0
  -28.6482  -13.2792   20.8669 C   0  0  0  0  0  0  0  0  0  0  0  0
  -34.2960  -19.2779   20.5842 C   0  0  0  0  0  0  0  0  0  0  0  0
  -34.8424  -12.1839   24.1024 C   0  0  1  0  0  0  0  0  0  0  0  0
  -35.7940  -15.0393   26.4207 C   0  0  1  0  0  0  0  0  0  0  0  0
  -27.6585  -13.1547   19.6971 C   0  0  2  0  0  0  0  0  0  0  0  0
  -35.7615  -19.6040   20.8303 C   0  0  2  0  0  0  0  0  0  1  0  0
  -33.8608  -21.6650   19.8718 C   0  0  2  0  0  0  0  0  0  0  0  0
  -30.4320  -15.9830   24.3641 C   0  0  0  0  0  0  0  0  0  0  0  0
  -30.8946  -17.6499   19.6445 C   0  0  0  0  0  0  0  0  0  0  0  0
  -33.0056  -22.9039   20.1308 C   0  0  0  0  0  0  0  0  0  0  0  0
  -34.2690  -20.6494   31.2105 C   0  0  0  0  0  0  0  0  0  0  0  0
  -31.5192  -15.2139   28.9899 C   0  0  0  0  0  0  0  0  0  0  0  0
  -31.2893  -17.4905   30.0062 C   0  0  0  0  0  0  0  0  0  0  0  0
  -32.9627  -15.8818   30.9199 C   0  0  0  0  0  0  0  0  0  0  0  0
  -35.3441  -21.4353   27.6464 C   0  0  0  0  0  0  0  0  0  0  0  0
  -31.9785  -20.1524   20.6655 C   0  0  0  0  0  0  0  0  0  0  0  0
  -33.3857  -16.9702   28.6775 C   0  0  1  0  0  0  0  0  0  0  0  0
  -34.7433  -20.3261   29.8022 C   0  0  2  0  0  0  0  0  0  0  0  0
  -32.2967  -16.3861   29.6211 C   0  0  0  0  0  0  0  0  0  0  0  0
  -25.8569  -11.5704   20.2679 N   0  0  0  0  0  0  0  0  0  0  0  0
  -26.2500  -12.8521   20.1732 N   0  0  0  0  0  0  0  0  0  0  0  0
  -34.9698  -16.1122   26.9809 N   0  0  0  0  0  0  0  0  0  0  0  0
  -29.9940  -13.5823   20.3551 N   0  0  0  0  0  0  0  0  0  0  0  0
  -25.5178  -15.0812   20.4979 N   0  0  0  0  0  0  0  0  0  0  0  0
  -22.7495  -13.7310   22.7130 N   0  0  0  0  0  0  0  0  0  0  0  0
  -30.1476  -15.6255   21.5231 N   0  0  0  0  0  0  0  0  0  0  0  0
  -35.5198  -13.1130   24.9813 N   0  0  0  0  0  0  0  0  0  0  0  0
  -34.1562  -18.0640   29.2592 N   0  0  0  0  0  0  0  0  0  0  0  0
  -33.4391  -20.5171   20.7845 N   0  3  1  0  0  0  0  0  0  0  0  0
  -34.8640  -21.6024   29.0423 N   0  3  0  0  0  0  0  0  0  0  0  0
  -21.9956  -13.7853   20.5480 O   0  0  0  0  0  0  0  0  0  0  0  0
  -33.7330  -14.5532   25.3761 O   0  0  0  0  0  0  0  0  0  0  0  0
  -34.6559  -14.9935   29.0023 O   0  0  0  0  0  0  0  0  0  0  0  0
  -32.8016  -19.7747   28.4745 O   0  0  0  0  0  0  0  0  0  0  0  0
  -31.8972  -14.8843   20.1921 O   0  0  0  0  0  0  0  0  0  0  0  0
  -21.5651   -7.0606   21.6053 O   0  0  0  0  0  0  0  0  0  0  0  0
  -35.9380  -19.9045   22.2128 O   0  0  0  0  0  0  0  0  0  1  0  0
  -24.2369   -2.2440   21.8598 F   0  0  0  0  0  0  0  0  0  0  0  0
  -21.4616   -5.5000   23.8848 F   0  0  0  0  0  0  0  0  0  0  0  0
  1  2  1  0  0  0  0
  1  5  2  0  0  0  0
  2  6  2  0  0  0  0
  3 10  2  0  0  0  0
  3 17  1  0  0  0  0
  4 11  1  0  0  0  0
  4 17  2  0  0  0  0
  5 19  1  0  0  0  0
  6 21  1  0  0  0  0
  7 12  2  0  0  0  0
  7 20  1  0  0  0  0
  8  9  2  0  0  0  0
  8 23  1  0  0  0  0
  9 24  1  0  0  0  0
 10 27  1  0  0  0  0
 11 27  2  0  0  0  0
 12 28  1  0  0  0  0
 13 14  2  0  0  0  0
 13 29  1  0  0  0  0
 14 30  1  0  0  0  0
 15 22  1  0  0  0  0
 15 28  2  0  0  0  0
 16 30  2  0  0  0  0
 16 31  1  0  0  0  0
 17 32  1  0  0  0  0
 18 32  1  0  0  0  0
 18 33  2  0  0  0  0
 18 34  1  0  0  0  0
 19 21  2  0  0  0  0
 19 39  1  0  0  0  0
 20 22  2  0  0  0  0
 20 40  1  0  0  0  0
 21 51  1  0  0  0  0
 22 41  1  0  0  0  0
 23 25  2  0  0  0  0
 23 64  1  0  0  0  0
 24 26  2  0  0  0  0
 24 56  1  0  0  0  0
 25 26  1  0  0  0  0
 25 57  1  0  0  0  0
 26 74  1  0  0  0  0
 27 84  1  0  0  0  0
 28 85  1  0  0  0  0
 29 31  2  0  0  0  0
 29 84  1  0  0  0  0
 30 86  1  0  0  0  0
 31 87  1  0  0  0  0
 32 68  2  0  0  0  0
 33 69  1  0  0  0  0
 33 72  1  0  0  0  0
 34 73  1  0  0  0  0
 34 79  2  0  0  0  0
 35 52  1  0  0  0  0
 35 75  1  0  0  0  0
 35 80  2  0  0  0  0
 36 65  1  0  0  0  0
 36 70  1  0  0  0  0
 36 81  2  0  0  0  0
 37 66  1  0  0  0  0
 37 76  1  0  0  0  0
 37 82  2  0  0  0  0
 38 71  1  0  0  0  0
 38 74  1  0  0  0  0
 38 83  2  0  0  0  0
 39 42  1  0  0  0  0
 40 52  1  0  0  0  0
 41 70  1  0  0  0  0
 42 44  1  0  0  0  0
 43 45  1  0  0  0  0
 43 48  1  0  0  0  0
 44 51  1  0  0  0  0
 45 53  1  0  0  0  0
 46 47  1  0  0  0  0
 46 54  1  0  0  0  0
 47 55  1  0  0  0  0
 48 71  1  0  0  0  0
 49 53  1  0  0  0  0
 49 71  1  0  0  0  0
 50 54  1  0  0  0  0
 50 77  1  0  0  0  0
 51 75  1  0  0  0  0
 52 70  1  0  0  0  0
 53 69  1  0  0  0  0
 54 85  1  0  0  0  0
 55 58  1  0  0  0  0
 55 77  1  0  0  0  0
 59 66  1  0  0  0  0
 60 67  1  0  0  0  0
 61 67  1  0  0  0  0
 62 67  1  0  0  0  0
 63 78  1  0  0  0  0
 64 77  1  0  0  0  0
 65 67  1  0  0  0  0
 65 76  1  0  0  0  0
 66 78  1  0  0  0  0
 68 69  1  0  0  0  0
M  CHG  2  77   1  78   1
M  ISO  4  38 100  54 101  74 100  85 101
M  END
> <Batch ID>
0038

> <Smiles>
CNC(C)C(=O)NC(C(=O)N1Cc2cc([101O:1][101CH:1]3CCC(C)N(Cc4ccc(C)c([100NH:0][100C:0](=O)N5CCCC(n6nc(-c7ccc(Oc8ccc(F)cc8F)cc7)c(C(N)=O)c6N)C5)c4C)C3)ccc2CC1C(=O)NC1CCCc2ccccc21)C(C)(C)C

> <Shape>
0.176

> <Color>
0.169

> <Negative vol penalty>
0.000

$$$$

  -OEChem-04042322003D

 88 97  0     1  0  0  0  0  0999 V2000
  -29.2993  -32.2548   16.1473 C   0  0  0  0  0  0  0  0  0  0  0  0
  -29.1726  -31.0761   16.8754 C   0  0  0  0  0  0  0  0  0  0  0  0
  -24.6332   -9.0004   21.1994 C   0  0  0  0  0  0  0  0  0  0  0  0
  -22.8066  -10.3996   20.4627 C   0  0  0  0  0  0  0  0  0  0  0  0
  -29.0483  -33.4817   16.7601 C   0  0  0  0  0  0  0  0  0  0  0  0
  -28.7958  -31.1238   18.2171 C   0  0  0  0  0  0  0  0  0  0  0  0
  -25.2756  -27.6708   19.3703 C   0  0  0  0  0  0  0  0  0  0  0  0
  -23.7353   -7.9650   21.4592 C   0  0  0  0  0  0  0  0  0  0  0  0
  -21.9087   -9.3643   20.7225 C   0  0  0  0  0  0  0  0  0  0  0  0
  -25.7063  -26.3565   19.5454 C   0  0  0  0  0  0  0  0  0  0  0  0
  -21.5291   -7.1307   23.8801 C   0  0  0  0  0  0  0  0  0  0  0  0
  -21.6688   -6.4394   25.0835 C   0  0  0  0  0  0  0  0  0  0  0  0
  -25.6569  -26.6653   21.9374 C   0  0  0  0  0  0  0  0  0  0  0  0
  -27.2988  -18.9773   15.2381 C   0  0  0  0  0  0  0  0  0  0  0  0
  -26.3934  -19.9213   17.7022 C   0  0  0  0  0  0  0  0  0  0  0  0
  -22.0202   -4.3846   23.8623 C   0  0  0  0  0  0  0  0  0  0  0  0
  -24.1688  -10.2177   20.7012 C   0  0  0  0  0  0  0  0  0  0  0  0
  -26.1825  -11.2670   19.5385 C   0  0  0  0  0  0  0  0  0  0  0  0
  -28.6589  -33.5439   18.1074 C   0  0  0  0  0  0  0  0  0  0  0  0
  -25.0424  -28.4971   20.4790 C   0  0  0  0  0  0  0  0  0  0  0  0
  -28.5407  -32.3528   18.8489 C   0  0  0  0  0  0  0  0  0  0  0  0
  -25.2208  -27.9890   21.7737 C   0  0  0  0  0  0  0  0  0  0  0  0
  -26.9141  -20.3110   15.3753 C   0  0  0  0  0  0  0  0  0  0  0  0
  -27.2308  -18.1156   16.3329 C   0  0  0  0  0  0  0  0  0  0  0  0
  -26.4614  -20.7830   16.6073 C   0  0  0  0  0  0  0  0  0  0  0  0
  -26.7781  -18.5876   17.5649 C   0  0  0  0  0  0  0  0  0  0  0  0
  -22.3731   -8.1470   21.2207 C   0  0  0  0  0  0  0  0  0  0  0  0
  -25.8997  -25.8544   20.8290 C   0  0  0  0  0  0  0  0  0  0  0  0
  -21.6349   -6.4489   22.6678 C   0  0  0  0  0  0  0  0  0  0  0  0
  -21.9144   -5.0664   25.0746 C   0  0  0  0  0  0  0  0  0  0  0  0
  -21.8804   -5.0759   22.6589 C   0  0  0  0  0  0  0  0  0  0  0  0
  -25.0957  -11.2878   20.4332 C   0  0  0  0  0  0  0  0  0  0  0  0
  -26.7430  -12.5159   19.6501 C   0  0  0  0  0  0  0  0  0  0  0  0
  -26.2179  -23.4045   18.9345 C   0  0  0  0  0  0  0  0  0  0  0  0
  -26.6439  -10.2130   18.6830 C   0  0  0  0  0  0  0  0  0  0  0  0
  -26.2846  -31.2210   21.5474 C   0  0  0  0  0  0  0  0  0  0  0  0
  -23.9034  -30.9944   23.7385 C   0  0  0  0  0  0  0  0  0  0  0  0
  -21.7147  -29.0073   25.4436 C   0  0  0  0  0  0  0  0  0  0  0  0
  -26.2730  -18.0546   19.9747 C   0  0  0  0  0  0  0  0  0  0  0  0
  -28.4443  -34.8963   18.7393 C   0  0  0  0  0  0  0  0  0  0  0  0
  -24.5524  -29.9043   20.2739 C   0  0  0  0  0  0  0  0  0  0  0  0
  -24.9649  -28.8289   22.9975 C   0  0  0  0  0  0  0  0  0  0  0  0
  -27.6858  -34.8368   20.0628 C   0  0  0  0  0  0  0  0  0  0  0  0
  -29.3376  -22.7056   19.8155 C   0  0  0  0  0  0  0  0  0  0  0  0
  -29.1051  -22.1198   18.4265 C   0  0  0  0  0  0  0  0  0  0  0  0
  -25.9037  -16.2157   23.0011 C   0  0  0  0  0  0  0  0  0  0  0  0
  -28.2563  -33.7399   20.9562 C   0  0  0  0  0  0  0  0  0  0  0  0
  -28.0670  -22.9746   20.6160 C   0  0  0  0  0  0  0  0  0  0  0  0
  -25.7500  -14.7680   22.5292 C   0  0  0  0  0  0  0  0  0  0  0  0
  -28.2696  -23.0176   17.5216 C   0  0  0  0  0  0  0  0  0  0  0  0
  -25.2159  -17.1971   22.0537 C   0  0  0  0  0  0  0  0  0  0  0  0
  -25.4501  -15.6256   20.1709 C   0  0  0  0  0  0  0  0  0  0  0  0
  -28.1100  -32.3619   20.2996 C   0  0  1  0  0  0  0  0  0  0  0  0
  -27.1453  -24.0154   19.9809 C   0  0  2  0  0  0  0  0  0  1  0  0
  -24.8400  -30.8165   21.4624 C   0  0  1  0  0  0  0  0  0  0  0  0
  -26.1819  -14.6057   21.0586 C   0  0  2  0  0  0  0  0  0  0  0  0
  -26.9951  -21.2148   14.1892 C   0  0  0  0  0  0  0  0  0  0  0  0
  -27.6495  -16.6919   16.1571 C   0  0  0  0  0  0  0  0  0  0  0  0
  -19.9203  -29.1036   27.1953 C   0  0  0  0  0  0  0  0  0  0  0  0
  -26.0344  -31.2977   25.9011 C   0  0  0  0  0  0  0  0  0  0  0  0
  -24.3675  -30.4482   27.5649 C   0  0  0  0  0  0  0  0  0  0  0  0
  -23.9244  -32.5699   26.3300 C   0  0  0  0  0  0  0  0  0  0  0  0
  -19.6704  -27.9687   23.5723 C   0  0  0  0  0  0  0  0  0  0  0  0
  -26.0417  -22.2143   16.7789 C   0  0  0  0  0  0  0  0  0  0  0  0
  -23.7629  -30.3650   25.1034 C   0  0  1  0  0  0  0  0  0  0  0  0
  -20.2256  -29.1427   25.7060 C   0  0  2  0  0  0  0  0  0  0  0  0
  -24.5291  -31.1547   26.2020 C   0  0  0  0  0  0  0  0  0  0  0  0
  -24.9716  -12.4572   21.0665 N   0  0  0  0  0  0  0  0  0  0  0  0
  -25.9876  -13.1828   20.5693 N   0  0  0  0  0  0  0  0  0  0  0  0
  -26.8361  -22.8979   17.7916 N   0  0  0  0  0  0  0  0  0  0  0  0
  -24.4930  -30.2004   22.7447 N   0  0  0  0  0  0  0  0  0  0  0  0
  -25.6773  -16.9874   20.6796 N   0  0  0  0  0  0  0  0  0  0  0  0
  -27.8035  -13.0978   19.0508 N   0  0  0  0  0  0  0  0  0  0  0  0
  -25.9522   -8.9941   18.6918 N   0  0  0  0  0  0  0  0  0  0  0  0
  -26.7020  -17.7279   18.6887 N   0  0  0  0  0  0  0  0  0  0  0  0
  -26.7504  -31.8829   20.4274 N   0  0  0  0  0  0  0  0  0  0  0  0
  -22.3304  -30.2374   25.3485 N   0  0  0  0  0  0  0  0  0  0  0  0
  -19.4802  -28.0348   25.0442 N   0  3  0  0  0  0  0  0  0  0  0  0
  -24.9988  -23.3727   19.1217 O   0  0  0  0  0  0  0  0  0  0  0  0
  -27.6500  -10.3426   17.9451 O   0  0  0  0  0  0  0  0  0  0  0  0
  -26.9286  -30.9537   22.5551 O   0  0  0  0  0  0  0  0  0  0  0  0
  -23.4983  -32.1456   23.5588 O   0  0  0  0  0  0  0  0  0  0  0  0
  -22.2761  -27.9191   25.3375 O   0  0  0  0  0  0  0  0  0  0  0  0
  -26.4182  -19.1684   20.4848 O   0  0  0  0  0  0  0  0  0  0  0  0
  -21.4967   -7.1368   21.4739 O   0  0  0  0  0  0  0  0  0  0  0  0
  -26.3207  -24.5720   21.0028 O   0  0  0  0  0  0  0  0  0  1  0  0
  -22.0500   -4.4029   26.2303 F   0  0  0  0  0  0  0  0  0  0  0  0
  -21.9843   -4.4157   21.4973 F   0  0  0  0  0  0  0  0  0  0  0  0
  1  2  1  0  0  0  0
  1  5  2  0  0  0  0
  2  6  2  0  0  0  0
  3  8  2  0  0  0  0
  3 17  1  0  0  0  0
  4  9  1  0  0  0  0
  4 17  2  0  0  0  0
  5 19  1  0  0  0  0
  6 21  1  0  0  0  0
  7 10  2  0  0  0  0
  7 20  1  0  0  0  0
  8 27  1  0  0  0  0
  9 27  2  0  0  0  0
 10 28  1  0  0  0  0
 11 12  2  0  0  0  0
 11 29  1  0  0  0  0
 12 30  1  0  0  0  0
 13 22  1  0  0  0  0
 13 28  2  0  0  0  0
 14 23  1  0  0  0  0
 14 24  2  0  0  0  0
 15 25  1  0  0  0  0
 15 26  2  0  0  0  0
 16 30  2  0  0  0  0
 16 31  1  0  0  0  0
 17 32  1  0  0  0  0
 18 32  1  0  0  0  0
 18 33  2  0  0  0  0
 18 35  1  0  0  0  0
 19 21  2  0  0  0  0
 19 40  1  0  0  0  0
 20 22  2  0  0  0  0
 20 41  1  0  0  0  0
 21 53  1  0  0  0  0
 22 42  1  0  0  0  0
 23 25  2  0  0  0  0
 23 57  1  0  0  0  0
 24 26  1  0  0  0  0
 24 58  1  0  0  0  0
 25 64  1  0  0  0  0
 26 75  1  0  0  0  0
 27 85  1  0  0  0  0
 28 86  1  0  0  0  0
 29 31  2  0  0  0  0
 29 85  1  0  0  0  0
 30 87  1  0  0  0  0
 31 88  1  0  0  0  0
 32 68  2  0  0  0  0
 33 69  1  0  0  0  0
 33 73  1  0  0  0  0
 34 54  1  0  0  0  0
 34 70  1  0  0  0  0
 34 79  2  0  0  0  0
 35 74  1  0  0  0  0
 35 80  2  0  0  0  0
 36 55  1  0  0  0  0
 36 76  1  0  0  0  0
 36 81  2  0  0  0  0
 37 65  1  0  0  0  0
 37 71  1  0  0  0  0
 37 82  2  0  0  0  0
 38 66  1  0  0  0  0
 38 77  1  0  0  0  0
 38 83  2  0  0  0  0
 39 72  1  0  0  0  0
 39 75  1  0  0  0  0
 39 84  2  0  0  0  0
 40 43  1  0  0  0  0
 41 55  1  0  0  0  0
 42 71  1  0  0  0  0
 43 47  1  0  0  0  0
 44 45  1  0  0  0  0
 44 48  1  0  0  0  0
 45 50  1  0  0  0  0
 46 49  1  0  0  0  0
 46 51  1  0  0  0  0
 47 53  1  0  0  0  0
 48 54  1  0  0  0  0
 49 56  1  0  0  0  0
 50 70  1  0  0  0  0
 51 72  1  0  0  0  0
 52 56  1  0  0  0  0
 52 72  1  0  0  0  0
 53 76  1  0  0  0  0
 54 86  1  0  0  0  0
 55 71  1  0  0  0  0
 56 69  1  0  0  0  0
 59 66  1  0  0  0  0
 60 67  1  0  0  0  0
 61 67  1  0  0  0  0
 62 67  1  0  0  0  0
 63 78  1  0  0  0  0
 64 70  1  0  0  0  0
 65 67  1  0  0  0  0
 65 77  1  0  0  0  0
 66 78  1  0  0  0  0
 68 69  1  0  0  0  0
M  CHG  1  78   1
M  ISO  4  39 100  54 101  75 100  86 101
M  END
> <Batch ID>
0038

> <Smiles>
CNC(C)C(=O)NC(C(=O)N1Cc2cc([101O:1][101CH:1]3CCCCN(Cc4cc([100NH:0][100C:0](=O)N5CCCC(n6nc(-c7ccc(Oc8ccc(F)cc8F)cc7)c(C(N)=O)c6N)C5)c(C)cc4C)C3=O)ccc2CC1C(=O)NC1CCCc2ccccc21)C(C)(C)C

> <Shape>
0.239

> <Color>
0.092

> <Negative vol penalty>
0.000

$$$$

  -OEChem-04042322003D

 88 97  0     1  0  0  0  0  0999 V2000
  -27.9939  -31.7608   27.0911 C   0  0  0  0  0  0  0  0  0  0  0  0
  -28.1796  -30.9349   25.9872 C   0  0  0  0  0  0  0  0  0  0  0  0
  -22.9275  -11.1429   22.6767 C   0  0  0  0  0  0  0  0  0  0  0  0
  -24.5147   -9.4625   21.9734 C   0  0  0  0  0  0  0  0  0  0  0  0
  -26.7831  -31.7373   27.7820 C   0  0  0  0  0  0  0  0  0  0  0  0
  -27.1549  -30.0841   25.5741 C   0  0  0  0  0  0  0  0  0  0  0  0
  -26.4759  -30.1541   20.5562 C   0  0  0  0  0  0  0  0  0  0  0  0
  -22.3332  -10.2209   23.5383 C   0  0  0  0  0  0  0  0  0  0  0  0
  -23.9204   -8.5406   22.8351 C   0  0  0  0  0  0  0  0  0  0  0  0
  -27.3802  -29.4294   19.7811 C   0  0  0  0  0  0  0  0  0  0  0  0
  -21.1709   -6.5733   22.8668 C   0  0  0  0  0  0  0  0  0  0  0  0
  -20.9237   -5.2919   22.3744 C   0  0  0  0  0  0  0  0  0  0  0  0
  -25.7785  -27.6347   19.6010 C   0  0  0  0  0  0  0  0  0  0  0  0
  -28.6339  -20.9942   20.4798 C   0  0  0  0  0  0  0  0  0  0  0  0
  -22.3471   -4.3584   24.0889 C   0  0  0  0  0  0  0  0  0  0  0  0
  -24.0182  -10.7637   21.8942 C   0  0  0  0  0  0  0  0  0  0  0  0
  -24.0214  -12.3930   19.9314 C   0  0  0  0  0  0  0  0  0  0  0  0
  -25.7396  -30.8928   27.3714 C   0  0  0  0  0  0  0  0  0  0  0  0
  -25.2180  -29.6190   20.8692 C   0  0  0  0  0  0  0  0  0  0  0  0
  -25.9295  -30.0483   26.2609 C   0  0  0  0  0  0  0  0  0  0  0  0
  -24.8590  -28.3556   20.3781 C   0  0  0  0  0  0  0  0  0  0  0  0
  -27.8162  -21.6018   19.5270 C   0  0  0  0  0  0  0  0  0  0  0  0
  -27.1237  -20.8205   18.6020 C   0  0  0  0  0  0  0  0  0  0  0  0
  -28.0666  -18.8239   19.5827 C   0  0  0  0  0  0  0  0  0  0  0  0
  -22.8296   -8.9198   23.6176 C   0  0  0  0  0  0  0  0  0  0  0  0
  -27.0327  -28.1683   19.3058 C   0  0  0  0  0  0  0  0  0  0  0  0
  -22.0063   -6.7473   23.9703 C   0  0  0  0  0  0  0  0  0  0  0  0
  -21.5118   -4.1844   22.9854 C   0  0  0  0  0  0  0  0  0  0  0  0
  -22.5944   -5.6398   24.5813 C   0  0  0  0  0  0  0  0  0  0  0  0
  -28.7591  -19.6053   20.5076 C   0  0  0  0  0  0  0  0  0  0  0  0
  -27.2489  -19.4315   18.6299 C   0  0  0  0  0  0  0  0  0  0  0  0
  -24.6322  -11.7154   21.0035 C   0  0  0  0  0  0  0  0  0  0  0  0
  -25.0205  -13.1755   19.4059 C   0  0  0  0  0  0  0  0  0  0  0  0
  -27.9508  -25.0643   18.1170 C   0  0  0  0  0  0  0  0  0  0  0  0
  -27.1867  -25.1959   17.0201 C   0  0  0  0  0  0  0  0  0  0  0  0
  -22.6716  -12.3217   19.4532 C   0  0  0  0  0  0  0  0  0  0  0  0
  -23.7258  -28.8223   23.5603 C   0  0  0  0  0  0  0  0  0  0  0  0
  -21.2224  -28.3103   21.5620 C   0  0  0  0  0  0  0  0  0  0  0  0
  -20.7097  -26.8447   18.3052 C   0  0  0  0  0  0  0  0  0  0  0  0
  -29.3045  -16.6765   20.0327 C   0  0  0  0  0  0  0  0  0  0  0  0
  -24.4657  -30.8679   28.1783 C   0  0  0  0  0  0  0  0  0  0  0  0
  -24.2437  -30.4246   21.6840 C   0  0  0  0  0  0  0  0  0  0  0  0
  -23.5133  -27.7449   20.6689 C   0  0  0  0  0  0  0  0  0  0  0  0
  -23.2962  -30.2102   27.4502 C   0  0  0  0  0  0  0  0  0  0  0  0
  -30.0029  -13.1953   20.2986 C   0  0  0  0  0  0  0  0  0  0  0  0
  -30.3693  -24.8341   19.6394 C   0  0  0  0  0  0  0  0  0  0  0  0
  -23.7355  -28.8960   26.8125 C   0  0  0  0  0  0  0  0  0  0  0  0
  -29.8379  -26.2150   19.2718 C   0  0  0  0  0  0  0  0  0  0  0  0
  -28.6176  -12.5557   20.4175 C   0  0  0  0  0  0  0  0  0  0  0  0
  -30.0739  -14.5345   21.0302 C   0  0  0  0  0  0  0  0  0  0  0  0
  -27.6447  -14.8597   20.7807 C   0  0  0  0  0  0  0  0  0  0  0  0
  -29.9632  -23.7879   18.6066 C   0  0  0  0  0  0  0  0  0  0  0  0
  -24.8329  -29.1296   25.7673 C   0  0  1  0  0  0  0  0  0  0  0  0
  -28.3260  -26.1916   19.0526 C   0  0  1  0  0  0  0  0  0  1  0  0
  -23.1864  -29.5661   22.3714 C   0  0  1  0  0  0  0  0  0  0  0  0
  -27.5053  -13.5396   20.0050 C   0  0  2  0  0  0  0  0  0  0  0  0
  -26.2526  -21.4954   17.5877 C   0  0  0  0  0  0  0  0  0  0  0  0
  -18.9491  -27.2917   16.5738 C   0  0  0  0  0  0  0  0  0  0  0  0
  -19.7538  -25.9783   22.8717 C   0  0  0  0  0  0  0  0  0  0  0  0
  -19.0180  -25.2519   20.5915 C   0  0  0  0  0  0  0  0  0  0  0  0
  -18.3088  -27.4721   21.4807 C   0  0  0  0  0  0  0  0  0  0  0  0
  -22.7357  -27.4152   16.2246 C   0  0  0  0  0  0  0  0  0  0  0  0
  -27.7010  -23.0977   19.5196 C   0  0  0  0  0  0  0  0  0  0  0  0
  -20.7109  -27.1317   20.7694 C   0  0  1  0  0  0  0  0  0  0  0  0
  -20.3739  -27.5802   17.0204 C   0  0  2  0  0  0  0  0  0  0  0  0
  -19.4755  -26.4615   21.4343 C   0  0  0  0  0  0  0  0  0  0  0  0
  -25.9196  -12.0389   21.1515 N   0  0  0  0  0  0  0  0  0  0  0  0
  -26.1260  -12.9283   20.1654 N   0  0  0  0  0  0  0  0  0  0  0  0
  -22.5977  -28.5690   21.4751 N   0  0  0  0  0  0  0  0  0  0  0  0
  -28.9925  -15.4163   20.5853 N   0  0  0  0  0  0  0  0  0  0  0  0
  -25.0524  -14.0439   18.3728 N   0  0  0  0  0  0  0  0  0  0  0  0
  -22.3602  -11.3723   18.4704 N   0  0  0  0  0  0  0  0  0  0  0  0
  -28.1966  -17.4133   19.6152 N   0  0  0  0  0  0  0  0  0  0  0  0
  -24.2610  -29.6380   24.5389 N   0  0  0  0  0  0  0  0  0  0  0  0
  -20.4685  -27.6233   19.4174 N   0  0  0  0  0  0  0  0  0  0  0  0
  -28.4671  -23.7423   18.3973 N   0  3  1  0  0  0  0  0  0  0  0  0
  -21.3011  -27.1668   15.9294 N   0  3  0  0  0  0  0  0  0  0  0  0
  -21.7719  -13.0885   19.8730 O   0  0  0  0  0  0  0  0  0  0  0  0
  -23.6599  -27.5989   23.5884 O   0  0  0  0  0  0  0  0  0  0  0  0
  -20.4298  -28.9810   22.2279 O   0  0  0  0  0  0  0  0  0  0  0  0
  -21.1393  -25.6933   18.3209 O   0  0  0  0  0  0  0  0  0  0  0  0
  -30.4704  -17.0614   19.9118 O   0  0  0  0  0  0  0  0  0  0  0  0
  -22.2501   -8.0200   24.4585 O   0  0  0  0  0  0  0  0  0  0  0  0
  -27.9138  -27.4586   18.5496 O   0  0  0  0  0  0  0  0  0  1  0  0
  -21.2731   -2.9539   22.5134 F   0  0  0  0  0  0  0  0  0  0  0  0
  -23.3969   -5.8006   25.6424 F   0  0  0  0  0  0  0  0  0  0  0  0
  -29.7843  -18.9001   21.7074 Cl  0  0  0  0  0  0  0  0  0  0  0  0
  -26.3840  -18.4667   17.4752 Cl  0  0  0  0  0  0  0  0  0  0  0  0
  1  2  1  0  0  0  0
  1  5  2  0  0  0  0
  2  6  2  0  0  0  0
  3  8  2  0  0  0  0
  3 16  1  0  0  0  0
  4  9  1  0  0  0  0
  4 16  2  0  0  0  0
  5 18  1  0  0  0  0
  6 20  1  0  0  0  0
  7 10  2  0  0  0  0
  7 19  1  0  0  0  0
  8 25  1  0  0  0  0
  9 25  2  0  0  0  0
 10 26  1  0  0  0  0
 11 12  2  0  0  0  0
 11 27  1  0  0  0  0
 12 28  1  0  0  0  0
 13 21  1  0  0  0  0
 13 26  2  0  0  0  0
 14 22  1  0  0  0  0
 14 30  2  0  0  0  0
 15 28  2  0  0  0  0
 15 29  1  0  0  0  0
 16 32  1  0  0  0  0
 17 32  1  0  0  0  0
 17 33  2  0  0  0  0
 17 36  1  0  0  0  0
 18 20  2  0  0  0  0
 18 41  1  0  0  0  0
 19 21  2  0  0  0  0
 19 42  1  0  0  0  0
 20 53  1  0  0  0  0
 21 43  1  0  0  0  0
 22 23  2  0  0  0  0
 22 63  1  0  0  0  0
 23 31  1  0  0  0  0
 23 57  1  0  0  0  0
 24 30  1  0  0  0  0
 24 31  2  0  0  0  0
 24 73  1  0  0  0  0
 25 83  1  0  0  0  0
 26 84  1  0  0  0  0
 27 29  2  0  0  0  0
 27 83  1  0  0  0  0
 28 85  1  0  0  0  0
 29 86  1  0  0  0  0
 30 87  1  0  0  0  0
 31 88  1  0  0  0  0
 32 67  2  0  0  0  0
 33 68  1  0  0  0  0
 33 71  1  0  0  0  0
 34 35  2  0  0  0  0
 34 54  1  0  0  0  0
 34 76  1  0  0  0  0
 36 72  1  0  0  0  0
 36 78  2  0  0  0  0
 37 55  1  0  0  0  0
 37 74  1  0  0  0  0
 37 79  2  0  0  0  0
 38 64  1  0  0  0  0
 38 69  1  0  0  0  0
 38 80  2  0  0  0  0
 39 65  1  0  0  0  0
 39 75  1  0  0  0  0
 39 81  2  0  0  0  0
 40 70  1  0  0  0  0
 40 73  1  0  0  0  0
 40 82  2  0  0  0  0
 41 44  1  0  0  0  0
 42 55  1  0  0  0  0
 43 69  1  0  0  0  0
 44 47  1  0  0  0  0
 45 49  1  0  0  0  0
 45 50  1  0  0  0  0
 46 48  1  0  0  0  0
 46 52  1  0  0  0  0
 47 53  1  0  0  0  0
 48 54  1  0  0  0  0
 49 56  1  0  0  0  0
 50 70  1  0  0  0  0
 51 56  1  0  0  0  0
 51 70  1  0  0  0  0
 52 76  1  0  0  0  0
 53 74  1  0  0  0  0
 54 84  1  0  0  0  0
 55 69  1  0  0  0  0
 56 68  1  0  0  0  0
 58 65  1  0  0  0  0
 59 66  1  0  0  0  0
 60 66  1  0  0  0  0
 61 66  1  0  0  0  0
 62 77  1  0  0  0  0
 63 76  1  0  0  0  0
 64 66  1  0  0  0  0
 64 75  1  0  0  0  0
 65 77  1  0  0  0  0
 67 68  1  0  0  0  0
M  CHG  2  76   1  77   1
M  ISO  4  40 100  54 101  73 100  84 101
M  END
> <Batch ID>
0038

> <Smiles>
C=C1N(Cc2cc(Cl)c([100NH:0][100C:0](=O)N3CCCC(n4nc(-c5ccc(Oc6ccc(F)cc6F)cc5)c(C(N)=O)c4N)C3)c(Cl)c2C)CCC[101CH:1]1[101O:1]c1ccc2c(c1)CN(C(=O)C(NC(=O)C(C)NC)C(C)(C)C)C(C(=O)NC1CCCc3ccccc31)C2

> <Shape>
0.338

> <Color>
0.082

> <Negative vol penalty>
0.000

$$$$

  -OEChem-04042322003D

 88 97  0     1  0  0  0  0  0999 V2000
  -20.3515  -18.7543   27.7011 C   0  0  0  0  0  0  0  0  0  0  0  0
  -20.6681  -20.1064   27.6177 C   0  0  0  0  0  0  0  0  0  0  0  0
  -28.4598  -13.9217   21.2013 C   0  0  0  0  0  0  0  0  0  0  0  0
  -26.6157  -14.9912   20.0644 C   0  0  0  0  0  0  0  0  0  0  0  0
  -20.7843  -17.8757   26.7088 C   0  0  0  0  0  0  0  0  0  0  0  0
  -21.4187  -20.5805   26.5424 C   0  0  0  0  0  0  0  0  0  0  0  0
  -20.8763  -26.0244   23.7900 C   0  0  0  0  0  0  0  0  0  0  0  0
  -27.7311  -12.7342   21.2663 C   0  0  0  0  0  0  0  0  0  0  0  0
  -25.8869  -13.8037   20.1294 C   0  0  0  0  0  0  0  0  0  0  0  0
  -21.5871  -27.2166   23.9209 C   0  0  0  0  0  0  0  0  0  0  0  0
  -24.0748  -12.1155   22.4309 C   0  0  0  0  0  0  0  0  0  0  0  0
  -22.7382  -12.1960   22.8214 C   0  0  0  0  0  0  0  0  0  0  0  0
  -22.9551  -26.6015   22.0317 C   0  0  0  0  0  0  0  0  0  0  0  0
  -27.5270  -27.5444   20.3238 C   0  0  0  0  0  0  0  0  0  0  0  0
  -28.7045  -28.2414   22.7549 C   0  0  0  0  0  0  0  0  0  0  0  0
  -22.0633  -11.2381   20.7085 C   0  0  0  0  0  0  0  0  0  0  0  0
  -27.9021  -15.0503   20.6004 C   0  0  0  0  0  0  0  0  0  0  0  0
  -29.8959  -16.4801   19.9018 C   0  0  0  0  0  0  0  0  0  0  0  0
  -21.5323  -18.3409   25.6158 C   0  0  0  0  0  0  0  0  0  0  0  0
  -21.2072  -25.1052   22.7840 C   0  0  0  0  0  0  0  0  0  0  0  0
  -21.8630  -19.7071   25.5352 C   0  0  0  0  0  0  0  0  0  0  0  0
  -22.2453  -25.3995   21.8885 C   0  0  0  0  0  0  0  0  0  0  0  0
  -27.1096  -28.6924   20.9971 C   0  0  0  0  0  0  0  0  0  0  0  0
  -28.5331  -26.7447   20.8661 C   0  0  0  0  0  0  0  0  0  0  0  0
  -27.6984  -29.0409   22.2127 C   0  0  0  0  0  0  0  0  0  0  0  0
  -26.4446  -12.6751   20.7303 C   0  0  0  0  0  0  0  0  0  0  0  0
  -22.6285  -27.5040   23.0435 C   0  0  0  0  0  0  0  0  0  0  0  0
  -24.4057  -11.5964   21.1792 C   0  0  0  0  0  0  0  0  0  0  0  0
  -21.7324  -11.7572   21.9602 C   0  0  0  0  0  0  0  0  0  0  0  0
  -23.4000  -11.1576   20.3181 C   0  0  0  0  0  0  0  0  0  0  0  0
  -29.1219  -27.0933   22.0816 C   0  0  0  0  0  0  0  0  0  0  0  0
  -28.6543  -16.2774   20.5334 C   0  0  0  0  0  0  0  0  0  0  0  0
  -30.1810  -17.8055   20.1221 C   0  0  0  0  0  0  0  0  0  0  0  0
  -30.7181  -15.5532   19.1804 C   0  0  0  0  0  0  0  0  0  0  0  0
  -22.2373  -22.0984   22.7434 C   0  0  0  0  0  0  0  0  0  0  0  0
  -21.8212  -22.4095   19.5414 C   0  0  0  0  0  0  0  0  0  0  0  0
  -21.6218  -24.4764   16.8331 C   0  0  0  0  0  0  0  0  0  0  0  0
  -28.6524  -23.0600   20.1430 C   0  0  0  0  0  0  0  0  0  0  0  0
  -22.0182  -17.3454   24.5923 C   0  0  0  0  0  0  0  0  0  0  0  0
  -20.4134  -23.8359   22.6394 C   0  0  0  0  0  0  0  0  0  0  0  0
  -22.6268  -24.4553   20.7788 C   0  0  0  0  0  0  0  0  0  0  0  0
  -22.4902  -17.9902   23.2916 C   0  0  0  0  0  0  0  0  0  0  0  0
  -27.9710  -21.1890   23.1650 C   0  0  0  0  0  0  0  0  0  0  0  0
  -23.3999  -19.1790   23.5846 C   0  0  0  0  0  0  0  0  0  0  0  0
  -28.1934  -19.7521   22.6898 C   0  0  0  0  0  0  0  0  0  0  0  0
  -23.4672  -30.1369   25.0884 C   0  0  0  0  0  0  0  0  0  0  0  0
  -23.8267  -31.3983   24.3117 C   0  0  0  0  0  0  0  0  0  0  0  0
  -27.3130  -22.0349   22.0789 C   0  0  0  0  0  0  0  0  0  0  0  0
  -28.2699  -20.6167   20.3051 C   0  0  0  0  0  0  0  0  0  0  0  0
  -25.4964  -28.9877   24.1288 C   0  0  0  0  0  0  0  0  0  0  0  0
  -22.6542  -20.2636   24.3714 C   0  0  1  0  0  0  0  0  0  0  0  0
  -21.1715  -22.7381   21.8993 C   0  0  1  0  0  0  0  0  0  0  0  0
  -28.9530  -19.7161   21.3504 C   0  0  2  0  0  0  0  0  0  0  0  0
  -24.0036  -28.8860   24.4038 C   0  0  2  0  0  0  0  0  0  1  0  0
  -25.3333  -31.5101   24.0495 C   0  0  2  0  0  0  0  0  0  0  0  0
  -26.0292  -29.5326   20.3994 C   0  0  0  0  0  0  0  0  0  0  0  0
  -25.6193  -32.7487   23.2027 C   0  0  0  0  0  0  0  0  0  0  0  0
  -21.3141  -24.4362   14.3429 C   0  0  0  0  0  0  0  0  0  0  0  0
  -24.7072  -21.4792   19.2023 C   0  0  0  0  0  0  0  0  0  0  0  0
  -24.6407  -22.3552   16.8578 C   0  0  0  0  0  0  0  0  0  0  0  0
  -23.0997  -20.5179   17.5451 C   0  0  0  0  0  0  0  0  0  0  0  0
  -19.1350  -26.0725   16.9982 C   0  0  0  0  0  0  0  0  0  0  0  0
  -28.9517  -25.5231   20.1137 C   0  0  0  0  0  0  0  0  0  0  0  0
  -27.2637  -30.2695   22.9560 C   0  0  0  0  0  0  0  0  0  0  0  0
  -22.6854  -22.8644   18.3903 C   0  0  1  0  0  0  0  0  0  0  0  0
  -20.6225  -24.5488   15.6926 C   0  0  2  0  0  0  0  0  0  0  0  0
  -23.7776  -21.8213   18.0209 C   0  0  0  0  0  0  0  0  0  0  0  0
  -28.1830  -17.3853   21.1118 N   0  0  0  0  0  0  0  0  0  0  0  0
  -29.1337  -18.2969   20.8445 N   0  0  0  0  0  0  0  0  0  0  0  0
  -21.8250  -23.2243   20.6825 N   0  0  0  0  0  0  0  0  0  0  0  0
  -28.0952  -21.9726   20.8362 N   0  0  0  0  0  0  0  0  0  0  0  0
  -31.2228  -18.5869   19.7666 N   0  0  0  0  0  0  0  0  0  0  0  0
  -30.5210  -15.4198   17.7992 N   0  0  0  0  0  0  0  0  0  0  0  0
  -21.7934  -21.0247   23.4915 N   0  0  0  0  0  0  0  0  0  0  0  0
  -21.7736  -23.1872   17.2981 N   0  0  0  0  0  0  0  0  0  0  0  0
  -28.4353  -24.3105   20.7086 N   0  0  0  0  0  0  0  0  0  0  0  0
  -25.8018  -30.2464   23.3337 N   0  3  1  0  0  0  0  0  0  0  0  0
  -19.8813  -25.8410   15.7346 N   0  3  0  0  0  0  0  0  0  0  0  0
  -31.5904  -14.8516   19.7466 O   0  0  0  0  0  0  0  0  0  0  0  0
  -23.3782  -22.5449   22.7167 O   0  0  0  0  0  0  0  0  0  0  0  0
  -21.1612  -21.3734   19.4296 O   0  0  0  0  0  0  0  0  0  0  0  0
  -22.2117  -25.4641   17.2656 O   0  0  0  0  0  0  0  0  0  0  0  0
  -29.3004  -22.9260   19.0994 O   0  0  0  0  0  0  0  0  0  0  0  0
  -25.7333  -11.5164   20.7934 O   0  0  0  0  0  0  0  0  0  0  0  0
  -23.3243  -28.6667   23.1695 O   0  0  0  0  0  0  0  0  0  1  0  0
  -20.4489  -11.8331   22.3359 F   0  0  0  0  0  0  0  0  0  0  0  0
  -23.7118  -10.6569   19.1148 F   0  0  0  0  0  0  0  0  0  0  0  0
  -30.3692  -26.1283   22.7833 Cl  0  0  0  0  0  0  0  0  0  0  0  0
  1  2  1  0  0  0  0
  1  5  2  0  0  0  0
  2  6  2  0  0  0  0
  3  8  2  0  0  0  0
  3 17  1  0  0  0  0
  4  9  1  0  0  0  0
  4 17  2  0  0  0  0
  5 19  1  0  0  0  0
  6 21  1  0  0  0  0
  7 10  2  0  0  0  0
  7 20  1  0  0  0  0
  8 26  1  0  0  0  0
  9 26  2  0  0  0  0
 10 27  1  0  0  0  0
 11 12  2  0  0  0  0
 11 28  1  0  0  0  0
 12 29  1  0  0  0  0
 13 22  1  0  0  0  0
 13 27  2  0  0  0  0
 14 23  1  0  0  0  0
 14 24  2  0  0  0  0
 15 25  1  0  0  0  0
 15 31  2  0  0  0  0
 16 29  2  0  0  0  0
 16 30  1  0  0  0  0
 17 32  1  0  0  0  0
 18 32  1  0  0  0  0
 18 33  2  0  0  0  0
 18 34  1  0  0  0  0
 19 21  2  0  0  0  0
 19 39  1  0  0  0  0
 20 22  2  0  0  0  0
 20 40  1  0  0  0  0
 21 51  1  0  0  0  0
 22 41  1  0  0  0  0
 23 25  2  0  0  0  0
 23 56  1  0  0  0  0
 24 31  1  0  0  0  0
 24 63  1  0  0  0  0
 25 64  1  0  0  0  0
 26 84  1  0  0  0  0
 27 85  1  0  0  0  0
 28 30  2  0  0  0  0
 28 84  1  0  0  0  0
 29 86  1  0  0  0  0
 30 87  1  0  0  0  0
 31 88  1  0  0  0  0
 32 68  2  0  0  0  0
 33 69  1  0  0  0  0
 33 72  1  0  0  0  0
 34 73  1  0  0  0  0
 34 79  2  0  0  0  0
 35 52  1  0  0  0  0
 35 74  1  0  0  0  0
 35 80  2  0  0  0  0
 36 65  1  0  0  0  0
 36 70  1  0  0  0  0
 36 81  2  0  0  0  0
 37 66  1  0  0  0  0
 37 75  1  0  0  0  0
 37 82  2  0  0  0  0
 38 71  1  0  0  0  0
 38 76  1  0  0  0  0
 38 83  2  0  0  0  0
 39 42  1  0  0  0  0
 40 52  1  0  0  0  0
 41 70  1  0  0  0  0
 42 44  1  0  0  0  0
 43 45  1  0  0  0  0
 43 48  1  0  0  0  0
 44 51  1  0  0  0  0
 45 53  1  0  0  0  0
 46 47  1  0  0  0  0
 46 54  1  0  0  0  0
 47 55  1  0  0  0  0
 48 71  1  0  0  0  0
 49 53  1  0  0  0  0
 49 71  1  0  0  0  0
 50 54  1  0  0  0  0
 50 77  1  0  0  0  0
 51 74  1  0  0  0  0
 52 70  1  0  0  0  0
 53 69  1  0  0  0  0
 54 85  1  0  0  0  0
 55 57  1  0  0  0  0
 55 77  1  0  0  0  0
 58 66  1  0  0  0  0
 59 67  1  0  0  0  0
 60 67  1  0  0  0  0
 61 67  1  0  0  0  0
 62 78  1  0  0  0  0
 63 76  1  0  0  0  0
 64 77  1  0  0  0  0
 65 67  1  0  0  0  0
 65 75  1  0  0  0  0
 66 78  1  0  0  0  0
 68 69  1  0  0  0  0
M  CHG  2  77   1  78   1
M  ISO  4  38 100  54 101  76 100  85 101
M  END
> <Batch ID>
0038

> <Smiles>
CNC(C)C(=O)NC(C(=O)N1Cc2cc([101O:1][101CH:1]3CCC(C)N(Cc4cc(Cl)c(C[100NH:0][100C:0](=O)N5CCCC(n6nc(-c7ccc(Oc8ccc(F)cc8F)cc7)c(C(N)=O)c6N)C5)cc4C)C3)ccc2CC1C(=O)NC1CCCc2ccccc21)C(C)(C)C

> <Shape>
0.210

> <Color>
0.071

> <Negative vol penalty>
0.000

$$$$

  -OEChem-04042322003D

 87 96  0     1  0  0  0  0  0999 V2000
  -25.0984  -33.9375   20.2409 C   0  0  0  0  0  0  0  0  0  0  0  0
  -25.6523  -33.0628   19.3131 C   0  0  0  0  0  0  0  0  0  0  0  0
  -23.3087  -10.2141   22.2374 C   0  0  0  0  0  0  0  0  0  0  0  0
  -23.6029   -9.5276   19.9397 C   0  0  0  0  0  0  0  0  0  0  0  0
  -25.4943  -33.8745   21.5753 C   0  0  0  0  0  0  0  0  0  0  0  0
  -26.5934  -32.1170   19.7213 C   0  0  0  0  0  0  0  0  0  0  0  0
  -31.4222  -25.4136   20.7936 C   0  0  0  0  0  0  0  0  0  0  0  0
  -22.5644   -9.0610   22.4866 C   0  0  0  0  0  0  0  0  0  0  0  0
  -22.8587   -8.3745   20.1889 C   0  0  0  0  0  0  0  0  0  0  0  0
  -31.9595  -24.7591   21.9012 C   0  0  0  0  0  0  0  0  0  0  0  0
  -19.4143   -7.9638   21.9414 C   0  0  0  0  0  0  0  0  0  0  0  0
  -18.2308   -8.1014   22.6666 C   0  0  0  0  0  0  0  0  0  0  0  0
  -29.8943  -25.1035   23.0992 C   0  0  0  0  0  0  0  0  0  0  0  0
  -30.4919  -18.3506   24.0467 C   0  0  0  0  0  0  0  0  0  0  0  0
  -32.0581  -16.6025   22.5388 C   0  0  0  0  0  0  0  0  0  0  0  0
  -19.0963   -6.6128   24.3613 C   0  0  0  0  0  0  0  0  0  0  0  0
  -23.8279  -10.4474   20.9639 C   0  0  0  0  0  0  0  0  0  0  0  0
  -24.1678  -12.9727   20.8416 C   0  0  0  0  0  0  0  0  0  0  0  0
  -26.4499  -32.9354   21.9969 C   0  0  0  0  0  0  0  0  0  0  0  0
  -30.1185  -25.9285   20.8345 C   0  0  0  0  0  0  0  0  0  0  0  0
  -26.9882  -32.0217   21.0680 C   0  0  0  0  0  0  0  0  0  0  0  0
  -29.3418  -25.7620   21.9900 C   0  0  0  0  0  0  0  0  0  0  0  0
  -31.8791  -18.3551   24.1921 C   0  0  0  0  0  0  0  0  0  0  0  0
  -29.8877  -17.4720   23.1473 C   0  0  0  0  0  0  0  0  0  0  0  0
  -32.6622  -17.4811   23.4382 C   0  0  0  0  0  0  0  0  0  0  0  0
  -30.6709  -16.5980   22.3934 C   0  0  0  0  0  0  0  0  0  0  0  0
  -22.3395   -8.1412   21.4624 C   0  0  0  0  0  0  0  0  0  0  0  0
  -31.1966  -24.6065   23.0552 C   0  0  0  0  0  0  0  0  0  0  0  0
  -20.4388   -7.1507   22.4260 C   0  0  0  0  0  0  0  0  0  0  0  0
  -18.0718   -7.4259   23.8766 C   0  0  0  0  0  0  0  0  0  0  0  0
  -20.2798   -6.4752   23.6360 C   0  0  0  0  0  0  0  0  0  0  0  0
  -24.5963  -11.6387   20.7057 C   0  0  0  0  0  0  0  0  0  0  0  0
  -25.2597  -13.7227   20.4786 C   0  0  0  0  0  0  0  0  0  0  0  0
  -31.9706  -21.6025   24.4415 C   0  0  0  0  0  0  0  0  0  0  0  0
  -22.8965  -13.4880   21.2587 C   0  0  0  0  0  0  0  0  0  0  0  0
  -28.8439  -28.8299   20.5870 C   0  0  0  0  0  0  0  0  0  0  0  0
  -26.0500  -27.1832   20.6587 C   0  0  0  0  0  0  0  0  0  0  0  0
  -24.6881  -24.3860   22.4857 C   0  0  0  0  0  0  0  0  0  0  0  0
  -30.7249  -14.7729   20.6577 C   0  0  0  0  0  0  0  0  0  0  0  0
  -26.8363  -32.9058   23.4547 C   0  0  0  0  0  0  0  0  0  0  0  0
  -29.5440  -26.6085   19.6220 C   0  0  0  0  0  0  0  0  0  0  0  0
  -27.9298  -26.2786   22.0777 C   0  0  0  0  0  0  0  0  0  0  0  0
  -28.1526  -32.1775   23.7061 C   0  0  0  0  0  0  0  0  0  0  0  0
  -29.9202  -21.7762   26.5278 C   0  0  0  0  0  0  0  0  0  0  0  0
  -29.6148  -12.3558   18.2908 C   0  0  0  0  0  0  0  0  0  0  0  0
  -28.1426  -30.8282   23.0034 C   0  0  0  0  0  0  0  0  0  0  0  0
  -30.5760  -23.0392   26.0099 C   0  0  0  0  0  0  0  0  0  0  0  0
  -28.1749  -12.0635   18.7193 C   0  0  0  0  0  0  0  0  0  0  0  0
  -30.9276  -20.6404   26.5268 C   0  0  0  0  0  0  0  0  0  0  0  0
  -30.5285  -12.5866   19.4932 C   0  0  0  0  0  0  0  0  0  0  0  0
  -28.6196  -13.3109   20.8718 C   0  0  0  0  0  0  0  0  0  0  0  0
  -28.0360  -31.0049   21.4834 C   0  0  1  0  0  0  0  0  0  0  0  0
  -31.0459  -22.8043   24.5878 C   0  0  1  0  0  0  0  0  0  1  0  0
  -28.3871  -27.5457   19.9545 C   0  0  1  0  0  0  0  0  0  0  0  0
  -27.6481  -13.1356   19.6931 C   0  0  2  0  0  0  0  0  0  0  0  0
  -28.3997  -17.4890   23.0119 C   0  0  0  0  0  0  0  0  0  0  0  0
  -34.1492  -17.4678   23.5772 C   0  0  0  0  0  0  0  0  0  0  0  0
  -22.9142  -22.7292   21.8487 C   0  0  0  0  0  0  0  0  0  0  0  0
  -24.1589  -29.0867   22.1113 C   0  0  0  0  0  0  0  0  0  0  0  0
  -22.9362  -27.0878   22.9932 C   0  0  0  0  0  0  0  0  0  0  0  0
  -23.0365  -27.5021   20.5354 C   0  0  0  0  0  0  0  0  0  0  0  0
  -26.4858  -22.0906   22.9941 C   0  0  0  0  0  0  0  0  0  0  0  0
  -32.5068  -19.3093   25.1666 C   0  0  0  0  0  0  0  0  0  0  0  0
  -25.1123  -26.7154   21.7454 C   0  0  1  0  0  0  0  0  0  0  0  0
  -24.4084  -22.9959   21.9436 C   0  0  2  0  0  0  0  0  0  0  0  0
  -23.8388  -27.6012   21.8511 C   0  0  0  0  0  0  0  0  0  0  0  0
  -25.8616  -11.5434   20.2888 N   0  0  0  0  0  0  0  0  0  0  0  0
  -26.2376  -12.8272   20.1595 N   0  0  0  0  0  0  0  0  0  0  0  0
  -31.7305  -20.5340   25.3074 N   0  0  0  0  0  0  0  0  0  0  0  0
  -27.4152  -26.9418   20.8682 N   0  0  0  0  0  0  0  0  0  0  0  0
  -29.9678  -13.6178   20.3689 N   0  0  0  0  0  0  0  0  0  0  0  0
  -25.4691  -15.0543   20.4044 N   0  0  0  0  0  0  0  0  0  0  0  0
  -21.8849  -12.5783   21.5959 N   0  0  0  0  0  0  0  0  0  0  0  0
  -30.0759  -15.6983   21.4745 N   0  0  0  0  0  0  0  0  0  0  0  0
  -27.8193  -29.7123   20.8719 N   0  0  0  0  0  0  0  0  0  0  0  0
  -24.8405  -25.3084   21.4722 N   0  0  0  0  0  0  0  0  0  0  0  0
  -25.0149  -21.9626   22.8298 N   0  3  0  0  0  0  0  0  0  0  0  0
  -32.8250  -21.5893   23.5516 O   0  0  0  0  0  0  0  0  0  0  0  0
  -22.6592  -14.7184   21.3145 O   0  0  0  0  0  0  0  0  0  0  0  0
  -30.0373  -29.0064   20.8021 O   0  0  0  0  0  0  0  0  0  0  0  0
  -25.5876  -27.7358   19.6575 O   0  0  0  0  0  0  0  0  0  0  0  0
  -24.7602  -24.6300   23.6882 O   0  0  0  0  0  0  0  0  0  0  0  0
  -31.8543  -14.9421   20.1911 O   0  0  0  0  0  0  0  0  0  0  0  0
  -21.6135   -7.0158   21.7053 O   0  0  0  0  0  0  0  0  0  0  0  0
  -31.7189  -23.9686   24.1378 O   0  0  0  0  0  0  0  0  0  1  0  0
  -16.9358   -7.5593   24.5737 F   0  0  0  0  0  0  0  0  0  0  0  0
  -21.2610   -5.6936   24.1074 F   0  0  0  0  0  0  0  0  0  0  0  0
  1  2  1  0  0  0  0
  1  5  2  0  0  0  0
  2  6  2  0  0  0  0
  3  8  2  0  0  0  0
  3 17  1  0  0  0  0
  4  9  1  0  0  0  0
  4 17  2  0  0  0  0
  5 19  1  0  0  0  0
  6 21  1  0  0  0  0
  7 10  2  0  0  0  0
  7 20  1  0  0  0  0
  8 27  1  0  0  0  0
  9 27  2  0  0  0  0
 10 28  1  0  0  0  0
 11 12  2  0  0  0  0
 11 29  1  0  0  0  0
 12 30  1  0  0  0  0
 13 22  1  0  0  0  0
 13 28  2  0  0  0  0
 14 23  1  0  0  0  0
 14 24  2  0  0  0  0
 15 25  1  0  0  0  0
 15 26  2  0  0  0  0
 16 30  2  0  0  0  0
 16 31  1  0  0  0  0
 17 32  1  0  0  0  0
 18 32  1  0  0  0  0
 18 33  2  0  0  0  0
 18 35  1  0  0  0  0
 19 21  2  0  0  0  0
 19 40  1  0  0  0  0
 20 22  2  0  0  0  0
 20 41  1  0  0  0  0
 21 52  1  0  0  0  0
 22 42  1  0  0  0  0
 23 25  2  0  0  0  0
 23 63  1  0  0  0  0
 24 26  1  0  0  0  0
 24 56  1  0  0  0  0
 25 57  1  0  0  0  0
 26 74  1  0  0  0  0
 27 84  1  0  0  0  0
 28 85  1  0  0  0  0
 29 31  2  0  0  0  0
 29 84  1  0  0  0  0
 30 86  1  0  0  0  0
 31 87  1  0  0  0  0
 32 67  2  0  0  0  0
 33 68  1  0  0  0  0
 33 72  1  0  0  0  0
 34 53  1  0  0  0  0
 34 69  1  0  0  0  0
 34 78  2  0  0  0  0
 35 73  1  0  0  0  0
 35 79  2  0  0  0  0
 36 54  1  0  0  0  0
 36 75  1  0  0  0  0
 36 80  2  0  0  0  0
 37 64  1  0  0  0  0
 37 70  1  0  0  0  0
 37 81  2  0  0  0  0
 38 65  1  0  0  0  0
 38 76  1  0  0  0  0
 38 82  2  0  0  0  0
 39 71  1  0  0  0  0
 39 74  1  0  0  0  0
 39 83  2  0  0  0  0
 40 43  1  0  0  0  0
 41 54  1  0  0  0  0
 42 70  1  0  0  0  0
 43 46  1  0  0  0  0
 44 47  1  0  0  0  0
 44 49  1  0  0  0  0
 45 48  1  0  0  0  0
 45 50  1  0  0  0  0
 46 52  1  0  0  0  0
 47 53  1  0  0  0  0
 48 55  1  0  0  0  0
 49 69  1  0  0  0  0
 50 71  1  0  0  0  0
 51 55  1  0  0  0  0
 51 71  1  0  0  0  0
 52 75  1  0  0  0  0
 53 85  1  0  0  0  0
 54 70  1  0  0  0  0
 55 68  1  0  0  0  0
 58 65  1  0  0  0  0
 59 66  1  0  0  0  0
 60 66  1  0  0  0  0
 61 66  1  0  0  0  0
 62 77  1  0  0  0  0
 63 69  1  0  0  0  0
 64 66  1  0  0  0  0
 64 76  1  0  0  0  0
 65 77  1  0  0  0  0
 67 68  1  0  0  0  0
M  CHG  1  77   1
M  ISO  4  39 100  53 101  74 100  85 101
M  END
> <Batch ID>
0038

> <Smiles>
CNC(C)C(=O)NC(C(=O)N1Cc2cc([101O:1][101CH:1]3CCCN(Cc4cc(C)c([100NH:0][100C:0](=O)N5CCCC(n6nc(-c7ccc(Oc8ccc(F)cc8F)cc7)c(C(N)=O)c6N)C5)cc4C)C3=O)ccc2CC1C(=O)NC1CCCc2ccccc21)C(C)(C)C

> <Shape>
0.249

> <Color>
0.191

> <Negative vol penalty>
0.000

$$$$

  -OEChem-04042322003D

 88 97  0     1  0  0  0  0  0999 V2000
  -17.2612  -30.3078   23.8380 C   0  0  0  0  0  0  0  0  0  0  0  0
  -18.6474  -30.3911   23.9201 C   0  0  0  0  0  0  0  0  0  0  0  0
  -25.2877  -13.7408   22.1525 C   0  0  0  0  0  0  0  0  0  0  0  0
  -26.6997  -13.5833   20.1985 C   0  0  0  0  0  0  0  0  0  0  0  0
  -16.6599  -29.1322   23.3905 C   0  0  0  0  0  0  0  0  0  0  0  0
  -19.4333  -29.2984   23.5557 C   0  0  0  0  0  0  0  0  0  0  0  0
  -29.4807  -26.6043   20.8313 C   0  0  0  0  0  0  0  0  0  0  0  0
  -23.3873  -30.6211   20.6815 C   0  0  0  0  0  0  0  0  0  0  0  0
  -29.4269  -25.2610   20.4596 C   0  0  0  0  0  0  0  0  0  0  0  0
  -24.3335  -12.9377   21.5279 C   0  0  0  0  0  0  0  0  0  0  0  0
  -25.7456  -12.7801   19.5738 C   0  0  0  0  0  0  0  0  0  0  0  0
  -24.4852  -31.1853   21.3296 C   0  0  0  0  0  0  0  0  0  0  0  0
  -23.8702   -9.6468   20.9045 C   0  0  0  0  0  0  0  0  0  0  0  0
  -23.2992   -8.6175   21.6527 C   0  0  0  0  0  0  0  0  0  0  0  0
  -25.6157  -29.0556   21.2556 C   0  0  0  0  0  0  0  0  0  0  0  0
  -31.8169  -25.0811   20.7634 C   0  0  0  0  0  0  0  0  0  0  0  0
  -21.1145   -9.5993   21.3361 C   0  0  0  0  0  0  0  0  0  0  0  0
  -26.4707  -14.0637   21.4878 C   0  0  0  0  0  0  0  0  0  0  0  0
  -28.5280  -14.4692   22.9406 C   0  0  0  0  0  0  0  0  0  0  0  0
  -17.4391  -28.0278   23.0113 C   0  0  0  0  0  0  0  0  0  0  0  0
  -23.3910  -29.2650   20.3247 C   0  0  0  0  0  0  0  0  0  0  0  0
  -18.8418  -28.1064   23.1040 C   0  0  0  0  0  0  0  0  0  0  0  0
  -30.7027  -27.1861   21.1690 C   0  0  0  0  0  0  0  0  0  0  0  0
  -24.5176  -28.4773   20.6007 C   0  0  0  0  0  0  0  0  0  0  0  0
  -30.5949  -24.4994   20.4257 C   0  0  0  0  0  0  0  0  0  0  0  0
  -31.8708  -26.4245   21.1351 C   0  0  0  0  0  0  0  0  0  0  0  0
  -24.5625  -12.4573   20.2385 C   0  0  0  0  0  0  0  0  0  0  0  0
  -25.5984  -30.4019   21.6194 C   0  0  0  0  0  0  0  0  0  0  0  0
  -23.0634  -10.6525   20.3721 C   0  0  0  0  0  0  0  0  0  0  0  0
  -21.9213   -8.5937   21.8685 C   0  0  0  0  0  0  0  0  0  0  0  0
  -21.6856  -10.6287   20.5878 C   0  0  0  0  0  0  0  0  0  0  0  0
  -27.4565  -14.8937   22.1323 C   0  0  0  0  0  0  0  0  0  0  0  0
  -29.1640  -15.6307   23.3055 C   0  0  0  0  0  0  0  0  0  0  0  0
  -28.9141  -13.1436   23.3270 C   0  0  0  0  0  0  0  0  0  0  0  0
  -21.6286  -26.7363   21.1016 C   0  0  0  0  0  0  0  0  0  0  0  0
  -23.4124  -25.2794   18.8174 C   0  0  0  0  0  0  0  0  0  0  0  0
  -26.3090  -25.2021   17.0144 C   0  0  0  0  0  0  0  0  0  0  0  0
  -29.4816  -20.9237   20.7098 C   0  0  0  0  0  0  0  0  0  0  0  0
  -16.7424  -26.7620   22.5787 C   0  0  0  0  0  0  0  0  0  0  0  0
  -22.2096  -28.6780   19.6021 C   0  0  0  0  0  0  0  0  0  0  0  0
  -24.5797  -27.0212   20.2205 C   0  0  0  0  0  0  0  0  0  0  0  0
  -17.6593  -25.7785   21.8560 C   0  0  0  0  0  0  0  0  0  0  0  0
  -28.3212  -20.2785   24.0764 C   0  0  0  0  0  0  0  0  0  0  0  0
  -18.9738  -25.6189   22.6133 C   0  0  0  0  0  0  0  0  0  0  0  0
  -28.0702  -18.7703   24.0278 C   0  0  0  0  0  0  0  0  0  0  0  0
  -30.2374  -29.5078   20.4072 C   0  0  0  0  0  0  0  0  0  0  0  0
  -29.8812  -28.8533   22.8221 C   0  0  0  0  0  0  0  0  0  0  0  0
  -27.9355  -20.9458   22.7596 C   0  0  0  0  0  0  0  0  0  0  0  0
  -28.3563  -18.8649   21.5081 C   0  0  0  0  0  0  0  0  0  0  0  0
  -30.1805  -30.9766   20.8071 C   0  0  0  0  0  0  0  0  0  0  0  0
  -29.8274  -30.3271   23.2035 C   0  0  0  0  0  0  0  0  0  0  0  0
  -30.7358  -28.6272   21.5645 C   0  0  0  0  0  0  0  0  0  0  0  0
  -19.7291  -26.9510   22.6943 C   0  0  1  0  0  0  0  0  0  0  0  0
  -22.1146  -27.1621   19.7450 C   0  0  1  0  0  0  0  0  0  0  0  0
  -28.7476  -18.1287   22.8024 C   0  0  2  0  0  0  0  0  0  0  0  0
  -33.1906  -27.0258   21.4921 C   0  0  0  0  0  0  0  0  0  0  0  0
  -27.4956  -23.8703   15.2492 C   0  0  0  0  0  0  0  0  0  0  0  0
  -24.1009  -23.1493   20.8907 C   0  0  0  0  0  0  0  0  0  0  0  0
  -25.9812  -22.4149   19.4097 C   0  0  0  0  0  0  0  0  0  0  0  0
  -23.6262  -22.2618   18.6013 C   0  0  0  0  0  0  0  0  0  0  0  0
  -26.3680  -27.5029   15.1538 C   0  0  0  0  0  0  0  0  0  0  0  0
  -30.5373  -23.0633   20.0280 C   0  0  0  0  0  0  0  0  0  0  0  0
  -27.8867  -32.7490   23.2719 C   0  0  0  0  0  0  0  0  0  0  0  0
  -29.1190  -32.5770   22.3966 C   0  0  0  0  0  0  0  0  0  0  0  0
  -26.5883  -32.3337   22.5911 C   0  0  0  0  0  0  0  0  0  1  0  0
  -24.7233  -24.5309   18.8003 C   0  0  1  0  0  0  0  0  0  0  0  0
  -26.5656  -25.0411   15.5268 C   0  0  2  0  0  0  0  0  0  0  0  0
  -24.6063  -23.1161   19.4345 C   0  0  0  0  0  0  0  0  0  0  0  0
  -27.4109  -16.2212   21.9918 N   0  0  0  0  0  0  0  0  0  0  0  0
  -28.4618  -16.6409   22.7168 N   0  0  0  0  0  0  0  0  0  0  0  0
  -23.3972  -26.4919   19.5213 N   0  0  0  0  0  0  0  0  0  0  0  0
  -28.6284  -20.3005   21.6355 N   0  0  0  0  0  0  0  0  0  0  0  0
  -30.2497  -15.8761   24.0693 N   0  0  0  0  0  0  0  0  0  0  0  0
  -28.1507  -12.0635   22.8634 N   0  0  0  0  0  0  0  0  0  0  0  0
  -20.3851  -27.2373   21.4364 N   0  0  0  0  0  0  0  0  0  0  0  0
  -25.1738  -24.5282   17.4127 N   0  0  0  0  0  0  0  0  0  0  0  0
  -29.6813  -22.2861   20.8964 N   0  0  0  0  0  0  0  0  0  0  0  0
  -29.3100  -31.1520   22.0385 N   0  3  0  0  0  0  0  0  0  0  0  0
  -27.1867  -26.2767   14.9716 N   0  3  0  0  0  0  0  0  0  0  0  0
  -29.8969  -12.9244   24.0750 O   0  0  0  0  0  0  0  0  0  0  0  0
  -22.3292  -26.0061   21.7926 O   0  0  0  0  0  0  0  0  0  0  0  0
  -22.4398  -24.8092   18.2219 O   0  0  0  0  0  0  0  0  0  0  0  0
  -27.0442  -25.8568   17.7501 O   0  0  0  0  0  0  0  0  0  0  0  0
  -30.0295  -20.3102   19.7876 O   0  0  0  0  0  0  0  0  0  0  0  0
  -23.6318  -11.6734   19.6288 O   0  0  0  0  0  0  0  0  0  0  0  0
  -26.6711  -30.9499   22.2525 O   0  0  0  0  0  0  0  0  0  1  0  0
  -21.3729   -7.6042   22.5858 F   0  0  0  0  0  0  0  0  0  0  0  0
  -20.9052  -11.5914   20.0779 F   0  0  0  0  0  0  0  0  0  0  0  0
  1  2  1  0  0  0  0
  1  5  2  0  0  0  0
  2  6  2  0  0  0  0
  3 10  2  0  0  0  0
  3 18  1  0  0  0  0
  4 11  1  0  0  0  0
  4 18  2  0  0  0  0
  5 20  1  0  0  0  0
  6 22  1  0  0  0  0
  7  9  2  0  0  0  0
  7 23  1  0  0  0  0
  8 12  2  0  0  0  0
  8 21  1  0  0  0  0
  9 25  1  0  0  0  0
 10 27  1  0  0  0  0
 11 27  2  0  0  0  0
 12 28  1  0  0  0  0
 13 14  2  0  0  0  0
 13 29  1  0  0  0  0
 14 30  1  0  0  0  0
 15 24  1  0  0  0  0
 15 28  2  0  0  0  0
 16 25  2  0  0  0  0
 16 26  1  0  0  0  0
 17 30  2  0  0  0  0
 17 31  1  0  0  0  0
 18 32  1  0  0  0  0
 19 32  1  0  0  0  0
 19 33  2  0  0  0  0
 19 34  1  0  0  0  0
 20 22  2  0  0  0  0
 20 39  1  0  0  0  0
 21 24  2  0  0  0  0
 21 40  1  0  0  0  0
 22 53  1  0  0  0  0
 23 26  2  0  0  0  0
 23 52  1  0  0  0  0
 24 41  1  0  0  0  0
 25 62  1  0  0  0  0
 26 56  1  0  0  0  0
 27 85  1  0  0  0  0
 28 86  1  0  0  0  0
 29 31  2  0  0  0  0
 29 85  1  0  0  0  0
 30 87  1  0  0  0  0
 31 88  1  0  0  0  0
 32 69  2  0  0  0  0
 33 70  1  0  0  0  0
 33 73  1  0  0  0  0
 34 74  1  0  0  0  0
 34 80  2  0  0  0  0
 35 54  1  0  0  0  0
 35 75  1  0  0  0  0
 35 81  2  0  0  0  0
 36 66  1  0  0  0  0
 36 71  1  0  0  0  0
 36 82  2  0  0  0  0
 37 67  1  0  0  0  0
 37 76  1  0  0  0  0
 37 83  2  0  0  0  0
 38 72  1  0  0  0  0
 38 77  1  0  0  0  0
 38 84  2  0  0  0  0
 39 42  1  0  0  0  0
 40 54  1  0  0  0  0
 41 71  1  0  0  0  0
 42 44  1  0  0  0  0
 43 45  1  0  0  0  0
 43 48  1  0  0  0  0
 44 53  1  0  0  0  0
 45 55  1  0  0  0  0
 46 50  1  0  0  0  0
 46 52  1  0  0  0  0
 47 51  1  0  0  0  0
 47 52  1  0  0  0  0
 48 72  1  0  0  0  0
 49 55  1  0  0  0  0
 49 72  1  0  0  0  0
 50 78  1  0  0  0  0
 51 78  1  0  0  0  0
 53 75  1  0  0  0  0
 54 71  1  0  0  0  0
 55 70  1  0  0  0  0
 57 67  1  0  0  0  0
 58 68  1  0  0  0  0
 59 68  1  0  0  0  0
 60 68  1  0  0  0  0
 61 79  1  0  0  0  0
 62 77  1  0  0  0  0
 63 64  1  0  0  0  0
 63 65  1  0  0  0  0
 64 78  1  0  0  0  0
 65 86  1  0  0  0  0
 66 68  1  0  0  0  0
 66 76  1  0  0  0  0
 67 79  1  0  0  0  0
 69 70  1  0  0  0  0
M  CHG  2  78   1  79   1
M  ISO  4  38 100  65 101  77 100  86 101
M  END
> <Batch ID>
0038

> <Smiles>
CNC(C)C(=O)NC(C(=O)N1Cc2cc([101O:1][101CH2:1]CCN3CCC(c4ccc(C[100NH:0][100C:0](=O)N5CCCC(n6nc(-c7ccc(Oc8ccc(F)cc8F)cc7)c(C(N)=O)c6N)C5)cc4C)CC3)ccc2CC1C(=O)NC1CCCc2ccccc21)C(C)(C)C

> <Shape>
0.267

> <Color>
0.070

> <Negative vol penalty>
0.000

$$$$

  -OEChem-04042322003D

 88 97  0     1  0  0  0  0  0999 V2000
  -24.9662  -34.1208   14.6301 C   0  0  0  0  0  0  0  0  0  0  0  0
  -25.7163  -32.9508   14.6917 C   0  0  0  0  0  0  0  0  0  0  0  0
  -24.3586   -9.4647   22.2946 C   0  0  0  0  0  0  0  0  0  0  0  0
  -23.8898   -9.6724   19.9336 C   0  0  0  0  0  0  0  0  0  0  0  0
  -24.8313  -34.9215   15.7635 C   0  0  0  0  0  0  0  0  0  0  0  0
  -26.3328  -32.5813   15.8866 C   0  0  0  0  0  0  0  0  0  0  0  0
  -27.1745  -26.8912   17.9889 C   0  0  0  0  0  0  0  0  0  0  0  0
  -29.6371  -20.3139   23.3839 C   0  0  0  0  0  0  0  0  0  0  0  0
  -29.8139  -19.2310   24.2451 C   0  0  0  0  0  0  0  0  0  0  0  0
  -23.9009   -8.1474   22.2696 C   0  0  0  0  0  0  0  0  0  0  0  0
  -23.4321   -8.3550   19.9087 C   0  0  0  0  0  0  0  0  0  0  0  0
  -28.2727  -26.0329   17.9585 C   0  0  0  0  0  0  0  0  0  0  0  0
  -20.9251   -6.5446   22.2626 C   0  0  0  0  0  0  0  0  0  0  0  0
  -20.0738   -6.1355   23.2890 C   0  0  0  0  0  0  0  0  0  0  0  0
  -28.8862  -26.7490   20.1789 C   0  0  0  0  0  0  0  0  0  0  0  0
  -21.6657   -4.4356   23.9319 C   0  0  0  0  0  0  0  0  0  0  0  0
  -24.3530  -10.2273   21.1266 C   0  0  0  0  0  0  0  0  0  0  0  0
  -24.3140  -12.6513   21.9204 C   0  0  0  0  0  0  0  0  0  0  0  0
  -25.4385  -34.5567   16.9754 C   0  0  0  0  0  0  0  0  0  0  0  0
  -26.9296  -27.6943   19.1121 C   0  0  0  0  0  0  0  0  0  0  0  0
  -26.2070  -33.3785   17.0369 C   0  0  0  0  0  0  0  0  0  0  0  0
  -27.7828  -27.6148   20.2220 C   0  0  0  0  0  0  0  0  0  0  0  0
  -29.4717  -20.0973   22.0159 C   0  0  0  0  0  0  0  0  0  0  0  0
  -29.8253  -17.9315   23.7384 C   0  0  0  0  0  0  0  0  0  0  0  0
  -29.4832  -18.7978   21.5091 C   0  0  0  0  0  0  0  0  0  0  0  0
  -29.6600  -17.7149   22.3703 C   0  0  0  0  0  0  0  0  0  0  0  0
  -23.4377   -7.5925   21.0767 C   0  0  0  0  0  0  0  0  0  0  0  0
  -29.1305  -25.9638   19.0525 C   0  0  0  0  0  0  0  0  0  0  0  0
  -22.1467   -5.8991   22.0708 C   0  0  0  0  0  0  0  0  0  0  0  0
  -20.4440   -5.0811   24.1237 C   0  0  0  0  0  0  0  0  0  0  0  0
  -22.5170   -4.8447   22.9055 C   0  0  0  0  0  0  0  0  0  0  0  0
  -24.8251  -11.5884   21.1519 C   0  0  0  0  0  0  0  0  0  0  0  0
  -25.1020  -13.7258   21.5872 C   0  0  0  0  0  0  0  0  0  0  0  0
  -30.2623  -22.7280   19.4261 C   0  0  0  0  0  0  0  0  0  0  0  0
  -30.0721  -22.4513   18.1254 C   0  0  0  0  0  0  0  0  0  0  0  0
  -23.2245  -12.6661   22.8523 C   0  0  0  0  0  0  0  0  0  0  0  0
  -26.7887  -30.8250   19.6434 C   0  0  0  0  0  0  0  0  0  0  0  0
  -25.8236  -29.8865   22.5947 C   0  0  0  0  0  0  0  0  0  0  0  0
  -26.7434  -27.3408   24.9803 C   0  0  0  0  0  0  0  0  0  0  0  0
  -30.0939  -15.9831   20.5929 C   0  0  0  0  0  0  0  0  0  0  0  0
  -25.3035  -35.4785   18.1614 C   0  0  0  0  0  0  0  0  0  0  0  0
  -25.7255  -28.5952   19.1398 C   0  0  0  0  0  0  0  0  0  0  0  0
  -27.5524  -28.4411   21.4601 C   0  0  0  0  0  0  0  0  0  0  0  0
  -25.6784  -34.8231   19.4881 C   0  0  0  0  0  0  0  0  0  0  0  0
  -28.5130  -14.2885   17.8899 C   0  0  0  0  0  0  0  0  0  0  0  0
  -31.7378  -23.1755   21.8431 C   0  0  0  0  0  0  0  0  0  0  0  0
  -26.9916  -34.0587   19.3537 C   0  0  0  0  0  0  0  0  0  0  0  0
  -31.5201  -24.3271   20.8681 C   0  0  0  0  0  0  0  0  0  0  0  0
  -27.3706  -13.5224   18.5608 C   0  0  0  0  0  0  0  0  0  0  0  0
  -29.7619  -14.3287   18.7688 C   0  0  0  0  0  0  0  0  0  0  0  0
  -28.4022  -14.0573   20.8051 C   0  0  0  0  0  0  0  0  0  0  0  0
  -31.7582  -21.8316   21.1223 C   0  0  0  0  0  0  0  0  0  0  0  0
  -26.8705  -32.9313   18.3214 C   0  0  1  0  0  0  0  0  0  0  0  0
  -30.2627  -24.1161   20.0261 C   0  0  1  0  0  0  0  0  0  1  0  0
  -25.8633  -29.7464   20.1313 C   0  0  1  0  0  0  0  0  0  0  0  0
  -27.1015  -14.0455   19.9855 C   0  0  2  0  0  0  0  0  0  0  0  0
  -30.0174  -16.7921   24.6864 C   0  0  0  0  0  0  0  0  0  0  0  0
  -28.1106  -17.6782   19.7346 C   0  0  0  0  0  0  0  0  0  0  0  0
  -25.3891  -26.2138   26.7673 C   0  0  0  0  0  0  0  0  0  0  0  0
  -26.9681  -32.0475   24.4196 C   0  0  0  0  0  0  0  0  0  0  0  0
  -27.1542  -30.3248   26.2268 C   0  0  0  0  0  0  0  0  0  0  0  0
  -24.9165  -30.9190   25.2983 C   0  0  0  0  0  0  0  0  0  0  0  0
  -27.3711  -24.6496   23.9210 C   0  0  0  0  0  0  0  0  0  0  0  0
  -29.3065  -18.5729   20.0398 C   0  0  0  0  0  0  0  0  0  0  0  0
  -29.2837  -21.2801   21.1123 C   0  0  0  0  0  0  0  0  0  0  0  0
  -26.5201  -29.5598   23.8936 C   0  0  1  0  0  0  0  0  0  0  0  0
  -25.9366  -26.1099   25.3522 C   0  0  2  0  0  0  0  0  0  0  0  0
  -26.4025  -30.7088   24.9345 C   0  0  0  0  0  0  0  0  0  0  0  0
  -25.8578  -11.9544   20.3879 N   0  0  0  0  0  0  0  0  0  0  0  0
  -26.0018  -13.2594   20.6746 N   0  0  0  0  0  0  0  0  0  0  0  0
  -26.3652  -29.3114   21.4364 N   0  0  0  0  0  0  0  0  0  0  0  0
  -29.4313  -14.8385   20.1013 N   0  0  0  0  0  0  0  0  0  0  0  0
  -25.1058  -15.0147   21.9887 N   0  0  0  0  0  0  0  0  0  0  0  0
  -21.9401  -12.9593   22.3740 N   0  0  0  0  0  0  0  0  0  0  0  0
  -29.6734  -16.3941   21.8574 N   0  0  0  0  0  0  0  0  0  0  0  0
  -26.1668  -31.8007   18.8880 N   0  0  0  0  0  0  0  0  0  0  0  0
  -25.9678  -28.2868   24.3440 N   0  0  0  0  0  0  0  0  0  0  0  0
  -30.5091  -21.6039   20.3026 N   0  3  1  0  0  0  0  0  0  0  0  0
  -26.7858  -24.8883   25.2654 N   0  3  0  0  0  0  0  0  0  0  0  0
  -23.3877  -12.4424   24.0757 O   0  0  0  0  0  0  0  0  0  0  0  0
  -27.9786  -30.7764   19.9323 O   0  0  0  0  0  0  0  0  0  0  0  0
  -24.8312  -30.6190   22.6082 O   0  0  0  0  0  0  0  0  0  0  0  0
  -27.9410  -27.4536   25.2326 O   0  0  0  0  0  0  0  0  0  0  0  0
  -30.9505  -16.5725   19.9289 O   0  0  0  0  0  0  0  0  0  0  0  0
  -22.9912   -6.3069   21.0519 O   0  0  0  0  0  0  0  0  0  0  0  0
  -30.2035  -25.1274   19.0252 O   0  0  0  0  0  0  0  0  0  1  0  0
  -19.6271   -4.6894   25.1102 F   0  0  0  0  0  0  0  0  0  0  0  0
  -23.6899   -4.2216   22.7269 F   0  0  0  0  0  0  0  0  0  0  0  0
  1  2  1  0  0  0  0
  1  5  2  0  0  0  0
  2  6  2  0  0  0  0
  3 10  2  0  0  0  0
  3 17  1  0  0  0  0
  4 11  1  0  0  0  0
  4 17  2  0  0  0  0
  5 19  1  0  0  0  0
  6 21  1  0  0  0  0
  7 12  2  0  0  0  0
  7 20  1  0  0  0  0
  8  9  2  0  0  0  0
  8 23  1  0  0  0  0
  9 24  1  0  0  0  0
 10 27  1  0  0  0  0
 11 27  2  0  0  0  0
 12 28  1  0  0  0  0
 13 14  2  0  0  0  0
 13 29  1  0  0  0  0
 14 30  1  0  0  0  0
 15 22  1  0  0  0  0
 15 28  2  0  0  0  0
 16 30  2  0  0  0  0
 16 31  1  0  0  0  0
 17 32  1  0  0  0  0
 18 32  1  0  0  0  0
 18 33  2  0  0  0  0
 18 36  1  0  0  0  0
 19 21  2  0  0  0  0
 19 41  1  0  0  0  0
 20 22  2  0  0  0  0
 20 42  1  0  0  0  0
 21 53  1  0  0  0  0
 22 43  1  0  0  0  0
 23 25  2  0  0  0  0
 23 65  1  0  0  0  0
 24 26  2  0  0  0  0
 24 57  1  0  0  0  0
 25 26  1  0  0  0  0
 25 64  1  0  0  0  0
 26 75  1  0  0  0  0
 27 85  1  0  0  0  0
 28 86  1  0  0  0  0
 29 31  2  0  0  0  0
 29 85  1  0  0  0  0
 30 87  1  0  0  0  0
 31 88  1  0  0  0  0
 32 69  2  0  0  0  0
 33 70  1  0  0  0  0
 33 73  1  0  0  0  0
 34 35  2  0  0  0  0
 34 54  1  0  0  0  0
 34 78  1  0  0  0  0
 36 74  1  0  0  0  0
 36 80  2  0  0  0  0
 37 55  1  0  0  0  0
 37 76  1  0  0  0  0
 37 81  2  0  0  0  0
 38 66  1  0  0  0  0
 38 71  1  0  0  0  0
 38 82  2  0  0  0  0
 39 67  1  0  0  0  0
 39 77  1  0  0  0  0
 39 83  2  0  0  0  0
 40 72  1  0  0  0  0
 40 75  1  0  0  0  0
 40 84  2  0  0  0  0
 41 44  1  0  0  0  0
 42 55  1  0  0  0  0
 43 71  1  0  0  0  0
 44 47  1  0  0  0  0
 45 49  1  0  0  0  0
 45 50  1  0  0  0  0
 46 48  1  0  0  0  0
 46 52  1  0  0  0  0
 47 53  1  0  0  0  0
 48 54  1  0  0  0  0
 49 56  1  0  0  0  0
 50 72  1  0  0  0  0
 51 56  1  0  0  0  0
 51 72  1  0  0  0  0
 52 78  1  0  0  0  0
 53 76  1  0  0  0  0
 54 86  1  0  0  0  0
 55 71  1  0  0  0  0
 56 70  1  0  0  0  0
 58 64  1  0  0  0  0
 59 67  1  0  0  0  0
 60 68  1  0  0  0  0
 61 68  1  0  0  0  0
 62 68  1  0  0  0  0
 63 79  1  0  0  0  0
 65 78  1  0  0  0  0
 66 68  1  0  0  0  0
 66 77  1  0  0  0  0
 67 79  1  0  0  0  0
 69 70  1  0  0  0  0
M  CHG  2  78   1  79   1
M  ISO  4  40 100  54 101  75 100  86 101
M  END
> <Batch ID>
0038

> <Smiles>
C=C1N(Cc2ccc(C)c([100NH:0][100C:0](=O)N3CCCC(n4nc(-c5ccc(Oc6ccc(F)cc6F)cc5)c(C(N)=O)c4N)C3)c2CC)CCC[101CH:1]1[101O:1]c1ccc2c(c1)CN(C(=O)C(NC(=O)C(C)NC)C(C)(C)C)C(C(=O)NC1CCCc3ccccc31)C2

> <Shape>
0.290

> <Color>
0.118

> <Negative vol penalty>
0.000

$$$$

  -OEChem-04042322003D

 84 92  0     1  0  0  0  0  0999 V2000
  -22.5884  -11.0839   19.5256 C   0  0  0  0  0  0  0  0  0  0  0  0
  -22.0377  -12.3176   19.8574 C   0  0  0  0  0  0  0  0  0  0  0  0
  -29.5927  -27.6336   18.3061 C   0  0  0  0  0  0  0  0  0  0  0  0
  -29.7213  -29.4135   19.9348 C   0  0  0  0  0  0  0  0  0  0  0  0
  -23.9508  -10.8562   19.7151 C   0  0  0  0  0  0  0  0  0  0  0  0
  -22.8490  -13.3241   20.3801 C   0  0  0  0  0  0  0  0  0  0  0  0
  -22.3091  -19.3507   19.4343 C   0  0  0  0  0  0  0  0  0  0  0  0
  -30.8854  -27.9334   17.8764 C   0  0  0  0  0  0  0  0  0  0  0  0
  -31.0140  -29.7132   19.5052 C   0  0  0  0  0  0  0  0  0  0  0  0
  -21.7358  -20.3713   20.1915 C   0  0  0  0  0  0  0  0  0  0  0  0
  -34.0515  -27.3612   18.9164 C   0  0  0  0  0  0  0  0  0  0  0  0
  -34.9311  -26.2973   18.7163 C   0  0  0  0  0  0  0  0  0  0  0  0
  -23.9020  -20.8944   21.1152 C   0  0  0  0  0  0  0  0  0  0  0  0
  -18.3312  -28.4702   22.4846 C   0  0  0  0  0  0  0  0  0  0  0  0
  -18.1274  -26.1242   23.0246 C   0  0  0  0  0  0  0  0  0  0  0  0
  -35.1689  -26.9302   16.3968 C   0  0  0  0  0  0  0  0  0  0  0  0
  -29.0106  -28.3737   19.3353 C   0  0  0  0  0  0  0  0  0  0  0  0
  -27.3039  -27.1630   20.7944 C   0  0  0  0  0  0  0  0  0  0  0  0
  -24.7810  -11.8637   20.2313 C   0  0  0  0  0  0  0  0  0  0  0  0
  -23.6836  -19.0867   19.5202 C   0  0  0  0  0  0  0  0  0  0  0  0
  -24.2236  -13.1093   20.5779 C   0  0  0  0  0  0  0  0  0  0  0  0
  -24.4907  -19.8715   20.3561 C   0  0  0  0  0  0  0  0  0  0  0  0
  -17.5983  -27.2837   22.4578 C   0  0  0  0  0  0  0  0  0  0  0  0
  -19.5933  -28.4971   23.0781 C   0  0  0  0  0  0  0  0  0  0  0  0
  -19.3894  -26.1511   23.6181 C   0  0  0  0  0  0  0  0  0  0  0  0
  -31.5961  -28.9731   18.4760 C   0  0  0  0  0  0  0  0  0  0  0  0
  -22.5318  -21.1415   21.0343 C   0  0  0  0  0  0  0  0  0  0  0  0
  -33.7305  -28.2096   17.8566 C   0  0  0  0  0  0  0  0  0  0  0  0
  -35.4898  -26.0819   17.4565 C   0  0  0  0  0  0  0  0  0  0  0  0
  -34.2892  -27.9941   16.5969 C   0  0  0  0  0  0  0  0  0  0  0  0
  -20.1223  -27.3376   23.6449 C   0  0  0  0  0  0  0  0  0  0  0  0
  -27.6750  -28.0649   19.7792 C   0  0  0  0  0  0  0  0  0  0  0  0
  -25.9325  -27.2310   20.8296 C   0  0  0  0  0  0  0  0  0  0  0  0
  -28.1253  -26.3376   21.6309 C   0  0  0  0  0  0  0  0  0  0  0  0
  -25.4369  -16.5963   20.4300 C   0  0  0  0  0  0  0  0  0  0  0  0
  -27.8909  -18.4294   19.3625 C   0  0  0  0  0  0  0  0  0  0  0  0
  -29.0858  -21.5484   18.6618 C   0  0  0  0  0  0  0  0  0  0  0  0
  -21.2043  -30.1955   20.7915 C   0  0  0  0  0  0  0  0  0  0  0  0
  -26.2390  -11.5551   20.4627 C   0  0  0  0  0  0  0  0  0  0  0  0
  -24.2911  -17.9996   18.6767 C   0  0  0  0  0  0  0  0  0  0  0  0
  -25.9749  -19.6418   20.4691 C   0  0  0  0  0  0  0  0  0  0  0  0
  -27.0993  -12.7989   20.6709 C   0  0  0  0  0  0  0  0  0  0  0  0
  -22.6611  -29.4028   17.6409 C   0  0  0  0  0  0  0  0  0  0  0  0
  -26.4303  -13.7518   21.6564 C   0  0  0  0  0  0  0  0  0  0  0  0
  -24.0661  -28.9159   17.9997 C   0  0  0  0  0  0  0  0  0  0  0  0
  -22.2079  -30.5405   18.5532 C   0  0  0  0  0  0  0  0  0  0  0  0
  -23.6978  -29.7615   20.3552 C   0  0  0  0  0  0  0  0  0  0  0  0
  -25.0756  -14.2344   21.1241 C   0  0  1  0  0  0  0  0  0  0  0  0
  -25.6156  -17.4833   19.2304 C   0  0  1  0  0  0  0  0  0  0  0  0
  -24.1764  -28.5769   19.4985 C   0  0  2  0  0  0  0  0  0  0  0  0
  -16.2490  -27.2550   21.8233 C   0  0  0  0  0  0  0  0  0  0  0  0
  -31.1399  -22.7320   17.8389 C   0  0  0  0  0  0  0  0  0  0  0  0
  -29.2091  -18.0296   22.0850 C   0  0  0  0  0  0  0  0  0  0  0  0
  -30.7252  -19.9503   21.5553 C   0  0  0  0  0  0  0  0  0  0  0  0
  -30.7740  -17.8975   20.1388 C   0  0  0  0  0  0  0  0  0  0  0  0
  -27.6558  -22.6419   16.3127 C   0  0  0  0  0  0  0  0  0  0  0  0
  -20.3429  -29.7907   23.0835 C   0  0  0  0  0  0  0  0  0  0  0  0
  -19.9184  -24.8803   24.2149 C   0  0  0  0  0  0  0  0  0  0  0  0
  -21.5587  -23.0118   23.9764 C   0  0  0  0  0  0  0  0  0  0  0  0
  -22.5920  -22.4405   23.0255 C   0  0  0  0  0  0  0  0  0  1  0  0
  -28.7979  -19.4664   19.9797 C   0  0  1  0  0  0  0  0  0  0  0  0
  -29.8132  -22.0994   17.4486 C   0  0  2  0  0  0  0  0  0  0  0  0
  -29.8483  -18.8393   20.9393 C   0  0  0  0  0  0  0  0  0  0  0  0
  -26.6243  -28.6620   19.2105 N   0  0  0  0  0  0  0  0  0  0  0  0
  -25.5794  -28.1341   19.8705 N   0  0  0  0  0  0  0  0  0  0  0  0
  -26.5209  -18.5631   19.6290 N   0  0  0  0  0  0  0  0  0  0  0  0
  -22.3359  -30.1541   19.9604 N   0  0  0  0  0  0  0  0  0  0  0  0
  -25.0063  -26.6058   21.5870 N   0  0  0  0  0  0  0  0  0  0  0  0
  -29.5157  -26.3901   21.4626 N   0  0  0  0  0  0  0  0  0  0  0  0
  -25.2632  -15.2606   20.1211 N   0  0  0  0  0  0  0  0  0  0  0  0
  -29.3753  -20.2164   18.8695 N   0  0  0  0  0  0  0  0  0  0  0  0
  -21.4114  -29.8073   22.1095 N   0  0  0  0  0  0  0  0  0  0  0  0
  -28.9808  -23.1332   16.7710 N   0  3  0  0  0  0  0  0  0  0  0  0
  -20.9729  -24.2402   23.3830 N   0  3  0  0  0  0  0  0  0  0  0  0
  -27.6397  -25.5638   22.4906 O   0  0  0  0  0  0  0  0  0  0  0  0
  -25.4566  -17.0870   21.5527 O   0  0  0  0  0  0  0  0  0  0  0  0
  -28.3792  -17.5380   18.6636 O   0  0  0  0  0  0  0  0  0  0  0  0
  -28.3387  -22.2323   19.3579 O   0  0  0  0  0  0  0  0  0  0  0  0
  -20.0906  -30.5468   20.3875 O   0  0  0  0  0  0  0  0  0  0  0  0
  -32.8576  -29.2658   18.0571 O   0  0  0  0  0  0  0  0  0  0  0  0
  -21.9747  -22.1380   21.7750 O   0  0  0  0  0  0  0  0  0  1  0  0
  -36.3357  -25.0611   17.2649 F   0  0  0  0  0  0  0  0  0  0  0  0
  -33.9856  -28.8065   15.5753 F   0  0  0  0  0  0  0  0  0  0  0  0
  -21.6893  -27.3710   24.3816 Cl  0  0  0  0  0  0  0  0  0  0  0  0
  1  2  1  0  0  0  0
  1  5  2  0  0  0  0
  2  6  2  0  0  0  0
  3  8  2  0  0  0  0
  3 17  1  0  0  0  0
  4  9  1  0  0  0  0
  4 17  2  0  0  0  0
  5 19  1  0  0  0  0
  6 21  1  0  0  0  0
  7 10  2  0  0  0  0
  7 20  1  0  0  0  0
  8 26  1  0  0  0  0
  9 26  2  0  0  0  0
 10 27  1  0  0  0  0
 11 12  2  0  0  0  0
 11 28  1  0  0  0  0
 12 29  1  0  0  0  0
 13 22  1  0  0  0  0
 13 27  2  0  0  0  0
 14 23  1  0  0  0  0
 14 24  2  0  0  0  0
 15 23  2  0  0  0  0
 15 25  1  0  0  0  0
 16 29  2  0  0  0  0
 16 30  1  0  0  0  0
 17 32  1  0  0  0  0
 18 32  1  0  0  0  0
 18 33  2  0  0  0  0
 18 34  1  0  0  0  0
 19 21  2  0  0  0  0
 19 39  1  0  0  0  0
 20 22  2  0  0  0  0
 20 40  1  0  0  0  0
 21 48  1  0  0  0  0
 22 41  1  0  0  0  0
 23 51  1  0  0  0  0
 24 31  1  0  0  0  0
 24 57  1  0  0  0  0
 25 31  2  0  0  0  0
 25 58  1  0  0  0  0
 26 80  1  0  0  0  0
 27 81  1  0  0  0  0
 28 30  2  0  0  0  0
 28 80  1  0  0  0  0
 29 82  1  0  0  0  0
 30 83  1  0  0  0  0
 31 84  1  0  0  0  0
 32 64  2  0  0  0  0
 33 65  1  0  0  0  0
 33 68  1  0  0  0  0
 34 69  1  0  0  0  0
 34 75  2  0  0  0  0
 35 49  1  0  0  0  0
 35 70  1  0  0  0  0
 35 76  2  0  0  0  0
 36 61  1  0  0  0  0
 36 66  1  0  0  0  0
 36 77  2  0  0  0  0
 37 62  1  0  0  0  0
 37 71  1  0  0  0  0
 37 78  2  0  0  0  0
 38 67  1  0  0  0  0
 38 72  1  0  0  0  0
 38 79  2  0  0  0  0
 39 42  1  0  0  0  0
 40 49  1  0  0  0  0
 41 66  1  0  0  0  0
 42 44  1  0  0  0  0
 43 45  1  0  0  0  0
 43 46  1  0  0  0  0
 44 48  1  0  0  0  0
 45 50  1  0  0  0  0
 46 67  1  0  0  0  0
 47 50  1  0  0  0  0
 47 67  1  0  0  0  0
 48 70  1  0  0  0  0
 49 66  1  0  0  0  0
 50 65  1  0  0  0  0
 52 62  1  0  0  0  0
 53 63  1  0  0  0  0
 54 63  1  0  0  0  0
 55 63  1  0  0  0  0
 56 73  1  0  0  0  0
 57 72  1  0  0  0  0
 58 74  1  0  0  0  0
 59 60  1  0  0  0  0
 59 74  1  0  0  0  0
 60 81  1  0  0  0  0
 61 63  1  0  0  0  0
 61 71  1  0  0  0  0
 62 73  1  0  0  0  0
 64 65  1  0  0  0  0
M  CHG  2  73   1  74   1
M  ISO  4  38 100  60 101  72 100  81 101
M  END
> <Batch ID>
0038

> <Smiles>
CNC(C)C(=O)NC(C(=O)N1Cc2cc([101O:1][101CH2:1]CNCc3cc(C)cc(C[100NH:0][100C:0](=O)N4CCCC(n5nc(-c6ccc(Oc7ccc(F)cc7F)cc6)c(C(N)=O)c5N)C4)c3Cl)ccc2CC1C(=O)NC1CCCc2ccccc21)C(C)(C)C

> <Shape>
0.224

> <Color>
0.076

> <Negative vol penalty>
0.000

$$$$

  -OEChem-04042322003D

 86 94  0     1  0  0  0  0  0999 V2000
  -30.1164  -25.7882   14.1915 C   0  0  0  0  0  0  0  0  0  0  0  0
  -29.9342  -25.4264   15.5225 C   0  0  0  0  0  0  0  0  0  0  0  0
  -23.0774   -9.8650   19.9419 C   0  0  0  0  0  0  0  0  0  0  0  0
  -23.8350   -9.8755   22.2360 C   0  0  0  0  0  0  0  0  0  0  0  0
  -31.3907  -25.7470   13.6273 C   0  0  0  0  0  0  0  0  0  0  0  0
  -31.0262  -25.0222   16.2897 C   0  0  0  0  0  0  0  0  0  0  0  0
  -31.0555  -27.1350   20.8919 C   0  0  0  0  0  0  0  0  0  0  0  0
  -22.3340   -8.7117   20.1926 C   0  0  0  0  0  0  0  0  0  0  0  0
  -23.0916   -8.7222   22.4868 C   0  0  0  0  0  0  0  0  0  0  0  0
  -30.1944  -26.5948   21.8460 C   0  0  0  0  0  0  0  0  0  0  0  0
  -19.8633   -7.9231   23.0872 C   0  0  0  0  0  0  0  0  0  0  0  0
  -19.1052   -7.8843   24.2573 C   0  0  0  0  0  0  0  0  0  0  0  0
  -32.0361  -25.3660   22.8038 C   0  0  0  0  0  0  0  0  0  0  0  0
  -31.1519  -17.6805   20.5878 C   0  0  0  0  0  0  0  0  0  0  0  0
  -20.3471   -5.9486   24.9976 C   0  0  0  0  0  0  0  0  0  0  0  0
  -23.8280  -10.4468   20.9636 C   0  0  0  0  0  0  0  0  0  0  0  0
  -29.7076  -19.2920   22.3485 C   0  0  0  0  0  0  0  0  0  0  0  0
  -24.1683  -12.9721   20.8405 C   0  0  0  0  0  0  0  0  0  0  0  0
  -32.5003  -25.3513   14.3907 C   0  0  0  0  0  0  0  0  0  0  0  0
  -32.4136  -26.7858   20.8798 C   0  0  0  0  0  0  0  0  0  0  0  0
  -32.3163  -24.9744   15.7348 C   0  0  0  0  0  0  0  0  0  0  0  0
  -32.9129  -25.9052   21.8500 C   0  0  0  0  0  0  0  0  0  0  0  0
  -31.3350  -19.0632   20.5774 C   0  0  0  0  0  0  0  0  0  0  0  0
  -30.6129  -19.8690   21.4578 C   0  0  0  0  0  0  0  0  0  0  0  0
  -29.5245  -17.9092   22.3588 C   0  0  0  0  0  0  0  0  0  0  0  0
  -30.2466  -17.1035   21.4785 C   0  0  0  0  0  0  0  0  0  0  0  0
  -22.3411   -8.1403   21.4651 C   0  0  0  0  0  0  0  0  0  0  0  0
  -30.6840  -25.7079   22.8004 C   0  0  0  0  0  0  0  0  0  0  0  0
  -20.8633   -6.9747   22.8721 C   0  0  0  0  0  0  0  0  0  0  0  0
  -19.3471   -6.8971   25.2126 C   0  0  0  0  0  0  0  0  0  0  0  0
  -21.1052   -5.9875   23.8274 C   0  0  0  0  0  0  0  0  0  0  0  0
  -24.5966  -11.6379   20.7050 C   0  0  0  0  0  0  0  0  0  0  0  0
  -25.2604  -13.7217   20.4773 C   0  0  0  0  0  0  0  0  0  0  0  0
  -28.9401  -20.1505   23.2871 C   0  0  0  0  0  0  0  0  0  0  0  0
  -22.8971  -13.4876   21.2575 C   0  0  0  0  0  0  0  0  0  0  0  0
  -34.3397  -25.3409   18.8047 C   0  0  0  0  0  0  0  0  0  0  0  0
  -36.6254  -26.1441   20.9618 C   0  0  0  0  0  0  0  0  0  0  0  0
  -37.4163  -26.9351   24.1860 C   0  0  0  0  0  0  0  0  0  0  0  0
  -30.7257  -14.7710   20.6561 C   0  0  0  0  0  0  0  0  0  0  0  0
  -33.8511  -25.2773   13.7239 C   0  0  0  0  0  0  0  0  0  0  0  0
  -33.3347  -27.3979   19.8605 C   0  0  0  0  0  0  0  0  0  0  0  0
  -34.3667  -25.5139   21.8927 C   0  0  0  0  0  0  0  0  0  0  0  0
  -35.0136  -25.1966   14.7100 C   0  0  0  0  0  0  0  0  0  0  0  0
  -29.6152  -12.3533   18.2899 C   0  0  0  0  0  0  0  0  0  0  0  0
  -34.7221  -24.1655   15.7957 C   0  0  0  0  0  0  0  0  0  0  0  0
  -28.1753  -12.0614   18.7184 C   0  0  0  0  0  0  0  0  0  0  0  0
  -30.5290  -12.5843   19.4922 C   0  0  0  0  0  0  0  0  0  0  0  0
  -28.6202  -13.3094   20.8706 C   0  0  0  0  0  0  0  0  0  0  0  0
  -33.4799  -24.5542   16.6064 C   0  0  1  0  0  0  0  0  0  0  0  0
  -34.5966  -26.5738   19.6242 C   0  0  1  0  0  0  0  0  0  0  0  0
  -27.6486  -13.1340   19.6920 C   0  0  2  0  0  0  0  0  0  0  0  0
  -32.3095  -19.6559   19.6127 C   0  0  0  0  0  0  0  0  0  0  0  0
  -30.8145  -21.3521   21.4407 C   0  0  0  0  0  0  0  0  0  0  0  0
  -28.5537  -17.2881   23.3151 C   0  0  0  0  0  0  0  0  0  0  0  0
  -39.3722  -27.5032   25.6519 C   0  0  0  0  0  0  0  0  0  0  0  0
  -37.4547  -23.2079   20.9889 C   0  0  0  0  0  0  0  0  0  0  0  0
  -38.7163  -23.6558   23.1045 C   0  0  0  0  0  0  0  0  0  0  0  0
  -39.3584  -24.8297   20.9992 C   0  0  0  0  0  0  0  0  0  0  0  0
  -36.2974  -29.5943   24.8464 C   0  0  0  0  0  0  0  0  0  0  0  0
  -28.8675  -23.1818   24.6348 C   0  0  0  0  0  0  0  0  0  0  0  0
  -29.0943  -21.7706   25.1599 C   0  0  0  0  0  0  0  0  0  0  0  0
  -30.1601  -23.8766   24.2244 C   0  0  0  0  0  0  0  0  0  1  0  0
  -37.2224  -25.4857   22.1821 C   0  0  1  0  0  0  0  0  0  0  0  0
  -38.2611  -28.0526   24.7708 C   0  0  2  0  0  0  0  0  0  0  0  0
  -38.1601  -24.3004   21.8169 C   0  0  0  0  0  0  0  0  0  0  0  0
  -25.8619  -11.5423   20.2881 N   0  0  0  0  0  0  0  0  0  0  0  0
  -26.2381  -12.8259   20.1585 N   0  0  0  0  0  0  0  0  0  0  0  0
  -35.2263  -26.1342   20.8711 N   0  0  0  0  0  0  0  0  0  0  0  0
  -29.9685  -13.6160   20.3676 N   0  0  0  0  0  0  0  0  0  0  0  0
  -25.4700  -15.0532   20.4028 N   0  0  0  0  0  0  0  0  0  0  0  0
  -21.8854  -12.5783   21.5950 N   0  0  0  0  0  0  0  0  0  0  0  0
  -30.0770  -15.6967   21.4726 N   0  0  0  0  0  0  0  0  0  0  0  0
  -29.6917  -20.9106   24.1761 N   0  0  0  0  0  0  0  0  0  0  0  0
  -33.8027  -25.5963   17.5574 N   0  0  0  0  0  0  0  0  0  0  0  0
  -37.8708  -26.5481   22.9431 N   0  0  0  0  0  0  0  0  0  0  0  0
  -37.4166  -28.9644   25.5931 N   0  3  0  0  0  0  0  0  0  0  0  0
  -27.7126  -20.1334   23.2486 O   0  0  0  0  0  0  0  0  0  0  0  0
  -22.6600  -14.7182   21.3130 O   0  0  0  0  0  0  0  0  0  0  0  0
  -34.6101  -24.2396   19.2691 O   0  0  0  0  0  0  0  0  0  0  0  0
  -37.3726  -26.6548   20.1237 O   0  0  0  0  0  0  0  0  0  0  0  0
  -36.4520  -26.4513   24.7747 O   0  0  0  0  0  0  0  0  0  0  0  0
  -31.8552  -14.9398   20.1894 O   0  0  0  0  0  0  0  0  0  0  0  0
  -21.6156   -7.0151   21.7102 O   0  0  0  0  0  0  0  0  0  0  0  0
  -29.8455  -25.1787   23.7324 O   0  0  0  0  0  0  0  0  0  1  0  0
  -18.6201   -6.8608   26.3370 F   0  0  0  0  0  0  0  0  0  0  0  0
  -22.0653   -5.0743   23.6269 F   0  0  0  0  0  0  0  0  0  0  0  0
  1  2  1  0  0  0  0
  1  5  2  0  0  0  0
  2  6  2  0  0  0  0
  3  8  2  0  0  0  0
  3 16  1  0  0  0  0
  4  9  1  0  0  0  0
  4 16  2  0  0  0  0
  5 19  1  0  0  0  0
  6 21  1  0  0  0  0
  7 10  2  0  0  0  0
  7 20  1  0  0  0  0
  8 27  1  0  0  0  0
  9 27  2  0  0  0  0
 10 28  1  0  0  0  0
 11 12  2  0  0  0  0
 11 29  1  0  0  0  0
 12 30  1  0  0  0  0
 13 22  1  0  0  0  0
 13 28  2  0  0  0  0
 14 23  1  0  0  0  0
 14 26  2  0  0  0  0
 15 30  2  0  0  0  0
 15 31  1  0  0  0  0
 16 32  1  0  0  0  0
 17 24  1  0  0  0  0
 17 25  2  0  0  0  0
 17 34  1  0  0  0  0
 18 32  1  0  0  0  0
 18 33  2  0  0  0  0
 18 35  1  0  0  0  0
 19 21  2  0  0  0  0
 19 40  1  0  0  0  0
 20 22  2  0  0  0  0
 20 41  1  0  0  0  0
 21 49  1  0  0  0  0
 22 42  1  0  0  0  0
 23 24  2  0  0  0  0
 23 52  1  0  0  0  0
 24 53  1  0  0  0  0
 25 26  1  0  0  0  0
 25 54  1  0  0  0  0
 26 72  1  0  0  0  0
 27 83  1  0  0  0  0
 28 84  1  0  0  0  0
 29 31  2  0  0  0  0
 29 83  1  0  0  0  0
 30 85  1  0  0  0  0
 31 86  1  0  0  0  0
 32 66  2  0  0  0  0
 33 67  1  0  0  0  0
 33 70  1  0  0  0  0
 34 73  1  0  0  0  0
 34 77  2  0  0  0  0
 35 71  1  0  0  0  0
 35 78  2  0  0  0  0
 36 50  1  0  0  0  0
 36 74  1  0  0  0  0
 36 79  2  0  0  0  0
 37 63  1  0  0  0  0
 37 68  1  0  0  0  0
 37 80  2  0  0  0  0
 38 64  1  0  0  0  0
 38 75  1  0  0  0  0
 38 81  2  0  0  0  0
 39 69  1  0  0  0  0
 39 72  1  0  0  0  0
 39 82  2  0  0  0  0
 40 43  1  0  0  0  0
 41 50  1  0  0  0  0
 42 68  1  0  0  0  0
 43 45  1  0  0  0  0
 44 46  1  0  0  0  0
 44 47  1  0  0  0  0
 45 49  1  0  0  0  0
 46 51  1  0  0  0  0
 47 69  1  0  0  0  0
 48 51  1  0  0  0  0
 48 69  1  0  0  0  0
 49 74  1  0  0  0  0
 50 68  1  0  0  0  0
 51 67  1  0  0  0  0
 55 64  1  0  0  0  0
 56 65  1  0  0  0  0
 57 65  1  0  0  0  0
 58 65  1  0  0  0  0
 59 76  1  0  0  0  0
 60 61  1  0  0  0  0
 60 62  1  0  0  0  0
 61 73  1  0  0  0  0
 62 84  1  0  0  0  0
 63 65  1  0  0  0  0
 63 75  1  0  0  0  0
 64 76  1  0  0  0  0
 66 67  1  0  0  0  0
M  CHG  1  76   1
M  ISO  4  39 100  62 101  72 100  84 101
M  END
> <Batch ID>
0038

> <Smiles>
CNC(C)C(=O)NC(C(=O)N1Cc2cc([101O:1][101CH2:1]CCNC(=O)c3c(C)c(C)cc([100NH:0][100C:0](=O)N4CCCC(n5nc(-c6ccc(Oc7ccc(F)cc7F)cc6)c(C(N)=O)c5N)C4)c3C)ccc2CC1C(=O)NC1CCCc2ccccc21)C(C)(C)C

> <Shape>
0.195

> <Color>
0.191

> <Negative vol penalty>
0.000

$$$$

  -OEChem-04042322003D

 87 96  0     1  0  0  0  0  0999 V2000
  -28.5765  -36.4832   21.6444 C   0  0  0  0  0  0  0  0  0  0  0  0
  -28.7599  -35.1049   21.6907 C   0  0  0  0  0  0  0  0  0  0  0  0
  -23.5652  -12.0947   19.9318 C   0  0  0  0  0  0  0  0  0  0  0  0
  -25.5654  -13.3262   20.4972 C   0  0  0  0  0  0  0  0  0  0  0  0
  -27.3952  -37.0447   22.1275 C   0  0  0  0  0  0  0  0  0  0  0  0
  -27.7625  -34.2874   22.2211 C   0  0  0  0  0  0  0  0  0  0  0  0
  -26.8913  -30.1903   19.3751 C   0  0  0  0  0  0  0  0  0  0  0  0
  -24.2988  -10.9084   19.9203 C   0  0  0  0  0  0  0  0  0  0  0  0
  -26.2990  -12.1399   20.4857 C   0  0  0  0  0  0  0  0  0  0  0  0
  -27.7996  -29.1376   19.4795 C   0  0  0  0  0  0  0  0  0  0  0  0
  -25.5430   -8.7270   22.1845 C   0  0  0  0  0  0  0  0  0  0  0  0
  -24.9917   -7.6177   22.8256 C   0  0  0  0  0  0  0  0  0  0  0  0
  -26.2805  -27.9811   20.9539 C   0  0  0  0  0  0  0  0  0  0  0  0
  -27.4662  -22.1324   18.8677 C   0  0  0  0  0  0  0  0  0  0  0  0
  -27.4728  -21.0067   21.0054 C   0  0  0  0  0  0  0  0  0  0  0  0
  -25.0221   -6.3975   20.7406 C   0  0  0  0  0  0  0  0  0  0  0  0
  -24.1985  -13.3036   20.2202 C   0  0  0  0  0  0  0  0  0  0  0  0
  -22.3404  -14.8410   21.0518 C   0  0  0  0  0  0  0  0  0  0  0  0
  -26.3789  -36.2328   22.6552 C   0  0  0  0  0  0  0  0  0  0  0  0
  -25.6735  -30.1510   20.0692 C   0  0  0  0  0  0  0  0  0  0  0  0
  -26.5671  -34.8387   22.7129 C   0  0  0  0  0  0  0  0  0  0  0  0
  -25.3574  -29.0333   20.8547 C   0  0  0  0  0  0  0  0  0  0  0  0
  -28.6302  -22.8140   19.2230 C   0  0  0  0  0  0  0  0  0  0  0  0
  -28.6368  -21.6882   21.3608 C   0  0  0  0  0  0  0  0  0  0  0  0
  -29.2155  -22.5919   20.4695 C   0  0  0  0  0  0  0  0  0  0  0  0
  -26.8875  -21.2288   19.7589 C   0  0  0  0  0  0  0  0  0  0  0  0
  -25.6657  -10.9310   20.1973 C   0  0  0  0  0  0  0  0  0  0  0  0
  -27.4955  -28.0341   20.2713 C   0  0  0  0  0  0  0  0  0  0  0  0
  -25.8337   -8.6717   20.8213 C   0  0  0  0  0  0  0  0  0  0  0  0
  -24.7313   -6.4530   22.1037 C   0  0  0  0  0  0  0  0  0  0  0  0
  -25.5733   -7.5069   20.0994 C   0  0  0  0  0  0  0  0  0  0  0  0
  -23.4414  -14.5295   20.2317 C   0  0  0  0  0  0  0  0  0  0  0  0
  -21.9832  -16.1135   20.6782 C   0  0  0  0  0  0  0  0  0  0  0  0
  -21.6980  -14.0507   22.0610 C   0  0  0  0  0  0  0  0  0  0  0  0
  -24.3243  -31.9267   22.3343 C   0  0  0  0  0  0  0  0  0  0  0  0
  -21.7747  -29.9988   21.7821 C   0  0  0  0  0  0  0  0  0  0  0  0
  -21.2103  -26.4859   21.1836 C   0  0  0  0  0  0  0  0  0  0  0  0
  -24.9982  -20.6386   18.2006 C   0  0  0  0  0  0  0  0  0  0  0  0
  -25.1391  -36.8895   23.2087 C   0  0  0  0  0  0  0  0  0  0  0  0
  -24.6930  -31.2825   19.9249 C   0  0  0  0  0  0  0  0  0  0  0  0
  -24.0547  -28.9333   21.6039 C   0  0  0  0  0  0  0  0  0  0  0  0
  -23.9760  -35.9218   23.4112 C   0  0  0  0  0  0  0  0  0  0  0  0
  -22.0688  -19.0750   16.9157 C   0  0  0  0  0  0  0  0  0  0  0  0
  -24.4536  -34.6511   24.1070 C   0  0  0  0  0  0  0  0  0  0  0  0
  -21.9847  -17.7630   17.6992 C   0  0  0  0  0  0  0  0  0  0  0  0
  -30.1238  -27.5193   21.9757 C   0  0  0  0  0  0  0  0  0  0  0  0
  -31.2940  -27.0904   21.0982 C   0  0  0  0  0  0  0  0  0  0  0  0
  -23.5141  -19.4541   16.5976 C   0  0  0  0  0  0  0  0  0  0  0  0
  -24.3319  -18.1775   18.5395 C   0  0  0  0  0  0  0  0  0  0  0  0
  -29.1397  -25.2071   21.7647 C   0  0  0  0  0  0  0  0  0  0  0  0
  -25.4982  -33.9166   23.2580 C   0  0  1  0  0  0  0  0  0  0  0  0
  -23.7051  -31.3685   21.0842 C   0  0  1  0  0  0  0  0  0  0  0  0
  -22.8995  -17.7877   18.9394 C   0  0  2  0  0  0  0  0  0  0  0  0
  -28.8726  -26.7024   21.6788 C   0  0  2  0  0  0  0  0  0  1  0  0
  -31.5749  -25.5864   21.1979 C   0  0  2  0  0  0  0  0  0  0  0  0
  -29.2297  -23.7767   18.2510 C   0  0  0  0  0  0  0  0  0  0  0  0
  -29.2435  -21.4323   22.7015 C   0  0  0  0  0  0  0  0  0  0  0  0
  -32.7023  -25.2072   20.2395 C   0  0  0  0  0  0  0  0  0  0  0  0
  -19.3658  -25.3173   19.9468 C   0  0  0  0  0  0  0  0  0  0  0  0
  -20.4709  -29.7671   24.5309 C   0  0  0  0  0  0  0  0  0  0  0  0
  -19.6850  -27.4785   23.8882 C   0  0  0  0  0  0  0  0  0  0  0  0
  -18.9039  -29.4697   22.6047 C   0  0  0  0  0  0  0  0  0  0  0  0
  -23.1262  -25.0839   19.4166 C   0  0  0  0  0  0  0  0  0  0  0  0
  -30.4678  -23.3246   20.8514 C   0  0  0  0  0  0  0  0  0  0  0  0
  -21.2909  -28.6809   22.3369 C   0  0  1  0  0  0  0  0  0  0  0  0
  -20.7910  -25.8430   19.8739 C   0  0  2  0  0  0  0  0  0  0  0  0
  -20.1153  -28.8556   23.3394 C   0  0  0  0  0  0  0  0  0  0  0  0
  -23.7624  -15.5239   19.3998 N   0  0  0  0  0  0  0  0  0  0  0  0
  -22.8576  -16.4728   19.6952 N   0  0  0  0  0  0  0  0  0  0  0  0
  -23.1316  -30.0679   21.4358 N   0  0  0  0  0  0  0  0  0  0  0  0
  -24.3200  -19.4611   17.8204 N   0  0  0  0  0  0  0  0  0  0  0  0
  -21.0095  -16.9490   21.0980 N   0  0  0  0  0  0  0  0  0  0  0  0
  -22.1928  -12.7649   22.3183 N   0  0  0  0  0  0  0  0  0  0  0  0
  -25.7057  -20.5355   19.3978 N   0  0  0  0  0  0  0  0  0  0  0  0
  -24.8563  -33.1929   22.1816 N   0  0  0  0  0  0  0  0  0  0  0  0
  -20.9741  -27.8444   21.1844 N   0  0  0  0  0  0  0  0  0  0  0  0
  -30.2971  -24.8250   20.8568 N   0  3  1  0  0  0  0  0  0  0  0  0
  -21.6951  -24.7057   19.5424 N   0  3  0  0  0  0  0  0  0  0  0  0
  -20.7042  -14.4661   22.7039 O   0  0  0  0  0  0  0  0  0  0  0  0
  -24.3186  -31.2587   23.3616 O   0  0  0  0  0  0  0  0  0  0  0  0
  -20.9764  -30.9305   21.6537 O   0  0  0  0  0  0  0  0  0  0  0  0
  -21.6951  -25.8463   22.1144 O   0  0  0  0  0  0  0  0  0  0  0  0
  -24.9323  -21.6711   17.5286 O   0  0  0  0  0  0  0  0  0  0  0  0
  -26.3818   -9.7736   20.1864 O   0  0  0  0  0  0  0  0  0  0  0  0
  -28.3805  -27.0057   20.3754 O   0  0  0  0  0  0  0  0  0  1  0  0
  -24.2033   -5.3872   22.7199 F   0  0  0  0  0  0  0  0  0  0  0  0
  -25.8516   -7.4473   18.7899 F   0  0  0  0  0  0  0  0  0  0  0  0
  1  2  1  0  0  0  0
  1  5  2  0  0  0  0
  2  6  2  0  0  0  0
  3  8  2  0  0  0  0
  3 17  1  0  0  0  0
  4  9  1  0  0  0  0
  4 17  2  0  0  0  0
  5 19  1  0  0  0  0
  6 21  1  0  0  0  0
  7 10  2  0  0  0  0
  7 20  1  0  0  0  0
  8 27  1  0  0  0  0
  9 27  2  0  0  0  0
 10 28  1  0  0  0  0
 11 12  2  0  0  0  0
 11 29  1  0  0  0  0
 12 30  1  0  0  0  0
 13 22  1  0  0  0  0
 13 28  2  0  0  0  0
 14 23  2  0  0  0  0
 14 26  1  0  0  0  0
 15 24  1  0  0  0  0
 15 26  2  0  0  0  0
 16 30  2  0  0  0  0
 16 31  1  0  0  0  0
 17 32  1  0  0  0  0
 18 32  1  0  0  0  0
 18 33  2  0  0  0  0
 18 34  1  0  0  0  0
 19 21  2  0  0  0  0
 19 39  1  0  0  0  0
 20 22  2  0  0  0  0
 20 40  1  0  0  0  0
 21 51  1  0  0  0  0
 22 41  1  0  0  0  0
 23 25  1  0  0  0  0
 23 56  1  0  0  0  0
 24 25  2  0  0  0  0
 24 57  1  0  0  0  0
 25 64  1  0  0  0  0
 26 74  1  0  0  0  0
 27 84  1  0  0  0  0
 28 85  1  0  0  0  0
 29 31  2  0  0  0  0
 29 84  1  0  0  0  0
 30 86  1  0  0  0  0
 31 87  1  0  0  0  0
 32 68  2  0  0  0  0
 33 69  1  0  0  0  0
 33 72  1  0  0  0  0
 34 73  1  0  0  0  0
 34 79  2  0  0  0  0
 35 52  1  0  0  0  0
 35 75  1  0  0  0  0
 35 80  2  0  0  0  0
 36 65  1  0  0  0  0
 36 70  1  0  0  0  0
 36 81  2  0  0  0  0
 37 66  1  0  0  0  0
 37 76  1  0  0  0  0
 37 82  2  0  0  0  0
 38 71  1  0  0  0  0
 38 74  1  0  0  0  0
 38 83  2  0  0  0  0
 39 42  1  0  0  0  0
 40 52  1  0  0  0  0
 41 70  1  0  0  0  0
 42 44  1  0  0  0  0
 43 45  1  0  0  0  0
 43 48  1  0  0  0  0
 44 51  1  0  0  0  0
 45 53  1  0  0  0  0
 46 47  1  0  0  0  0
 46 54  1  0  0  0  0
 47 55  1  0  0  0  0
 48 71  1  0  0  0  0
 49 53  1  0  0  0  0
 49 71  1  0  0  0  0
 50 54  1  0  0  0  0
 50 77  1  0  0  0  0
 51 75  1  0  0  0  0
 52 70  1  0  0  0  0
 53 69  1  0  0  0  0
 54 85  1  0  0  0  0
 55 58  1  0  0  0  0
 55 77  1  0  0  0  0
 59 66  1  0  0  0  0
 60 67  1  0  0  0  0
 61 67  1  0  0  0  0
 62 67  1  0  0  0  0
 63 78  1  0  0  0  0
 64 77  1  0  0  0  0
 65 67  1  0  0  0  0
 65 76  1  0  0  0  0
 66 78  1  0  0  0  0
 68 69  1  0  0  0  0
M  CHG  2  77   1  78   1
M  ISO  4  38 100  54 101  74 100  85 101
M  END
> <Batch ID>
0038

> <Smiles>
CNC(C)C(=O)NC(C(=O)N1Cc2cc([101O:1][101CH:1]3CCC(C)N(Cc4c(C)cc([100NH:0][100C:0](=O)N5CCCC(n6nc(-c7ccc(Oc8ccc(F)cc8F)cc7)c(C(N)=O)c6N)C5)cc4C)C3)ccc2CC1C(=O)NC1CCCc2ccccc21)C(C)(C)C

> <Shape>
0.269

> <Color>
0.072

> <Negative vol penalty>
0.000

$$$$

  -OEChem-04042322003D

 84 92  0     1  0  0  0  0  0999 V2000
  -21.1910  -35.2675   21.6493 C   0  0  0  0  0  0  0  0  0  0  0  0
  -22.3211  -34.5699   21.2349 C   0  0  0  0  0  0  0  0  0  0  0  0
  -32.8138  -20.1095   21.6335 C   0  0  0  0  0  0  0  0  0  0  0  0
  -24.1872  -12.4854   21.5245 C   0  0  0  0  0  0  0  0  0  0  0  0
  -25.1674  -12.0635   19.3570 C   0  0  0  0  0  0  0  0  0  0  0  0
  -20.3851  -34.7485   22.6618 C   0  0  0  0  0  0  0  0  0  0  0  0
  -22.6466  -33.3534   21.8337 C   0  0  0  0  0  0  0  0  0  0  0  0
  -25.2245  -28.4964   19.1374 C   0  0  0  0  0  0  0  0  0  0  0  0
  -32.2461  -19.6341   20.4514 C   0  0  0  0  0  0  0  0  0  0  0  0
  -32.7309  -21.4652   21.9512 C   0  0  0  0  0  0  0  0  0  0  0  0
  -23.2981  -11.4288   21.3282 C   0  0  0  0  0  0  0  0  0  0  0  0
  -24.2784  -11.0068   19.1606 C   0  0  0  0  0  0  0  0  0  0  0  0
  -26.5404  -28.0381   19.0906 C   0  0  0  0  0  0  0  0  0  0  0  0
  -23.3609   -8.0532   21.5143 C   0  0  0  0  0  0  0  0  0  0  0  0
  -23.1671   -7.1642   22.5714 C   0  0  0  0  0  0  0  0  0  0  0  0
  -26.0791  -26.5448   20.9281 C   0  0  0  0  0  0  0  0  0  0  0  0
  -31.5126  -21.8702   19.9045 C   0  0  0  0  0  0  0  0  0  0  0  0
  -20.8165   -7.7213   22.6090 C   0  0  0  0  0  0  0  0  0  0  0  0
  -25.1218  -12.8029   20.5389 C   0  0  0  0  0  0  0  0  0  0  0  0
  -27.3172  -13.8334   21.3302 C   0  0  0  0  0  0  0  0  0  0  0  0
  -20.6956  -33.5203   23.2666 C   0  0  0  0  0  0  0  0  0  0  0  0
  -24.3276  -27.9894   20.0886 C   0  0  0  0  0  0  0  0  0  0  0  0
  -21.8449  -32.8181   22.8561 C   0  0  0  0  0  0  0  0  0  0  0  0
  -24.7517  -26.9965   20.9832 C   0  0  0  0  0  0  0  0  0  0  0  0
  -31.5955  -20.5145   19.5869 C   0  0  0  0  0  0  0  0  0  0  0  0
  -32.0803  -22.3456   21.0867 C   0  0  0  0  0  0  0  0  0  0  0  0
  -23.3437  -10.6894   20.1463 C   0  0  0  0  0  0  0  0  0  0  0  0
  -26.9687  -27.0642   19.9880 C   0  0  0  0  0  0  0  0  0  0  0  0
  -22.2825   -8.7764   21.0045 C   0  0  0  0  0  0  0  0  0  0  0  0
  -21.8949   -6.9982   23.1188 C   0  0  0  0  0  0  0  0  0  0  0  0
  -21.0103   -8.6104   21.5518 C   0  0  0  0  0  0  0  0  0  0  0  0
  -26.0401  -13.8947   20.7409 C   0  0  0  0  0  0  0  0  0  0  0  0
  -27.7781  -15.1265   21.2860 C   0  0  0  0  0  0  0  0  0  0  0  0
  -28.0237  -12.7082   21.8692 C   0  0  0  0  0  0  0  0  0  0  0  0
  -22.6752  -29.2352   22.5014 C   0  0  0  0  0  0  0  0  0  0  0  0
  -21.3833  -26.2629   22.6398 C   0  0  0  0  0  0  0  0  0  0  0  0
  -30.0762  -25.2384   20.6929 C   0  0  0  0  0  0  0  0  0  0  0  0
  -21.6949  -22.9338   21.9568 C   0  0  0  0  0  0  0  0  0  0  0  0
  -28.5177  -19.9389   18.5586 C   0  0  0  0  0  0  0  0  0  0  0  0
  -19.8207  -33.0225   24.3897 C   0  0  0  0  0  0  0  0  0  0  0  0
  -22.9041  -28.4750   20.1085 C   0  0  0  0  0  0  0  0  0  0  0  0
  -23.8224  -26.4051   22.0104 C   0  0  0  0  0  0  0  0  0  0  0  0
  -20.0274  -31.5451   24.7138 C   0  0  0  0  0  0  0  0  0  0  0  0
  -25.3822  -19.4393   20.1697 C   0  0  0  0  0  0  0  0  0  0  0  0
  -21.5154  -31.2210   24.8020 C   0  0  0  0  0  0  0  0  0  0  0  0
  -25.3768  -17.9467   20.5046 C   0  0  0  0  0  0  0  0  0  0  0  0
  -26.0659  -19.7151   18.8323 C   0  0  0  0  0  0  0  0  0  0  0  0
  -27.4210  -17.6672   19.0411 C   0  0  0  0  0  0  0  0  0  0  0  0
  -22.2174  -31.4833   23.4642 C   0  0  1  0  0  0  0  0  0  0  0  0
  -22.2181  -28.2596   21.4540 C   0  0  1  0  0  0  0  0  0  0  0  0
  -26.7917  -17.3451   20.4073 C   0  0  2  0  0  0  0  0  0  0  0  0
  -20.4924  -20.7473   22.2228 C   0  0  0  0  0  0  0  0  0  0  0  0
  -22.1498  -26.2033   25.5926 C   0  0  0  0  0  0  0  0  0  0  0  0
  -21.8091  -23.7232   25.5592 C   0  0  0  0  0  0  0  0  0  0  0  0
  -19.8952  -25.2498   25.0805 C   0  0  0  0  0  0  0  0  0  0  0  0
  -29.8207  -23.6142   22.5767 C   0  0  0  0  0  0  0  0  0  0  0  0
  -21.5649  -22.5165   19.0297 C   0  0  0  0  0  0  0  0  0  0  0  0
  -30.9875  -20.0052   18.3239 C   0  0  0  0  0  0  0  0  0  0  0  0
  -31.9917  -23.8048   21.4284 C   0  0  0  0  0  0  0  0  0  0  0  0
  -28.6238  -25.6166   20.8940 C   0  0  0  0  0  0  0  0  0  1  0  0
  -21.7265  -24.9804   23.3584 C   0  0  1  0  0  0  0  0  0  0  0  0
  -20.7394  -21.9432   21.3163 C   0  0  2  0  0  0  0  0  0  0  0  0
  -21.4135  -25.0515   24.8797 C   0  0  0  0  0  0  0  0  0  0  0  0
  -25.7108  -15.1290   20.3511 N   0  0  0  0  0  0  0  0  0  0  0  0
  -26.7876  -15.8553   20.6962 N   0  0  0  0  0  0  0  0  0  0  0  0
  -22.4422  -26.9171   21.9942 N   0  0  0  0  0  0  0  0  0  0  0  0
  -27.4040  -19.1195   18.8057 N   0  0  0  0  0  0  0  0  0  0  0  0
  -28.9300  -15.6998   21.6945 N   0  0  0  0  0  0  0  0  0  0  0  0
  -27.4043  -11.4514   21.8346 N   0  0  0  0  0  0  0  0  0  0  0  0
  -21.9472  -30.4093   22.5326 N   0  0  0  0  0  0  0  0  0  0  0  0
  -21.0219  -23.9158   22.6524 N   0  0  0  0  0  0  0  0  0  0  0  0
  -29.7494  -19.2956   18.5569 N   0  0  0  0  0  0  0  0  0  0  0  0
  -30.6073  -24.2588   21.5324 N   0  0  0  0  0  0  0  0  0  0  0  0
  -21.2956  -21.4476   20.0255 N   0  3  0  0  0  0  0  0  0  0  0  0
  -29.1634  -12.8171   22.3817 O   0  0  0  0  0  0  0  0  0  0  0  0
  -23.6176  -28.9436   23.2284 O   0  0  0  0  0  0  0  0  0  0  0  0
  -20.2174  -26.6656   22.6448 O   0  0  0  0  0  0  0  0  0  0  0  0
  -30.7175  -25.8015   19.8004 O   0  0  0  0  0  0  0  0  0  0  0  0
  -22.9163  -22.8432   21.8537 O   0  0  0  0  0  0  0  0  0  0  0  0
  -28.4221  -21.1548   18.3598 O   0  0  0  0  0  0  0  0  0  0  0  0
  -22.4765   -9.6581   19.9544 O   0  0  0  0  0  0  0  0  0  0  0  0
  -28.2527  -26.6155   19.9449 O   0  0  0  0  0  0  0  0  0  1  0  0
  -21.7086   -6.1432   24.1329 F   0  0  0  0  0  0  0  0  0  0  0  0
  -19.9703   -9.3015   21.0655 F   0  0  0  0  0  0  0  0  0  0  0  0
  1  2  1  0  0  0  0
  1  6  2  0  0  0  0
  2  7  2  0  0  0  0
  3  9  1  0  0  0  0
  3 10  2  0  0  0  0
  4 11  2  0  0  0  0
  4 19  1  0  0  0  0
  5 12  1  0  0  0  0
  5 19  2  0  0  0  0
  6 21  1  0  0  0  0
  7 23  1  0  0  0  0
  8 13  2  0  0  0  0
  8 22  1  0  0  0  0
  9 25  2  0  0  0  0
 10 26  1  0  0  0  0
 11 27  1  0  0  0  0
 12 27  2  0  0  0  0
 13 28  1  0  0  0  0
 14 15  2  0  0  0  0
 14 29  1  0  0  0  0
 15 30  1  0  0  0  0
 16 24  1  0  0  0  0
 16 28  2  0  0  0  0
 17 25  1  0  0  0  0
 17 26  2  0  0  0  0
 18 30  2  0  0  0  0
 18 31  1  0  0  0  0
 19 32  1  0  0  0  0
 20 32  1  0  0  0  0
 20 33  2  0  0  0  0
 20 34  1  0  0  0  0
 21 23  2  0  0  0  0
 21 40  1  0  0  0  0
 22 24  2  0  0  0  0
 22 41  1  0  0  0  0
 23 49  1  0  0  0  0
 24 42  1  0  0  0  0
 25 58  1  0  0  0  0
 26 59  1  0  0  0  0
 27 81  1  0  0  0  0
 28 82  1  0  0  0  0
 29 31  2  0  0  0  0
 29 81  1  0  0  0  0
 30 83  1  0  0  0  0
 31 84  1  0  0  0  0
 32 64  2  0  0  0  0
 33 65  1  0  0  0  0
 33 68  1  0  0  0  0
 34 69  1  0  0  0  0
 34 75  2  0  0  0  0
 35 50  1  0  0  0  0
 35 70  1  0  0  0  0
 35 76  2  0  0  0  0
 36 61  1  0  0  0  0
 36 66  1  0  0  0  0
 36 77  2  0  0  0  0
 37 60  1  0  0  0  0
 37 73  1  0  0  0  0
 37 78  2  0  0  0  0
 38 62  1  0  0  0  0
 38 71  1  0  0  0  0
 38 79  2  0  0  0  0
 39 67  1  0  0  0  0
 39 72  1  0  0  0  0
 39 80  2  0  0  0  0
 40 43  1  0  0  0  0
 41 50  1  0  0  0  0
 42 66  1  0  0  0  0
 43 45  1  0  0  0  0
 44 46  1  0  0  0  0
 44 47  1  0  0  0  0
 45 49  1  0  0  0  0
 46 51  1  0  0  0  0
 47 67  1  0  0  0  0
 48 51  1  0  0  0  0
 48 67  1  0  0  0  0
 49 70  1  0  0  0  0
 50 66  1  0  0  0  0
 51 65  1  0  0  0  0
 52 62  1  0  0  0  0
 53 63  1  0  0  0  0
 54 63  1  0  0  0  0
 55 63  1  0  0  0  0
 56 73  1  0  0  0  0
 57 74  1  0  0  0  0
 58 72  1  0  0  0  0
 59 73  1  0  0  0  0
 60 82  1  0  0  0  0
 61 63  1  0  0  0  0
 61 71  1  0  0  0  0
 62 74  1  0  0  0  0
 64 65  1  0  0  0  0
M  CHG  1  74   1
M  ISO  4  39 100  60 101  72 100  82 101
M  END
> <Batch ID>
0038

> <Smiles>
CNC(C)C(=O)NC(C(=O)N1Cc2cc([101O:1][101CH2:1]C(=O)N(C)Cc3cccc(C[100NH:0][100C:0](=O)N4CCCC(n5nc(-c6ccc(Oc7ccc(F)cc7F)cc6)c(C(N)=O)c5N)C4)c3)ccc2CC1C(=O)NC1CCCc2ccccc21)C(C)(C)C

> <Shape>
0.214

> <Color>
0.088

> <Negative vol penalty>
0.000

$$$$

  -OEChem-04042322003D

 89 98  0     1  0  0  0  0  0999 V2000
  -24.0573  -16.7116   14.1148 C   0  0  0  0  0  0  0  0  0  0  0  0
  -24.9260  -17.5149   14.8448 C   0  0  0  0  0  0  0  0  0  0  0  0
  -28.0040  -19.5266   18.3775 C   0  0  0  0  0  0  0  0  0  0  0  0
  -29.8276  -20.0499   19.8735 C   0  0  0  0  0  0  0  0  0  0  0  0
  -22.6832  -16.8076   14.3243 C   0  0  0  0  0  0  0  0  0  0  0  0
  -24.4219  -18.4058   15.7930 C   0  0  0  0  0  0  0  0  0  0  0  0
  -24.5690  -24.0353   21.4063 C   0  0  0  0  0  0  0  0  0  0  0  0
  -27.8520  -18.2861   18.9967 C   0  0  0  0  0  0  0  0  0  0  0  0
  -29.6755  -18.8093   20.4927 C   0  0  0  0  0  0  0  0  0  0  0  0
  -23.7786  -24.9882   22.0473 C   0  0  0  0  0  0  0  0  0  0  0  0
  -29.3673  -15.2656   18.9273 C   0  0  0  0  0  0  0  0  0  0  0  0
  -29.2034  -14.1488   18.1078 C   0  0  0  0  0  0  0  0  0  0  0  0
  -22.1974  -23.2668   22.6437 C   0  0  0  0  0  0  0  0  0  0  0  0
  -24.3533  -29.1076   20.7295 C   0  0  0  0  0  0  0  0  0  0  0  0
  -25.8645  -30.9594   21.0818 C   0  0  0  0  0  0  0  0  0  0  0  0
  -27.0561  -13.7160   19.1271 C   0  0  0  0  0  0  0  0  0  0  0  0
  -28.9919  -20.4085   18.8158 C   0  0  0  0  0  0  0  0  0  0  0  0
  -29.4484  -21.9331   16.8221 C   0  0  0  0  0  0  0  0  0  0  0  0
  -22.1620  -17.7094   15.2668 C   0  0  0  0  0  0  0  0  0  0  0  0
  -24.1735  -22.6905   21.3697 C   0  0  0  0  0  0  0  0  0  0  0  0
  -23.0396  -18.5003   16.0360 C   0  0  0  0  0  0  0  0  0  0  0  0
  -22.9859  -22.2983   22.0037 C   0  0  0  0  0  0  0  0  0  0  0  0
  -23.2702  -29.9351   21.0258 C   0  0  0  0  0  0  0  0  0  0  0  0
  -24.7814  -31.7869   21.3780 C   0  0  0  0  0  0  0  0  0  0  0  0
  -23.4842  -31.2747   21.3500 C   0  0  0  0  0  0  0  0  0  0  0  0
  -25.6504  -29.6197   20.7576 C   0  0  0  0  0  0  0  0  0  0  0  0
  -28.6877  -17.9274   20.0544 C   0  0  0  0  0  0  0  0  0  0  0  0
  -22.5912  -24.6045   22.6636 C   0  0  0  0  0  0  0  0  0  0  0  0
  -28.3756  -15.6076   19.8467 C   0  0  0  0  0  0  0  0  0  0  0  0
  -28.0479  -13.3740   18.2077 C   0  0  0  0  0  0  0  0  0  0  0  0
  -27.2200  -14.8328   19.9466 C   0  0  0  0  0  0  0  0  0  0  0  0
  -29.1499  -21.6899   18.1762 C   0  0  0  0  0  0  0  0  0  0  0  0
  -29.4903  -23.3022   16.7202 C   0  0  0  0  0  0  0  0  0  0  0  0
  -19.8684  -29.0589   22.3003 C   0  0  0  0  0  0  0  0  0  0  0  0
  -19.1766  -30.1259   22.7276 C   0  0  0  0  0  0  0  0  0  0  0  0
  -29.6680  -21.0045   15.7520 C   0  0  0  0  0  0  0  0  0  0  0  0
  -23.4362  -20.6312   19.0633 C   0  0  0  0  0  0  0  0  0  0  0  0
  -23.3187  -18.5187   21.5221 C   0  0  0  0  0  0  0  0  0  0  0  0
  -22.0770  -18.4869   24.9095 C   0  0  0  0  0  0  0  0  0  0  0  0
  -26.7235  -27.4252   20.1116 C   0  0  0  0  0  0  0  0  0  0  0  0
  -20.6670  -17.7668   15.4587 C   0  0  0  0  0  0  0  0  0  0  0  0
  -25.0507  -21.6703   20.6972 C   0  0  0  0  0  0  0  0  0  0  0  0
  -22.5268  -20.8638   22.0104 C   0  0  0  0  0  0  0  0  0  0  0  0
  -19.2108  -27.7999   21.8042 C   0  0  0  0  0  0  0  0  0  0  0  0
  -20.2057  -19.0424   16.1560 C   0  0  0  0  0  0  0  0  0  0  0  0
  -19.7927  -26.5829   22.5131 C   0  0  0  0  0  0  0  0  0  0  0  0
  -30.4944  -26.7256   19.9893 C   0  0  0  0  0  0  0  0  0  0  0  0
  -21.0366  -19.2800   17.4080 C   0  0  0  0  0  0  0  0  0  0  0  0
  -30.5384  -25.7823   18.7894 C   0  0  0  0  0  0  0  0  0  0  0  0
  -29.2619  -27.6210   19.9751 C   0  0  0  0  0  0  0  0  0  0  0  0
  -28.1105  -25.4491   19.5135 C   0  0  0  0  0  0  0  0  0  0  0  0
  -21.8637  -27.9129   23.0667 C   0  0  0  0  0  0  0  0  0  0  0  0
  -22.5123  -19.4984   17.0508 C   0  0  1  0  0  0  0  0  0  0  0  0
  -24.2931  -20.4141   20.2783 C   0  0  1  0  0  0  0  0  0  0  0  0
  -29.1516  -25.2299   18.4048 C   0  0  2  0  0  0  0  0  0  0  0  0
  -21.3210  -26.6060   22.4942 C   0  0  1  0  0  0  0  0  0  1  0  0
  -22.3227  -32.1621   21.6671 C   0  0  0  0  0  0  0  0  0  0  0  0
  -22.8099  -17.1510   26.9034 C   0  0  0  0  0  0  0  0  0  0  0  0
  -21.1199  -16.5824   20.6699 C   0  0  0  0  0  0  0  0  0  0  0  0
  -20.5926  -16.2249   23.0912 C   0  0  0  0  0  0  0  0  0  0  0  0
  -22.8378  -15.6020   22.2003 C   0  0  0  0  0  0  0  0  0  0  0  0
  -22.4981  -20.9249   26.5336 C   0  0  0  0  0  0  0  0  0  0  0  0
  -21.8851  -29.3595   20.9892 C   0  0  0  0  0  0  0  0  0  0  0  0
  -25.0378  -33.2177   21.7220 C   0  0  0  0  0  0  0  0  0  0  0  0
  -22.2473  -18.0450   22.4743 C   0  0  1  0  0  0  0  0  0  0  0  0
  -22.9059  -18.4860   26.1813 C   0  0  2  0  0  0  0  0  0  0  0  0
  -21.6988  -16.6397   22.0977 C   0  0  0  0  0  0  0  0  0  0  0  0
  -29.0121  -22.8144   18.8838 N   0  0  0  0  0  0  0  0  0  0  0  0
  -29.2251  -23.7773   17.9708 N   0  0  0  0  0  0  0  0  0  0  0  0
  -23.4158  -19.9047   21.3342 N   0  0  0  0  0  0  0  0  0  0  0  0
  -28.0032  -26.8691   19.8680 N   0  0  0  0  0  0  0  0  0  0  0  0
  -29.7279  -24.1339   15.6838 N   0  0  0  0  0  0  0  0  0  0  0  0
  -29.5875  -19.6332   16.0303 N   0  0  0  0  0  0  0  0  0  0  0  0
  -26.7511  -28.7794   20.4555 N   0  0  0  0  0  0  0  0  0  0  0  0
  -23.2955  -19.5109   18.2666 N   0  0  0  0  0  0  0  0  0  0  0  0
  -22.8264  -18.1217   23.8112 N   0  0  0  0  0  0  0  0  0  0  0  0
  -21.3086  -29.1241   22.3579 N   0  3  1  0  0  0  0  0  0  0  0  0
  -22.4361  -19.5556   27.1066 N   0  3  0  0  0  0  0  0  0  0  0  0
  -29.9442  -21.3793   14.5872 O   0  0  0  0  0  0  0  0  0  0  0  0
  -22.9382  -21.7330   18.8642 O   0  0  0  0  0  0  0  0  0  0  0  0
  -24.0474  -17.6899   20.9710 O   0  0  0  0  0  0  0  0  0  0  0  0
  -20.8832  -18.7785   24.8927 O   0  0  0  0  0  0  0  0  0  0  0  0
  -25.6949  -26.7535   20.0087 O   0  0  0  0  0  0  0  0  0  0  0  0
  -28.5394  -16.7171   20.6590 O   0  0  0  0  0  0  0  0  0  0  0  0
  -21.8174  -25.5327   23.2895 O   0  0  0  0  0  0  0  0  0  1  0  0
  -27.8899  -12.3025   17.4196 F   0  0  0  0  0  0  0  0  0  0  0  0
  -26.2633  -15.1570   20.8272 F   0  0  0  0  0  0  0  0  0  0  0  0
  -26.3693  -33.4849   21.7083 F   0  0  0  0  0  0  0  0  0  0  0  0
  -24.6002  -33.4961   22.9772 F   0  0  0  0  0  0  0  0  0  0  0  0
  1  2  1  0  0  0  0
  1  5  2  0  0  0  0
  2  6  2  0  0  0  0
  3  8  2  0  0  0  0
  3 17  1  0  0  0  0
  4  9  1  0  0  0  0
  4 17  2  0  0  0  0
  5 19  1  0  0  0  0
  6 21  1  0  0  0  0
  7 10  2  0  0  0  0
  7 20  1  0  0  0  0
  8 27  1  0  0  0  0
  9 27  2  0  0  0  0
 10 28  1  0  0  0  0
 11 12  2  0  0  0  0
 11 29  1  0  0  0  0
 12 30  1  0  0  0  0
 13 22  1  0  0  0  0
 13 28  2  0  0  0  0
 14 23  1  0  0  0  0
 14 26  2  0  0  0  0
 15 24  2  0  0  0  0
 15 26  1  0  0  0  0
 16 30  2  0  0  0  0
 16 31  1  0  0  0  0
 17 32  1  0  0  0  0
 18 32  1  0  0  0  0
 18 33  2  0  0  0  0
 18 36  1  0  0  0  0
 19 21  2  0  0  0  0
 19 41  1  0  0  0  0
 20 22  2  0  0  0  0
 20 42  1  0  0  0  0
 21 53  1  0  0  0  0
 22 43  1  0  0  0  0
 23 25  2  0  0  0  0
 23 63  1  0  0  0  0
 24 25  1  0  0  0  0
 24 64  1  0  0  0  0
 25 57  1  0  0  0  0
 26 74  1  0  0  0  0
 27 84  1  0  0  0  0
 28 85  1  0  0  0  0
 29 31  2  0  0  0  0
 29 84  1  0  0  0  0
 30 86  1  0  0  0  0
 31 87  1  0  0  0  0
 32 68  2  0  0  0  0
 33 69  1  0  0  0  0
 33 72  1  0  0  0  0
 34 35  2  0  0  0  0
 34 44  1  0  0  0  0
 34 77  1  0  0  0  0
 36 73  1  0  0  0  0
 36 79  2  0  0  0  0
 37 54  1  0  0  0  0
 37 75  1  0  0  0  0
 37 80  2  0  0  0  0
 38 65  1  0  0  0  0
 38 70  1  0  0  0  0
 38 81  2  0  0  0  0
 39 66  1  0  0  0  0
 39 76  1  0  0  0  0
 39 82  2  0  0  0  0
 40 71  1  0  0  0  0
 40 74  1  0  0  0  0
 40 83  2  0  0  0  0
 41 45  1  0  0  0  0
 42 54  1  0  0  0  0
 43 70  1  0  0  0  0
 44 46  1  0  0  0  0
 45 48  1  0  0  0  0
 46 56  1  0  0  0  0
 47 49  1  0  0  0  0
 47 50  1  0  0  0  0
 48 53  1  0  0  0  0
 49 55  1  0  0  0  0
 50 71  1  0  0  0  0
 51 55  1  0  0  0  0
 51 71  1  0  0  0  0
 52 56  1  0  0  0  0
 52 77  1  0  0  0  0
 53 75  1  0  0  0  0
 54 70  1  0  0  0  0
 55 69  1  0  0  0  0
 56 85  1  0  0  0  0
 58 66  1  0  0  0  0
 59 67  1  0  0  0  0
 60 67  1  0  0  0  0
 61 67  1  0  0  0  0
 62 78  1  0  0  0  0
 63 77  1  0  0  0  0
 64 88  1  0  0  0  0
 64 89  1  0  0  0  0
 65 67  1  0  0  0  0
 65 76  1  0  0  0  0
 66 78  1  0  0  0  0
 68 69  1  0  0  0  0
M  CHG  2  77   1  78   1
M  ISO  4  40 100  56 101  74 100  85 101
M  END
> <Batch ID>
0038

> <Smiles>
C=C1CC[101CH:1]([101O:1]c2ccc3c(c2)CN(C(=O)C(NC(=O)C(C)NC)C(C)(C)C)C(C(=O)NC2CCCc4ccccc42)C3)CN1Cc1cc([100NH:0][100C:0](=O)N2CCCC(n3nc(-c4ccc(Oc5ccc(F)cc5F)cc4)c(C(N)=O)c3N)C2)cc(C(F)F)c1C

> <Shape>
0.221

> <Color>
0.056

> <Negative vol penalty>
0.000

$$$$

  -OEChem-04042322003D

 89 98  0     1  0  0  0  0  0999 V2000
  -26.2203  -25.3723   29.1427 C   0  0  0  0  0  0  0  0  0  0  0  0
  -26.5060  -25.2989   27.7832 C   0  0  0  0  0  0  0  0  0  0  0  0
  -22.5604  -10.3563   20.5462 C   0  0  0  0  0  0  0  0  0  0  0  0
  -24.3769   -8.7639   20.5875 C   0  0  0  0  0  0  0  0  0  0  0  0
  -25.1126  -26.0956   29.5830 C   0  0  0  0  0  0  0  0  0  0  0  0
  -25.6835  -25.9478   26.8629 C   0  0  0  0  0  0  0  0  0  0  0  0
  -28.3141  -28.4617   23.3408 C   0  0  0  0  0  0  0  0  0  0  0  0
  -21.6848   -9.3692   20.9987 C   0  0  0  0  0  0  0  0  0  0  0  0
  -23.5014   -7.7768   21.0400 C   0  0  0  0  0  0  0  0  0  0  0  0
  -28.8693  -27.7119   22.3048 C   0  0  0  0  0  0  0  0  0  0  0  0
  -22.0561   -6.8799   23.9601 C   0  0  0  0  0  0  0  0  0  0  0  0
  -22.4832   -6.0695   25.0119 C   0  0  0  0  0  0  0  0  0  0  0  0
  -27.0411  -28.3542   20.8681 C   0  0  0  0  0  0  0  0  0  0  0  0
  -28.8604  -19.1338   21.3831 C   0  0  0  0  0  0  0  0  0  0  0  0
  -22.2474   -4.1195   23.6052 C   0  0  0  0  0  0  0  0  0  0  0  0
  -23.9064  -10.0536   20.3406 C   0  0  0  0  0  0  0  0  0  0  0  0
  -24.7273  -11.7960   18.6679 C   0  0  0  0  0  0  0  0  0  0  0  0
  -24.2816  -26.7618   28.6684 C   0  0  0  0  0  0  0  0  0  0  0  0
  -27.1104  -29.1558   23.1512 C   0  0  0  0  0  0  0  0  0  0  0  0
  -24.5629  -26.6796   27.2913 C   0  0  0  0  0  0  0  0  0  0  0  0
  -26.4740  -29.1142   21.9025 C   0  0  0  0  0  0  0  0  0  0  0  0
  -28.7049  -20.5199   21.3693 C   0  0  0  0  0  0  0  0  0  0  0  0
  -27.1194  -20.3239   19.5569 C   0  0  0  0  0  0  0  0  0  0  0  0
  -27.8344  -21.1149   20.4562 C   0  0  0  0  0  0  0  0  0  0  0  0
  -27.2749  -18.9378   19.5707 C   0  0  0  0  0  0  0  0  0  0  0  0
  -28.1455  -18.3428   20.4837 C   0  0  0  0  0  0  0  0  0  0  0  0
  -22.1553   -8.0795   21.2456 C   0  0  0  0  0  0  0  0  0  0  0  0
  -28.2313  -27.6557   21.0691 C   0  0  0  0  0  0  0  0  0  0  0  0
  -21.7245   -6.3101   22.7308 C   0  0  0  0  0  0  0  0  0  0  0  0
  -22.5789   -4.6893   24.8344 C   0  0  0  0  0  0  0  0  0  0  0  0
  -21.8202   -4.9299   22.5533 C   0  0  0  0  0  0  0  0  0  0  0  0
  -24.8113  -11.0727   19.8727 C   0  0  0  0  0  0  0  0  0  0  0  0
  -25.8145  -12.6349   18.6945 C   0  0  0  0  0  0  0  0  0  0  0  0
  -28.1491  -24.6957   19.3020 C   0  0  0  0  0  0  0  0  0  0  0  0
  -27.2646  -25.1834   18.4164 C   0  0  0  0  0  0  0  0  0  0  0  0
  -23.7535  -11.7169   17.6185 C   0  0  0  0  0  0  0  0  0  0  0  0
  -24.2145  -29.0219   24.4549 C   0  0  0  0  0  0  0  0  0  0  0  0
  -23.6899  -31.6390   22.6115 C   0  0  0  0  0  0  0  0  0  0  0  0
  -24.5427  -33.4577   19.8526 C   0  0  0  0  0  0  0  0  0  0  0  0
  -29.1466  -16.2065   21.3672 C   0  0  0  0  0  0  0  0  0  0  0  0
  -23.0686  -27.4920   29.1881 C   0  0  0  0  0  0  0  0  0  0  0  0
  -26.5385  -29.9818   24.2706 C   0  0  0  0  0  0  0  0  0  0  0  0
  -25.1904  -29.8578   21.6415 C   0  0  0  0  0  0  0  0  0  0  0  0
  -22.4618  -28.4616   28.1772 C   0  0  0  0  0  0  0  0  0  0  0  0
  -29.8221  -12.7358   21.7850 C   0  0  0  0  0  0  0  0  0  0  0  0
  -30.6615  -23.6844   20.2424 C   0  0  0  0  0  0  0  0  0  0  0  0
  -22.3345  -27.7970   26.8101 C   0  0  0  0  0  0  0  0  0  0  0  0
  -30.4280  -25.1899   20.1858 C   0  0  0  0  0  0  0  0  0  0  0  0
  -28.5718  -12.0532   21.2256 C   0  0  0  0  0  0  0  0  0  0  0  0
  -29.4805  -14.0306   22.5201 C   0  0  0  0  0  0  0  0  0  0  0  0
  -27.4241  -14.3046   21.1914 C   0  0  0  0  0  0  0  0  0  0  0  0
  -29.8429  -22.9535   19.1833 C   0  0  0  0  0  0  0  0  0  0  0  0
  -23.7087  -27.3905   26.2642 C   0  0  1  0  0  0  0  0  0  0  0  0
  -28.9413  -25.5287   20.2845 C   0  0  1  0  0  0  0  0  0  1  0  0
  -25.0408  -30.2323   24.1233 C   0  0  1  0  0  0  0  0  0  0  0  0
  -27.7244  -13.0296   20.3865 C   0  0  2  0  0  0  0  0  0  0  0  0
  -29.4850  -21.3445   22.3403 C   0  0  0  0  0  0  0  0  0  0  0  0
  -26.1858  -20.9630   18.5775 C   0  0  0  0  0  0  0  0  0  0  0  0
  -26.5078  -18.0912   18.6034 C   0  0  0  0  0  0  0  0  0  0  0  0
  -26.4978  -24.3390   17.4599 C   0  0  0  0  0  0  0  0  0  0  0  0
  -23.9095  -35.5294   18.5858 C   0  0  0  0  0  0  0  0  0  0  0  0
  -21.2498  -30.1982   21.4799 C   0  0  0  0  0  0  0  0  0  0  0  0
  -21.2286  -31.8552   19.6031 C   0  0  0  0  0  0  0  0  0  0  0  0
  -20.9002  -32.6292   21.9517 C   0  0  0  0  0  0  0  0  0  0  0  0
  -27.2145  -34.6637   20.2602 C   0  0  0  0  0  0  0  0  0  0  0  0
  -27.6705  -22.6062   20.4433 C   0  0  0  0  0  0  0  0  0  0  0  0
  -23.1946  -31.8741   21.2050 C   0  0  1  0  0  0  0  0  0  0  0  0
  -24.8045  -34.9413   19.6656 C   0  0  2  0  0  0  0  0  0  0  0  0
  -21.6665  -31.6235   21.0651 C   0  0  0  0  0  0  0  0  0  0  0  0
  -25.8684  -11.4213   20.6108 N   0  0  0  0  0  0  0  0  0  0  0  0
  -26.4588  -12.3729   19.8678 N   0  0  0  0  0  0  0  0  0  0  0  0
  -24.6674  -30.6464   22.7693 N   0  0  0  0  0  0  0  0  0  0  0  0
  -28.6807  -14.9079   21.6624 N   0  0  0  0  0  0  0  0  0  0  0  0
  -26.2728  -13.5635   17.8286 N   0  0  0  0  0  0  0  0  0  0  0  0
  -23.9773  -10.8194   16.5656 N   0  0  0  0  0  0  0  0  0  0  0  0
  -28.3181  -16.9367   20.5158 N   0  0  0  0  0  0  0  0  0  0  0  0
  -24.4049  -28.5449   25.7377 N   0  0  0  0  0  0  0  0  0  0  0  0
  -23.6141  -33.2241   20.8448 N   0  0  0  0  0  0  0  0  0  0  0  0
  -28.3677  -23.2657   19.2853 N   0  3  1  0  0  0  0  0  0  0  0  0
  -26.2244  -35.1716   19.2760 N   0  3  0  0  0  0  0  0  0  0  0  0
  -22.7236  -12.4329   17.6064 O   0  0  0  0  0  0  0  0  0  0  0  0
  -23.4590  -28.5562   23.6099 O   0  0  0  0  0  0  0  0  0  0  0  0
  -23.2316  -32.3162   23.5351 O   0  0  0  0  0  0  0  0  0  0  0  0
  -25.1030  -32.5928   19.1829 O   0  0  0  0  0  0  0  0  0  0  0  0
  -30.2163  -16.6292   21.8134 O   0  0  0  0  0  0  0  0  0  0  0  0
  -21.3013   -7.1161   21.6873 O   0  0  0  0  0  0  0  0  0  0  0  0
  -28.7708  -26.9240   20.0565 O   0  0  0  0  0  0  0  0  0  1  0  0
  -22.9907   -3.9113   25.8441 F   0  0  0  0  0  0  0  0  0  0  0  0
  -21.5042   -4.3769   21.3743 F   0  0  0  0  0  0  0  0  0  0  0  0
  1  2  1  0  0  0  0
  1  5  2  0  0  0  0
  2  6  2  0  0  0  0
  3  8  2  0  0  0  0
  3 16  1  0  0  0  0
  4  9  1  0  0  0  0
  4 16  2  0  0  0  0
  5 18  1  0  0  0  0
  6 20  1  0  0  0  0
  7 10  2  0  0  0  0
  7 19  1  0  0  0  0
  8 27  1  0  0  0  0
  9 27  2  0  0  0  0
 10 28  1  0  0  0  0
 11 12  2  0  0  0  0
 11 29  1  0  0  0  0
 12 30  1  0  0  0  0
 13 21  1  0  0  0  0
 13 28  2  0  0  0  0
 14 22  2  0  0  0  0
 14 26  1  0  0  0  0
 15 30  2  0  0  0  0
 15 31  1  0  0  0  0
 16 32  1  0  0  0  0
 17 32  1  0  0  0  0
 17 33  2  0  0  0  0
 17 36  1  0  0  0  0
 18 20  2  0  0  0  0
 18 41  1  0  0  0  0
 19 21  2  0  0  0  0
 19 42  1  0  0  0  0
 20 53  1  0  0  0  0
 21 43  1  0  0  0  0
 22 24  1  0  0  0  0
 22 57  1  0  0  0  0
 23 24  2  0  0  0  0
 23 25  1  0  0  0  0
 23 58  1  0  0  0  0
 24 66  1  0  0  0  0
 25 26  2  0  0  0  0
 25 59  1  0  0  0  0
 26 76  1  0  0  0  0
 27 86  1  0  0  0  0
 28 87  1  0  0  0  0
 29 31  2  0  0  0  0
 29 86  1  0  0  0  0
 30 88  1  0  0  0  0
 31 89  1  0  0  0  0
 32 70  2  0  0  0  0
 33 71  1  0  0  0  0
 33 74  1  0  0  0  0
 34 35  2  0  0  0  0
 34 54  1  0  0  0  0
 34 79  1  0  0  0  0
 35 60  1  0  0  0  0
 36 75  1  0  0  0  0
 36 81  2  0  0  0  0
 37 55  1  0  0  0  0
 37 77  1  0  0  0  0
 37 82  2  0  0  0  0
 38 67  1  0  0  0  0
 38 72  1  0  0  0  0
 38 83  2  0  0  0  0
 39 68  1  0  0  0  0
 39 78  1  0  0  0  0
 39 84  2  0  0  0  0
 40 73  1  0  0  0  0
 40 76  1  0  0  0  0
 40 85  2  0  0  0  0
 41 44  1  0  0  0  0
 42 55  1  0  0  0  0
 43 72  1  0  0  0  0
 44 47  1  0  0  0  0
 45 49  1  0  0  0  0
 45 50  1  0  0  0  0
 46 48  1  0  0  0  0
 46 52  1  0  0  0  0
 47 53  1  0  0  0  0
 48 54  1  0  0  0  0
 49 56  1  0  0  0  0
 50 73  1  0  0  0  0
 51 56  1  0  0  0  0
 51 73  1  0  0  0  0
 52 79  1  0  0  0  0
 53 77  1  0  0  0  0
 54 87  1  0  0  0  0
 55 72  1  0  0  0  0
 56 71  1  0  0  0  0
 61 68  1  0  0  0  0
 62 69  1  0  0  0  0
 63 69  1  0  0  0  0
 64 69  1  0  0  0  0
 65 80  1  0  0  0  0
 66 79  1  0  0  0  0
 67 69  1  0  0  0  0
 67 78  1  0  0  0  0
 68 80  1  0  0  0  0
 70 71  1  0  0  0  0
M  CHG  2  79   1  80   1
M  ISO  4  40 100  54 101  76 100  87 101
M  END
> <Batch ID>
0038

> <Smiles>
CC=C1N(Cc2c(C)cc([100NH:0][100C:0](=O)N3CCCC(n4nc(-c5ccc(Oc6ccc(F)cc6F)cc5)c(C(N)=O)c4N)C3)c(C)c2C)CCC[101CH:1]1[101O:1]c1ccc2c(c1)CN(C(=O)C(NC(=O)C(C)NC)C(C)(C)C)C(C(=O)NC1CCCc3ccccc31)C2

> <Shape>
0.266

> <Color>
0.113

> <Negative vol penalty>
0.000

$$$$

  -OEChem-04042322003D

 88 97  0     1  0  0  0  0  0999 V2000
  -17.6449  -30.7803   23.1989 C   0  0  0  0  0  0  0  0  0  0  0  0
  -19.0173  -31.0082   23.2028 C   0  0  0  0  0  0  0  0  0  0  0  0
  -25.8828  -13.4120   21.6473 C   0  0  0  0  0  0  0  0  0  0  0  0
  -24.8724  -14.4166   19.6962 C   0  0  0  0  0  0  0  0  0  0  0  0
  -17.1550  -29.4846   23.0411 C   0  0  0  0  0  0  0  0  0  0  0  0
  -19.9007  -29.9402   23.0499 C   0  0  0  0  0  0  0  0  0  0  0  0
  -25.3020  -30.0142   20.1645 C   0  0  0  0  0  0  0  0  0  0  0  0
  -24.8539  -12.4716   21.6960 C   0  0  0  0  0  0  0  0  0  0  0  0
  -23.8434  -13.4761   19.7448 C   0  0  0  0  0  0  0  0  0  0  0  0
  -26.6115  -30.1340   20.6279 C   0  0  0  0  0  0  0  0  0  0  0  0
  -24.0172   -9.6099   20.1010 C   0  0  0  0  0  0  0  0  0  0  0  0
  -24.3673   -8.2764   20.3127 C   0  0  0  0  0  0  0  0  0  0  0  0
  -26.8348  -27.7323   20.5998 C   0  0  0  0  0  0  0  0  0  0  0  0
  -29.5771  -23.8765   18.5492 C   0  0  0  0  0  0  0  0  0  0  0  0
  -23.0375   -8.2474   22.3296 C   0  0  0  0  0  0  0  0  0  0  0  0
  -25.8921  -14.3846   20.6474 C   0  0  0  0  0  0  0  0  0  0  0  0
  -28.1763  -15.2456   19.9067 C   0  0  0  0  0  0  0  0  0  0  0  0
  -18.0327  -28.4014   22.8766 C   0  0  0  0  0  0  0  0  0  0  0  0
  -24.7446  -28.7500   19.9252 C   0  0  0  0  0  0  0  0  0  0  0  0
  -19.4221  -28.6285   22.8911 C   0  0  0  0  0  0  0  0  0  0  0  0
  -25.5189  -27.5992   20.1309 C   0  0  0  0  0  0  0  0  0  0  0  0
  -29.9243  -24.7588   17.5262 C   0  0  0  0  0  0  0  0  0  0  0  0
  -30.5401  -24.2789   16.3704 C   0  0  0  0  0  0  0  0  0  0  0  0
  -30.8088  -22.9166   16.2375 C   0  0  0  0  0  0  0  0  0  0  0  0
  -30.4616  -22.0342   17.2605 C   0  0  0  0  0  0  0  0  0  0  0  0
  -29.8458  -22.5142   18.4164 C   0  0  0  0  0  0  0  0  0  0  0  0
  -23.8342  -12.5036   20.7447 C   0  0  0  0  0  0  0  0  0  0  0  0
  -27.3771  -28.9929   20.8484 C   0  0  0  0  0  0  0  0  0  0  0  0
  -23.1773  -10.2622   21.0037 C   0  0  0  0  0  0  0  0  0  0  0  0
  -23.8774   -7.5951   21.4269 C   0  0  0  0  0  0  0  0  0  0  0  0
  -22.6875   -9.5809   22.1179 C   0  0  0  0  0  0  0  0  0  0  0  0
  -26.9544  -15.3567   20.5969 C   0  0  0  0  0  0  0  0  0  0  0  0
  -28.8299  -16.4237   20.1737 C   0  0  0  0  0  0  0  0  0  0  0  0
  -28.6758  -14.1733   19.0964 C   0  0  0  0  0  0  0  0  0  0  0  0
  -22.2897  -27.1191   21.1159 C   0  0  0  0  0  0  0  0  0  0  0  0
  -23.0508  -25.0154   18.7670 C   0  0  0  0  0  0  0  0  0  0  0  0
  -25.4180  -23.7727   16.6459 C   0  0  0  0  0  0  0  0  0  0  0  0
  -28.8660  -21.9692   20.6724 C   0  0  0  0  0  0  0  0  0  0  0  0
  -17.4571  -27.0125   22.7568 C   0  0  0  0  0  0  0  0  0  0  0  0
  -23.3395  -28.6388   19.4000 C   0  0  0  0  0  0  0  0  0  0  0  0
  -24.9739  -26.2196   19.8700 C   0  0  0  0  0  0  0  0  0  0  0  0
  -18.4526  -25.9844   22.2252 C   0  0  0  0  0  0  0  0  0  0  0  0
  -32.0801  -27.4817   21.1427 C   0  0  0  0  0  0  0  0  0  0  0  0
  -27.7779  -20.0942   23.4968 C   0  0  0  0  0  0  0  0  0  0  0  0
  -32.5378  -27.7600   19.7139 C   0  0  0  0  0  0  0  0  0  0  0  0
  -19.7918  -26.1173   22.9432 C   0  0  0  0  0  0  0  0  0  0  0  0
  -27.5672  -18.6854   22.9373 C   0  0  0  0  0  0  0  0  0  0  0  0
  -30.9239  -28.3823   21.5695 C   0  0  0  0  0  0  0  0  0  0  0  0
  -27.3729  -21.1703   22.4909 C   0  0  0  0  0  0  0  0  0  0  0  0
  -27.7824  -19.6375   20.6062 C   0  0  0  0  0  0  0  0  0  0  0  0
  -31.7847  -27.0194   18.6152 C   0  0  0  0  0  0  0  0  0  0  0  0
  -29.5960  -28.0604   19.3823 C   0  0  0  0  0  0  0  0  0  0  0  0
  -20.4118  -27.4992   22.7032 C   0  0  1  0  0  0  0  0  0  0  0  0
  -22.7025  -27.2812   19.6803 C   0  0  1  0  0  0  0  0  0  0  0  0
  -28.2373  -18.5202   21.5592 C   0  0  2  0  0  0  0  0  0  0  0  0
  -29.5792  -28.0883   20.9070 C   0  0  2  0  0  0  0  0  0  1  0  0
  -30.9124  -25.2283   15.2756 C   0  0  0  0  0  0  0  0  0  0  0  0
  -31.4695  -22.4024   14.9972 C   0  0  0  0  0  0  0  0  0  0  0  0
  -30.7524  -20.5730   17.1163 C   0  0  0  0  0  0  0  0  0  0  0  0
  -25.7530  -22.0308   14.8708 C   0  0  0  0  0  0  0  0  0  0  0  0
  -23.1737  -22.8527   20.9159 C   0  0  0  0  0  0  0  0  0  0  0  0
  -24.4089  -21.4046   19.2893 C   0  0  0  0  0  0  0  0  0  0  0  0
  -22.0805  -22.1419   18.7818 C   0  0  0  0  0  0  0  0  0  0  0  0
  -26.0737  -25.8126   14.6044 C   0  0  0  0  0  0  0  0  0  0  0  0
  -29.6278  -26.2198   17.6957 C   0  0  0  0  0  0  0  0  0  0  0  0
  -23.9670  -23.8205   18.6575 C   0  0  1  0  0  0  0  0  0  0  0  0
  -25.3813  -23.4774   15.1573 C   0  0  2  0  0  0  0  0  0  0  0  0
  -23.4174  -22.5807   19.4180 C   0  0  0  0  0  0  0  0  0  0  0  0
  -26.8364  -16.5140   21.2533 N   0  0  0  0  0  0  0  0  0  0  0  0
  -27.9925  -17.1408   20.9767 N   0  0  0  0  0  0  0  0  0  0  0  0
  -23.5929  -26.1628   19.3631 N   0  0  0  0  0  0  0  0  0  0  0  0
  -28.0498  -20.9520   21.2107 N   0  0  0  0  0  0  0  0  0  0  0  0
  -30.0335  -16.9058   19.7978 N   0  0  0  0  0  0  0  0  0  0  0  0
  -27.8752  -13.0356   18.9262 N   0  0  0  0  0  0  0  0  0  0  0  0
  -29.4838  -21.6356   19.4675 N   0  0  0  0  0  0  0  0  0  0  0  0
  -21.0096  -27.5632   21.3868 N   0  0  0  0  0  0  0  0  0  0  0  0
  -24.1816  -23.6000   17.2314 N   0  0  0  0  0  0  0  0  0  0  0  0
  -30.3173  -26.8283   18.8927 N   0  3  1  0  0  0  0  0  0  0  0  0
  -26.3362  -24.3608   14.4302 N   0  3  0  0  0  0  0  0  0  0  0  0
  -29.8057  -14.2158   18.5533 O   0  0  0  0  0  0  0  0  0  0  0  0
  -23.0740  -26.6261   21.9181 O   0  0  0  0  0  0  0  0  0  0  0  0
  -21.8989  -24.9359   18.3329 O   0  0  0  0  0  0  0  0  0  0  0  0
  -26.4419  -24.1182   17.2314 O   0  0  0  0  0  0  0  0  0  0  0  0
  -29.0282  -23.0461   21.2521 O   0  0  0  0  0  0  0  0  0  0  0  0
  -22.8301  -11.5859   20.7918 O   0  0  0  0  0  0  0  0  0  0  0  0
  -28.6553  -29.1069   21.3014 O   0  0  0  0  0  0  0  0  0  1  0  0
  -24.2125   -6.3141   21.6292 F   0  0  0  0  0  0  0  0  0  0  0  0
  -21.8793  -10.2019   22.9880 F   0  0  0  0  0  0  0  0  0  0  0  0
  1  2  1  0  0  0  0
  1  5  2  0  0  0  0
  2  6  2  0  0  0  0
  3  8  2  0  0  0  0
  3 16  1  0  0  0  0
  4  9  1  0  0  0  0
  4 16  2  0  0  0  0
  5 18  1  0  0  0  0
  6 20  1  0  0  0  0
  7 10  2  0  0  0  0
  7 19  1  0  0  0  0
  8 27  1  0  0  0  0
  9 27  2  0  0  0  0
 10 28  1  0  0  0  0
 11 12  2  0  0  0  0
 11 29  1  0  0  0  0
 12 30  1  0  0  0  0
 13 21  1  0  0  0  0
 13 28  2  0  0  0  0
 14 22  1  0  0  0  0
 14 26  2  0  0  0  0
 15 30  2  0  0  0  0
 15 31  1  0  0  0  0
 16 32  1  0  0  0  0
 17 32  1  0  0  0  0
 17 33  2  0  0  0  0
 17 34  1  0  0  0  0
 18 20  2  0  0  0  0
 18 39  1  0  0  0  0
 19 21  2  0  0  0  0
 19 40  1  0  0  0  0
 20 53  1  0  0  0  0
 21 41  1  0  0  0  0
 22 23  2  0  0  0  0
 22 65  1  0  0  0  0
 23 24  1  0  0  0  0
 23 57  1  0  0  0  0
 24 25  2  0  0  0  0
 24 58  1  0  0  0  0
 25 26  1  0  0  0  0
 25 59  1  0  0  0  0
 26 75  1  0  0  0  0
 27 85  1  0  0  0  0
 28 86  1  0  0  0  0
 29 31  2  0  0  0  0
 29 85  1  0  0  0  0
 30 87  1  0  0  0  0
 31 88  1  0  0  0  0
 32 69  2  0  0  0  0
 33 70  1  0  0  0  0
 33 73  1  0  0  0  0
 34 74  1  0  0  0  0
 34 80  2  0  0  0  0
 35 54  1  0  0  0  0
 35 76  1  0  0  0  0
 35 81  2  0  0  0  0
 36 66  1  0  0  0  0
 36 71  1  0  0  0  0
 36 82  2  0  0  0  0
 37 67  1  0  0  0  0
 37 77  1  0  0  0  0
 37 83  2  0  0  0  0
 38 72  1  0  0  0  0
 38 75  1  0  0  0  0
 38 84  2  0  0  0  0
 39 42  1  0  0  0  0
 40 54  1  0  0  0  0
 41 71  1  0  0  0  0
 42 46  1  0  0  0  0
 43 45  1  0  0  0  0
 43 48  1  0  0  0  0
 44 47  1  0  0  0  0
 44 49  1  0  0  0  0
 45 51  1  0  0  0  0
 46 53  1  0  0  0  0
 47 55  1  0  0  0  0
 48 56  1  0  0  0  0
 49 72  1  0  0  0  0
 50 55  1  0  0  0  0
 50 72  1  0  0  0  0
 51 78  1  0  0  0  0
 52 56  1  0  0  0  0
 52 78  1  0  0  0  0
 53 76  1  0  0  0  0
 54 71  1  0  0  0  0
 55 70  1  0  0  0  0
 56 86  1  0  0  0  0
 60 67  1  0  0  0  0
 61 68  1  0  0  0  0
 62 68  1  0  0  0  0
 63 68  1  0  0  0  0
 64 79  1  0  0  0  0
 65 78  1  0  0  0  0
 66 68  1  0  0  0  0
 66 77  1  0  0  0  0
 67 79  1  0  0  0  0
 69 70  1  0  0  0  0
M  CHG  2  78   1  79   1
M  ISO  4  38 100  56 101  75 100  86 101
M  END
> <Batch ID>
0038

> <Smiles>
CNC(C)C(=O)NC(C(=O)N1Cc2cc([101O:1][101CH:1]3CCCCN(Cc4cc([100NH:0][100C:0](=O)N5CCCC(n6nc(-c7ccc(Oc8ccc(F)cc8F)cc7)c(C(N)=O)c6N)C5)c(C)c(C)c4C)C3)ccc2CC1C(=O)NC1CCCc2ccccc21)C(C)(C)C

> <Shape>
0.302

> <Color>
0.068

> <Negative vol penalty>
0.000

$$$$

  -OEChem-04042322003D

 83 91  0     1  0  0  0  0  0999 V2000
  -24.7396  -37.0989   21.1146 C   0  0  0  0  0  0  0  0  0  0  0  0
  -25.4504  -36.0178   20.6032 C   0  0  0  0  0  0  0  0  0  0  0  0
  -24.4298   -9.3805   21.7114 C   0  0  0  0  0  0  0  0  0  0  0  0
  -22.5958  -10.4722   20.5794 C   0  0  0  0  0  0  0  0  0  0  0  0
  -24.1567  -37.0135   22.3783 C   0  0  0  0  0  0  0  0  0  0  0  0
  -25.5796  -34.8510   21.3558 C   0  0  0  0  0  0  0  0  0  0  0  0
  -25.7577  -29.1066   19.2402 C   0  0  0  0  0  0  0  0  0  0  0  0
  -23.7036   -8.1900   21.7400 C   0  0  0  0  0  0  0  0  0  0  0  0
  -21.8695   -9.2817   20.6079 C   0  0  0  0  0  0  0  0  0  0  0  0
  -26.8144  -28.2350   18.9804 C   0  0  0  0  0  0  0  0  0  0  0  0
  -21.1924   -6.8479   23.5612 C   0  0  0  0  0  0  0  0  0  0  0  0
  -21.1764   -6.1279   24.7557 C   0  0  0  0  0  0  0  0  0  0  0  0
  -26.5137  -27.2322   21.1537 C   0  0  0  0  0  0  0  0  0  0  0  0
  -27.0363  -20.4810   18.7946 C   0  0  0  0  0  0  0  0  0  0  0  0
  -26.8651  -20.3703   21.5769 C   0  0  0  0  0  0  0  0  0  0  0  0
  -22.1733   -4.2372   23.6294 C   0  0  0  0  0  0  0  0  0  0  0  0
  -23.8759  -10.5217   21.1311 C   0  0  0  0  0  0  0  0  0  0  0  0
  -25.5063  -12.1868   20.0935 C   0  0  0  0  0  0  0  0  0  0  0  0
  -24.2707  -35.8416   23.1427 C   0  0  0  0  0  0  0  0  0  0  0  0
  -25.0769  -29.0547   20.4651 C   0  0  0  0  0  0  0  0  0  0  0  0
  -24.9988  -34.7503   22.6314 C   0  0  0  0  0  0  0  0  0  0  0  0
  -25.4470  -28.1025   21.4255 C   0  0  0  0  0  0  0  0  0  0  0  0
  -26.1828  -19.5619   19.4048 C   0  0  0  0  0  0  0  0  0  0  0  0
  -27.8044  -21.3447   19.5756 C   0  0  0  0  0  0  0  0  0  0  0  0
  -26.0971  -19.5066   20.7959 C   0  0  0  0  0  0  0  0  0  0  0  0
  -22.4234   -8.1406   21.1882 C   0  0  0  0  0  0  0  0  0  0  0  0
  -27.1944  -27.2996   19.9383 C   0  0  0  0  0  0  0  0  0  0  0  0
  -21.6987   -6.2626   22.4007 C   0  0  0  0  0  0  0  0  0  0  0  0
  -21.6669   -4.8226   24.7899 C   0  0  0  0  0  0  0  0  0  0  0  0
  -22.1892   -4.9572   22.4349 C   0  0  0  0  0  0  0  0  0  0  0  0
  -27.7187  -21.2894   20.9667 C   0  0  0  0  0  0  0  0  0  0  0  0
  -24.6254  -11.7519   21.1018 C   0  0  0  0  0  0  0  0  0  0  0  0
  -25.9584  -13.4063   20.5351 C   0  0  0  0  0  0  0  0  0  0  0  0
  -25.8822  -11.5459   18.8673 C   0  0  0  0  0  0  0  0  0  0  0  0
  -24.6360  -31.0812   22.8739 C   0  0  0  0  0  0  0  0  0  0  0  0
  -22.6560  -28.7520   23.9586 C   0  0  0  0  0  0  0  0  0  0  0  0
  -21.7948  -25.4497   23.9596 C   0  0  0  0  0  0  0  0  0  0  0  0
  -25.0473  -18.4082   22.8053 C   0  0  0  0  0  0  0  0  0  0  0  0
  -23.6635  -35.8133   24.5230 C   0  0  0  0  0  0  0  0  0  0  0  0
  -23.9219  -29.9839   20.7193 C   0  0  0  0  0  0  0  0  0  0  0  0
  -24.7353  -27.9924   22.7483 C   0  0  0  0  0  0  0  0  0  0  0  0
  -23.5292  -34.4066   25.1006 C   0  0  0  0  0  0  0  0  0  0  0  0
  -25.4700  -15.6668   25.0377 C   0  0  0  0  0  0  0  0  0  0  0  0
  -24.8209  -33.6209   24.8982 C   0  0  0  0  0  0  0  0  0  0  0  0
  -25.3604  -14.4397   24.1298 C   0  0  0  0  0  0  0  0  0  0  0  0
  -24.5164  -16.7792   24.6052 C   0  0  0  0  0  0  0  0  0  0  0  0
  -24.5119  -15.9465   22.2867 C   0  0  0  0  0  0  0  0  0  0  0  0
  -25.1401  -33.4587   23.4072 C   0  0  1  0  0  0  0  0  0  0  0  0
  -23.6328  -30.1856   22.2036 C   0  0  1  0  0  0  0  0  0  0  0  0
  -25.5000  -14.8239   22.6437 C   0  0  2  0  0  0  0  0  0  0  0  0
  -25.3733  -18.6474   18.5435 C   0  0  0  0  0  0  0  0  0  0  0  0
  -20.1567  -23.8414   24.9733 C   0  0  0  0  0  0  0  0  0  0  0  0
  -24.2113  -28.8254   26.5826 C   0  0  0  0  0  0  0  0  0  0  0  0
  -23.1878  -26.6175   27.1704 C   0  0  0  0  0  0  0  0  0  0  0  0
  -21.7329  -28.6174   26.8445 C   0  0  0  0  0  0  0  0  0  0  0  0
  -20.6925  -24.7226   21.3110 C   0  0  0  0  0  0  0  0  0  0  0  0
  -28.7107  -22.3179   18.8811 C   0  0  0  0  0  0  0  0  0  0  0  0
  -29.0964  -24.7095   18.2726 C   0  0  0  0  0  0  0  0  0  0  0  0
  -28.4466  -26.0781   18.3271 C   0  0  0  0  0  0  0  0  0  1  0  0
  -22.8181  -27.5333   24.8347 C   0  0  1  0  0  0  0  0  0  0  0  0
  -20.4530  -24.7586   23.7970 C   0  0  2  0  0  0  0  0  0  0  0  0
  -23.0024  -27.9015   26.3340 C   0  0  0  0  0  0  0  0  0  0  0  0
  -24.5227  -12.6241   22.1082 N   0  0  0  0  0  0  0  0  0  0  0  0
  -25.3450  -13.6192   21.7345 N   0  0  0  0  0  0  0  0  0  0  0  0
  -23.6164  -28.9273   22.9523 N   0  0  0  0  0  0  0  0  0  0  0  0
  -24.7086  -17.0929   23.1877 N   0  0  0  0  0  0  0  0  0  0  0  0
  -26.8170  -14.3064   20.0107 N   0  0  0  0  0  0  0  0  0  0  0  0
  -25.3237  -10.2957   18.5683 N   0  0  0  0  0  0  0  0  0  0  0  0
  -25.2367  -18.5794   21.4344 N   0  0  0  0  0  0  0  0  0  0  0  0
  -24.3138  -32.4240   22.8231 N   0  0  0  0  0  0  0  0  0  0  0  0
  -21.6648  -26.6812   24.5661 N   0  0  0  0  0  0  0  0  0  0  0  0
  -20.4382  -23.9430   22.5498 N   0  3  0  0  0  0  0  0  0  0  0  0
  -28.1927  -23.7126   18.9001 N   0  3  0  0  0  0  0  0  0  0  0  0
  -26.7021  -12.0589   18.0685 O   0  0  0  0  0  0  0  0  0  0  0  0
  -25.6280  -30.5902   23.3996 O   0  0  0  0  0  0  0  0  0  0  0  0
  -21.7079  -29.5163   24.1552 O   0  0  0  0  0  0  0  0  0  0  0  0
  -22.8528  -24.9458   23.5893 O   0  0  0  0  0  0  0  0  0  0  0  0
  -25.1876  -19.3096   23.6358 O   0  0  0  0  0  0  0  0  0  0  0  0
  -21.7146   -6.9790   21.2158 O   0  0  0  0  0  0  0  0  0  0  0  0
  -28.2260  -26.4481   19.6875 O   0  0  0  0  0  0  0  0  0  1  0  0
  -21.6530   -4.1318   25.9374 F   0  0  0  0  0  0  0  0  0  0  0  0
  -22.6780   -4.3900   21.3235 F   0  0  0  0  0  0  0  0  0  0  0  0
  -28.6539  -22.3420   21.9653 Cl  0  0  0  0  0  0  0  0  0  0  0  0
  1  2  1  0  0  0  0
  1  5  2  0  0  0  0
  2  6  2  0  0  0  0
  3  8  2  0  0  0  0
  3 17  1  0  0  0  0
  4  9  1  0  0  0  0
  4 17  2  0  0  0  0
  5 19  1  0  0  0  0
  6 21  1  0  0  0  0
  7 10  2  0  0  0  0
  7 20  1  0  0  0  0
  8 26  1  0  0  0  0
  9 26  2  0  0  0  0
 10 27  1  0  0  0  0
 11 12  2  0  0  0  0
 11 28  1  0  0  0  0
 12 29  1  0  0  0  0
 13 22  1  0  0  0  0
 13 27  2  0  0  0  0
 14 23  2  0  0  0  0
 14 24  1  0  0  0  0
 15 25  2  0  0  0  0
 15 31  1  0  0  0  0
 16 29  2  0  0  0  0
 16 30  1  0  0  0  0
 17 32  1  0  0  0  0
 18 32  1  0  0  0  0
 18 33  2  0  0  0  0
 18 34  1  0  0  0  0
 19 21  2  0  0  0  0
 19 39  1  0  0  0  0
 20 22  2  0  0  0  0
 20 40  1  0  0  0  0
 21 48  1  0  0  0  0
 22 41  1  0  0  0  0
 23 25  1  0  0  0  0
 23 51  1  0  0  0  0
 24 31  2  0  0  0  0
 24 57  1  0  0  0  0
 25 69  1  0  0  0  0
 26 79  1  0  0  0  0
 27 80  1  0  0  0  0
 28 30  2  0  0  0  0
 28 79  1  0  0  0  0
 29 81  1  0  0  0  0
 30 82  1  0  0  0  0
 31 83  1  0  0  0  0
 32 63  2  0  0  0  0
 33 64  1  0  0  0  0
 33 67  1  0  0  0  0
 34 68  1  0  0  0  0
 34 74  2  0  0  0  0
 35 49  1  0  0  0  0
 35 70  1  0  0  0  0
 35 75  2  0  0  0  0
 36 60  1  0  0  0  0
 36 65  1  0  0  0  0
 36 76  2  0  0  0  0
 37 61  1  0  0  0  0
 37 71  1  0  0  0  0
 37 77  2  0  0  0  0
 38 66  1  0  0  0  0
 38 69  1  0  0  0  0
 38 78  2  0  0  0  0
 39 42  1  0  0  0  0
 40 49  1  0  0  0  0
 41 65  1  0  0  0  0
 42 44  1  0  0  0  0
 43 45  1  0  0  0  0
 43 46  1  0  0  0  0
 44 48  1  0  0  0  0
 45 50  1  0  0  0  0
 46 66  1  0  0  0  0
 47 50  1  0  0  0  0
 47 66  1  0  0  0  0
 48 70  1  0  0  0  0
 49 65  1  0  0  0  0
 50 64  1  0  0  0  0
 52 61  1  0  0  0  0
 53 62  1  0  0  0  0
 54 62  1  0  0  0  0
 55 62  1  0  0  0  0
 56 72  1  0  0  0  0
 57 73  1  0  0  0  0
 58 59  1  0  0  0  0
 58 73  1  0  0  0  0
 59 80  1  0  0  0  0
 60 62  1  0  0  0  0
 60 71  1  0  0  0  0
 61 72  1  0  0  0  0
 63 64  1  0  0  0  0
M  CHG  2  72   1  73   1
M  ISO  4  38 100  59 101  69 100  80 101
M  END
> <Batch ID>
0038

> <Smiles>
CNC(C)C(=O)NC(C(=O)N1Cc2cc([101O:1][101CH2:1]CNCc3cc(C)c([100NH:0][100C:0](=O)N4CCCC(n5nc(-c6ccc(Oc7ccc(F)cc7F)cc6)c(C(N)=O)c5N)C4)cc3Cl)ccc2CC1C(=O)NC1CCCc2ccccc21)C(C)(C)C

> <Shape>
0.269

> <Color>
0.113

> <Negative vol penalty>
0.000

$$$$

  -OEChem-04042322003D

 89 98  0     1  0  0  0  0  0999 V2000
  -16.5263  -29.9360   23.7263 C   0  0  0  0  0  0  0  0  0  0  0  0
  -17.5013  -30.8582   23.3631 C   0  0  0  0  0  0  0  0  0  0  0  0
  -24.5701   -9.0653   21.5631 C   0  0  0  0  0  0  0  0  0  0  0  0
  -22.7038  -10.5226   21.0832 C   0  0  0  0  0  0  0  0  0  0  0  0
  -16.8767  -28.6046   23.9401 C   0  0  0  0  0  0  0  0  0  0  0  0
  -18.8248  -30.4470   23.2020 C   0  0  0  0  0  0  0  0  0  0  0  0
  -26.7543  -29.3370   20.9011 C   0  0  0  0  0  0  0  0  0  0  0  0
  -23.7155   -7.9632   21.5401 C   0  0  0  0  0  0  0  0  0  0  0  0
  -21.8492   -9.4204   21.0601 C   0  0  0  0  0  0  0  0  0  0  0  0
  -27.5801  -28.2265   20.7321 C   0  0  0  0  0  0  0  0  0  0  0  0
  -21.4705   -6.5090   23.6064 C   0  0  0  0  0  0  0  0  0  0  0  0
  -21.6022   -5.5662   24.6259 C   0  0  0  0  0  0  0  0  0  0  0  0
  -25.7392  -27.0142   19.7521 C   0  0  0  0  0  0  0  0  0  0  0  0
  -25.9134  -20.5573   20.7274 C   0  0  0  0  0  0  0  0  0  0  0  0
  -22.0956   -3.8618   22.9861 C   0  0  0  0  0  0  0  0  0  0  0  0
  -24.0643  -10.3450   21.3348 C   0  0  0  0  0  0  0  0  0  0  0  0
  -26.0631  -11.7121   20.5327 C   0  0  0  0  0  0  0  0  0  0  0  0
  -18.2077  -28.1802   23.7935 C   0  0  0  0  0  0  0  0  0  0  0  0
  -25.4095  -29.2907   20.5063 C   0  0  0  0  0  0  0  0  0  0  0  0
  -19.1943  -29.1028   23.3900 C   0  0  0  0  0  0  0  0  0  0  0  0
  -24.8990  -28.1263   19.9149 C   0  0  0  0  0  0  0  0  0  0  0  0
  -25.9750  -21.6503   19.8631 C   0  0  0  0  0  0  0  0  0  0  0  0
  -26.9455  -20.2446   18.1546 C   0  0  0  0  0  0  0  0  0  0  0  0
  -26.4910  -21.4940   18.5766 C   0  0  0  0  0  0  0  0  0  0  0  0
  -26.8840  -19.1515   19.0190 C   0  0  0  0  0  0  0  0  0  0  0  0
  -26.3680  -19.3079   20.3054 C   0  0  0  0  0  0  0  0  0  0  0  0
  -22.3550   -8.1407   21.2885 C   0  0  0  0  0  0  0  0  0  0  0  0
  -27.0719  -27.0639   20.1601 C   0  0  0  0  0  0  0  0  0  0  0  0
  -21.6512   -6.1282   22.2767 C   0  0  0  0  0  0  0  0  0  0  0  0
  -21.9148   -4.2427   24.3158 C   0  0  0  0  0  0  0  0  0  0  0  0
  -21.9638   -4.8046   21.9666 C   0  0  0  0  0  0  0  0  0  0  0  0
  -24.9465  -11.4840   21.3590 C   0  0  0  0  0  0  0  0  0  0  0  0
  -26.5578  -12.9234   20.9505 C   0  0  0  0  0  0  0  0  0  0  0  0
  -28.3078  -24.0125   18.6419 C   0  0  0  0  0  0  0  0  0  0  0  0
  -28.8681  -23.3460   19.6682 C   0  0  0  0  0  0  0  0  0  0  0  0
  -26.6048  -10.9016   19.4813 C   0  0  0  0  0  0  0  0  0  0  0  0
  -22.6205  -29.5618   22.0067 C   0  0  0  0  0  0  0  0  0  0  0  0
  -21.4296  -29.4450   18.9916 C   0  0  0  0  0  0  0  0  0  0  0  0
  -22.0748  -27.5720   15.9762 C   0  0  0  0  0  0  0  0  0  0  0  0
  -25.8067  -18.2168   22.5056 C   0  0  0  0  0  0  0  0  0  0  0  0
  -18.5301  -26.7258   24.0297 C   0  0  0  0  0  0  0  0  0  0  0  0
  -24.5388  -30.5061   20.6710 C   0  0  0  0  0  0  0  0  0  0  0  0
  -23.4678  -28.0322   19.4555 C   0  0  0  0  0  0  0  0  0  0  0  0
  -20.0159  -26.4774   24.2685 C   0  0  0  0  0  0  0  0  0  0  0  0
  -29.4260  -26.0964   16.5567 C   0  0  0  0  0  0  0  0  0  0  0  0
  -25.4235  -15.7197   25.0145 C   0  0  0  0  0  0  0  0  0  0  0  0
  -29.4636  -24.6541   16.0491 C   0  0  0  0  0  0  0  0  0  0  0  0
  -20.8379  -27.1636   23.1878 C   0  0  0  0  0  0  0  0  0  0  0  0
  -29.2526  -26.2607   18.0649 C   0  0  0  0  0  0  0  0  0  0  0  0
  -25.3571  -14.4139   24.2192 C   0  0  0  0  0  0  0  0  0  0  0  0
  -24.7217  -16.8641   24.2855 C   0  0  0  0  0  0  0  0  0  0  0  0
  -25.0972  -15.7769   22.1069 C   0  0  0  0  0  0  0  0  0  0  0  0
  -28.1181  -23.9423   16.1712 C   0  0  0  0  0  0  0  0  0  0  0  0
  -20.6457  -28.6846   23.2387 C   0  0  1  0  0  0  0  0  0  0  0  0
  -28.0621  -25.5043   18.6584 C   0  0  2  0  0  0  0  0  0  1  0  0
  -23.0501  -30.1745   20.7038 C   0  0  1  0  0  0  0  0  0  0  0  0
  -25.8469  -14.6105   22.7711 C   0  0  2  0  0  0  0  0  0  0  0  0
  -25.4851  -22.9782   20.3408 C   0  0  0  0  0  0  0  0  0  0  0  0
  -27.4991  -20.0776   16.7744 C   0  0  0  0  0  0  0  0  0  0  0  0
  -27.3740  -17.8122   18.5643 C   0  0  0  0  0  0  0  0  0  0  0  0
  -21.6948  -28.1728   13.5696 C   0  0  0  0  0  0  0  0  0  0  0  0
  -18.7673  -27.9986   19.3519 C   0  0  0  0  0  0  0  0  0  0  0  0
  -19.0318  -27.0815   17.0373 C   0  0  0  0  0  0  0  0  0  0  0  0
  -18.8570  -29.5450   17.3885 C   0  0  0  0  0  0  0  0  0  0  0  0
  -24.9037  -27.0520   15.2792 C   0  0  0  0  0  0  0  0  0  0  0  0
  -26.5569  -22.6721   17.6500 C   0  0  0  0  0  0  0  0  0  0  0  0
  -20.9773  -28.3443   18.0627 C   0  0  1  0  0  0  0  0  0  0  0  0
  -22.7092  -28.0946   14.6999 C   0  0  2  0  0  0  0  0  0  0  0  0
  -19.4284  -28.2379   17.9798 C   0  0  0  0  0  0  0  0  0  0  0  0
  -24.7435  -12.4711   22.2357 N   0  0  0  0  0  0  0  0  0  0  0  0
  -25.7394  -13.3311   21.9626 N   0  0  0  0  0  0  0  0  0  0  0  0
  -22.6546  -29.2449   19.6438 N   0  0  0  0  0  0  0  0  0  0  0  0
  -25.2399  -16.9936   22.9218 N   0  0  0  0  0  0  0  0  0  0  0  0
  -27.6086  -13.6688   20.5474 N   0  0  0  0  0  0  0  0  0  0  0  0
  -26.1357  -11.1000   18.1755 N   0  0  0  0  0  0  0  0  0  0  0  0
  -26.2953  -18.2111   21.1995 N   0  0  0  0  0  0  0  0  0  0  0  0
  -21.2698  -29.2784   22.0769 N   0  0  0  0  0  0  0  0  0  0  0  0
  -21.6282  -28.5979   16.7819 N   0  0  0  0  0  0  0  0  0  0  0  0
  -27.9534  -23.2182   17.4867 N   0  3  2  0  0  0  0  0  0  0  0  0
  -23.8225  -27.2015   14.2714 N   0  3  0  0  0  0  0  0  0  0  0  0
  -27.4669  -10.0160   19.6960 O   0  0  0  0  0  0  0  0  0  0  0  0
  -23.4530  -29.3596   22.8829 O   0  0  0  0  0  0  0  0  0  0  0  0
  -20.7255  -30.4486   19.1280 O   0  0  0  0  0  0  0  0  0  0  0  0
  -21.9813  -26.3733   16.2311 O   0  0  0  0  0  0  0  0  0  0  0  0
  -25.8796  -19.1889   23.2618 O   0  0  0  0  0  0  0  0  0  0  0  0
  -21.5209   -7.0655   21.2657 O   0  0  0  0  0  0  0  0  0  0  0  0
  -27.8756  -25.9783   19.9946 O   0  0  0  0  0  0  0  0  0  1  0  0
  -22.0428   -3.3378   25.2951 F   0  0  0  0  0  0  0  0  0  0  0  0
  -22.1397   -4.4331   20.6911 F   0  0  0  0  0  0  0  0  0  0  0  0
  1  2  1  0  0  0  0
  1  5  2  0  0  0  0
  2  6  2  0  0  0  0
  3  8  2  0  0  0  0
  3 16  1  0  0  0  0
  4  9  1  0  0  0  0
  4 16  2  0  0  0  0
  5 18  1  0  0  0  0
  6 20  1  0  0  0  0
  7 10  2  0  0  0  0
  7 19  1  0  0  0  0
  8 27  1  0  0  0  0
  9 27  2  0  0  0  0
 10 28  1  0  0  0  0
 11 12  2  0  0  0  0
 11 29  1  0  0  0  0
 12 30  1  0  0  0  0
 13 21  1  0  0  0  0
 13 28  2  0  0  0  0
 14 22  2  0  0  0  0
 14 26  1  0  0  0  0
 15 30  2  0  0  0  0
 15 31  1  0  0  0  0
 16 32  1  0  0  0  0
 17 32  1  0  0  0  0
 17 33  2  0  0  0  0
 17 36  1  0  0  0  0
 18 20  2  0  0  0  0
 18 41  1  0  0  0  0
 19 21  2  0  0  0  0
 19 42  1  0  0  0  0
 20 54  1  0  0  0  0
 21 43  1  0  0  0  0
 22 24  1  0  0  0  0
 22 58  1  0  0  0  0
 23 24  2  0  0  0  0
 23 25  1  0  0  0  0
 23 59  1  0  0  0  0
 24 66  1  0  0  0  0
 25 26  2  0  0  0  0
 25 60  1  0  0  0  0
 26 76  1  0  0  0  0
 27 86  1  0  0  0  0
 28 87  1  0  0  0  0
 29 31  2  0  0  0  0
 29 86  1  0  0  0  0
 30 88  1  0  0  0  0
 31 89  1  0  0  0  0
 32 70  2  0  0  0  0
 33 71  1  0  0  0  0
 33 74  1  0  0  0  0
 34 35  2  0  0  0  0
 34 55  1  0  0  0  0
 34 79  1  0  0  0  0
 36 75  1  0  0  0  0
 36 81  2  0  0  0  0
 37 56  1  0  0  0  0
 37 77  1  0  0  0  0
 37 82  2  0  0  0  0
 38 67  1  0  0  0  0
 38 72  1  0  0  0  0
 38 83  2  0  0  0  0
 39 68  1  0  0  0  0
 39 78  1  0  0  0  0
 39 84  2  0  0  0  0
 40 73  1  0  0  0  0
 40 76  1  0  0  0  0
 40 85  2  0  0  0  0
 41 44  1  0  0  0  0
 42 56  1  0  0  0  0
 43 72  1  0  0  0  0
 44 48  1  0  0  0  0
 45 47  1  0  0  0  0
 45 49  1  0  0  0  0
 46 50  1  0  0  0  0
 46 51  1  0  0  0  0
 47 53  1  0  0  0  0
 48 54  1  0  0  0  0
 49 55  1  0  0  0  0
 50 57  1  0  0  0  0
 51 73  1  0  0  0  0
 52 57  1  0  0  0  0
 52 73  1  0  0  0  0
 53 79  1  0  0  0  0
 54 77  1  0  0  0  0
 55 87  1  0  0  0  0
 56 72  1  0  0  0  0
 57 71  1  0  0  0  0
 61 68  1  0  0  0  0
 62 69  1  0  0  0  0
 63 69  1  0  0  0  0
 64 69  1  0  0  0  0
 65 80  1  0  0  0  0
 66 79  1  0  0  0  0
 67 69  1  0  0  0  0
 67 78  1  0  0  0  0
 68 80  1  0  0  0  0
 70 71  1  0  0  0  0
M  CHG  2  79   1  80   1
M  ISO  4  40 100  55 101  76 100  87 101
M  END
> <Batch ID>
0038

> <Smiles>
C=C1N(Cc2c(C)cc([100NH:0][100C:0](=O)N3CCCC(n4nc(-c5ccc(Oc6ccc(F)cc6F)cc5)c(C(N)=O)c4N)C3)c(C)c2C)CCCC[101CH:1]1[101O:1]c1ccc2c(c1)CN(C(=O)C(NC(=O)C(C)NC)C(C)(C)C)C(C(=O)NC1CCCc3ccccc31)C2

> <Shape>
0.274

> <Color>
0.153

> <Negative vol penalty>
0.000

$$$$

  -OEChem-04042322003D

 88 97  0     1  0  0  0  0  0999 V2000
  -23.3126  -32.1645   14.3645 C   0  0  0  0  0  0  0  0  0  0  0  0
  -24.3325  -31.4298   14.9607 C   0  0  0  0  0  0  0  0  0  0  0  0
  -24.5025   -9.9597   22.3607 C   0  0  0  0  0  0  0  0  0  0  0  0
  -24.1179  -10.0118   19.9760 C   0  0  0  0  0  0  0  0  0  0  0  0
  -22.6702  -33.1727   15.0820 C   0  0  0  0  0  0  0  0  0  0  0  0
  -24.7114  -31.7036   16.2744 C   0  0  0  0  0  0  0  0  0  0  0  0
  -25.3223  -27.5030   19.0360 C   0  0  0  0  0  0  0  0  0  0  0  0
  -24.2464   -8.5886   22.3721 C   0  0  0  0  0  0  0  0  0  0  0  0
  -23.8618   -8.6406   19.9874 C   0  0  0  0  0  0  0  0  0  0  0  0
  -26.5040  -26.7864   18.8522 C   0  0  0  0  0  0  0  0  0  0  0  0
  -21.5441   -6.5593   22.3112 C   0  0  0  0  0  0  0  0  0  0  0  0
  -20.7161   -6.0638   23.3184 C   0  0  0  0  0  0  0  0  0  0  0  0
  -27.4146  -27.7875   20.8491 C   0  0  0  0  0  0  0  0  0  0  0  0
  -29.8366  -19.8784   24.5585 C   0  0  0  0  0  0  0  0  0  0  0  0
  -22.5105   -4.6450   24.0956 C   0  0  0  0  0  0  0  0  0  0  0  0
  -24.4382  -10.6713   21.1626 C   0  0  0  0  0  0  0  0  0  0  0  0
  -24.0043  -13.0886   21.8526 C   0  0  0  0  0  0  0  0  0  0  0  0
  -23.0348  -33.4525   16.4084 C   0  0  0  0  0  0  0  0  0  0  0  0
  -25.1817  -28.3769   20.1235 C   0  0  0  0  0  0  0  0  0  0  0  0
  -24.0742  -32.7174   17.0098 C   0  0  0  0  0  0  0  0  0  0  0  0
  -26.2291  -28.5120   21.0459 C   0  0  0  0  0  0  0  0  0  0  0  0
  -29.5665  -21.1197   23.9826 C   0  0  0  0  0  0  0  0  0  0  0  0
  -29.5639  -18.7073   23.8515 C   0  0  0  0  0  0  0  0  0  0  0  0
  -29.0236  -21.1900   22.6997 C   0  0  0  0  0  0  0  0  0  0  0  0
  -28.7508  -20.0190   21.9926 C   0  0  0  0  0  0  0  0  0  0  0  0
  -29.0209  -18.7776   22.5685 C   0  0  0  0  0  0  0  0  0  0  0  0
  -23.9261   -7.9291   21.1855 C   0  0  0  0  0  0  0  0  0  0  0  0
  -27.5515  -26.9308   19.7572 C   0  0  0  0  0  0  0  0  0  0  0  0
  -22.8553   -6.0976   22.1962 C   0  0  0  0  0  0  0  0  0  0  0  0
  -21.1992   -5.1067   24.2106 C   0  0  0  0  0  0  0  0  0  0  0  0
  -23.3385   -5.1405   23.0884 C   0  0  0  0  0  0  0  0  0  0  0  0
  -24.7021  -12.0877   21.1503 C   0  0  0  0  0  0  0  0  0  0  0  0
  -24.6391  -14.2566   21.5071 C   0  0  0  0  0  0  0  0  0  0  0  0
  -29.1712  -23.9101   20.1356 C   0  0  0  0  0  0  0  0  0  0  0  0
  -28.7825  -23.4854   18.9220 C   0  0  0  0  0  0  0  0  0  0  0  0
  -22.8826  -12.9729   22.7380 C   0  0  0  0  0  0  0  0  0  0  0  0
  -24.7088  -31.5040   20.4417 C   0  0  0  0  0  0  0  0  0  0  0  0
  -24.4497  -30.7503   23.5861 C   0  0  0  0  0  0  0  0  0  0  0  0
  -26.1417  -28.5836   25.9228 C   0  0  0  0  0  0  0  0  0  0  0  0
  -29.2827  -17.1990   20.6228 C   0  0  0  0  0  0  0  0  0  0  0  0
  -22.3437  -34.5835   17.1280 C   0  0  0  0  0  0  0  0  0  0  0  0
  -23.8905  -29.1224   20.3225 C   0  0  0  0  0  0  0  0  0  0  0  0
  -26.1207  -29.4220   22.2412 C   0  0  0  0  0  0  0  0  0  0  0  0
  -22.5505  -34.5599   18.6403 C   0  0  0  0  0  0  0  0  0  0  0  0
  -28.0968  -15.1929   17.9309 C   0  0  0  0  0  0  0  0  0  0  0  0
  -30.9940  -24.7705   22.1743 C   0  0  0  0  0  0  0  0  0  0  0  0
  -24.0201  -34.3245   18.9746 C   0  0  0  0  0  0  0  0  0  0  0  0
  -30.4409  -25.7852   21.1799 C   0  0  0  0  0  0  0  0  0  0  0  0
  -27.0505  -14.2886   18.5862 C   0  0  0  0  0  0  0  0  0  0  0  0
  -29.2840  -15.4504   18.8572 C   0  0  0  0  0  0  0  0  0  0  0  0
  -27.8866  -15.0504   20.8462 C   0  0  0  0  0  0  0  0  0  0  0  0
  -31.0664  -23.3747   21.5639 C   0  0  0  0  0  0  0  0  0  0  0  0
  -24.4968  -32.9681   18.4412 C   0  0  1  0  0  0  0  0  0  0  0  0
  -29.0905  -25.3402   20.6205 C   0  0  1  0  0  0  0  0  0  1  0  0
  -24.0493  -30.3739   21.1804 C   0  0  1  0  0  0  0  0  0  0  0  0
  -26.6413  -14.8153   19.9758 C   0  0  2  0  0  0  0  0  0  0  0  0
  -29.8693  -22.3584   24.7604 C   0  0  0  0  0  0  0  0  0  0  0  0
  -29.8655  -17.3925   24.4949 C   0  0  0  0  0  0  0  0  0  0  0  0
  -28.1679  -20.1000   20.6161 C   0  0  0  0  0  0  0  0  0  0  0  0
  -25.3136  -27.4814   28.0196 C   0  0  0  0  0  0  0  0  0  0  0  0
  -25.6025  -33.2041   24.9859 C   0  0  0  0  0  0  0  0  0  0  0  0
  -26.3591  -31.7036   26.8418 C   0  0  0  0  0  0  0  0  0  0  0  0
  -23.9272  -31.9258   26.3326 C   0  0  0  0  0  0  0  0  0  0  0  0
  -26.9288  -25.8980   24.9601 C   0  0  0  0  0  0  0  0  0  0  0  0
  -28.7341  -22.5269   22.0832 C   0  0  0  0  0  0  0  0  0  0  0  0
  -25.4142  -30.6407   24.7422 C   0  0  1  0  0  0  0  0  0  0  0  0
  -25.5971  -27.3061   26.5358 C   0  0  2  0  0  0  0  0  0  0  0  0
  -25.3340  -31.8637   25.6989 C   0  0  0  0  0  0  0  0  0  0  0  0
  -25.7034  -12.5771   20.4142 N   0  0  0  0  0  0  0  0  0  0  0  0
  -25.6394  -13.8983   20.6519 N   0  0  0  0  0  0  0  0  0  0  0  0
  -24.8407  -30.1342   22.3888 N   0  0  0  0  0  0  0  0  0  0  0  0
  -28.8203  -15.9516   20.1528 N   0  0  0  0  0  0  0  0  0  0  0  0
  -24.4337  -15.5448   21.8543 N   0  0  0  0  0  0  0  0  0  0  0  0
  -21.5925  -13.0537   22.1963 N   0  0  0  0  0  0  0  0  0  0  0  0
  -28.7480  -17.5867   21.8510 N   0  0  0  0  0  0  0  0  0  0  0  0
  -24.0374  -31.8976   19.2999 N   0  0  0  0  0  0  0  0  0  0  0  0
  -25.1376  -29.3604   25.3847 N   0  0  0  0  0  0  0  0  0  0  0  0
  -29.7304  -22.9164   21.0260 N   0  3  1  0  0  0  0  0  0  0  0  0
  -26.5765  -26.1948   26.3725 N   0  3  0  0  0  0  0  0  0  0  0  0
  -23.0203  -12.8194   23.9754 O   0  0  0  0  0  0  0  0  0  0  0  0
  -25.7490  -31.9844   20.8764 O   0  0  0  0  0  0  0  0  0  0  0  0
  -23.3852  -31.3539   23.7417 O   0  0  0  0  0  0  0  0  0  0  0  0
  -27.3379  -28.8661   25.9246 O   0  0  0  0  0  0  0  0  0  0  0  0
  -30.0725  -17.8862   19.9701 O   0  0  0  0  0  0  0  0  0  0  0  0
  -23.6764   -6.5911   21.1962 O   0  0  0  0  0  0  0  0  0  0  0  0
  -28.7063  -26.2330   19.5798 O   0  0  0  0  0  0  0  0  0  1  0  0
  -20.4044   -4.6321   25.1787 F   0  0  0  0  0  0  0  0  0  0  0  0
  -24.5977   -4.6940   22.9836 F   0  0  0  0  0  0  0  0  0  0  0  0
  1  2  1  0  0  0  0
  1  5  2  0  0  0  0
  2  6  2  0  0  0  0
  3  8  2  0  0  0  0
  3 16  1  0  0  0  0
  4  9  1  0  0  0  0
  4 16  2  0  0  0  0
  5 18  1  0  0  0  0
  6 20  1  0  0  0  0
  7 10  2  0  0  0  0
  7 19  1  0  0  0  0
  8 27  1  0  0  0  0
  9 27  2  0  0  0  0
 10 28  1  0  0  0  0
 11 12  2  0  0  0  0
 11 29  1  0  0  0  0
 12 30  1  0  0  0  0
 13 21  1  0  0  0  0
 13 28  2  0  0  0  0
 14 22  2  0  0  0  0
 14 23  1  0  0  0  0
 15 30  2  0  0  0  0
 15 31  1  0  0  0  0
 16 32  1  0  0  0  0
 17 32  1  0  0  0  0
 17 33  2  0  0  0  0
 17 36  1  0  0  0  0
 18 20  2  0  0  0  0
 18 41  1  0  0  0  0
 19 21  2  0  0  0  0
 19 42  1  0  0  0  0
 20 53  1  0  0  0  0
 21 43  1  0  0  0  0
 22 24  1  0  0  0  0
 22 57  1  0  0  0  0
 23 26  2  0  0  0  0
 23 58  1  0  0  0  0
 24 25  2  0  0  0  0
 24 65  1  0  0  0  0
 25 26  1  0  0  0  0
 25 59  1  0  0  0  0
 26 75  1  0  0  0  0
 27 85  1  0  0  0  0
 28 86  1  0  0  0  0
 29 31  2  0  0  0  0
 29 85  1  0  0  0  0
 30 87  1  0  0  0  0
 31 88  1  0  0  0  0
 32 69  2  0  0  0  0
 33 70  1  0  0  0  0
 33 73  1  0  0  0  0
 34 35  2  0  0  0  0
 34 54  1  0  0  0  0
 34 78  1  0  0  0  0
 36 74  1  0  0  0  0
 36 80  2  0  0  0  0
 37 55  1  0  0  0  0
 37 76  1  0  0  0  0
 37 81  2  0  0  0  0
 38 66  1  0  0  0  0
 38 71  1  0  0  0  0
 38 82  2  0  0  0  0
 39 67  1  0  0  0  0
 39 77  1  0  0  0  0
 39 83  2  0  0  0  0
 40 72  1  0  0  0  0
 40 75  1  0  0  0  0
 40 84  2  0  0  0  0
 41 44  1  0  0  0  0
 42 55  1  0  0  0  0
 43 71  1  0  0  0  0
 44 47  1  0  0  0  0
 45 49  1  0  0  0  0
 45 50  1  0  0  0  0
 46 48  1  0  0  0  0
 46 52  1  0  0  0  0
 47 53  1  0  0  0  0
 48 54  1  0  0  0  0
 49 56  1  0  0  0  0
 50 72  1  0  0  0  0
 51 56  1  0  0  0  0
 51 72  1  0  0  0  0
 52 78  1  0  0  0  0
 53 76  1  0  0  0  0
 54 86  1  0  0  0  0
 55 71  1  0  0  0  0
 56 70  1  0  0  0  0
 60 67  1  0  0  0  0
 61 68  1  0  0  0  0
 62 68  1  0  0  0  0
 63 68  1  0  0  0  0
 64 79  1  0  0  0  0
 65 78  1  0  0  0  0
 66 68  1  0  0  0  0
 66 77  1  0  0  0  0
 67 79  1  0  0  0  0
 69 70  1  0  0  0  0
M  CHG  2  78   1  79   1
M  ISO  4  40 100  54 101  75 100  86 101
M  END
> <Batch ID>
0038

> <Smiles>
C=C1N(Cc2c(C)cc(C)c([100NH:0][100C:0](=O)N3CCCC(n4nc(-c5ccc(Oc6ccc(F)cc6F)cc5)c(C(N)=O)c4N)C3)c2C)CCC[101CH:1]1[101O:1]c1ccc2c(c1)CN(C(=O)C(NC(=O)C(C)NC)C(C)(C)C)C(C(=O)NC1CCCc3ccccc31)C2

> <Shape>
0.284

> <Color>
0.116

> <Negative vol penalty>
0.000

$$$$

  -OEChem-04042322003D

 88 97  0     1  0  0  0  0  0999 V2000
  -34.2639  -30.1091   30.5881 C   0  0  0  0  0  0  0  0  0  0  0  0
  -34.2999  -30.1628   29.1984 C   0  0  0  0  0  0  0  0  0  0  0  0
  -22.6297  -10.2750   20.2342 C   0  0  0  0  0  0  0  0  0  0  0  0
  -24.2533   -9.5328   21.8622 C   0  0  0  0  0  0  0  0  0  0  0  0
  -34.1622  -28.8781   31.2346 C   0  0  0  0  0  0  0  0  0  0  0  0
  -34.2353  -28.9852   28.4544 C   0  0  0  0  0  0  0  0  0  0  0  0
  -31.7532  -26.4395   22.2355 C   0  0  0  0  0  0  0  0  0  0  0  0
  -21.8764   -9.1231   20.4603 C   0  0  0  0  0  0  0  0  0  0  0  0
  -23.4999   -8.3809   22.0884 C   0  0  0  0  0  0  0  0  0  0  0  0
  -32.1806  -25.7274   21.1157 C   0  0  0  0  0  0  0  0  0  0  0  0
  -19.6961   -7.9885   22.7824 C   0  0  0  0  0  0  0  0  0  0  0  0
  -18.3169   -8.1346   22.9306 C   0  0  0  0  0  0  0  0  0  0  0  0
  -31.9265  -23.6636   22.3387 C   0  0  0  0  0  0  0  0  0  0  0  0
  -31.6886  -18.3234   20.1506 C   0  0  0  0  0  0  0  0  0  0  0  0
  -29.2653  -19.7054   20.1261 C   0  0  0  0  0  0  0  0  0  0  0  0
  -17.9593   -6.6971   21.0220 C   0  0  0  0  0  0  0  0  0  0  0  0
  -23.8182  -10.4799   20.9352 C   0  0  0  0  0  0  0  0  0  0  0  0
  -24.1876  -13.0035   20.8860 C   0  0  0  0  0  0  0  0  0  0  0  0
  -34.0866  -27.6855   30.4980 C   0  0  0  0  0  0  0  0  0  0  0  0
  -31.4190  -25.7687   23.4208 C   0  0  0  0  0  0  0  0  0  0  0  0
  -34.1339  -27.7369   29.0918 C   0  0  0  0  0  0  0  0  0  0  0  0
  -31.4926  -24.3694   23.4713 C   0  0  0  0  0  0  0  0  0  0  0  0
  -30.6654  -17.9526   21.0231 C   0  0  0  0  0  0  0  0  0  0  0  0
  -31.5002  -19.3852   19.2659 C   0  0  0  0  0  0  0  0  0  0  0  0
  -29.4538  -18.6435   21.0108 C   0  0  0  0  0  0  0  0  0  0  0  0
  -22.3114   -8.1760   21.3874 C   0  0  0  0  0  0  0  0  0  0  0  0
  -32.2701  -24.3395   21.1681 C   0  0  0  0  0  0  0  0  0  0  0  0
  -20.2070   -7.1967   21.7539 C   0  0  0  0  0  0  0  0  0  0  0  0
  -17.4485   -7.4889   22.0505 C   0  0  0  0  0  0  0  0  0  0  0  0
  -19.3386   -6.5510   20.8738 C   0  0  0  0  0  0  0  0  0  0  0  0
  -30.2885  -20.0762   19.2536 C   0  0  0  0  0  0  0  0  0  0  0  0
  -24.5971  -11.6693   20.7016 C   0  0  0  0  0  0  0  0  0  0  0  0
  -25.2828  -13.7514   20.5287 C   0  0  0  0  0  0  0  0  0  0  0  0
  -22.9296  -13.5206   21.3397 C   0  0  0  0  0  0  0  0  0  0  0  0
  -32.5394  -25.7773   26.3954 C   0  0  0  0  0  0  0  0  0  0  0  0
  -29.9842  -23.8570   26.9484 C   0  0  0  0  0  0  0  0  0  0  0  0
  -27.6793  -21.6707   25.7016 C   0  0  0  0  0  0  0  0  0  0  0  0
  -30.7802  -14.7029   20.6635 C   0  0  0  0  0  0  0  0  0  0  0  0
  -34.0251  -26.3752   31.2423 C   0  0  0  0  0  0  0  0  0  0  0  0
  -30.9341  -26.5495   24.6114 C   0  0  0  0  0  0  0  0  0  0  0  0
  -31.1260  -23.6003   24.7133 C   0  0  0  0  0  0  0  0  0  0  0  0
  -33.5841  -25.2007   30.3726 C   0  0  0  0  0  0  0  0  0  0  0  0
  -29.5792  -12.4047   18.2237 C   0  0  0  0  0  0  0  0  0  0  0  0
  -34.3369  -25.2066   29.0459 C   0  0  0  0  0  0  0  0  0  0  0  0
  -28.1451  -12.1140   18.6696 C   0  0  0  0  0  0  0  0  0  0  0  0
  -34.9474  -23.3209   19.2676 C   0  0  0  0  0  0  0  0  0  0  0  0
  -34.5725  -23.0473   17.8157 C   0  0  0  0  0  0  0  0  0  0  0  0
  -30.5168  -12.5787   19.4165 C   0  0  0  0  0  0  0  0  0  0  0  0
  -28.6447  -13.2887   20.8535 C   0  0  0  0  0  0  0  0  0  0  0  0
  -33.4969  -21.3884   19.9891 C   0  0  0  0  0  0  0  0  0  0  0  0
  -34.0412  -26.4831   28.2494 C   0  0  1  0  0  0  0  0  0  0  0  0
  -31.1113  -25.8012   25.9290 C   0  0  1  0  0  0  0  0  0  0  0  0
  -27.6510  -13.1607   19.6862 C   0  0  2  0  0  0  0  0  0  0  0  0
  -33.8616  -22.8464   20.2252 C   0  0  2  0  0  0  0  0  0  1  0  0
  -34.2219  -21.5744   17.5735 C   0  0  2  0  0  0  0  0  0  0  0  0
  -28.3452  -18.2660   21.9377 C   0  0  0  0  0  0  0  0  0  0  0  0
  -33.7802  -21.3806   16.1242 C   0  0  0  0  0  0  0  0  0  0  0  0
  -25.7427  -20.2373   26.4031 C   0  0  0  0  0  0  0  0  0  0  0  0
  -31.9220  -21.8406   28.1687 C   0  0  0  0  0  0  0  0  0  0  0  0
  -30.1292  -20.1040   27.9725 C   0  0  0  0  0  0  0  0  0  0  0  0
  -29.7707  -22.1066   29.4160 C   0  0  0  0  0  0  0  0  0  0  0  0
  -25.8108  -23.1230   23.9244 C   0  0  0  0  0  0  0  0  0  0  0  0
  -30.8897  -16.8141   21.9634 C   0  0  0  0  0  0  0  0  0  0  0  0
  -32.6253  -19.7526   18.3439 C   0  0  0  0  0  0  0  0  0  0  0  0
  -29.7353  -22.3687   26.9016 C   0  0  1  0  0  0  0  0  0  0  0  0
  -26.1722  -21.5936   25.8658 C   0  0  2  0  0  0  0  0  0  0  0  0
  -30.3981  -21.6193   28.0918 C   0  0  0  0  0  0  0  0  0  0  0  0
  -25.8544  -11.5721   20.2613 N   0  0  0  0  0  0  0  0  0  0  0  0
  -26.2442  -12.8547   20.1659 N   0  0  0  0  0  0  0  0  0  0  0  0
  -30.6634  -24.4091   25.8532 N   0  0  0  0  0  0  0  0  0  0  0  0
  -29.9916  -13.5860   20.3414 N   0  0  0  0  0  0  0  0  0  0  0  0
  -25.5075  -15.0820   20.4926 N   0  0  0  0  0  0  0  0  0  0  0  0
  -22.7479  -13.7249   22.7144 N   0  0  0  0  0  0  0  0  0  0  0  0
  -32.7434  -26.3938   27.6151 N   0  0  0  0  0  0  0  0  0  0  0  0
  -28.2886  -22.1992   26.8199 N   0  0  0  0  0  0  0  0  0  0  0  0
  -30.2046  -15.6124   21.5422 N   0  0  0  0  0  0  0  0  0  0  0  0
  -33.1087  -21.1703   18.5360 N   0  3  1  0  0  0  0  0  0  0  0  0
  -25.4964  -21.8158   24.5563 N   0  3  0  0  0  0  0  0  0  0  0  0
  -21.9886  -13.7778   20.5512 O   0  0  0  0  0  0  0  0  0  0  0  0
  -33.3928  -25.2379   25.7007 O   0  0  0  0  0  0  0  0  0  0  0  0
  -29.5843  -24.5068   27.9176 O   0  0  0  0  0  0  0  0  0  0  0  0
  -28.2586  -21.2960   24.6844 O   0  0  0  0  0  0  0  0  0  0  0  0
  -31.9112  -14.8793   20.1979 O   0  0  0  0  0  0  0  0  0  0  0  0
  -21.5765   -7.0520   21.6085 O   0  0  0  0  0  0  0  0  0  0  0  0
  -32.6877  -23.6420   20.0768 O   0  0  0  0  0  0  0  0  0  1  0  0
  -16.1240   -7.6281   22.1940 F   0  0  0  0  0  0  0  0  0  0  0  0
  -19.8235   -5.7880   19.8845 F   0  0  0  0  0  0  0  0  0  0  0  0
  -30.0191  -21.3952   18.1733 Cl  0  0  0  0  0  0  0  0  0  0  0  0
  1  2  1  0  0  0  0
  1  5  2  0  0  0  0
  2  6  2  0  0  0  0
  3  8  2  0  0  0  0
  3 17  1  0  0  0  0
  4  9  1  0  0  0  0
  4 17  2  0  0  0  0
  5 19  1  0  0  0  0
  6 21  1  0  0  0  0
  7 10  2  0  0  0  0
  7 20  1  0  0  0  0
  8 26  1  0  0  0  0
  9 26  2  0  0  0  0
 10 27  1  0  0  0  0
 11 12  2  0  0  0  0
 11 28  1  0  0  0  0
 12 29  1  0  0  0  0
 13 22  1  0  0  0  0
 13 27  2  0  0  0  0
 14 23  2  0  0  0  0
 14 24  1  0  0  0  0
 15 25  2  0  0  0  0
 15 31  1  0  0  0  0
 16 29  2  0  0  0  0
 16 30  1  0  0  0  0
 17 32  1  0  0  0  0
 18 32  1  0  0  0  0
 18 33  2  0  0  0  0
 18 34  1  0  0  0  0
 19 21  2  0  0  0  0
 19 39  1  0  0  0  0
 20 22  2  0  0  0  0
 20 40  1  0  0  0  0
 21 51  1  0  0  0  0
 22 41  1  0  0  0  0
 23 25  1  0  0  0  0
 23 63  1  0  0  0  0
 24 31  2  0  0  0  0
 24 64  1  0  0  0  0
 25 56  1  0  0  0  0
 26 84  1  0  0  0  0
 27 85  1  0  0  0  0
 28 30  2  0  0  0  0
 28 84  1  0  0  0  0
 29 86  1  0  0  0  0
 30 87  1  0  0  0  0
 31 88  1  0  0  0  0
 32 68  2  0  0  0  0
 33 69  1  0  0  0  0
 33 72  1  0  0  0  0
 34 73  1  0  0  0  0
 34 79  2  0  0  0  0
 35 52  1  0  0  0  0
 35 74  1  0  0  0  0
 35 80  2  0  0  0  0
 36 65  1  0  0  0  0
 36 70  1  0  0  0  0
 36 81  2  0  0  0  0
 37 66  1  0  0  0  0
 37 75  1  0  0  0  0
 37 82  2  0  0  0  0
 38 71  1  0  0  0  0
 38 76  1  0  0  0  0
 38 83  2  0  0  0  0
 39 42  1  0  0  0  0
 40 52  1  0  0  0  0
 41 70  1  0  0  0  0
 42 44  1  0  0  0  0
 43 45  1  0  0  0  0
 43 48  1  0  0  0  0
 44 51  1  0  0  0  0
 45 53  1  0  0  0  0
 46 47  1  0  0  0  0
 46 54  1  0  0  0  0
 47 55  1  0  0  0  0
 48 71  1  0  0  0  0
 49 53  1  0  0  0  0
 49 71  1  0  0  0  0
 50 54  1  0  0  0  0
 50 77  1  0  0  0  0
 51 74  1  0  0  0  0
 52 70  1  0  0  0  0
 53 69  1  0  0  0  0
 54 85  1  0  0  0  0
 55 57  1  0  0  0  0
 55 77  1  0  0  0  0
 58 66  1  0  0  0  0
 59 67  1  0  0  0  0
 60 67  1  0  0  0  0
 61 67  1  0  0  0  0
 62 78  1  0  0  0  0
 63 76  1  0  0  0  0
 64 77  1  0  0  0  0
 65 67  1  0  0  0  0
 65 75  1  0  0  0  0
 66 78  1  0  0  0  0
 68 69  1  0  0  0  0
M  CHG  2  77   1  78   1
M  ISO  4  38 100  54 101  76 100  85 101
M  END
> <Batch ID>
0038

> <Smiles>
CNC(C)C(=O)NC(C(=O)N1Cc2cc([101O:1][101CH:1]3CCC(C)N(Cc4cc(C[100NH:0][100C:0](=O)N5CCCC(n6nc(-c7ccc(Oc8ccc(F)cc8F)cc7)c(C(N)=O)c6N)C5)c(C)cc4Cl)C3)ccc2CC1C(=O)NC1CCCc2ccccc21)C(C)(C)C

> <Shape>
0.171

> <Color>
0.169

> <Negative vol penalty>
0.000

$$$$

  -OEChem-04042322003D

 87 96  0     1  0  0  0  0  0999 V2000
  -16.5943  -28.9296   23.9665 C   0  0  0  0  0  0  0  0  0  0  0  0
  -17.0499  -28.4159   22.7576 C   0  0  0  0  0  0  0  0  0  0  0  0
  -26.1910  -13.6863   19.6761 C   0  0  0  0  0  0  0  0  0  0  0  0
  -24.2622  -13.9735   21.1023 C   0  0  0  0  0  0  0  0  0  0  0  0
  -17.4249  -29.7481   24.7289 C   0  0  0  0  0  0  0  0  0  0  0  0
  -18.3403  -28.7108   22.3164 C   0  0  0  0  0  0  0  0  0  0  0  0
  -25.9563  -28.7268   18.9402 C   0  0  0  0  0  0  0  0  0  0  0  0
  -29.2425  -25.4979   18.9062 C   0  0  0  0  0  0  0  0  0  0  0  0
  -28.2682  -24.5026   18.9816 C   0  0  0  0  0  0  0  0  0  0  0  0
  -25.7301  -12.4225   19.3072 C   0  0  0  0  0  0  0  0  0  0  0  0
  -23.8013  -12.7097   20.7335 C   0  0  0  0  0  0  0  0  0  0  0  0
  -27.2033  -29.2087   19.3356 C   0  0  0  0  0  0  0  0  0  0  0  0
  -24.4635   -9.4889   21.5202 C   0  0  0  0  0  0  0  0  0  0  0  0
  -23.9934   -8.6502   22.5307 C   0  0  0  0  0  0  0  0  0  0  0  0
  -26.7616  -28.4820   21.5930 C   0  0  0  0  0  0  0  0  0  0  0  0
  -21.8296   -8.5716   21.4587 C   0  0  0  0  0  0  0  0  0  0  0  0
  -25.4570  -14.4618   20.5737 C   0  0  0  0  0  0  0  0  0  0  0  0
  -27.1507  -16.0758   21.5908 C   0  0  0  0  0  0  0  0  0  0  0  0
  -18.7215  -30.0629   24.2901 C   0  0  0  0  0  0  0  0  0  0  0  0
  -25.0966  -28.1276   19.8720 C   0  0  0  0  0  0  0  0  0  0  0  0
  -19.2023  -29.5156   23.0832 C   0  0  0  0  0  0  0  0  0  0  0  0
  -25.5053  -27.9909   21.2064 C   0  0  0  0  0  0  0  0  0  0  0  0
  -30.4840  -25.3060   19.5123 C   0  0  0  0  0  0  0  0  0  0  0  0
  -30.7512  -24.1188   20.1941 C   0  0  0  0  0  0  0  0  0  0  0  0
  -28.5354  -23.3154   19.6633 C   0  0  0  0  0  0  0  0  0  0  0  0
  -24.5352  -11.9342   19.8359 C   0  0  0  0  0  0  0  0  0  0  0  0
  -27.6050  -29.0890   20.6628 C   0  0  0  0  0  0  0  0  0  0  0  0
  -23.6167   -9.8691   20.4790 C   0  0  0  0  0  0  0  0  0  0  0  0
  -22.6765   -8.1915   22.5000 C   0  0  0  0  0  0  0  0  0  0  0  0
  -22.2997   -9.4103   20.4482 C   0  0  0  0  0  0  0  0  0  0  0  0
  -29.7769  -23.1234   20.2696 C   0  0  0  0  0  0  0  0  0  0  0  0
  -25.9329  -15.7672   20.9555 C   0  0  0  0  0  0  0  0  0  0  0  0
  -27.1272  -17.4417   21.7330 C   0  0  0  0  0  0  0  0  0  0  0  0
  -32.7001  -28.1732   20.5555 C   0  0  0  0  0  0  0  0  0  0  0  0
  -33.8954  -27.9349   21.1161 C   0  0  0  0  0  0  0  0  0  0  0  0
  -28.2085  -15.2056   22.0143 C   0  0  0  0  0  0  0  0  0  0  0  0
  -22.1956  -28.7839   20.9932 C   0  0  0  0  0  0  0  0  0  0  0  0
  -22.5511  -25.9257   22.4854 C   0  0  0  0  0  0  0  0  0  0  0  0
  -25.1814  -24.1721   24.2243 C   0  0  0  0  0  0  0  0  0  0  0  0
  -26.1410  -22.5336   19.7076 C   0  0  0  0  0  0  0  0  0  0  0  0
  -19.5810  -30.9473   25.1586 C   0  0  0  0  0  0  0  0  0  0  0  0
  -23.7657  -27.5888   19.4240 C   0  0  0  0  0  0  0  0  0  0  0  0
  -24.6278  -27.3374   22.2415 C   0  0  0  0  0  0  0  0  0  0  0  0
  -32.3753  -29.4491   19.8273 C   0  0  0  0  0  0  0  0  0  0  0  0
  -20.7562  -31.5603   24.4039 C   0  0  0  0  0  0  0  0  0  0  0  0
  -31.0764  -30.0455   20.3560 C   0  0  0  0  0  0  0  0  0  0  0  0
  -23.3647  -20.7597   21.0576 C   0  0  0  0  0  0  0  0  0  0  0  0
  -21.4984  -30.4799   23.6316 C   0  0  0  0  0  0  0  0  0  0  0  0
  -23.8855  -19.3281   21.2036 C   0  0  0  0  0  0  0  0  0  0  0  0
  -23.9129  -21.4374   19.8031 C   0  0  0  0  0  0  0  0  0  0  0  0
  -25.8958  -19.9755   19.8157 C   0  0  0  0  0  0  0  0  0  0  0  0
  -30.4031  -27.7744   21.2241 C   0  0  0  0  0  0  0  0  0  0  0  0
  -20.5912  -29.8477   22.5684 C   0  0  1  0  0  0  0  0  0  0  0  0
  -22.7594  -27.4591   20.5633 C   0  0  1  0  0  0  0  0  0  0  0  0
  -25.4223  -19.2741   21.0992 C   0  0  2  0  0  0  0  0  0  0  0  0
  -29.9671  -28.9956   20.4186 C   0  0  1  0  0  0  0  0  0  1  0  0
  -32.0910  -23.9345   20.8369 C   0  0  0  0  0  0  0  0  0  0  0  0
  -25.5708  -21.7134   24.5410 C   0  0  0  0  0  0  0  0  0  0  0  0
  -21.0432  -26.3194   25.1087 C   0  0  0  0  0  0  0  0  0  0  0  0
  -22.6309  -24.7086   26.1823 C   0  0  0  0  0  0  0  0  0  0  0  0
  -21.1585  -23.9499   24.3171 C   0  0  0  0  0  0  0  0  0  0  0  0
  -27.9084  -24.3395   23.0867 C   0  0  0  0  0  0  0  0  0  0  0  0
  -31.5127  -26.3938   19.4152 C   0  0  0  0  0  0  0  0  0  0  0  0
  -23.1108  -25.4752   23.8131 C   0  0  1  0  0  0  0  0  0  0  0  0
  -25.9367  -22.9498   23.7347 C   0  0  2  0  0  0  0  0  0  0  0  0
  -21.9956  -25.1366   24.8422 C   0  0  0  0  0  0  0  0  0  0  0  0
  -25.1899  -16.8499   20.7112 N   0  0  0  0  0  0  0  0  0  0  0  0
  -25.9428  -17.8521   21.1956 N   0  0  0  0  0  0  0  0  0  0  0  0
  -23.3332  -26.8321   21.7557 N   0  0  0  0  0  0  0  0  0  0  0  0
  -25.3746  -21.3508   19.7744 N   0  0  0  0  0  0  0  0  0  0  0  0
  -28.0043  -18.3196   22.2643 N   0  0  0  0  0  0  0  0  0  0  0  0
  -28.1593  -14.6761   23.3111 N   0  0  0  0  0  0  0  0  0  0  0  0
  -27.5202  -22.3284   19.7191 N   0  0  0  0  0  0  0  0  0  0  0  0
  -21.2578  -28.6948   22.0042 N   0  0  0  0  0  0  0  0  0  0  0  0
  -24.0113  -24.3651   23.5210 N   0  0  0  0  0  0  0  0  0  0  0  0
  -31.6784  -27.1641   20.6959 N   0  3  1  0  0  0  0  0  0  0  0  0
  -27.4064  -23.1683   23.8504 N   0  3  0  0  0  0  0  0  0  0  0  0
  -29.1774  -14.9194   21.2707 O   0  0  0  0  0  0  0  0  0  0  0  0
  -22.5838  -29.8110   20.4491 O   0  0  0  0  0  0  0  0  0  0  0  0
  -21.4635  -25.4840   22.1065 O   0  0  0  0  0  0  0  0  0  0  0  0
  -25.5869  -24.8824   25.1417 O   0  0  0  0  0  0  0  0  0  0  0  0
  -25.6128  -23.6480   19.6723 O   0  0  0  0  0  0  0  0  0  0  0  0
  -24.0851  -10.7012   19.4761 O   0  0  0  0  0  0  0  0  0  0  0  0
  -28.8214  -29.5591   21.0516 O   0  0  0  0  0  0  0  0  0  1  0  0
  -22.2256   -7.3848   23.4696 F   0  0  0  0  0  0  0  0  0  0  0  0
  -21.4818   -9.7711   19.4499 F   0  0  0  0  0  0  0  0  0  0  0  0
  -30.1111  -21.6483   21.1181 Cl  0  0  0  0  0  0  0  0  0  0  0  0
  1  2  1  0  0  0  0
  1  5  2  0  0  0  0
  2  6  2  0  0  0  0
  3 10  2  0  0  0  0
  3 17  1  0  0  0  0
  4 11  1  0  0  0  0
  4 17  2  0  0  0  0
  5 19  1  0  0  0  0
  6 21  1  0  0  0  0
  7 12  2  0  0  0  0
  7 20  1  0  0  0  0
  8  9  2  0  0  0  0
  8 23  1  0  0  0  0
  9 25  1  0  0  0  0
 10 26  1  0  0  0  0
 11 26  2  0  0  0  0
 12 27  1  0  0  0  0
 13 14  2  0  0  0  0
 13 28  1  0  0  0  0
 14 29  1  0  0  0  0
 15 22  1  0  0  0  0
 15 27  2  0  0  0  0
 16 29  2  0  0  0  0
 16 30  1  0  0  0  0
 17 32  1  0  0  0  0
 18 32  1  0  0  0  0
 18 33  2  0  0  0  0
 18 36  1  0  0  0  0
 19 21  2  0  0  0  0
 19 41  1  0  0  0  0
 20 22  2  0  0  0  0
 20 42  1  0  0  0  0
 21 53  1  0  0  0  0
 22 43  1  0  0  0  0
 23 24  2  0  0  0  0
 23 63  1  0  0  0  0
 24 31  1  0  0  0  0
 24 57  1  0  0  0  0
 25 31  2  0  0  0  0
 25 73  1  0  0  0  0
 26 83  1  0  0  0  0
 27 84  1  0  0  0  0
 28 30  2  0  0  0  0
 28 83  1  0  0  0  0
 29 85  1  0  0  0  0
 30 86  1  0  0  0  0
 31 87  1  0  0  0  0
 32 67  2  0  0  0  0
 33 68  1  0  0  0  0
 33 71  1  0  0  0  0
 34 35  2  0  0  0  0
 34 44  1  0  0  0  0
 34 76  1  0  0  0  0
 36 72  1  0  0  0  0
 36 78  2  0  0  0  0
 37 54  1  0  0  0  0
 37 74  1  0  0  0  0
 37 79  2  0  0  0  0
 38 64  1  0  0  0  0
 38 69  1  0  0  0  0
 38 80  2  0  0  0  0
 39 65  1  0  0  0  0
 39 75  1  0  0  0  0
 39 81  2  0  0  0  0
 40 70  1  0  0  0  0
 40 73  1  0  0  0  0
 40 82  2  0  0  0  0
 41 45  1  0  0  0  0
 42 54  1  0  0  0  0
 43 69  1  0  0  0  0
 44 46  1  0  0  0  0
 45 48  1  0  0  0  0
 46 56  1  0  0  0  0
 47 49  1  0  0  0  0
 47 50  1  0  0  0  0
 48 53  1  0  0  0  0
 49 55  1  0  0  0  0
 50 70  1  0  0  0  0
 51 55  1  0  0  0  0
 51 70  1  0  0  0  0
 52 56  1  0  0  0  0
 52 76  1  0  0  0  0
 53 74  1  0  0  0  0
 54 69  1  0  0  0  0
 55 68  1  0  0  0  0
 56 84  1  0  0  0  0
 58 65  1  0  0  0  0
 59 66  1  0  0  0  0
 60 66  1  0  0  0  0
 61 66  1  0  0  0  0
 62 77  1  0  0  0  0
 63 76  1  0  0  0  0
 64 66  1  0  0  0  0
 64 75  1  0  0  0  0
 65 77  1  0  0  0  0
 67 68  1  0  0  0  0
M  CHG  2  76   1  77   1
M  ISO  4  40 100  56 101  73 100  84 101
M  END
> <Batch ID>
0038

> <Smiles>
C=C1CC[101CH:1]([101O:1]c2ccc3c(c2)CN(C(=O)C(NC(=O)C(C)NC)C(C)(C)C)C(C(=O)NC2CCCc4ccccc42)C3)CN1Cc1ccc([100NH:0][100C:0](=O)N2CCCC(n3nc(-c4ccc(Oc5ccc(F)cc5F)cc4)c(C(N)=O)c3N)C2)c(Cl)c1C

> <Shape>
0.246

> <Color>
0.072

> <Negative vol penalty>
0.000

$$$$

  -OEChem-04042322003D

 90 99  0     1  0  0  0  0  0999 V2000
  -16.9796  -28.5789   23.8107 C   0  0  0  0  0  0  0  0  0  0  0  0
  -17.6326  -27.9955   22.7296 C   0  0  0  0  0  0  0  0  0  0  0  0
  -28.0307  -16.8841   23.2763 C   0  0  0  0  0  0  0  0  0  0  0  0
  -29.0874  -17.3226   21.1483 C   0  0  0  0  0  0  0  0  0  0  0  0
  -17.4964  -29.7346   24.3948 C   0  0  0  0  0  0  0  0  0  0  0  0
  -18.8022  -28.5682   22.2313 C   0  0  0  0  0  0  0  0  0  0  0  0
  -25.0275  -26.7827   19.1695 C   0  0  0  0  0  0  0  0  0  0  0  0
  -27.5057  -15.6949   22.7706 C   0  0  0  0  0  0  0  0  0  0  0  0
  -28.5624  -16.1333   20.6426 C   0  0  0  0  0  0  0  0  0  0  0  0
  -25.8076  -27.0911   18.0559 C   0  0  0  0  0  0  0  0  0  0  0  0
  -29.2617  -12.8316   20.8156 C   0  0  0  0  0  0  0  0  0  0  0  0
  -30.1146  -12.0102   20.0784 C   0  0  0  0  0  0  0  0  0  0  0  0
  -26.6513  -29.0430   19.1950 C   0  0  0  0  0  0  0  0  0  0  0  0
  -31.4790  -25.3937   17.5489 C   0  0  0  0  0  0  0  0  0  0  0  0
  -32.9100  -23.4876   17.9441 C   0  0  0  0  0  0  0  0  0  0  0  0
  -28.6544  -12.2119   18.1642 C   0  0  0  0  0  0  0  0  0  0  0  0
  -28.8215  -17.6980   22.4652 C   0  0  0  0  0  0  0  0  0  0  0  0
  -30.2319  -19.0744   24.0851 C   0  0  0  0  0  0  0  0  0  0  0  0
  -18.6783  -30.3163   23.9094 C   0  0  0  0  0  0  0  0  0  0  0  0
  -25.0451  -27.6096   20.3019 C   0  0  0  0  0  0  0  0  0  0  0  0
  -19.3346  -29.7335   22.8085 C   0  0  0  0  0  0  0  0  0  0  0  0
  -25.8724  -28.7415   20.3226 C   0  0  0  0  0  0  0  0  0  0  0  0
  -32.1023  -25.6067   16.3194 C   0  0  0  0  0  0  0  0  0  0  0  0
  -33.5333  -23.7006   16.7146 C   0  0  0  0  0  0  0  0  0  0  0  0
  -33.1294  -24.7601   15.9022 C   0  0  0  0  0  0  0  0  0  0  0  0
  -31.8829  -24.3341   18.3614 C   0  0  0  0  0  0  0  0  0  0  0  0
  -27.7716  -15.3195   21.4538 C   0  0  0  0  0  0  0  0  0  0  0  0
  -26.6175  -28.2230   18.0674 C   0  0  0  0  0  0  0  0  0  0  0  0
  -28.1051  -13.3431   20.2271 C   0  0  0  0  0  0  0  0  0  0  0  0
  -29.8110  -11.7004   18.7527 C   0  0  0  0  0  0  0  0  0  0  0  0
  -27.8014  -13.0332   18.9014 C   0  0  0  0  0  0  0  0  0  0  0  0
  -29.3637  -18.9269   22.9868 C   0  0  0  0  0  0  0  0  0  0  0  0
  -30.4502  -20.4277   24.1709 C   0  0  0  0  0  0  0  0  0  0  0  0
  -29.4447  -27.5284   16.3079 C   0  0  0  0  0  0  0  0  0  0  0  0
  -30.7912  -18.0773   24.9503 C   0  0  0  0  0  0  0  0  0  0  0  0
  -22.8795  -29.3592   21.8358 C   0  0  0  0  0  0  0  0  0  0  0  0
  -25.2967  -29.7864   23.9565 C   0  0  0  0  0  0  0  0  0  0  0  0
  -28.8483  -30.4046   23.8117 C   0  0  0  0  0  0  0  0  0  0  0  0
  -30.2138  -24.8623   20.1729 C   0  0  0  0  0  0  0  0  0  0  0  0
  -19.1728  -31.5923   24.5434 C   0  0  0  0  0  0  0  0  0  0  0  0
  -24.2181  -27.2485   21.5052 C   0  0  0  0  0  0  0  0  0  0  0  0
  -25.9427  -29.6506   21.5214 C   0  0  0  0  0  0  0  0  0  0  0  0
  -20.6211  -31.9246   24.1937 C   0  0  0  0  0  0  0  0  0  0  0  0
  -30.8146  -30.0770   16.8986 C   0  0  0  0  0  0  0  0  0  0  0  0
  -28.3602  -24.6266   23.2036 C   0  0  0  0  0  0  0  0  0  0  0  0
  -20.8601  -31.7599   22.6962 C   0  0  0  0  0  0  0  0  0  0  0  0
  -29.2953  -29.9691   16.7825 C   0  0  0  0  0  0  0  0  0  0  0  0
  -28.4913  -23.1530   23.5951 C   0  0  0  0  0  0  0  0  0  0  0  0
  -31.5076  -28.7205   16.9920 C   0  0  0  0  0  0  0  0  0  0  0  0
  -28.2470  -24.8036   21.6905 C   0  0  0  0  0  0  0  0  0  0  0  0
  -29.4400  -22.6838   21.3002 C   0  0  0  0  0  0  0  0  0  0  0  0
  -20.6193  -30.3111   22.2552 C   0  0  1  0  0  0  0  0  0  0  0  0
  -28.7813  -28.5898   17.1750 C   0  0  1  0  0  0  0  0  0  1  0  0
  -23.9235  -28.4425   22.4080 C   0  0  1  0  0  0  0  0  0  0  0  0
  -29.6223  -22.4598   22.8103 C   0  0  2  0  0  0  0  0  0  0  0  0
  -33.7972  -24.9883   14.5834 C   0  0  0  0  0  0  0  0  0  0  0  0
  -30.6680  -29.8555   25.4502 C   0  0  0  0  0  0  0  0  0  0  0  0
  -34.0986  -21.5862   15.5027 C   0  0  0  0  0  0  0  0  0  0  0  0
  -24.8196  -32.6164   24.9926 C   0  0  0  0  0  0  0  0  0  0  0  0
  -27.2914  -32.8372   25.3234 C   0  0  0  0  0  0  0  0  0  0  0  0
  -26.0149  -31.1083   26.5899 C   0  0  0  0  0  0  0  0  0  0  0  0
  -30.4017  -28.9299   21.7694 C   0  0  0  0  0  0  0  0  0  0  0  0
  -31.6493  -26.7545   15.4642 C   0  0  0  0  0  0  0  0  0  0  0  0
  -26.4159  -30.7870   24.1145 C   0  0  1  0  0  0  0  0  0  0  0  0
  -29.9556  -29.4318   24.1752 C   0  0  2  0  0  0  0  0  0  0  0  0
  -34.6304  -22.7796   16.2912 C   0  0  0  0  0  0  0  0  0  0  0  0
  -26.1248  -31.8307   25.2295 C   0  0  0  0  0  0  0  0  0  0  0  0
  -29.0515  -20.0934   22.4159 N   0  0  0  0  0  0  0  0  0  0  0  0
  -29.7272  -20.9868   23.1584 N   0  0  0  0  0  0  0  0  0  0  0  0
  -30.8285  -27.6958   16.2074 N   0  0  0  0  0  0  0  0  0  0  0  0
  -25.1106  -29.2586   22.6710 N   0  0  0  0  0  0  0  0  0  0  0  0
  -29.3540  -24.1244   21.0137 N   0  0  0  0  0  0  0  0  0  0  0  0
  -31.1879  -21.1821   25.0129 N   0  0  0  0  0  0  0  0  0  0  0  0
  -30.4632  -16.7340   24.7214 N   0  0  0  0  0  0  0  0  0  0  0  0
  -31.2492  -24.1169   19.6100 N   0  0  0  0  0  0  0  0  0  0  0  0
  -21.7463  -29.4786   22.6174 N   0  0  0  0  0  0  0  0  0  0  0  0
  -27.6319  -30.0093   24.3267 N   0  0  0  0  0  0  0  0  0  0  0  0
  -30.9609  -29.3578   23.0775 N   0  3  0  0  0  0  0  0  0  0  0  0
  -28.8018  -26.6249   15.7762 O   0  0  0  0  0  0  0  0  0  0  0  0
  -31.5460  -18.3703   25.9084 O   0  0  0  0  0  0  0  0  0  0  0  0
  -23.0874  -29.9180   20.7652 O   0  0  0  0  0  0  0  0  0  0  0  0
  -24.6173  -29.4789   24.9391 O   0  0  0  0  0  0  0  0  0  0  0  0
  -29.0437  -31.4161   23.1415 O   0  0  0  0  0  0  0  0  0  0  0  0
  -30.0602  -26.0724   19.9888 O   0  0  0  0  0  0  0  0  0  0  0  0
  -27.2597  -14.1590   20.9601 O   0  0  0  0  0  0  0  0  0  0  0  0
  -27.3795  -28.5266   16.9816 O   0  0  0  0  0  0  0  0  0  1  0  0
  -30.6309  -10.9129   18.0444 F   0  0  0  0  0  0  0  0  0  0  0  0
  -26.6923  -13.5226   18.3303 F   0  0  0  0  0  0  0  0  0  0  0  0
  -35.3444  -22.2780   17.3484 F   0  0  0  0  0  0  0  0  0  0  0  0
  -35.5707  -23.3947   15.5058 F   0  0  0  0  0  0  0  0  0  0  0  0
  1  2  1  0  0  0  0
  1  5  2  0  0  0  0
  2  6  2  0  0  0  0
  3  8  2  0  0  0  0
  3 17  1  0  0  0  0
  4  9  1  0  0  0  0
  4 17  2  0  0  0  0
  5 19  1  0  0  0  0
  6 21  1  0  0  0  0
  7 10  2  0  0  0  0
  7 20  1  0  0  0  0
  8 27  1  0  0  0  0
  9 27  2  0  0  0  0
 10 28  1  0  0  0  0
 11 12  2  0  0  0  0
 11 29  1  0  0  0  0
 12 30  1  0  0  0  0
 13 22  1  0  0  0  0
 13 28  2  0  0  0  0
 14 23  1  0  0  0  0
 14 26  2  0  0  0  0
 15 24  2  0  0  0  0
 15 26  1  0  0  0  0
 16 30  2  0  0  0  0
 16 31  1  0  0  0  0
 17 32  1  0  0  0  0
 18 32  1  0  0  0  0
 18 33  2  0  0  0  0
 18 35  1  0  0  0  0
 19 21  2  0  0  0  0
 19 40  1  0  0  0  0
 20 22  2  0  0  0  0
 20 41  1  0  0  0  0
 21 52  1  0  0  0  0
 22 42  1  0  0  0  0
 23 25  2  0  0  0  0
 23 63  1  0  0  0  0
 24 25  1  0  0  0  0
 24 66  1  0  0  0  0
 25 56  1  0  0  0  0
 26 75  1  0  0  0  0
 27 85  1  0  0  0  0
 28 86  1  0  0  0  0
 29 31  2  0  0  0  0
 29 85  1  0  0  0  0
 30 87  1  0  0  0  0
 31 88  1  0  0  0  0
 32 68  2  0  0  0  0
 33 69  1  0  0  0  0
 33 73  1  0  0  0  0
 34 53  1  0  0  0  0
 34 70  1  0  0  0  0
 34 79  2  0  0  0  0
 35 74  1  0  0  0  0
 35 80  2  0  0  0  0
 36 54  1  0  0  0  0
 36 76  1  0  0  0  0
 36 81  2  0  0  0  0
 37 64  1  0  0  0  0
 37 71  1  0  0  0  0
 37 82  2  0  0  0  0
 38 65  1  0  0  0  0
 38 77  1  0  0  0  0
 38 83  2  0  0  0  0
 39 72  1  0  0  0  0
 39 75  1  0  0  0  0
 39 84  2  0  0  0  0
 40 43  1  0  0  0  0
 41 54  1  0  0  0  0
 42 71  1  0  0  0  0
 43 46  1  0  0  0  0
 44 47  1  0  0  0  0
 44 49  1  0  0  0  0
 45 48  1  0  0  0  0
 45 50  1  0  0  0  0
 46 52  1  0  0  0  0
 47 53  1  0  0  0  0
 48 55  1  0  0  0  0
 49 70  1  0  0  0  0
 50 72  1  0  0  0  0
 51 55  1  0  0  0  0
 51 72  1  0  0  0  0
 52 76  1  0  0  0  0
 53 86  1  0  0  0  0
 54 71  1  0  0  0  0
 55 69  1  0  0  0  0
 57 65  1  0  0  0  0
 58 66  1  0  0  0  0
 59 67  1  0  0  0  0
 60 67  1  0  0  0  0
 61 67  1  0  0  0  0
 62 78  1  0  0  0  0
 63 70  1  0  0  0  0
 64 67  1  0  0  0  0
 64 77  1  0  0  0  0
 65 78  1  0  0  0  0
 66 89  1  0  0  0  0
 66 90  1  0  0  0  0
 68 69  1  0  0  0  0
M  CHG  1  78   1
M  ISO  4  39 100  53 101  75 100  86 101
M  END
> <Batch ID>
0038

> <Smiles>
CNC(C)C(=O)NC(C(=O)N1Cc2cc([101O:1][101CH:1]3CCCN(Cc4cc([100NH:0][100C:0](=O)N5CCCC(n6nc(-c7ccc(Oc8ccc(F)cc8F)cc7)c(C(N)=O)c6N)C5)cc(C(C)(F)F)c4C)C3=O)ccc2CC1C(=O)NC1CCCc2ccccc21)C(C)(C)C

> <Shape>
0.247

> <Color>
0.073

> <Negative vol penalty>
0.000

$$$$

  -OEChem-04042322003D

 89 98  0     1  0  0  0  0  0999 V2000
  -24.9132  -38.3647   26.1483 C   0  0  0  0  0  0  0  0  0  0  0  0
  -24.0724  -37.2689   25.9898 C   0  0  0  0  0  0  0  0  0  0  0  0
  -22.9076  -11.0423   22.6522 C   0  0  0  0  0  0  0  0  0  0  0  0
  -24.6223   -9.5138   21.9037 C   0  0  0  0  0  0  0  0  0  0  0  0
  -26.1088  -38.4297   25.4359 C   0  0  0  0  0  0  0  0  0  0  0  0
  -24.4324  -36.2323   25.1280 C   0  0  0  0  0  0  0  0  0  0  0  0
  -23.7518  -29.3353   21.2304 C   0  0  0  0  0  0  0  0  0  0  0  0
  -22.3791  -10.0470   23.4742 C   0  0  0  0  0  0  0  0  0  0  0  0
  -24.0939   -8.5184   22.7257 C   0  0  0  0  0  0  0  0  0  0  0  0
  -24.2311  -28.6279   20.1288 C   0  0  0  0  0  0  0  0  0  0  0  0
  -21.5014   -6.3492   22.6599 C   0  0  0  0  0  0  0  0  0  0  0  0
  -21.3554   -5.0718   22.1191 C   0  0  0  0  0  0  0  0  0  0  0  0
  -26.4855  -28.8984   20.9437 C   0  0  0  0  0  0  0  0  0  0  0  0
  -26.0394  -21.1013   19.4766 C   0  0  0  0  0  0  0  0  0  0  0  0
  -28.4730  -20.0518   20.3474 C   0  0  0  0  0  0  0  0  0  0  0  0
  -22.8339   -4.1860   23.8121 C   0  0  0  0  0  0  0  0  0  0  0  0
  -24.0292  -10.7757   21.8669 C   0  0  0  0  0  0  0  0  0  0  0  0
  -23.9220  -12.4718   19.9645 C   0  0  0  0  0  0  0  0  0  0  0  0
  -26.4770  -37.3989   24.5557 C   0  0  0  0  0  0  0  0  0  0  0  0
  -24.6380  -29.8399   22.1929 C   0  0  0  0  0  0  0  0  0  0  0  0
  -25.6463  -36.2682   24.4183 C   0  0  0  0  0  0  0  0  0  0  0  0
  -26.0146  -29.6097   22.0579 C   0  0  0  0  0  0  0  0  0  0  0  0
  -27.0422  -21.9547   19.9365 C   0  0  0  0  0  0  0  0  0  0  0  0
  -26.2533  -19.7231   19.4521 C   0  0  0  0  0  0  0  0  0  0  0  0
  -28.2591  -21.4300   20.3719 C   0  0  0  0  0  0  0  0  0  0  0  0
  -27.4701  -19.1984   19.8875 C   0  0  0  0  0  0  0  0  0  0  0  0
  -22.9723   -8.7851   23.5110 C   0  0  0  0  0  0  0  0  0  0  0  0
  -25.5984  -28.4118   19.9838 C   0  0  0  0  0  0  0  0  0  0  0  0
  -22.3137   -6.5450   23.7769 C   0  0  0  0  0  0  0  0  0  0  0  0
  -22.0216   -3.9902   22.6952 C   0  0  0  0  0  0  0  0  0  0  0  0
  -22.9800   -5.4634   24.3530 C   0  0  0  0  0  0  0  0  0  0  0  0
  -24.5752  -11.8032   21.0171 C   0  0  0  0  0  0  0  0  0  0  0  0
  -24.8624  -13.3464   19.4772 C   0  0  0  0  0  0  0  0  0  0  0  0
  -26.1308  -25.3140   18.5657 C   0  0  0  0  0  0  0  0  0  0  0  0
  -24.9224  -25.3122   17.9791 C   0  0  0  0  0  0  0  0  0  0  0  0
  -22.5848  -12.3164   19.4712 C   0  0  0  0  0  0  0  0  0  0  0  0
  -25.3874  -32.7427   23.2493 C   0  0  0  0  0  0  0  0  0  0  0  0
  -27.1556  -31.0783   25.4000 C   0  0  0  0  0  0  0  0  0  0  0  0
  -29.3082  -28.1831   25.3615 C   0  0  0  0  0  0  0  0  0  0  0  0
  -28.8643  -17.1355   20.2712 C   0  0  0  0  0  0  0  0  0  0  0  0
  -27.7860  -37.5168   23.8155 C   0  0  0  0  0  0  0  0  0  0  0  0
  -24.1028  -30.5779   23.3892 C   0  0  0  0  0  0  0  0  0  0  0  0
  -27.0061  -30.1130   23.0738 C   0  0  0  0  0  0  0  0  0  0  0  0
  -27.8687  -36.5948   22.6034 C   0  0  0  0  0  0  0  0  0  0  0  0
  -29.8228  -13.7096   20.4174 C   0  0  0  0  0  0  0  0  0  0  0  0
  -28.9932  -25.3732   18.7176 C   0  0  0  0  0  0  0  0  0  0  0  0
  -27.4631  -35.1821   22.9963 C   0  0  0  0  0  0  0  0  0  0  0  0
  -28.2154  -26.6814   18.6265 C   0  0  0  0  0  0  0  0  0  0  0  0
  -28.4893  -12.9632   20.4999 C   0  0  0  0  0  0  0  0  0  0  0  0
  -29.7871  -15.0225   21.1977 C   0  0  0  0  0  0  0  0  0  0  0  0
  -27.3420  -15.1722   20.9371 C   0  0  0  0  0  0  0  0  0  0  0  0
  -28.2446  -24.2316   18.0376 C   0  0  0  0  0  0  0  0  0  0  0  0
  -26.0026  -35.1432   23.4634 C   0  0  1  0  0  0  0  0  0  0  0  0
  -26.7973  -26.5275   19.1741 C   0  0  1  0  0  0  0  0  0  1  0  0
  -25.1376  -31.4901   24.0407 C   0  0  1  0  0  0  0  0  0  0  0  0
  -27.3084  -13.8749   20.1127 C   0  0  2  0  0  0  0  0  0  0  0  0
  -25.1614  -18.8326   18.9543 C   0  0  0  0  0  0  0  0  0  0  0  0
  -29.3473  -22.3241   20.8686 C   0  0  0  0  0  0  0  0  0  0  0  0
  -22.9213  -24.4142   16.7974 C   0  0  0  0  0  0  0  0  0  0  0  0
  -29.8802  -26.5510   27.1798 C   0  0  0  0  0  0  0  0  0  0  0  0
  -29.5617  -32.8938   25.8743 C   0  0  0  0  0  0  0  0  0  0  0  0
  -30.9337  -30.8451   26.3090 C   0  0  0  0  0  0  0  0  0  0  0  0
  -28.9993  -31.3857   27.7884 C   0  0  0  0  0  0  0  0  0  0  0  0
  -28.4514  -25.8751   23.7189 C   0  0  0  0  0  0  0  0  0  0  0  0
  -26.7891  -23.4334   19.9539 C   0  0  0  0  0  0  0  0  0  0  0  0
  -24.2871  -24.0950   17.3849 C   0  0  0  0  0  0  0  0  0  0  0  0
  -28.5691  -30.5500   25.4414 C   0  0  1  0  0  0  0  0  0  0  0  0
  -29.0103  -26.8211   25.9620 C   0  0  2  0  0  0  0  0  0  0  0  0
  -29.5019  -31.4217   26.3287 C   0  0  0  0  0  0  0  0  0  0  0  0
  -25.8334  -12.2174   21.1890 N   0  0  0  0  0  0  0  0  0  0  0  0
  -25.9783  -13.1556   20.2378 N   0  0  0  0  0  0  0  0  0  0  0  0
  -26.4342  -30.8344   24.2228 N   0  0  0  0  0  0  0  0  0  0  0  0
  -28.6450  -15.8359   20.7747 N   0  0  0  0  0  0  0  0  0  0  0  0
  -24.8354  -14.2522   18.4766 N   0  0  0  0  0  0  0  0  0  0  0  0
  -21.7511  -11.3728   20.0868 N   0  0  0  0  0  0  0  0  0  0  0  0
  -27.7065  -17.8014   19.8702 N   0  0  0  0  0  0  0  0  0  0  0  0
  -25.7200  -33.8392   24.0216 N   0  0  0  0  0  0  0  0  0  0  0  0
  -28.4721  -29.1572   25.8648 N   0  0  0  0  0  0  0  0  0  0  0  0
  -26.8474  -24.0574   18.5867 N   0  3  1  0  0  0  0  0  0  0  0  0
  -29.2591  -25.7472   24.9592 N   0  3  0  0  0  0  0  0  0  0  0  0
  -22.1476  -12.9825   18.5024 O   0  0  0  0  0  0  0  0  0  0  0  0
  -25.2872  -32.7159   22.0282 O   0  0  0  0  0  0  0  0  0  0  0  0
  -26.7056  -31.6790   26.3790 O   0  0  0  0  0  0  0  0  0  0  0  0
  -30.1965  -28.3655   24.5318 O   0  0  0  0  0  0  0  0  0  0  0  0
  -29.9984  -17.6116   20.1754 O   0  0  0  0  0  0  0  0  0  0  0  0
  -22.4570   -7.8137   24.3131 O   0  0  0  0  0  0  0  0  0  0  0  0
  -26.0690  -27.7222   18.9092 O   0  0  0  0  0  0  0  0  0  1  0  0
  -21.8801   -2.7633   22.1766 F   0  0  0  0  0  0  0  0  0  0  0  0
  -23.7608   -5.6451   25.4268 F   0  0  0  0  0  0  0  0  0  0  0  0
  1  2  1  0  0  0  0
  1  5  2  0  0  0  0
  2  6  2  0  0  0  0
  3  8  2  0  0  0  0
  3 17  1  0  0  0  0
  4  9  1  0  0  0  0
  4 17  2  0  0  0  0
  5 19  1  0  0  0  0
  6 21  1  0  0  0  0
  7 10  2  0  0  0  0
  7 20  1  0  0  0  0
  8 27  1  0  0  0  0
  9 27  2  0  0  0  0
 10 28  1  0  0  0  0
 11 12  2  0  0  0  0
 11 29  1  0  0  0  0
 12 30  1  0  0  0  0
 13 22  1  0  0  0  0
 13 28  2  0  0  0  0
 14 23  1  0  0  0  0
 14 24  2  0  0  0  0
 15 25  1  0  0  0  0
 15 26  2  0  0  0  0
 16 30  2  0  0  0  0
 16 31  1  0  0  0  0
 17 32  1  0  0  0  0
 18 32  1  0  0  0  0
 18 33  2  0  0  0  0
 18 36  1  0  0  0  0
 19 21  2  0  0  0  0
 19 41  1  0  0  0  0
 20 22  2  0  0  0  0
 20 42  1  0  0  0  0
 21 53  1  0  0  0  0
 22 43  1  0  0  0  0
 23 25  2  0  0  0  0
 23 65  1  0  0  0  0
 24 26  1  0  0  0  0
 24 57  1  0  0  0  0
 25 58  1  0  0  0  0
 26 76  1  0  0  0  0
 27 86  1  0  0  0  0
 28 87  1  0  0  0  0
 29 31  2  0  0  0  0
 29 86  1  0  0  0  0
 30 88  1  0  0  0  0
 31 89  1  0  0  0  0
 32 70  2  0  0  0  0
 33 71  1  0  0  0  0
 33 74  1  0  0  0  0
 34 35  2  0  0  0  0
 34 54  1  0  0  0  0
 34 79  1  0  0  0  0
 35 66  1  0  0  0  0
 36 75  1  0  0  0  0
 36 81  2  0  0  0  0
 37 55  1  0  0  0  0
 37 77  1  0  0  0  0
 37 82  2  0  0  0  0
 38 67  1  0  0  0  0
 38 72  1  0  0  0  0
 38 83  2  0  0  0  0
 39 68  1  0  0  0  0
 39 78  1  0  0  0  0
 39 84  2  0  0  0  0
 40 73  1  0  0  0  0
 40 76  1  0  0  0  0
 40 85  2  0  0  0  0
 41 44  1  0  0  0  0
 42 55  1  0  0  0  0
 43 72  1  0  0  0  0
 44 47  1  0  0  0  0
 45 49  1  0  0  0  0
 45 50  1  0  0  0  0
 46 48  1  0  0  0  0
 46 52  1  0  0  0  0
 47 53  1  0  0  0  0
 48 54  1  0  0  0  0
 49 56  1  0  0  0  0
 50 73  1  0  0  0  0
 51 56  1  0  0  0  0
 51 73  1  0  0  0  0
 52 79  1  0  0  0  0
 53 77  1  0  0  0  0
 54 87  1  0  0  0  0
 55 72  1  0  0  0  0
 56 71  1  0  0  0  0
 59 66  1  0  0  0  0
 60 68  1  0  0  0  0
 61 69  1  0  0  0  0
 62 69  1  0  0  0  0
 63 69  1  0  0  0  0
 64 80  1  0  0  0  0
 65 79  1  0  0  0  0
 67 69  1  0  0  0  0
 67 78  1  0  0  0  0
 68 80  1  0  0  0  0
 70 71  1  0  0  0  0
M  CHG  2  79   1  80   1
M  ISO  4  40 100  54 101  76 100  87 101
M  END
> <Batch ID>
0038

> <Smiles>
CCC=C1N(Cc2cc(C)c([100NH:0][100C:0](=O)N3CCCC(n4nc(-c5ccc(Oc6ccc(F)cc6F)cc5)c(C(N)=O)c4N)C3)cc2C)CCC[101CH:1]1[101O:1]c1ccc2c(c1)CN(C(=O)C(NC(=O)C(C)NC)C(C)(C)C)C(C(=O)NC1CCCc3ccccc31)C2

> <Shape>
0.329

> <Color>
0.080

> <Negative vol penalty>
0.000

$$$$

  -OEChem-04042322003D

 85 93  0     1  0  0  0  0  0999 V2000
  -24.8536  -24.0544   22.6912 C   0  0  0  0  0  0  0  0  0  0  0  0
  -24.9800  -23.0736   21.7127 C   0  0  0  0  0  0  0  0  0  0  0  0
  -26.0973  -27.7517   18.9095 C   0  0  0  0  0  0  0  0  0  0  0  0
  -26.3922  -27.6398   21.3048 C   0  0  0  0  0  0  0  0  0  0  0  0
  -25.0458  -23.7278   24.0329 C   0  0  0  0  0  0  0  0  0  0  0  0
  -25.2997  -21.7657   22.0753 C   0  0  0  0  0  0  0  0  0  0  0  0
  -24.0999  -14.9789   20.1218 C   0  0  0  0  0  0  0  0  0  0  0  0
  -25.0189  -28.6192   19.0827 C   0  0  0  0  0  0  0  0  0  0  0  0
  -25.3138  -28.5074   21.4780 C   0  0  0  0  0  0  0  0  0  0  0  0
  -24.7916  -13.8070   19.8188 C   0  0  0  0  0  0  0  0  0  0  0  0
  -22.8652  -30.9775   22.5369 C   0  0  0  0  0  0  0  0  0  0  0  0
  -23.0126  -32.0226   23.4488 C   0  0  0  0  0  0  0  0  0  0  0  0
  -25.0229  -13.3416   22.1744 C   0  0  0  0  0  0  0  0  0  0  0  0
  -31.9954  -14.4675   20.2852 C   0  0  0  0  0  0  0  0  0  0  0  0
  -30.5135  -15.5501   21.8565 C   0  0  0  0  0  0  0  0  0  0  0  0
  -24.8762  -32.8758   22.1697 C   0  0  0  0  0  0  0  0  0  0  0  0
  -26.7839  -27.2619   20.0205 C   0  0  0  0  0  0  0  0  0  0  0  0
  -29.2534  -26.7131   19.6918 C   0  0  0  0  0  0  0  0  0  0  0  0
  -25.3585  -22.4131   24.4130 C   0  0  0  0  0  0  0  0  0  0  0  0
  -23.8736  -15.3472   21.4558 C   0  0  0  0  0  0  0  0  0  0  0  0
  -25.4975  -21.4214   23.4233 C   0  0  0  0  0  0  0  0  0  0  0  0
  -24.3258  -14.5174   22.4917 C   0  0  0  0  0  0  0  0  0  0  0  0
  -30.9553  -14.3948   21.2117 C   0  0  0  0  0  0  0  0  0  0  0  0
  -32.5939  -15.6956   20.0036 C   0  0  0  0  0  0  0  0  0  0  0  0
  -31.1120  -16.7782   21.5748 C   0  0  0  0  0  0  0  0  0  0  0  0
  -32.1522  -16.8509   20.6483 C   0  0  0  0  0  0  0  0  0  0  0  0
  -24.6272  -28.9971   20.3670 C   0  0  0  0  0  0  0  0  0  0  0  0
  -25.2558  -12.9896   20.8452 C   0  0  0  0  0  0  0  0  0  0  0  0
  -23.7233  -30.8815   21.4413 C   0  0  0  0  0  0  0  0  0  0  0  0
  -24.0181  -32.9717   23.2652 C   0  0  0  0  0  0  0  0  0  0  0  0
  -24.7288  -31.8307   21.2577 C   0  0  0  0  0  0  0  0  0  0  0  0
  -27.8976  -26.3652   19.8422 C   0  0  0  0  0  0  0  0  0  0  0  0
  -29.9034  -25.5107   19.5565 C   0  0  0  0  0  0  0  0  0  0  0  0
  -29.8701  -28.0073   19.6759 C   0  0  0  0  0  0  0  0  0  0  0  0
  -24.7166  -17.8129   23.2761 C   0  0  0  0  0  0  0  0  0  0  0  0
  -22.7548  -16.3909   25.4329 C   0  0  0  0  0  0  0  0  0  0  0  0
  -21.2443  -13.5355   26.5337 C   0  0  0  0  0  0  0  0  0  0  0  0
  -29.6983  -20.2069   21.6154 C   0  0  0  0  0  0  0  0  0  0  0  0
  -25.6035  -22.1180   25.8716 C   0  0  0  0  0  0  0  0  0  0  0  0
  -23.1024  -16.6008   21.7656 C   0  0  0  0  0  0  0  0  0  0  0  0
  -24.0911  -14.8575   23.9400 C   0  0  0  0  0  0  0  0  0  0  0  0
  -25.5712  -20.6288   26.2056 C   0  0  0  0  0  0  0  0  0  0  0  0
  -28.5381  -20.9364   18.2660 C   0  0  0  0  0  0  0  0  0  0  0  0
  -26.3928  -19.8368   25.1934 C   0  0  0  0  0  0  0  0  0  0  0  0
  -28.3872  -22.4577   18.3209 C   0  0  0  0  0  0  0  0  0  0  0  0
  -28.1270  -20.2921   19.5865 C   0  0  0  0  0  0  0  0  0  0  0  0
  -28.7000  -22.3373   20.8364 C   0  0  0  0  0  0  0  0  0  0  0  0
  -25.8188  -19.9861   23.7793 C   0  0  1  0  0  0  0  0  0  0  0  0
  -23.3772  -17.1408   23.1658 C   0  0  1  0  0  0  0  0  0  0  0  0
  -29.1214  -23.0500   19.5385 C   0  0  2  0  0  0  0  0  0  0  0  0
  -33.7052  -15.7465   19.0065 C   0  0  0  0  0  0  0  0  0  0  0  0
  -32.7938  -18.1676   20.3458 C   0  0  0  0  0  0  0  0  0  0  0  0
  -19.7298  -12.6795   28.3423 C   0  0  0  0  0  0  0  0  0  0  0  0
  -25.0736  -16.4812   27.4140 C   0  0  0  0  0  0  0  0  0  0  0  0
  -23.8493  -14.8071   28.8164 C   0  0  0  0  0  0  0  0  0  0  0  0
  -22.8432  -17.0499   28.3919 C   0  0  0  0  0  0  0  0  0  0  0  0
  -19.1900  -12.6950   24.5761 C   0  0  0  0  0  0  0  0  0  0  0  0
  -30.6204  -18.0008   22.2787 C   0  0  0  0  0  0  0  0  0  0  0  0
  -30.3120  -13.0738   21.5152 C   0  0  0  0  0  0  0  0  0  0  0  0
  -27.8771  -10.8885   19.5259 C   0  0  0  0  0  0  0  0  0  0  0  0
  -28.7990  -11.2736   20.6731 C   0  0  0  0  0  0  0  0  0  0  0  0
  -26.6946  -11.8325   19.3462 C   0  0  0  0  0  0  0  0  0  1  0  0
  -22.9300  -15.3555   26.5175 C   0  0  1  0  0  0  0  0  0  0  0  0
  -19.8088  -13.2448   26.9327 C   0  0  2  0  0  0  0  0  0  0  0  0
  -23.6803  -15.9178   27.7578 C   0  0  0  0  0  0  0  0  0  0  0  0
  -27.6968  -25.0453   19.8058 N   0  0  0  0  0  0  0  0  0  0  0  0
  -28.9351  -24.5531   19.6309 N   0  0  0  0  0  0  0  0  0  0  0  0
  -23.3375  -16.0969   24.1919 N   0  0  0  0  0  0  0  0  0  0  0  0
  -28.8756  -20.8874   20.7025 N   0  0  0  0  0  0  0  0  0  0  0  0
  -31.2030  -25.1897   19.3822 N   0  0  0  0  0  0  0  0  0  0  0  0
  -29.0555  -29.1376   19.8282 N   0  0  0  0  0  0  0  0  0  0  0  0
  -24.6485  -19.1500   23.6180 N   0  0  0  0  0  0  0  0  0  0  0  0
  -21.5967  -14.8399   26.8087 N   0  0  0  0  0  0  0  0  0  0  0  0
  -29.8058  -18.8349   21.4234 N   0  0  0  0  0  0  0  0  0  0  0  0
  -19.2005  -12.2582   25.9960 N   0  3  0  0  0  0  0  0  0  0  0  0
  -29.4020  -12.6057   20.4334 N   0  3  0  0  0  0  0  0  0  0  0  0
  -31.1050  -28.1578   19.5144 O   0  0  0  0  0  0  0  0  0  0  0  0
  -25.7362  -17.1659   23.0679 O   0  0  0  0  0  0  0  0  0  0  0  0
  -22.1181  -17.4191   25.6755 O   0  0  0  0  0  0  0  0  0  0  0  0
  -21.9807  -12.6890   26.0320 O   0  0  0  0  0  0  0  0  0  0  0  0
  -30.2975  -20.7805   22.5314 O   0  0  0  0  0  0  0  0  0  0  0  0
  -23.5751  -29.8438   20.5364 O   0  0  0  0  0  0  0  0  0  0  0  0
  -25.9319  -11.8455   20.5522 O   0  0  0  0  0  0  0  0  0  1  0  0
  -24.1587  -33.9761   24.1402 F   0  0  0  0  0  0  0  0  0  0  0  0
  -25.5554  -31.7444   20.2065 F   0  0  0  0  0  0  0  0  0  0  0  0
  1  2  1  0  0  0  0
  1  5  2  0  0  0  0
  2  6  2  0  0  0  0
  3  8  2  0  0  0  0
  3 17  1  0  0  0  0
  4  9  1  0  0  0  0
  4 17  2  0  0  0  0
  5 19  1  0  0  0  0
  6 21  1  0  0  0  0
  7 10  2  0  0  0  0
  7 20  1  0  0  0  0
  8 27  1  0  0  0  0
  9 27  2  0  0  0  0
 10 28  1  0  0  0  0
 11 12  2  0  0  0  0
 11 29  1  0  0  0  0
 12 30  1  0  0  0  0
 13 22  1  0  0  0  0
 13 28  2  0  0  0  0
 14 23  1  0  0  0  0
 14 24  2  0  0  0  0
 15 23  2  0  0  0  0
 15 25  1  0  0  0  0
 16 30  2  0  0  0  0
 16 31  1  0  0  0  0
 17 32  1  0  0  0  0
 18 32  1  0  0  0  0
 18 33  2  0  0  0  0
 18 34  1  0  0  0  0
 19 21  2  0  0  0  0
 19 39  1  0  0  0  0
 20 22  2  0  0  0  0
 20 40  1  0  0  0  0
 21 48  1  0  0  0  0
 22 41  1  0  0  0  0
 23 59  1  0  0  0  0
 24 26  1  0  0  0  0
 24 51  1  0  0  0  0
 25 26  2  0  0  0  0
 25 58  1  0  0  0  0
 26 52  1  0  0  0  0
 27 82  1  0  0  0  0
 28 83  1  0  0  0  0
 29 31  2  0  0  0  0
 29 82  1  0  0  0  0
 30 84  1  0  0  0  0
 31 85  1  0  0  0  0
 32 66  2  0  0  0  0
 33 67  1  0  0  0  0
 33 70  1  0  0  0  0
 34 71  1  0  0  0  0
 34 77  2  0  0  0  0
 35 49  1  0  0  0  0
 35 72  1  0  0  0  0
 35 78  2  0  0  0  0
 36 63  1  0  0  0  0
 36 68  1  0  0  0  0
 36 79  2  0  0  0  0
 37 64  1  0  0  0  0
 37 73  1  0  0  0  0
 37 80  2  0  0  0  0
 38 69  1  0  0  0  0
 38 74  1  0  0  0  0
 38 81  2  0  0  0  0
 39 42  1  0  0  0  0
 40 49  1  0  0  0  0
 41 68  1  0  0  0  0
 42 44  1  0  0  0  0
 43 45  1  0  0  0  0
 43 46  1  0  0  0  0
 44 48  1  0  0  0  0
 45 50  1  0  0  0  0
 46 69  1  0  0  0  0
 47 50  1  0  0  0  0
 47 69  1  0  0  0  0
 48 72  1  0  0  0  0
 49 68  1  0  0  0  0
 50 67  1  0  0  0  0
 53 64  1  0  0  0  0
 54 65  1  0  0  0  0
 55 65  1  0  0  0  0
 56 65  1  0  0  0  0
 57 75  1  0  0  0  0
 58 74  1  0  0  0  0
 59 76  1  0  0  0  0
 60 61  1  0  0  0  0
 60 62  1  0  0  0  0
 61 76  1  0  0  0  0
 62 83  1  0  0  0  0
 63 65  1  0  0  0  0
 63 73  1  0  0  0  0
 64 75  1  0  0  0  0
 66 67  1  0  0  0  0
M  CHG  2  75   1  76   1
M  ISO  4  38 100  62 101  74 100  83 101
M  END
> <Batch ID>
0038

> <Smiles>
CNC(C)C(=O)NC(C(=O)N1Cc2cc([101O:1][101CH2:1]CCNCc3cc(C)c(C)c(C[100NH:0][100C:0](=O)N4CCCC(n5nc(-c6ccc(Oc7ccc(F)cc7F)cc6)c(C(N)=O)c5N)C4)c3)ccc2CC1C(=O)NC1CCCc2ccccc21)C(C)(C)C

> <Shape>
0.220

> <Color>
0.052

> <Negative vol penalty>
0.000

$$$$

  -OEChem-04042322003D

 85 94  0     1  0  0  0  0  0999 V2000
  -16.8956  -29.7778   20.6596 C   0  0  0  0  0  0  0  0  0  0  0  0
  -17.9890  -30.6378   20.6670 C   0  0  0  0  0  0  0  0  0  0  0  0
  -32.5283  -22.7799   15.5009 C   0  0  0  0  0  0  0  0  0  0  0  0
  -23.4393  -13.3805   22.0679 C   0  0  0  0  0  0  0  0  0  0  0  0
  -22.6351  -14.8707   20.3446 C   0  0  0  0  0  0  0  0  0  0  0  0
  -16.9497  -28.5772   21.3664 C   0  0  0  0  0  0  0  0  0  0  0  0
  -19.1370  -30.2982   21.3821 C   0  0  0  0  0  0  0  0  0  0  0  0
  -26.5342  -29.6536   18.9547 C   0  0  0  0  0  0  0  0  0  0  0  0
  -31.4972  -21.8435   15.4261 C   0  0  0  0  0  0  0  0  0  0  0  0
  -32.4944  -23.7785   16.4742 C   0  0  0  0  0  0  0  0  0  0  0  0
  -22.1597  -13.3292   22.6207 C   0  0  0  0  0  0  0  0  0  0  0  0
  -21.3555  -14.8193   20.8973 C   0  0  0  0  0  0  0  0  0  0  0  0
  -27.8527  -29.3541   18.6111 C   0  0  0  0  0  0  0  0  0  0  0  0
  -17.7973  -14.7945   21.6437 C   0  0  0  0  0  0  0  0  0  0  0  0
  -16.7206  -14.6238   20.7736 C   0  0  0  0  0  0  0  0  0  0  0  0
  -27.9985  -27.8141   20.4700 C   0  0  0  0  0  0  0  0  0  0  0  0
  -17.6511  -12.5201   20.0349 C   0  0  0  0  0  0  0  0  0  0  0  0
  -23.6770  -14.1513   20.9299 C   0  0  0  0  0  0  0  0  0  0  0  0
  -25.7540  -13.1268   19.8602 C   0  0  0  0  0  0  0  0  0  0  0  0
  -18.1024  -28.2182   22.0827 C   0  0  0  0  0  0  0  0  0  0  0  0
  -25.9371  -29.0223   20.0494 C   0  0  0  0  0  0  0  0  0  0  0  0
  -19.2060  -29.0923   22.1002 C   0  0  0  0  0  0  0  0  0  0  0  0
  -26.6741  -28.1009   20.8115 C   0  0  0  0  0  0  0  0  0  0  0  0
  -30.4321  -21.9057   16.3245 C   0  0  0  0  0  0  0  0  0  0  0  0
  -30.3980  -22.9044   17.2978 C   0  0  0  0  0  0  0  0  0  0  0  0
  -31.4292  -23.8407   17.3726 C   0  0  0  0  0  0  0  0  0  0  0  0
  -21.1178  -14.0486   22.0354 C   0  0  0  0  0  0  0  0  0  0  0  0
  -28.5830  -28.4368   19.3671 C   0  0  0  0  0  0  0  0  0  0  0  0
  -18.8010  -13.8280   21.7094 C   0  0  0  0  0  0  0  0  0  0  0  0
  -16.6475  -13.4866   19.9692 C   0  0  0  0  0  0  0  0  0  0  0  0
  -18.7279  -12.6908   20.9050 C   0  0  0  0  0  0  0  0  0  0  0  0
  -24.9988  -14.2052   20.3588 C   0  0  0  0  0  0  0  0  0  0  0  0
  -26.9282  -13.6980   19.4340 C   0  0  0  0  0  0  0  0  0  0  0  0
  -25.4237  -11.7335   19.7887 C   0  0  0  0  0  0  0  0  0  0  0  0
  -22.8680  -28.6038   22.1663 C   0  0  0  0  0  0  0  0  0  0  0  0
  -24.0871  -25.8124   21.8028 C   0  0  0  0  0  0  0  0  0  0  0  0
  -25.5057  -22.8714   20.8154 C   0  0  0  0  0  0  0  0  0  0  0  0
  -28.2023  -19.1585   17.5861 C   0  0  0  0  0  0  0  0  0  0  0  0
  -18.0965  -26.9320   22.8702 C   0  0  0  0  0  0  0  0  0  0  0  0
  -24.5396  -29.3601   20.4928 C   0  0  0  0  0  0  0  0  0  0  0  0
  -26.0021  -27.4720   22.0013 C   0  0  0  0  0  0  0  0  0  0  0  0
  -19.4884  -26.4723   23.2962 C   0  0  0  0  0  0  0  0  0  0  0  0
  -29.8213  -17.4089   20.3092 C   0  0  0  0  0  0  0  0  0  0  0  0
  -32.1209  -25.6015   20.5833 C   0  0  0  0  0  0  0  0  0  0  0  0
  -20.2792  -27.6374   23.8827 C   0  0  0  0  0  0  0  0  0  0  0  0
  -28.8260  -16.2790   20.5793 C   0  0  0  0  0  0  0  0  0  0  0  0
  -31.5108  -26.9662   20.3014 C   0  0  0  0  0  0  0  0  0  0  0  0
  -32.5326  -24.8936   19.2946 C   0  0  0  0  0  0  0  0  0  0  0  0
  -29.1017  -18.7049   19.9479 C   0  0  0  0  0  0  0  0  0  0  0  0
  -27.1674  -17.4595   19.0642 C   0  0  0  0  0  0  0  0  0  0  0  0
  -30.7502  -26.1232   18.0453 C   0  0  0  0  0  0  0  0  0  0  0  0
  -20.4782  -28.7476   22.8438 C   0  0  1  0  0  0  0  0  0  0  0  0
  -23.7784  -28.1500   21.0633 C   0  0  1  0  0  0  0  0  0  0  0  0
  -27.8334  -16.1160   19.4129 C   0  0  2  0  0  0  0  0  0  0  0  0
  -30.3410  -26.8384   19.3337 C   0  0  2  0  0  0  0  0  0  1  0  0
  -29.2533  -22.9676   18.2597 C   0  0  0  0  0  0  0  0  0  0  0  0
  -25.2813  -20.3869   21.0879 C   0  0  0  0  0  0  0  0  0  0  0  0
  -25.3170  -26.0105   24.5871 C   0  0  0  0  0  0  0  0  0  0  0  0
  -25.9357  -23.5911   24.4085 C   0  0  0  0  0  0  0  0  0  0  0  0
  -23.5361  -24.2703   24.3543 C   0  0  0  0  0  0  0  0  0  0  0  0
  -25.0379  -22.4791   17.9194 C   0  0  0  0  0  0  0  0  0  0  0  0
  -29.3410  -20.8907   16.2223 C   0  0  0  0  0  0  0  0  0  0  0  0
  -25.0059  -24.7518   22.3544 C   0  0  1  0  0  0  0  0  0  0  0  0
  -24.8986  -21.5988   20.2528 C   0  0  2  0  0  0  0  0  0  0  0  0
  -24.9576  -24.6746   23.9065 C   0  0  0  0  0  0  0  0  0  0  0  0
  -25.6394  -15.3730   20.2593 N   0  0  0  0  0  0  0  0  0  0  0  0
  -26.8096  -15.0317   19.6934 N   0  0  0  0  0  0  0  0  0  0  0  0
  -31.4138  -24.8506   18.3428 N   0  0  1  0  0  0  0  0  0  0  0  0
  -24.6206  -27.0990   21.6591 N   0  0  0  0  0  0  0  0  0  0  0  0
  -28.1863  -18.4856   18.8192 N   0  0  0  0  0  0  0  0  0  0  0  0
  -28.0402  -13.1844   18.8664 N   0  0  0  0  0  0  0  0  0  0  0  0
  -24.7800  -11.2576   18.6382 N   0  0  0  0  0  0  0  0  0  0  0  0
  -21.5268  -28.3873   21.9137 N   0  0  0  0  0  0  0  0  0  0  0  0
  -24.6437  -23.5084   21.6827 N   0  0  0  0  0  0  0  0  0  0  0  0
  -29.1943  -20.1200   17.4370 N   0  0  0  0  0  0  0  0  0  0  0  0
  -25.3680  -21.3744   18.8562 N   0  3  0  0  0  0  0  0  0  0  0  0
  -25.6767  -10.9372   20.7243 O   0  0  0  0  0  0  0  0  0  0  0  0
  -23.3461  -29.1119   23.1738 O   0  0  0  0  0  0  0  0  0  0  0  0
  -22.9258  -25.5125   21.5118 O   0  0  0  0  0  0  0  0  0  0  0  0
  -26.6334  -23.2594   20.5182 O   0  0  0  0  0  0  0  0  0  0  0  0
  -27.3953  -18.9164   16.6822 O   0  0  0  0  0  0  0  0  0  0  0  0
  -19.8689  -13.9985   22.5743 O   0  0  0  0  0  0  0  0  0  0  0  0
  -29.8683  -28.1456   19.0234 O   0  0  0  0  0  0  0  0  0  1  0  0
  -15.6126  -13.3221   19.1348 F   0  0  0  0  0  0  0  0  0  0  0  0
  -19.6884  -11.7583   20.9645 F   0  0  0  0  0  0  0  0  0  0  0  0
  1  2  1  0  0  0  0
  1  6  2  0  0  0  0
  2  7  2  0  0  0  0
  3  9  1  0  0  0  0
  3 10  2  0  0  0  0
  4 11  2  0  0  0  0
  4 18  1  0  0  0  0
  5 12  1  0  0  0  0
  5 18  2  0  0  0  0
  6 20  1  0  0  0  0
  7 22  1  0  0  0  0
  8 13  2  0  0  0  0
  8 21  1  0  0  0  0
  9 24  2  0  0  0  0
 10 26  1  0  0  0  0
 11 27  1  0  0  0  0
 12 27  2  0  0  0  0
 13 28  1  0  0  0  0
 14 15  2  0  0  0  0
 14 29  1  0  0  0  0
 15 30  1  0  0  0  0
 16 23  1  0  0  0  0
 16 28  2  0  0  0  0
 17 30  2  0  0  0  0
 17 31  1  0  0  0  0
 18 32  1  0  0  0  0
 19 32  1  0  0  0  0
 19 33  2  0  0  0  0
 19 34  1  0  0  0  0
 20 22  2  0  0  0  0
 20 39  1  0  0  0  0
 21 23  2  0  0  0  0
 21 40  1  0  0  0  0
 22 52  1  0  0  0  0
 23 41  1  0  0  0  0
 24 25  1  0  0  0  0
 24 62  1  0  0  0  0
 25 26  2  0  0  0  0
 25 56  1  0  0  0  0
 26 68  1  0  0  0  0
 27 82  1  0  0  0  0
 28 83  1  0  0  0  0
 29 31  2  0  0  0  0
 29 82  1  0  0  0  0
 30 84  1  0  0  0  0
 31 85  1  0  0  0  0
 32 66  2  0  0  0  0
 33 67  1  0  0  0  0
 33 71  1  0  0  0  0
 34 72  1  0  0  0  0
 34 77  2  0  0  0  0
 35 53  1  0  0  0  0
 35 73  1  0  0  0  0
 35 78  2  0  0  0  0
 36 63  1  0  0  0  0
 36 69  1  0  0  0  0
 36 79  2  0  0  0  0
 37 64  1  0  0  0  0
 37 74  1  0  0  0  0
 37 80  2  0  0  0  0
 38 70  1  0  0  0  0
 38 75  1  0  0  0  0
 38 81  2  0  0  0  0
 39 42  1  0  0  0  0
 40 53  1  0  0  0  0
 41 69  1  0  0  0  0
 42 45  1  0  0  0  0
 43 46  1  0  0  0  0
 43 49  1  0  0  0  0
 44 47  1  0  0  0  0
 44 48  1  0  0  0  0
 45 52  1  0  0  0  0
 46 54  1  0  0  0  0
 47 55  1  0  0  0  0
 48 68  1  0  0  0  0
 49 70  1  0  0  0  0
 50 54  1  0  0  0  0
 50 70  1  0  0  0  0
 51 55  1  0  0  0  0
 51 68  1  0  0  0  0
 52 73  1  0  0  0  0
 53 69  1  0  0  0  0
 54 67  1  0  0  0  0
 55 83  1  0  0  0  0
 57 64  1  0  0  0  0
 58 65  1  0  0  0  0
 59 65  1  0  0  0  0
 60 65  1  0  0  0  0
 61 76  1  0  0  0  0
 62 75  1  0  0  0  0
 63 65  1  0  0  0  0
 63 74  1  0  0  0  0
 64 76  1  0  0  0  0
 66 67  1  0  0  0  0
M  CHG  1  76   1
M  ISO  4  38 100  55 101  75 100  83 101
M  END
> <Batch ID>
0038

> <Smiles>
CNC(C)C(=O)NC(C(=O)N1Cc2cc([101O:1][101CH:1]3CCCN(c4cccc(C[100NH:0][100C:0](=O)N5CCCC(n6nc(-c7ccc(Oc8ccc(F)cc8F)cc7)c(C(N)=O)c6N)C5)c4C)C3)ccc2CC1C(=O)NC1CCCc2ccccc21)C(C)(C)C

> <Shape>
0.220

> <Color>
0.078

> <Negative vol penalty>
0.000

$$$$

  -OEChem-04042322003D

 84 92  0     1  0  0  0  0  0999 V2000
  -32.2878  -21.7169   22.3376 C   0  0  0  0  0  0  0  0  0  0  0  0
  -31.1161  -22.1514   22.9491 C   0  0  0  0  0  0  0  0  0  0  0  0
  -29.8280  -27.7168   20.2070 C   0  0  0  0  0  0  0  0  0  0  0  0
  -28.7258  -26.3636   21.8777 C   0  0  0  0  0  0  0  0  0  0  0  0
  -32.2258  -21.0117   21.1365 C   0  0  0  0  0  0  0  0  0  0  0  0
  -29.8818  -21.8817   22.3591 C   0  0  0  0  0  0  0  0  0  0  0  0
  -23.0673  -20.4771   24.0639 C   0  0  0  0  0  0  0  0  0  0  0  0
  -31.0687  -27.2844   20.6753 C   0  0  0  0  0  0  0  0  0  0  0  0
  -29.9666  -25.9311   22.3460 C   0  0  0  0  0  0  0  0  0  0  0  0
  -21.7742  -20.9157   23.7822 C   0  0  0  0  0  0  0  0  0  0  0  0
  -34.5164  -26.2571   21.1976 C   0  0  0  0  0  0  0  0  0  0  0  0
  -35.4692  -25.8758   20.2530 C   0  0  0  0  0  0  0  0  0  0  0  0
  -21.7846  -19.6203   21.7472 C   0  0  0  0  0  0  0  0  0  0  0  0
  -19.4896  -28.0180   21.2933 C   0  0  0  0  0  0  0  0  0  0  0  0
  -19.1362  -27.2321   23.5504 C   0  0  0  0  0  0  0  0  0  0  0  0
  -33.9765  -24.1586   19.4406 C   0  0  0  0  0  0  0  0  0  0  0  0
  -28.6565  -27.2564   20.8083 C   0  0  0  0  0  0  0  0  0  0  0  0
  -26.5885  -27.1048   19.3224 C   0  0  0  0  0  0  0  0  0  0  0  0
  -30.9895  -20.7248   20.5365 C   0  0  0  0  0  0  0  0  0  0  0  0
  -23.7340  -19.6140   23.1824 C   0  0  0  0  0  0  0  0  0  0  0  0
  -29.8032  -21.1731   21.1482 C   0  0  0  0  0  0  0  0  0  0  0  0
  -23.0852  -19.1702   22.0212 C   0  0  0  0  0  0  0  0  0  0  0  0
  -19.5645  -28.2261   22.6705 C   0  0  0  0  0  0  0  0  0  0  0  0
  -18.5579  -25.8219   21.6758 C   0  0  0  0  0  0  0  0  0  0  0  0
  -31.1380  -26.3916   21.7448 C   0  0  0  0  0  0  0  0  0  0  0  0
  -21.1337  -20.4896   22.6222 C   0  0  0  0  0  0  0  0  0  0  0  0
  -33.2937  -25.5891   21.2639 C   0  0  0  0  0  0  0  0  0  0  0  0
  -35.1992  -24.8266   19.3744 C   0  0  0  0  0  0  0  0  0  0  0  0
  -33.0237  -24.5398   20.3853 C   0  0  0  0  0  0  0  0  0  0  0  0
  -18.9863  -26.8159   20.7959 C   0  0  0  0  0  0  0  0  0  0  0  0
  -18.6329  -26.0300   23.0530 C   0  0  0  0  0  0  0  0  0  0  0  0
  -27.3746  -27.7031   20.3253 C   0  0  0  0  0  0  0  0  0  0  0  0
  -25.4749  -27.9042   19.2365 C   0  0  0  0  0  0  0  0  0  0  0  0
  -26.8421  -25.9314   18.5386 C   0  0  0  0  0  0  0  0  0  0  0  0
  -26.3861  -19.7979   21.4400 C   0  0  0  0  0  0  0  0  0  0  0  0
  -25.7302  -16.6819   20.8212 C   0  0  0  0  0  0  0  0  0  0  0  0
  -23.4037  -14.1918   20.6386 C   0  0  0  0  0  0  0  0  0  0  0  0
  -21.9573  -31.0442   22.5953 C   0  0  0  0  0  0  0  0  0  0  0  0
  -30.9753  -20.0005   19.2137 C   0  0  0  0  0  0  0  0  0  0  0  0
  -25.1186  -19.1289   23.5140 C   0  0  0  0  0  0  0  0  0  0  0  0
  -23.7497  -18.2277   21.0525 C   0  0  0  0  0  0  0  0  0  0  0  0
  -29.6078  -19.4302   18.8462 C   0  0  0  0  0  0  0  0  0  0  0  0
  -24.4212  -32.5608   20.5203 C   0  0  0  0  0  0  0  0  0  0  0  0
  -28.5163  -20.4709   19.0753 C   0  0  0  0  0  0  0  0  0  0  0  0
  -25.3609  -31.4072   20.1653 C   0  0  0  0  0  0  0  0  0  0  0  0
  -23.8975  -32.4426   21.9499 C   0  0  0  0  0  0  0  0  0  0  0  0
  -24.2023  -29.9972   21.9170 C   0  0  0  0  0  0  0  0  0  0  0  0
  -28.4439  -20.8785   20.5519 C   0  0  1  0  0  0  0  0  0  0  0  0
  -25.8964  -18.6588   22.2887 C   0  0  1  0  0  0  0  0  0  0  0  0
  -24.7123  -30.0427   20.4664 C   0  0  2  0  0  0  0  0  0  0  0  0
  -23.1615  -11.7601   20.0681 C   0  0  0  0  0  0  0  0  0  0  0  0
  -25.9135  -17.3626   17.8525 C   0  0  0  0  0  0  0  0  0  0  0  0
  -24.7544  -15.1997   17.3563 C   0  0  0  0  0  0  0  0  0  0  0  0
  -26.9753  -15.1906   18.4922 C   0  0  0  0  0  0  0  0  0  0  0  0
  -22.4628  -13.5266   23.3646 C   0  0  0  0  0  0  0  0  0  0  0  0
  -20.1020  -29.5116   23.2023 C   0  0  0  0  0  0  0  0  0  0  0  0
  -18.0160  -24.5292   21.1409 C   0  0  0  0  0  0  0  0  0  0  0  0
  -18.4412  -22.0904   20.8090 C   0  0  0  0  0  0  0  0  0  0  0  0
  -19.5126  -21.0298   20.9682 C   0  0  0  0  0  0  0  0  0  1  0  0
  -24.9307  -15.9452   19.7737 C   0  0  1  0  0  0  0  0  0  0  0  0
  -23.4030  -12.7724   21.1770 C   0  0  2  0  0  0  0  0  0  0  0  0
  -25.6314  -15.9438   18.3857 C   0  0  0  0  0  0  0  0  0  0  0  0
  -26.8086  -28.7981   20.8396 N   0  0  0  0  0  0  0  0  0  0  0  0
  -25.6549  -28.8943   20.1571 N   0  0  0  0  0  0  0  0  0  0  0  0
  -25.1060  -17.7865   21.4178 N   0  0  0  0  0  0  0  0  0  0  0  0
  -23.2934  -31.1263   22.1696 N   0  0  0  0  0  0  0  0  0  0  0  0
  -24.3692  -27.8498   18.4640 N   0  0  0  0  0  0  0  0  0  0  0  0
  -28.0351  -25.2283   18.7550 N   0  0  0  0  0  0  0  0  0  0  0  0
  -27.7616  -19.8621   21.3238 N   0  0  0  0  0  0  0  0  0  0  0  0
  -24.6757  -14.6150   20.3157 N   0  0  0  0  0  0  0  0  0  0  0  0
  -21.4606  -29.7587   22.7734 N   0  0  0  0  0  0  0  0  0  0  0  0
  -22.3355  -12.6084   22.2038 N   0  3  0  0  0  0  0  0  0  0  0  0
  -18.9713  -23.3965   21.2751 N   0  3  0  0  0  0  0  0  0  0  0  0
  -26.0423  -25.5278   17.6605 O   0  0  0  0  0  0  0  0  0  0  0  0
  -25.5760  -20.5610   20.9271 O   0  0  0  0  0  0  0  0  0  0  0  0
  -26.8641  -16.2874   21.1047 O   0  0  0  0  0  0  0  0  0  0  0  0
  -22.3780  -14.8572   20.5133 O   0  0  0  0  0  0  0  0  0  0  0  0
  -21.2571  -32.0424   22.7961 O   0  0  0  0  0  0  0  0  0  0  0  0
  -32.3485  -25.9693   22.2018 O   0  0  0  0  0  0  0  0  0  0  0  0
  -19.8718  -20.9166   22.3446 O   0  0  0  0  0  0  0  0  0  1  0  0
  -36.1136  -24.4615   18.4662 F   0  0  0  0  0  0  0  0  0  0  0  0
  -31.8504  -23.8951   20.4434 F   0  0  0  0  0  0  0  0  0  0  0  0
  -18.9108  -26.6003   19.0841 Cl  0  0  0  0  0  0  0  0  0  0  0  0
  -18.1129  -24.8269   24.1776 Cl  0  0  0  0  0  0  0  0  0  0  0  0
  1  2  1  0  0  0  0
  1  5  2  0  0  0  0
  2  6  2  0  0  0  0
  3  8  2  0  0  0  0
  3 17  1  0  0  0  0
  4  9  1  0  0  0  0
  4 17  2  0  0  0  0
  5 19  1  0  0  0  0
  6 21  1  0  0  0  0
  7 10  2  0  0  0  0
  7 20  1  0  0  0  0
  8 25  1  0  0  0  0
  9 25  2  0  0  0  0
 10 26  1  0  0  0  0
 11 12  2  0  0  0  0
 11 27  1  0  0  0  0
 12 28  1  0  0  0  0
 13 22  1  0  0  0  0
 13 26  2  0  0  0  0
 14 23  1  0  0  0  0
 14 30  2  0  0  0  0
 15 23  2  0  0  0  0
 15 31  1  0  0  0  0
 16 28  2  0  0  0  0
 16 29  1  0  0  0  0
 17 32  1  0  0  0  0
 18 32  1  0  0  0  0
 18 33  2  0  0  0  0
 18 34  1  0  0  0  0
 19 21  2  0  0  0  0
 19 39  1  0  0  0  0
 20 22  2  0  0  0  0
 20 40  1  0  0  0  0
 21 48  1  0  0  0  0
 22 41  1  0  0  0  0
 23 56  1  0  0  0  0
 24 30  1  0  0  0  0
 24 31  2  0  0  0  0
 24 57  1  0  0  0  0
 25 79  1  0  0  0  0
 26 80  1  0  0  0  0
 27 29  2  0  0  0  0
 27 79  1  0  0  0  0
 28 81  1  0  0  0  0
 29 82  1  0  0  0  0
 30 83  1  0  0  0  0
 31 84  1  0  0  0  0
 32 63  2  0  0  0  0
 33 64  1  0  0  0  0
 33 67  1  0  0  0  0
 34 68  1  0  0  0  0
 34 74  2  0  0  0  0
 35 49  1  0  0  0  0
 35 69  1  0  0  0  0
 35 75  2  0  0  0  0
 36 60  1  0  0  0  0
 36 65  1  0  0  0  0
 36 76  2  0  0  0  0
 37 61  1  0  0  0  0
 37 70  1  0  0  0  0
 37 77  2  0  0  0  0
 38 66  1  0  0  0  0
 38 71  1  0  0  0  0
 38 78  2  0  0  0  0
 39 42  1  0  0  0  0
 40 49  1  0  0  0  0
 41 65  1  0  0  0  0
 42 44  1  0  0  0  0
 43 45  1  0  0  0  0
 43 46  1  0  0  0  0
 44 48  1  0  0  0  0
 45 50  1  0  0  0  0
 46 66  1  0  0  0  0
 47 50  1  0  0  0  0
 47 66  1  0  0  0  0
 48 69  1  0  0  0  0
 49 65  1  0  0  0  0
 50 64  1  0  0  0  0
 51 61  1  0  0  0  0
 52 62  1  0  0  0  0
 53 62  1  0  0  0  0
 54 62  1  0  0  0  0
 55 72  1  0  0  0  0
 56 71  1  0  0  0  0
 57 73  1  0  0  0  0
 58 59  1  0  0  0  0
 58 73  1  0  0  0  0
 59 80  1  0  0  0  0
 60 62  1  0  0  0  0
 60 70  1  0  0  0  0
 61 72  1  0  0  0  0
 63 64  1  0  0  0  0
M  CHG  2  72   1  73   1
M  ISO  4  38 100  59 101  71 100  80 101
M  END
> <Batch ID>
0038

> <Smiles>
CNC(C)C(=O)NC(C(=O)N1Cc2cc([101O:1][101CH2:1]CNCc3c(Cl)cc(C[100NH:0][100C:0](=O)N4CCCC(n5nc(-c6ccc(Oc7ccc(F)cc7F)cc6)c(C(N)=O)c5N)C4)cc3Cl)ccc2CC1C(=O)NC1CCCc2ccccc21)C(C)(C)C

> <Shape>
0.210

> <Color>
0.088

> <Negative vol penalty>
0.000

$$$$

  -OEChem-04042322003D

 88 97  0     1  0  0  0  0  0999 V2000
  -26.1239  -22.8638   16.6884 C   0  0  0  0  0  0  0  0  0  0  0  0
  -27.0539  -23.1703   17.6767 C   0  0  0  0  0  0  0  0  0  0  0  0
  -23.1925  -10.3296   22.2099 C   0  0  0  0  0  0  0  0  0  0  0  0
  -23.6716   -9.4217   20.0228 C   0  0  0  0  0  0  0  0  0  0  0  0
  -25.0780  -23.7457   16.4195 C   0  0  0  0  0  0  0  0  0  0  0  0
  -26.9391  -24.3595   18.3958 C   0  0  0  0  0  0  0  0  0  0  0  0
  -27.6321  -23.6974   23.3683 C   0  0  0  0  0  0  0  0  0  0  0  0
  -32.3413  -17.8593   23.3681 C   0  0  0  0  0  0  0  0  0  0  0  0
  -31.8163  -16.8844   22.5198 C   0  0  0  0  0  0  0  0  0  0  0  0
  -22.4450   -9.1930   22.5180 C   0  0  0  0  0  0  0  0  0  0  0  0
  -22.9241   -8.2850   20.3310 C   0  0  0  0  0  0  0  0  0  0  0  0
  -28.9457  -23.5621   23.8157 C   0  0  0  0  0  0  0  0  0  0  0  0
  -23.0390   -6.0053   23.4765 C   0  0  0  0  0  0  0  0  0  0  0  0
  -23.2367   -5.4186   24.7264 C   0  0  0  0  0  0  0  0  0  0  0  0
  -28.9449  -25.8756   24.4990 C   0  0  0  0  0  0  0  0  0  0  0  0
  -20.9094   -5.7808   25.2645 C   0  0  0  0  0  0  0  0  0  0  0  0
  -23.8057  -10.4440   20.9623 C   0  0  0  0  0  0  0  0  0  0  0  0
  -24.1240  -12.9504   20.6099 C   0  0  0  0  0  0  0  0  0  0  0  0
  -24.9448  -24.9417   17.1422 C   0  0  0  0  0  0  0  0  0  0  0  0
  -26.9677  -24.9279   23.4732 C   0  0  0  0  0  0  0  0  0  0  0  0
  -25.8912  -25.2588   18.1353 C   0  0  0  0  0  0  0  0  0  0  0  0
  -27.6221  -26.0232   24.0546 C   0  0  0  0  0  0  0  0  0  0  0  0
  -31.4941  -18.7901   23.9695 C   0  0  0  0  0  0  0  0  0  0  0  0
  -30.1220  -18.7460   23.7224 C   0  0  0  0  0  0  0  0  0  0  0  0
  -29.5970  -17.7711   22.8741 C   0  0  0  0  0  0  0  0  0  0  0  0
  -30.4442  -16.8403   22.2727 C   0  0  0  0  0  0  0  0  0  0  0  0
  -22.3108   -8.1707   21.5786 C   0  0  0  0  0  0  0  0  0  0  0  0
  -29.6032  -24.6520   24.3785 C   0  0  0  0  0  0  0  0  0  0  0  0
  -21.7765   -6.4798   23.1206 C   0  0  0  0  0  0  0  0  0  0  0  0
  -22.1719   -5.3063   25.6204 C   0  0  0  0  0  0  0  0  0  0  0  0
  -20.7117   -6.3675   24.0146 C   0  0  0  0  0  0  0  0  0  0  0  0
  -24.5775  -11.6181   20.6432 C   0  0  0  0  0  0  0  0  0  0  0  0
  -25.2317  -13.6815   20.2563 C   0  0  0  0  0  0  0  0  0  0  0  0
  -31.5038  -22.2274   24.8274 C   0  0  0  0  0  0  0  0  0  0  0  0
  -22.8182  -13.4798   20.8751 C   0  0  0  0  0  0  0  0  0  0  0  0
  -25.7099  -26.9819   21.3989 C   0  0  0  0  0  0  0  0  0  0  0  0
  -24.6845  -28.4722   24.0914 C   0  0  0  0  0  0  0  0  0  0  0  0
  -25.1023  -29.0299   27.4323 C   0  0  0  0  0  0  0  0  0  0  0  0
  -30.6538  -14.8515   20.7407 C   0  0  0  0  0  0  0  0  0  0  0  0
  -23.8248  -25.8859   16.7834 C   0  0  0  0  0  0  0  0  0  0  0  0
  -25.5418  -25.0503   23.0103 C   0  0  0  0  0  0  0  0  0  0  0  0
  -26.9462  -27.3604   24.2086 C   0  0  0  0  0  0  0  0  0  0  0  0
  -23.5593  -26.9481   17.8471 C   0  0  0  0  0  0  0  0  0  0  0  0
  -34.0543  -23.4834   23.1203 C   0  0  0  0  0  0  0  0  0  0  0  0
  -34.2143  -21.9667   23.1453 C   0  0  0  0  0  0  0  0  0  0  0  0
  -29.7588  -12.1875   18.5547 C   0  0  0  0  0  0  0  0  0  0  0  0
  -24.8690  -27.5760   18.3131 C   0  0  0  0  0  0  0  0  0  0  0  0
  -33.1595  -24.0494   24.2186 C   0  0  0  0  0  0  0  0  0  0  0  0
  -28.2937  -11.9114   18.9004 C   0  0  0  0  0  0  0  0  0  0  0  0
  -32.8979  -21.2152   22.9868 C   0  0  0  0  0  0  0  0  0  0  0  0
  -30.5741  -12.5558   19.7930 C   0  0  0  0  0  0  0  0  0  0  0  0
  -28.5558  -13.3773   20.9424 C   0  0  0  0  0  0  0  0  0  0  0  0
  -25.7863  -26.5273   18.9538 C   0  0  1  0  0  0  0  0  0  0  0  0
  -31.7089  -23.5742   24.1400 C   0  0  2  0  0  0  0  0  0  1  0  0
  -25.1367  -26.4873   22.6968 C   0  0  1  0  0  0  0  0  0  0  0  0
  -27.6805  -13.0655   19.7176 C   0  0  2  0  0  0  0  0  0  0  0  0
  -29.2159  -19.7456   24.3690 C   0  0  0  0  0  0  0  0  0  0  0  0
  -28.1242  -17.7257   22.6105 C   0  0  0  0  0  0  0  0  0  0  0  0
  -24.1316  -30.3255   29.3497 C   0  0  0  0  0  0  0  0  0  0  0  0
  -25.9915  -31.0170   23.0304 C   0  0  0  0  0  0  0  0  0  0  0  0
  -25.8305  -31.9780   25.3366 C   0  0  0  0  0  0  0  0  0  0  0  0
  -23.7558  -31.3594   24.0975 C   0  0  0  0  0  0  0  0  0  0  0  0
  -24.4580  -26.5583   28.9274 C   0  0  0  0  0  0  0  0  0  0  0  0
  -32.0852  -19.8287   24.8783 C   0  0  0  0  0  0  0  0  0  0  0  0
  -25.2476  -29.5321   25.0072 C   0  0  1  0  0  0  0  0  0  0  0  0
  -24.1179  -29.0094   28.5877 C   0  0  2  0  0  0  0  0  0  0  0  0
  -25.2200  -30.9471   24.3634 C   0  0  0  0  0  0  0  0  0  0  0  0
  -25.8724  -11.5064   20.3351 N   0  0  0  0  0  0  0  0  0  0  0  0
  -26.2419  -12.7778   20.1048 N   0  0  0  0  0  0  0  0  0  0  0  0
  -32.1483  -21.1382   24.2416 N   0  0  0  0  0  0  0  0  0  0  0  0
  -25.5540  -27.4316   23.7352 N   0  0  0  0  0  0  0  0  0  0  0  0
  -29.9352  -13.6586   20.5144 N   0  0  0  0  0  0  0  0  0  0  0  0
  -25.4304  -15.0027   20.0632 N   0  0  0  0  0  0  0  0  0  0  0  0
  -21.7946  -12.5890   21.2255 N   0  0  0  0  0  0  0  0  0  0  0  0
  -29.9328  -15.8413   21.4078 N   0  0  0  0  0  0  0  0  0  0  0  0
  -25.3475  -26.2268   20.2998 N   0  0  0  0  0  0  0  0  0  0  0  0
  -24.5021  -29.4296   26.2570 N   0  0  0  0  0  0  0  0  0  0  0  0
  -24.4573  -27.9127   29.5380 N   0  3  0  0  0  0  0  0  0  0  0  0
  -30.8067  -22.1428   25.8418 O   0  0  0  0  0  0  0  0  0  0  0  0
  -22.5627  -14.7048   20.7874 O   0  0  0  0  0  0  0  0  0  0  0  0
  -26.4267  -27.9758   21.3947 O   0  0  0  0  0  0  0  0  0  0  0  0
  -23.5141  -28.5605   23.7120 O   0  0  0  0  0  0  0  0  0  0  0  0
  -26.2861  -28.7255   27.5603 O   0  0  0  0  0  0  0  0  0  0  0  0
  -31.8138  -14.9951   20.3461 O   0  0  0  0  0  0  0  0  0  0  0  0
  -21.5817   -7.0613   21.8790 O   0  0  0  0  0  0  0  0  0  0  0  0
  -30.8855  -24.5229   24.8153 O   0  0  0  0  0  0  0  0  0  1  0  0
  -22.3616   -4.7415   26.8201 F   0  0  0  0  0  0  0  0  0  0  0  0
  -19.4963   -6.8204   23.6778 F   0  0  0  0  0  0  0  0  0  0  0  0
  1  2  1  0  0  0  0
  1  5  2  0  0  0  0
  2  6  2  0  0  0  0
  3 10  2  0  0  0  0
  3 17  1  0  0  0  0
  4 11  1  0  0  0  0
  4 17  2  0  0  0  0
  5 19  1  0  0  0  0
  6 21  1  0  0  0  0
  7 12  2  0  0  0  0
  7 20  1  0  0  0  0
  8  9  2  0  0  0  0
  8 23  1  0  0  0  0
  9 26  1  0  0  0  0
 10 27  1  0  0  0  0
 11 27  2  0  0  0  0
 12 28  1  0  0  0  0
 13 14  2  0  0  0  0
 13 29  1  0  0  0  0
 14 30  1  0  0  0  0
 15 22  1  0  0  0  0
 15 28  2  0  0  0  0
 16 30  2  0  0  0  0
 16 31  1  0  0  0  0
 17 32  1  0  0  0  0
 18 32  1  0  0  0  0
 18 33  2  0  0  0  0
 18 35  1  0  0  0  0
 19 21  2  0  0  0  0
 19 40  1  0  0  0  0
 20 22  2  0  0  0  0
 20 41  1  0  0  0  0
 21 53  1  0  0  0  0
 22 42  1  0  0  0  0
 23 24  2  0  0  0  0
 23 64  1  0  0  0  0
 24 25  1  0  0  0  0
 24 57  1  0  0  0  0
 25 26  2  0  0  0  0
 25 58  1  0  0  0  0
 26 75  1  0  0  0  0
 27 85  1  0  0  0  0
 28 86  1  0  0  0  0
 29 31  2  0  0  0  0
 29 85  1  0  0  0  0
 30 87  1  0  0  0  0
 31 88  1  0  0  0  0
 32 68  2  0  0  0  0
 33 69  1  0  0  0  0
 33 73  1  0  0  0  0
 34 54  1  0  0  0  0
 34 70  1  0  0  0  0
 34 79  2  0  0  0  0
 35 74  1  0  0  0  0
 35 80  2  0  0  0  0
 36 55  1  0  0  0  0
 36 76  1  0  0  0  0
 36 81  2  0  0  0  0
 37 65  1  0  0  0  0
 37 71  1  0  0  0  0
 37 82  2  0  0  0  0
 38 66  1  0  0  0  0
 38 77  1  0  0  0  0
 38 83  2  0  0  0  0
 39 72  1  0  0  0  0
 39 75  1  0  0  0  0
 39 84  2  0  0  0  0
 40 43  1  0  0  0  0
 41 55  1  0  0  0  0
 42 71  1  0  0  0  0
 43 47  1  0  0  0  0
 44 45  1  0  0  0  0
 44 48  1  0  0  0  0
 45 50  1  0  0  0  0
 46 49  1  0  0  0  0
 46 51  1  0  0  0  0
 47 53  1  0  0  0  0
 48 54  1  0  0  0  0
 49 56  1  0  0  0  0
 50 70  1  0  0  0  0
 51 72  1  0  0  0  0
 52 56  1  0  0  0  0
 52 72  1  0  0  0  0
 53 76  1  0  0  0  0
 54 86  1  0  0  0  0
 55 71  1  0  0  0  0
 56 69  1  0  0  0  0
 59 66  1  0  0  0  0
 60 67  1  0  0  0  0
 61 67  1  0  0  0  0
 62 67  1  0  0  0  0
 63 78  1  0  0  0  0
 64 70  1  0  0  0  0
 65 67  1  0  0  0  0
 65 77  1  0  0  0  0
 66 78  1  0  0  0  0
 68 69  1  0  0  0  0
M  CHG  1  78   1
M  ISO  4  39 100  54 101  75 100  86 101
M  END
> <Batch ID>
0038

> <Smiles>
CNC(C)C(=O)NC(C(=O)N1Cc2cc([101O:1][101CH:1]3CCCCN(Cc4ccc([100NH:0][100C:0](=O)N5CCCC(n6nc(-c7ccc(Oc8ccc(F)cc8F)cc7)c(C(N)=O)c6N)C5)c(C)c4C)C3=O)ccc2CC1C(=O)NC1CCCc2ccccc21)C(C)(C)C

> <Shape>
0.225

> <Color>
0.209

> <Negative vol penalty>
0.000

$$$$

  -OEChem-04042322003D

 86 95  0     1  0  0  0  0  0999 V2000
  -26.2472  -37.7095   24.7405 C   0  0  0  0  0  0  0  0  0  0  0  0
  -26.2305  -37.1969   23.4483 C   0  0  0  0  0  0  0  0  0  0  0  0
  -27.3197  -16.5463   18.1605 C   0  0  0  0  0  0  0  0  0  0  0  0
  -27.6591  -17.1689   20.4701 C   0  0  0  0  0  0  0  0  0  0  0  0
  -26.3714  -36.8464   25.8271 C   0  0  0  0  0  0  0  0  0  0  0  0
  -26.3259  -35.8201   23.2428 C   0  0  0  0  0  0  0  0  0  0  0  0
  -26.7123  -28.9994   19.1743 C   0  0  0  0  0  0  0  0  0  0  0  0
  -27.9231  -17.7354   17.7513 C   0  0  0  0  0  0  0  0  0  0  0  0
  -28.2625  -18.3581   20.0609 C   0  0  0  0  0  0  0  0  0  0  0  0
  -27.0973  -27.6634   19.2764 C   0  0  0  0  0  0  0  0  0  0  0  0
  -29.6985  -20.4412   16.0954 C   0  0  0  0  0  0  0  0  0  0  0  0
  -30.6328  -20.3722   15.0621 C   0  0  0  0  0  0  0  0  0  0  0  0
  -25.6589  -27.4016   21.1951 C   0  0  0  0  0  0  0  0  0  0  0  0
  -20.9766  -21.2034   23.1327 C   0  0  0  0  0  0  0  0  0  0  0  0
  -23.3299  -19.7958   22.6195 C   0  0  0  0  0  0  0  0  0  0  0  0
  -31.9953  -18.8860   16.3934 C   0  0  0  0  0  0  0  0  0  0  0  0
  -27.1877  -16.2630   19.5200 C   0  0  0  0  0  0  0  0  0  0  0  0
  -26.9823  -13.7236   19.6488 C   0  0  0  0  0  0  0  0  0  0  0  0
  -26.4809  -35.4595   25.6334 C   0  0  0  0  0  0  0  0  0  0  0  0
  -25.8044  -29.5504   20.0901 C   0  0  0  0  0  0  0  0  0  0  0  0
  -26.4279  -34.9306   24.3277 C   0  0  0  0  0  0  0  0  0  0  0  0
  -25.2620  -28.7442   21.1010 C   0  0  0  0  0  0  0  0  0  0  0  0
  -22.1924  -21.8825   23.0539 C   0  0  0  0  0  0  0  0  0  0  0  0
  -20.9375  -19.8204   22.9550 C   0  0  0  0  0  0  0  0  0  0  0  0
  -23.3690  -21.1788   22.7973 C   0  0  0  0  0  0  0  0  0  0  0  0
  -22.1141  -19.1166   22.6984 C   0  0  0  0  0  0  0  0  0  0  0  0
  -28.3945  -18.6413   18.7014 C   0  0  0  0  0  0  0  0  0  0  0  0
  -26.5729  -26.8650   20.2886 C   0  0  0  0  0  0  0  0  0  0  0  0
  -29.9125  -19.7327   17.2778 C   0  0  0  0  0  0  0  0  0  0  0  0
  -31.7812  -19.5946   15.2110 C   0  0  0  0  0  0  0  0  0  0  0  0
  -31.0609  -18.9551   17.4267 C   0  0  0  0  0  0  0  0  0  0  0  0
  -26.5640  -15.0351   19.9434 C   0  0  0  0  0  0  0  0  0  0  0  0
  -26.0628  -12.9204   20.2781 C   0  0  0  0  0  0  0  0  0  0  0  0
  -28.1019  -13.2717   18.8755 C   0  0  0  0  0  0  0  0  0  0  0  0
  -25.9270  -31.8890   22.2394 C   0  0  0  0  0  0  0  0  0  0  0  0
  -22.7592  -31.2561   22.5346 C   0  0  0  0  0  0  0  0  0  0  0  0
  -20.6608  -28.3241   22.6659 C   0  0  0  0  0  0  0  0  0  0  0  0
  -23.1065  -16.7948   22.8153 C   0  0  0  0  0  0  0  0  0  0  0  0
  -26.6054  -34.5704   26.8455 C   0  0  0  0  0  0  0  0  0  0  0  0
  -25.3787  -30.9863   19.9502 C   0  0  0  0  0  0  0  0  0  0  0  0
  -24.2685  -29.2822   22.0970 C   0  0  0  0  0  0  0  0  0  0  0  0
  -27.1439  -33.1829   26.5124 C   0  0  0  0  0  0  0  0  0  0  0  0
  -21.4478  -13.5504   21.5548 C   0  0  0  0  0  0  0  0  0  0  0  0
  -25.2313  -22.5412   18.9790 C   0  0  0  0  0  0  0  0  0  0  0  0
  -26.3704  -32.5921   25.3431 C   0  0  0  0  0  0  0  0  0  0  0  0
  -22.7302  -13.1471   20.8379 C   0  0  0  0  0  0  0  0  0  0  0  0
  -26.2141  -23.7006   19.0756 C   0  0  0  0  0  0  0  0  0  0  0  0
  -21.4929  -15.0297   21.9277 C   0  0  0  0  0  0  0  0  0  0  0  0
  -23.7122  -14.3833   22.8707 C   0  0  0  0  0  0  0  0  0  0  0  0
  -25.1839  -21.7352   20.2693 C   0  0  0  0  0  0  0  0  0  0  0  0
  -25.8652  -23.7669   21.5723 C   0  0  0  0  0  0  0  0  0  0  0  0
  -26.5611  -33.4391   24.0785 C   0  0  1  0  0  0  0  0  0  0  0  0
  -24.8406  -31.5791   21.2488 C   0  0  1  0  0  0  0  0  0  0  0  0
  -23.9710  -13.3884   21.7208 C   0  0  2  0  0  0  0  0  0  0  0  0
  -25.9195  -24.5809   20.2861 C   0  0  1  0  0  0  0  0  0  1  0  0
  -22.2098  -23.3633   23.2480 C   0  0  0  0  0  0  0  0  0  0  0  0
  -19.6212  -19.1188   23.0447 C   0  0  0  0  0  0  0  0  0  0  0  0
  -18.2528  -28.0115   22.0322 C   0  0  0  0  0  0  0  0  0  0  0  0
  -22.2116  -31.8125   25.4843 C   0  0  0  0  0  0  0  0  0  0  0  0
  -20.4153  -30.0702   25.4076 C   0  0  0  0  0  0  0  0  0  0  0  0
  -20.2343  -32.1093   23.9821 C   0  0  0  0  0  0  0  0  0  0  0  0
  -21.3137  -26.1026   20.8227 C   0  0  0  0  0  0  0  0  0  0  0  0
  -24.6883  -21.8877   22.7083 C   0  0  0  0  0  0  0  0  0  0  0  0
  -21.9293  -30.3294   23.3898 C   0  0  1  0  0  0  0  0  0  0  0  0
  -19.6993  -27.8459   21.5929 C   0  0  2  0  0  0  0  0  0  0  0  0
  -21.2244  -31.0739   24.5586 C   0  0  0  0  0  0  0  0  0  0  0  0
  -25.4643  -15.0677   20.7008 N   0  0  0  0  0  0  0  0  0  0  0  0
  -25.1838  -13.7667   20.8874 N   0  0  0  0  0  0  0  0  0  0  0  0
  -23.8884  -30.6938   21.9224 N   0  0  0  0  0  0  0  0  0  0  0  0
  -22.7751  -15.4507   22.5112 N   0  0  0  0  0  0  0  0  0  0  0  0
  -25.9286  -11.5799   20.3642 N   0  0  0  0  0  0  0  0  0  0  0  0
  -29.3224  -13.0561   19.5298 N   0  0  0  0  0  0  0  0  0  0  0  0
  -22.0949  -17.7109   22.5147 N   0  0  0  0  0  0  0  0  0  0  0  0
  -25.6530  -32.9703   23.0550 N   0  0  0  0  0  0  0  0  0  0  0  0
  -21.0168  -29.6434   22.4815 N   0  0  0  0  0  0  0  0  0  0  0  0
  -24.8609  -22.6524   21.4248 N   0  3  2  0  0  0  0  0  0  0  0  0
  -19.9364  -26.4063   21.2892 N   0  3  0  0  0  0  0  0  0  0  0  0
  -28.0266  -13.0810   17.6379 O   0  0  0  0  0  0  0  0  0  0  0  0
  -26.9383  -31.1974   22.2631 O   0  0  0  0  0  0  0  0  0  0  0  0
  -22.4143  -32.4337   22.4084 O   0  0  0  0  0  0  0  0  0  0  0  0
  -21.0536  -27.6008   23.5786 O   0  0  0  0  0  0  0  0  0  0  0  0
  -24.1965  -17.0984   23.3046 O   0  0  0  0  0  0  0  0  0  0  0  0
  -28.9835  -19.8016   18.3024 O   0  0  0  0  0  0  0  0  0  0  0  0
  -26.9476  -25.5607   20.3908 O   0  0  0  0  0  0  0  0  0  1  0  0
  -32.6777  -19.5271   14.2181 F   0  0  0  0  0  0  0  0  0  0  0  0
  -31.2714  -18.2713   18.5598 F   0  0  0  0  0  0  0  0  0  0  0  0
  1  2  1  0  0  0  0
  1  5  2  0  0  0  0
  2  6  2  0  0  0  0
  3  8  2  0  0  0  0
  3 17  1  0  0  0  0
  4  9  1  0  0  0  0
  4 17  2  0  0  0  0
  5 19  1  0  0  0  0
  6 21  1  0  0  0  0
  7 10  2  0  0  0  0
  7 20  1  0  0  0  0
  8 27  1  0  0  0  0
  9 27  2  0  0  0  0
 10 28  1  0  0  0  0
 11 12  2  0  0  0  0
 11 29  1  0  0  0  0
 12 30  1  0  0  0  0
 13 22  1  0  0  0  0
 13 28  2  0  0  0  0
 14 23  1  0  0  0  0
 14 24  2  0  0  0  0
 15 25  1  0  0  0  0
 15 26  2  0  0  0  0
 16 30  2  0  0  0  0
 16 31  1  0  0  0  0
 17 32  1  0  0  0  0
 18 32  1  0  0  0  0
 18 33  2  0  0  0  0
 18 34  1  0  0  0  0
 19 21  2  0  0  0  0
 19 39  1  0  0  0  0
 20 22  2  0  0  0  0
 20 40  1  0  0  0  0
 21 52  1  0  0  0  0
 22 41  1  0  0  0  0
 23 25  2  0  0  0  0
 23 56  1  0  0  0  0
 24 26  1  0  0  0  0
 24 57  1  0  0  0  0
 25 63  1  0  0  0  0
 26 73  1  0  0  0  0
 27 83  1  0  0  0  0
 28 84  1  0  0  0  0
 29 31  2  0  0  0  0
 29 83  1  0  0  0  0
 30 85  1  0  0  0  0
 31 86  1  0  0  0  0
 32 67  2  0  0  0  0
 33 68  1  0  0  0  0
 33 71  1  0  0  0  0
 34 72  1  0  0  0  0
 34 78  2  0  0  0  0
 35 53  1  0  0  0  0
 35 74  1  0  0  0  0
 35 79  2  0  0  0  0
 36 64  1  0  0  0  0
 36 69  1  0  0  0  0
 36 80  2  0  0  0  0
 37 65  1  0  0  0  0
 37 75  1  0  0  0  0
 37 81  2  0  0  0  0
 38 70  1  0  0  0  0
 38 73  1  0  0  0  0
 38 82  2  0  0  0  0
 39 42  1  0  0  0  0
 40 53  1  0  0  0  0
 41 69  1  0  0  0  0
 42 45  1  0  0  0  0
 43 46  1  0  0  0  0
 43 48  1  0  0  0  0
 44 47  1  0  0  0  0
 44 50  1  0  0  0  0
 45 52  1  0  0  0  0
 46 54  1  0  0  0  0
 47 55  1  0  0  0  0
 48 70  1  0  0  0  0
 49 54  1  0  0  0  0
 49 70  1  0  0  0  0
 50 76  1  0  0  0  0
 51 55  1  0  0  0  0
 51 76  1  0  0  0  0
 52 74  1  0  0  0  0
 53 69  1  0  0  0  0
 54 68  1  0  0  0  0
 55 84  1  0  0  0  0
 58 65  1  0  0  0  0
 59 66  1  0  0  0  0
 60 66  1  0  0  0  0
 61 66  1  0  0  0  0
 62 77  1  0  0  0  0
 63 76  1  0  0  0  0
 64 66  1  0  0  0  0
 64 75  1  0  0  0  0
 65 77  1  0  0  0  0
 67 68  1  0  0  0  0
M  CHG  2  76   1  77   1
M  ISO  4  38 100  55 101  73 100  84 101
M  END
> <Batch ID>
0038

> <Smiles>
CNC(C)C(=O)NC(C(=O)N1Cc2cc([101O:1][101CH:1]3CCCN(Cc4cc([100NH:0][100C:0](=O)N5CCCC(n6nc(-c7ccc(Oc8ccc(F)cc8F)cc7)c(C(N)=O)c6N)C5)c(C)cc4C)C3)ccc2CC1C(=O)NC1CCCc2ccccc21)C(C)(C)C

> <Shape>
0.266

> <Color>
0.093

> <Negative vol penalty>
0.000

$$$$

  -OEChem-04042322003D

 90 99  0     1  0  0  0  0  0999 V2000
  -24.7648  -37.8258   24.3939 C   0  0  0  0  0  0  0  0  0  0  0  0
  -23.7282  -36.9765   24.0236 C   0  0  0  0  0  0  0  0  0  0  0  0
  -25.7100  -11.8006   19.1234 C   0  0  0  0  0  0  0  0  0  0  0  0
  -26.3459  -11.4112   21.4214 C   0  0  0  0  0  0  0  0  0  0  0  0
  -25.9953  -37.7413   23.7457 C   0  0  0  0  0  0  0  0  0  0  0  0
  -23.9253  -36.0346   23.0132 C   0  0  0  0  0  0  0  0  0  0  0  0
  -23.8932  -29.3720   18.0122 C   0  0  0  0  0  0  0  0  0  0  0  0
  -28.7579  -22.1880   19.7915 C   0  0  0  0  0  0  0  0  0  0  0  0
  -29.3445  -20.9790   20.1654 C   0  0  0  0  0  0  0  0  0  0  0  0
  -24.4403  -11.2872   19.3878 C   0  0  0  0  0  0  0  0  0  0  0  0
  -25.0762  -10.8978   21.6858 C   0  0  0  0  0  0  0  0  0  0  0  0
  -24.8608  -28.7024   17.2644 C   0  0  0  0  0  0  0  0  0  0  0  0
  -23.0071   -8.2463   19.7386 C   0  0  0  0  0  0  0  0  0  0  0  0
  -22.4674   -7.3480   18.8180 C   0  0  0  0  0  0  0  0  0  0  0  0
  -26.4442  -28.9974   19.0602 C   0  0  0  0  0  0  0  0  0  0  0  0
  -20.6077   -8.8451   18.4474 C   0  0  0  0  0  0  0  0  0  0  0  0
  -26.6628  -11.8625   20.1402 C   0  0  0  0  0  0  0  0  0  0  0  0
  -28.9116  -11.9051   18.9366 C   0  0  0  0  0  0  0  0  0  0  0  0
  -26.2028  -36.8060   22.7185 C   0  0  0  0  0  0  0  0  0  0  0  0
  -24.1976  -29.8697   19.2873 C   0  0  0  0  0  0  0  0  0  0  0  0
  -25.1673  -35.9177   22.3634 C   0  0  0  0  0  0  0  0  0  0  0  0
  -25.4780  -29.6707   19.8232 C   0  0  0  0  0  0  0  0  0  0  0  0
  -27.9646  -22.2535   18.6460 C   0  0  0  0  0  0  0  0  0  0  0  0
  -27.7581  -21.1100   17.8744 C   0  0  0  0  0  0  0  0  0  0  0  0
  -28.3447  -19.9010   18.2483 C   0  0  0  0  0  0  0  0  0  0  0  0
  -29.1379  -19.8355   19.3938 C   0  0  0  0  0  0  0  0  0  0  0  0
  -24.1234  -10.8358   20.6690 C   0  0  0  0  0  0  0  0  0  0  0  0
  -26.1374  -28.5175   17.7871 C   0  0  0  0  0  0  0  0  0  0  0  0
  -22.3470   -9.4439   20.0137 C   0  0  0  0  0  0  0  0  0  0  0  0
  -21.2678   -7.6474   18.1724 C   0  0  0  0  0  0  0  0  0  0  0  0
  -21.1474   -9.7433   19.3681 C   0  0  0  0  0  0  0  0  0  0  0  0
  -27.9748  -12.3922   19.8676 C   0  0  0  0  0  0  0  0  0  0  0  0
  -29.9887  -12.7483   19.0600 C   0  0  0  0  0  0  0  0  0  0  0  0
  -27.3736  -25.4680   16.7563 C   0  0  0  0  0  0  0  0  0  0  0  0
  -26.5920  -25.4567   15.6639 C   0  0  0  0  0  0  0  0  0  0  0  0
  -26.3720  -24.2782   14.8638 C   0  0  0  0  0  0  0  0  0  0  0  0
  -25.5907  -24.2718   13.7739 C   0  0  0  0  0  0  0  0  0  0  0  0
  -28.8167  -10.7901   18.0402 C   0  0  0  0  0  0  0  0  0  0  0  0
  -24.2657  -32.7593   20.6100 C   0  0  0  0  0  0  0  0  0  0  0  0
  -24.8425  -31.0769   23.3228 C   0  0  0  0  0  0  0  0  0  0  0  0
  -26.8378  -28.2274   24.2801 C   0  0  0  0  0  0  0  0  0  0  0  0
  -30.5555  -18.4032   20.9055 C   0  0  0  0  0  0  0  0  0  0  0  0
  -27.5568  -36.7524   22.0559 C   0  0  0  0  0  0  0  0  0  0  0  0
  -23.1349  -30.5663   20.0922 C   0  0  0  0  0  0  0  0  0  0  0  0
  -25.8494  -30.1679   21.1955 C   0  0  0  0  0  0  0  0  0  0  0  0
  -27.5319  -36.0358   20.7097 C   0  0  0  0  0  0  0  0  0  0  0  0
  -32.2056  -15.5490   22.2500 C   0  0  0  0  0  0  0  0  0  0  0  0
  -29.8136  -25.5807   18.2572 C   0  0  0  0  0  0  0  0  0  0  0  0
  -26.8152  -34.7006   20.8449 C   0  0  0  0  0  0  0  0  0  0  0  0
  -29.1350  -26.8749   17.8224 C   0  0  0  0  0  0  0  0  0  0  0  0
  -31.3968  -14.3710   21.7020 C   0  0  0  0  0  0  0  0  0  0  0  0
  -31.3125  -16.7408   22.5902 C   0  0  0  0  0  0  0  0  0  0  0  0
  -29.6212  -16.0074   20.9559 C   0  0  0  0  0  0  0  0  0  0  0  0
  -29.5144  -24.4418   17.2880 C   0  0  0  0  0  0  0  0  0  0  0  0
  -25.3490  -34.9060   21.2463 C   0  0  1  0  0  0  0  0  0  0  0  0
  -27.6327  -26.6787   17.6244 C   0  0  1  0  0  0  0  0  0  1  0  0
  -23.7061  -31.4823   21.1702 C   0  0  1  0  0  0  0  0  0  0  0  0
  -30.4852  -14.8064   20.5379 C   0  0  2  0  0  0  0  0  0  0  0  0
  -26.9067  -21.1834   16.6463 C   0  0  0  0  0  0  0  0  0  0  0  0
  -28.1216  -18.6751   17.4188 C   0  0  0  0  0  0  0  0  0  0  0  0
  -25.3516  -23.0609   12.9330 C   0  0  0  0  0  0  0  0  0  0  0  0
  -26.5213  -26.5616   26.1301 C   0  0  0  0  0  0  0  0  0  0  0  0
  -26.6758  -32.9277   24.9113 C   0  0  0  0  0  0  0  0  0  0  0  0
  -27.7345  -30.8967   25.9225 C   0  0  0  0  0  0  0  0  0  0  0  0
  -25.3136  -31.3607   26.3054 C   0  0  0  0  0  0  0  0  0  0  0  0
  -26.9373  -25.9450   22.3988 C   0  0  0  0  0  0  0  0  0  0  0  0
  -27.3456  -23.5664   18.2664 C   0  0  0  0  0  0  0  0  0  0  0  0
  -26.0801  -30.5761   24.0274 C   0  0  1  0  0  0  0  0  0  0  0  0
  -26.3301  -26.8449   24.6482 C   0  0  2  0  0  0  0  0  0  0  0  0
  -26.4503  -31.4437   25.2634 C   0  0  0  0  0  0  0  0  0  0  0  0
  -28.4179  -13.4619   20.5335 N   0  0  0  0  0  0  0  0  0  0  0  0
  -29.6451  -13.6538   20.0204 N   0  0  0  0  0  0  0  0  0  0  0  0
  -24.7776  -30.8484   21.9409 N   0  0  0  0  0  0  0  0  0  0  0  0
  -30.4807  -17.0993   21.4394 N   0  0  0  0  0  0  0  0  0  0  0  0
  -31.1868  -12.7962   18.4398 N   0  0  0  0  0  0  0  0  0  0  0  0
  -29.2494   -9.5344   18.4876 N   0  0  0  0  0  0  0  0  0  0  0  0
  -29.7433  -18.6180   19.7925 N   0  0  0  0  0  0  0  0  0  0  0  0
  -24.7632  -33.6231   21.5670 N   0  0  0  0  0  0  0  0  0  0  0  0
  -25.8343  -29.1714   24.3354 N   0  0  0  0  0  0  0  0  0  0  0  0
  -28.0303  -24.2258   17.1010 N   0  3  1  0  0  0  0  0  0  0  0  0
  -27.0590  -25.8019   23.8724 N   0  3  0  0  0  0  0  0  0  0  0  0
  -28.3768  -10.9073   16.8713 O   0  0  0  0  0  0  0  0  0  0  0  0
  -24.2488  -32.9464   19.3990 O   0  0  0  0  0  0  0  0  0  0  0  0
  -23.9624  -31.6434   23.9756 O   0  0  0  0  0  0  0  0  0  0  0  0
  -28.0083  -28.4485   23.9777 O   0  0  0  0  0  0  0  0  0  0  0  0
  -31.3065  -19.2578   21.3828 O   0  0  0  0  0  0  0  0  0  0  0  0
  -22.8844  -10.3350   20.9274 O   0  0  0  0  0  0  0  0  0  0  0  0
  -27.0839  -27.8649   17.0591 O   0  0  0  0  0  0  0  0  0  1  0  0
  -20.7505   -6.7854   17.2872 F   0  0  0  0  0  0  0  0  0  0  0  0
  -20.5093  -10.8929   19.6273 F   0  0  0  0  0  0  0  0  0  0  0  0
  1  2  1  0  0  0  0
  1  5  2  0  0  0  0
  2  6  2  0  0  0  0
  3 10  2  0  0  0  0
  3 17  1  0  0  0  0
  4 11  1  0  0  0  0
  4 17  2  0  0  0  0
  5 19  1  0  0  0  0
  6 21  1  0  0  0  0
  7 12  2  0  0  0  0
  7 20  1  0  0  0  0
  8  9  2  0  0  0  0
  8 23  1  0  0  0  0
  9 26  1  0  0  0  0
 10 27  1  0  0  0  0
 11 27  2  0  0  0  0
 12 28  1  0  0  0  0
 13 14  2  0  0  0  0
 13 29  1  0  0  0  0
 14 30  1  0  0  0  0
 15 22  1  0  0  0  0
 15 28  2  0  0  0  0
 16 30  2  0  0  0  0
 16 31  1  0  0  0  0
 17 32  1  0  0  0  0
 18 32  1  0  0  0  0
 18 33  2  0  0  0  0
 18 38  1  0  0  0  0
 19 21  2  0  0  0  0
 19 43  1  0  0  0  0
 20 22  2  0  0  0  0
 20 44  1  0  0  0  0
 21 55  1  0  0  0  0
 22 45  1  0  0  0  0
 23 24  2  0  0  0  0
 23 67  1  0  0  0  0
 24 25  1  0  0  0  0
 24 59  1  0  0  0  0
 25 26  2  0  0  0  0
 25 60  1  0  0  0  0
 26 77  1  0  0  0  0
 27 87  1  0  0  0  0
 28 88  1  0  0  0  0
 29 31  2  0  0  0  0
 29 87  1  0  0  0  0
 30 89  1  0  0  0  0
 31 90  1  0  0  0  0
 32 71  2  0  0  0  0
 33 72  1  0  0  0  0
 33 75  1  0  0  0  0
 34 35  2  0  0  0  0
 34 56  1  0  0  0  0
 34 80  1  0  0  0  0
 35 36  1  0  0  0  0
 36 37  2  0  0  0  0
 37 61  1  0  0  0  0
 38 76  1  0  0  0  0
 38 82  2  0  0  0  0
 39 57  1  0  0  0  0
 39 78  1  0  0  0  0
 39 83  2  0  0  0  0
 40 68  1  0  0  0  0
 40 73  1  0  0  0  0
 40 84  2  0  0  0  0
 41 69  1  0  0  0  0
 41 79  1  0  0  0  0
 41 85  2  0  0  0  0
 42 74  1  0  0  0  0
 42 77  1  0  0  0  0
 42 86  2  0  0  0  0
 43 46  1  0  0  0  0
 44 57  1  0  0  0  0
 45 73  1  0  0  0  0
 46 49  1  0  0  0  0
 47 51  1  0  0  0  0
 47 52  1  0  0  0  0
 48 50  1  0  0  0  0
 48 54  1  0  0  0  0
 49 55  1  0  0  0  0
 50 56  1  0  0  0  0
 51 58  1  0  0  0  0
 52 74  1  0  0  0  0
 53 58  1  0  0  0  0
 53 74  1  0  0  0  0
 54 80  1  0  0  0  0
 55 78  1  0  0  0  0
 56 88  1  0  0  0  0
 57 73  1  0  0  0  0
 58 72  1  0  0  0  0
 62 69  1  0  0  0  0
 63 70  1  0  0  0  0
 64 70  1  0  0  0  0
 65 70  1  0  0  0  0
 66 81  1  0  0  0  0
 67 80  1  0  0  0  0
 68 70  1  0  0  0  0
 68 79  1  0  0  0  0
 69 81  1  0  0  0  0
 71 72  1  0  0  0  0
M  CHG  2  80   1  81   1
M  ISO  4  42 100  56 101  77 100  88 101
M  END
> <Batch ID>
0038

> <Smiles>
CC=CC=C1N(Cc2ccc([100NH:0][100C:0](=O)N3CCCC(n4nc(-c5ccc(Oc6ccc(F)cc6F)cc5)c(C(N)=O)c4N)C3)c(C)c2C)CCC[101CH:1]1[101O:1]c1ccc2c(c1)CN(C(=O)C(NC(=O)C(C)NC)C(C)(C)C)C(C(=O)NC1CCCc3ccccc31)C2

> <Shape>
0.308

> <Color>
0.063

> <Negative vol penalty>
0.000

$$$$

  -OEChem-04042322003D

 87 96  0     1  0  0  0  0  0999 V2000
  -16.7701  -29.1754   24.2315 C   0  0  0  0  0  0  0  0  0  0  0  0
  -17.2228  -28.2253   23.3217 C   0  0  0  0  0  0  0  0  0  0  0  0
  -26.1575  -11.8785   21.2661 C   0  0  0  0  0  0  0  0  0  0  0  0
  -25.6577  -13.5458   19.5906 C   0  0  0  0  0  0  0  0  0  0  0  0
  -17.4577  -30.3791   24.3808 C   0  0  0  0  0  0  0  0  0  0  0  0
  -18.3628  -28.4788   22.5598 C   0  0  0  0  0  0  0  0  0  0  0  0
  -21.5022  -24.5092   22.3808 C   0  0  0  0  0  0  0  0  0  0  0  0
  -24.8036  -11.8004   21.5923 C   0  0  0  0  0  0  0  0  0  0  0  0
  -24.3037  -13.4677   19.9167 C   0  0  0  0  0  0  0  0  0  0  0  0
  -21.1645  -23.4689   21.5163 C   0  0  0  0  0  0  0  0  0  0  0  0
  -22.0183  -10.3523   20.3360 C   0  0  0  0  0  0  0  0  0  0  0  0
  -21.4622   -9.0832   20.4960 C   0  0  0  0  0  0  0  0  0  0  0  0
  -22.7364  -24.3151   19.8938 C   0  0  0  0  0  0  0  0  0  0  0  0
  -25.0441  -20.5794   22.5700 C   0  0  0  0  0  0  0  0  0  0  0  0
  -26.0963  -18.6811   21.5089 C   0  0  0  0  0  0  0  0  0  0  0  0
  -20.8768   -9.6271   22.7761 C   0  0  0  0  0  0  0  0  0  0  0  0
  -26.5846  -12.7513   20.2653 C   0  0  0  0  0  0  0  0  0  0  0  0
  -28.8059  -11.7926   19.4564 C   0  0  0  0  0  0  0  0  0  0  0  0
  -18.6123  -30.6435   23.6273 C   0  0  0  0  0  0  0  0  0  0  0  0
  -22.4531  -25.4682   22.0033 C   0  0  0  0  0  0  0  0  0  0  0  0
  -19.0658  -29.6877   22.6982 C   0  0  0  0  0  0  0  0  0  0  0  0
  -23.0862  -25.3652   20.7564 C   0  0  0  0  0  0  0  0  0  0  0  0
  -24.9478  -19.4118   21.8132 C   0  0  0  0  0  0  0  0  0  0  0  0
  -26.2891  -21.0165   23.0225 C   0  0  0  0  0  0  0  0  0  0  0  0
  -27.4376  -20.2859   22.7183 C   0  0  0  0  0  0  0  0  0  0  0  0
  -27.3413  -19.1181   21.9615 C   0  0  0  0  0  0  0  0  0  0  0  0
  -23.8767  -12.5949   20.9176 C   0  0  0  0  0  0  0  0  0  0  0  0
  -21.7795  -23.3734   20.2714 C   0  0  0  0  0  0  0  0  0  0  0  0
  -22.0037  -11.2589   21.3961 C   0  0  0  0  0  0  0  0  0  0  0  0
  -20.8914   -8.7206   21.7160 C   0  0  0  0  0  0  0  0  0  0  0  0
  -21.4329  -10.8963   22.6161 C   0  0  0  0  0  0  0  0  0  0  0  0
  -27.9831  -12.8328   19.9283 C   0  0  0  0  0  0  0  0  0  0  0  0
  -30.0371  -12.3778   19.2887 C   0  0  0  0  0  0  0  0  0  0  0  0
  -22.3741  -18.3156   19.3356 C   0  0  0  0  0  0  0  0  0  0  0  0
  -22.7650  -17.2617   18.6034 C   0  0  0  0  0  0  0  0  0  0  0  0
  -28.4859  -10.4200   19.1931 C   0  0  0  0  0  0  0  0  0  0  0  0
  -22.4069  -28.6130   21.5430 C   0  0  0  0  0  0  0  0  0  0  0  0
  -25.6047  -28.2133   21.1730 C   0  0  0  0  0  0  0  0  0  0  0  0
  -27.7930  -25.8377   19.5651 C   0  0  0  0  0  0  0  0  0  0  0  0
  -28.7135  -17.5685   20.5107 C   0  0  0  0  0  0  0  0  0  0  0  0
  -19.2949  -31.9786   23.7893 C   0  0  0  0  0  0  0  0  0  0  0  0
  -22.8258  -26.5690   22.9582 C   0  0  0  0  0  0  0  0  0  0  0  0
  -24.1283  -26.3575   20.3118 C   0  0  0  0  0  0  0  0  0  0  0  0
  -20.9289  -18.6394   19.6006 C   0  0  0  0  0  0  0  0  0  0  0  0
  -20.7086  -32.0136   23.2143 C   0  0  0  0  0  0  0  0  0  0  0  0
  -20.6407  -20.0964   19.2592 C   0  0  0  0  0  0  0  0  0  0  0  0
  -32.2052  -16.1672   21.3538 C   0  0  0  0  0  0  0  0  0  0  0  0
  -20.7345  -31.3891   21.8228 C   0  0  0  0  0  0  0  0  0  0  0  0
  -31.7592  -14.7627   20.9675 C   0  0  0  0  0  0  0  0  0  0  0  0
  -30.9923  -17.0737   21.5449 C   0  0  0  0  0  0  0  0  0  0  0  0
  -30.3702  -16.1562   19.3081 C   0  0  0  0  0  0  0  0  0  0  0  0
  -23.0953  -20.6250   19.5047 C   0  0  0  0  0  0  0  0  0  0  0  0
  -20.3126  -29.9156   21.8715 C   0  0  1  0  0  0  0  0  0  0  0  0
  -23.4326  -27.7835   22.2624 C   0  0  1  0  0  0  0  0  0  0  0  0
  -30.9454  -14.7684   19.6579 C   0  0  2  0  0  0  0  0  0  0  0  0
  -21.6744  -21.0302   19.8885 C   0  0  1  0  0  0  0  0  0  1  0  0
  -26.3646  -22.2712   23.8295 C   0  0  0  0  0  0  0  0  0  0  0  0
  -28.7711  -20.7597   23.2055 C   0  0  0  0  0  0  0  0  0  0  0  0
  -30.1608  -25.1892   20.0849 C   0  0  0  0  0  0  0  0  0  0  0  0
  -26.3336  -30.3288   19.0985 C   0  0  0  0  0  0  0  0  0  0  0  0
  -28.1714  -28.8224   18.3101 C   0  0  0  0  0  0  0  0  0  0  0  0
  -28.1953  -29.6995   20.6453 C   0  0  0  0  0  0  0  0  0  0  0  0
  -27.0829  -22.9729   19.7833 C   0  0  0  0  0  0  0  0  0  0  0  0
  -23.6089  -18.9424   21.3252 C   0  0  0  0  0  0  0  0  0  0  0  0
  -26.5175  -27.9191   20.0071 C   0  0  1  0  0  0  0  0  0  0  0  0
  -28.6935  -24.8245   20.2485 C   0  0  2  0  0  0  0  0  0  0  0  0
  -27.2775  -29.1833   19.5157 C   0  0  0  0  0  0  0  0  0  0  0  0
  -28.6366  -13.9911   20.0526 N   0  0  0  0  0  0  0  0  0  0  0  0
  -29.8830  -13.6821   19.6564 N   0  0  0  0  0  0  0  0  0  0  0  0
  -24.4539  -27.4193   21.2782 N   0  0  0  0  0  0  0  0  0  0  0  0
  -29.9807  -16.9340   20.4870 N   0  0  0  0  0  0  0  0  0  0  0  0
  -31.2257  -11.8988   18.8642 N   0  0  0  0  0  0  0  0  0  0  0  0
  -28.0402  -10.0720   17.9107 N   0  0  0  0  0  0  0  0  0  0  0  0
  -28.4957  -18.3597   21.6418 N   0  0  0  0  0  0  0  0  0  0  0  0
  -21.4003  -29.0943   22.3582 N   0  0  0  0  0  0  0  0  0  0  0  0
  -27.3865  -26.8279   20.4343 N   0  0  0  0  0  0  0  0  0  0  0  0
  -23.3974  -19.1889   19.8570 N   0  3  1  0  0  0  0  0  0  0  0  0
  -28.4791  -23.4678   19.6702 N   0  3  0  0  0  0  0  0  0  0  0  0
  -28.5763   -9.5313   20.0738 O   0  0  0  0  0  0  0  0  0  0  0  0
  -22.5212  -28.8035   20.3379 O   0  0  0  0  0  0  0  0  0  0  0  0
  -25.9054  -29.1097   21.9652 O   0  0  0  0  0  0  0  0  0  0  0  0
  -27.4843  -25.7607   18.3780 O   0  0  0  0  0  0  0  0  0  0  0  0
  -27.8978  -17.4202   19.5984 O   0  0  0  0  0  0  0  0  0  0  0  0
  -22.5554  -12.5188   21.2354 O   0  0  0  0  0  0  0  0  0  0  0  0
  -21.4513  -22.3593   19.4253 O   0  0  0  0  0  0  0  0  0  1  0  0
  -20.3561   -7.5023   21.8690 F   0  0  0  0  0  0  0  0  0  0  0  0
  -21.4148  -11.7633   23.6377 F   0  0  0  0  0  0  0  0  0  0  0  0
  1  2  1  0  0  0  0
  1  5  2  0  0  0  0
  2  6  2  0  0  0  0
  3  8  2  0  0  0  0
  3 17  1  0  0  0  0
  4  9  1  0  0  0  0
  4 17  2  0  0  0  0
  5 19  1  0  0  0  0
  6 21  1  0  0  0  0
  7 10  2  0  0  0  0
  7 20  1  0  0  0  0
  8 27  1  0  0  0  0
  9 27  2  0  0  0  0
 10 28  1  0  0  0  0
 11 12  2  0  0  0  0
 11 29  1  0  0  0  0
 12 30  1  0  0  0  0
 13 22  1  0  0  0  0
 13 28  2  0  0  0  0
 14 23  1  0  0  0  0
 14 24  2  0  0  0  0
 15 23  2  0  0  0  0
 15 26  1  0  0  0  0
 16 30  2  0  0  0  0
 16 31  1  0  0  0  0
 17 32  1  0  0  0  0
 18 32  1  0  0  0  0
 18 33  2  0  0  0  0
 18 36  1  0  0  0  0
 19 21  2  0  0  0  0
 19 41  1  0  0  0  0
 20 22  2  0  0  0  0
 20 42  1  0  0  0  0
 21 53  1  0  0  0  0
 22 43  1  0  0  0  0
 23 64  1  0  0  0  0
 24 25  1  0  0  0  0
 24 57  1  0  0  0  0
 25 26  2  0  0  0  0
 25 58  1  0  0  0  0
 26 74  1  0  0  0  0
 27 84  1  0  0  0  0
 28 85  1  0  0  0  0
 29 31  2  0  0  0  0
 29 84  1  0  0  0  0
 30 86  1  0  0  0  0
 31 87  1  0  0  0  0
 32 68  2  0  0  0  0
 33 69  1  0  0  0  0
 33 72  1  0  0  0  0
 34 35  2  0  0  0  0
 34 44  1  0  0  0  0
 34 77  1  0  0  0  0
 36 73  1  0  0  0  0
 36 79  2  0  0  0  0
 37 54  1  0  0  0  0
 37 75  1  0  0  0  0
 37 80  2  0  0  0  0
 38 65  1  0  0  0  0
 38 70  1  0  0  0  0
 38 81  2  0  0  0  0
 39 66  1  0  0  0  0
 39 76  1  0  0  0  0
 39 82  2  0  0  0  0
 40 71  1  0  0  0  0
 40 74  1  0  0  0  0
 40 83  2  0  0  0  0
 41 45  1  0  0  0  0
 42 54  1  0  0  0  0
 43 70  1  0  0  0  0
 44 46  1  0  0  0  0
 45 48  1  0  0  0  0
 46 56  1  0  0  0  0
 47 49  1  0  0  0  0
 47 50  1  0  0  0  0
 48 53  1  0  0  0  0
 49 55  1  0  0  0  0
 50 71  1  0  0  0  0
 51 55  1  0  0  0  0
 51 71  1  0  0  0  0
 52 56  1  0  0  0  0
 52 77  1  0  0  0  0
 53 75  1  0  0  0  0
 54 70  1  0  0  0  0
 55 69  1  0  0  0  0
 56 85  1  0  0  0  0
 59 66  1  0  0  0  0
 60 67  1  0  0  0  0
 61 67  1  0  0  0  0
 62 67  1  0  0  0  0
 63 78  1  0  0  0  0
 64 77  1  0  0  0  0
 65 67  1  0  0  0  0
 65 76  1  0  0  0  0
 66 78  1  0  0  0  0
 68 69  1  0  0  0  0
M  CHG  2  77   1  78   1
M  ISO  4  40 100  56 101  74 100  85 101
M  END
> <Batch ID>
0038

> <Smiles>
C=C1CC[101CH:1]([101O:1]c2ccc3c(c2)CN(C(=O)C(NC(=O)C(C)NC)C(C)(C)C)C(C(=O)NC2CCCc4ccccc42)C3)CN1Cc1cc(C)c(C)c([100NH:0][100C:0](=O)N2CCCC(n3nc(-c4ccc(Oc5ccc(F)cc5F)cc4)c(C(N)=O)c3N)C2)c1

> <Shape>
0.252

> <Color>
0.074

> <Negative vol penalty>
0.000

$$$$

  -OEChem-04042322003D

 89 98  0     1  0  0  0  0  0999 V2000
  -30.6994  -21.7201   20.3963 C   0  0  0  0  0  0  0  0  0  0  0  0
  -29.3748  -21.9524   20.0403 C   0  0  0  0  0  0  0  0  0  0  0  0
  -28.4313  -13.2019   21.2275 C   0  0  0  0  0  0  0  0  0  0  0  0
  -26.4313  -14.1123   20.2234 C   0  0  0  0  0  0  0  0  0  0  0  0
  -31.2483  -22.3727   21.4994 C   0  0  0  0  0  0  0  0  0  0  0  0
  -28.5979  -22.8367   20.7878 C   0  0  0  0  0  0  0  0  0  0  0  0
  -24.2150  -26.5645   18.6902 C   0  0  0  0  0  0  0  0  0  0  0  0
  -27.9318  -11.9114   21.0522 C   0  0  0  0  0  0  0  0  0  0  0  0
  -25.9319  -12.8218   20.0480 C   0  0  0  0  0  0  0  0  0  0  0  0
  -22.8256  -26.4540   18.6584 C   0  0  0  0  0  0  0  0  0  0  0  0
  -24.4419  -10.4487   21.9399 C   0  0  0  0  0  0  0  0  0  0  0  0
  -23.1101  -10.2170   22.2839 C   0  0  0  0  0  0  0  0  0  0  0  0
  -22.6832  -27.7325   20.6991 C   0  0  0  0  0  0  0  0  0  0  0  0
  -21.6313  -22.8040   21.4840 C   0  0  0  0  0  0  0  0  0  0  0  0
  -22.6384   -9.5523   20.0095 C   0  0  0  0  0  0  0  0  0  0  0  0
  -27.6810  -14.3024   20.8131 C   0  0  0  0  0  0  0  0  0  0  0  0
  -29.3845  -16.1680   20.4595 C   0  0  0  0  0  0  0  0  0  0  0  0
  -30.4805  -23.2728   22.2551 C   0  0  0  0  0  0  0  0  0  0  0  0
  -24.8507  -27.2517   19.7343 C   0  0  0  0  0  0  0  0  0  0  0  0
  -29.1366  -23.5010   21.9029 C   0  0  0  0  0  0  0  0  0  0  0  0
  -24.0807  -27.8525   20.7405 C   0  0  0  0  0  0  0  0  0  0  0  0
  -20.2648  -22.5515   21.6038 C   0  0  0  0  0  0  0  0  0  0  0  0
  -22.4613  -21.8705   20.8632 C   0  0  0  0  0  0  0  0  0  0  0  0
  -19.7282  -21.3654   21.1029 C   0  0  0  0  0  0  0  0  0  0  0  0
  -20.5581  -20.4318   20.4821 C   0  0  0  0  0  0  0  0  0  0  0  0
  -26.6822  -11.7213   20.4625 C   0  0  0  0  0  0  0  0  0  0  0  0
  -22.0596  -27.0355   19.6644 C   0  0  0  0  0  0  0  0  0  0  0  0
  -24.8719  -10.2324   20.6307 C   0  0  0  0  0  0  0  0  0  0  0  0
  -22.2084   -9.7687   21.3187 C   0  0  0  0  0  0  0  0  0  0  0  0
  -23.9702   -9.7841   19.6655 C   0  0  0  0  0  0  0  0  0  0  0  0
  -21.9247  -20.6844   20.3623 C   0  0  0  0  0  0  0  0  0  0  0  0
  -28.1961  -15.6357   20.9944 C   0  0  0  0  0  0  0  0  0  0  0  0
  -29.4203  -17.4609   20.9217 C   0  0  0  0  0  0  0  0  0  0  0  0
  -17.7138  -25.2992   22.0065 C   0  0  0  0  0  0  0  0  0  0  0  0
  -16.4126  -25.0001   22.1377 C   0  0  0  0  0  0  0  0  0  0  0  0
  -30.3681  -15.5491   19.6197 C   0  0  0  0  0  0  0  0  0  0  0  0
  -26.9189  -26.4544   22.0126 C   0  0  0  0  0  0  0  0  0  0  0  0
  -26.8993  -29.6436   22.6048 C   0  0  0  0  0  0  0  0  0  0  0  0
  -24.4388  -32.2778   22.7616 C   0  0  0  0  0  0  0  0  0  0  0  0
  -25.1609  -21.2736   22.7026 C   0  0  0  0  0  0  0  0  0  0  0  0
  -31.1035  -23.9186   23.4673 C   0  0  0  0  0  0  0  0  0  0  0  0
  -26.3489  -27.3848   19.7398 C   0  0  0  0  0  0  0  0  0  0  0  0
  -24.7134  -28.6183   21.8725 C   0  0  0  0  0  0  0  0  0  0  0  0
  -18.3176  -26.5774   22.5216 C   0  0  0  0  0  0  0  0  0  0  0  0
  -30.3236  -25.1252   23.9832 C   0  0  0  0  0  0  0  0  0  0  0  0
  -19.1242  -27.2624   21.4251 C   0  0  0  0  0  0  0  0  0  0  0  0
  -27.9694  -20.1671   24.5907 C   0  0  0  0  0  0  0  0  0  0  0  0
  -28.8342  -24.8048   24.0602 C   0  0  0  0  0  0  0  0  0  0  0  0
  -28.4532  -18.9283   23.8349 C   0  0  0  0  0  0  0  0  0  0  0  0
  -26.4466  -20.2803   24.5726 C   0  0  0  0  0  0  0  0  0  0  0  0
  -26.3218  -18.9940   22.4742 C   0  0  0  0  0  0  0  0  0  0  0  0
  -19.3391  -25.0548   20.2231 C   0  0  0  0  0  0  0  0  0  0  0  0
  -28.2691  -24.4719   22.6741 C   0  0  1  0  0  0  0  0  0  0  0  0
  -26.9185  -27.6679   21.1265 C   0  0  1  0  0  0  0  0  0  0  0  0
  -27.8537  -18.8669   22.4171 C   0  0  2  0  0  0  0  0  0  0  0  0
  -20.0803  -26.2836   20.7437 C   0  0  1  0  0  0  0  0  0  1  0  0
  -18.2628  -21.0955   21.2328 C   0  0  0  0  0  0  0  0  0  0  0  0
  -20.0049  -19.1556   19.9373 C   0  0  0  0  0  0  0  0  0  0  0  0
  -24.6646  -34.7465   22.3724 C   0  0  0  0  0  0  0  0  0  0  0  0
  -27.2886  -29.7912   25.6275 C   0  0  0  0  0  0  0  0  0  0  0  0
  -25.9485  -31.9061   25.6267 C   0  0  0  0  0  0  0  0  0  0  0  0
  -28.1016  -31.7954   24.3719 C   0  0  0  0  0  0  0  0  0  0  0  0
  -22.3048  -32.2671   20.7111 C   0  0  0  0  0  0  0  0  0  0  0  0
  -23.9220  -22.1437   20.7361 C   0  0  0  0  0  0  0  0  0  0  0  0
  -19.3939  -23.5725   22.2747 C   0  0  0  0  0  0  0  0  0  0  0  0
  -26.0822  -30.5636   23.4794 C   0  0  1  0  0  0  0  0  0  0  0  0
  -24.2568  -33.4116   21.7688 C   0  0  2  0  0  0  0  0  0  0  0  0
  -26.8443  -30.9900   24.7658 C   0  0  0  0  0  0  0  0  0  0  0  0
  -27.5255  -16.5183   21.7397 N   0  0  0  0  0  0  0  0  0  0  0  0
  -28.2952  -17.6182   21.6763 N   0  0  0  0  0  0  0  0  0  0  0  0
  -26.1821  -28.7152   21.8371 N   0  0  0  0  0  0  0  0  0  0  0  0
  -25.9419  -20.2168   23.1989 N   0  0  0  0  0  0  0  0  0  0  0  0
  -30.3042  -18.4671   20.7523 N   0  0  0  0  0  0  0  0  0  0  0  0
  -30.2094  -15.6349   18.2298 N   0  0  0  0  0  0  0  0  0  0  0  0
  -28.0605  -25.6826   21.9092 N   0  0  0  0  0  0  0  0  0  0  0  0
  -25.6730  -31.6772   22.6304 N   0  0  0  0  0  0  0  0  0  0  0  0
  -24.7285  -21.1368   21.3892 N   0  0  0  0  0  0  0  0  0  0  0  0
  -18.5529  -24.3573   21.3062 N   0  3  1  0  0  0  0  0  0  0  0  0
  -22.8314  -33.5039   21.3435 N   0  3  0  0  0  0  0  0  0  0  0  0
  -31.3497  -14.9241   20.0881 O   0  0  0  0  0  0  0  0  0  0  0  0
  -25.9555  -26.2354   22.7375 O   0  0  0  0  0  0  0  0  0  0  0  0
  -28.1282  -29.7498   22.5975 O   0  0  0  0  0  0  0  0  0  0  0  0
  -23.5741  -31.9593   23.5749 O   0  0  0  0  0  0  0  0  0  0  0  0
  -24.8750  -22.2680   23.3781 O   0  0  0  0  0  0  0  0  0  0  0  0
  -26.1946  -10.4622   20.2910 O   0  0  0  0  0  0  0  0  0  0  0  0
  -20.7033  -26.9286   19.6362 O   0  0  0  0  0  0  0  0  0  1  0  0
  -20.9299   -9.5447   21.6494 F   0  0  0  0  0  0  0  0  0  0  0  0
  -24.3777   -9.5733   18.4064 F   0  0  0  0  0  0  0  0  0  0  0  0
  -22.7237  -19.7872   19.7655 F   0  0  0  0  0  0  0  0  0  0  0  0
  1  2  1  0  0  0  0
  1  5  2  0  0  0  0
  2  6  2  0  0  0  0
  3  8  2  0  0  0  0
  3 16  1  0  0  0  0
  4  9  1  0  0  0  0
  4 16  2  0  0  0  0
  5 18  1  0  0  0  0
  6 20  1  0  0  0  0
  7 10  2  0  0  0  0
  7 19  1  0  0  0  0
  8 26  1  0  0  0  0
  9 26  2  0  0  0  0
 10 27  1  0  0  0  0
 11 12  2  0  0  0  0
 11 28  1  0  0  0  0
 12 29  1  0  0  0  0
 13 21  1  0  0  0  0
 13 27  2  0  0  0  0
 14 22  1  0  0  0  0
 14 23  2  0  0  0  0
 15 29  2  0  0  0  0
 15 30  1  0  0  0  0
 16 32  1  0  0  0  0
 17 32  1  0  0  0  0
 17 33  2  0  0  0  0
 17 36  1  0  0  0  0
 18 20  2  0  0  0  0
 18 41  1  0  0  0  0
 19 21  2  0  0  0  0
 19 42  1  0  0  0  0
 20 53  1  0  0  0  0
 21 43  1  0  0  0  0
 22 24  2  0  0  0  0
 22 65  1  0  0  0  0
 23 31  1  0  0  0  0
 23 64  1  0  0  0  0
 24 25  1  0  0  0  0
 24 57  1  0  0  0  0
 25 31  2  0  0  0  0
 25 58  1  0  0  0  0
 26 85  1  0  0  0  0
 27 86  1  0  0  0  0
 28 30  2  0  0  0  0
 28 85  1  0  0  0  0
 29 87  1  0  0  0  0
 30 88  1  0  0  0  0
 31 89  1  0  0  0  0
 32 69  2  0  0  0  0
 33 70  1  0  0  0  0
 33 73  1  0  0  0  0
 34 35  2  0  0  0  0
 34 44  1  0  0  0  0
 34 78  1  0  0  0  0
 36 74  1  0  0  0  0
 36 80  2  0  0  0  0
 37 54  1  0  0  0  0
 37 75  1  0  0  0  0
 37 81  2  0  0  0  0
 38 66  1  0  0  0  0
 38 71  1  0  0  0  0
 38 82  2  0  0  0  0
 39 67  1  0  0  0  0
 39 76  1  0  0  0  0
 39 83  2  0  0  0  0
 40 72  1  0  0  0  0
 40 77  1  0  0  0  0
 40 84  2  0  0  0  0
 41 45  1  0  0  0  0
 42 54  1  0  0  0  0
 43 71  1  0  0  0  0
 44 46  1  0  0  0  0
 45 48  1  0  0  0  0
 46 56  1  0  0  0  0
 47 49  1  0  0  0  0
 47 50  1  0  0  0  0
 48 53  1  0  0  0  0
 49 55  1  0  0  0  0
 50 72  1  0  0  0  0
 51 55  1  0  0  0  0
 51 72  1  0  0  0  0
 52 56  1  0  0  0  0
 52 78  1  0  0  0  0
 53 75  1  0  0  0  0
 54 71  1  0  0  0  0
 55 70  1  0  0  0  0
 56 86  1  0  0  0  0
 59 67  1  0  0  0  0
 60 68  1  0  0  0  0
 61 68  1  0  0  0  0
 62 68  1  0  0  0  0
 63 79  1  0  0  0  0
 64 77  1  0  0  0  0
 65 78  1  0  0  0  0
 66 68  1  0  0  0  0
 66 76  1  0  0  0  0
 67 79  1  0  0  0  0
 69 70  1  0  0  0  0
M  CHG  2  78   1  79   1
M  ISO  4  40 100  56 101  77 100  86 101
M  END
> <Batch ID>
0038

> <Smiles>
C=C1CC[101CH:1]([101O:1]c2ccc3c(c2)CN(C(=O)C(NC(=O)C(C)NC)C(C)(C)C)C(C(=O)NC2CCCc4ccccc42)C3)CN1Cc1cc(C[100NH:0][100C:0](=O)N2CCCC(n3nc(-c4ccc(Oc5ccc(F)cc5F)cc4)c(C(N)=O)c3N)C2)c(F)c(C)c1C

> <Shape>
0.230

> <Color>
0.071

> <Negative vol penalty>
0.000

$$$$

  -OEChem-04042322003D

 89 98  0     1  0  0  0  0  0999 V2000
  -29.2359  -31.4373   20.6896 C   0  0  0  0  0  0  0  0  0  0  0  0
  -28.6535  -30.1941   20.4648 C   0  0  0  0  0  0  0  0  0  0  0  0
  -24.1388  -12.9128   21.7483 C   0  0  0  0  0  0  0  0  0  0  0  0
  -25.3788  -12.2186   19.7944 C   0  0  0  0  0  0  0  0  0  0  0  0
  -28.7247  -32.2768   21.6785 C   0  0  0  0  0  0  0  0  0  0  0  0
  -27.5602  -29.7890   21.2297 C   0  0  0  0  0  0  0  0  0  0  0  0
  -23.8932  -27.7057   18.4265 C   0  0  0  0  0  0  0  0  0  0  0  0
  -24.0382  -11.5830   22.1569 C   0  0  0  0  0  0  0  0  0  0  0  0
  -25.2782  -10.8888   20.2030 C   0  0  0  0  0  0  0  0  0  0  0  0
  -24.0807  -26.3885   18.0100 C   0  0  0  0  0  0  0  0  0  0  0  0
  -23.1446   -8.3360   23.5287 C   0  0  0  0  0  0  0  0  0  0  0  0
  -21.9038   -7.8870   23.9808 C   0  0  0  0  0  0  0  0  0  0  0  0
  -22.6429  -25.6270   19.7911 C   0  0  0  0  0  0  0  0  0  0  0  0
  -27.9967  -23.0389   21.8777 C   0  0  0  0  0  0  0  0  0  0  0  0
  -20.9285   -8.4230   21.8364 C   0  0  0  0  0  0  0  0  0  0  0  0
  -24.8091  -13.2307   20.5670 C   0  0  0  0  0  0  0  0  0  0  0  0
  -23.8551  -15.4861   19.8524 C   0  0  0  0  0  0  0  0  0  0  0  0
  -27.6185  -31.8858   22.4493 C   0  0  0  0  0  0  0  0  0  0  0  0
  -23.0866  -27.9931   19.5370 C   0  0  0  0  0  0  0  0  0  0  0  0
  -27.0346  -30.6234   22.2308 C   0  0  0  0  0  0  0  0  0  0  0  0
  -22.4448  -26.9490   20.2181 C   0  0  0  0  0  0  0  0  0  0  0  0
  -25.4123  -23.8125   22.5885 C   0  0  0  0  0  0  0  0  0  0  0  0
  -25.6138  -22.6411   21.8583 C   0  0  0  0  0  0  0  0  0  0  0  0
  -26.5031  -24.5970   22.9632 C   0  0  0  0  0  0  0  0  0  0  0  0
  -26.9060  -22.2543   21.5030 C   0  0  0  0  0  0  0  0  0  0  0  0
  -24.6079  -10.5710   21.3843 C   0  0  0  0  0  0  0  0  0  0  0  0
  -23.4578  -25.3486   18.6941 C   0  0  0  0  0  0  0  0  0  0  0  0
  -23.2774   -8.8285   22.2305 C   0  0  0  0  0  0  0  0  0  0  0  0
  -20.7957   -7.9304   23.1347 C   0  0  0  0  0  0  0  0  0  0  0  0
  -22.1693   -8.8720   21.3843 C   0  0  0  0  0  0  0  0  0  0  0  0
  -27.7953  -24.2102   22.6078 C   0  0  0  0  0  0  0  0  0  0  0  0
  -24.9129  -14.6041   20.1440 C   0  0  0  0  0  0  0  0  0  0  0  0
  -24.4744  -16.6604   19.5004 C   0  0  0  0  0  0  0  0  0  0  0  0
  -22.4394  -15.2637   19.8960 C   0  0  0  0  0  0  0  0  0  0  0  0
  -23.5749  -29.3343   22.3772 C   0  0  0  0  0  0  0  0  0  0  0  0
  -20.3525  -29.0579   22.6272 C   0  0  0  0  0  0  0  0  0  0  0  0
  -17.8509  -26.5869   21.8186 C   0  0  0  0  0  0  0  0  0  0  0  0
  -28.3604  -20.5592   20.3379 C   0  0  0  0  0  0  0  0  0  0  0  0
  -27.1307  -32.8076   23.5388 C   0  0  0  0  0  0  0  0  0  0  0  0
  -22.8730  -29.4215   19.9573 C   0  0  0  0  0  0  0  0  0  0  0  0
  -21.5525  -27.2060   21.4040 C   0  0  0  0  0  0  0  0  0  0  0  0
  -25.7358  -32.4595   24.0520 C   0  0  0  0  0  0  0  0  0  0  0  0
  -21.2647  -21.2450   16.2010 C   0  0  0  0  0  0  0  0  0  0  0  0
  -21.0601  -22.7255   15.8978 C   0  0  0  0  0  0  0  0  0  0  0  0
  -29.3411  -17.6549   18.5267 C   0  0  0  0  0  0  0  0  0  0  0  0
  -25.6216  -30.9609   24.3129 C   0  0  0  0  0  0  0  0  0  0  0  0
  -21.5098  -21.0044   17.6884 C   0  0  0  0  0  0  0  0  0  0  0  0
  -28.1894  -16.6748   18.7620 C   0  0  0  0  0  0  0  0  0  0  0  0
  -22.2233  -23.5645   16.4122 C   0  0  0  0  0  0  0  0  0  0  0  0
  -29.6287  -18.5001   19.7663 C   0  0  0  0  0  0  0  0  0  0  0  0
  -27.3131  -18.2205   20.5592 C   0  0  0  0  0  0  0  0  0  0  0  0
  -25.8318  -30.1588   23.0230 C   0  0  1  0  0  0  0  0  0  0  0  0
  -22.4429  -29.5575   21.4147 C   0  0  1  0  0  0  0  0  0  0  0  0
  -22.6830  -21.8414   18.2165 C   0  0  1  0  0  0  0  0  0  0  0  0
  -26.9436  -17.3922   19.3178 C   0  0  2  0  0  0  0  0  0  0  0  0
  -22.4775  -23.3333   17.9027 C   0  0  1  0  0  0  0  0  0  1  0  0
  -24.0255  -24.2263   22.9691 C   0  0  0  0  0  0  0  0  0  0  0  0
  -26.2723  -25.8518   23.7468 C   0  0  0  0  0  0  0  0  0  0  0  0
  -15.4156  -26.8489   21.2728 C   0  0  0  0  0  0  0  0  0  0  0  0
  -19.9278  -28.5515   25.6060 C   0  0  0  0  0  0  0  0  0  0  0  0
  -17.8959  -27.2124   25.0176 C   0  0  0  0  0  0  0  0  0  0  0  0
  -17.9968  -29.6387   24.4469 C   0  0  0  0  0  0  0  0  0  0  0  0
  -18.1506  -25.1388   19.2550 C   0  0  0  0  0  0  0  0  0  0  0  0
  -24.4392  -21.7985   21.4561 C   0  0  0  0  0  0  0  0  0  0  0  0
  -22.8691  -21.6072   19.7180 C   0  0  0  0  0  0  0  0  0  0  0  0
  -19.4069  -27.9980   23.1385 C   0  0  1  0  0  0  0  0  0  0  0  0
  -16.8170  -26.6695   20.7102 C   0  0  2  0  0  0  0  0  0  0  0  0
  -18.8323  -28.3434   24.5414 C   0  0  0  0  0  0  0  0  0  0  0  0
  -26.1131  -15.1698   19.9904 N   0  0  0  0  0  0  0  0  0  0  0  0
  -25.8133  -16.4198   19.5984 N   0  0  0  0  0  0  0  0  0  0  0  0
  -21.3801  -28.6189   21.7803 N   0  0  0  0  0  0  0  0  0  0  0  0
  -28.4038  -19.1528   20.2336 N   0  0  0  0  0  0  0  0  0  0  0  0
  -23.9988  -17.8651   19.1196 N   0  0  0  0  0  0  0  0  0  0  0  0
  -21.8006  -14.7962   18.7394 N   0  0  0  0  0  0  0  0  0  0  0  0
  -27.1333  -21.0684   20.7616 N   0  0  0  0  0  0  0  0  0  0  0  0
  -24.6396  -30.1978   22.2036 N   0  0  0  0  0  0  0  0  0  0  0  0
  -18.3931  -27.8221   22.1043 N   0  0  0  0  0  0  0  0  0  0  0  0
  -16.8380  -25.4262   19.8886 N   0  3  0  0  0  0  0  0  0  0  0  0
  -21.7583  -15.4891   20.9250 O   0  0  0  0  0  0  0  0  0  0  0  0
  -23.4881  -28.4454   23.2163 O   0  0  0  0  0  0  0  0  0  0  0  0
  -20.1814  -30.2330   22.9610 O   0  0  0  0  0  0  0  0  0  0  0  0
  -18.1452  -25.5328   22.3779 O   0  0  0  0  0  0  0  0  0  0  0  0
  -29.3312  -21.2619   20.0448 O   0  0  0  0  0  0  0  0  0  0  0  0
  -24.5101   -9.2732   21.7829 O   0  0  0  0  0  0  0  0  0  0  0  0
  -23.6396  -24.0620   18.2900 O   0  0  0  0  0  0  0  0  0  1  0  0
  -24.1855  -21.9872   20.0678 O   0  0  0  0  0  0  0  0  0  0  0  0
  -19.6046   -7.4978   23.5684 F   0  0  0  0  0  0  0  0  0  0  0  0
  -22.2910   -9.3430   20.1357 F   0  0  0  0  0  0  0  0  0  0  0  0
  -29.1718  -25.1532   23.0522 Cl  0  0  0  0  0  0  0  0  0  0  0  0
  1  2  1  0  0  0  0
  1  5  2  0  0  0  0
  2  6  2  0  0  0  0
  3  8  2  0  0  0  0
  3 16  1  0  0  0  0
  4  9  1  0  0  0  0
  4 16  2  0  0  0  0
  5 18  1  0  0  0  0
  6 20  1  0  0  0  0
  7 10  2  0  0  0  0
  7 19  1  0  0  0  0
  8 26  1  0  0  0  0
  9 26  2  0  0  0  0
 10 27  1  0  0  0  0
 11 12  2  0  0  0  0
 11 28  1  0  0  0  0
 12 29  1  0  0  0  0
 13 21  1  0  0  0  0
 13 27  2  0  0  0  0
 14 25  2  0  0  0  0
 14 31  1  0  0  0  0
 15 29  2  0  0  0  0
 15 30  1  0  0  0  0
 16 32  1  0  0  0  0
 17 32  1  0  0  0  0
 17 33  2  0  0  0  0
 17 34  1  0  0  0  0
 18 20  2  0  0  0  0
 18 39  1  0  0  0  0
 19 21  2  0  0  0  0
 19 40  1  0  0  0  0
 20 52  1  0  0  0  0
 21 41  1  0  0  0  0
 22 23  2  0  0  0  0
 22 24  1  0  0  0  0
 22 57  1  0  0  0  0
 23 25  1  0  0  0  0
 23 64  1  0  0  0  0
 24 31  2  0  0  0  0
 24 58  1  0  0  0  0
 25 75  1  0  0  0  0
 26 84  1  0  0  0  0
 27 85  1  0  0  0  0
 28 30  2  0  0  0  0
 28 84  1  0  0  0  0
 29 87  1  0  0  0  0
 30 88  1  0  0  0  0
 31 89  1  0  0  0  0
 32 69  2  0  0  0  0
 33 70  1  0  0  0  0
 33 73  1  0  0  0  0
 34 74  1  0  0  0  0
 34 79  2  0  0  0  0
 35 53  1  0  0  0  0
 35 76  1  0  0  0  0
 35 80  2  0  0  0  0
 36 66  1  0  0  0  0
 36 71  1  0  0  0  0
 36 81  2  0  0  0  0
 37 67  1  0  0  0  0
 37 77  1  0  0  0  0
 37 82  2  0  0  0  0
 38 72  1  0  0  0  0
 38 75  1  0  0  0  0
 38 83  2  0  0  0  0
 39 42  1  0  0  0  0
 40 53  1  0  0  0  0
 41 71  1  0  0  0  0
 42 46  1  0  0  0  0
 43 44  1  0  0  0  0
 43 47  1  0  0  0  0
 44 49  1  0  0  0  0
 45 48  1  0  0  0  0
 45 50  1  0  0  0  0
 46 52  1  0  0  0  0
 47 54  1  0  0  0  0
 48 55  1  0  0  0  0
 49 56  1  0  0  0  0
 50 72  1  0  0  0  0
 51 55  1  0  0  0  0
 51 72  1  0  0  0  0
 52 76  1  0  0  0  0
 53 71  1  0  0  0  0
 54 56  1  0  0  0  0
 54 65  1  0  0  0  0
 55 70  1  0  0  0  0
 56 85  1  0  0  0  0
 59 67  1  0  0  0  0
 60 68  1  0  0  0  0
 61 68  1  0  0  0  0
 62 68  1  0  0  0  0
 63 78  1  0  0  0  0
 64 86  1  0  0  0  0
 65 86  1  0  0  0  0
 66 68  1  0  0  0  0
 66 77  1  0  0  0  0
 67 78  1  0  0  0  0
 69 70  1  0  0  0  0
M  CHG  1  78   1
M  ISO  4  38 100  56 101  75 100  85 101
M  END
> <Batch ID>
0038

> <Smiles>
CNC(C)C(=O)NC(C(=O)N1Cc2cc([101O:1][101CH:1]3CCCCC3COCc3c([100NH:0][100C:0](=O)N4CCCC(n5nc(-c6ccc(Oc7ccc(F)cc7F)cc6)c(C(N)=O)c5N)C4)cc(Cl)c(C)c3C)ccc2CC1C(=O)NC1CCCc2ccccc21)C(C)(C)C

> <Shape>
0.258

> <Color>
0.048

> <Negative vol penalty>
0.000

$$$$

  -OEChem-04042322003D

 84 92  0     1  0  0  0  0  0999 V2000
  -28.0258  -12.4323   17.8247 C   0  0  0  0  0  0  0  0  0  0  0  0
  -27.5212  -13.6708   17.4412 C   0  0  0  0  0  0  0  0  0  0  0  0
  -28.4752  -24.3782   18.5291 C   0  0  0  0  0  0  0  0  0  0  0  0
  -27.2437  -23.3642   20.3436 C   0  0  0  0  0  0  0  0  0  0  0  0
  -27.4738  -11.7637   18.9165 C   0  0  0  0  0  0  0  0  0  0  0  0
  -26.4636  -14.2409   18.1488 C   0  0  0  0  0  0  0  0  0  0  0  0
  -23.8897  -20.6136   20.1689 C   0  0  0  0  0  0  0  0  0  0  0  0
  -17.8203  -26.8777   22.1488 C   0  0  0  0  0  0  0  0  0  0  0  0
  -29.5023  -23.4517   18.7084 C   0  0  0  0  0  0  0  0  0  0  0  0
  -28.2708  -22.4376   20.5229 C   0  0  0  0  0  0  0  0  0  0  0  0
  -22.7134  -21.3610   20.1318 C   0  0  0  0  0  0  0  0  0  0  0  0
  -30.4065  -19.5798   21.2228 C   0  0  0  0  0  0  0  0  0  0  0  0
  -30.0512  -18.2423   21.3976 C   0  0  0  0  0  0  0  0  0  0  0  0
  -17.8529  -28.2235   21.7838 C   0  0  0  0  0  0  0  0  0  0  0  0
  -21.8913  -20.1509   22.0499 C   0  0  0  0  0  0  0  0  0  0  0  0
  -28.9791  -18.2441   19.2325 C   0  0  0  0  0  0  0  0  0  0  0  0
  -27.3459  -24.3345   19.3467 C   0  0  0  0  0  0  0  0  0  0  0  0
  -25.1593  -25.1627   18.3266 C   0  0  0  0  0  0  0  0  0  0  0  0
  -26.4152  -12.3303   19.6438 C   0  0  0  0  0  0  0  0  0  0  0  0
  -24.0715  -19.6201   21.1417 C   0  0  0  0  0  0  0  0  0  0  0  0
  -25.8960  -13.5786   19.2506 C   0  0  0  0  0  0  0  0  0  0  0  0
  -23.0720  -19.3941   22.0988 C   0  0  0  0  0  0  0  0  0  0  0  0
  -18.8145  -26.3551   22.9758 C   0  0  0  0  0  0  0  0  0  0  0  0
  -19.8414  -27.1782   23.4378 C   0  0  0  0  0  0  0  0  0  0  0  0
  -19.8741  -28.5241   23.0728 C   0  0  0  0  0  0  0  0  0  0  0  0
  -29.4002  -22.4814   19.7053 C   0  0  0  0  0  0  0  0  0  0  0  0
  -21.7127  -21.1277   21.0707 C   0  0  0  0  0  0  0  0  0  0  0  0
  -30.0480  -20.2494   20.0528 C   0  0  0  0  0  0  0  0  0  0  0  0
  -29.3376  -17.5744   20.4025 C   0  0  0  0  0  0  0  0  0  0  0  0
  -29.3344  -19.5815   19.0577 C   0  0  0  0  0  0  0  0  0  0  0  0
  -18.8798  -29.0467   22.2457 C   0  0  0  0  0  0  0  0  0  0  0  0
  -26.2848  -25.2917   19.1624 C   0  0  0  0  0  0  0  0  0  0  0  0
  -24.4615  -26.3318   18.5076 C   0  0  0  0  0  0  0  0  0  0  0  0
  -24.7786  -24.0826   17.4640 C   0  0  0  0  0  0  0  0  0  0  0  0
  -24.5027  -16.4715   21.0790 C   0  0  0  0  0  0  0  0  0  0  0  0
  -24.9415  -16.8600   24.2695 C   0  0  0  0  0  0  0  0  0  0  0  0
  -24.3686  -18.7299   27.0662 C   0  0  0  0  0  0  0  0  0  0  0  0
  -23.1536  -30.1612   22.6475 C   0  0  0  0  0  0  0  0  0  0  0  0
  -25.8200  -11.5483   20.7878 C   0  0  0  0  0  0  0  0  0  0  0  0
  -25.3574  -18.8409   21.1846 C   0  0  0  0  0  0  0  0  0  0  0  0
  -23.2265  -18.3530   23.1761 C   0  0  0  0  0  0  0  0  0  0  0  0
  -24.9484  -12.3923   21.7143 C   0  0  0  0  0  0  0  0  0  0  0  0
  -25.6024  -30.8508   20.1567 C   0  0  0  0  0  0  0  0  0  0  0  0
  -23.9944  -13.2632   20.9030 C   0  0  0  0  0  0  0  0  0  0  0  0
  -25.9233  -29.4756   19.5687 C   0  0  0  0  0  0  0  0  0  0  0  0
  -25.3405  -30.7750   21.6592 C   0  0  0  0  0  0  0  0  0  0  0  0
  -24.6330  -28.4216   21.4721 C   0  0  0  0  0  0  0  0  0  0  0  0
  -24.7658  -14.2410   20.0083 C   0  0  1  0  0  0  0  0  0  0  0  0
  -25.2211  -17.5021   21.9032 C   0  0  1  0  0  0  0  0  0  0  0  0
  -24.8496  -28.4385   19.9492 C   0  0  2  0  0  0  0  0  0  0  0  0
  -20.9060  -26.6139   24.3249 C   0  0  0  0  0  0  0  0  0  0  0  0
  -24.8220  -18.7731   29.5340 C   0  0  0  0  0  0  0  0  0  0  0  0
  -22.8067  -14.7222   24.6967 C   0  0  0  0  0  0  0  0  0  0  0  0
  -22.6253  -15.4781   27.0766 C   0  0  0  0  0  0  0  0  0  0  0  0
  -24.7780  -14.5482   26.2258 C   0  0  0  0  0  0  0  0  0  0  0  0
  -25.8603  -21.2781   26.8651 C   0  0  0  0  0  0  0  0  0  0  0  0
  -20.9825  -29.3964   23.5755 C   0  0  0  0  0  0  0  0  0  0  0  0
  -18.7538  -24.9045   23.3541 C   0  0  0  0  0  0  0  0  0  0  0  0
  -19.5647  -24.0396   21.1557 C   0  0  0  0  0  0  0  0  0  0  0  0
  -20.6526  -23.1874   20.5325 C   0  0  0  0  0  0  0  0  0  1  0  0
  -24.0416  -16.8495   25.4815 C   0  0  1  0  0  0  0  0  0  0  0  0
  -25.3010  -19.2172   28.1606 C   0  0  2  0  0  0  0  0  0  0  0  0
  -23.5589  -15.4179   25.8488 C   0  0  0  0  0  0  0  0  0  0  0  0
  -26.3049  -26.4513   19.8248 N   0  0  0  0  0  0  0  0  0  0  0  0
  -25.1835  -27.0617   19.4054 N   0  0  0  0  0  0  0  0  0  0  0  0
  -24.4992  -17.6128   23.1724 N   0  0  0  0  0  0  0  0  0  0  0  0
  -24.3114  -29.7746   21.9526 N   0  0  0  0  0  0  0  0  0  0  0  0
  -23.3070  -26.7964   17.9846 N   0  0  0  0  0  0  0  0  0  0  0  0
  -25.6096  -22.9559   17.3974 N   0  0  0  0  0  0  0  0  0  0  0  0
  -25.2625  -15.3548   20.7875 N   0  0  0  0  0  0  0  0  0  0  0  0
  -24.7806  -17.5219   26.5445 N   0  0  0  0  0  0  0  0  0  0  0  0
  -22.2260  -29.1528   22.8788 N   0  0  0  0  0  0  0  0  0  0  0  0
  -25.3803  -20.7053   28.1490 N   0  3  0  0  0  0  0  0  0  0  0  0
  -19.7497  -24.0706   22.6284 N   0  3  0  0  0  0  0  0  0  0  0  0
  -23.7409  -24.1225   16.7603 O   0  0  0  0  0  0  0  0  0  0  0  0
  -23.3442  -16.6737   20.7344 O   0  0  0  0  0  0  0  0  0  0  0  0
  -26.0014  -16.2295   24.2977 O   0  0  0  0  0  0  0  0  0  0  0  0
  -23.3721  -19.3563   26.7124 O   0  0  0  0  0  0  0  0  0  0  0  0
  -22.9583  -31.3203   23.0286 O   0  0  0  0  0  0  0  0  0  0  0  0
  -30.4022  -21.5770   19.8804 O   0  0  0  0  0  0  0  0  0  0  0  0
  -20.5632  -21.8553   21.0363 O   0  0  0  0  0  0  0  0  0  1  0  0
  -28.9978  -16.2896   20.5699 F   0  0  0  0  0  0  0  0  0  0  0  0
  -28.9882  -20.2193   17.9310 F   0  0  0  0  0  0  0  0  0  0  0  0
  -18.8844  -30.7067   21.7711 Cl  0  0  0  0  0  0  0  0  0  0  0  0
  1  2  1  0  0  0  0
  1  5  2  0  0  0  0
  2  6  2  0  0  0  0
  3  9  2  0  0  0  0
  3 17  1  0  0  0  0
  4 10  1  0  0  0  0
  4 17  2  0  0  0  0
  5 19  1  0  0  0  0
  6 21  1  0  0  0  0
  7 11  2  0  0  0  0
  7 20  1  0  0  0  0
  8 14  2  0  0  0  0
  8 23  1  0  0  0  0
  9 26  1  0  0  0  0
 10 26  2  0  0  0  0
 11 27  1  0  0  0  0
 12 13  2  0  0  0  0
 12 28  1  0  0  0  0
 13 29  1  0  0  0  0
 14 31  1  0  0  0  0
 15 22  1  0  0  0  0
 15 27  2  0  0  0  0
 16 29  2  0  0  0  0
 16 30  1  0  0  0  0
 17 32  1  0  0  0  0
 18 32  1  0  0  0  0
 18 33  2  0  0  0  0
 18 34  1  0  0  0  0
 19 21  2  0  0  0  0
 19 39  1  0  0  0  0
 20 22  2  0  0  0  0
 20 40  1  0  0  0  0
 21 48  1  0  0  0  0
 22 41  1  0  0  0  0
 23 24  2  0  0  0  0
 23 58  1  0  0  0  0
 24 25  1  0  0  0  0
 24 51  1  0  0  0  0
 25 31  2  0  0  0  0
 25 57  1  0  0  0  0
 26 80  1  0  0  0  0
 27 81  1  0  0  0  0
 28 30  2  0  0  0  0
 28 80  1  0  0  0  0
 29 82  1  0  0  0  0
 30 83  1  0  0  0  0
 31 84  1  0  0  0  0
 32 64  2  0  0  0  0
 33 65  1  0  0  0  0
 33 68  1  0  0  0  0
 34 69  1  0  0  0  0
 34 75  2  0  0  0  0
 35 49  1  0  0  0  0
 35 70  1  0  0  0  0
 35 76  2  0  0  0  0
 36 61  1  0  0  0  0
 36 66  1  0  0  0  0
 36 77  2  0  0  0  0
 37 62  1  0  0  0  0
 37 71  1  0  0  0  0
 37 78  2  0  0  0  0
 38 67  1  0  0  0  0
 38 72  1  0  0  0  0
 38 79  2  0  0  0  0
 39 42  1  0  0  0  0
 40 49  1  0  0  0  0
 41 66  1  0  0  0  0
 42 44  1  0  0  0  0
 43 45  1  0  0  0  0
 43 46  1  0  0  0  0
 44 48  1  0  0  0  0
 45 50  1  0  0  0  0
 46 67  1  0  0  0  0
 47 50  1  0  0  0  0
 47 67  1  0  0  0  0
 48 70  1  0  0  0  0
 49 66  1  0  0  0  0
 50 65  1  0  0  0  0
 52 62  1  0  0  0  0
 53 63  1  0  0  0  0
 54 63  1  0  0  0  0
 55 63  1  0  0  0  0
 56 73  1  0  0  0  0
 57 72  1  0  0  0  0
 58 74  1  0  0  0  0
 59 60  1  0  0  0  0
 59 74  1  0  0  0  0
 60 81  1  0  0  0  0
 61 63  1  0  0  0  0
 61 71  1  0  0  0  0
 62 73  1  0  0  0  0
 64 65  1  0  0  0  0
M  CHG  2  73   1  74   1
M  ISO  4  38 100  60 101  72 100  81 101
M  END
> <Batch ID>
0038

> <Smiles>
CNC(C)C(=O)NC(C(=O)N1Cc2cc([101O:1][101CH2:1]CNCc3ccc(Cl)c(C[100NH:0][100C:0](=O)N4CCCC(n5nc(-c6ccc(Oc7ccc(F)cc7F)cc6)c(C(N)=O)c5N)C4)c3C)ccc2CC1C(=O)NC1CCCc2ccccc21)C(C)(C)C

> <Shape>
0.227

> <Color>
0.074

> <Negative vol penalty>
0.000

$$$$

  -OEChem-04042322003D

 86 95  0     1  0  0  0  0  0999 V2000
  -29.4169  -12.8804   18.8324 C   0  0  0  0  0  0  0  0  0  0  0  0
  -28.2619  -13.0586   18.0775 C   0  0  0  0  0  0  0  0  0  0  0  0
  -29.4266  -26.6836   20.3011 C   0  0  0  0  0  0  0  0  0  0  0  0
  -27.4837  -25.4305   21.0023 C   0  0  0  0  0  0  0  0  0  0  0  0
  -29.3506  -12.9155   20.2246 C   0  0  0  0  0  0  0  0  0  0  0  0
  -27.0398  -13.2710   18.7146 C   0  0  0  0  0  0  0  0  0  0  0  0
  -23.1920  -19.2308   17.4633 C   0  0  0  0  0  0  0  0  0  0  0  0
  -18.9006  -27.4631   20.4503 C   0  0  0  0  0  0  0  0  0  0  0  0
  -18.6002  -26.2917   19.7552 C   0  0  0  0  0  0  0  0  0  0  0  0
  -30.2473  -25.6184   20.6715 C   0  0  0  0  0  0  0  0  0  0  0  0
  -28.3044  -24.3652   21.3726 C   0  0  0  0  0  0  0  0  0  0  0  0
  -22.2979  -20.2444   17.1178 C   0  0  0  0  0  0  0  0  0  0  0  0
  -29.8571  -21.1754   22.1679 C   0  0  0  0  0  0  0  0  0  0  0  0
  -29.4632  -19.8912   21.7921 C   0  0  0  0  0  0  0  0  0  0  0  0
  -20.7285  -19.4383   18.7717 C   0  0  0  0  0  0  0  0  0  0  0  0
  -29.5454  -20.5461   19.4680 C   0  0  0  0  0  0  0  0  0  0  0  0
  -28.0447  -26.5897   20.4666 C   0  0  0  0  0  0  0  0  0  0  0  0
  -27.0654  -28.2574   18.8030 C   0  0  0  0  0  0  0  0  0  0  0  0
  -28.1287  -13.1380   20.8789 C   0  0  0  0  0  0  0  0  0  0  0  0
  -22.8639  -18.3254   18.4762 C   0  0  0  0  0  0  0  0  0  0  0  0
  -26.9570  -13.3077   20.1169 C   0  0  0  0  0  0  0  0  0  0  0  0
  -21.6254  -18.4286   19.1307 C   0  0  0  0  0  0  0  0  0  0  0  0
  -19.5178  -27.3942   21.6993 C   0  0  0  0  0  0  0  0  0  0  0  0
  -19.8345  -26.1538   22.2532 C   0  0  0  0  0  0  0  0  0  0  0  0
  -19.5341  -24.9824   21.5581 C   0  0  0  0  0  0  0  0  0  0  0  0
  -18.9169  -25.0513   20.3091 C   0  0  0  0  0  0  0  0  0  0  0  0
  -29.6863  -24.4591   21.2072 C   0  0  0  0  0  0  0  0  0  0  0  0
  -21.0691  -20.3477   17.7702 C   0  0  0  0  0  0  0  0  0  0  0  0
  -30.0951  -22.1450   21.1938 C   0  0  0  0  0  0  0  0  0  0  0  0
  -29.3074  -19.5765   20.4422 C   0  0  0  0  0  0  0  0  0  0  0  0
  -29.9393  -21.8304   19.8439 C   0  0  0  0  0  0  0  0  0  0  0  0
  -27.1965  -27.6900   20.0847 C   0  0  0  0  0  0  0  0  0  0  0  0
  -26.1449  -29.2637   18.9655 C   0  0  0  0  0  0  0  0  0  0  0  0
  -27.7174  -27.9061   17.5753 C   0  0  0  0  0  0  0  0  0  0  0  0
  -23.9075  -15.3554   20.5173 C   0  0  0  0  0  0  0  0  0  0  0  0
  -22.5006  -17.2998   22.4279 C   0  0  0  0  0  0  0  0  0  0  0  0
  -21.2672  -19.8901   24.2736 C   0  0  0  0  0  0  0  0  0  0  0  0
  -21.7425  -30.1628   22.9230 C   0  0  0  0  0  0  0  0  0  0  0  0
  -28.0989  -13.1204   22.3867 C   0  0  0  0  0  0  0  0  0  0  0  0
  -23.7703  -17.1806   18.8390 C   0  0  0  0  0  0  0  0  0  0  0  0
  -21.3004  -17.4114   20.1902 C   0  0  0  0  0  0  0  0  0  0  0  0
  -26.8274  -13.7239   22.9778 C   0  0  0  0  0  0  0  0  0  0  0  0
  -24.4864  -32.3279   22.2444 C   0  0  0  0  0  0  0  0  0  0  0  0
  -16.9318  -22.1610   19.0470 C   0  0  0  0  0  0  0  0  0  0  0  0
  -25.5957  -13.1858   22.2565 C   0  0  0  0  0  0  0  0  0  0  0  0
  -25.4803  -31.4360   21.4983 C   0  0  0  0  0  0  0  0  0  0  0  0
  -17.8988  -21.5672   18.0338 C   0  0  0  0  0  0  0  0  0  0  0  0
  -17.1938  -23.6489   19.2677 C   0  0  0  0  0  0  0  0  0  0  0  0
  -23.7471  -31.5582   23.3367 C   0  0  0  0  0  0  0  0  0  0  0  0
  -24.0752  -29.4314   22.1356 C   0  0  0  0  0  0  0  0  0  0  0  0
  -19.6016  -23.3155   18.6838 C   0  0  0  0  0  0  0  0  0  0  0  0
  -25.6168  -13.5652   20.7708 C   0  0  1  0  0  0  0  0  0  0  0  0
  -23.7357  -16.8353   20.3386 C   0  0  1  0  0  0  0  0  0  0  0  0
  -24.8048  -30.1491   20.9873 C   0  0  2  0  0  0  0  0  0  0  0  0
  -19.3397  -21.8261   18.4556 C   0  0  2  0  0  0  0  0  0  1  0  0
  -20.4966  -26.0827   23.5930 C   0  0  0  0  0  0  0  0  0  0  0  0
  -19.8744  -23.6522   22.1540 C   0  0  0  0  0  0  0  0  0  0  0  0
  -20.6826  -20.5273   26.6293 C   0  0  0  0  0  0  0  0  0  0  0  0
  -19.9701  -15.6056   22.2544 C   0  0  0  0  0  0  0  0  0  0  0  0
  -19.0107  -16.9750   24.1179 C   0  0  0  0  0  0  0  0  0  0  0  0
  -21.0670  -15.6159   24.5019 C   0  0  0  0  0  0  0  0  0  0  0  0
  -23.2251  -22.1094   24.2822 C   0  0  0  0  0  0  0  0  0  0  0  0
  -19.8291  -28.6640   22.4217 C   0  0  0  0  0  0  0  0  0  0  0  0
  -21.2104  -17.7095   23.0918 C   0  0  1  0  0  0  0  0  0  0  0  0
  -21.7591  -20.5380   25.5552 C   0  0  2  0  0  0  0  0  0  0  0  0
  -20.3236  -16.4890   23.4676 C   0  0  0  0  0  0  0  0  0  0  0  0
  -26.4213  -28.2865   20.9943 N   0  0  0  0  0  0  0  0  0  0  0  0
  -25.7944  -29.2391   20.2833 N   0  0  0  0  0  0  0  0  0  0  0  0
  -18.6064  -23.8869   19.5957 N   0  0  1  0  0  0  0  0  0  0  0  0
  -22.4813  -17.1700   21.0339 N   0  0  0  0  0  0  0  0  0  0  0  0
  -23.1279  -30.3502   22.7861 N   0  0  0  0  0  0  0  0  0  0  0  0
  -25.6092  -30.1584   18.1082 N   0  0  0  0  0  0  0  0  0  0  0  0
  -27.1117  -26.9520   16.7464 N   0  0  0  0  0  0  0  0  0  0  0  0
  -25.2254  -14.9476   20.5966 N   0  0  0  0  0  0  0  0  0  0  0  0
  -21.5832  -18.5488   24.2255 N   0  0  0  0  0  0  0  0  0  0  0  0
  -21.2357  -28.9945   22.3672 N   0  0  0  0  0  0  0  0  0  0  0  0
  -22.1559  -21.9519   25.3015 N   0  3  0  0  0  0  0  0  0  0  0  0
  -28.8131  -28.4109   17.2317 O   0  0  0  0  0  0  0  0  0  0  0  0
  -22.9178  -14.6355   20.5803 O   0  0  0  0  0  0  0  0  0  0  0  0
  -23.4986  -17.0942   23.1245 O   0  0  0  0  0  0  0  0  0  0  0  0
  -20.6598  -20.5108   23.4039 O   0  0  0  0  0  0  0  0  0  0  0  0
  -21.0107  -30.9790   23.4933 O   0  0  0  0  0  0  0  0  0  0  0  0
  -30.4868  -23.4193   21.5685 O   0  0  0  0  0  0  0  0  0  0  0  0
  -20.2027  -21.3423   17.4311 O   0  0  0  0  0  0  0  0  0  1  0  0
  -28.9307  -18.3428   20.0813 F   0  0  0  0  0  0  0  0  0  0  0  0
  -30.1676  -22.7574   18.9034 F   0  0  0  0  0  0  0  0  0  0  0  0
  1  2  1  0  0  0  0
  1  5  2  0  0  0  0
  2  6  2  0  0  0  0
  3 10  2  0  0  0  0
  3 17  1  0  0  0  0
  4 11  1  0  0  0  0
  4 17  2  0  0  0  0
  5 19  1  0  0  0  0
  6 21  1  0  0  0  0
  7 12  2  0  0  0  0
  7 20  1  0  0  0  0
  8  9  2  0  0  0  0
  8 23  1  0  0  0  0
  9 26  1  0  0  0  0
 10 27  1  0  0  0  0
 11 27  2  0  0  0  0
 12 28  1  0  0  0  0
 13 14  2  0  0  0  0
 13 29  1  0  0  0  0
 14 30  1  0  0  0  0
 15 22  1  0  0  0  0
 15 28  2  0  0  0  0
 16 30  2  0  0  0  0
 16 31  1  0  0  0  0
 17 32  1  0  0  0  0
 18 32  1  0  0  0  0
 18 33  2  0  0  0  0
 18 34  1  0  0  0  0
 19 21  2  0  0  0  0
 19 39  1  0  0  0  0
 20 22  2  0  0  0  0
 20 40  1  0  0  0  0
 21 52  1  0  0  0  0
 22 41  1  0  0  0  0
 23 24  2  0  0  0  0
 23 63  1  0  0  0  0
 24 25  1  0  0  0  0
 24 56  1  0  0  0  0
 25 26  2  0  0  0  0
 25 57  1  0  0  0  0
 26 69  1  0  0  0  0
 27 83  1  0  0  0  0
 28 84  1  0  0  0  0
 29 31  2  0  0  0  0
 29 83  1  0  0  0  0
 30 85  1  0  0  0  0
 31 86  1  0  0  0  0
 32 67  2  0  0  0  0
 33 68  1  0  0  0  0
 33 72  1  0  0  0  0
 34 73  1  0  0  0  0
 34 78  2  0  0  0  0
 35 53  1  0  0  0  0
 35 74  1  0  0  0  0
 35 79  2  0  0  0  0
 36 64  1  0  0  0  0
 36 70  1  0  0  0  0
 36 80  2  0  0  0  0
 37 65  1  0  0  0  0
 37 75  1  0  0  0  0
 37 81  2  0  0  0  0
 38 71  1  0  0  0  0
 38 76  1  0  0  0  0
 38 82  2  0  0  0  0
 39 42  1  0  0  0  0
 40 53  1  0  0  0  0
 41 70  1  0  0  0  0
 42 45  1  0  0  0  0
 43 46  1  0  0  0  0
 43 49  1  0  0  0  0
 44 47  1  0  0  0  0
 44 48  1  0  0  0  0
 45 52  1  0  0  0  0
 46 54  1  0  0  0  0
 47 55  1  0  0  0  0
 48 69  1  0  0  0  0
 49 71  1  0  0  0  0
 50 54  1  0  0  0  0
 50 71  1  0  0  0  0
 51 55  1  0  0  0  0
 51 69  1  0  0  0  0
 52 74  1  0  0  0  0
 53 70  1  0  0  0  0
 54 68  1  0  0  0  0
 55 84  1  0  0  0  0
 58 65  1  0  0  0  0
 59 66  1  0  0  0  0
 60 66  1  0  0  0  0
 61 66  1  0  0  0  0
 62 77  1  0  0  0  0
 63 76  1  0  0  0  0
 64 66  1  0  0  0  0
 64 75  1  0  0  0  0
 65 77  1  0  0  0  0
 67 68  1  0  0  0  0
M  CHG  1  77   1
M  ISO  4  38 100  55 101  76 100  84 101
M  END
> <Batch ID>
0038

> <Smiles>
CNC(C)C(=O)NC(C(=O)N1Cc2cc([101O:1][101CH:1]3CCCN(c4ccc(C[100NH:0][100C:0](=O)N5CCCC(n6nc(-c7ccc(Oc8ccc(F)cc8F)cc7)c(C(N)=O)c6N)C5)c(C)c4C)C3)ccc2CC1C(=O)NC1CCCc2ccccc21)C(C)(C)C

> <Shape>
0.226

> <Color>
0.073

> <Negative vol penalty>
0.000

$$$$

  -OEChem-04042322003D

 90 98  0     1  0  0  0  0  0999 V2000
  -22.7651  -17.4834   28.4405 C   0  0  0  0  0  0  0  0  0  0  0  0
  -22.0397  -18.6703   28.4172 C   0  0  0  0  0  0  0  0  0  0  0  0
  -29.8637  -17.5194   19.3801 C   0  0  0  0  0  0  0  0  0  0  0  0
  -27.5784  -18.0802   18.8327 C   0  0  0  0  0  0  0  0  0  0  0  0
  -23.6674  -17.1990   27.4164 C   0  0  0  0  0  0  0  0  0  0  0  0
  -22.2171  -19.5741   27.3702 C   0  0  0  0  0  0  0  0  0  0  0  0
  -18.6101  -24.3843   23.4757 C   0  0  0  0  0  0  0  0  0  0  0  0
  -29.5143  -16.1713   19.4578 C   0  0  0  0  0  0  0  0  0  0  0  0
  -27.2289  -16.7321   18.9104 C   0  0  0  0  0  0  0  0  0  0  0  0
  -18.6869  -25.7151   23.0672 C   0  0  0  0  0  0  0  0  0  0  0  0
  -26.5659  -14.4657   21.3300 C   0  0  0  0  0  0  0  0  0  0  0  0
  -25.3983  -14.1375   22.0190 C   0  0  0  0  0  0  0  0  0  0  0  0
  -20.2150  -25.0816   21.3114 C   0  0  0  0  0  0  0  0  0  0  0  0
  -26.0434  -29.2587   20.5837 C   0  0  0  0  0  0  0  0  0  0  0  0
  -24.4901  -13.1504   20.0095 C   0  0  0  0  0  0  0  0  0  0  0  0
  -28.8957  -18.4739   19.0676 C   0  0  0  0  0  0  0  0  0  0  0  0
  -29.7000  -20.5661   17.8496 C   0  0  0  0  0  0  0  0  0  0  0  0
  -23.8489  -18.0953   26.3514 C   0  0  0  0  0  0  0  0  0  0  0  0
  -19.3450  -23.3922   22.8109 C   0  0  0  0  0  0  0  0  0  0  0  0
  -23.1238  -19.3020   26.3316 C   0  0  0  0  0  0  0  0  0  0  0  0
  -20.1438  -23.7386   21.7118 C   0  0  0  0  0  0  0  0  0  0  0  0
  -26.7131  -29.0599   21.7909 C   0  0  0  0  0  0  0  0  0  0  0  0
  -24.0371  -29.8483   21.7938 C   0  0  0  0  0  0  0  0  0  0  0  0
  -24.7069  -29.6495   23.0011 C   0  0  0  0  0  0  0  0  0  0  0  0
  -28.1969  -15.7776   19.2229 C   0  0  0  0  0  0  0  0  0  0  0  0
  -19.4917  -26.0644   21.9867 C   0  0  0  0  0  0  0  0  0  0  0  0
  -26.6956  -14.1363   19.9808 C   0  0  0  0  0  0  0  0  0  0  0  0
  -24.3604  -13.4798   21.3587 C   0  0  0  0  0  0  0  0  0  0  0  0
  -25.6577  -13.4786   19.3206 C   0  0  0  0  0  0  0  0  0  0  0  0
  -24.7053  -29.6530   20.5851 C   0  0  0  0  0  0  0  0  0  0  0  0
  -26.0449  -29.2553   22.9996 C   0  0  0  0  0  0  0  0  0  0  0  0
  -29.2559  -19.8667   18.9878 C   0  0  0  0  0  0  0  0  0  0  0  0
  -29.9074  -21.8490   18.2941 C   0  0  0  0  0  0  0  0  0  0  0  0
  -29.9064  -20.0979   16.5102 C   0  0  0  0  0  0  0  0  0  0  0  0
  -21.6490  -21.3682   23.6467 C   0  0  0  0  0  0  0  0  0  0  0  0
  -21.1886  -20.2161   20.6495 C   0  0  0  0  0  0  0  0  0  0  0  0
  -20.1005  -20.7798   17.4644 C   0  0  0  0  0  0  0  0  0  0  0  0
  -28.2270  -26.2466   21.0840 C   0  0  0  0  0  0  0  0  0  0  0  0
  -24.8704  -17.7662   25.2917 C   0  0  0  0  0  0  0  0  0  0  0  0
  -19.2305  -21.9572   23.2471 C   0  0  0  0  0  0  0  0  0  0  0  0
  -20.9368  -22.7082   20.9516 C   0  0  0  0  0  0  0  0  0  0  0  0
  -24.7246  -18.6041   24.0240 C   0  0  0  0  0  0  0  0  0  0  0  0
  -30.0052  -23.7342   22.9875 C   0  0  0  0  0  0  0  0  0  0  0  0
  -24.5446  -20.0774   24.3757 C   0  0  0  0  0  0  0  0  0  0  0  0
  -30.0032  -22.5557   22.0121 C   0  0  0  0  0  0  0  0  0  0  0  0
  -28.6940  -24.5114   22.9181 C   0  0  0  0  0  0  0  0  0  0  0  0
  -28.3354  -23.8226   20.5792 C   0  0  0  0  0  0  0  0  0  0  0  0
  -23.2703  -20.2962   25.2001 C   0  0  1  0  0  0  0  0  0  0  0  0
  -20.4222  -21.1059   22.8198 C   0  0  1  0  0  0  0  0  0  0  0  0
  -29.6429  -23.0099   20.5852 C   0  0  2  0  0  0  0  0  0  0  0  0
  -24.9814  -33.3152   25.5356 C   0  0  0  0  0  0  0  0  0  0  0  0
  -22.7393  -30.8958   26.7714 C   0  0  0  0  0  0  0  0  0  0  0  0
  -19.8869  -19.6604   15.2286 C   0  0  0  0  0  0  0  0  0  0  0  0
  -24.1829  -20.5758   20.1861 C   0  0  0  0  0  0  0  0  0  0  0  0
  -23.7572  -20.3643   17.7280 C   0  0  0  0  0  0  0  0  0  0  0  0
  -23.2293  -18.4611   19.2518 C   0  0  0  0  0  0  0  0  0  0  0  0
  -17.1552  -21.0696   17.4708 C   0  0  0  0  0  0  0  0  0  0  0  0
  -28.1468  -28.6381   21.7408 C   0  0  0  0  0  0  0  0  0  0  0  0
  -22.5985  -30.2738   21.8080 C   0  0  0  0  0  0  0  0  0  0  0  0
  -23.9743  -29.8634   24.2901 C   0  0  0  0  0  0  0  0  0  0  0  0
  -24.2750  -32.3083   24.6542 C   0  0  0  0  0  0  0  0  0  0  0  0
  -24.2361  -30.7555   26.6004 C   0  0  0  0  0  0  0  0  0  0  0  0
  -20.2413  -29.5745   22.2482 C   0  0  0  0  0  0  0  0  0  0  0  0
  -19.3963  -28.3631   22.5892 C   0  0  0  0  0  0  0  0  0  1  0  0
  -21.7632  -20.5205   19.2871 C   0  0  1  0  0  0  0  0  0  0  0  0
  -19.1997  -19.9698   16.5495 C   0  0  2  0  0  0  0  0  0  0  0  0
  -23.2199  -20.0004   19.1286 C   0  0  0  0  0  0  0  0  0  0  0  0
  -29.1853  -20.6411   20.0738 N   0  0  0  0  0  0  0  0  0  0  0  0
  -29.5879  -21.8403   19.6200 N   0  0  0  0  0  0  0  0  0  0  0  0
  -20.7967  -21.3197   21.4204 N   0  0  0  0  0  0  0  0  0  0  0  0
  -28.4190  -24.9306   21.5365 N   0  0  0  0  0  0  0  0  0  0  0  0
  -30.3303  -22.9723   17.6763 N   0  0  0  0  0  0  0  0  0  0  0  0
  -29.6447  -18.7508   16.2256 N   0  0  0  0  0  0  0  0  0  0  0  0
  -22.1034  -20.2655   24.3446 N   0  0  0  0  0  0  0  0  0  0  0  0
  -20.8235  -19.9713   18.3157 N   0  0  0  0  0  0  0  0  0  0  0  0
  -28.3154  -27.2367   22.0549 N   0  0  0  0  0  0  0  0  0  0  0  0
  -17.9445  -20.7198   16.2618 N   0  3  0  0  0  0  0  0  0  0  0  0
  -21.6676  -29.1701   22.1673 N   0  3  0  0  0  0  0  0  0  0  0  0
  -24.5866  -30.9160   25.1425 N   0  3  0  0  0  0  0  0  0  0  0  0
  -30.3265  -20.8480   15.5968 O   0  0  0  0  0  0  0  0  0  0  0  0
  -22.1474  -22.4877   23.6500 O   0  0  0  0  0  0  0  0  0  0  0  0
  -21.0845  -19.0420   21.0133 O   0  0  0  0  0  0  0  0  0  0  0  0
  -20.1597  -22.0067   17.4250 O   0  0  0  0  0  0  0  0  0  0  0  0
  -27.9988  -26.5199   19.9007 O   0  0  0  0  0  0  0  0  0  0  0  0
  -27.8556  -14.4621   19.2984 O   0  0  0  0  0  0  0  0  0  0  0  0
  -19.5689  -27.3627   21.5863 O   0  0  0  0  0  0  0  0  0  1  0  0
  -23.2399  -13.1633   22.0209 F   0  0  0  0  0  0  0  0  0  0  0  0
  -25.7769  -13.1586   18.0247 F   0  0  0  0  0  0  0  0  0  0  0  0
  -23.9135  -29.8905   19.0691 Cl  0  0  0  0  0  0  0  0  0  0  0  0
  -26.8804  -29.0062   24.4969 Cl  0  0  0  0  0  0  0  0  0  0  0  0
  1  2  1  0  0  0  0
  1  5  2  0  0  0  0
  2  6  2  0  0  0  0
  3  8  2  0  0  0  0
  3 16  1  0  0  0  0
  4  9  1  0  0  0  0
  4 16  2  0  0  0  0
  5 18  1  0  0  0  0
  6 20  1  0  0  0  0
  7 10  2  0  0  0  0
  7 19  1  0  0  0  0
  8 25  1  0  0  0  0
  9 25  2  0  0  0  0
 10 26  1  0  0  0  0
 11 12  2  0  0  0  0
 11 27  1  0  0  0  0
 12 28  1  0  0  0  0
 13 21  1  0  0  0  0
 13 26  2  0  0  0  0
 14 22  1  0  0  0  0
 14 30  2  0  0  0  0
 15 28  2  0  0  0  0
 15 29  1  0  0  0  0
 16 32  1  0  0  0  0
 17 32  1  0  0  0  0
 17 33  2  0  0  0  0
 17 34  1  0  0  0  0
 18 20  2  0  0  0  0
 18 39  1  0  0  0  0
 19 21  2  0  0  0  0
 19 40  1  0  0  0  0
 20 48  1  0  0  0  0
 21 41  1  0  0  0  0
 22 31  2  0  0  0  0
 22 58  1  0  0  0  0
 23 24  2  0  0  0  0
 23 30  1  0  0  0  0
 23 59  1  0  0  0  0
 24 31  1  0  0  0  0
 24 60  1  0  0  0  0
 25 85  1  0  0  0  0
 26 86  1  0  0  0  0
 27 29  2  0  0  0  0
 27 85  1  0  0  0  0
 28 87  1  0  0  0  0
 29 88  1  0  0  0  0
 30 89  1  0  0  0  0
 31 90  1  0  0  0  0
 32 68  2  0  0  0  0
 33 69  1  0  0  0  0
 33 72  1  0  0  0  0
 34 73  1  0  0  0  0
 34 80  2  0  0  0  0
 35 49  1  0  0  0  0
 35 74  1  0  0  0  0
 35 81  2  0  0  0  0
 36 65  1  0  0  0  0
 36 70  1  0  0  0  0
 36 82  2  0  0  0  0
 37 66  1  0  0  0  0
 37 75  1  0  0  0  0
 37 83  2  0  0  0  0
 38 71  1  0  0  0  0
 38 76  1  0  0  0  0
 38 84  2  0  0  0  0
 39 42  1  0  0  0  0
 40 49  1  0  0  0  0
 41 70  1  0  0  0  0
 42 44  1  0  0  0  0
 43 45  1  0  0  0  0
 43 46  1  0  0  0  0
 44 48  1  0  0  0  0
 45 50  1  0  0  0  0
 46 71  1  0  0  0  0
 47 50  1  0  0  0  0
 47 71  1  0  0  0  0
 48 74  1  0  0  0  0
 49 70  1  0  0  0  0
 50 69  1  0  0  0  0
 51 61  1  0  0  0  0
 52 62  1  0  0  0  0
 53 66  1  0  0  0  0
 54 67  1  0  0  0  0
 55 67  1  0  0  0  0
 56 67  1  0  0  0  0
 57 77  1  0  0  0  0
 58 76  1  0  0  0  0
 59 78  1  0  0  0  0
 60 79  1  0  0  0  0
 61 79  1  0  0  0  0
 62 79  1  0  0  0  0
 63 64  1  0  0  0  0
 63 78  1  0  0  0  0
 64 86  1  0  0  0  0
 65 67  1  0  0  0  0
 65 75  1  0  0  0  0
 66 77  1  0  0  0  0
 68 69  1  0  0  0  0
M  CHG  3  77   1  78   1  79   1
M  ISO  4  38 100  64 101  76 100  86 101
M  END
> <Batch ID>
0038

> <Smiles>
CCN(CC)Cc1c(Cl)c(C[100NH:0][100C:0](=O)N2CCCC(n3nc(-c4ccc(Oc5ccc(F)cc5F)cc4)c(C(N)=O)c3N)C2)cc(Cl)c1CNC[101CH2:1][101O:1]c1ccc2c(c1)CN(C(=O)C(NC(=O)C(C)NC)C(C)(C)C)C(C(=O)NC1CCCc3ccccc31)C2

> <Shape>
0.210

> <Color>
0.057

> <Negative vol penalty>
0.000

$$$$

  -OEChem-04042322003D

 84 92  0     1  0  0  0  0  0999 V2000
  -35.7627  -25.5543   28.9643 C   0  0  0  0  0  0  0  0  0  0  0  0
  -35.4515  -24.9542   27.7483 C   0  0  0  0  0  0  0  0  0  0  0  0
  -23.0765   -9.8669   19.9383 C   0  0  0  0  0  0  0  0  0  0  0  0
  -23.8414   -9.8694   22.2300 C   0  0  0  0  0  0  0  0  0  0  0  0
  -35.2502  -26.8144   29.2698 C   0  0  0  0  0  0  0  0  0  0  0  0
  -34.6266  -25.6135   26.8377 C   0  0  0  0  0  0  0  0  0  0  0  0
  -35.0057  -25.4346   20.7278 C   0  0  0  0  0  0  0  0  0  0  0  0
  -22.3361   -8.7112   20.1867 C   0  0  0  0  0  0  0  0  0  0  0  0
  -23.1009   -8.7137   22.4784 C   0  0  0  0  0  0  0  0  0  0  0  0
  -34.3161  -24.6970   19.7664 C   0  0  0  0  0  0  0  0  0  0  0  0
  -19.8760   -7.9063   23.0858 C   0  0  0  0  0  0  0  0  0  0  0  0
  -19.1217   -7.8612   24.2582 C   0  0  0  0  0  0  0  0  0  0  0  0
  -32.8062  -26.5493   19.4370 C   0  0  0  0  0  0  0  0  0  0  0  0
  -29.1575  -19.7157   19.9606 C   0  0  0  0  0  0  0  0  0  0  0  0
  -31.6015  -18.3744   20.0616 C   0  0  0  0  0  0  0  0  0  0  0  0
  -20.3695   -5.9248   24.9865 C   0  0  0  0  0  0  0  0  0  0  0  0
  -23.8293  -10.4459   20.9600 C   0  0  0  0  0  0  0  0  0  0  0  0
  -24.1646  -12.9722   20.8462 C   0  0  0  0  0  0  0  0  0  0  0  0
  -34.4265  -27.4937   28.3584 C   0  0  0  0  0  0  0  0  0  0  0  0
  -34.5933  -26.7333   21.0594 C   0  0  0  0  0  0  0  0  0  0  0  0
  -34.1015  -26.8833   27.1319 C   0  0  0  0  0  0  0  0  0  0  0  0
  -33.4938  -27.3022   20.4010 C   0  0  0  0  0  0  0  0  0  0  0  0
  -29.3496  -18.6845   20.8799 C   0  0  0  0  0  0  0  0  0  0  0  0
  -30.1874  -20.0763   19.0917 C   0  0  0  0  0  0  0  0  0  0  0  0
  -30.5716  -18.0138   20.9305 C   0  0  0  0  0  0  0  0  0  0  0  0
  -22.3482   -8.1346   21.4567 C   0  0  0  0  0  0  0  0  0  0  0  0
  -33.2145  -25.2532   19.1229 C   0  0  0  0  0  0  0  0  0  0  0  0
  -20.8770   -6.9605   22.8637 C   0  0  0  0  0  0  0  0  0  0  0  0
  -19.3685   -6.8705   25.2086 C   0  0  0  0  0  0  0  0  0  0  0  0
  -21.1238   -5.9698   23.8141 C   0  0  0  0  0  0  0  0  0  0  0  0
  -31.4095  -19.4057   19.1422 C   0  0  0  0  0  0  0  0  0  0  0  0
  -24.5949  -11.6394   20.7039 C   0  0  0  0  0  0  0  0  0  0  0  0
  -25.2541  -13.7254   20.4826 C   0  0  0  0  0  0  0  0  0  0  0  0
  -22.8938  -13.4838   21.2693 C   0  0  0  0  0  0  0  0  0  0  0  0
  -33.5393  -28.1453   23.7049 C   0  0  0  0  0  0  0  0  0  0  0  0
  -33.7180  -30.8219   21.8810 C   0  0  0  0  0  0  0  0  0  0  0  0
  -33.7313  -32.2068   18.7619 C   0  0  0  0  0  0  0  0  0  0  0  0
  -30.7358  -14.7574   20.6619 C   0  0  0  0  0  0  0  0  0  0  0  0
  -33.8578  -28.8337   28.7529 C   0  0  0  0  0  0  0  0  0  0  0  0
  -35.3640  -27.5257   22.0794 C   0  0  0  0  0  0  0  0  0  0  0  0
  -33.0231  -28.7000   20.7062 C   0  0  0  0  0  0  0  0  0  0  0  0
  -33.2953  -29.6269   27.5762 C   0  0  0  0  0  0  0  0  0  0  0  0
  -29.5988  -12.3768   18.2710 C   0  0  0  0  0  0  0  0  0  0  0  0
  -32.4194  -28.7356   26.7015 C   0  0  0  0  0  0  0  0  0  0  0  0
  -28.1631  -12.0783   18.7062 C   0  0  0  0  0  0  0  0  0  0  0  0
  -30.5180  -12.5965   19.4705 C   0  0  0  0  0  0  0  0  0  0  0  0
  -28.6175  -13.3191   20.8632 C   0  0  0  0  0  0  0  0  0  0  0  0
  -33.2302  -27.5775   26.1076 C   0  0  1  0  0  0  0  0  0  0  0  0
  -34.5442  -28.6485   22.7076 C   0  0  1  0  0  0  0  0  0  0  0  0
  -27.6412  -13.1453   19.6872 C   0  0  2  0  0  0  0  0  0  0  0  0
  -28.2324  -18.3135   21.7991 C   0  0  0  0  0  0  0  0  0  0  0  0
  -33.8522  -34.4231   17.5912 C   0  0  0  0  0  0  0  0  0  0  0  0
  -30.8074  -31.3666   22.6168 C   0  0  0  0  0  0  0  0  0  0  0  0
  -30.7059  -32.9978   20.7202 C   0  0  0  0  0  0  0  0  0  0  0  0
  -32.2792  -33.3885   22.6162 C   0  0  0  0  0  0  0  0  0  0  0  0
  -36.2361  -31.4660   17.3704 C   0  0  0  0  0  0  0  0  0  0  0  0
  -30.7990  -16.9047   21.9046 C   0  0  0  0  0  0  0  0  0  0  0  0
  -29.9406  -21.1906   18.1178 C   0  0  0  0  0  0  0  0  0  0  0  0
  -30.4402  -23.5649   17.5249 C   0  0  0  0  0  0  0  0  0  0  0  0
  -31.1453  -24.8042   18.0400 C   0  0  0  0  0  0  0  0  0  1  0  0
  -32.7740  -31.5489   20.9540 C   0  0  1  0  0  0  0  0  0  0  0  0
  -34.6434  -33.2375   18.1213 C   0  0  2  0  0  0  0  0  0  0  0  0
  -31.6491  -32.2984   21.7222 C   0  0  0  0  0  0  0  0  0  0  0  0
  -25.8590  -11.5478   20.2826 N   0  0  0  0  0  0  0  0  0  0  0  0
  -26.2325  -12.8327   20.1570 N   0  0  0  0  0  0  0  0  0  0  0  0
  -33.8057  -29.4323   21.7155 N   0  0  0  0  0  0  0  0  0  0  0  0
  -29.9669  -13.6212   20.3605 N   0  0  0  0  0  0  0  0  0  0  0  0
  -25.4611  -15.0576   20.4129 N   0  0  0  0  0  0  0  0  0  0  0  0
  -21.8849  -12.5712   21.6063 N   0  0  0  0  0  0  0  0  0  0  0  0
  -34.0291  -28.0393   24.9927 N   0  0  0  0  0  0  0  0  0  0  0  0
  -33.6044  -32.4108   20.1197 N   0  0  0  0  0  0  0  0  0  0  0  0
  -30.1362  -15.6824   21.5078 N   0  0  0  0  0  0  0  0  0  0  0  0
  -35.3959  -32.6298   16.9876 N   0  3  0  0  0  0  0  0  0  0  0  0
  -30.6166  -22.4597   18.5003 N   0  3  0  0  0  0  0  0  0  0  0  0
  -22.6547  -14.7136   21.3306 O   0  0  0  0  0  0  0  0  0  0  0  0
  -32.4031  -27.8748   23.3338 O   0  0  0  0  0  0  0  0  0  0  0  0
  -34.3595  -31.4641   22.7163 O   0  0  0  0  0  0  0  0  0  0  0  0
  -33.1832  -31.3126   18.1213 O   0  0  0  0  0  0  0  0  0  0  0  0
  -31.8703  -14.9370   20.2063 O   0  0  0  0  0  0  0  0  0  0  0  0
  -21.6256   -7.0070   21.6995 O   0  0  0  0  0  0  0  0  0  0  0  0
  -32.5392  -24.5352   18.1847 O   0  0  0  0  0  0  0  0  0  1  0  0
  -18.6451   -6.8283   26.3351 F   0  0  0  0  0  0  0  0  0  0  0  0
  -22.0849   -5.0593   23.6068 F   0  0  0  0  0  0  0  0  0  0  0  0
  -32.7065  -19.8239   18.0830 Cl  0  0  0  0  0  0  0  0  0  0  0  0
  1  2  1  0  0  0  0
  1  5  2  0  0  0  0
  2  6  2  0  0  0  0
  3  8  2  0  0  0  0
  3 17  1  0  0  0  0
  4  9  1  0  0  0  0
  4 17  2  0  0  0  0
  5 19  1  0  0  0  0
  6 21  1  0  0  0  0
  7 10  2  0  0  0  0
  7 20  1  0  0  0  0
  8 26  1  0  0  0  0
  9 26  2  0  0  0  0
 10 27  1  0  0  0  0
 11 12  2  0  0  0  0
 11 28  1  0  0  0  0
 12 29  1  0  0  0  0
 13 22  1  0  0  0  0
 13 27  2  0  0  0  0
 14 23  2  0  0  0  0
 14 24  1  0  0  0  0
 15 25  2  0  0  0  0
 15 31  1  0  0  0  0
 16 29  2  0  0  0  0
 16 30  1  0  0  0  0
 17 32  1  0  0  0  0
 18 32  1  0  0  0  0
 18 33  2  0  0  0  0
 18 34  1  0  0  0  0
 19 21  2  0  0  0  0
 19 39  1  0  0  0  0
 20 22  2  0  0  0  0
 20 40  1  0  0  0  0
 21 48  1  0  0  0  0
 22 41  1  0  0  0  0
 23 25  1  0  0  0  0
 23 51  1  0  0  0  0
 24 31  2  0  0  0  0
 24 58  1  0  0  0  0
 25 57  1  0  0  0  0
 26 80  1  0  0  0  0
 27 81  1  0  0  0  0
 28 30  2  0  0  0  0
 28 80  1  0  0  0  0
 29 82  1  0  0  0  0
 30 83  1  0  0  0  0
 31 84  1  0  0  0  0
 32 64  2  0  0  0  0
 33 65  1  0  0  0  0
 33 68  1  0  0  0  0
 34 69  1  0  0  0  0
 34 75  2  0  0  0  0
 35 49  1  0  0  0  0
 35 70  1  0  0  0  0
 35 76  2  0  0  0  0
 36 61  1  0  0  0  0
 36 66  1  0  0  0  0
 36 77  2  0  0  0  0
 37 62  1  0  0  0  0
 37 71  1  0  0  0  0
 37 78  2  0  0  0  0
 38 67  1  0  0  0  0
 38 72  1  0  0  0  0
 38 79  2  0  0  0  0
 39 42  1  0  0  0  0
 40 49  1  0  0  0  0
 41 66  1  0  0  0  0
 42 44  1  0  0  0  0
 43 45  1  0  0  0  0
 43 46  1  0  0  0  0
 44 48  1  0  0  0  0
 45 50  1  0  0  0  0
 46 67  1  0  0  0  0
 47 50  1  0  0  0  0
 47 67  1  0  0  0  0
 48 70  1  0  0  0  0
 49 66  1  0  0  0  0
 50 65  1  0  0  0  0
 52 62  1  0  0  0  0
 53 63  1  0  0  0  0
 54 63  1  0  0  0  0
 55 63  1  0  0  0  0
 56 73  1  0  0  0  0
 57 72  1  0  0  0  0
 58 74  1  0  0  0  0
 59 60  1  0  0  0  0
 59 74  1  0  0  0  0
 60 81  1  0  0  0  0
 61 63  1  0  0  0  0
 61 71  1  0  0  0  0
 62 73  1  0  0  0  0
 64 65  1  0  0  0  0
M  CHG  2  73   1  74   1
M  ISO  4  38 100  60 101  72 100  81 101
M  END
> <Batch ID>
0038

> <Smiles>
CNC(C)C(=O)NC(C(=O)N1Cc2cc([101O:1][101CH2:1]CNCc3cc(C)c(C[100NH:0][100C:0](=O)N4CCCC(n5nc(-c6ccc(Oc7ccc(F)cc7F)cc6)c(C(N)=O)c5N)C4)cc3Cl)ccc2CC1C(=O)NC1CCCc2ccccc21)C(C)(C)C

> <Shape>
0.213

> <Color>
0.192

> <Negative vol penalty>
0.000

$$$$

  -OEChem-04042322003D

 83 91  0     1  0  0  0  0  0999 V2000
  -26.6864   -8.9838   33.2740 C   0  0  0  0  0  0  0  0  0  0  0  0
  -27.7114   -9.9238   33.3074 C   0  0  0  0  0  0  0  0  0  0  0  0
  -23.0752   -9.8687   19.9403 C   0  0  0  0  0  0  0  0  0  0  0  0
  -23.8348   -9.8746   22.2337 C   0  0  0  0  0  0  0  0  0  0  0  0
  -32.6523  -17.4904   23.4567 C   0  0  0  0  0  0  0  0  0  0  0  0
  -25.6994   -9.0649   32.2926 C   0  0  0  0  0  0  0  0  0  0  0  0
  -27.7505  -10.9450   32.3587 C   0  0  0  0  0  0  0  0  0  0  0  0
  -29.7022  -17.7966   31.6086 C   0  0  0  0  0  0  0  0  0  0  0  0
  -32.0644  -16.6060   22.5524 C   0  0  0  0  0  0  0  0  0  0  0  0
  -22.3309   -8.7157   20.1897 C   0  0  0  0  0  0  0  0  0  0  0  0
  -23.0905   -8.7216   22.4832 C   0  0  0  0  0  0  0  0  0  0  0  0
  -30.4774  -18.6117   30.7849 C   0  0  0  0  0  0  0  0  0  0  0  0
  -19.8620   -7.9247   23.0851 C   0  0  0  0  0  0  0  0  0  0  0  0
  -19.1049   -7.8846   24.2558 C   0  0  0  0  0  0  0  0  0  0  0  0
  -28.6746  -18.6989   29.1845 C   0  0  0  0  0  0  0  0  0  0  0  0
  -29.8807  -17.4558   23.1408 C   0  0  0  0  0  0  0  0  0  0  0  0
  -20.3455   -5.9464   24.9917 C   0  0  0  0  0  0  0  0  0  0  0  0
  -23.8272  -10.4481   20.9623 C   0  0  0  0  0  0  0  0  0  0  0  0
  -31.8543  -18.3575   24.2032 C   0  0  0  0  0  0  0  0  0  0  0  0
  -24.1700  -12.9732   20.8432 C   0  0  0  0  0  0  0  0  0  0  0  0
  -25.7210  -10.0932   31.3373 C   0  0  0  0  0  0  0  0  0  0  0  0
  -28.4092  -17.4170   31.2206 C   0  0  0  0  0  0  0  0  0  0  0  0
  -26.7635  -11.0392   31.3628 C   0  0  0  0  0  0  0  0  0  0  0  0
  -27.8840  -17.8810   30.0061 C   0  0  0  0  0  0  0  0  0  0  0  0
  -30.4686  -18.3402   24.0452 C   0  0  0  0  0  0  0  0  0  0  0  0
  -30.6787  -16.5887   22.3944 C   0  0  0  0  0  0  0  0  0  0  0  0
  -22.3385   -8.1422   21.4612 C   0  0  0  0  0  0  0  0  0  0  0  0
  -29.9648  -19.0606   29.5713 C   0  0  0  0  0  0  0  0  0  0  0  0
  -20.8608   -6.9756   22.8675 C   0  0  0  0  0  0  0  0  0  0  0  0
  -19.3466   -6.8955   25.2092 C   0  0  0  0  0  0  0  0  0  0  0  0
  -21.1026   -5.9865   23.8209 C   0  0  0  0  0  0  0  0  0  0  0  0
  -24.5968  -11.6388   20.7051 C   0  0  0  0  0  0  0  0  0  0  0  0
  -25.2624  -13.7224   20.4804 C   0  0  0  0  0  0  0  0  0  0  0  0
  -32.4971  -19.2863   25.1544 C   0  0  0  0  0  0  0  0  0  0  0  0
  -22.8996  -13.4893   21.2622 C   0  0  0  0  0  0  0  0  0  0  0  0
  -26.9751  -14.6487   30.6013 C   0  0  0  0  0  0  0  0  0  0  0  0
  -24.3311  -16.5144   30.3767 C   0  0  0  0  0  0  0  0  0  0  0  0
  -23.0080  -19.6075   29.8032 C   0  0  0  0  0  0  0  0  0  0  0  0
  -30.7290  -14.7660   20.6561 C   0  0  0  0  0  0  0  0  0  0  0  0
  -24.6586  -10.1122   30.2670 C   0  0  0  0  0  0  0  0  0  0  0  0
  -27.5757  -16.5591   32.1327 C   0  0  0  0  0  0  0  0  0  0  0  0
  -26.4941  -17.5186   29.5531 C   0  0  0  0  0  0  0  0  0  0  0  0
  -24.5638  -11.4437   29.5265 C   0  0  0  0  0  0  0  0  0  0  0  0
  -29.6140  -12.3535   18.2868 C   0  0  0  0  0  0  0  0  0  0  0  0
  -25.9526  -11.9338   29.1295 C   0  0  0  0  0  0  0  0  0  0  0  0
  -28.1742  -12.0622   18.7161 C   0  0  0  0  0  0  0  0  0  0  0  0
  -30.5290  -12.5815   19.4886 C   0  0  0  0  0  0  0  0  0  0  0  0
  -28.6222  -13.3061   20.8699 C   0  0  0  0  0  0  0  0  0  0  0  0
  -26.8265  -12.1761   30.3660 C   0  0  1  0  0  0  0  0  0  0  0  0
  -26.4640  -15.8136   31.4009 C   0  0  1  0  0  0  0  0  0  0  0  0
  -27.6494  -13.1336   19.6919 C   0  0  2  0  0  0  0  0  0  0  0  0
  -29.5934  -19.2608   24.8309 C   0  0  0  0  0  0  0  0  0  0  0  0
  -20.8126  -20.8134   29.6498 C   0  0  0  0  0  0  0  0  0  0  0  0
  -23.8529  -15.2888   27.6237 C   0  0  0  0  0  0  0  0  0  0  0  0
  -22.2628  -17.1619   27.1429 C   0  0  0  0  0  0  0  0  0  0  0  0
  -21.7914  -15.5762   29.0100 C   0  0  0  0  0  0  0  0  0  0  0  0
  -23.7062  -21.4048   32.0484 C   0  0  0  0  0  0  0  0  0  0  0  0
  -32.7390  -20.0619   27.4860 C   0  0  0  0  0  0  0  0  0  0  0  0
  -32.1348  -19.6821   28.8226 C   0  0  0  0  0  0  0  0  0  1  0  0
  -23.6489  -17.2725   29.2636 C   0  0  1  0  0  0  0  0  0  0  0  0
  -21.9652  -20.4127   30.5574 C   0  0  2  0  0  0  0  0  0  0  0  0
  -22.9160  -16.3302   28.2674 C   0  0  0  0  0  0  0  0  0  0  0  0
  -25.8616  -11.5427   20.2869 N   0  0  0  0  0  0  0  0  0  0  0  0
  -26.2390  -12.8262   20.1591 N   0  0  0  0  0  0  0  0  0  0  0  0
  -25.7206  -16.6725   30.4769 N   0  0  0  0  0  0  0  0  0  0  0  0
  -29.9703  -13.6122   20.3663 N   0  0  0  0  0  0  0  0  0  0  0  0
  -25.4733  -15.0538   20.4079 N   0  0  0  0  0  0  0  0  0  0  0  0
  -33.3724  -20.1701   24.6750 N   0  0  0  0  0  0  0  0  0  0  0  0
  -21.8874  -12.5804   21.5990 N   0  0  0  0  0  0  0  0  0  0  0  0
  -30.0819  -15.6910   21.4748 N   0  0  0  0  0  0  0  0  0  0  0  0
  -26.4686  -13.4266   31.0006 N   0  0  0  0  0  0  0  0  0  0  0  0
  -22.7809  -18.2516   29.9088 N   0  0  0  0  0  0  0  0  0  0  0  0
  -32.1726  -19.1951   26.4496 N   0  3  0  0  0  0  0  0  0  0  0  0
  -22.5740  -21.6516   31.1189 N   0  3  0  0  0  0  0  0  0  0  0  0
  -22.6638  -14.7200   21.3200 O   0  0  0  0  0  0  0  0  0  0  0  0
  -27.7690  -14.8443   29.6885 O   0  0  0  0  0  0  0  0  0  0  0  0
  -23.6550  -15.8137   31.1340 O   0  0  0  0  0  0  0  0  0  0  0  0
  -23.9295  -20.1293   29.1795 O   0  0  0  0  0  0  0  0  0  0  0  0
  -31.8582  -14.9345   20.1886 O   0  0  0  0  0  0  0  0  0  0  0  0
  -21.6121   -7.0172   21.7050 O   0  0  0  0  0  0  0  0  0  0  0  0
  -30.7196  -19.8558   28.7652 O   0  0  0  0  0  0  0  0  0  1  0  0
  -18.6206   -6.8580   26.3342 F   0  0  0  0  0  0  0  0  0  0  0  0
  -22.0616   -5.0728   23.6180 F   0  0  0  0  0  0  0  0  0  0  0  0
  1  2  1  0  0  0  0
  1  6  2  0  0  0  0
  2  7  2  0  0  0  0
  3 10  2  0  0  0  0
  3 18  1  0  0  0  0
  4 11  1  0  0  0  0
  4 18  2  0  0  0  0
  5  9  2  0  0  0  0
  5 19  1  0  0  0  0
  6 21  1  0  0  0  0
  7 23  1  0  0  0  0
  8 12  2  0  0  0  0
  8 22  1  0  0  0  0
  9 26  1  0  0  0  0
 10 27  1  0  0  0  0
 11 27  2  0  0  0  0
 12 28  1  0  0  0  0
 13 14  2  0  0  0  0
 13 29  1  0  0  0  0
 14 30  1  0  0  0  0
 15 24  1  0  0  0  0
 15 28  2  0  0  0  0
 16 25  1  0  0  0  0
 16 26  2  0  0  0  0
 17 30  2  0  0  0  0
 17 31  1  0  0  0  0
 18 32  1  0  0  0  0
 19 25  2  0  0  0  0
 19 34  1  0  0  0  0
 20 32  1  0  0  0  0
 20 33  2  0  0  0  0
 20 35  1  0  0  0  0
 21 23  2  0  0  0  0
 21 40  1  0  0  0  0
 22 24  2  0  0  0  0
 22 41  1  0  0  0  0
 23 49  1  0  0  0  0
 24 42  1  0  0  0  0
 25 52  1  0  0  0  0
 26 70  1  0  0  0  0
 27 80  1  0  0  0  0
 28 81  1  0  0  0  0
 29 31  2  0  0  0  0
 29 80  1  0  0  0  0
 30 82  1  0  0  0  0
 31 83  1  0  0  0  0
 32 63  2  0  0  0  0
 33 64  1  0  0  0  0
 33 67  1  0  0  0  0
 34 68  1  0  0  0  0
 34 73  2  0  0  0  0
 35 69  1  0  0  0  0
 35 75  2  0  0  0  0
 36 50  1  0  0  0  0
 36 71  1  0  0  0  0
 36 76  2  0  0  0  0
 37 60  1  0  0  0  0
 37 65  1  0  0  0  0
 37 77  2  0  0  0  0
 38 61  1  0  0  0  0
 38 72  1  0  0  0  0
 38 78  2  0  0  0  0
 39 66  1  0  0  0  0
 39 70  1  0  0  0  0
 39 79  2  0  0  0  0
 40 43  1  0  0  0  0
 41 50  1  0  0  0  0
 42 65  1  0  0  0  0
 43 45  1  0  0  0  0
 44 46  1  0  0  0  0
 44 47  1  0  0  0  0
 45 49  1  0  0  0  0
 46 51  1  0  0  0  0
 47 66  1  0  0  0  0
 48 51  1  0  0  0  0
 48 66  1  0  0  0  0
 49 71  1  0  0  0  0
 50 65  1  0  0  0  0
 51 64  1  0  0  0  0
 53 61  1  0  0  0  0
 54 62  1  0  0  0  0
 55 62  1  0  0  0  0
 56 62  1  0  0  0  0
 57 74  1  0  0  0  0
 58 59  1  0  0  0  0
 58 73  1  0  0  0  0
 59 81  1  0  0  0  0
 60 62  1  0  0  0  0
 60 72  1  0  0  0  0
 61 74  1  0  0  0  0
 63 64  1  0  0  0  0
M  CHG  2  73   1  74   1
M  ISO  4  39 100  59 101  70 100  81 101
M  END
> <Batch ID>
0038

> <Smiles>
CNC(C)C(=O)NC(C(=O)N1Cc2cc([101O:1][101CH2:1]CNC(=N)c3ccc([100NH:0][100C:0](=O)N4CCCC(n5nc(-c6ccc(Oc7ccc(F)cc7F)cc6)c(C(N)=O)c5N)C4)cc3C)ccc2CC1C(=O)NC1CCCc2ccccc21)C(C)(C)C

> <Shape>
0.166

> <Color>
0.187

> <Negative vol penalty>
0.000

$$$$

  -OEChem-04042322003D

 88 97  0     1  0  0  0  0  0999 V2000
  -15.6757  -14.3125   28.3204 C   0  0  0  0  0  0  0  0  0  0  0  0
  -15.5033  -15.0365   27.1451 C   0  0  0  0  0  0  0  0  0  0  0  0
  -23.3384  -10.1623   22.2427 C   0  0  0  0  0  0  0  0  0  0  0  0
  -23.5785   -9.5447   19.9193 C   0  0  0  0  0  0  0  0  0  0  0  0
  -28.9860  -19.5827   23.7156 C   0  0  0  0  0  0  0  0  0  0  0  0
  -16.6463  -14.7027   29.2422 C   0  0  0  0  0  0  0  0  0  0  0  0
  -16.3006  -16.1520   26.8914 C   0  0  0  0  0  0  0  0  0  0  0  0
  -20.9132  -17.7182   20.7842 C   0  0  0  0  0  0  0  0  0  0  0  0
  -29.8644  -18.5296   23.4605 C   0  0  0  0  0  0  0  0  0  0  0  0
  -22.5943   -9.0053   22.4734 C   0  0  0  0  0  0  0  0  0  0  0  0
  -22.8344   -8.3876   20.1501 C   0  0  0  0  0  0  0  0  0  0  0  0
  -21.8826  -18.0367   19.8329 C   0  0  0  0  0  0  0  0  0  0  0  0
  -19.4277   -7.9381   21.9655 C   0  0  0  0  0  0  0  0  0  0  0  0
  -18.2612   -8.0585   22.7207 C   0  0  0  0  0  0  0  0  0  0  0  0
  -23.0598  -19.3771   21.4655 C   0  0  0  0  0  0  0  0  0  0  0  0
  -19.1569   -6.5156   24.3500 C   0  0  0  0  0  0  0  0  0  0  0  0
  -23.8304  -10.4321   20.9656 C   0  0  0  0  0  0  0  0  0  0  0  0
  -28.1507  -20.0550   22.7033 C   0  0  0  0  0  0  0  0  0  0  0  0
  -24.1796  -12.9585   20.9122 C   0  0  0  0  0  0  0  0  0  0  0  0
  -17.4624  -15.8179   28.9952 C   0  0  0  0  0  0  0  0  0  0  0  0
  -21.0219  -18.2162   22.0856 C   0  0  0  0  0  0  0  0  0  0  0  0
  -17.2821  -16.5584   27.8113 C   0  0  0  0  0  0  0  0  0  0  0  0
  -22.0986  -19.0514   22.4260 C   0  0  0  0  0  0  0  0  0  0  0  0
  -29.9075  -17.9489   22.1930 C   0  0  0  0  0  0  0  0  0  0  0  0
  -29.0722  -18.4213   21.1806 C   0  0  0  0  0  0  0  0  0  0  0  0
  -28.1938  -19.4744   21.4358 C   0  0  0  0  0  0  0  0  0  0  0  0
  -22.3424   -8.1179   21.4271 C   0  0  0  0  0  0  0  0  0  0  0  0
  -22.9531  -18.8643   20.1726 C   0  0  0  0  0  0  0  0  0  0  0  0
  -20.4588   -7.1065   22.4025 C   0  0  0  0  0  0  0  0  0  0  0  0
  -18.1258   -7.3473   23.9130 C   0  0  0  0  0  0  0  0  0  0  0  0
  -20.3234   -6.3952   23.5947 C   0  0  0  0  0  0  0  0  0  0  0  0
  -24.5986  -11.6274   20.7265 C   0  0  0  0  0  0  0  0  0  0  0  0
  -25.2668  -13.7147   20.5479 C   0  0  0  0  0  0  0  0  0  0  0  0
  -27.7102  -20.9782   19.5102 C   0  0  0  0  0  0  0  0  0  0  0  0
  -28.9690  -21.3220   19.1746 C   0  0  0  0  0  0  0  0  0  0  0  0
  -27.6567  -22.3579   23.3873 C   0  0  0  0  0  0  0  0  0  0  0  0
  -27.2463  -21.1569   23.0105 C   0  0  0  0  0  0  0  0  0  0  0  0
  -22.9203  -13.4661   21.3729 C   0  0  0  0  0  0  0  0  0  0  0  0
  -19.5676  -18.3677   25.5407 C   0  0  0  0  0  0  0  0  0  0  0  0
  -22.6095  -18.1383   25.8637 C   0  0  0  0  0  0  0  0  0  0  0  0
  -25.9510  -17.4555   25.7913 C   0  0  0  0  0  0  0  0  0  0  0  0
  -30.7573  -14.7094   20.6495 C   0  0  0  0  0  0  0  0  0  0  0  0
  -18.4660  -16.2293   30.0431 C   0  0  0  0  0  0  0  0  0  0  0  0
  -19.9682  -17.9492   23.1260 C   0  0  0  0  0  0  0  0  0  0  0  0
  -22.1561  -19.5921   23.8287 C   0  0  0  0  0  0  0  0  0  0  0  0
  -26.5759  -21.7408   18.8531 C   0  0  0  0  0  0  0  0  0  0  0  0
  -19.5231  -17.2015   29.5257 C   0  0  0  0  0  0  0  0  0  0  0  0
  -25.4215  -20.8340   18.4530 C   0  0  0  0  0  0  0  0  0  0  0  0
  -29.5601  -12.3997   18.2188 C   0  0  0  0  0  0  0  0  0  0  0  0
  -18.8708  -18.3190   28.7179 C   0  0  0  0  0  0  0  0  0  0  0  0
  -28.1310  -12.0982   18.6733 C   0  0  0  0  0  0  0  0  0  0  0  0
  -30.5033  -12.5822   19.4059 C   0  0  0  0  0  0  0  0  0  0  0  0
  -28.6342  -13.2787   20.8533 C   0  0  0  0  0  0  0  0  0  0  0  0
  -26.1092  -19.1693   20.2030 C   0  0  0  0  0  0  0  0  0  0  0  0
  -18.1442  -17.7595   27.4888 C   0  0  1  0  0  0  0  0  0  0  0  0
  -20.5442  -17.8114   24.5467 C   0  0  1  0  0  0  0  0  0  0  0  0
  -27.6347  -13.1419   19.6920 C   0  0  2  0  0  0  0  0  0  0  0  0
  -24.9643  -20.0171   19.6520 C   0  0  2  0  0  0  0  0  0  1  0  0
  -29.1238  -17.7928   19.8232 C   0  0  0  0  0  0  0  0  0  0  0  0
  -27.9204  -17.0919   27.3034 C   0  0  0  0  0  0  0  0  0  0  0  0
  -22.7591  -21.1400   26.3843 C   0  0  0  0  0  0  0  0  0  0  0  0
  -25.1559  -20.8349   27.0406 C   0  0  0  0  0  0  0  0  0  0  0  0
  -23.3537  -19.7094   28.3475 C   0  0  0  0  0  0  0  0  0  0  0  0
  -26.3699  -14.7069   24.7769 C   0  0  0  0  0  0  0  0  0  0  0  0
  -30.8578  -16.8226   21.9471 C   0  0  0  0  0  0  0  0  0  0  0  0
  -23.9215  -18.8613   26.0344 C   0  0  1  0  0  0  0  0  0  0  0  0
  -26.7862  -16.4300   26.5365 C   0  0  2  0  0  0  0  0  0  0  0  0
  -23.7884  -20.1280   26.9261 C   0  0  0  0  0  0  0  0  0  0  0  0
  -25.8539  -11.5397   20.2789 N   0  0  0  0  0  0  0  0  0  0  0  0
  -26.2331  -12.8252   20.1801 N   0  0  0  0  0  0  0  0  0  0  0  0
  -27.3438  -19.9513   20.3970 N   0  0  0  0  0  0  0  0  0  0  0  0
  -21.8039  -18.5349   24.7894 N   0  0  0  0  0  0  0  0  0  0  0  0
  -29.9756  -13.5861   20.3330 N   0  0  0  0  0  0  0  0  0  0  0  0
  -25.4809  -15.0470   20.5094 N   0  0  0  0  0  0  0  0  0  0  0  0
  -21.9219  -13.7350   20.4268 N   0  0  0  0  0  0  0  0  0  0  0  0
  -19.0927  -17.4365   26.4446 N   0  0  0  0  0  0  0  0  0  0  0  0
  -24.8696  -17.8733   26.5377 N   0  0  0  0  0  0  0  0  0  0  0  0
  -30.1798  -15.6152   21.5309 N   0  0  0  0  0  0  0  0  0  0  0  0
  -27.3745  -15.4485   25.5818 N   0  3  0  0  0  0  0  0  0  0  0  0
  -22.6930  -13.6905   22.5860 O   0  0  0  0  0  0  0  0  0  0  0  0
  -19.2672  -19.5548   25.4933 O   0  0  0  0  0  0  0  0  0  0  0  0
  -22.3022  -17.2494   26.6629 O   0  0  0  0  0  0  0  0  0  0  0  0
  -26.2321  -17.8494   24.6615 O   0  0  0  0  0  0  0  0  0  0  0  0
  -31.8841  -14.8943   20.1772 O   0  0  0  0  0  0  0  0  0  0  0  0
  -21.6166   -6.9887   21.6520 O   0  0  0  0  0  0  0  0  0  0  0  0
  -23.8983  -19.1675   19.2402 O   0  0  0  0  0  0  0  0  0  1  0  0
  -17.0061   -7.4641   24.6389 F   0  0  0  0  0  0  0  0  0  0  0  0
  -21.3110   -5.5956   24.0202 F   0  0  0  0  0  0  0  0  0  0  0  0
  1  2  1  0  0  0  0
  1  6  2  0  0  0  0
  2  7  2  0  0  0  0
  3 10  2  0  0  0  0
  3 17  1  0  0  0  0
  4 11  1  0  0  0  0
  4 17  2  0  0  0  0
  5  9  2  0  0  0  0
  5 18  1  0  0  0  0
  6 20  1  0  0  0  0
  7 22  1  0  0  0  0
  8 12  2  0  0  0  0
  8 21  1  0  0  0  0
  9 24  1  0  0  0  0
 10 27  1  0  0  0  0
 11 27  2  0  0  0  0
 12 28  1  0  0  0  0
 13 14  2  0  0  0  0
 13 29  1  0  0  0  0
 14 30  1  0  0  0  0
 15 23  1  0  0  0  0
 15 28  2  0  0  0  0
 16 30  2  0  0  0  0
 16 31  1  0  0  0  0
 17 32  1  0  0  0  0
 18 26  2  0  0  0  0
 18 37  1  0  0  0  0
 19 32  1  0  0  0  0
 19 33  2  0  0  0  0
 19 38  1  0  0  0  0
 20 22  2  0  0  0  0
 20 43  1  0  0  0  0
 21 23  2  0  0  0  0
 21 44  1  0  0  0  0
 22 55  1  0  0  0  0
 23 45  1  0  0  0  0
 24 25  2  0  0  0  0
 24 65  1  0  0  0  0
 25 26  1  0  0  0  0
 25 59  1  0  0  0  0
 26 71  1  0  0  0  0
 27 85  1  0  0  0  0
 28 86  1  0  0  0  0
 29 31  2  0  0  0  0
 29 85  1  0  0  0  0
 30 87  1  0  0  0  0
 31 88  1  0  0  0  0
 32 69  2  0  0  0  0
 33 70  1  0  0  0  0
 33 74  1  0  0  0  0
 34 35  2  0  0  0  0
 34 46  1  0  0  0  0
 34 71  1  0  0  0  0
 36 37  2  0  0  0  0
 38 75  1  0  0  0  0
 38 80  2  0  0  0  0
 39 56  1  0  0  0  0
 39 76  1  0  0  0  0
 39 81  2  0  0  0  0
 40 66  1  0  0  0  0
 40 72  1  0  0  0  0
 40 82  2  0  0  0  0
 41 67  1  0  0  0  0
 41 77  1  0  0  0  0
 41 83  2  0  0  0  0
 42 73  1  0  0  0  0
 42 78  1  0  0  0  0
 42 84  2  0  0  0  0
 43 47  1  0  0  0  0
 44 56  1  0  0  0  0
 45 72  1  0  0  0  0
 46 48  1  0  0  0  0
 47 50  1  0  0  0  0
 48 58  1  0  0  0  0
 49 51  1  0  0  0  0
 49 52  1  0  0  0  0
 50 55  1  0  0  0  0
 51 57  1  0  0  0  0
 52 73  1  0  0  0  0
 53 57  1  0  0  0  0
 53 73  1  0  0  0  0
 54 58  1  0  0  0  0
 54 71  1  0  0  0  0
 55 76  1  0  0  0  0
 56 72  1  0  0  0  0
 57 70  1  0  0  0  0
 58 86  1  0  0  0  0
 60 67  1  0  0  0  0
 61 68  1  0  0  0  0
 62 68  1  0  0  0  0
 63 68  1  0  0  0  0
 64 79  1  0  0  0  0
 65 78  1  0  0  0  0
 66 68  1  0  0  0  0
 66 77  1  0  0  0  0
 67 79  1  0  0  0  0
 69 70  1  0  0  0  0
M  CHG  1  79   1
M  ISO  4  42 100  58 101  78 100  86 101
M  END
> <Batch ID>
0038

> <Smiles>
C=Cc1ccc(C[100NH:0][100C:0](=O)N2CCCC(n3nc(-c4ccc(Oc5ccc(F)cc5F)cc4)c(C(N)=O)c3N)C2)c(C)c1N1C[101CH:1]([101O:1]c2ccc3c(c2)CN(C(=O)C(NC(=O)C(C)NC)C(C)(C)C)C(C(=O)NC2CCCc4ccccc42)C3)CCC1=C

> <Shape>
0.182

> <Color>
0.159

> <Negative vol penalty>
0.000

$$$$

  -OEChem-04042322003D

 88 97  0     1  0  0  0  0  0999 V2000
  -33.6260  -32.2601   23.6889 C   0  0  0  0  0  0  0  0  0  0  0  0
  -33.4808  -31.1074   24.4543 C   0  0  0  0  0  0  0  0  0  0  0  0
  -22.6379  -10.2986   20.2019 C   0  0  0  0  0  0  0  0  0  0  0  0
  -24.3085   -9.4710   21.7385 C   0  0  0  0  0  0  0  0  0  0  0  0
  -32.6042  -32.6566   22.8272 C   0  0  0  0  0  0  0  0  0  0  0  0
  -32.3132  -30.3511   24.3591 C   0  0  0  0  0  0  0  0  0  0  0  0
  -31.8261  -24.2614   24.7883 C   0  0  0  0  0  0  0  0  0  0  0  0
  -21.9031   -9.1248   20.3685 C   0  0  0  0  0  0  0  0  0  0  0  0
  -23.5737   -8.2972   21.9051 C   0  0  0  0  0  0  0  0  0  0  0  0
  -31.4641  -23.4212   25.8403 C   0  0  0  0  0  0  0  0  0  0  0  0
  -22.0079   -5.9400   19.2414 C   0  0  0  0  0  0  0  0  0  0  0  0
  -21.4955   -5.3290   18.0969 C   0  0  0  0  0  0  0  0  0  0  0  0
  -29.2015  -23.3612   25.0059 C   0  0  0  0  0  0  0  0  0  0  0  0
  -31.6707  -19.2050   23.2970 C   0  0  0  0  0  0  0  0  0  0  0  0
  -19.2551   -5.5814   18.9653 C   0  0  0  0  0  0  0  0  0  0  0  0
  -23.8406  -10.4717   20.8868 C   0  0  0  0  0  0  0  0  0  0  0  0
  -24.1806  -12.9976   20.9969 C   0  0  0  0  0  0  0  0  0  0  0  0
  -31.4275  -31.8995   22.7142 C   0  0  0  0  0  0  0  0  0  0  0  0
  -30.8744  -24.6673   23.8417 C   0  0  0  0  0  0  0  0  0  0  0  0
  -31.2741  -30.7386   23.4960 C   0  0  0  0  0  0  0  0  0  0  0  0
  -29.5546  -24.2045   23.9413 C   0  0  0  0  0  0  0  0  0  0  0  0
  -31.4887  -19.0972   21.9183 C   0  0  0  0  0  0  0  0  0  0  0  0
  -31.3369  -18.1372   24.1302 C   0  0  0  0  0  0  0  0  0  0  0  0
  -30.9729  -17.9216   21.3728 C   0  0  0  0  0  0  0  0  0  0  0  0
  -30.8211  -16.9616   23.5846 C   0  0  0  0  0  0  0  0  0  0  0  0
  -30.6391  -16.8538   22.2059 C   0  0  0  0  0  0  0  0  0  0  0  0
  -22.3709   -8.1241   21.2201 C   0  0  0  0  0  0  0  0  0  0  0  0
  -30.1510  -22.9733   25.9509 C   0  0  0  0  0  0  0  0  0  0  0  0
  -21.1439   -6.3716   20.2479 C   0  0  0  0  0  0  0  0  0  0  0  0
  -20.1191   -5.1498   17.9589 C   0  0  0  0  0  0  0  0  0  0  0  0
  -19.7675   -6.1923   20.1098 C   0  0  0  0  0  0  0  0  0  0  0  0
  -24.6004  -11.6838   20.7147 C   0  0  0  0  0  0  0  0  0  0  0  0
  -25.2585  -13.7813   20.6645 C   0  0  0  0  0  0  0  0  0  0  0  0
  -30.4223  -18.1269   27.7534 C   0  0  0  0  0  0  0  0  0  0  0  0
  -29.9006  -16.9598   28.1602 C   0  0  0  0  0  0  0  0  0  0  0  0
  -22.9283  -13.4675   21.5133 C   0  0  0  0  0  0  0  0  0  0  0  0
  -29.6591  -27.4622   22.9389 C   0  0  0  0  0  0  0  0  0  0  0  0
  -28.2065  -25.6561   20.6696 C   0  0  0  0  0  0  0  0  0  0  0  0
  -26.5657  -22.4467   20.5101 C   0  0  0  0  0  0  0  0  0  0  0  0
  -30.7286  -14.8192   20.7231 C   0  0  0  0  0  0  0  0  0  0  0  0
  -30.3309  -32.3936   21.8042 C   0  0  0  0  0  0  0  0  0  0  0  0
  -31.2870  -25.5524   22.6976 C   0  0  0  0  0  0  0  0  0  0  0  0
  -28.4997  -24.5948   22.9396 C   0  0  0  0  0  0  0  0  0  0  0  0
  -31.1276  -19.0781   28.6816 C   0  0  0  0  0  0  0  0  0  0  0  0
  -29.2812  -31.3327   21.4835 C   0  0  0  0  0  0  0  0  0  0  0  0
  -30.5539  -20.4825   28.5380 C   0  0  0  0  0  0  0  0  0  0  0  0
  -29.5184  -12.6415   18.1795 C   0  0  0  0  0  0  0  0  0  0  0  0
  -28.8496  -30.6075   22.7542 C   0  0  0  0  0  0  0  0  0  0  0  0
  -28.0965  -12.3063   18.6355 C   0  0  0  0  0  0  0  0  0  0  0  0
  -30.4806  -12.7560   19.3605 C   0  0  0  0  0  0  0  0  0  0  0  0
  -28.6307  -13.3394   20.8792 C   0  0  0  0  0  0  0  0  0  0  0  0
  -29.6881  -19.8796   26.2464 C   0  0  0  0  0  0  0  0  0  0  0  0
  -30.0328  -29.8782   23.4021 C   0  0  1  0  0  0  0  0  0  0  0  0
  -30.1190  -26.3167   22.0822 C   0  0  1  0  0  0  0  0  0  0  0  0
  -27.6118  -13.2777   19.7295 C   0  0  2  0  0  0  0  0  0  0  0  0
  -30.4678  -20.9010   27.0703 C   0  0  1  0  0  0  0  0  0  1  0  0
  -31.8533  -20.2559   21.0490 C   0  0  0  0  0  0  0  0  0  0  0  0
  -30.7814  -17.8132   19.8921 C   0  0  0  0  0  0  0  0  0  0  0  0
  -30.4639  -15.8205   24.4852 C   0  0  0  0  0  0  0  0  0  0  0  0
  -26.2852  -20.8513   18.5935 C   0  0  0  0  0  0  0  0  0  0  0  0
  -25.5349  -27.0719   20.2600 C   0  0  0  0  0  0  0  0  0  0  0  0
  -24.5259  -24.8530   19.6883 C   0  0  0  0  0  0  0  0  0  0  0  0
  -26.3528  -25.7922   18.2730 C   0  0  0  0  0  0  0  0  0  0  0  0
  -27.7842  -20.2209   22.0333 C   0  0  0  0  0  0  0  0  0  0  0  0
  -31.5433  -18.2791   25.6095 C   0  0  0  0  0  0  0  0  0  0  0  0
  -26.9010  -24.9039   20.5757 C   0  0  1  0  0  0  0  0  0  0  0  0
  -27.0901  -21.1904   19.8385 C   0  0  2  0  0  0  0  0  0  0  0  0
  -25.8418  -25.6592   19.7242 C   0  0  0  0  0  0  0  0  0  0  0  0
  -25.8476  -11.6319   20.2395 N   0  0  0  0  0  0  0  0  0  0  0  0
  -26.2208  -12.9228   20.2205 N   0  0  0  0  0  0  0  0  0  0  0  0
  -28.9508  -25.4669   21.8426 N   0  0  0  0  0  0  0  0  0  0  0  0
  -29.9581  -13.6963   20.3543 N   0  0  0  0  0  0  0  0  0  0  0  0
  -25.4675  -15.1142   20.7117 N   0  0  0  0  0  0  0  0  0  0  0  0
  -22.7777  -13.5781   22.9023 N   0  0  0  0  0  0  0  0  0  0  0  0
  -30.1153  -15.6596   21.6516 N   0  0  0  0  0  0  0  0  0  0  0  0
  -30.3199  -28.6504   22.6918 N   0  0  0  0  0  0  0  0  0  0  0  0
  -27.2313  -23.5736   20.0760 N   0  0  0  0  0  0  0  0  0  0  0  0
  -30.2608  -18.4884   26.3660 N   0  3  1  0  0  0  0  0  0  0  0  0
  -27.0171  -20.0334   20.7750 N   0  3  0  0  0  0  0  0  0  0  0  0
  -21.9657  -13.7644   20.7658 O   0  0  0  0  0  0  0  0  0  0  0  0
  -28.7695  -27.2819   23.7622 O   0  0  0  0  0  0  0  0  0  0  0  0
  -28.5565  -26.3791   19.7334 O   0  0  0  0  0  0  0  0  0  0  0  0
  -25.6542  -22.4305   21.3343 O   0  0  0  0  0  0  0  0  0  0  0  0
  -31.8386  -15.0350   20.2297 O   0  0  0  0  0  0  0  0  0  0  0  0
  -21.6541   -6.9786   21.3832 O   0  0  0  0  0  0  0  0  0  0  0  0
  -29.7948  -22.1537   26.9771 O   0  0  0  0  0  0  0  0  0  1  0  0
  -19.6271   -4.5645   16.8591 F   0  0  0  0  0  0  0  0  0  0  0  0
  -18.9324   -6.6059   21.0728 F   0  0  0  0  0  0  0  0  0  0  0  0
  1  2  1  0  0  0  0
  1  5  2  0  0  0  0
  2  6  2  0  0  0  0
  3  8  2  0  0  0  0
  3 16  1  0  0  0  0
  4  9  1  0  0  0  0
  4 16  2  0  0  0  0
  5 18  1  0  0  0  0
  6 20  1  0  0  0  0
  7 10  2  0  0  0  0
  7 19  1  0  0  0  0
  8 27  1  0  0  0  0
  9 27  2  0  0  0  0
 10 28  1  0  0  0  0
 11 12  2  0  0  0  0
 11 29  1  0  0  0  0
 12 30  1  0  0  0  0
 13 21  1  0  0  0  0
 13 28  2  0  0  0  0
 14 22  2  0  0  0  0
 14 23  1  0  0  0  0
 15 30  2  0  0  0  0
 15 31  1  0  0  0  0
 16 32  1  0  0  0  0
 17 32  1  0  0  0  0
 17 33  2  0  0  0  0
 17 36  1  0  0  0  0
 18 20  2  0  0  0  0
 18 41  1  0  0  0  0
 19 21  2  0  0  0  0
 19 42  1  0  0  0  0
 20 53  1  0  0  0  0
 21 43  1  0  0  0  0
 22 24  1  0  0  0  0
 22 57  1  0  0  0  0
 23 25  2  0  0  0  0
 23 65  1  0  0  0  0
 24 26  2  0  0  0  0
 24 58  1  0  0  0  0
 25 26  1  0  0  0  0
 25 59  1  0  0  0  0
 26 75  1  0  0  0  0
 27 85  1  0  0  0  0
 28 86  1  0  0  0  0
 29 31  2  0  0  0  0
 29 85  1  0  0  0  0
 30 87  1  0  0  0  0
 31 88  1  0  0  0  0
 32 69  2  0  0  0  0
 33 70  1  0  0  0  0
 33 73  1  0  0  0  0
 34 35  2  0  0  0  0
 34 44  1  0  0  0  0
 34 78  1  0  0  0  0
 36 74  1  0  0  0  0
 36 80  2  0  0  0  0
 37 54  1  0  0  0  0
 37 76  1  0  0  0  0
 37 81  2  0  0  0  0
 38 66  1  0  0  0  0
 38 71  1  0  0  0  0
 38 82  2  0  0  0  0
 39 67  1  0  0  0  0
 39 77  1  0  0  0  0
 39 83  2  0  0  0  0
 40 72  1  0  0  0  0
 40 75  1  0  0  0  0
 40 84  2  0  0  0  0
 41 45  1  0  0  0  0
 42 54  1  0  0  0  0
 43 71  1  0  0  0  0
 44 46  1  0  0  0  0
 45 48  1  0  0  0  0
 46 56  1  0  0  0  0
 47 49  1  0  0  0  0
 47 50  1  0  0  0  0
 48 53  1  0  0  0  0
 49 55  1  0  0  0  0
 50 72  1  0  0  0  0
 51 55  1  0  0  0  0
 51 72  1  0  0  0  0
 52 56  1  0  0  0  0
 52 78  1  0  0  0  0
 53 76  1  0  0  0  0
 54 71  1  0  0  0  0
 55 70  1  0  0  0  0
 56 86  1  0  0  0  0
 60 67  1  0  0  0  0
 61 68  1  0  0  0  0
 62 68  1  0  0  0  0
 63 68  1  0  0  0  0
 64 79  1  0  0  0  0
 65 78  1  0  0  0  0
 66 68  1  0  0  0  0
 66 77  1  0  0  0  0
 67 79  1  0  0  0  0
 69 70  1  0  0  0  0
M  CHG  2  78   1  79   1
M  ISO  4  40 100  56 101  75 100  86 101
M  END
> <Batch ID>
0038

> <Smiles>
C=C1CC[101CH:1]([101O:1]c2ccc3c(c2)CN(C(=O)C(NC(=O)C(C)NC)C(C)(C)C)C(C(=O)NC2CCCc4ccccc42)C3)CN1Cc1cc(C)c(C)c([100NH:0][100C:0](=O)N2CCCC(n3nc(-c4ccc(Oc5ccc(F)cc5F)cc4)c(C(N)=O)c3N)C2)c1C

> <Shape>
0.198

> <Color>
0.183

> <Negative vol penalty>
0.000

$$$$

  -OEChem-04042322003D

 84 92  0     1  0  0  0  0  0999 V2000
  -21.7859  -12.0620   21.4941 C   0  0  0  0  0  0  0  0  0  0  0  0
  -21.6342  -13.4296   21.6991 C   0  0  0  0  0  0  0  0  0  0  0  0
  -29.7022  -28.8767   21.2810 C   0  0  0  0  0  0  0  0  0  0  0  0
  -28.7456  -27.1089   22.6214 C   0  0  0  0  0  0  0  0  0  0  0  0
  -23.0488  -11.5336   21.2302 C   0  0  0  0  0  0  0  0  0  0  0  0
  -22.7458  -14.2696   21.6414 C   0  0  0  0  0  0  0  0  0  0  0  0
  -21.8585  -18.4860   18.9808 C   0  0  0  0  0  0  0  0  0  0  0  0
  -30.8356  -28.8799   22.0940 C   0  0  0  0  0  0  0  0  0  0  0  0
  -29.8790  -27.1120   23.4345 C   0  0  0  0  0  0  0  0  0  0  0  0
  -21.1360  -19.4974   19.6126 C   0  0  0  0  0  0  0  0  0  0  0  0
  -33.0371  -25.9157   23.3072 C   0  0  0  0  0  0  0  0  0  0  0  0
  -33.5908  -24.6821   23.6493 C   0  0  0  0  0  0  0  0  0  0  0  0
  -23.1934  -20.6672   20.0791 C   0  0  0  0  0  0  0  0  0  0  0  0
  -18.1280  -27.6661   21.8749 C   0  0  0  0  0  0  0  0  0  0  0  0
  -33.2305  -25.1691   25.9881 C   0  0  0  0  0  0  0  0  0  0  0  0
  -28.6572  -27.9912   21.5447 C   0  0  0  0  0  0  0  0  0  0  0  0
  -27.2746  -27.2212   19.5440 C   0  0  0  0  0  0  0  0  0  0  0  0
  -24.1749  -12.3688   21.1596 C   0  0  0  0  0  0  0  0  0  0  0  0
  -23.2570  -18.5525   18.9029 C   0  0  0  0  0  0  0  0  0  0  0  0
  -24.0252  -13.7517   21.3776 C   0  0  0  0  0  0  0  0  0  0  0  0
  -23.9311  -19.6567   19.4436 C   0  0  0  0  0  0  0  0  0  0  0  0
  -19.3305  -27.1635   22.3719 C   0  0  0  0  0  0  0  0  0  0  0  0
  -19.7588  -25.8882   22.0034 C   0  0  0  0  0  0  0  0  0  0  0  0
  -17.7820  -25.6180   20.6409 C   0  0  0  0  0  0  0  0  0  0  0  0
  -18.9846  -25.1154   21.1379 C   0  0  0  0  0  0  0  0  0  0  0  0
  -30.9240  -27.9976   23.1707 C   0  0  0  0  0  0  0  0  0  0  0  0
  -21.8037  -20.5867   20.1644 C   0  0  0  0  0  0  0  0  0  0  0  0
  -32.5801  -26.7761   24.3055 C   0  0  0  0  0  0  0  0  0  0  0  0
  -33.6875  -24.3087   24.9898 C   0  0  0  0  0  0  0  0  0  0  0  0
  -32.6768  -26.4028   25.6460 C   0  0  0  0  0  0  0  0  0  0  0  0
  -17.3537  -26.8933   21.0094 C   0  0  0  0  0  0  0  0  0  0  0  0
  -27.4859  -27.9878   20.7056 C   0  0  0  0  0  0  0  0  0  0  0  0
  -26.0180  -27.5788   19.1204 C   0  0  0  0  0  0  0  0  0  0  0  0
  -28.1371  -26.2706   18.9050 C   0  0  0  0  0  0  0  0  0  0  0  0
  -25.6513  -16.7622   19.9827 C   0  0  0  0  0  0  0  0  0  0  0  0
  -27.4567  -18.8077   18.2280 C   0  0  0  0  0  0  0  0  0  0  0  0
  -27.7727  -21.8826   16.7818 C   0  0  0  0  0  0  0  0  0  0  0  0
  -21.2341  -29.7924   21.9604 C   0  0  0  0  0  0  0  0  0  0  0  0
  -25.5270  -11.7455   20.9184 C   0  0  0  0  0  0  0  0  0  0  0  0
  -24.0196  -17.4666   18.1946 C   0  0  0  0  0  0  0  0  0  0  0  0
  -25.4298  -19.7855   19.3687 C   0  0  0  0  0  0  0  0  0  0  0  0
  -26.5965  -12.7525   20.5030 C   0  0  0  0  0  0  0  0  0  0  0  0
  -22.9434  -31.2438   19.1949 C   0  0  0  0  0  0  0  0  0  0  0  0
  -26.5536  -13.9803   21.4072 C   0  0  0  0  0  0  0  0  0  0  0  0
  -24.2823  -30.5048   19.1636 C   0  0  0  0  0  0  0  0  0  0  0  0
  -22.4619  -31.4791   20.6248 C   0  0  0  0  0  0  0  0  0  0  0  0
  -23.7335  -29.5284   21.4317 C   0  0  0  0  0  0  0  0  0  0  0  0
  -25.2031  -14.6985   21.2985 C   0  0  1  0  0  0  0  0  0  0  0  0
  -25.4807  -17.3839   18.6255 C   0  0  1  0  0  0  0  0  0  0  0  0
  -24.2327  -29.2185   20.0101 C   0  0  2  0  0  0  0  0  0  0  0  0
  -21.0489  -25.3539   22.5422 C   0  0  0  0  0  0  0  0  0  0  0  0
  -16.9576  -24.7801   19.7120 C   0  0  0  0  0  0  0  0  0  0  0  0
  -29.3770  -23.2763   15.4472 C   0  0  0  0  0  0  0  0  0  0  0  0
  -29.1114  -19.3066   20.7426 C   0  0  0  0  0  0  0  0  0  0  0  0
  -30.0478  -21.3485   19.6370 C   0  0  0  0  0  0  0  0  0  0  0  0
  -30.4476  -19.0976   18.6389 C   0  0  0  0  0  0  0  0  0  0  0  0
  -25.8800  -22.1007   14.5170 C   0  0  0  0  0  0  0  0  0  0  0  0
  -20.1397  -28.0113   23.2981 C   0  0  0  0  0  0  0  0  0  0  0  0
  -19.0718  -22.6487   21.5029 C   0  0  0  0  0  0  0  0  0  0  0  0
  -19.6821  -21.4313   20.8287 C   0  0  0  0  0  0  0  0  0  1  0  0
  -28.1425  -20.1260   18.4940 C   0  0  1  0  0  0  0  0  0  0  0  0
  -28.2116  -22.3009   15.3901 C   0  0  2  0  0  0  0  0  0  0  0  0
  -29.4092  -19.9666   19.3814 C   0  0  0  0  0  0  0  0  0  0  0  0
  -26.4469  -28.7734   21.0010 N   0  0  0  0  0  0  0  0  0  0  0  0
  -25.5706  -28.5023   20.0188 N   0  0  0  0  0  0  0  0  0  0  0  0
  -26.1314  -18.6949   18.6716 N   0  0  0  0  0  0  0  0  0  0  0  0
  -22.4363  -30.2201   21.3732 N   0  0  0  0  0  0  0  0  0  0  0  0
  -25.2632  -27.1904   18.0707 N   0  0  0  0  0  0  0  0  0  0  0  0
  -29.3941  -26.0218   19.4727 N   0  0  0  0  0  0  0  0  0  0  0  0
  -19.4104  -23.8490   20.7730 N   0  0  0  0  0  0  0  0  0  0  0  0
  -25.1432  -15.4810   20.0825 N   0  0  0  0  0  0  0  0  0  0  0  0
  -28.3991  -20.7234   17.1881 N   0  0  0  0  0  0  0  0  0  0  0  0
  -21.2956  -28.5854   22.6461 N   0  0  0  0  0  0  0  0  0  0  0  0
  -27.0853  -22.9561   14.6668 N   0  3  0  0  0  0  0  0  0  0  0  0
  -27.8095  -25.6721   17.8524 O   0  0  0  0  0  0  0  0  0  0  0  0
  -26.2043  -17.3972   20.8730 O   0  0  0  0  0  0  0  0  0  0  0  0
  -28.0717  -17.9135   17.6417 O   0  0  0  0  0  0  0  0  0  0  0  0
  -26.9585  -22.5224   17.4439 O   0  0  0  0  0  0  0  0  0  0  0  0
  -20.1825  -30.4357   21.8752 O   0  0  0  0  0  0  0  0  0  0  0  0
  -32.0300  -28.0002   23.9642 O   0  0  0  0  0  0  0  0  0  0  0  0
  -21.1011  -21.5749   20.7822 O   0  0  0  0  0  0  0  0  0  1  0  0
  -34.2178  -23.1233   25.3181 F   0  0  0  0  0  0  0  0  0  0  0  0
  -32.2385  -27.2246   26.6094 F   0  0  0  0  0  0  0  0  0  0  0  0
  -15.8708  -27.5514   20.4184 Cl  0  0  0  0  0  0  0  0  0  0  0  0
  1  2  1  0  0  0  0
  1  5  2  0  0  0  0
  2  6  2  0  0  0  0
  3  8  2  0  0  0  0
  3 16  1  0  0  0  0
  4  9  1  0  0  0  0
  4 16  2  0  0  0  0
  5 18  1  0  0  0  0
  6 20  1  0  0  0  0
  7 10  2  0  0  0  0
  7 19  1  0  0  0  0
  8 26  1  0  0  0  0
  9 26  2  0  0  0  0
 10 27  1  0  0  0  0
 11 12  2  0  0  0  0
 11 28  1  0  0  0  0
 12 29  1  0  0  0  0
 13 21  1  0  0  0  0
 13 27  2  0  0  0  0
 14 22  2  0  0  0  0
 14 31  1  0  0  0  0
 15 29  2  0  0  0  0
 15 30  1  0  0  0  0
 16 32  1  0  0  0  0
 17 32  1  0  0  0  0
 17 33  2  0  0  0  0
 17 34  1  0  0  0  0
 18 20  2  0  0  0  0
 18 39  1  0  0  0  0
 19 21  2  0  0  0  0
 19 40  1  0  0  0  0
 20 48  1  0  0  0  0
 21 41  1  0  0  0  0
 22 23  1  0  0  0  0
 22 58  1  0  0  0  0
 23 25  2  0  0  0  0
 23 51  1  0  0  0  0
 24 25  1  0  0  0  0
 24 31  2  0  0  0  0
 24 52  1  0  0  0  0
 25 70  1  0  0  0  0
 26 80  1  0  0  0  0
 27 81  1  0  0  0  0
 28 30  2  0  0  0  0
 28 80  1  0  0  0  0
 29 82  1  0  0  0  0
 30 83  1  0  0  0  0
 31 84  1  0  0  0  0
 32 64  2  0  0  0  0
 33 65  1  0  0  0  0
 33 68  1  0  0  0  0
 34 69  1  0  0  0  0
 34 75  2  0  0  0  0
 35 49  1  0  0  0  0
 35 71  1  0  0  0  0
 35 76  2  0  0  0  0
 36 61  1  0  0  0  0
 36 66  1  0  0  0  0
 36 77  2  0  0  0  0
 37 62  1  0  0  0  0
 37 72  1  0  0  0  0
 37 78  2  0  0  0  0
 38 67  1  0  0  0  0
 38 73  1  0  0  0  0
 38 79  2  0  0  0  0
 39 42  1  0  0  0  0
 40 49  1  0  0  0  0
 41 66  1  0  0  0  0
 42 44  1  0  0  0  0
 43 45  1  0  0  0  0
 43 46  1  0  0  0  0
 44 48  1  0  0  0  0
 45 50  1  0  0  0  0
 46 67  1  0  0  0  0
 47 50  1  0  0  0  0
 47 67  1  0  0  0  0
 48 71  1  0  0  0  0
 49 66  1  0  0  0  0
 50 65  1  0  0  0  0
 53 62  1  0  0  0  0
 54 63  1  0  0  0  0
 55 63  1  0  0  0  0
 56 63  1  0  0  0  0
 57 74  1  0  0  0  0
 58 73  1  0  0  0  0
 59 60  1  0  0  0  0
 59 70  1  0  0  0  0
 60 81  1  0  0  0  0
 61 63  1  0  0  0  0
 61 72  1  0  0  0  0
 62 74  1  0  0  0  0
 64 65  1  0  0  0  0
M  CHG  1  74   1
M  ISO  4  38 100  60 101  73 100  81 101
M  END
> <Batch ID>
0038

> <Smiles>
CNC(C)C(=O)NC(C(=O)N1Cc2cc([101O:1][101CH2:1]CNc3c(C)c(Cl)cc(C[100NH:0][100C:0](=O)N4CCCC(n5nc(-c6ccc(Oc7ccc(F)cc7F)cc6)c(C(N)=O)c5N)C4)c3C)ccc2CC1C(=O)NC1CCCc2ccccc21)C(C)(C)C

> <Shape>
0.218

> <Color>
0.052

> <Negative vol penalty>
0.000

$$$$

  -OEChem-04042322003D

 89 98  0     1  0  0  0  0  0999 V2000
  -24.1648  -16.3222   27.1239 C   0  0  0  0  0  0  0  0  0  0  0  0
  -24.2514  -17.7047   27.2427 C   0  0  0  0  0  0  0  0  0  0  0  0
  -28.2661  -14.4076   19.8844 C   0  0  0  0  0  0  0  0  0  0  0  0
  -27.1934  -14.8290   22.0078 C   0  0  0  0  0  0  0  0  0  0  0  0
  -23.9299  -15.7470   25.8768 C   0  0  0  0  0  0  0  0  0  0  0  0
  -24.0913  -18.5130   26.1167 C   0  0  0  0  0  0  0  0  0  0  0  0
  -24.6015  -24.5502   25.4694 C   0  0  0  0  0  0  0  0  0  0  0  0
  -27.5060  -13.2482   19.7305 C   0  0  0  0  0  0  0  0  0  0  0  0
  -26.4332  -13.6696   21.8538 C   0  0  0  0  0  0  0  0  0  0  0  0
  -25.5951  -25.4689   25.1340 C   0  0  0  0  0  0  0  0  0  0  0  0
  -23.6801  -12.7066   20.1469 C   0  0  0  0  0  0  0  0  0  0  0  0
  -22.3180  -12.7833   20.4372 C   0  0  0  0  0  0  0  0  0  0  0  0
  -24.8134  -25.4718   22.8518 C   0  0  0  0  0  0  0  0  0  0  0  0
  -25.4184  -26.7729   19.4926 C   0  0  0  0  0  0  0  0  0  0  0  0
  -22.5859  -11.0920   22.1415 C   0  0  0  0  0  0  0  0  0  0  0  0
  -28.1099  -15.1980   21.0231 C   0  0  0  0  0  0  0  0  0  0  0  0
  -30.2987  -16.4908   21.2354 C   0  0  0  0  0  0  0  0  0  0  0  0
  -23.7794  -16.5488   24.7334 C   0  0  0  0  0  0  0  0  0  0  0  0
  -23.7117  -24.0764   24.4946 C   0  0  0  0  0  0  0  0  0  0  0  0
  -23.8297  -17.9525   24.8534 C   0  0  0  0  0  0  0  0  0  0  0  0
  -23.8078  -24.5491   23.1780 C   0  0  0  0  0  0  0  0  0  0  0  0
  -25.0756  -28.0339   19.9803 C   0  0  0  0  0  0  0  0  0  0  0  0
  -26.7197  -26.2952   19.6478 C   0  0  0  0  0  0  0  0  0  0  0  0
  -26.0341  -28.8173   20.6232 C   0  0  0  0  0  0  0  0  0  0  0  0
  -27.6782  -27.0786   20.2906 C   0  0  0  0  0  0  0  0  0  0  0  0
  -27.3354  -28.3396   20.7783 C   0  0  0  0  0  0  0  0  0  0  0  0
  -26.5896  -12.8792   20.7151 C   0  0  0  0  0  0  0  0  0  0  0  0
  -25.7030  -25.9277   23.8244 C   0  0  0  0  0  0  0  0  0  0  0  0
  -24.4952  -11.8225   20.8539 C   0  0  0  0  0  0  0  0  0  0  0  0
  -21.7709  -11.9760   21.4345 C   0  0  0  0  0  0  0  0  0  0  0  0
  -23.9481  -11.0153   21.8512 C   0  0  0  0  0  0  0  0  0  0  0  0
  -28.8952  -16.3954   21.1830 C   0  0  0  0  0  0  0  0  0  0  0  0
  -30.5459  -17.8323   21.3956 C   0  0  0  0  0  0  0  0  0  0  0  0
  -31.2904  -15.4591   21.1470 C   0  0  0  0  0  0  0  0  0  0  0  0
  -23.0536  -21.2244   23.2548 C   0  0  0  0  0  0  0  0  0  0  0  0
  -20.6894  -22.8572   21.7493 C   0  0  0  0  0  0  0  0  0  0  0  0
  -19.5161  -25.8447   20.5895 C   0  0  0  0  0  0  0  0  0  0  0  0
  -27.4234  -22.6137   19.8974 C   0  0  0  0  0  0  0  0  0  0  0  0
  -23.5190  -15.8741   23.4097 C   0  0  0  0  0  0  0  0  0  0  0  0
  -22.6286  -23.1058   24.8783 C   0  0  0  0  0  0  0  0  0  0  0  0
  -22.8645  -24.0869   22.0987 C   0  0  0  0  0  0  0  0  0  0  0  0
  -23.8048  -16.7783   22.2151 C   0  0  0  0  0  0  0  0  0  0  0  0
  -28.8549  -31.1601   24.2866 C   0  0  0  0  0  0  0  0  0  0  0  0
  -28.6022  -21.8063   23.2225 C   0  0  0  0  0  0  0  0  0  0  0  0
  -30.1132  -30.6109   23.6167 C   0  0  0  0  0  0  0  0  0  0  0  0
  -23.1252  -18.1256   22.4087 C   0  0  0  0  0  0  0  0  0  0  0  0
  -28.9453  -20.3231   23.0718 C   0  0  0  0  0  0  0  0  0  0  0  0
  -28.0174  -30.0517   24.9081 C   0  0  0  0  0  0  0  0  0  0  0  0
  -27.3527  -22.1685   22.4252 C   0  0  0  0  0  0  0  0  0  0  0  0
  -27.7667  -20.3409   20.8244 C   0  0  0  0  0  0  0  0  0  0  0  0
  -30.0496  -29.1157   23.3346 C   0  0  0  0  0  0  0  0  0  0  0  0
  -23.6893  -18.8503   23.6374 C   0  0  1  0  0  0  0  0  0  0  0  0
  -22.1014  -22.3002   23.6949 C   0  0  1  0  0  0  0  0  0  0  0  0
  -29.0338  -19.9163   21.5889 C   0  0  2  0  0  0  0  0  0  0  0  0
  -27.5601  -29.0279   23.8617 C   0  0  2  0  0  0  0  0  0  0  0  0
  -23.6753  -28.5221   19.8006 C   0  0  0  0  0  0  0  0  0  0  0  0
  -25.6637  -30.1694   21.1455 C   0  0  0  0  0  0  0  0  0  0  0  0
  -29.0733  -26.5640   20.4550 C   0  0  0  0  0  0  0  0  0  0  0  0
  -17.5713  -26.8574   19.3690 C   0  0  0  0  0  0  0  0  0  0  0  0
  -21.7520  -21.7260   19.1223 C   0  0  0  0  0  0  0  0  0  0  0  0
  -20.4247  -23.4716   17.9143 C   0  0  0  0  0  0  0  0  0  0  0  0
  -19.2584  -21.7637   19.3091 C   0  0  0  0  0  0  0  0  0  0  0  0
  -18.8361  -27.5883   22.8822 C   0  0  0  0  0  0  0  0  0  0  0  0
  -27.0606  -24.9411   19.1172 C   0  0  0  0  0  0  0  0  0  0  0  0
  -28.3662  -29.1820   21.4703 C   0  0  0  0  0  0  0  0  0  0  0  0
  -27.0937  -27.7299   24.5130 C   0  0  0  0  0  0  0  0  0  1  0  0
  -20.5702  -23.6038   20.4426 C   0  0  1  0  0  0  0  0  0  0  0  0
  -18.1625  -26.5177   20.7284 C   0  0  2  0  0  0  0  0  0  0  0  0
  -20.5205  -22.6487   19.2168 C   0  0  0  0  0  0  0  0  0  0  0  0
  -28.2929  -17.5818   21.3005 N   0  0  0  0  0  0  0  0  0  0  0  0
  -29.3230  -18.4354   21.4285 N   0  0  0  0  0  0  0  0  0  0  0  0
  -21.8263  -23.1328   22.5221 N   0  0  0  0  0  0  0  0  0  0  0  0
  -27.5091  -21.7717   21.0187 N   0  0  0  0  0  0  0  0  0  0  0  0
  -31.6878  -18.5432   21.5103 N   0  0  0  0  0  0  0  0  0  0  0  0
  -31.7163  -14.8387   22.3295 N   0  0  0  0  0  0  0  0  0  0  0  0
  -22.8815  -20.0191   23.9082 N   0  0  0  0  0  0  0  0  0  0  0  0
  -19.4039  -24.4705   20.5726 N   0  0  0  0  0  0  0  0  0  0  0  0
  -27.1702  -23.9530   20.1673 N   0  0  0  0  0  0  0  0  0  0  0  0
  -28.6756  -28.7077   22.8678 N   0  3  1  0  0  0  0  0  0  0  0  0
  -18.2886  -27.7777   21.5142 N   0  3  0  0  0  0  0  0  0  0  0  0
  -31.7961  -15.1093   20.0537 O   0  0  0  0  0  0  0  0  0  0  0  0
  -23.8821  -21.4693   22.3857 O   0  0  0  0  0  0  0  0  0  0  0  0
  -19.8027  -22.0642   22.0757 O   0  0  0  0  0  0  0  0  0  0  0  0
  -20.5674  -26.4751   20.5008 O   0  0  0  0  0  0  0  0  0  0  0  0
  -27.5674  -22.2031   18.7408 O   0  0  0  0  0  0  0  0  0  0  0  0
  -25.8475  -11.7481   20.5651 O   0  0  0  0  0  0  0  0  0  0  0  0
  -26.6723  -26.8239   23.4941 O   0  0  0  0  0  0  0  0  0  1  0  0
  -20.4631  -12.0508   21.7142 F   0  0  0  0  0  0  0  0  0  0  0  0
  -24.7263  -10.1649   22.5346 F   0  0  0  0  0  0  0  0  0  0  0  0
  1  2  1  0  0  0  0
  1  5  2  0  0  0  0
  2  6  2  0  0  0  0
  3  8  2  0  0  0  0
  3 16  1  0  0  0  0
  4  9  1  0  0  0  0
  4 16  2  0  0  0  0
  5 18  1  0  0  0  0
  6 20  1  0  0  0  0
  7 10  2  0  0  0  0
  7 19  1  0  0  0  0
  8 27  1  0  0  0  0
  9 27  2  0  0  0  0
 10 28  1  0  0  0  0
 11 12  2  0  0  0  0
 11 29  1  0  0  0  0
 12 30  1  0  0  0  0
 13 21  1  0  0  0  0
 13 28  2  0  0  0  0
 14 22  1  0  0  0  0
 14 23  2  0  0  0  0
 15 30  2  0  0  0  0
 15 31  1  0  0  0  0
 16 32  1  0  0  0  0
 17 32  1  0  0  0  0
 17 33  2  0  0  0  0
 17 34  1  0  0  0  0
 18 20  2  0  0  0  0
 18 39  1  0  0  0  0
 19 21  2  0  0  0  0
 19 40  1  0  0  0  0
 20 52  1  0  0  0  0
 21 41  1  0  0  0  0
 22 24  2  0  0  0  0
 22 56  1  0  0  0  0
 23 25  1  0  0  0  0
 23 64  1  0  0  0  0
 24 26  1  0  0  0  0
 24 57  1  0  0  0  0
 25 26  2  0  0  0  0
 25 58  1  0  0  0  0
 26 65  1  0  0  0  0
 27 86  1  0  0  0  0
 28 87  1  0  0  0  0
 29 31  2  0  0  0  0
 29 86  1  0  0  0  0
 30 88  1  0  0  0  0
 31 89  1  0  0  0  0
 32 70  2  0  0  0  0
 33 71  1  0  0  0  0
 33 74  1  0  0  0  0
 34 75  1  0  0  0  0
 34 81  2  0  0  0  0
 35 53  1  0  0  0  0
 35 76  1  0  0  0  0
 35 82  2  0  0  0  0
 36 67  1  0  0  0  0
 36 72  1  0  0  0  0
 36 83  2  0  0  0  0
 37 68  1  0  0  0  0
 37 77  1  0  0  0  0
 37 84  2  0  0  0  0
 38 73  1  0  0  0  0
 38 78  1  0  0  0  0
 38 85  2  0  0  0  0
 39 42  1  0  0  0  0
 40 53  1  0  0  0  0
 41 72  1  0  0  0  0
 42 46  1  0  0  0  0
 43 45  1  0  0  0  0
 43 48  1  0  0  0  0
 44 47  1  0  0  0  0
 44 49  1  0  0  0  0
 45 51  1  0  0  0  0
 46 52  1  0  0  0  0
 47 54  1  0  0  0  0
 48 55  1  0  0  0  0
 49 73  1  0  0  0  0
 50 54  1  0  0  0  0
 50 73  1  0  0  0  0
 51 79  1  0  0  0  0
 52 76  1  0  0  0  0
 53 72  1  0  0  0  0
 54 71  1  0  0  0  0
 55 66  1  0  0  0  0
 55 79  1  0  0  0  0
 59 68  1  0  0  0  0
 60 69  1  0  0  0  0
 61 69  1  0  0  0  0
 62 69  1  0  0  0  0
 63 80  1  0  0  0  0
 64 78  1  0  0  0  0
 65 79  1  0  0  0  0
 66 87  1  0  0  0  0
 67 69  1  0  0  0  0
 67 77  1  0  0  0  0
 68 80  1  0  0  0  0
 70 71  1  0  0  0  0
M  CHG  2  79   1  80   1
M  ISO  4  38 100  66 101  78 100  87 101
M  END
> <Batch ID>
0038

> <Smiles>
CNC(C)C(=O)NC(C(=O)N1Cc2cc([101O:1][101CH2:1]C3CCCCN3Cc3c(C)c(C)cc(C[100NH:0][100C:0](=O)N4CCCC(n5nc(-c6ccc(Oc7ccc(F)cc7F)cc6)c(C(N)=O)c5N)C4)c3C)ccc2CC1C(=O)NC1CCCc2ccccc21)C(C)(C)C

> <Shape>
0.210

> <Color>
0.045

> <Negative vol penalty>
0.000

$$$$

  -OEChem-04042322003D

 88 97  0     1  0  0  0  0  0999 V2000
  -33.7404  -24.4691   19.0198 C   0  0  0  0  0  0  0  0  0  0  0  0
  -32.4863  -24.0813   19.4806 C   0  0  0  0  0  0  0  0  0  0  0  0
  -23.2979   -9.5590   19.8368 C   0  0  0  0  0  0  0  0  0  0  0  0
  -24.5332   -9.2512   21.8901 C   0  0  0  0  0  0  0  0  0  0  0  0
  -34.3434  -25.6190   19.5276 C   0  0  0  0  0  0  0  0  0  0  0  0
  -31.8351  -24.8426   20.4505 C   0  0  0  0  0  0  0  0  0  0  0  0
  -26.9415  -25.5817   19.3774 C   0  0  0  0  0  0  0  0  0  0  0  0
  -22.7696   -8.2742   19.9619 C   0  0  0  0  0  0  0  0  0  0  0  0
  -24.0049   -7.9663   22.0153 C   0  0  0  0  0  0  0  0  0  0  0  0
  -26.0676  -24.5252   19.6303 C   0  0  0  0  0  0  0  0  0  0  0  0
  -21.1048   -6.5549   23.0241 C   0  0  0  0  0  0  0  0  0  0  0  0
  -20.6317   -6.1697   24.2784 C   0  0  0  0  0  0  0  0  0  0  0  0
  -25.3943  -25.5833   21.6910 C   0  0  0  0  0  0  0  0  0  0  0  0
  -29.6996  -18.6962   21.8292 C   0  0  0  0  0  0  0  0  0  0  0  0
  -27.6721  -18.5371   23.1335 C   0  0  0  0  0  0  0  0  0  0  0  0
  -22.2261   -4.3550   24.3225 C   0  0  0  0  0  0  0  0  0  0  0  0
  -24.1798  -10.0475   20.8008 C   0  0  0  0  0  0  0  0  0  0  0  0
  -24.0125  -12.5868   20.6231 C   0  0  0  0  0  0  0  0  0  0  0  0
  -33.6950  -26.4001   20.4972 C   0  0  0  0  0  0  0  0  0  0  0  0
  -27.0565  -26.6433   20.2863 C   0  0  0  0  0  0  0  0  0  0  0  0
  -32.4306  -26.0033   20.9728 C   0  0  0  0  0  0  0  0  0  0  0  0
  -26.2685  -26.6533   21.4461 C   0  0  0  0  0  0  0  0  0  0  0  0
  -29.5712  -20.0848   21.7989 C   0  0  0  0  0  0  0  0  0  0  0  0
  -27.5437  -19.9257   23.1033 C   0  0  0  0  0  0  0  0  0  0  0  0
  -28.4933  -20.6996   22.4360 C   0  0  0  0  0  0  0  0  0  0  0  0
  -28.7500  -17.9223   22.4964 C   0  0  0  0  0  0  0  0  0  0  0  0
  -23.1230   -7.4779   21.0512 C   0  0  0  0  0  0  0  0  0  0  0  0
  -25.2959  -24.5244   20.7886 C   0  0  0  0  0  0  0  0  0  0  0  0
  -22.1384   -5.8400   22.4188 C   0  0  0  0  0  0  0  0  0  0  0  0
  -21.1924   -5.0698   24.9277 C   0  0  0  0  0  0  0  0  0  0  0  0
  -22.6991   -4.7401   23.0681 C   0  0  0  0  0  0  0  0  0  0  0  0
  -24.7263  -11.3744   20.6718 C   0  0  0  0  0  0  0  0  0  0  0  0
  -24.9821  -13.5514   20.4968 C   0  0  0  0  0  0  0  0  0  0  0  0
  -23.9547  -20.5589   23.9289 C   0  0  0  0  0  0  0  0  0  0  0  0
  -23.3021  -19.4531   24.3177 C   0  0  0  0  0  0  0  0  0  0  0  0
  -22.5993  -12.8203   20.6866 C   0  0  0  0  0  0  0  0  0  0  0  0
  -29.4092  -27.8283   22.0653 C   0  0  0  0  0  0  0  0  0  0  0  0
  -27.2198  -30.1257   22.7367 C   0  0  0  0  0  0  0  0  0  0  0  0
  -23.6902  -30.2654   23.4712 C   0  0  0  0  0  0  0  0  0  0  0  0
  -29.8901  -15.7437   21.9487 C   0  0  0  0  0  0  0  0  0  0  0  0
  -34.4072  -27.6089   21.0507 C   0  0  0  0  0  0  0  0  0  0  0  0
  -27.9842  -27.7886   19.9859 C   0  0  0  0  0  0  0  0  0  0  0  0
  -26.3399  -27.7793   22.4437 C   0  0  0  0  0  0  0  0  0  0  0  0
  -23.5399  -21.9445   24.3434 C   0  0  0  0  0  0  0  0  0  0  0  0
  -33.4871  -28.5661   21.8040 C   0  0  0  0  0  0  0  0  0  0  0  0
  -23.4216  -22.8498   23.1232 C   0  0  0  0  0  0  0  0  0  0  0  0
  -29.9320  -13.1382   19.5224 C   0  0  0  0  0  0  0  0  0  0  0  0
  -32.5861  -27.7958   22.7640 C   0  0  0  0  0  0  0  0  0  0  0  0
  -28.5227  -12.5468   19.6011 C   0  0  0  0  0  0  0  0  0  0  0  0
  -30.4467  -13.5622   20.8968 C   0  0  0  0  0  0  0  0  0  0  0  0
  -28.1459  -13.8669   21.7230 C   0  0  0  0  0  0  0  0  0  0  0  0
  -24.9444  -21.2990   21.8422 C   0  0  0  0  0  0  0  0  0  0  0  0
  -31.6816  -26.8166   22.0061 C   0  0  1  0  0  0  0  0  0  0  0  0
  -28.3985  -28.5647   21.2323 C   0  0  1  0  0  0  0  0  0  0  0  0
  -27.5592  -13.4849   20.3543 C   0  0  2  0  0  0  0  0  0  0  0  0
  -24.6594  -22.7472   22.2322 C   0  0  1  0  0  0  0  0  0  1  0  0
  -30.6011  -20.8906   21.0771 C   0  0  0  0  0  0  0  0  0  0  0  0
  -28.3560  -22.1887   22.4039 C   0  0  0  0  0  0  0  0  0  0  0  0
  -23.6957  -18.0728   23.9192 C   0  0  0  0  0  0  0  0  0  0  0  0
  -22.0205  -32.1041   23.1121 C   0  0  0  0  0  0  0  0  0  0  0  0
  -27.8763  -30.8903   25.6167 C   0  0  0  0  0  0  0  0  0  0  0  0
  -25.4550  -31.4321   25.9513 C   0  0  0  0  0  0  0  0  0  0  0  0
  -26.7960  -32.7042   24.2761 C   0  0  0  0  0  0  0  0  0  0  0  0
  -21.9059  -28.4973   21.9062 C   0  0  0  0  0  0  0  0  0  0  0  0
  -26.3751  -20.5621   23.7964 C   0  0  0  0  0  0  0  0  0  0  0  0
  -26.1505  -30.3093   23.7864 C   0  0  1  0  0  0  0  0  0  0  0  0
  -22.5949  -30.8048   22.5691 C   0  0  2  0  0  0  0  0  0  0  0  0
  -26.5774  -31.3081   24.8989 C   0  0  0  0  0  0  0  0  0  0  0  0
  -26.0474  -11.5500   20.5833 N   0  0  0  0  0  0  0  0  0  0  0  0
  -26.1714  -12.8841   20.4778 N   0  0  0  0  0  0  0  0  0  0  0  0
  -27.2665  -28.8732   22.1083 N   0  0  0  0  0  0  0  0  0  0  0  0
  -29.4843  -14.4528   21.5490 N   0  0  0  0  0  0  0  0  0  0  0  0
  -24.9248  -14.8967   20.4011 N   0  0  0  0  0  0  0  0  0  0  0  0
  -22.0107  -13.0195   21.9429 N   0  0  0  0  0  0  0  0  0  0  0  0
  -28.8808  -16.5118   22.5282 N   0  0  0  0  0  0  0  0  0  0  0  0
  -30.5764  -27.5210   21.3924 N   0  0  0  0  0  0  0  0  0  0  0  0
  -24.9383  -30.6937   23.0714 N   0  0  0  0  0  0  0  0  0  0  0  0
  -25.0833  -20.3977   23.0447 N   0  3  1  0  0  0  0  0  0  0  0  0
  -21.4873  -29.8148   22.4502 N   0  3  0  0  0  0  0  0  0  0  0  0
  -21.8771  -12.8349   19.6610 O   0  0  0  0  0  0  0  0  0  0  0  0
  -29.1499  -27.5600   23.2325 O   0  0  0  0  0  0  0  0  0  0  0  0
  -27.9810  -31.0614   22.4787 O   0  0  0  0  0  0  0  0  0  0  0  0
  -23.4611  -29.5399   24.4365 O   0  0  0  0  0  0  0  0  0  0  0  0
  -31.0408  -16.1485   21.7640 O   0  0  0  0  0  0  0  0  0  0  0  0
  -22.6075   -6.2242   21.1738 O   0  0  0  0  0  0  0  0  0  0  0  0
  -24.4426  -23.4942   21.0381 O   0  0  0  0  0  0  0  0  0  1  0  0
  -20.7390   -4.7010   26.1329 F   0  0  0  0  0  0  0  0  0  0  0  0
  -23.6932   -4.0502   22.4922 F   0  0  0  0  0  0  0  0  0  0  0  0
  1  2  1  0  0  0  0
  1  5  2  0  0  0  0
  2  6  2  0  0  0  0
  3  8  2  0  0  0  0
  3 17  1  0  0  0  0
  4  9  1  0  0  0  0
  4 17  2  0  0  0  0
  5 19  1  0  0  0  0
  6 21  1  0  0  0  0
  7 10  2  0  0  0  0
  7 20  1  0  0  0  0
  8 27  1  0  0  0  0
  9 27  2  0  0  0  0
 10 28  1  0  0  0  0
 11 12  2  0  0  0  0
 11 29  1  0  0  0  0
 12 30  1  0  0  0  0
 13 22  1  0  0  0  0
 13 28  2  0  0  0  0
 14 23  2  0  0  0  0
 14 26  1  0  0  0  0
 15 24  1  0  0  0  0
 15 26  2  0  0  0  0
 16 30  2  0  0  0  0
 16 31  1  0  0  0  0
 17 32  1  0  0  0  0
 18 32  1  0  0  0  0
 18 33  2  0  0  0  0
 18 36  1  0  0  0  0
 19 21  2  0  0  0  0
 19 41  1  0  0  0  0
 20 22  2  0  0  0  0
 20 42  1  0  0  0  0
 21 53  1  0  0  0  0
 22 43  1  0  0  0  0
 23 25  1  0  0  0  0
 23 57  1  0  0  0  0
 24 25  2  0  0  0  0
 24 65  1  0  0  0  0
 25 58  1  0  0  0  0
 26 75  1  0  0  0  0
 27 85  1  0  0  0  0
 28 86  1  0  0  0  0
 29 31  2  0  0  0  0
 29 85  1  0  0  0  0
 30 87  1  0  0  0  0
 31 88  1  0  0  0  0
 32 69  2  0  0  0  0
 33 70  1  0  0  0  0
 33 73  1  0  0  0  0
 34 35  2  0  0  0  0
 34 44  1  0  0  0  0
 34 78  1  0  0  0  0
 35 59  1  0  0  0  0
 36 74  1  0  0  0  0
 36 80  2  0  0  0  0
 37 54  1  0  0  0  0
 37 76  1  0  0  0  0
 37 81  2  0  0  0  0
 38 66  1  0  0  0  0
 38 71  1  0  0  0  0
 38 82  2  0  0  0  0
 39 67  1  0  0  0  0
 39 77  1  0  0  0  0
 39 83  2  0  0  0  0
 40 72  1  0  0  0  0
 40 75  1  0  0  0  0
 40 84  2  0  0  0  0
 41 45  1  0  0  0  0
 42 54  1  0  0  0  0
 43 71  1  0  0  0  0
 44 46  1  0  0  0  0
 45 48  1  0  0  0  0
 46 56  1  0  0  0  0
 47 49  1  0  0  0  0
 47 50  1  0  0  0  0
 48 53  1  0  0  0  0
 49 55  1  0  0  0  0
 50 72  1  0  0  0  0
 51 55  1  0  0  0  0
 51 72  1  0  0  0  0
 52 56  1  0  0  0  0
 52 78  1  0  0  0  0
 53 76  1  0  0  0  0
 54 71  1  0  0  0  0
 55 70  1  0  0  0  0
 56 86  1  0  0  0  0
 60 67  1  0  0  0  0
 61 68  1  0  0  0  0
 62 68  1  0  0  0  0
 63 68  1  0  0  0  0
 64 79  1  0  0  0  0
 65 78  1  0  0  0  0
 66 68  1  0  0  0  0
 66 77  1  0  0  0  0
 67 79  1  0  0  0  0
 69 70  1  0  0  0  0
M  CHG  2  78   1  79   1
M  ISO  4  40 100  56 101  75 100  86 101
M  END
> <Batch ID>
0038

> <Smiles>
CC=C1CC[101CH:1]([101O:1]c2ccc3c(c2)CN(C(=O)C(NC(=O)C(C)NC)C(C)(C)C)C(C(=O)NC2CCCc4ccccc42)C3)CN1Cc1cc([100NH:0][100C:0](=O)N2CCCC(n3nc(-c4ccc(Oc5ccc(F)cc5F)cc4)c(C(N)=O)c3N)C2)cc(C)c1C

> <Shape>
0.294

> <Color>
0.166

> <Negative vol penalty>
0.000

$$$$

  -OEChem-04042322003D

 92101  0     1  0  0  0  0  0999 V2000
  -26.2546  -31.5677   27.6735 C   0  0  0  0  0  0  0  0  0  0  0  0
  -26.6644  -30.6248   26.7363 C   0  0  0  0  0  0  0  0  0  0  0  0
  -24.2133  -12.3679   25.0739 C   0  0  0  0  0  0  0  0  0  0  0  0
  -23.8348  -14.6575   25.7458 C   0  0  0  0  0  0  0  0  0  0  0  0
  -24.8957  -31.8139   27.8647 C   0  0  0  0  0  0  0  0  0  0  0  0
  -25.7153  -29.9266   25.9904 C   0  0  0  0  0  0  0  0  0  0  0  0
  -26.9218  -29.6520   21.0799 C   0  0  0  0  0  0  0  0  0  0  0  0
  -23.6469  -11.9236   26.2687 C   0  0  0  0  0  0  0  0  0  0  0  0
  -23.2683  -14.2133   26.9406 C   0  0  0  0  0  0  0  0  0  0  0  0
  -27.8879  -28.7162   20.7130 C   0  0  0  0  0  0  0  0  0  0  0  0
  -20.5465  -11.5073   27.5522 C   0  0  0  0  0  0  0  0  0  0  0  0
  -19.6322  -10.4561   27.4847 C   0  0  0  0  0  0  0  0  0  0  0  0
  -26.1468  -27.2114   19.9894 C   0  0  0  0  0  0  0  0  0  0  0  0
  -27.4090  -20.2695   18.6345 C   0  0  0  0  0  0  0  0  0  0  0  0
  -29.7317  -20.6187   19.2004 C   0  0  0  0  0  0  0  0  0  0  0  0
  -21.0549   -9.1269   28.9152 C   0  0  0  0  0  0  0  0  0  0  0  0
  -24.3073  -13.7348   24.8125 C   0  0  0  0  0  0  0  0  0  0  0  0
  -24.2282  -14.4415   22.3626 C   0  0  0  0  0  0  0  0  0  0  0  0
  -23.9297  -31.1254   27.1140 C   0  0  0  0  0  0  0  0  0  0  0  0
  -25.5582  -29.3697   20.9141 C   0  0  0  0  0  0  0  0  0  0  0  0
  -24.3421  -30.1629   26.1728 C   0  0  0  0  0  0  0  0  0  0  0  0
  -25.1655  -28.1463   20.3526 C   0  0  0  0  0  0  0  0  0  0  0  0
  -27.3606  -21.5358   18.0516 C   0  0  0  0  0  0  0  0  0  0  0  0
  -29.6834  -21.8850   18.6174 C   0  0  0  0  0  0  0  0  0  0  0  0
  -28.4978  -22.3435   18.0430 C   0  0  0  0  0  0  0  0  0  0  0  0
  -28.5945  -19.8110   19.2090 C   0  0  0  0  0  0  0  0  0  0  0  0
  -23.1744  -12.8463   27.2020 C   0  0  0  0  0  0  0  0  0  0  0  0
  -27.5004  -27.4945   20.1703 C   0  0  0  0  0  0  0  0  0  0  0  0
  -21.7150  -11.3683   28.3012 C   0  0  0  0  0  0  0  0  0  0  0  0
  -19.8864   -9.2659   28.1662 C   0  0  0  0  0  0  0  0  0  0  0  0
  -21.9692  -10.1782   28.9827 C   0  0  0  0  0  0  0  0  0  0  0  0
  -24.8928  -14.1943   23.5788 C   0  0  0  0  0  0  0  0  0  0  0  0
  -25.2197  -14.8571   21.5078 C   0  0  0  0  0  0  0  0  0  0  0  0
  -32.6101  -23.7001   20.0660 C   0  0  0  0  0  0  0  0  0  0  0  0
  -33.4179  -22.9037   20.7821 C   0  0  0  0  0  0  0  0  0  0  0  0
  -25.3535  -23.0055   18.3042 C   0  0  0  0  0  0  0  0  0  0  0  0
  -24.1361  -22.7998   18.8283 C   0  0  0  0  0  0  0  0  0  0  0  0
  -22.8388  -14.3076   22.0349 C   0  0  0  0  0  0  0  0  0  0  0  0
  -23.0714  -29.0881   22.8738 C   0  0  0  0  0  0  0  0  0  0  0  0
  -21.4107  -28.8291   20.0994 C   0  0  0  0  0  0  0  0  0  0  0  0
  -21.4214  -28.0389   16.7794 C   0  0  0  0  0  0  0  0  0  0  0  0
  -29.7404  -17.9179   20.4130 C   0  0  0  0  0  0  0  0  0  0  0  0
  -22.4710  -31.3916   27.3894 C   0  0  0  0  0  0  0  0  0  0  0  0
  -24.5294  -30.4005   21.2901 C   0  0  0  0  0  0  0  0  0  0  0  0
  -23.7153  -27.8028   20.1352 C   0  0  0  0  0  0  0  0  0  0  0  0
  -33.0833  -24.9618   19.3992 C   0  0  0  0  0  0  0  0  0  0  0  0
  -21.5407  -30.8788   26.2931 C   0  0  0  0  0  0  0  0  0  0  0  0
  -32.1783  -26.1325   19.7711 C   0  0  0  0  0  0  0  0  0  0  0  0
  -30.2551  -14.7823   22.0193 C   0  0  0  0  0  0  0  0  0  0  0  0
  -21.9196  -29.4562   25.8937 C   0  0  0  0  0  0  0  0  0  0  0  0
  -28.8512  -14.3701   22.4682 C   0  0  0  0  0  0  0  0  0  0  0  0
  -30.4702  -16.2897   22.1426 C   0  0  0  0  0  0  0  0  0  0  0  0
  -28.0515  -16.7058   21.9277 C   0  0  0  0  0  0  0  0  0  0  0  0
  -30.3352  -24.5020   20.3428 C   0  0  0  0  0  0  0  0  0  0  0  0
  -23.3434  -29.4031   25.3269 C   0  0  1  0  0  0  0  0  0  0  0  0
  -23.1515  -29.8010   21.5535 C   0  0  1  0  0  0  0  0  0  0  0  0
  -30.6982  -25.7779   19.5718 C   0  0  1  0  0  0  0  0  0  0  0  0
  -27.7656  -15.2045   21.7604 C   0  0  2  0  0  0  0  0  0  0  0  0
  -28.4460  -23.7011   17.4173 C   0  0  0  0  0  0  0  0  0  0  0  0
  -19.9053  -27.8888   14.7853 C   0  0  0  0  0  0  0  0  0  0  0  0
  -20.2381  -26.2317   21.1895 C   0  0  0  0  0  0  0  0  0  0  0  0
  -19.5161  -25.6618   18.8610 C   0  0  0  0  0  0  0  0  0  0  0  0
  -18.6016  -27.6912   19.9870 C   0  0  0  0  0  0  0  0  0  0  0  0
  -22.9835  -30.0665   15.2935 C   0  0  0  0  0  0  0  0  0  0  0  0
  -26.0788  -22.0036   17.4438 C   0  0  0  0  0  0  0  0  0  0  0  0
  -30.9205  -22.7338   18.6214 C   0  0  0  0  0  0  0  0  0  0  0  0
  -23.4219  -23.7967   19.6817 C   0  0  0  0  0  0  0  0  0  0  0  0
  -29.8072  -26.9361   20.0197 C   0  0  0  0  0  0  0  0  0  1  0  0
  -21.0041  -27.6873   19.1994 C   0  0  1  0  0  0  0  0  0  0  0  0
  -20.8675  -28.7682   15.5686 C   0  0  2  0  0  0  0  0  0  0  0  0
  -19.8673  -26.8234   19.8150 C   0  0  0  0  0  0  0  0  0  0  0  0
  -26.2051  -14.4328   23.5070 N   0  0  0  0  0  0  0  0  0  0  0  0
  -26.3731  -14.8342   22.2355 N   0  0  0  0  0  0  0  0  0  0  0  0
  -22.7467  -28.8409   20.5246 N   0  0  0  0  0  0  0  0  0  0  0  0
  -29.4064  -17.0151   21.4446 N   0  0  0  0  0  0  0  0  0  0  0  0
  -25.2088  -15.2363   20.2122 N   0  0  0  0  0  0  0  0  0  0  0  0
  -21.9566  -13.8685   23.0316 N   0  0  0  0  0  0  0  0  0  0  0  0
  -28.6442  -18.5243   19.8003 N   0  0  0  0  0  0  0  0  0  0  0  0
  -23.3629  -29.8869   23.9631 N   0  0  0  0  0  0  0  0  0  0  0  0
  -20.6706  -28.2827   17.9100 N   0  0  0  0  0  0  0  0  0  0  0  0
  -31.2192  -23.3336   19.9675 N   0  3  1  0  0  0  0  0  0  0  0  0
  -23.1135  -23.2762   21.0391 N   0  3  0  0  0  0  0  0  0  0  0  0
  -21.9750  -29.1786   14.6598 N   0  3  0  0  0  0  0  0  0  0  0  0
  -22.3955  -14.5537   20.8876 O   0  0  0  0  0  0  0  0  0  0  0  0
  -22.7663  -27.9016   22.9022 O   0  0  0  0  0  0  0  0  0  0  0  0
  -20.5757  -29.6830   20.4077 O   0  0  0  0  0  0  0  0  0  0  0  0
  -22.4180  -27.3216   16.7266 O   0  0  0  0  0  0  0  0  0  0  0  0
  -30.9110  -18.1165   20.0782 O   0  0  0  0  0  0  0  0  0  0  0  0
  -22.6214  -12.4132   28.3678 O   0  0  0  0  0  0  0  0  0  0  0  0
  -28.4413  -26.5790   19.8119 O   0  0  0  0  0  0  0  0  0  1  0  0
  -19.0075   -8.2570   28.1025 F   0  0  0  0  0  0  0  0  0  0  0  0
  -23.0895  -10.0392   29.7048 F   0  0  0  0  0  0  0  0  0  0  0  0
  1  2  1  0  0  0  0
  1  5  2  0  0  0  0
  2  6  2  0  0  0  0
  3  8  2  0  0  0  0
  3 17  1  0  0  0  0
  4  9  1  0  0  0  0
  4 17  2  0  0  0  0
  5 19  1  0  0  0  0
  6 21  1  0  0  0  0
  7 10  2  0  0  0  0
  7 20  1  0  0  0  0
  8 27  1  0  0  0  0
  9 27  2  0  0  0  0
 10 28  1  0  0  0  0
 11 12  2  0  0  0  0
 11 29  1  0  0  0  0
 12 30  1  0  0  0  0
 13 22  1  0  0  0  0
 13 28  2  0  0  0  0
 14 23  2  0  0  0  0
 14 26  1  0  0  0  0
 15 24  1  0  0  0  0
 15 26  2  0  0  0  0
 16 30  2  0  0  0  0
 16 31  1  0  0  0  0
 17 32  1  0  0  0  0
 18 32  1  0  0  0  0
 18 33  2  0  0  0  0
 18 38  1  0  0  0  0
 19 21  2  0  0  0  0
 19 43  1  0  0  0  0
 20 22  2  0  0  0  0
 20 44  1  0  0  0  0
 21 55  1  0  0  0  0
 22 45  1  0  0  0  0
 23 25  1  0  0  0  0
 23 65  1  0  0  0  0
 24 25  2  0  0  0  0
 24 66  1  0  0  0  0
 25 59  1  0  0  0  0
 26 78  1  0  0  0  0
 27 89  1  0  0  0  0
 28 90  1  0  0  0  0
 29 31  2  0  0  0  0
 29 89  1  0  0  0  0
 30 91  1  0  0  0  0
 31 92  1  0  0  0  0
 32 72  2  0  0  0  0
 33 73  1  0  0  0  0
 33 76  1  0  0  0  0
 34 35  2  0  0  0  0
 34 46  1  0  0  0  0
 34 81  1  0  0  0  0
 36 37  2  0  0  0  0
 36 65  1  0  0  0  0
 37 67  1  0  0  0  0
 38 77  1  0  0  0  0
 38 84  2  0  0  0  0
 39 56  1  0  0  0  0
 39 79  1  0  0  0  0
 39 85  2  0  0  0  0
 40 69  1  0  0  0  0
 40 74  1  0  0  0  0
 40 86  2  0  0  0  0
 41 70  1  0  0  0  0
 41 80  1  0  0  0  0
 41 87  2  0  0  0  0
 42 75  1  0  0  0  0
 42 78  1  0  0  0  0
 42 88  2  0  0  0  0
 43 47  1  0  0  0  0
 44 56  1  0  0  0  0
 45 74  1  0  0  0  0
 46 48  1  0  0  0  0
 47 50  1  0  0  0  0
 48 57  1  0  0  0  0
 49 51  1  0  0  0  0
 49 52  1  0  0  0  0
 50 55  1  0  0  0  0
 51 58  1  0  0  0  0
 52 75  1  0  0  0  0
 53 58  1  0  0  0  0
 53 75  1  0  0  0  0
 54 57  1  0  0  0  0
 54 81  1  0  0  0  0
 55 79  1  0  0  0  0
 56 74  1  0  0  0  0
 57 68  1  0  0  0  0
 58 73  1  0  0  0  0
 60 70  1  0  0  0  0
 61 71  1  0  0  0  0
 62 71  1  0  0  0  0
 63 71  1  0  0  0  0
 64 83  1  0  0  0  0
 66 81  1  0  0  0  0
 67 82  1  0  0  0  0
 68 90  1  0  0  0  0
 69 71  1  0  0  0  0
 69 80  1  0  0  0  0
 70 83  1  0  0  0  0
 72 73  1  0  0  0  0
M  CHG  3  81   1  82   1  83   1
M  ISO  4  42 100  68 101  78 100  90 101
M  END
> <Batch ID>
0038

> <Smiles>
C=C1CCC([101CH2:1][101O:1]c2ccc3c(c2)CN(C(=O)C(NC(=O)C(C)NC)C(C)(C)C)C(C(=O)NC2CCCc4ccccc42)C3)CN1Cc1cc([100NH:0][100C:0](=O)N2CCCC(n3nc(-c4ccc(Oc5ccc(F)cc5F)cc4)c(C(N)=O)c3N)C2)cc(CC=CCN)c1C

> <Shape>
0.215

> <Color>
0.104

> <Negative vol penalty>
0.000

$$$$

  -OEChem-04042322003D

 87 96  0     1  0  0  0  0  0999 V2000
  -25.0673  -35.6838   22.0028 C   0  0  0  0  0  0  0  0  0  0  0  0
  -25.8019  -34.5030   21.9655 C   0  0  0  0  0  0  0  0  0  0  0  0
  -23.9735  -10.8181   23.5479 C   0  0  0  0  0  0  0  0  0  0  0  0
  -24.5848   -9.2790   21.7887 C   0  0  0  0  0  0  0  0  0  0  0  0
  -23.7665  -35.6786   22.5047 C   0  0  0  0  0  0  0  0  0  0  0  0
  -25.2365  -33.3164   22.4311 C   0  0  0  0  0  0  0  0  0  0  0  0
  -26.0879  -29.4089   19.3244 C   0  0  0  0  0  0  0  0  0  0  0  0
  -23.5879   -9.7457   24.3522 C   0  0  0  0  0  0  0  0  0  0  0  0
  -24.1992   -8.2066   22.5931 C   0  0  0  0  0  0  0  0  0  0  0  0
  -27.3500  -28.8187   19.3747 C   0  0  0  0  0  0  0  0  0  0  0  0
  -21.3192   -6.7002   23.5244 C   0  0  0  0  0  0  0  0  0  0  0  0
  -20.5499   -5.6948   22.9389 C   0  0  0  0  0  0  0  0  0  0  0  0
  -26.4617  -27.0506   20.7545 C   0  0  0  0  0  0  0  0  0  0  0  0
  -30.4311  -18.8460   20.1880 C   0  0  0  0  0  0  0  0  0  0  0  0
  -22.2670   -4.0772   23.4604 C   0  0  0  0  0  0  0  0  0  0  0  0
  -24.4719  -10.5847   22.2661 C   0  0  0  0  0  0  0  0  0  0  0  0
  -24.0617  -12.7565   20.9922 C   0  0  0  0  0  0  0  0  0  0  0  0
  -23.1814  -34.4895   22.9677 C   0  0  0  0  0  0  0  0  0  0  0  0
  -25.0037  -28.8292   19.9990 C   0  0  0  0  0  0  0  0  0  0  0  0
  -23.9271  -33.2955   22.9408 C   0  0  0  0  0  0  0  0  0  0  0  0
  -25.1862  -27.6340   20.7091 C   0  0  0  0  0  0  0  0  0  0  0  0
  -30.7018  -20.1680   20.5409 C   0  0  0  0  0  0  0  0  0  0  0  0
  -28.3421  -20.5606   20.8799 C   0  0  0  0  0  0  0  0  0  0  0  0
  -29.6572  -21.0253   20.8869 C   0  0  0  0  0  0  0  0  0  0  0  0
  -28.0714  -19.2385   20.5270 C   0  0  0  0  0  0  0  0  0  0  0  0
  -29.1160  -18.3812   20.1810 C   0  0  0  0  0  0  0  0  0  0  0  0
  -23.7008   -8.4400   23.8748 C   0  0  0  0  0  0  0  0  0  0  0  0
  -27.5377  -27.6410   20.0922 C   0  0  0  0  0  0  0  0  0  0  0  0
  -22.5625   -6.3941   24.0778 C   0  0  0  0  0  0  0  0  0  0  0  0
  -21.0237   -4.3833   22.9069 C   0  0  0  0  0  0  0  0  0  0  0  0
  -23.0364   -5.0826   24.0459 C   0  0  0  0  0  0  0  0  0  0  0  0
  -24.8699  -11.6921   21.4346 C   0  0  0  0  0  0  0  0  0  0  0  0
  -24.9038  -13.5367   20.2382 C   0  0  0  0  0  0  0  0  0  0  0  0
  -22.6738  -13.0168   21.2408 C   0  0  0  0  0  0  0  0  0  0  0  0
  -23.0753  -29.7485   22.3527 C   0  0  0  0  0  0  0  0  0  0  0  0
  -21.5367  -26.9809   21.6487 C   0  0  0  0  0  0  0  0  0  0  0  0
  -22.4587  -23.5913   20.8253 C   0  0  0  0  0  0  0  0  0  0  0  0
  -29.8007  -16.0683   19.4543 C   0  0  0  0  0  0  0  0  0  0  0  0
  -21.7890  -34.5424   23.5450 C   0  0  0  0  0  0  0  0  0  0  0  0
  -23.6427  -29.4638   19.9128 C   0  0  0  0  0  0  0  0  0  0  0  0
  -24.0504  -26.9608   21.4338 C   0  0  0  0  0  0  0  0  0  0  0  0
  -21.1298  -33.1714   23.6718 C   0  0  0  0  0  0  0  0  0  0  0  0
  -29.5839  -12.6359   18.5331 C   0  0  0  0  0  0  0  0  0  0  0  0
  -30.1462  -24.3502   17.9528 C   0  0  0  0  0  0  0  0  0  0  0  0
  -22.0973  -32.1692   24.2932 C   0  0  0  0  0  0  0  0  0  0  0  0
  -28.2717  -12.1719   19.1694 C   0  0  0  0  0  0  0  0  0  0  0  0
  -29.8639  -25.7570   18.4635 C   0  0  0  0  0  0  0  0  0  0  0  0
  -30.3206  -13.6386   19.4194 C   0  0  0  0  0  0  0  0  0  0  0  0
  -28.2090  -14.3298   20.4835 C   0  0  0  0  0  0  0  0  0  0  0  0
  -30.6142  -23.4295   19.0708 C   0  0  0  0  0  0  0  0  0  0  0  0
  -29.3551  -24.8093   20.7444 C   0  0  0  0  0  0  0  0  0  0  0  0
  -23.3396  -31.9835   23.4137 C   0  0  1  0  0  0  0  0  0  0  0  0
  -22.7231  -29.0638   21.0624 C   0  0  1  0  0  0  0  0  0  0  0  0
  -27.3995  -13.3681   19.5983 C   0  0  2  0  0  0  0  0  0  0  0  0
  -28.8849  -25.7388   19.6332 C   0  0  1  0  0  0  0  0  0  1  0  0
  -32.1184  -20.6418   20.5369 C   0  0  0  0  0  0  0  0  0  0  0  0
  -27.2220  -21.4808   21.2510 C   0  0  0  0  0  0  0  0  0  0  0  0
  -26.6591  -18.7426   20.5186 C   0  0  0  0  0  0  0  0  0  0  0  0
  -21.2410  -21.8468   19.4944 C   0  0  0  0  0  0  0  0  0  0  0  0
  -20.4819  -26.0633   24.3607 C   0  0  0  0  0  0  0  0  0  0  0  0
  -20.6980  -23.6988   23.5666 C   0  0  0  0  0  0  0  0  0  0  0  0
  -19.1492  -25.2680   22.3997 C   0  0  0  0  0  0  0  0  0  0  0  0
  -24.7569  -23.2141   18.9992 C   0  0  0  0  0  0  0  0  0  0  0  0
  -29.9518  -22.4471   21.2648 C   0  0  0  0  0  0  0  0  0  0  0  0
  -21.6455  -25.5490   22.1141 C   0  0  1  0  0  0  0  0  0  0  0  0
  -22.3227  -22.9156   19.4728 C   0  0  2  0  0  0  0  0  0  0  0  0
  -20.5162  -25.1621   23.1102 C   0  0  0  0  0  0  0  0  0  0  0  0
  -26.1288  -11.7845   20.9978 N   0  0  0  0  0  0  0  0  0  0  0  0
  -26.1179  -12.9162   20.2731 N   0  0  0  0  0  0  0  0  0  0  0  0
  -22.7402  -27.6233   21.3249 N   0  0  0  0  0  0  0  0  0  0  0  0
  -29.4336  -14.7461   19.7823 N   0  0  0  0  0  0  0  0  0  0  0  0
  -24.7169  -14.6861   19.5553 N   0  0  0  0  0  0  0  0  0  0  0  0
  -21.9567  -12.1132   22.0368 N   0  0  0  0  0  0  0  0  0  0  0  0
  -28.8639  -17.0344   19.8201 N   0  0  0  0  0  0  0  0  0  0  0  0
  -23.0373  -31.1282   22.2861 N   0  0  0  0  0  0  0  0  0  0  0  0
  -21.6847  -24.7295   20.9077 N   0  0  0  0  0  0  0  0  0  0  0  0
  -29.5940  -23.4302   20.1844 N   0  3  2  0  0  0  0  0  0  0  0  0
  -23.6099  -22.2737   19.0828 N   0  3  0  0  0  0  0  0  0  0  0  0
  -22.0830  -14.0121   20.7574 O   0  0  0  0  0  0  0  0  0  0  0  0
  -23.3591  -29.0749   23.3362 O   0  0  0  0  0  0  0  0  0  0  0  0
  -20.4242  -27.5078   21.5683 O   0  0  0  0  0  0  0  0  0  0  0  0
  -23.1766  -23.1513   21.7206 O   0  0  0  0  0  0  0  0  0  0  0  0
  -30.8550  -16.3222   18.8661 O   0  0  0  0  0  0  0  0  0  0  0  0
  -23.3248   -7.3933   24.6594 O   0  0  0  0  0  0  0  0  0  0  0  0
  -28.7687  -27.0632   20.1435 O   0  0  0  0  0  0  0  0  0  1  0  0
  -20.2841   -3.4176   22.3460 F   0  0  0  0  0  0  0  0  0  0  0  0
  -24.2295   -4.7823   24.5770 F   0  0  0  0  0  0  0  0  0  0  0  0
  1  2  1  0  0  0  0
  1  5  2  0  0  0  0
  2  6  2  0  0  0  0
  3  8  2  0  0  0  0
  3 16  1  0  0  0  0
  4  9  1  0  0  0  0
  4 16  2  0  0  0  0
  5 18  1  0  0  0  0
  6 20  1  0  0  0  0
  7 10  2  0  0  0  0
  7 19  1  0  0  0  0
  8 27  1  0  0  0  0
  9 27  2  0  0  0  0
 10 28  1  0  0  0  0
 11 12  2  0  0  0  0
 11 29  1  0  0  0  0
 12 30  1  0  0  0  0
 13 21  1  0  0  0  0
 13 28  2  0  0  0  0
 14 22  2  0  0  0  0
 14 26  1  0  0  0  0
 15 30  2  0  0  0  0
 15 31  1  0  0  0  0
 16 32  1  0  0  0  0
 17 32  1  0  0  0  0
 17 33  2  0  0  0  0
 17 34  1  0  0  0  0
 18 20  2  0  0  0  0
 18 39  1  0  0  0  0
 19 21  2  0  0  0  0
 19 40  1  0  0  0  0
 20 52  1  0  0  0  0
 21 41  1  0  0  0  0
 22 24  1  0  0  0  0
 22 56  1  0  0  0  0
 23 24  2  0  0  0  0
 23 25  1  0  0  0  0
 23 57  1  0  0  0  0
 24 64  1  0  0  0  0
 25 26  2  0  0  0  0
 25 58  1  0  0  0  0
 26 74  1  0  0  0  0
 27 84  1  0  0  0  0
 28 85  1  0  0  0  0
 29 31  2  0  0  0  0
 29 84  1  0  0  0  0
 30 86  1  0  0  0  0
 31 87  1  0  0  0  0
 32 68  2  0  0  0  0
 33 69  1  0  0  0  0
 33 72  1  0  0  0  0
 34 73  1  0  0  0  0
 34 79  2  0  0  0  0
 35 53  1  0  0  0  0
 35 75  1  0  0  0  0
 35 80  2  0  0  0  0
 36 65  1  0  0  0  0
 36 70  1  0  0  0  0
 36 81  2  0  0  0  0
 37 66  1  0  0  0  0
 37 76  1  0  0  0  0
 37 82  2  0  0  0  0
 38 71  1  0  0  0  0
 38 74  1  0  0  0  0
 38 83  2  0  0  0  0
 39 42  1  0  0  0  0
 40 53  1  0  0  0  0
 41 70  1  0  0  0  0
 42 45  1  0  0  0  0
 43 46  1  0  0  0  0
 43 48  1  0  0  0  0
 44 47  1  0  0  0  0
 44 50  1  0  0  0  0
 45 52  1  0  0  0  0
 46 54  1  0  0  0  0
 47 55  1  0  0  0  0
 48 71  1  0  0  0  0
 49 54  1  0  0  0  0
 49 71  1  0  0  0  0
 50 77  1  0  0  0  0
 51 55  1  0  0  0  0
 51 77  1  0  0  0  0
 52 75  1  0  0  0  0
 53 70  1  0  0  0  0
 54 69  1  0  0  0  0
 55 85  1  0  0  0  0
 59 66  1  0  0  0  0
 60 67  1  0  0  0  0
 61 67  1  0  0  0  0
 62 67  1  0  0  0  0
 63 78  1  0  0  0  0
 64 77  1  0  0  0  0
 65 67  1  0  0  0  0
 65 76  1  0  0  0  0
 66 78  1  0  0  0  0
 68 69  1  0  0  0  0
M  CHG  2  77   1  78   1
M  ISO  4  38 100  55 101  74 100  85 101
M  END
> <Batch ID>
0038

> <Smiles>
CNC(C)C(=O)NC(C(=O)N1Cc2cc([101O:1][101CH:1]3CCCN(Cc4c(C)cc([100NH:0][100C:0](=O)N5CCCC(n6nc(-c7ccc(Oc8ccc(F)cc8F)cc7)c(C(N)=O)c6N)C5)c(C)c4C)C3)ccc2CC1C(=O)NC1CCCc2ccccc21)C(C)(C)C

> <Shape>
0.335

> <Color>
0.157

> <Negative vol penalty>
0.000

$$$$

  -OEChem-04042322003D

 85 93  0     1  0  0  0  0  0999 V2000
  -24.5365  -33.6364   19.9840 C   0  0  0  0  0  0  0  0  0  0  0  0
  -25.6321  -32.7844   20.0788 C   0  0  0  0  0  0  0  0  0  0  0  0
  -23.0018   -9.8885   19.9837 C   0  0  0  0  0  0  0  0  0  0  0  0
  -23.7199   -9.9509   22.2897 C   0  0  0  0  0  0  0  0  0  0  0  0
  -23.4604  -33.4861   20.8577 C   0  0  0  0  0  0  0  0  0  0  0  0
  -25.6528  -31.7823   21.0482 C   0  0  0  0  0  0  0  0  0  0  0  0
  -28.1335  -26.2072   20.5274 C   0  0  0  0  0  0  0  0  0  0  0  0
  -22.2349   -8.7550   20.2532 C   0  0  0  0  0  0  0  0  0  0  0  0
  -22.9530   -8.8174   22.5592 C   0  0  0  0  0  0  0  0  0  0  0  0
  -29.3550  -25.6813   20.9458 C   0  0  0  0  0  0  0  0  0  0  0  0
  -23.2000   -5.4764   22.1043 C   0  0  0  0  0  0  0  0  0  0  0  0
  -23.7856   -4.4631   22.8631 C   0  0  0  0  0  0  0  0  0  0  0  0
  -28.2973  -24.8256   22.9379 C   0  0  0  0  0  0  0  0  0  0  0  0
  -29.7577  -19.2776   22.2288 C   0  0  0  0  0  0  0  0  0  0  0  0
  -31.1967  -17.5755   20.5510 C   0  0  0  0  0  0  0  0  0  0  0  0
  -22.0566   -4.7134   24.5319 C   0  0  0  0  0  0  0  0  0  0  0  0
  -23.7443  -10.4864   21.0019 C   0  0  0  0  0  0  0  0  0  0  0  0
  -24.1292  -13.0013   20.8148 C   0  0  0  0  0  0  0  0  0  0  0  0
  -23.4636  -32.4755   21.8320 C   0  0  0  0  0  0  0  0  0  0  0  0
  -26.9851  -26.0555   21.3177 C   0  0  0  0  0  0  0  0  0  0  0  0
  -24.5764  -31.6192   21.9366 C   0  0  0  0  0  0  0  0  0  0  0  0
  -27.0619  -25.3484   22.5261 C   0  0  0  0  0  0  0  0  0  0  0  0
  -30.6901  -19.8040   21.3349 C   0  0  0  0  0  0  0  0  0  0  0  0
  -30.2643  -17.0491   21.4450 C   0  0  0  0  0  0  0  0  0  0  0  0
  -22.2104   -8.2195   21.5410 C   0  0  0  0  0  0  0  0  0  0  0  0
  -29.4377  -24.9929   22.1526 C   0  0  0  0  0  0  0  0  0  0  0  0
  -22.0427   -6.1083   22.5593 C   0  0  0  0  0  0  0  0  0  0  0  0
  -23.2139   -4.0816   24.0769 C   0  0  0  0  0  0  0  0  0  0  0  0
  -21.4710   -5.7268   23.7731 C   0  0  0  0  0  0  0  0  0  0  0  0
  -29.5448  -17.9001   22.2839 C   0  0  0  0  0  0  0  0  0  0  0  0
  -31.4096  -18.9530   20.4960 C   0  0  0  0  0  0  0  0  0  0  0  0
  -24.5372  -11.6570   20.7240 C   0  0  0  0  0  0  0  0  0  0  0  0
  -25.2398  -13.7225   20.4503 C   0  0  0  0  0  0  0  0  0  0  0  0
  -22.8599  -13.5491   21.1948 C   0  0  0  0  0  0  0  0  0  0  0  0
  -24.9984  -28.0499   22.7939 C   0  0  0  0  0  0  0  0  0  0  0  0
  -32.3938  -22.9440   22.0900 C   0  0  0  0  0  0  0  0  0  0  0  0
  -23.3382  -25.3295   23.3988 C   0  0  0  0  0  0  0  0  0  0  0  0
  -23.3674  -21.9350   23.7496 C   0  0  0  0  0  0  0  0  0  0  0  0
  -30.7182  -14.6869   20.6962 C   0  0  0  0  0  0  0  0  0  0  0  0
  -22.2983  -32.3820   22.7849 C   0  0  0  0  0  0  0  0  0  0  0  0
  -25.6694  -26.6056   20.8394 C   0  0  0  0  0  0  0  0  0  0  0  0
  -25.8540  -25.1404   23.4014 C   0  0  0  0  0  0  0  0  0  0  0  0
  -22.2337  -31.0569   23.5399 C   0  0  0  0  0  0  0  0  0  0  0  0
  -29.6079  -12.2223   18.3789 C   0  0  0  0  0  0  0  0  0  0  0  0
  -23.6076  -30.6890   24.0912 C   0  0  0  0  0  0  0  0  0  0  0  0
  -28.1562  -11.9661   18.7899 C   0  0  0  0  0  0  0  0  0  0  0  0
  -30.5047  -12.4720   19.5902 C   0  0  0  0  0  0  0  0  0  0  0  0
  -28.5849  -13.2666   20.9140 C   0  0  0  0  0  0  0  0  0  0  0  0
  -24.6250  -30.5043   22.9588 C   0  0  1  0  0  0  0  0  0  0  0  0
  -24.6717  -26.8364   21.9702 C   0  0  1  0  0  0  0  0  0  0  0  0
  -27.6310  -13.0740   19.7239 C   0  0  2  0  0  0  0  0  0  0  0  0
  -34.8377  -23.3517   21.8071 C   0  0  0  0  0  0  0  0  0  0  0  0
  -21.8652  -19.9967   24.2822 C   0  0  0  0  0  0  0  0  0  0  0  0
  -23.3940  -26.1004   26.3505 C   0  0  0  0  0  0  0  0  0  0  0  0
  -22.7542  -23.7446   26.9061 C   0  0  0  0  0  0  0  0  0  0  0  0
  -21.2132  -25.1684   25.5568 C   0  0  0  0  0  0  0  0  0  0  0  0
  -23.8585  -20.6807   21.1144 C   0  0  0  0  0  0  0  0  0  0  0  0
  -30.8895  -21.2935   21.3060 C   0  0  0  0  0  0  0  0  0  0  0  0
  -33.6854  -23.3165   22.7938 C   0  0  0  0  0  0  0  0  0  0  0  0
  -31.5484  -24.0785   21.5486 C   0  0  0  0  0  0  0  0  0  1  0  0
  -23.3400  -24.2989   24.5018 C   0  0  1  0  0  0  0  0  0  0  0  0
  -22.4648  -20.8557   23.1798 C   0  0  2  0  0  0  0  0  0  0  0  0
  -22.6987  -24.8335   25.8135 C   0  0  0  0  0  0  0  0  0  0  0  0
  -25.8077  -11.5291   20.3323 N   0  0  0  0  0  0  0  0  0  0  0  0
  -32.1087  -21.6897   21.9915 N   0  0  0  0  0  0  0  0  0  0  0  0
  -26.2077  -12.8023   20.1737 N   0  0  0  0  0  0  0  0  0  0  0  0
  -24.5917  -25.7026   22.8935 N   0  0  0  0  0  0  0  0  0  0  0  0
  -29.9466  -13.5368   20.4266 N   0  0  0  0  0  0  0  0  0  0  0  0
  -25.4731  -15.0478   20.3425 N   0  0  0  0  0  0  0  0  0  0  0  0
  -21.8274  -12.6662   21.5395 N   0  0  0  0  0  0  0  0  0  0  0  0
  -30.0711  -15.6457   21.4752 N   0  0  0  0  0  0  0  0  0  0  0  0
  -24.4396  -29.2204   22.3172 N   0  0  0  0  0  0  0  0  0  0  0  0
  -22.6849  -23.1153   23.9556 N   0  0  0  0  0  0  0  0  0  0  0  0
  -23.2332  -19.9703   22.2596 N   0  3  0  0  0  0  0  0  0  0  0  0
  -22.6426  -14.7844   21.2119 O   0  0  0  0  0  0  0  0  0  0  0  0
  -25.7038  -27.9327   23.7890 O   0  0  0  0  0  0  0  0  0  0  0  0
  -22.2637  -25.7815   22.9952 O   0  0  0  0  0  0  0  0  0  0  0  0
  -24.5579  -21.7486   23.9916 O   0  0  0  0  0  0  0  0  0  0  0  0
  -31.8581  -14.8241   20.2450 O   0  0  0  0  0  0  0  0  0  0  0  0
  -21.4620   -7.1136   21.8044 O   0  0  0  0  0  0  0  0  0  0  0  0
  -30.6289  -24.4791   22.5637 O   0  0  0  0  0  0  0  0  0  1  0  0
  -23.7756   -3.1074   24.8048 F   0  0  0  0  0  0  0  0  0  0  0  0
  -20.3585   -6.3294   24.2148 F   0  0  0  0  0  0  0  0  0  0  0  0
  -28.3814  -17.2900   23.4057 Cl  0  0  0  0  0  0  0  0  0  0  0  0
  -32.5721  -19.5690   19.3785 Cl  0  0  0  0  0  0  0  0  0  0  0  0
  1  2  1  0  0  0  0
  1  5  2  0  0  0  0
  2  6  2  0  0  0  0
  3  8  2  0  0  0  0
  3 17  1  0  0  0  0
  4  9  1  0  0  0  0
  4 17  2  0  0  0  0
  5 19  1  0  0  0  0
  6 21  1  0  0  0  0
  7 10  2  0  0  0  0
  7 20  1  0  0  0  0
  8 25  1  0  0  0  0
  9 25  2  0  0  0  0
 10 26  1  0  0  0  0
 11 12  2  0  0  0  0
 11 27  1  0  0  0  0
 12 28  1  0  0  0  0
 13 22  1  0  0  0  0
 13 26  2  0  0  0  0
 14 23  1  0  0  0  0
 14 30  2  0  0  0  0
 15 24  2  0  0  0  0
 15 31  1  0  0  0  0
 16 28  2  0  0  0  0
 16 29  1  0  0  0  0
 17 32  1  0  0  0  0
 18 32  1  0  0  0  0
 18 33  2  0  0  0  0
 18 34  1  0  0  0  0
 19 21  2  0  0  0  0
 19 40  1  0  0  0  0
 20 22  2  0  0  0  0
 20 41  1  0  0  0  0
 21 49  1  0  0  0  0
 22 42  1  0  0  0  0
 23 31  2  0  0  0  0
 23 58  1  0  0  0  0
 24 30  1  0  0  0  0
 24 71  1  0  0  0  0
 25 80  1  0  0  0  0
 26 81  1  0  0  0  0
 27 29  2  0  0  0  0
 27 80  1  0  0  0  0
 28 82  1  0  0  0  0
 29 83  1  0  0  0  0
 30 84  1  0  0  0  0
 31 85  1  0  0  0  0
 32 64  2  0  0  0  0
 33 66  1  0  0  0  0
 33 69  1  0  0  0  0
 34 70  1  0  0  0  0
 34 75  2  0  0  0  0
 35 50  1  0  0  0  0
 35 72  1  0  0  0  0
 35 76  2  0  0  0  0
 36 59  1  0  0  0  0
 36 60  1  0  0  0  0
 36 65  2  0  0  0  0
 37 61  1  0  0  0  0
 37 67  1  0  0  0  0
 37 77  2  0  0  0  0
 38 62  1  0  0  0  0
 38 73  1  0  0  0  0
 38 78  2  0  0  0  0
 39 68  1  0  0  0  0
 39 71  1  0  0  0  0
 39 79  2  0  0  0  0
 40 43  1  0  0  0  0
 41 50  1  0  0  0  0
 42 67  1  0  0  0  0
 43 45  1  0  0  0  0
 44 46  1  0  0  0  0
 44 47  1  0  0  0  0
 45 49  1  0  0  0  0
 46 51  1  0  0  0  0
 47 68  1  0  0  0  0
 48 51  1  0  0  0  0
 48 68  1  0  0  0  0
 49 72  1  0  0  0  0
 50 67  1  0  0  0  0
 51 66  1  0  0  0  0
 52 59  1  0  0  0  0
 53 62  1  0  0  0  0
 54 63  1  0  0  0  0
 55 63  1  0  0  0  0
 56 63  1  0  0  0  0
 57 74  1  0  0  0  0
 58 65  1  0  0  0  0
 60 81  1  0  0  0  0
 61 63  1  0  0  0  0
 61 73  1  0  0  0  0
 62 74  1  0  0  0  0
 64 66  1  0  0  0  0
M  CHG  1  74   1
M  ISO  4  39 100  60 101  71 100  81 101
M  END
> <Batch ID>
0038

> <Smiles>
CC=C(NCc1cc(Cl)c([100NH:0][100C:0](=O)N2CCCC(n3nc(-c4ccc(Oc5ccc(F)cc5F)cc4)c(C(N)=O)c3N)C2)cc1Cl)[101CH2:1][101O:1]c1ccc2c(c1)CN(C(=O)C(NC(=O)C(C)NC)C(C)(C)C)C(C(=O)NC1CCCc3ccccc31)C2

> <Shape>
0.244

> <Color>
0.198

> <Negative vol penalty>
0.000

$$$$

  -OEChem-04042322003D

 86 94  0     1  0  0  0  0  0999 V2000
  -16.9338  -30.0548   24.3833 C   0  0  0  0  0  0  0  0  0  0  0  0
  -17.2060  -29.0801   23.4286 C   0  0  0  0  0  0  0  0  0  0  0  0
  -23.3766   -9.7811   22.4474 C   0  0  0  0  0  0  0  0  0  0  0  0
  -23.5075   -9.6604   20.0380 C   0  0  0  0  0  0  0  0  0  0  0  0
  -17.7817  -31.1534   24.5176 C   0  0  0  0  0  0  0  0  0  0  0  0
  -18.3258  -29.2041   22.6069 C   0  0  0  0  0  0  0  0  0  0  0  0
  -21.8431  -24.6697   20.4685 C   0  0  0  0  0  0  0  0  0  0  0  0
  -22.6368   -8.5988   22.4665 C   0  0  0  0  0  0  0  0  0  0  0  0
  -22.7678   -8.4780   20.0571 C   0  0  0  0  0  0  0  0  0  0  0  0
  -21.8737  -24.0041   19.2438 C   0  0  0  0  0  0  0  0  0  0  0  0
  -23.2368   -5.2806   22.2162 C   0  0  0  0  0  0  0  0  0  0  0  0
  -23.5859   -4.3127   23.1579 C   0  0  0  0  0  0  0  0  0  0  0  0
  -23.6315  -25.4764   18.4943 C   0  0  0  0  0  0  0  0  0  0  0  0
  -29.1401  -18.1410   16.0670 C   0  0  0  0  0  0  0  0  0  0  0  0
  -26.7072  -19.2741   16.8285 C   0  0  0  0  0  0  0  0  0  0  0  0
  -21.3732   -4.4492   24.1184 C   0  0  0  0  0  0  0  0  0  0  0  0
  -23.8119  -10.3120   21.2332 C   0  0  0  0  0  0  0  0  0  0  0  0
  -25.9758  -11.6620   21.2823 C   0  0  0  0  0  0  0  0  0  0  0  0
  -18.9177  -31.2860   23.7037 C   0  0  0  0  0  0  0  0  0  0  0  0
  -22.7004  -25.7524   20.7117 C   0  0  0  0  0  0  0  0  0  0  0  0
  -19.1889  -30.3062   22.7296 C   0  0  0  0  0  0  0  0  0  0  0  0
  -23.6116  -26.1524   19.7238 C   0  0  0  0  0  0  0  0  0  0  0  0
  -28.6626  -19.2747   15.4096 C   0  0  0  0  0  0  0  0  0  0  0  0
  -28.4011  -17.5738   17.1052 C   0  0  0  0  0  0  0  0  0  0  0  0
  -27.4461  -19.8413   15.7903 C   0  0  0  0  0  0  0  0  0  0  0  0
  -27.1847  -18.1403   17.4860 C   0  0  0  0  0  0  0  0  0  0  0  0
  -22.3324   -7.9472   21.2714 C   0  0  0  0  0  0  0  0  0  0  0  0
  -22.7659  -24.4093   18.2554 C   0  0  0  0  0  0  0  0  0  0  0  0
  -21.9560   -5.8330   22.2257 C   0  0  0  0  0  0  0  0  0  0  0  0
  -22.6541   -3.8970   24.1090 C   0  0  0  0  0  0  0  0  0  0  0  0
  -21.0242   -5.4173   23.1768 C   0  0  0  0  0  0  0  0  0  0  0  0
  -24.5757  -11.5336   21.2128 C   0  0  0  0  0  0  0  0  0  0  0  0
  -26.1997  -13.0160   21.2257 C   0  0  0  0  0  0  0  0  0  0  0  0
  -26.9840  -10.6481   21.3883 C   0  0  0  0  0  0  0  0  0  0  0  0
  -22.2898  -28.8373   21.3586 C   0  0  0  0  0  0  0  0  0  0  0  0
  -25.5097  -28.7840   21.7489 C   0  0  0  0  0  0  0  0  0  0  0  0
  -24.7066  -21.7245   16.0881 C   0  0  0  0  0  0  0  0  0  0  0  0
  -28.4907  -27.2859   21.0306 C   0  0  0  0  0  0  0  0  0  0  0  0
  -25.1943  -18.0315   19.0264 C   0  0  0  0  0  0  0  0  0  0  0  0
  -19.7788  -32.5152   23.8537 C   0  0  0  0  0  0  0  0  0  0  0  0
  -22.6737  -26.4428   22.0478 C   0  0  0  0  0  0  0  0  0  0  0  0
  -24.5670  -27.2960   19.9425 C   0  0  0  0  0  0  0  0  0  0  0  0
  -21.1508  -32.3815   23.1980 C   0  0  0  0  0  0  0  0  0  0  0  0
  -22.9781  -16.9046   21.5751 C   0  0  0  0  0  0  0  0  0  0  0  0
  -21.0172  -31.7992   21.7945 C   0  0  0  0  0  0  0  0  0  0  0  0
  -23.3114  -15.4174   21.7138 C   0  0  0  0  0  0  0  0  0  0  0  0
  -23.0642  -17.3721   20.1233 C   0  0  0  0  0  0  0  0  0  0  0  0
  -24.6637  -15.5775   19.5848 C   0  0  0  0  0  0  0  0  0  0  0  0
  -20.4075  -30.3927   21.8364 C   0  0  1  0  0  0  0  0  0  0  0  0
  -23.2350  -27.8605   21.9991 C   0  0  1  0  0  0  0  0  0  0  0  0
  -24.6536  -15.0752   21.0378 C   0  0  2  0  0  0  0  0  0  0  0  0
  -29.4709  -19.8643   14.3007 C   0  0  0  0  0  0  0  0  0  0  0  0
  -28.9368  -16.3595   17.7919 C   0  0  0  0  0  0  0  0  0  0  0  0
  -30.9539  -27.4920   21.4639 C   0  0  0  0  0  0  0  0  0  0  0  0
  -25.6631  -31.0956   19.7633 C   0  0  0  0  0  0  0  0  0  0  0  0
  -28.1101  -30.6283   19.5148 C   0  0  0  0  0  0  0  0  0  0  0  0
  -27.1908  -31.3082   21.7319 C   0  0  0  0  0  0  0  0  0  0  0  0
  -24.8255  -20.4079   13.9613 C   0  0  0  0  0  0  0  0  0  0  0  0
  -28.5990  -24.6364   22.3450 C   0  0  0  0  0  0  0  0  0  0  0  0
  -26.9121  -21.0613   15.0971 C   0  0  0  0  0  0  0  0  0  0  0  0
  -23.1902  -21.6666   15.9356 C   0  0  0  0  0  0  0  0  0  0  0  0
  -22.4480  -22.3782   17.0598 C   0  0  0  0  0  0  0  0  0  1  0  0
  -26.6999  -28.9925   20.8439 C   0  0  1  0  0  0  0  0  0  0  0  0
  -29.6462  -26.8639   21.9201 C   0  0  2  0  0  0  0  0  0  0  0  0
  -26.8967  -30.4858   20.4583 C   0  0  0  0  0  0  0  0  0  0  0  0
  -23.9538  -12.7120   21.1194 N   0  0  0  0  0  0  0  0  0  0  0  0
  -24.9679  -13.5937   21.1299 N   0  0  0  0  0  0  0  0  0  0  0  0
  -24.4982  -27.9433   21.2631 N   0  0  0  0  0  0  0  0  0  0  0  0
  -24.3644  -17.0176   19.5499 N   0  0  0  0  0  0  0  0  0  0  0  0
  -27.3280  -13.7568   21.2492 N   0  0  0  0  0  0  0  0  0  0  0  0
  -26.5803   -9.3067   21.4344 N   0  0  0  0  0  0  0  0  0  0  0  0
  -26.4196  -17.5788   18.5382 N   0  0  0  0  0  0  0  0  0  0  0  0
  -21.4022  -29.4226   22.2412 N   0  0  0  0  0  0  0  0  0  0  0  0
  -27.8422  -28.3964   21.5281 N   0  0  0  0  0  0  0  0  0  0  0  0
  -25.4512  -21.0894   15.0879 N   0  0  0  0  0  0  0  0  0  0  0  0
  -29.8033  -25.3821   21.8971 N   0  3  0  0  0  0  0  0  0  0  0  0
  -28.2057  -10.9243   21.4573 O   0  0  0  0  0  0  0  0  0  0  0  0
  -22.3617  -29.0458   20.1532 O   0  0  0  0  0  0  0  0  0  0  0  0
  -25.4818  -29.3406   22.8493 O   0  0  0  0  0  0  0  0  0  0  0  0
  -25.2187  -22.3059   17.0484 O   0  0  0  0  0  0  0  0  0  0  0  0
  -28.1954  -26.6922   19.9958 O   0  0  0  0  0  0  0  0  0  0  0  0
  -24.8552  -19.2176   19.0370 O   0  0  0  0  0  0  0  0  0  0  0  0
  -21.6107   -6.7933   21.2896 O   0  0  0  0  0  0  0  0  0  0  0  0
  -22.7974  -23.7618   17.0589 O   0  0  0  0  0  0  0  0  0  1  0  0
  -22.9890   -2.9663   25.0122 F   0  0  0  0  0  0  0  0  0  0  0  0
  -19.7918   -5.9434   23.1901 F   0  0  0  0  0  0  0  0  0  0  0  0
  1  2  1  0  0  0  0
  1  5  2  0  0  0  0
  2  6  2  0  0  0  0
  3  8  2  0  0  0  0
  3 17  1  0  0  0  0
  4  9  1  0  0  0  0
  4 17  2  0  0  0  0
  5 19  1  0  0  0  0
  6 21  1  0  0  0  0
  7 10  2  0  0  0  0
  7 20  1  0  0  0  0
  8 27  1  0  0  0  0
  9 27  2  0  0  0  0
 10 28  1  0  0  0  0
 11 12  2  0  0  0  0
 11 29  1  0  0  0  0
 12 30  1  0  0  0  0
 13 22  1  0  0  0  0
 13 28  2  0  0  0  0
 14 23  1  0  0  0  0
 14 24  2  0  0  0  0
 15 25  1  0  0  0  0
 15 26  2  0  0  0  0
 16 30  2  0  0  0  0
 16 31  1  0  0  0  0
 17 32  1  0  0  0  0
 18 32  1  0  0  0  0
 18 33  2  0  0  0  0
 18 34  1  0  0  0  0
 19 21  2  0  0  0  0
 19 40  1  0  0  0  0
 20 22  2  0  0  0  0
 20 41  1  0  0  0  0
 21 49  1  0  0  0  0
 22 42  1  0  0  0  0
 23 25  2  0  0  0  0
 23 52  1  0  0  0  0
 24 26  1  0  0  0  0
 24 53  1  0  0  0  0
 25 60  1  0  0  0  0
 26 72  1  0  0  0  0
 27 83  1  0  0  0  0
 28 84  1  0  0  0  0
 29 31  2  0  0  0  0
 29 83  1  0  0  0  0
 30 85  1  0  0  0  0
 31 86  1  0  0  0  0
 32 66  2  0  0  0  0
 33 67  1  0  0  0  0
 33 70  1  0  0  0  0
 34 71  1  0  0  0  0
 34 77  2  0  0  0  0
 35 50  1  0  0  0  0
 35 73  1  0  0  0  0
 35 78  2  0  0  0  0
 36 63  1  0  0  0  0
 36 68  1  0  0  0  0
 36 79  2  0  0  0  0
 37 61  1  0  0  0  0
 37 75  1  0  0  0  0
 37 80  2  0  0  0  0
 38 64  1  0  0  0  0
 38 74  1  0  0  0  0
 38 81  2  0  0  0  0
 39 69  1  0  0  0  0
 39 72  1  0  0  0  0
 39 82  2  0  0  0  0
 40 43  1  0  0  0  0
 41 50  1  0  0  0  0
 42 68  1  0  0  0  0
 43 45  1  0  0  0  0
 44 46  1  0  0  0  0
 44 47  1  0  0  0  0
 45 49  1  0  0  0  0
 46 51  1  0  0  0  0
 47 69  1  0  0  0  0
 48 51  1  0  0  0  0
 48 69  1  0  0  0  0
 49 73  1  0  0  0  0
 50 68  1  0  0  0  0
 51 67  1  0  0  0  0
 54 64  1  0  0  0  0
 55 65  1  0  0  0  0
 56 65  1  0  0  0  0
 57 65  1  0  0  0  0
 58 75  1  0  0  0  0
 59 76  1  0  0  0  0
 60 75  1  0  0  0  0
 61 62  1  0  0  0  0
 62 84  1  0  0  0  0
 63 65  1  0  0  0  0
 63 74  1  0  0  0  0
 64 76  1  0  0  0  0
 66 67  1  0  0  0  0
M  CHG  1  76   1
M  ISO  4  39 100  62 101  72 100  84 101
M  END
> <Batch ID>
0038

> <Smiles>
CNC(C)C(=O)NC(C(=O)N1Cc2cc([101O:1][101CH2:1]CC(=O)N(C)Cc3cc([100NH:0][100C:0](=O)N4CCCC(n5nc(-c6ccc(Oc7ccc(F)cc7F)cc6)c(C(N)=O)c5N)C4)c(C)cc3C)ccc2CC1C(=O)NC1CCCc2ccccc21)C(C)(C)C

> <Shape>
0.223

> <Color>
0.113

> <Negative vol penalty>
0.000

$$$$

  -OEChem-04042322003D

 88 97  0     1  0  0  0  0  0999 V2000
  -19.6344  -24.2930   21.5609 C   0  0  0  0  0  0  0  0  0  0  0  0
  -20.7607  -24.8437   20.9578 C   0  0  0  0  0  0  0  0  0  0  0  0
  -27.2856  -14.3722   21.2669 C   0  0  0  0  0  0  0  0  0  0  0  0
  -24.9282  -14.7345   20.8817 C   0  0  0  0  0  0  0  0  0  0  0  0
  -18.7088  -25.1213   22.1942 C   0  0  0  0  0  0  0  0  0  0  0  0
  -20.9614  -26.2233   20.9867 C   0  0  0  0  0  0  0  0  0  0  0  0
  -25.7302  -27.4688   22.1492 C   0  0  0  0  0  0  0  0  0  0  0  0
  -27.1279  -13.0205   20.9609 C   0  0  0  0  0  0  0  0  0  0  0  0
  -24.7704  -13.3828   20.5757 C   0  0  0  0  0  0  0  0  0  0  0  0
  -26.6820  -27.3588   21.1364 C   0  0  0  0  0  0  0  0  0  0  0  0
  -24.5049  -10.4621   22.2579 C   0  0  0  0  0  0  0  0  0  0  0  0
  -23.4168   -9.7934   22.8186 C   0  0  0  0  0  0  0  0  0  0  0  0
  -26.5445  -29.7372   20.7572 C   0  0  0  0  0  0  0  0  0  0  0  0
  -30.2187  -24.6479   19.4663 C   0  0  0  0  0  0  0  0  0  0  0  0
  -22.5882   -9.2871   20.6063 C   0  0  0  0  0  0  0  0  0  0  0  0
  -26.1857  -15.2292   21.2274 C   0  0  0  0  0  0  0  0  0  0  0  0
  -26.8087  -17.1745   22.7555 C   0  0  0  0  0  0  0  0  0  0  0  0
  -18.9032  -26.5109   22.2392 C   0  0  0  0  0  0  0  0  0  0  0  0
  -25.1695  -28.7142   22.4668 C   0  0  0  0  0  0  0  0  0  0  0  0
  -20.0368  -27.0712   21.6200 C   0  0  0  0  0  0  0  0  0  0  0  0
  -25.5877  -29.8607   21.7762 C   0  0  0  0  0  0  0  0  0  0  0  0
  -31.3826  -25.4141   19.5285 C   0  0  0  0  0  0  0  0  0  0  0  0
  -32.2721  -25.2464   20.5897 C   0  0  0  0  0  0  0  0  0  0  0  0
  -31.9977  -24.3125   21.5888 C   0  0  0  0  0  0  0  0  0  0  0  0
  -30.8338  -23.5463   21.5267 C   0  0  0  0  0  0  0  0  0  0  0  0
  -29.9442  -23.7140   20.4655 C   0  0  0  0  0  0  0  0  0  0  0  0
  -25.8703  -12.5258   20.6153 C   0  0  0  0  0  0  0  0  0  0  0  0
  -27.0872  -28.4926   20.4382 C   0  0  0  0  0  0  0  0  0  0  0  0
  -24.6348  -10.5433   20.8715 C   0  0  0  0  0  0  0  0  0  0  0  0
  -22.4584   -9.2059   21.9927 C   0  0  0  0  0  0  0  0  0  0  0  0
  -23.6764   -9.9558   20.0456 C   0  0  0  0  0  0  0  0  0  0  0  0
  -26.3479  -16.6255   21.5439 C   0  0  0  0  0  0  0  0  0  0  0  0
  -26.7792  -18.5323   22.5503 C   0  0  0  0  0  0  0  0  0  0  0  0
  -27.2261  -16.5161   23.9588 C   0  0  0  0  0  0  0  0  0  0  0  0
  -22.2360  -29.9363   22.3993 C   0  0  0  0  0  0  0  0  0  0  0  0
  -23.6795  -32.4700   23.8204 C   0  0  0  0  0  0  0  0  0  0  0  0
  -26.7740  -34.2873   23.4479 C   0  0  0  0  0  0  0  0  0  0  0  0
  -27.7814  -23.0034   19.3868 C   0  0  0  0  0  0  0  0  0  0  0  0
  -17.8511  -27.3702   22.8944 C   0  0  0  0  0  0  0  0  0  0  0  0
  -24.1636  -28.8202   23.5801 C   0  0  0  0  0  0  0  0  0  0  0  0
  -25.0313  -31.2241   22.0925 C   0  0  0  0  0  0  0  0  0  0  0  0
  -18.3284  -28.7864   23.2056 C   0  0  0  0  0  0  0  0  0  0  0  0
  -24.7357  -21.2540   18.8035 C   0  0  0  0  0  0  0  0  0  0  0  0
  -19.0553  -29.3810   22.0035 C   0  0  0  0  0  0  0  0  0  0  0  0
  -24.9215  -19.9390   19.5641 C   0  0  0  0  0  0  0  0  0  0  0  0
  -29.3835  -30.1330   18.4754 C   0  0  0  0  0  0  0  0  0  0  0  0
  -29.6274  -29.4361   17.1418 C   0  0  0  0  0  0  0  0  0  0  0  0
  -26.0384  -21.7259   18.1601 C   0  0  0  0  0  0  0  0  0  0  0  0
  -27.3699  -20.5042   19.8345 C   0  0  0  0  0  0  0  0  0  0  0  0
  -30.3896  -28.1556   19.6740 C   0  0  0  0  0  0  0  0  0  0  0  0
  -20.3022  -28.5607   21.6517 C   0  0  1  0  0  0  0  0  0  0  0  0
  -23.2809  -30.0597   23.4719 C   0  0  1  0  0  0  0  0  0  0  0  0
  -26.0997  -20.0224   20.5544 C   0  0  2  0  0  0  0  0  0  0  0  0
  -29.2226  -29.1295   19.6103 C   0  0  2  0  0  0  0  0  0  1  0  0
  -30.8146  -28.4674   17.2007 C   0  0  2  0  0  0  0  0  0  0  0  0
  -33.5190  -26.0707   20.6539 C   0  0  0  0  0  0  0  0  0  0  0  0
  -32.9524  -24.1332   22.7271 C   0  0  0  0  0  0  0  0  0  0  0  0
  -30.5407  -22.5460   22.6010 C   0  0  0  0  0  0  0  0  0  0  0  0
  -30.9577  -27.7447   15.8626 C   0  0  0  0  0  0  0  0  0  0  0  0
  -28.1006  -35.6097   25.1178 C   0  0  0  0  0  0  0  0  0  0  0  0
  -22.1168  -34.8567   22.7379 C   0  0  0  0  0  0  0  0  0  0  0  0
  -24.2028  -36.2262   22.9418 C   0  0  0  0  0  0  0  0  0  0  0  0
  -23.1657  -35.2257   24.9780 C   0  0  0  0  0  0  0  0  0  0  0  0
  -29.2224  -32.7083   22.9270 C   0  0  0  0  0  0  0  0  0  0  0  0
  -31.6523  -26.4142   18.4431 C   0  0  0  0  0  0  0  0  0  0  0  0
  -24.3605  -33.7252   23.3309 C   0  0  1  0  0  0  0  0  0  0  0  0
  -27.9549  -34.2760   24.4017 C   0  0  2  0  0  0  0  0  0  0  0  0
  -23.4613  -34.9846   23.4816 C   0  0  0  0  0  0  0  0  0  0  0  0
  -26.0475  -17.5583   20.6363 N   0  0  0  0  0  0  0  0  0  0  0  0
  -26.3201  -18.7072   21.2780 N   0  0  0  0  0  0  0  0  0  0  0  0
  -24.0458  -31.2750   23.1851 N   0  0  0  0  0  0  0  0  0  0  0  0
  -27.1081  -21.7846   19.1586 N   0  0  0  0  0  0  0  0  0  0  0  0
  -27.1014  -19.5817   23.3360 N   0  0  0  0  0  0  0  0  0  0  0  0
  -27.1943  -15.1155   23.9995 N   0  0  0  0  0  0  0  0  0  0  0  0
  -28.7565  -22.9458   20.3820 N   0  0  0  0  0  0  0  0  0  0  0  0
  -21.3813  -28.8636   22.5673 N   0  0  0  0  0  0  0  0  0  0  0  0
  -25.6287  -33.8074   24.0474 N   0  0  0  0  0  0  0  0  0  0  0  0
  -30.5782  -27.4697   18.3309 N   0  3  1  0  0  0  0  0  0  0  0  0
  -29.2176  -34.0008   23.6595 N   0  3  0  0  0  0  0  0  0  0  0  0
  -27.6003  -17.1515   24.9736 O   0  0  0  0  0  0  0  0  0  0  0  0
  -22.2063  -30.7547   21.4877 O   0  0  0  0  0  0  0  0  0  0  0  0
  -22.8581  -32.5459   24.7375 O   0  0  0  0  0  0  0  0  0  0  0  0
  -26.8581  -34.6857   22.2883 O   0  0  0  0  0  0  0  0  0  0  0  0
  -27.4941  -24.0297   18.7654 O   0  0  0  0  0  0  0  0  0  0  0  0
  -25.7161  -11.2069   20.3164 O   0  0  0  0  0  0  0  0  0  0  0  0
  -28.0155  -28.3880   19.4487 O   0  0  0  0  0  0  0  0  0  1  0  0
  -21.4143   -8.5624   22.5312 F   0  0  0  0  0  0  0  0  0  0  0  0
  -23.7963  -10.0295   18.7130 F   0  0  0  0  0  0  0  0  0  0  0  0
  1  2  1  0  0  0  0
  1  5  2  0  0  0  0
  2  6  2  0  0  0  0
  3  8  2  0  0  0  0
  3 16  1  0  0  0  0
  4  9  1  0  0  0  0
  4 16  2  0  0  0  0
  5 18  1  0  0  0  0
  6 20  1  0  0  0  0
  7 10  2  0  0  0  0
  7 19  1  0  0  0  0
  8 27  1  0  0  0  0
  9 27  2  0  0  0  0
 10 28  1  0  0  0  0
 11 12  2  0  0  0  0
 11 29  1  0  0  0  0
 12 30  1  0  0  0  0
 13 21  1  0  0  0  0
 13 28  2  0  0  0  0
 14 22  1  0  0  0  0
 14 26  2  0  0  0  0
 15 30  2  0  0  0  0
 15 31  1  0  0  0  0
 16 32  1  0  0  0  0
 17 32  1  0  0  0  0
 17 33  2  0  0  0  0
 17 34  1  0  0  0  0
 18 20  2  0  0  0  0
 18 39  1  0  0  0  0
 19 21  2  0  0  0  0
 19 40  1  0  0  0  0
 20 51  1  0  0  0  0
 21 41  1  0  0  0  0
 22 23  2  0  0  0  0
 22 65  1  0  0  0  0
 23 24  1  0  0  0  0
 23 56  1  0  0  0  0
 24 25  2  0  0  0  0
 24 57  1  0  0  0  0
 25 26  1  0  0  0  0
 25 58  1  0  0  0  0
 26 75  1  0  0  0  0
 27 85  1  0  0  0  0
 28 86  1  0  0  0  0
 29 31  2  0  0  0  0
 29 85  1  0  0  0  0
 30 87  1  0  0  0  0
 31 88  1  0  0  0  0
 32 69  2  0  0  0  0
 33 70  1  0  0  0  0
 33 73  1  0  0  0  0
 34 74  1  0  0  0  0
 34 80  2  0  0  0  0
 35 52  1  0  0  0  0
 35 76  1  0  0  0  0
 35 81  2  0  0  0  0
 36 66  1  0  0  0  0
 36 71  1  0  0  0  0
 36 82  2  0  0  0  0
 37 67  1  0  0  0  0
 37 77  1  0  0  0  0
 37 83  2  0  0  0  0
 38 72  1  0  0  0  0
 38 75  1  0  0  0  0
 38 84  2  0  0  0  0
 39 42  1  0  0  0  0
 40 52  1  0  0  0  0
 41 71  1  0  0  0  0
 42 44  1  0  0  0  0
 43 45  1  0  0  0  0
 43 48  1  0  0  0  0
 44 51  1  0  0  0  0
 45 53  1  0  0  0  0
 46 47  1  0  0  0  0
 46 54  1  0  0  0  0
 47 55  1  0  0  0  0
 48 72  1  0  0  0  0
 49 53  1  0  0  0  0
 49 72  1  0  0  0  0
 50 54  1  0  0  0  0
 50 78  1  0  0  0  0
 51 76  1  0  0  0  0
 52 71  1  0  0  0  0
 53 70  1  0  0  0  0
 54 86  1  0  0  0  0
 55 59  1  0  0  0  0
 55 78  1  0  0  0  0
 60 67  1  0  0  0  0
 61 68  1  0  0  0  0
 62 68  1  0  0  0  0
 63 68  1  0  0  0  0
 64 79  1  0  0  0  0
 65 78  1  0  0  0  0
 66 68  1  0  0  0  0
 66 77  1  0  0  0  0
 67 79  1  0  0  0  0
 69 70  1  0  0  0  0
M  CHG  2  78   1  79   1
M  ISO  4  38 100  54 101  75 100  86 101
M  END
> <Batch ID>
0038

> <Smiles>
CNC(C)C(=O)NC(C(=O)N1Cc2cc([101O:1][101CH:1]3CCC(C)N(Cc4cc([100NH:0][100C:0](=O)N5CCCC(n6nc(-c7ccc(Oc8ccc(F)cc8F)cc7)c(C(N)=O)c6N)C5)c(C)c(C)c4C)C3)ccc2CC1C(=O)NC1CCCc2ccccc21)C(C)(C)C

> <Shape>
0.274

> <Color>
0.101

> <Negative vol penalty>
0.000

$$$$

  -OEChem-04042322003D

 88 97  0     1  0  0  0  0  0999 V2000
  -21.8781   -8.2183   24.7367 C   0  0  0  0  0  0  0  0  0  0  0  0
  -23.1699   -8.6799   24.9679 C   0  0  0  0  0  0  0  0  0  0  0  0
  -26.0389  -30.4595   21.8150 C   0  0  0  0  0  0  0  0  0  0  0  0
  -23.7113  -30.0953   21.2798 C   0  0  0  0  0  0  0  0  0  0  0  0
  -21.3325   -8.2895   23.4556 C   0  0  0  0  0  0  0  0  0  0  0  0
  -23.9174   -9.2119   23.9179 C   0  0  0  0  0  0  0  0  0  0  0  0
  -28.8994  -14.1790   22.5673 C   0  0  0  0  0  0  0  0  0  0  0  0
  -25.7076  -31.6629   22.4374 C   0  0  0  0  0  0  0  0  0  0  0  0
  -23.3799  -31.2988   21.9023 C   0  0  0  0  0  0  0  0  0  0  0  0
  -30.1462  -14.3163   21.9587 C   0  0  0  0  0  0  0  0  0  0  0  0
  -24.9632  -34.8258   21.5065 C   0  0  0  0  0  0  0  0  0  0  0  0
  -25.7587  -35.9378   21.2305 C   0  0  0  0  0  0  0  0  0  0  0  0
  -29.0716  -14.4618   19.8039 C   0  0  0  0  0  0  0  0  0  0  0  0
  -28.8374  -20.0070   21.3580 C   0  0  0  0  0  0  0  0  0  0  0  0
  -26.3157  -36.1209   23.5743 C   0  0  0  0  0  0  0  0  0  0  0  0
  -25.0408  -29.6756   21.2361 C   0  0  0  0  0  0  0  0  0  0  0  0
  -26.2448  -28.2529   19.4944 C   0  0  0  0  0  0  0  0  0  0  0  0
  -22.0701   -8.8315   22.3913 C   0  0  0  0  0  0  0  0  0  0  0  0
  -27.7280  -14.1711   21.7964 C   0  0  0  0  0  0  0  0  0  0  0  0
  -23.3816   -9.2892   22.6211 C   0  0  0  0  0  0  0  0  0  0  0  0
  -27.8110  -14.3268   20.4053 C   0  0  0  0  0  0  0  0  0  0  0  0
  -29.9949  -19.2365   21.4672 C   0  0  0  0  0  0  0  0  0  0  0  0
  -31.1770  -19.6640   20.8627 C   0  0  0  0  0  0  0  0  0  0  0  0
  -31.2016  -20.8622   20.1489 C   0  0  0  0  0  0  0  0  0  0  0  0
  -28.8619  -21.2052   20.6441 C   0  0  0  0  0  0  0  0  0  0  0  0
  -24.3781  -32.0826   22.4811 C   0  0  0  0  0  0  0  0  0  0  0  0
  -30.2326  -14.4548   20.5765 C   0  0  0  0  0  0  0  0  0  0  0  0
  -24.8439  -34.3614   22.8164 C   0  0  0  0  0  0  0  0  0  0  0  0
  -26.4350  -36.5854   22.2644 C   0  0  0  0  0  0  0  0  0  0  0  0
  -25.5201  -35.0089   23.8503 C   0  0  0  0  0  0  0  0  0  0  0  0
  -30.0440  -21.6328   20.0396 C   0  0  0  0  0  0  0  0  0  0  0  0
  -25.3825  -28.4326   20.5925 C   0  0  0  0  0  0  0  0  0  0  0  0
  -26.2338  -26.8984   19.2673 C   0  0  0  0  0  0  0  0  0  0  0  0
  -34.1489  -17.7245   19.6921 C   0  0  0  0  0  0  0  0  0  0  0  0
  -34.9688  -18.4415   18.9089 C   0  0  0  0  0  0  0  0  0  0  0  0
  -26.9893  -29.2236   18.7465 C   0  0  0  0  0  0  0  0  0  0  0  0
  -25.4076  -12.0651   21.2636 C   0  0  0  0  0  0  0  0  0  0  0  0
  -24.0687  -14.5361   19.6437 C   0  0  0  0  0  0  0  0  0  0  0  0
  -25.1869  -17.1191   17.3864 C   0  0  0  0  0  0  0  0  0  0  0  0
  -26.4266  -21.6484   21.1123 C   0  0  0  0  0  0  0  0  0  0  0  0
  -21.4553   -8.8441   21.0142 C   0  0  0  0  0  0  0  0  0  0  0  0
  -26.3891  -14.0489   22.4707 C   0  0  0  0  0  0  0  0  0  0  0  0
  -26.5821  -14.3450   19.5347 C   0  0  0  0  0  0  0  0  0  0  0  0
  -34.6138  -16.5486   20.5075 C   0  0  0  0  0  0  0  0  0  0  0  0
  -22.1759   -9.7659   20.0338 C   0  0  0  0  0  0  0  0  0  0  0  0
  -33.7213  -15.3401   20.2520 C   0  0  0  0  0  0  0  0  0  0  0  0
  -23.2552  -23.2663   21.1534 C   0  0  0  0  0  0  0  0  0  0  0  0
  -23.6847   -9.5564   20.1146 C   0  0  0  0  0  0  0  0  0  0  0  0
  -23.5968  -24.7398   20.9208 C   0  0  0  0  0  0  0  0  0  0  0  0
  -24.3045  -22.5705   22.0186 C   0  0  0  0  0  0  0  0  0  0  0  0
  -26.0300  -24.1817   21.3145 C   0  0  0  0  0  0  0  0  0  0  0  0
  -31.8876  -16.8798   19.4570 C   0  0  0  0  0  0  0  0  0  0  0  0
  -24.2148   -9.8958   21.5129 C   0  0  1  0  0  0  0  0  0  0  0  0
  -25.2949  -13.5380   21.5383 C   0  0  1  0  0  0  0  0  0  0  0  0
  -25.0356  -24.9084   20.3944 C   0  0  2  0  0  0  0  0  0  0  0  0
  -32.2418  -15.7068   20.3676 C   0  0  1  0  0  0  0  0  0  1  0  0
  -29.9415  -17.9569   22.2365 C   0  0  0  0  0  0  0  0  0  0  0  0
  -32.4804  -21.3026   19.5057 C   0  0  0  0  0  0  0  0  0  0  0  0
  -24.2504  -19.4013   16.9263 C   0  0  0  0  0  0  0  0  0  0  0  0
  -22.5853  -13.1507   17.3655 C   0  0  0  0  0  0  0  0  0  0  0  0
  -22.9821  -15.1859   15.9624 C   0  0  0  0  0  0  0  0  0  0  0  0
  -21.6236  -15.3562   18.0477 C   0  0  0  0  0  0  0  0  0  0  0  0
  -27.7705  -18.4288   17.9937 C   0  0  0  0  0  0  0  0  0  0  0  0
  -32.4189  -18.8306   20.9806 C   0  0  0  0  0  0  0  0  0  0  0  0
  -24.1258  -15.0378   18.2210 C   0  0  1  0  0  0  0  0  0  0  0  0
  -25.2978  -18.6030   17.6868 C   0  0  2  0  0  0  0  0  0  0  0  0
  -22.8510  -14.6687   17.4109 C   0  0  0  0  0  0  0  0  0  0  0  0
  -24.8615  -27.2841   21.0323 N   0  0  0  0  0  0  0  0  0  0  0  0
  -25.3979  -26.3697   20.2064 N   0  0  0  0  0  0  0  0  0  0  0  0
  -25.2964  -14.2158   20.2403 N   0  0  0  0  0  0  0  0  0  0  0  0
  -25.6421  -22.7696   21.4564 N   0  0  0  0  0  0  0  0  0  0  0  0
  -26.8577  -26.1198   18.3578 N   0  0  0  0  0  0  0  0  0  0  0  0
  -26.3842  -29.8128   17.6280 N   0  0  0  0  0  0  0  0  0  0  0  0
  -27.6667  -21.9612   20.5564 N   0  0  0  0  0  0  0  0  0  0  0  0
  -24.3148  -11.3297   21.6812 N   0  0  0  0  0  0  0  0  0  0  0  0
  -24.3872  -16.4707   18.3036 N   0  0  0  0  0  0  0  0  0  0  0  0
  -32.7530  -18.0888   19.7160 N   0  3  1  0  0  0  0  0  0  0  0  0
  -26.6455  -19.1099   17.3027 N   0  3  0  0  0  0  0  0  0  0  0  0
  -28.1625  -29.5464   19.0512 O   0  0  0  0  0  0  0  0  0  0  0  0
  -26.4110  -11.6283   20.7121 O   0  0  0  0  0  0  0  0  0  0  0  0
  -22.9758  -14.4389   20.2073 O   0  0  0  0  0  0  0  0  0  0  0  0
  -25.7502  -16.5889   16.4314 O   0  0  0  0  0  0  0  0  0  0  0  0
  -26.0167  -20.4958   21.2720 O   0  0  0  0  0  0  0  0  0  0  0  0
  -24.0543  -33.2568   23.0886 O   0  0  0  0  0  0  0  0  0  0  0  0
  -31.4484  -14.5884   19.9798 O   0  0  0  0  0  0  0  0  0  1  0  0
  -27.2002  -37.6523   21.9991 F   0  0  0  0  0  0  0  0  0  0  0  0
  -25.4103  -34.5667   25.1105 F   0  0  0  0  0  0  0  0  0  0  0  0
  -30.0766  -23.1230   19.1528 Cl  0  0  0  0  0  0  0  0  0  0  0  0
  1  2  1  0  0  0  0
  1  5  2  0  0  0  0
  2  6  2  0  0  0  0
  3  8  2  0  0  0  0
  3 16  1  0  0  0  0
  4  9  1  0  0  0  0
  4 16  2  0  0  0  0
  5 18  1  0  0  0  0
  6 20  1  0  0  0  0
  7 10  2  0  0  0  0
  7 19  1  0  0  0  0
  8 26  1  0  0  0  0
  9 26  2  0  0  0  0
 10 27  1  0  0  0  0
 11 12  2  0  0  0  0
 11 28  1  0  0  0  0
 12 29  1  0  0  0  0
 13 21  1  0  0  0  0
 13 27  2  0  0  0  0
 14 22  2  0  0  0  0
 14 25  1  0  0  0  0
 15 29  2  0  0  0  0
 15 30  1  0  0  0  0
 16 32  1  0  0  0  0
 17 32  1  0  0  0  0
 17 33  2  0  0  0  0
 17 36  1  0  0  0  0
 18 20  2  0  0  0  0
 18 41  1  0  0  0  0
 19 21  2  0  0  0  0
 19 42  1  0  0  0  0
 20 53  1  0  0  0  0
 21 43  1  0  0  0  0
 22 23  1  0  0  0  0
 22 57  1  0  0  0  0
 23 24  2  0  0  0  0
 23 64  1  0  0  0  0
 24 31  1  0  0  0  0
 24 58  1  0  0  0  0
 25 31  2  0  0  0  0
 25 74  1  0  0  0  0
 26 84  1  0  0  0  0
 27 85  1  0  0  0  0
 28 30  2  0  0  0  0
 28 84  1  0  0  0  0
 29 86  1  0  0  0  0
 30 87  1  0  0  0  0
 31 88  1  0  0  0  0
 32 68  2  0  0  0  0
 33 69  1  0  0  0  0
 33 72  1  0  0  0  0
 34 35  2  0  0  0  0
 34 44  1  0  0  0  0
 34 77  1  0  0  0  0
 36 73  1  0  0  0  0
 36 79  2  0  0  0  0
 37 54  1  0  0  0  0
 37 75  1  0  0  0  0
 37 80  2  0  0  0  0
 38 65  1  0  0  0  0
 38 70  1  0  0  0  0
 38 81  2  0  0  0  0
 39 66  1  0  0  0  0
 39 76  1  0  0  0  0
 39 82  2  0  0  0  0
 40 71  1  0  0  0  0
 40 74  1  0  0  0  0
 40 83  2  0  0  0  0
 41 45  1  0  0  0  0
 42 54  1  0  0  0  0
 43 70  1  0  0  0  0
 44 46  1  0  0  0  0
 45 48  1  0  0  0  0
 46 56  1  0  0  0  0
 47 49  1  0  0  0  0
 47 50  1  0  0  0  0
 48 53  1  0  0  0  0
 49 55  1  0  0  0  0
 50 71  1  0  0  0  0
 51 55  1  0  0  0  0
 51 71  1  0  0  0  0
 52 56  1  0  0  0  0
 52 77  1  0  0  0  0
 53 75  1  0  0  0  0
 54 70  1  0  0  0  0
 55 69  1  0  0  0  0
 56 85  1  0  0  0  0
 59 66  1  0  0  0  0
 60 67  1  0  0  0  0
 61 67  1  0  0  0  0
 62 67  1  0  0  0  0
 63 78  1  0  0  0  0
 64 77  1  0  0  0  0
 65 67  1  0  0  0  0
 65 76  1  0  0  0  0
 66 78  1  0  0  0  0
 68 69  1  0  0  0  0
M  CHG  2  77   1  78   1
M  ISO  4  40 100  56 101  74 100  85 101
M  END
> <Batch ID>
0038

> <Smiles>
C=C1CC[101CH:1]([101O:1]c2ccc3c(c2)CN(C(=O)C(NC(=O)C(C)NC)C(C)(C)C)C(C(=O)NC2CCCc4ccccc42)C3)CN1Cc1c(C)cc([100NH:0][100C:0](=O)N2CCCC(n3nc(-c4ccc(Oc5ccc(F)cc5F)cc4)c(C(N)=O)c3N)C2)c(Cl)c1C

> <Shape>
0.244

> <Color>
0.075

> <Negative vol penalty>
0.000

$$$$

  -OEChem-04042322003D

 89 98  0     1  0  0  0  0  0999 V2000
  -25.3436  -34.9647   24.0491 C   0  0  0  0  0  0  0  0  0  0  0  0
  -26.0130  -33.7916   23.7158 C   0  0  0  0  0  0  0  0  0  0  0  0
  -23.4666  -10.8908   23.2120 C   0  0  0  0  0  0  0  0  0  0  0  0
  -24.5017   -9.2324   21.7924 C   0  0  0  0  0  0  0  0  0  0  0  0
  -24.0080  -34.9152   24.4459 C   0  0  0  0  0  0  0  0  0  0  0  0
  -25.3474  -32.5680   23.7803 C   0  0  0  0  0  0  0  0  0  0  0  0
  -26.2335  -29.6586   19.7312 C   0  0  0  0  0  0  0  0  0  0  0  0
  -29.8202  -20.4739   20.1229 C   0  0  0  0  0  0  0  0  0  0  0  0
  -29.7107  -19.1000   19.9091 C   0  0  0  0  0  0  0  0  0  0  0  0
  -23.0400   -9.8836   24.0775 C   0  0  0  0  0  0  0  0  0  0  0  0
  -24.0751   -8.2252   22.6579 C   0  0  0  0  0  0  0  0  0  0  0  0
  -27.4531  -28.9846   19.6861 C   0  0  0  0  0  0  0  0  0  0  0  0
  -21.2158   -6.5401   23.3026 C   0  0  0  0  0  0  0  0  0  0  0  0
  -20.6476   -5.3982   22.7382 C   0  0  0  0  0  0  0  0  0  0  0  0
  -26.3598  -26.9687   20.4345 C   0  0  0  0  0  0  0  0  0  0  0  0
  -22.3795   -4.0423   23.7378 C   0  0  0  0  0  0  0  0  0  0  0  0
  -24.1974  -10.5652   22.0693 C   0  0  0  0  0  0  0  0  0  0  0  0
  -23.8311  -12.5198   20.4716 C   0  0  0  0  0  0  0  0  0  0  0  0
  -23.3228  -33.6914   24.5061 C   0  0  0  0  0  0  0  0  0  0  0  0
  -25.0679  -28.9945   20.1395 C   0  0  0  0  0  0  0  0  0  0  0  0
  -24.0017  -32.5019   24.1797 C   0  0  0  0  0  0  0  0  0  0  0  0
  -25.1262  -27.6359   20.4815 C   0  0  0  0  0  0  0  0  0  0  0  0
  -28.6724  -21.2644   20.1810 C   0  0  0  0  0  0  0  0  0  0  0  0
  -27.4151  -20.6808   20.0251 C   0  0  0  0  0  0  0  0  0  0  0  0
  -28.4534  -18.5164   19.7533 C   0  0  0  0  0  0  0  0  0  0  0  0
  -23.3442   -8.5508   23.8006 C   0  0  0  0  0  0  0  0  0  0  0  0
  -27.5169  -27.6402   20.0405 C   0  0  0  0  0  0  0  0  0  0  0  0
  -22.3659   -6.4332   24.0847 C   0  0  0  0  0  0  0  0  0  0  0  0
  -21.2294   -4.1492   22.9558 C   0  0  0  0  0  0  0  0  0  0  0  0
  -22.9477   -5.1843   24.3023 C   0  0  0  0  0  0  0  0  0  0  0  0
  -27.3056  -19.3068   19.8113 C   0  0  0  0  0  0  0  0  0  0  0  0
  -24.6379  -11.6051   21.1745 C   0  0  0  0  0  0  0  0  0  0  0  0
  -24.7218  -13.2925   19.7672 C   0  0  0  0  0  0  0  0  0  0  0  0
  -29.7755  -24.8298   19.6604 C   0  0  0  0  0  0  0  0  0  0  0  0
  -30.8281  -25.1556   20.4333 C   0  0  0  0  0  0  0  0  0  0  0  0
  -22.4041  -12.6587   20.4567 C   0  0  0  0  0  0  0  0  0  0  0  0
  -23.0076  -29.3464   22.5343 C   0  0  0  0  0  0  0  0  0  0  0  0
  -21.3820  -27.0208   20.9621 C   0  0  0  0  0  0  0  0  0  0  0  0
  -22.1808  -23.9481   19.2480 C   0  0  0  0  0  0  0  0  0  0  0  0
  -29.4475  -16.2206   19.4571 C   0  0  0  0  0  0  0  0  0  0  0  0
  -21.8931  -33.6827   24.9862 C   0  0  0  0  0  0  0  0  0  0  0  0
  -23.7553  -29.7287   20.1571 C   0  0  0  0  0  0  0  0  0  0  0  0
  -23.9000  -26.8720   20.9072 C   0  0  0  0  0  0  0  0  0  0  0  0
  -21.1516  -32.3869   24.6679 C   0  0  0  0  0  0  0  0  0  0  0  0
  -29.0908  -25.3346   16.6245 C   0  0  0  0  0  0  0  0  0  0  0  0
  -29.6857  -12.7013   18.9725 C   0  0  0  0  0  0  0  0  0  0  0  0
  -29.7627  -23.9838   16.8759 C   0  0  0  0  0  0  0  0  0  0  0  0
  -22.0090  -31.1784   25.0300 C   0  0  0  0  0  0  0  0  0  0  0  0
  -29.2211  -26.3562   17.7518 C   0  0  0  0  0  0  0  0  0  0  0  0
  -28.3273  -12.1776   19.4444 C   0  0  0  0  0  0  0  0  0  0  0  0
  -30.1700  -13.8719   19.8263 C   0  0  0  0  0  0  0  0  0  0  0  0
  -27.8550  -14.4538   20.4358 C   0  0  0  0  0  0  0  0  0  0  0  0
  -29.0708  -23.1655   17.9637 C   0  0  0  0  0  0  0  0  0  0  0  0
  -23.3067  -31.1580   24.2133 C   0  0  1  0  0  0  0  0  0  0  0  0
  -28.7911  -25.8473   19.1294 C   0  0  2  0  0  0  0  0  0  1  0  0
  -22.7245  -29.0879   21.0814 C   0  0  1  0  0  0  0  0  0  0  0  0
  -27.2957  -13.3163   19.5659 C   0  0  2  0  0  0  0  0  0  0  0  0
  -26.1967  -21.5489   20.0914 C   0  0  0  0  0  0  0  0  0  0  0  0
  -31.8032  -24.1649   20.9618 C   0  0  0  0  0  0  0  0  0  0  0  0
  -20.9818  -22.7546   17.3946 C   0  0  0  0  0  0  0  0  0  0  0  0
  -20.0613  -25.4491   23.2194 C   0  0  0  0  0  0  0  0  0  0  0  0
  -20.2114  -23.4010   21.7873 C   0  0  0  0  0  0  0  0  0  0  0  0
  -18.8511  -25.3512   21.0330 C   0  0  0  0  0  0  0  0  0  0  0  0
  -24.5960  -23.9351   17.5375 C   0  0  0  0  0  0  0  0  0  0  0  0
  -28.8204  -22.7394   20.4119 C   0  0  0  0  0  0  0  0  0  0  0  0
  -21.3740  -25.5116   20.9970 C   0  0  1  0  0  0  0  0  0  0  0  0
  -22.1186  -23.6996   17.7518 C   0  0  2  0  0  0  0  0  0  0  0  0
  -20.1478  -24.9431   21.7656 C   0  0  0  0  0  0  0  0  0  0  0  0
  -25.9409  -11.7791   20.9382 N   0  0  0  0  0  0  0  0  0  0  0  0
  -25.9597  -12.8121   20.0787 N   0  0  0  0  0  0  0  0  0  0  0  0
  -22.6413  -27.6355   20.9144 N   0  0  0  0  0  0  0  0  0  0  0  0
  -29.1428  -14.9137   19.8927 N   0  0  0  0  0  0  0  0  0  0  0  0
  -24.5590  -14.3291   18.9179 N   0  0  0  0  0  0  0  0  0  0  0  0
  -21.6726  -11.9373   19.5034 N   0  0  0  0  0  0  0  0  0  0  0  0
  -28.3830  -17.1178   19.5368 N   0  0  0  0  0  0  0  0  0  0  0  0
  -23.0508  -30.6863   22.8693 N   0  0  0  0  0  0  0  0  0  0  0  0
  -21.4663  -25.0707   19.6094 N   0  0  0  0  0  0  0  0  0  0  0  0
  -29.6316  -23.4267   19.3419 N   0  3  2  0  0  0  0  0  0  0  0  0
  -23.3961  -23.1001   17.2727 N   0  3  0  0  0  0  0  0  0  0  0  0
  -21.7972  -13.4131   21.2542 O   0  0  0  0  0  0  0  0  0  0  0  0
  -23.1730  -28.4002   23.2952 O   0  0  0  0  0  0  0  0  0  0  0  0
  -20.3103  -27.6316   20.9694 O   0  0  0  0  0  0  0  0  0  0  0  0
  -22.7983  -23.2173   20.0196 O   0  0  0  0  0  0  0  0  0  0  0  0
  -30.5623  -16.5151   19.0184 O   0  0  0  0  0  0  0  0  0  0  0  0
  -22.9283   -7.5678   24.6451 O   0  0  0  0  0  0  0  0  0  0  0  0
  -28.7062  -26.9801   19.9980 O   0  0  0  0  0  0  0  0  0  1  0  0
  -20.6828   -3.0525   22.4149 F   0  0  0  0  0  0  0  0  0  0  0  0
  -24.0519   -5.0752   25.0537 F   0  0  0  0  0  0  0  0  0  0  0  0
  -25.7414  -18.5834   19.6172 Cl  0  0  0  0  0  0  0  0  0  0  0  0
  1  2  1  0  0  0  0
  1  5  2  0  0  0  0
  2  6  2  0  0  0  0
  3 10  2  0  0  0  0
  3 17  1  0  0  0  0
  4 11  1  0  0  0  0
  4 17  2  0  0  0  0
  5 19  1  0  0  0  0
  6 21  1  0  0  0  0
  7 12  2  0  0  0  0
  7 20  1  0  0  0  0
  8  9  2  0  0  0  0
  8 23  1  0  0  0  0
  9 25  1  0  0  0  0
 10 26  1  0  0  0  0
 11 26  2  0  0  0  0
 12 27  1  0  0  0  0
 13 14  2  0  0  0  0
 13 28  1  0  0  0  0
 14 29  1  0  0  0  0
 15 22  1  0  0  0  0
 15 27  2  0  0  0  0
 16 29  2  0  0  0  0
 16 30  1  0  0  0  0
 17 32  1  0  0  0  0
 18 32  1  0  0  0  0
 18 33  2  0  0  0  0
 18 36  1  0  0  0  0
 19 21  2  0  0  0  0
 19 41  1  0  0  0  0
 20 22  2  0  0  0  0
 20 42  1  0  0  0  0
 21 54  1  0  0  0  0
 22 43  1  0  0  0  0
 23 24  2  0  0  0  0
 23 65  1  0  0  0  0
 24 31  1  0  0  0  0
 24 58  1  0  0  0  0
 25 31  2  0  0  0  0
 25 75  1  0  0  0  0
 26 85  1  0  0  0  0
 27 86  1  0  0  0  0
 28 30  2  0  0  0  0
 28 85  1  0  0  0  0
 29 87  1  0  0  0  0
 30 88  1  0  0  0  0
 31 89  1  0  0  0  0
 32 69  2  0  0  0  0
 33 70  1  0  0  0  0
 33 73  1  0  0  0  0
 34 35  2  0  0  0  0
 34 55  1  0  0  0  0
 34 78  1  0  0  0  0
 35 59  1  0  0  0  0
 36 74  1  0  0  0  0
 36 80  2  0  0  0  0
 37 56  1  0  0  0  0
 37 76  1  0  0  0  0
 37 81  2  0  0  0  0
 38 66  1  0  0  0  0
 38 71  1  0  0  0  0
 38 82  2  0  0  0  0
 39 67  1  0  0  0  0
 39 77  1  0  0  0  0
 39 83  2  0  0  0  0
 40 72  1  0  0  0  0
 40 75  1  0  0  0  0
 40 84  2  0  0  0  0
 41 44  1  0  0  0  0
 42 56  1  0  0  0  0
 43 71  1  0  0  0  0
 44 48  1  0  0  0  0
 45 47  1  0  0  0  0
 45 49  1  0  0  0  0
 46 50  1  0  0  0  0
 46 51  1  0  0  0  0
 47 53  1  0  0  0  0
 48 54  1  0  0  0  0
 49 55  1  0  0  0  0
 50 57  1  0  0  0  0
 51 72  1  0  0  0  0
 52 57  1  0  0  0  0
 52 72  1  0  0  0  0
 53 78  1  0  0  0  0
 54 76  1  0  0  0  0
 55 86  1  0  0  0  0
 56 71  1  0  0  0  0
 57 70  1  0  0  0  0
 60 67  1  0  0  0  0
 61 68  1  0  0  0  0
 62 68  1  0  0  0  0
 63 68  1  0  0  0  0
 64 79  1  0  0  0  0
 65 78  1  0  0  0  0
 66 68  1  0  0  0  0
 66 77  1  0  0  0  0
 67 79  1  0  0  0  0
 69 70  1  0  0  0  0
M  CHG  2  78   1  79   1
M  ISO  4  40 100  55 101  75 100  86 101
M  END
> <Batch ID>
0038

> <Smiles>
CC=C1N(Cc2ccc([100NH:0][100C:0](=O)N3CCCC(n4nc(-c5ccc(Oc6ccc(F)cc6F)cc5)c(C(N)=O)c4N)C3)c(Cl)c2C)CCCC[101CH:1]1[101O:1]c1ccc2c(c1)CN(C(=O)C(NC(=O)C(C)NC)C(C)(C)C)C(C(=O)NC1CCCc3ccccc31)C2

> <Shape>
0.344

> <Color>
0.117

> <Negative vol penalty>
0.000

$$$$

  -OEChem-04042322003D

 88 97  0     1  0  0  0  0  0999 V2000
  -21.9107   -9.5911   24.7667 C   0  0  0  0  0  0  0  0  0  0  0  0
  -23.2091  -10.0555   24.9502 C   0  0  0  0  0  0  0  0  0  0  0  0
  -19.0194  -29.3026   22.4663 C   0  0  0  0  0  0  0  0  0  0  0  0
  -20.1992  -27.2007   22.6310 C   0  0  0  0  0  0  0  0  0  0  0  0
  -21.5104   -9.1195   23.5171 C   0  0  0  0  0  0  0  0  0  0  0  0
  -24.1084  -10.0476   23.8846 C   0  0  0  0  0  0  0  0  0  0  0  0
  -27.2204  -16.1343   21.6131 C   0  0  0  0  0  0  0  0  0  0  0  0
  -30.8991  -27.3940   19.4298 C   0  0  0  0  0  0  0  0  0  0  0  0
  -17.8268  -28.6156   22.2405 C   0  0  0  0  0  0  0  0  0  0  0  0
  -19.0065  -26.5136   22.4053 C   0  0  0  0  0  0  0  0  0  0  0  0
  -28.0169  -17.2226   21.2563 C   0  0  0  0  0  0  0  0  0  0  0  0
  -16.2695  -25.6287   24.1792 C   0  0  0  0  0  0  0  0  0  0  0  0
  -15.9906  -24.5324   24.9951 C   0  0  0  0  0  0  0  0  0  0  0  0
  -31.9815  -26.5157   19.3805 C   0  0  0  0  0  0  0  0  0  0  0  0
  -29.0581  -15.9040   19.5170 C   0  0  0  0  0  0  0  0  0  0  0  0
  -29.6488  -25.7807   20.7224 C   0  0  0  0  0  0  0  0  0  0  0  0
  -15.9304  -23.1003   23.0503 C   0  0  0  0  0  0  0  0  0  0  0  0
  -20.2057  -28.5952   22.6615 C   0  0  0  0  0  0  0  0  0  0  0  0
  -21.7224  -30.1914   23.9498 C   0  0  0  0  0  0  0  0  0  0  0  0
  -22.4023   -9.1148   22.4332 C   0  0  0  0  0  0  0  0  0  0  0  0
  -27.3290  -14.9299   20.9123 C   0  0  0  0  0  0  0  0  0  0  0  0
  -23.7201   -9.5742   22.6197 C   0  0  0  0  0  0  0  0  0  0  0  0
  -28.2541  -14.8143   19.8618 C   0  0  0  0  0  0  0  0  0  0  0  0
  -30.7312  -24.9023   20.6731 C   0  0  0  0  0  0  0  0  0  0  0  0
  -29.7327  -27.0265   20.1008 C   0  0  0  0  0  0  0  0  0  0  0  0
  -17.8203  -27.2210   22.2101 C   0  0  0  0  0  0  0  0  0  0  0  0
  -28.9336  -17.1076   20.2110 C   0  0  0  0  0  0  0  0  0  0  0  0
  -16.3788  -25.4609   22.7988 C   0  0  0  0  0  0  0  0  0  0  0  0
  -15.8211  -23.2681   24.4307 C   0  0  0  0  0  0  0  0  0  0  0  0
  -16.2093  -24.1967   22.2343 C   0  0  0  0  0  0  0  0  0  0  0  0
  -31.8976  -25.2698   20.0022 C   0  0  0  0  0  0  0  0  0  0  0  0
  -21.4382  -29.3045   22.8941 C   0  0  0  0  0  0  0  0  0  0  0  0
  -23.0155  -30.5941   23.7212 C   0  0  0  0  0  0  0  0  0  0  0  0
  -29.3759  -21.4977   21.5441 C   0  0  0  0  0  0  0  0  0  0  0  0
  -28.6591  -21.5238   22.6813 C   0  0  0  0  0  0  0  0  0  0  0  0
  -20.8918  -30.6134   25.0396 C   0  0  0  0  0  0  0  0  0  0  0  0
  -26.1282  -11.4002   20.4938 C   0  0  0  0  0  0  0  0  0  0  0  0
  -26.5239  -12.5468   17.6761 C   0  0  0  0  0  0  0  0  0  0  0  0
  -26.6829  -14.3151   14.7632 C   0  0  0  0  0  0  0  0  0  0  0  0
  -27.3979  -27.7200   20.7733 C   0  0  0  0  0  0  0  0  0  0  0  0
  -21.9380   -8.5514   21.1134 C   0  0  0  0  0  0  0  0  0  0  0  0
  -26.5350  -13.7127   21.3021 C   0  0  0  0  0  0  0  0  0  0  0  0
  -28.3611  -13.4887   19.1586 C   0  0  0  0  0  0  0  0  0  0  0  0
  -30.0372  -20.2353   21.0664 C   0  0  0  0  0  0  0  0  0  0  0  0
  -22.8402   -8.9255   19.9402 C   0  0  0  0  0  0  0  0  0  0  0  0
  -25.5946  -30.9116   19.6393 C   0  0  0  0  0  0  0  0  0  0  0  0
  -28.5514  -21.5996   18.7384 C   0  0  0  0  0  0  0  0  0  0  0  0
  -24.3059   -8.7121   20.3047 C   0  0  0  0  0  0  0  0  0  0  0  0
  -24.8179  -31.2307   20.9146 C   0  0  0  0  0  0  0  0  0  0  0  0
  -29.0182  -20.1448   18.7119 C   0  0  0  0  0  0  0  0  0  0  0  0
  -26.8205  -30.0486   19.9104 C   0  0  0  0  0  0  0  0  0  0  0  0
  -25.1683  -28.7200   21.2375 C   0  0  0  0  0  0  0  0  0  0  0  0
  -29.5989  -22.5506   19.3117 C   0  0  0  0  0  0  0  0  0  0  0  0
  -24.7173   -9.6047   21.4818 C   0  0  1  0  0  0  0  0  0  0  0  0
  -26.1267  -12.8471   20.0966 C   0  0  1  0  0  0  0  0  0  0  0  0
  -24.7615  -30.0459   21.8992 C   0  0  2  0  0  0  0  0  0  0  0  0
  -29.1493  -19.4743   20.0791 C   0  0  1  0  0  0  0  0  0  1  0  0
  -27.9820  -22.7407   23.2054 C   0  0  0  0  0  0  0  0  0  0  0  0
  -26.3602  -14.0653   12.2872 C   0  0  0  0  0  0  0  0  0  0  0  0
  -29.1937  -11.0850   17.4794 C   0  0  0  0  0  0  0  0  0  0  0  0
  -29.2731  -11.7037   15.0547 C   0  0  0  0  0  0  0  0  0  0  0  0
  -27.4315  -10.2551   15.9108 C   0  0  0  0  0  0  0  0  0  0  0  0
  -24.5231  -16.3381   14.7235 C   0  0  0  0  0  0  0  0  0  0  0  0
  -30.6014  -23.5718   21.3543 C   0  0  0  0  0  0  0  0  0  0  0  0
  -27.4485  -12.7144   16.4970 C   0  0  1  0  0  0  0  0  0  0  0  0
  -25.7069  -14.4429   13.6076 C   0  0  2  0  0  0  0  0  0  0  0  0
  -28.3343  -11.4597   16.2555 C   0  0  0  0  0  0  0  0  0  0  0  0
  -22.4678  -29.1524   22.0570 N   0  0  0  0  0  0  0  0  0  0  0  0
  -23.4116  -29.9493   22.5865 N   0  0  0  0  0  0  0  0  0  0  0  0
  -27.0187  -12.9327   18.9278 N   0  0  0  0  0  0  0  0  0  0  0  0
  -26.5062  -28.8126   20.6417 N   0  0  0  0  0  0  0  0  0  0  0  0
  -23.8409  -31.4333   24.3821 N   0  0  0  0  0  0  0  0  0  0  0  0
  -20.9180  -29.8690   26.2268 N   0  0  0  0  0  0  0  0  0  0  0  0
  -28.6333  -27.9196   20.1516 N   0  0  0  0  0  0  0  0  0  0  0  0
  -24.9336  -10.9638   21.0341 N   0  0  0  0  0  0  0  0  0  0  0  0
  -26.6037  -13.0766   15.3641 N   0  0  0  0  0  0  0  0  0  0  0  0
  -29.4721  -22.7344   20.8058 N   0  3  2  0  0  0  0  0  0  0  0  0
  -25.2094  -15.8437   13.5022 N   0  3  0  0  0  0  0  0  0  0  0  0
  -20.1361  -31.6112   24.9572 O   0  0  0  0  0  0  0  0  0  0  0  0
  -27.1380  -10.7275   20.3217 O   0  0  0  0  0  0  0  0  0  0  0  0
  -25.3951  -12.0814   17.4960 O   0  0  0  0  0  0  0  0  0  0  0  0
  -27.4424  -15.2219   15.0970 O   0  0  0  0  0  0  0  0  0  0  0  0
  -27.0885  -26.7028   21.3975 O   0  0  0  0  0  0  0  0  0  0  0  0
  -16.6566  -26.5502   21.9901 O   0  0  0  0  0  0  0  0  0  0  0  0
  -29.7048  -18.1754   19.8649 O   0  0  0  0  0  0  0  0  0  1  0  0
  -15.5548  -22.2151   25.2145 F   0  0  0  0  0  0  0  0  0  0  0  0
  -16.3143  -24.0290   20.9089 F   0  0  0  0  0  0  0  0  0  0  0  0
  -33.2576  -24.2101   19.9205 Cl  0  0  0  0  0  0  0  0  0  0  0  0
  1  2  1  0  0  0  0
  1  5  2  0  0  0  0
  2  6  2  0  0  0  0
  3  9  2  0  0  0  0
  3 18  1  0  0  0  0
  4 10  1  0  0  0  0
  4 18  2  0  0  0  0
  5 20  1  0  0  0  0
  6 22  1  0  0  0  0
  7 11  2  0  0  0  0
  7 21  1  0  0  0  0
  8 14  2  0  0  0  0
  8 25  1  0  0  0  0
  9 26  1  0  0  0  0
 10 26  2  0  0  0  0
 11 27  1  0  0  0  0
 12 13  2  0  0  0  0
 12 28  1  0  0  0  0
 13 29  1  0  0  0  0
 14 31  1  0  0  0  0
 15 23  1  0  0  0  0
 15 27  2  0  0  0  0
 16 24  1  0  0  0  0
 16 25  2  0  0  0  0
 17 29  2  0  0  0  0
 17 30  1  0  0  0  0
 18 32  1  0  0  0  0
 19 32  1  0  0  0  0
 19 33  2  0  0  0  0
 19 36  1  0  0  0  0
 20 22  2  0  0  0  0
 20 41  1  0  0  0  0
 21 23  2  0  0  0  0
 21 42  1  0  0  0  0
 22 54  1  0  0  0  0
 23 43  1  0  0  0  0
 24 31  2  0  0  0  0
 24 64  1  0  0  0  0
 25 74  1  0  0  0  0
 26 84  1  0  0  0  0
 27 85  1  0  0  0  0
 28 30  2  0  0  0  0
 28 84  1  0  0  0  0
 29 86  1  0  0  0  0
 30 87  1  0  0  0  0
 31 88  1  0  0  0  0
 32 68  2  0  0  0  0
 33 69  1  0  0  0  0
 33 72  1  0  0  0  0
 34 35  2  0  0  0  0
 34 44  1  0  0  0  0
 34 77  1  0  0  0  0
 35 58  1  0  0  0  0
 36 73  1  0  0  0  0
 36 79  2  0  0  0  0
 37 55  1  0  0  0  0
 37 75  1  0  0  0  0
 37 80  2  0  0  0  0
 38 65  1  0  0  0  0
 38 70  1  0  0  0  0
 38 81  2  0  0  0  0
 39 66  1  0  0  0  0
 39 76  1  0  0  0  0
 39 82  2  0  0  0  0
 40 71  1  0  0  0  0
 40 74  1  0  0  0  0
 40 83  2  0  0  0  0
 41 45  1  0  0  0  0
 42 55  1  0  0  0  0
 43 70  1  0  0  0  0
 44 57  1  0  0  0  0
 45 48  1  0  0  0  0
 46 49  1  0  0  0  0
 46 51  1  0  0  0  0
 47 50  1  0  0  0  0
 47 53  1  0  0  0  0
 48 54  1  0  0  0  0
 49 56  1  0  0  0  0
 50 57  1  0  0  0  0
 51 71  1  0  0  0  0
 52 56  1  0  0  0  0
 52 71  1  0  0  0  0
 53 77  1  0  0  0  0
 54 75  1  0  0  0  0
 55 70  1  0  0  0  0
 56 69  1  0  0  0  0
 57 85  1  0  0  0  0
 59 66  1  0  0  0  0
 60 67  1  0  0  0  0
 61 67  1  0  0  0  0
 62 67  1  0  0  0  0
 63 78  1  0  0  0  0
 64 77  1  0  0  0  0
 65 67  1  0  0  0  0
 65 76  1  0  0  0  0
 66 78  1  0  0  0  0
 68 69  1  0  0  0  0
M  CHG  2  77   1  78   1
M  ISO  4  40 100  57 101  74 100  85 101
M  END
> <Batch ID>
0038

> <Smiles>
CC=C1C[101CH:1]([101O:1]c2ccc3c(c2)CN(C(=O)C(NC(=O)C(C)NC)C(C)(C)C)C(C(=O)NC2CCCc4ccccc42)C3)CCCN1Cc1cc([100NH:0][100C:0](=O)N2CCCC(n3nc(-c4ccc(Oc5ccc(F)cc5F)cc4)c(C(N)=O)c3N)C2)ccc1Cl

> <Shape>
0.283

> <Color>
0.061

> <Negative vol penalty>
0.000

$$$$

  -OEChem-04042322003D

 86 95  0     1  0  0  0  0  0999 V2000
  -30.3941  -23.4802   16.8449 C   0  0  0  0  0  0  0  0  0  0  0  0
  -29.1144  -23.9005   17.1892 C   0  0  0  0  0  0  0  0  0  0  0  0
  -27.4292  -24.2734   21.9124 C   0  0  0  0  0  0  0  0  0  0  0  0
  -25.3256  -12.6958   19.3532 C   0  0  0  0  0  0  0  0  0  0  0  0
  -25.3112  -13.9224   21.4347 C   0  0  0  0  0  0  0  0  0  0  0  0
  -31.5040  -24.0947   17.4209 C   0  0  0  0  0  0  0  0  0  0  0  0
  -28.9443  -24.9433   18.1005 C   0  0  0  0  0  0  0  0  0  0  0  0
  -24.3617  -26.6050   18.7654 C   0  0  0  0  0  0  0  0  0  0  0  0
  -26.3312  -24.2668   22.7726 C   0  0  0  0  0  0  0  0  0  0  0  0
  -28.0190  -23.0701   21.5251 C   0  0  0  0  0  0  0  0  0  0  0  0
  -25.1362  -11.5047   20.0538 C   0  0  0  0  0  0  0  0  0  0  0  0
  -25.1218  -12.7312   22.1353 C   0  0  0  0  0  0  0  0  0  0  0  0
  -23.3876  -25.8772   19.4475 C   0  0  0  0  0  0  0  0  0  0  0  0
  -22.5740   -9.8605   21.5250 C   0  0  0  0  0  0  0  0  0  0  0  0
  -21.6245   -8.9640   21.0348 C   0  0  0  0  0  0  0  0  0  0  0  0
  -23.6825  -27.2992   21.3737 C   0  0  0  0  0  0  0  0  0  0  0  0
  -23.3426   -7.2852   20.7769 C   0  0  0  0  0  0  0  0  0  0  0  0
  -25.4131  -13.9047   20.0437 C   0  0  0  0  0  0  0  0  0  0  0  0
  -24.7659  -15.6880   18.3382 C   0  0  0  0  0  0  0  0  0  0  0  0
  -31.3462  -25.1372   18.3491 C   0  0  0  0  0  0  0  0  0  0  0  0
  -25.0124  -27.6804   19.3872 C   0  0  0  0  0  0  0  0  0  0  0  0
  -30.0523  -25.5923   18.6747 C   0  0  0  0  0  0  0  0  0  0  0  0
  -24.6627  -28.0407   20.6964 C   0  0  0  0  0  0  0  0  0  0  0  0
  -25.8230  -23.0570   23.2456 C   0  0  0  0  0  0  0  0  0  0  0  0
  -26.4128  -21.8537   22.8583 C   0  0  0  0  0  0  0  0  0  0  0  0
  -27.5108  -21.8603   21.9980 C   0  0  0  0  0  0  0  0  0  0  0  0
  -25.0343  -11.5223   21.4448 C   0  0  0  0  0  0  0  0  0  0  0  0
  -23.0499  -26.2225   20.7529 C   0  0  0  0  0  0  0  0  0  0  0  0
  -23.9079   -9.4693   21.6412 C   0  0  0  0  0  0  0  0  0  0  0  0
  -22.0088   -7.6764   20.6608 C   0  0  0  0  0  0  0  0  0  0  0  0
  -24.2922   -8.1817   21.2672 C   0  0  0  0  0  0  0  0  0  0  0  0
  -25.6093  -15.1355   19.3206 C   0  0  0  0  0  0  0  0  0  0  0  0
  -25.3909  -16.8525   17.9644 C   0  0  0  0  0  0  0  0  0  0  0  0
  -22.2667  -22.6714   24.4388 C   0  0  0  0  0  0  0  0  0  0  0  0
  -21.8335  -21.4898   24.9035 C   0  0  0  0  0  0  0  0  0  0  0  0
  -23.5280  -15.1928   17.8107 C   0  0  0  0  0  0  0  0  0  0  0  0
  -28.0217  -28.3248   20.1823 C   0  0  0  0  0  0  0  0  0  0  0  0
  -26.7809  -31.2120   20.9864 C   0  0  0  0  0  0  0  0  0  0  0  0
  -23.8134  -32.4366   22.6332 C   0  0  0  0  0  0  0  0  0  0  0  0
  -29.2209  -20.5027   20.7415 C   0  0  0  0  0  0  0  0  0  0  0  0
  -32.5822  -25.7722   18.9360 C   0  0  0  0  0  0  0  0  0  0  0  0
  -26.0418  -28.4721   18.6285 C   0  0  0  0  0  0  0  0  0  0  0  0
  -25.3172  -29.1994   21.4017 C   0  0  0  0  0  0  0  0  0  0  0  0
  -21.6415  -23.9840   24.8259 C   0  0  0  0  0  0  0  0  0  0  0  0
  -32.2982  -26.5572   20.2125 C   0  0  0  0  0  0  0  0  0  0  0  0
  -21.3093  -24.8002   23.5826 C   0  0  0  0  0  0  0  0  0  0  0  0
  -29.7400  -18.8311   17.6409 C   0  0  0  0  0  0  0  0  0  0  0  0
  -31.1201  -27.4949   19.9947 C   0  0  0  0  0  0  0  0  0  0  0  0
  -28.6590  -17.7479   17.6277 C   0  0  0  0  0  0  0  0  0  0  0  0
  -30.3064  -19.0499   19.0427 C   0  0  0  0  0  0  0  0  0  0  0  0
  -28.2232  -18.2291   20.0701 C   0  0  0  0  0  0  0  0  0  0  0  0
  -23.0101  -23.4735   22.2741 C   0  0  0  0  0  0  0  0  0  0  0  0
  -29.8423  -26.7041   19.6866 C   0  0  1  0  0  0  0  0  0  0  0  0
  -27.0061  -29.2261   19.5390 C   0  0  1  0  0  0  0  0  0  0  0  0
  -27.5767  -18.0187   18.6911 C   0  0  2  0  0  0  0  0  0  0  0  0
  -22.5006  -24.8685   22.6272 C   0  0  1  0  0  0  0  0  0  1  0  0
  -25.8638  -20.5581   23.3682 C   0  0  0  0  0  0  0  0  0  0  0  0
  -22.6098  -34.6272   22.4097 C   0  0  0  0  0  0  0  0  0  0  0  0
  -28.4861  -32.0614   23.3699 C   0  0  0  0  0  0  0  0  0  0  0  0
  -26.5034  -33.3077   24.2553 C   0  0  0  0  0  0  0  0  0  0  0  0
  -27.5033  -33.9538   22.0631 C   0  0  0  0  0  0  0  0  0  0  0  0
  -21.2534  -31.0970   21.9923 C   0  0  0  0  0  0  0  0  0  0  0  0
  -24.6411  -23.0785   24.1696 C   0  0  0  0  0  0  0  0  0  0  0  0
  -26.1800  -31.8065   22.2372 C   0  0  1  0  0  0  0  0  0  0  0  0
  -22.6508  -33.1672   21.9859 C   0  0  2  0  0  0  0  0  0  0  0  0
  -27.1665  -32.7545   22.9759 C   0  0  0  0  0  0  0  0  0  0  0  0
  -26.6881  -15.8871   19.5560 N   0  0  0  0  0  0  0  0  0  0  0  0
  -26.5267  -16.9238   18.7161 N   0  0  0  0  0  0  0  0  0  0  0  0
  -26.3222  -29.9388   20.6201 N   0  0  0  0  0  0  0  0  0  0  0  0
  -29.2241  -19.3050   19.9958 N   0  0  0  0  0  0  0  0  0  0  0  0
  -25.0743  -17.8122   17.0694 N   0  0  0  0  0  0  0  0  0  0  0  0
  -22.3342  -15.5737   18.4385 N   0  0  0  0  0  0  0  0  0  0  0  0
  -28.1251  -20.6499   21.5913 N   0  0  0  0  0  0  0  0  0  0  0  0
  -28.8030  -27.6252   19.2825 N   0  0  0  0  0  0  0  0  0  0  0  0
  -24.9327  -32.4432   21.8280 N   0  0  0  0  0  0  0  0  0  0  0  0
  -23.3609  -22.6639   23.4985 N   0  3  1  0  0  0  0  0  0  0  0  0
  -21.3598  -32.5298   22.3704 N   0  3  0  0  0  0  0  0  0  0  0  0
  -23.4829  -14.4219   16.8222 O   0  0  0  0  0  0  0  0  0  0  0  0
  -28.0924  -28.2694   21.4044 O   0  0  0  0  0  0  0  0  0  0  0  0
  -27.6210  -31.8567   20.3537 O   0  0  0  0  0  0  0  0  0  0  0  0
  -23.7374  -31.9155   23.7437 O   0  0  0  0  0  0  0  0  0  0  0  0
  -30.1096  -21.3489   20.6141 O   0  0  0  0  0  0  0  0  0  0  0  0
  -24.8493  -10.3602   22.1288 O   0  0  0  0  0  0  0  0  0  0  0  0
  -22.1000  -25.5134   21.4212 O   0  0  0  0  0  0  0  0  0  1  0  0
  -21.0965   -6.8151   20.1915 F   0  0  0  0  0  0  0  0  0  0  0  0
  -25.5719   -7.7997   21.3776 F   0  0  0  0  0  0  0  0  0  0  0  0
  1  2  1  0  0  0  0
  1  6  2  0  0  0  0
  2  7  2  0  0  0  0
  3  9  2  0  0  0  0
  3 10  1  0  0  0  0
  4 11  2  0  0  0  0
  4 18  1  0  0  0  0
  5 12  1  0  0  0  0
  5 18  2  0  0  0  0
  6 20  1  0  0  0  0
  7 22  1  0  0  0  0
  8 13  2  0  0  0  0
  8 21  1  0  0  0  0
  9 24  1  0  0  0  0
 10 26  2  0  0  0  0
 11 27  1  0  0  0  0
 12 27  2  0  0  0  0
 13 28  1  0  0  0  0
 14 15  2  0  0  0  0
 14 29  1  0  0  0  0
 15 30  1  0  0  0  0
 16 23  1  0  0  0  0
 16 28  2  0  0  0  0
 17 30  2  0  0  0  0
 17 31  1  0  0  0  0
 18 32  1  0  0  0  0
 19 32  1  0  0  0  0
 19 33  2  0  0  0  0
 19 36  1  0  0  0  0
 20 22  2  0  0  0  0
 20 41  1  0  0  0  0
 21 23  2  0  0  0  0
 21 42  1  0  0  0  0
 22 53  1  0  0  0  0
 23 43  1  0  0  0  0
 24 25  2  0  0  0  0
 24 63  1  0  0  0  0
 25 26  1  0  0  0  0
 25 57  1  0  0  0  0
 26 73  1  0  0  0  0
 27 83  1  0  0  0  0
 28 84  1  0  0  0  0
 29 31  2  0  0  0  0
 29 83  1  0  0  0  0
 30 85  1  0  0  0  0
 31 86  1  0  0  0  0
 32 67  2  0  0  0  0
 33 68  1  0  0  0  0
 33 71  1  0  0  0  0
 34 35  2  0  0  0  0
 34 44  1  0  0  0  0
 34 76  1  0  0  0  0
 36 72  1  0  0  0  0
 36 78  2  0  0  0  0
 37 54  1  0  0  0  0
 37 74  1  0  0  0  0
 37 79  2  0  0  0  0
 38 64  1  0  0  0  0
 38 69  1  0  0  0  0
 38 80  2  0  0  0  0
 39 65  1  0  0  0  0
 39 75  1  0  0  0  0
 39 81  2  0  0  0  0
 40 70  1  0  0  0  0
 40 73  1  0  0  0  0
 40 82  2  0  0  0  0
 41 45  1  0  0  0  0
 42 54  1  0  0  0  0
 43 69  1  0  0  0  0
 44 46  1  0  0  0  0
 45 48  1  0  0  0  0
 46 56  1  0  0  0  0
 47 49  1  0  0  0  0
 47 50  1  0  0  0  0
 48 53  1  0  0  0  0
 49 55  1  0  0  0  0
 50 70  1  0  0  0  0
 51 55  1  0  0  0  0
 51 70  1  0  0  0  0
 52 56  1  0  0  0  0
 52 76  1  0  0  0  0
 53 74  1  0  0  0  0
 54 69  1  0  0  0  0
 55 68  1  0  0  0  0
 56 84  1  0  0  0  0
 58 65  1  0  0  0  0
 59 66  1  0  0  0  0
 60 66  1  0  0  0  0
 61 66  1  0  0  0  0
 62 77  1  0  0  0  0
 63 76  1  0  0  0  0
 64 66  1  0  0  0  0
 64 75  1  0  0  0  0
 65 77  1  0  0  0  0
 67 68  1  0  0  0  0
M  CHG  2  76   1  77   1
M  ISO  4  40 100  56 101  73 100  84 101
M  END
> <Batch ID>
0038

> <Smiles>
C=C1CC[101CH:1]([101O:1]c2ccc3c(c2)CN(C(=O)C(NC(=O)C(C)NC)C(C)(C)C)C(C(=O)NC2CCCc4ccccc42)C3)CN1Cc1cccc([100NH:0][100C:0](=O)N2CCCC(n3nc(-c4ccc(Oc5ccc(F)cc5F)cc4)c(C(N)=O)c3N)C2)c1C

> <Shape>
0.252

> <Color>
0.065

> <Negative vol penalty>
0.000

$$$$

  -OEChem-04042322003D

 89 98  0     1  0  0  0  0  0999 V2000
  -17.9444  -30.0777   23.2227 C   0  0  0  0  0  0  0  0  0  0  0  0
  -19.0432  -29.2245   23.2346 C   0  0  0  0  0  0  0  0  0  0  0  0
  -22.8220   -9.9641   20.0995 C   0  0  0  0  0  0  0  0  0  0  0  0
  -24.4295   -9.4133   21.8169 C   0  0  0  0  0  0  0  0  0  0  0  0
  -17.7497  -30.9468   22.1500 C   0  0  0  0  0  0  0  0  0  0  0  0
  -19.9474  -29.2392   22.1732 C   0  0  0  0  0  0  0  0  0  0  0  0
  -24.7672  -29.1911   23.7264 C   0  0  0  0  0  0  0  0  0  0  0  0
  -22.1797   -8.7439   20.3092 C   0  0  0  0  0  0  0  0  0  0  0  0
  -23.7872   -8.1930   22.0267 C   0  0  0  0  0  0  0  0  0  0  0  0
  -25.2892  -27.9678   24.1447 C   0  0  0  0  0  0  0  0  0  0  0  0
  -21.0272   -7.0751   23.6245 C   0  0  0  0  0  0  0  0  0  0  0  0
  -20.7966   -6.6841   24.9435 C   0  0  0  0  0  0  0  0  0  0  0  0
  -26.3642  -27.7006   22.0017 C   0  0  0  0  0  0  0  0  0  0  0  0
  -29.4524  -19.6270   20.5526 C   0  0  0  0  0  0  0  0  0  0  0  0
  -30.0918  -19.5565   22.8813 C   0  0  0  0  0  0  0  0  0  0  0  0
  -22.1258   -4.6983   24.5872 C   0  0  0  0  0  0  0  0  0  0  0  0
  -23.9469  -10.2988   20.8533 C   0  0  0  0  0  0  0  0  0  0  0  0
  -24.0590  -12.8463   20.7776 C   0  0  0  0  0  0  0  0  0  0  0  0
  -18.6572  -30.9790   21.0795 C   0  0  0  0  0  0  0  0  0  0  0  0
  -25.0313  -29.6739   22.4366 C   0  0  0  0  0  0  0  0  0  0  0  0
  -19.7639  -30.1086   21.0846 C   0  0  0  0  0  0  0  0  0  0  0  0
  -25.8465  -28.9315   21.5704 C   0  0  0  0  0  0  0  0  0  0  0  0
  -29.7920  -20.2887   21.7326 C   0  0  0  0  0  0  0  0  0  0  0  0
  -29.4125  -18.2330   20.5213 C   0  0  0  0  0  0  0  0  0  0  0  0
  -30.0520  -18.1625   22.8500 C   0  0  0  0  0  0  0  0  0  0  0  0
  -29.7123  -17.5008   21.6700 C   0  0  0  0  0  0  0  0  0  0  0  0
  -22.6623   -7.8583   21.2728 C   0  0  0  0  0  0  0  0  0  0  0  0
  -26.0854  -27.2210   23.2813 C   0  0  0  0  0  0  0  0  0  0  0  0
  -21.8070   -6.2776   22.7869 C   0  0  0  0  0  0  0  0  0  0  0  0
  -21.3459   -5.4957   25.4248 C   0  0  0  0  0  0  0  0  0  0  0  0
  -22.3563   -5.0893   23.2682 C   0  0  0  0  0  0  0  0  0  0  0  0
  -24.6112  -11.5590   20.6368 C   0  0  0  0  0  0  0  0  0  0  0  0
  -25.0887  -13.6981   20.4605 C   0  0  0  0  0  0  0  0  0  0  0  0
  -28.6415  -23.8624   21.4292 C   0  0  0  0  0  0  0  0  0  0  0  0
  -29.0795  -24.4311   20.2924 C   0  0  0  0  0  0  0  0  0  0  0  0
  -22.7338  -13.2370   21.1608 C   0  0  0  0  0  0  0  0  0  0  0  0
  -23.2529  -30.3839   19.8995 C   0  0  0  0  0  0  0  0  0  0  0  0
  -26.0722  -31.4620   18.7114 C   0  0  0  0  0  0  0  0  0  0  0  0
  -29.4818  -31.3287   18.7712 C   0  0  0  0  0  0  0  0  0  0  0  0
  -30.4274  -15.2360   20.8300 C   0  0  0  0  0  0  0  0  0  0  0  0
  -18.3792  -31.9021   19.9197 C   0  0  0  0  0  0  0  0  0  0  0  0
  -24.4827  -31.0079   22.0100 C   0  0  0  0  0  0  0  0  0  0  0  0
  -26.1765  -29.4151   20.1827 C   0  0  0  0  0  0  0  0  0  0  0  0
  -28.3014  -24.6908   22.6365 C   0  0  0  0  0  0  0  0  0  0  0  0
  -19.5871  -32.1208   19.0122 C   0  0  0  0  0  0  0  0  0  0  0  0
  -29.6154  -12.7686   18.3949 C   0  0  0  0  0  0  0  0  0  0  0  0
  -26.0775  -22.6262   22.1074 C   0  0  0  0  0  0  0  0  0  0  0  0
  -20.2606  -30.7906   18.6900 C   0  0  0  0  0  0  0  0  0  0  0  0
  -28.1957  -12.3398   18.7727 C   0  0  0  0  0  0  0  0  0  0  0  0
  -25.9046  -23.8494   23.0069 C   0  0  0  0  0  0  0  0  0  0  0  0
  -30.4669  -13.0608   19.6291 C   0  0  0  0  0  0  0  0  0  0  0  0
  -28.4584  -13.5858   20.9557 C   0  0  0  0  0  0  0  0  0  0  0  0
  -27.4073  -21.9094   22.3264 C   0  0  0  0  0  0  0  0  0  0  0  0
  -20.7804  -30.1127   19.9635 C   0  0  1  0  0  0  0  0  0  0  0  0
  -24.3934  -31.1603   20.4947 C   0  0  1  0  0  0  0  0  0  0  0  0
  -27.5436  -13.3432   19.7441 C   0  0  2  0  0  0  0  0  0  0  0  0
  -26.8110  -25.0358   22.6800 C   0  0  1  0  0  0  0  0  0  1  0  0
  -29.0447  -17.5527   19.2423 C   0  0  0  0  0  0  0  0  0  0  0  0
  -30.3787  -17.4054   24.0968 C   0  0  0  0  0  0  0  0  0  0  0  0
  -29.4317  -23.6655   19.0660 C   0  0  0  0  0  0  0  0  0  0  0  0
  -31.5110  -32.2982   17.6577 C   0  0  0  0  0  0  0  0  0  0  0  0
  -25.5823  -29.6870   16.2785 C   0  0  0  0  0  0  0  0  0  0  0  0
  -28.0002  -29.9518   15.6854 C   0  0  0  0  0  0  0  0  0  0  0  0
  -26.5076  -31.9494   15.7498 C   0  0  0  0  0  0  0  0  0  0  0  0
  -30.4644  -32.4880   21.3108 C   0  0  0  0  0  0  0  0  0  0  0  0
  -29.8346  -21.7881   21.7663 C   0  0  0  0  0  0  0  0  0  0  0  0
  -27.2018  -30.8505   17.9183 C   0  0  1  0  0  0  0  0  0  0  0  0
  -30.5321  -32.4239   18.8148 C   0  0  2  0  0  0  0  0  0  0  0  0
  -26.8153  -30.5994   16.4334 C   0  0  0  0  0  0  0  0  0  0  0  0
  -25.8922  -11.5858   20.2595 N   0  0  0  0  0  0  0  0  0  0  0  0
  -26.1535  -12.9004   20.1604 N   0  0  0  0  0  0  0  0  0  0  0  0
  -25.6114  -30.7224   19.8098 N   0  0  0  0  0  0  0  0  0  0  0  0
  -29.7879  -14.0221   20.5008 N   0  0  0  0  0  0  0  0  0  0  0  0
  -25.1781  -15.0442   20.4118 N   0  0  0  0  0  0  0  0  0  0  0  0
  -21.7995  -12.2339   21.4524 N   0  0  0  0  0  0  0  0  0  0  0  0
  -29.6720  -16.0848   21.6385 N   0  0  0  0  0  0  0  0  0  0  0  0
  -22.0129  -30.7334   20.3994 N   0  0  0  0  0  0  0  0  0  0  0  0
  -28.3498  -31.7332   18.0959 N   0  0  0  0  0  0  0  0  0  0  0  0
  -28.5084  -22.4250   21.4298 N   0  3  2  0  0  0  0  0  0  0  0  0
  -31.3003  -32.3545   20.0899 N   0  3  0  0  0  0  0  0  0  0  0  0
  -22.3838  -14.4398   21.2262 O   0  0  0  0  0  0  0  0  0  0  0  0
  -23.4808  -29.5320   19.0486 O   0  0  0  0  0  0  0  0  0  0  0  0
  -25.6203  -32.5588   18.3732 O   0  0  0  0  0  0  0  0  0  0  0  0
  -29.6504  -30.2235   19.2818 O   0  0  0  0  0  0  0  0  0  0  0  0
  -31.5505  -15.5146   20.4024 O   0  0  0  0  0  0  0  0  0  0  0  0
  -22.0357   -6.6676   21.4779 O   0  0  0  0  0  0  0  0  0  0  0  0
  -26.5956  -26.0264   23.6869 O   0  0  0  0  0  0  0  0  0  1  0  0
  -21.1257   -5.1212   26.6918 F   0  0  0  0  0  0  0  0  0  0  0  0
  -23.1073   -4.3196   22.4685 F   0  0  0  0  0  0  0  0  0  0  0  0
  1  2  1  0  0  0  0
  1  5  2  0  0  0  0
  2  6  2  0  0  0  0
  3  8  2  0  0  0  0
  3 17  1  0  0  0  0
  4  9  1  0  0  0  0
  4 17  2  0  0  0  0
  5 19  1  0  0  0  0
  6 21  1  0  0  0  0
  7 10  2  0  0  0  0
  7 20  1  0  0  0  0
  8 27  1  0  0  0  0
  9 27  2  0  0  0  0
 10 28  1  0  0  0  0
 11 12  2  0  0  0  0
 11 29  1  0  0  0  0
 12 30  1  0  0  0  0
 13 22  1  0  0  0  0
 13 28  2  0  0  0  0
 14 23  1  0  0  0  0
 14 24  2  0  0  0  0
 15 23  2  0  0  0  0
 15 25  1  0  0  0  0
 16 30  2  0  0  0  0
 16 31  1  0  0  0  0
 17 32  1  0  0  0  0
 18 32  1  0  0  0  0
 18 33  2  0  0  0  0
 18 36  1  0  0  0  0
 19 21  2  0  0  0  0
 19 41  1  0  0  0  0
 20 22  2  0  0  0  0
 20 42  1  0  0  0  0
 21 54  1  0  0  0  0
 22 43  1  0  0  0  0
 23 66  1  0  0  0  0
 24 26  1  0  0  0  0
 24 58  1  0  0  0  0
 25 26  2  0  0  0  0
 25 59  1  0  0  0  0
 26 76  1  0  0  0  0
 27 86  1  0  0  0  0
 28 87  1  0  0  0  0
 29 31  2  0  0  0  0
 29 86  1  0  0  0  0
 30 88  1  0  0  0  0
 31 89  1  0  0  0  0
 32 70  2  0  0  0  0
 33 71  1  0  0  0  0
 33 74  1  0  0  0  0
 34 35  2  0  0  0  0
 34 44  1  0  0  0  0
 34 79  1  0  0  0  0
 35 60  1  0  0  0  0
 36 75  1  0  0  0  0
 36 81  2  0  0  0  0
 37 55  1  0  0  0  0
 37 77  1  0  0  0  0
 37 82  2  0  0  0  0
 38 67  1  0  0  0  0
 38 72  1  0  0  0  0
 38 83  2  0  0  0  0
 39 68  1  0  0  0  0
 39 78  1  0  0  0  0
 39 84  2  0  0  0  0
 40 73  1  0  0  0  0
 40 76  1  0  0  0  0
 40 85  2  0  0  0  0
 41 45  1  0  0  0  0
 42 55  1  0  0  0  0
 43 72  1  0  0  0  0
 44 57  1  0  0  0  0
 45 48  1  0  0  0  0
 46 49  1  0  0  0  0
 46 51  1  0  0  0  0
 47 50  1  0  0  0  0
 47 53  1  0  0  0  0
 48 54  1  0  0  0  0
 49 56  1  0  0  0  0
 50 57  1  0  0  0  0
 51 73  1  0  0  0  0
 52 56  1  0  0  0  0
 52 73  1  0  0  0  0
 53 79  1  0  0  0  0
 54 77  1  0  0  0  0
 55 72  1  0  0  0  0
 56 71  1  0  0  0  0
 57 87  1  0  0  0  0
 61 68  1  0  0  0  0
 62 69  1  0  0  0  0
 63 69  1  0  0  0  0
 64 69  1  0  0  0  0
 65 80  1  0  0  0  0
 66 79  1  0  0  0  0
 67 69  1  0  0  0  0
 67 78  1  0  0  0  0
 68 80  1  0  0  0  0
 70 71  1  0  0  0  0
M  CHG  2  79   1  80   1
M  ISO  4  40 100  57 101  76 100  87 101
M  END
> <Batch ID>
0038

> <Smiles>
CC=C1C[101CH:1]([101O:1]c2ccc3c(c2)CN(C(=O)C(NC(=O)C(C)NC)C(C)(C)C)C(C(=O)NC2CCCc4ccccc42)C3)CCCN1Cc1cc(C)c([100NH:0][100C:0](=O)N2CCCC(n3nc(-c4ccc(Oc5ccc(F)cc5F)cc4)c(C(N)=O)c3N)C2)c(C)c1

> <Shape>
0.315

> <Color>
0.189

> <Negative vol penalty>
0.000

$$$$

  -OEChem-04042322003D

 84 92  0     1  0  0  0  0  0999 V2000
  -18.5664   -7.8126   25.8675 C   0  0  0  0  0  0  0  0  0  0  0  0
  -19.0885   -9.0680   25.5731 C   0  0  0  0  0  0  0  0  0  0  0  0
  -23.1898   -9.8194   19.9315 C   0  0  0  0  0  0  0  0  0  0  0  0
  -23.5678   -9.9997   22.3110 C   0  0  0  0  0  0  0  0  0  0  0  0
  -18.7709   -7.2518   27.1275 C   0  0  0  0  0  0  0  0  0  0  0  0
  -19.8146   -9.7639   26.5390 C   0  0  0  0  0  0  0  0  0  0  0  0
  -24.6065  -13.4576   25.5905 C   0  0  0  0  0  0  0  0  0  0  0  0
  -32.7387  -15.0149   24.8579 C   0  0  0  0  0  0  0  0  0  0  0  0
  -22.4234   -8.6728   20.1401 C   0  0  0  0  0  0  0  0  0  0  0  0
  -22.8014   -8.8531   22.5196 C   0  0  0  0  0  0  0  0  0  0  0  0
  -24.7183  -14.8443   25.4992 C   0  0  0  0  0  0  0  0  0  0  0  0
  -21.2435   -5.7693   23.6481 C   0  0  0  0  0  0  0  0  0  0  0  0
  -21.7397   -4.8095   24.5301 C   0  0  0  0  0  0  0  0  0  0  0  0
  -32.7715  -16.3692   25.1898 C   0  0  0  0  0  0  0  0  0  0  0  0
  -25.3358  -14.9419   27.8291 C   0  0  0  0  0  0  0  0  0  0  0  0
  -30.4370  -15.2417   24.1597 C   0  0  0  0  0  0  0  0  0  0  0  0
  -23.6985   -4.5453   23.1407 C   0  0  0  0  0  0  0  0  0  0  0  0
  -23.7621  -10.4828   21.0170 C   0  0  0  0  0  0  0  0  0  0  0  0
  -24.1010  -12.9995   20.7733 C   0  0  0  0  0  0  0  0  0  0  0  0
  -19.5080   -7.9370   28.1061 C   0  0  0  0  0  0  0  0  0  0  0  0
  -24.8483  -12.8026   26.8066 C   0  0  0  0  0  0  0  0  0  0  0  0
  -20.0280   -9.2123   27.8137 C   0  0  0  0  0  0  0  0  0  0  0  0
  -25.2289  -13.5466   27.9325 C   0  0  0  0  0  0  0  0  0  0  0  0
  -31.5714  -14.4511   24.3428 C   0  0  0  0  0  0  0  0  0  0  0  0
  -30.4698  -16.5961   24.4916 C   0  0  0  0  0  0  0  0  0  0  0  0
  -22.2292   -8.1897   21.4341 C   0  0  0  0  0  0  0  0  0  0  0  0
  -25.0802  -15.5870   26.6193 C   0  0  0  0  0  0  0  0  0  0  0  0
  -21.9748   -6.1172   22.5123 C   0  0  0  0  0  0  0  0  0  0  0  0
  -22.9672   -4.1975   24.2765 C   0  0  0  0  0  0  0  0  0  0  0  0
  -23.2023   -5.5052   22.2587 C   0  0  0  0  0  0  0  0  0  0  0  0
  -31.6371  -17.1599   25.0067 C   0  0  0  0  0  0  0  0  0  0  0  0
  -24.5543  -11.6670   20.8021 C   0  0  0  0  0  0  0  0  0  0  0  0
  -25.2323  -13.7420   20.5382 C   0  0  0  0  0  0  0  0  0  0  0  0
  -22.7758  -13.5195   20.9440 C   0  0  0  0  0  0  0  0  0  0  0  0
  -23.1093  -11.0113   28.7740 C   0  0  0  0  0  0  0  0  0  0  0  0
  -25.9423  -10.6358   30.3089 C   0  0  0  0  0  0  0  0  0  0  0  0
  -29.0652  -11.8462   30.9640 C   0  0  0  0  0  0  0  0  0  0  0  0
  -31.0469  -12.7516   21.5682 C   0  0  0  0  0  0  0  0  0  0  0  0
  -19.6625   -7.3108   29.4695 C   0  0  0  0  0  0  0  0  0  0  0  0
  -24.7495  -11.3036   26.8818 C   0  0  0  0  0  0  0  0  0  0  0  0
  -25.5191  -12.8893   29.2563 C   0  0  0  0  0  0  0  0  0  0  0  0
  -20.7621   -7.9512   30.3128 C   0  0  0  0  0  0  0  0  0  0  0  0
  -29.5199  -13.4692   18.4329 C   0  0  0  0  0  0  0  0  0  0  0  0
  -20.6584   -9.4721   30.2593 C   0  0  0  0  0  0  0  0  0  0  0  0
  -28.0333  -13.2089   18.6820 C   0  0  0  0  0  0  0  0  0  0  0  0
  -30.4011  -12.4797   19.1922 C   0  0  0  0  0  0  0  0  0  0  0  0
  -28.6473  -12.1370   20.8894 C   0  0  0  0  0  0  0  0  0  0  0  0
  -20.8422   -9.9875   28.8268 C   0  0  1  0  0  0  0  0  0  0  0  0
  -24.5179  -10.7905   28.2997 C   0  0  1  0  0  0  0  0  0  0  0  0
  -27.7200  -13.1449   20.1890 C   0  0  2  0  0  0  0  0  0  0  0  0
  -31.1374  -11.3388   32.2852 C   0  0  0  0  0  0  0  0  0  0  0  0
  -24.5424  -11.5638   32.8563 C   0  0  0  0  0  0  0  0  0  0  0  0
  -26.7980  -11.9466   33.8732 C   0  0  0  0  0  0  0  0  0  0  0  0
  -26.1215   -9.6503   33.1716 C   0  0  0  0  0  0  0  0  0  0  0  0
  -30.7206  -11.6649   28.5175 C   0  0  0  0  0  0  0  0  0  0  0  0
  -31.5367  -13.0027   23.9882 C   0  0  0  0  0  0  0  0  0  0  0  0
  -29.2289  -17.4122   24.2788 C   0  0  0  0  0  0  0  0  0  0  0  0
  -26.6456  -18.8375   26.7194 C   0  0  0  0  0  0  0  0  0  0  0  0
  -27.3166  -18.5845   25.3778 C   0  0  0  0  0  0  0  0  0  0  0  0
  -26.1333  -17.5724   27.3969 C   0  0  0  0  0  0  0  0  0  1  0  0
  -26.6700  -11.3747   31.4059 C   0  0  1  0  0  0  0  0  0  0  0  0
  -30.4280  -11.1778   30.9497 C   0  0  2  0  0  0  0  0  0  0  0  0
  -26.0257  -11.1467   32.8024 C   0  0  0  0  0  0  0  0  0  0  0  0
  -25.8709  -11.5658   20.6011 N   0  0  0  0  0  0  0  0  0  0  0  0
  -26.2546  -12.8442   20.4438 N   0  0  0  0  0  0  0  0  0  0  0  0
  -25.4027  -11.4219   29.2809 N   0  0  0  0  0  0  0  0  0  0  0  0
  -30.0543  -12.4686   20.6154 N   0  0  0  0  0  0  0  0  0  0  0  0
  -25.4423  -15.0689   20.4051 N   0  0  0  0  0  0  0  0  0  0  0  0
  -21.7290  -12.6173   21.1779 N   0  0  0  0  0  0  0  0  0  0  0  0
  -22.2429   -9.9807   28.4630 N   0  0  0  0  0  0  0  0  0  0  0  0
  -28.0670  -10.9633   31.3180 N   0  0  0  0  0  0  0  0  0  0  0  0
  -30.6324  -12.7262   22.8942 N   0  0  0  0  0  0  0  0  0  0  0  0
  -31.2861  -11.7737   29.8869 N   0  3  0  0  0  0  0  0  0  0  0  0
  -28.5125  -17.7260   25.5460 N   0  3  0  0  0  0  0  0  0  0  0  0
  -22.5247  -14.7465   20.8743 O   0  0  0  0  0  0  0  0  0  0  0  0
  -22.8297  -12.0398   29.3787 O   0  0  0  0  0  0  0  0  0  0  0  0
  -25.8619   -9.4059   30.3584 O   0  0  0  0  0  0  0  0  0  0  0  0
  -28.9029  -13.0338   30.6922 O   0  0  0  0  0  0  0  0  0  0  0  0
  -32.2145  -13.0132   21.2597 O   0  0  0  0  0  0  0  0  0  0  0  0
  -21.4812   -7.0710   21.6381 O   0  0  0  0  0  0  0  0  0  0  0  0
  -25.1894  -16.9407   26.5331 O   0  0  0  0  0  0  0  0  0  1  0  0
  -23.4443   -3.2768   25.1244 F   0  0  0  0  0  0  0  0  0  0  0  0
  -23.9099   -5.8362   21.1698 F   0  0  0  0  0  0  0  0  0  0  0  0
  -31.7145  -18.8318   25.4283 Cl  0  0  0  0  0  0  0  0  0  0  0  0
  1  2  1  0  0  0  0
  1  5  2  0  0  0  0
  2  6  2  0  0  0  0
  3  9  2  0  0  0  0
  3 18  1  0  0  0  0
  4 10  1  0  0  0  0
  4 18  2  0  0  0  0
  5 20  1  0  0  0  0
  6 22  1  0  0  0  0
  7 11  2  0  0  0  0
  7 21  1  0  0  0  0
  8 14  2  0  0  0  0
  8 24  1  0  0  0  0
  9 26  1  0  0  0  0
 10 26  2  0  0  0  0
 11 27  1  0  0  0  0
 12 13  2  0  0  0  0
 12 28  1  0  0  0  0
 13 29  1  0  0  0  0
 14 31  1  0  0  0  0
 15 23  1  0  0  0  0
 15 27  2  0  0  0  0
 16 24  2  0  0  0  0
 16 25  1  0  0  0  0
 17 29  2  0  0  0  0
 17 30  1  0  0  0  0
 18 32  1  0  0  0  0
 19 32  1  0  0  0  0
 19 33  2  0  0  0  0
 19 34  1  0  0  0  0
 20 22  2  0  0  0  0
 20 39  1  0  0  0  0
 21 23  2  0  0  0  0
 21 40  1  0  0  0  0
 22 48  1  0  0  0  0
 23 41  1  0  0  0  0
 24 56  1  0  0  0  0
 25 31  2  0  0  0  0
 25 57  1  0  0  0  0
 26 80  1  0  0  0  0
 27 81  1  0  0  0  0
 28 30  2  0  0  0  0
 28 80  1  0  0  0  0
 29 82  1  0  0  0  0
 30 83  1  0  0  0  0
 31 84  1  0  0  0  0
 32 64  2  0  0  0  0
 33 65  1  0  0  0  0
 33 68  1  0  0  0  0
 34 69  1  0  0  0  0
 34 75  2  0  0  0  0
 35 49  1  0  0  0  0
 35 70  1  0  0  0  0
 35 76  2  0  0  0  0
 36 61  1  0  0  0  0
 36 66  1  0  0  0  0
 36 77  2  0  0  0  0
 37 62  1  0  0  0  0
 37 71  1  0  0  0  0
 37 78  2  0  0  0  0
 38 67  1  0  0  0  0
 38 72  1  0  0  0  0
 38 79  2  0  0  0  0
 39 42  1  0  0  0  0
 40 49  1  0  0  0  0
 41 66  1  0  0  0  0
 42 44  1  0  0  0  0
 43 45  1  0  0  0  0
 43 46  1  0  0  0  0
 44 48  1  0  0  0  0
 45 50  1  0  0  0  0
 46 67  1  0  0  0  0
 47 50  1  0  0  0  0
 47 67  1  0  0  0  0
 48 70  1  0  0  0  0
 49 66  1  0  0  0  0
 50 65  1  0  0  0  0
 51 62  1  0  0  0  0
 52 63  1  0  0  0  0
 53 63  1  0  0  0  0
 54 63  1  0  0  0  0
 55 73  1  0  0  0  0
 56 72  1  0  0  0  0
 57 74  1  0  0  0  0
 58 59  1  0  0  0  0
 58 60  1  0  0  0  0
 59 74  1  0  0  0  0
 60 81  1  0  0  0  0
 61 63  1  0  0  0  0
 61 71  1  0  0  0  0
 62 73  1  0  0  0  0
 64 65  1  0  0  0  0
M  CHG  2  73   1  74   1
M  ISO  4  38 100  60 101  72 100  81 101
M  END
> <Batch ID>
0038

> <Smiles>
CNC(C)C(=O)NC(C(=O)N1Cc2cc([101O:1][101CH2:1]CCNCc3cc(C[100NH:0][100C:0](=O)N4CCCC(n5nc(-c6ccc(Oc7ccc(F)cc7F)cc6)c(C(N)=O)c5N)C4)ccc3Cl)ccc2CC1C(=O)NC1CCCc2ccccc21)C(C)(C)C

> <Shape>
0.142

> <Color>
0.182

> <Negative vol penalty>
0.000

$$$$

  -OEChem-04042322003D

 84 92  0     1  0  0  0  0  0999 V2000
  -27.3634  -22.8873   18.8166 C   0  0  0  0  0  0  0  0  0  0  0  0
  -26.1742  -23.4327   19.2897 C   0  0  0  0  0  0  0  0  0  0  0  0
  -26.1748  -14.7185   20.8832 C   0  0  0  0  0  0  0  0  0  0  0  0
  -24.0307  -14.3895   19.8194 C   0  0  0  0  0  0  0  0  0  0  0  0
  -28.5810  -23.2971   19.3585 C   0  0  0  0  0  0  0  0  0  0  0  0
  -26.2018  -24.3874   20.3056 C   0  0  0  0  0  0  0  0  0  0  0  0
  -23.1241  -28.3006   19.3784 C   0  0  0  0  0  0  0  0  0  0  0  0
  -26.3717  -13.3379   20.9134 C   0  0  0  0  0  0  0  0  0  0  0  0
  -24.2276  -13.0089   19.8495 C   0  0  0  0  0  0  0  0  0  0  0  0
  -21.7623  -28.1076   19.6066 C   0  0  0  0  0  0  0  0  0  0  0  0
  -24.0047   -9.3833   19.9718 C   0  0  0  0  0  0  0  0  0  0  0  0
  -22.9375   -8.5850   20.3832 C   0  0  0  0  0  0  0  0  0  0  0  0
  -21.9625  -29.2438   21.7252 C   0  0  0  0  0  0  0  0  0  0  0  0
  -17.9469  -22.3994   19.3841 C   0  0  0  0  0  0  0  0  0  0  0  0
  -17.7847  -22.7059   22.1522 C   0  0  0  0  0  0  0  0  0  0  0  0
  -22.9225   -9.7075   22.5226 C   0  0  0  0  0  0  0  0  0  0  0  0
  -25.0042  -15.2443   20.3363 C   0  0  0  0  0  0  0  0  0  0  0  0
  -25.1720  -17.5603   19.2801 C   0  0  0  0  0  0  0  0  0  0  0  0
  -28.6242  -24.2644   20.3749 C   0  0  0  0  0  0  0  0  0  0  0  0
  -23.9188  -28.9581   20.3284 C   0  0  0  0  0  0  0  0  0  0  0  0
  -27.4210  -24.8095   20.8625 C   0  0  0  0  0  0  0  0  0  0  0  0
  -23.3336  -29.4461   21.5054 C   0  0  0  0  0  0  0  0  0  0  0  0
  -18.1428  -21.3002   20.2202 C   0  0  0  0  0  0  0  0  0  0  0  0
  -17.6700  -23.6519   19.9321 C   0  0  0  0  0  0  0  0  0  0  0  0
  -18.0617  -21.4534   21.6042 C   0  0  0  0  0  0  0  0  0  0  0  0
  -17.5888  -23.8051   21.3161 C   0  0  0  0  0  0  0  0  0  0  0  0
  -25.3981  -12.4831   20.3965 C   0  0  0  0  0  0  0  0  0  0  0  0
  -21.1819  -28.5767   20.7814 C   0  0  0  0  0  0  0  0  0  0  0  0
  -24.5310  -10.3437   20.8358 C   0  0  0  0  0  0  0  0  0  0  0  0
  -22.3963   -8.7471   21.6586 C   0  0  0  0  0  0  0  0  0  0  0  0
  -23.9898  -10.5058   22.1111 C   0  0  0  0  0  0  0  0  0  0  0  0
  -24.8000  -16.6702   20.3054 C   0  0  0  0  0  0  0  0  0  0  0  0
  -24.7599  -18.7915   19.7279 C   0  0  0  0  0  0  0  0  0  0  0  0
  -25.8310  -17.2975   18.0341 C   0  0  0  0  0  0  0  0  0  0  0  0
  -26.4296  -28.1467   22.1007 C   0  0  0  0  0  0  0  0  0  0  0  0
  -26.3747  -31.2851   22.9191 C   0  0  0  0  0  0  0  0  0  0  0  0
  -24.5734  -34.1670   23.2301 C   0  0  0  0  0  0  0  0  0  0  0  0
  -20.5041  -20.5181   23.5696 C   0  0  0  0  0  0  0  0  0  0  0  0
  -29.9612  -24.6411   20.9622 C   0  0  0  0  0  0  0  0  0  0  0  0
  -25.3809  -29.1819   20.0551 C   0  0  0  0  0  0  0  0  0  0  0  0
  -24.1390  -30.1764   22.5478 C   0  0  0  0  0  0  0  0  0  0  0  0
  -29.9270  -25.9319   21.7764 C   0  0  0  0  0  0  0  0  0  0  0  0
  -23.9849  -21.2409   23.7641 C   0  0  0  0  0  0  0  0  0  0  0  0
  -28.7314  -25.9340   22.7237 C   0  0  0  0  0  0  0  0  0  0  0  0
  -24.6221  -20.2318   22.8073 C   0  0  0  0  0  0  0  0  0  0  0  0
  -22.7938  -20.6399   24.5070 C   0  0  0  0  0  0  0  0  0  0  0  0
  -22.4001  -19.0292   22.6837 C   0  0  0  0  0  0  0  0  0  0  0  0
  -27.4114  -25.8657   21.9463 C   0  0  1  0  0  0  0  0  0  0  0  0
  -26.1975  -29.4113   21.3232 C   0  0  1  0  0  0  0  0  0  0  0  0
  -23.5711  -19.6066   21.8703 C   0  0  2  0  0  0  0  0  0  0  0  0
  -18.4375  -19.9689   19.6107 C   0  0  0  0  0  0  0  0  0  0  0  0
  -17.4648  -24.8143   19.0172 C   0  0  0  0  0  0  0  0  0  0  0  0
  -24.7923  -36.5577   23.9609 C   0  0  0  0  0  0  0  0  0  0  0  0
  -26.3307  -30.3946   25.8371 C   0  0  0  0  0  0  0  0  0  0  0  0
  -25.6005  -32.7072   26.4593 C   0  0  0  0  0  0  0  0  0  0  0  0
  -27.8144  -32.3519   25.3660 C   0  0  0  0  0  0  0  0  0  0  0  0
  -23.8642  -35.1757   20.5396 C   0  0  0  0  0  0  0  0  0  0  0  0
  -18.2671  -20.2909   22.5191 C   0  0  0  0  0  0  0  0  0  0  0  0
  -17.2929  -25.1425   21.9284 C   0  0  0  0  0  0  0  0  0  0  0  0
  -18.1747  -27.4242   22.4334 C   0  0  0  0  0  0  0  0  0  0  0  0
  -19.4366  -28.2615   22.3659 C   0  0  0  0  0  0  0  0  0  1  0  0
  -25.7023  -32.0965   24.0001 C   0  0  1  0  0  0  0  0  0  0  0  0
  -24.8658  -35.5901   22.7899 C   0  0  2  0  0  0  0  0  0  0  0  0
  -26.3469  -31.8721   25.3971 C   0  0  0  0  0  0  0  0  0  0  0  0
  -24.1981  -17.2839   21.3277 N   0  0  0  0  0  0  0  0  0  0  0  0
  -24.1887  -18.5728   20.9470 N   0  0  0  0  0  0  0  0  0  0  0  0
  -25.5658  -30.3648   22.2375 N   0  0  0  0  0  0  0  0  0  0  0  0
  -21.8338  -20.0655   23.5613 N   0  0  0  0  0  0  0  0  0  0  0  0
  -24.8341  -20.0292   19.1940 N   0  0  0  0  0  0  0  0  0  0  0  0
  -26.1849  -15.9756   17.7313 N   0  0  0  0  0  0  0  0  0  0  0  0
  -27.0856  -27.1608   21.3886 N   0  0  0  0  0  0  0  0  0  0  0  0
  -25.7280  -33.4826   23.5457 N   0  0  0  0  0  0  0  0  0  0  0  0
  -19.6613  -19.9261   22.6369 N   0  0  0  0  0  0  0  0  0  0  0  0
  -23.8827  -36.0255   21.7580 N   0  3  0  0  0  0  0  0  0  0  0  0
  -18.4543  -26.0717   21.8886 N   0  3  0  0  0  0  0  0  0  0  0  0
  -26.1128  -18.2102   17.2210 O   0  0  0  0  0  0  0  0  0  0  0  0
  -26.0436  -28.0716   23.2613 O   0  0  0  0  0  0  0  0  0  0  0  0
  -27.5718  -31.4664   22.6831 O   0  0  0  0  0  0  0  0  0  0  0  0
  -23.4343  -33.7095   23.2915 O   0  0  0  0  0  0  0  0  0  0  0  0
  -20.0993  -21.3894   24.3467 O   0  0  0  0  0  0  0  0  0  0  0  0
  -25.5900  -11.1360   20.4255 O   0  0  0  0  0  0  0  0  0  0  0  0
  -19.8531  -28.3891   21.0070 O   0  0  0  0  0  0  0  0  0  1  0  0
  -21.3705   -7.9815   22.0530 F   0  0  0  0  0  0  0  0  0  0  0  0
  -24.4904  -11.4276   22.9451 F   0  0  0  0  0  0  0  0  0  0  0  0
  1  2  1  0  0  0  0
  1  5  2  0  0  0  0
  2  6  2  0  0  0  0
  3  8  2  0  0  0  0
  3 17  1  0  0  0  0
  4  9  1  0  0  0  0
  4 17  2  0  0  0  0
  5 19  1  0  0  0  0
  6 21  1  0  0  0  0
  7 10  2  0  0  0  0
  7 20  1  0  0  0  0
  8 27  1  0  0  0  0
  9 27  2  0  0  0  0
 10 28  1  0  0  0  0
 11 12  2  0  0  0  0
 11 29  1  0  0  0  0
 12 30  1  0  0  0  0
 13 22  1  0  0  0  0
 13 28  2  0  0  0  0
 14 23  2  0  0  0  0
 14 24  1  0  0  0  0
 15 25  2  0  0  0  0
 15 26  1  0  0  0  0
 16 30  2  0  0  0  0
 16 31  1  0  0  0  0
 17 32  1  0  0  0  0
 18 32  1  0  0  0  0
 18 33  2  0  0  0  0
 18 34  1  0  0  0  0
 19 21  2  0  0  0  0
 19 39  1  0  0  0  0
 20 22  2  0  0  0  0
 20 40  1  0  0  0  0
 21 48  1  0  0  0  0
 22 41  1  0  0  0  0
 23 25  1  0  0  0  0
 23 51  1  0  0  0  0
 24 26  2  0  0  0  0
 24 52  1  0  0  0  0
 25 58  1  0  0  0  0
 26 59  1  0  0  0  0
 27 81  1  0  0  0  0
 28 82  1  0  0  0  0
 29 31  2  0  0  0  0
 29 81  1  0  0  0  0
 30 83  1  0  0  0  0
 31 84  1  0  0  0  0
 32 65  2  0  0  0  0
 33 66  1  0  0  0  0
 33 69  1  0  0  0  0
 34 70  1  0  0  0  0
 34 76  2  0  0  0  0
 35 49  1  0  0  0  0
 35 71  1  0  0  0  0
 35 77  2  0  0  0  0
 36 62  1  0  0  0  0
 36 67  1  0  0  0  0
 36 78  2  0  0  0  0
 37 63  1  0  0  0  0
 37 72  1  0  0  0  0
 37 79  2  0  0  0  0
 38 68  1  0  0  0  0
 38 73  1  0  0  0  0
 38 80  2  0  0  0  0
 39 42  1  0  0  0  0
 40 49  1  0  0  0  0
 41 67  1  0  0  0  0
 42 44  1  0  0  0  0
 43 45  1  0  0  0  0
 43 46  1  0  0  0  0
 44 48  1  0  0  0  0
 45 50  1  0  0  0  0
 46 68  1  0  0  0  0
 47 50  1  0  0  0  0
 47 68  1  0  0  0  0
 48 71  1  0  0  0  0
 49 67  1  0  0  0  0
 50 66  1  0  0  0  0
 53 63  1  0  0  0  0
 54 64  1  0  0  0  0
 55 64  1  0  0  0  0
 56 64  1  0  0  0  0
 57 74  1  0  0  0  0
 58 73  1  0  0  0  0
 59 75  1  0  0  0  0
 60 61  1  0  0  0  0
 60 75  1  0  0  0  0
 61 82  1  0  0  0  0
 62 64  1  0  0  0  0
 62 72  1  0  0  0  0
 63 74  1  0  0  0  0
 65 66  1  0  0  0  0
M  CHG  2  74   1  75   1
M  ISO  4  38 100  61 101  73 100  82 101
M  END
> <Batch ID>
0038

> <Smiles>
CNC(C)C(=O)NC(C(=O)N1Cc2cc([101O:1][101CH2:1]CNCc3cc(C[100NH:0][100C:0](=O)N4CCCC(n5nc(-c6ccc(Oc7ccc(F)cc7F)cc6)c(C(N)=O)c5N)C4)c(C)cc3C)ccc2CC1C(=O)NC1CCCc2ccccc21)C(C)(C)C

> <Shape>
0.237

> <Color>
0.071

> <Negative vol penalty>
0.000

$$$$

  -OEChem-04042322003D

 85 93  0     1  0  0  0  0  0999 V2000
  -19.5582  -33.8316   21.7219 C   0  0  0  0  0  0  0  0  0  0  0  0
  -20.8272  -33.4419   21.3060 C   0  0  0  0  0  0  0  0  0  0  0  0
  -22.2359  -10.3262   21.4553 C   0  0  0  0  0  0  0  0  0  0  0  0
  -24.5598   -9.8227   21.0276 C   0  0  0  0  0  0  0  0  0  0  0  0
  -18.8974  -33.1067   22.7128 C   0  0  0  0  0  0  0  0  0  0  0  0
  -21.4367  -32.3275   21.8815 C   0  0  0  0  0  0  0  0  0  0  0  0
  -25.1418  -28.3157   19.1096 C   0  0  0  0  0  0  0  0  0  0  0  0
  -21.9493   -8.9620   21.5044 C   0  0  0  0  0  0  0  0  0  0  0  0
  -24.2733   -8.4584   21.0768 C   0  0  0  0  0  0  0  0  0  0  0  0
  -26.5301  -28.1943   19.0687 C   0  0  0  0  0  0  0  0  0  0  0  0
  -22.2732   -6.4269   23.7183 C   0  0  0  0  0  0  0  0  0  0  0  0
  -21.4593   -5.9725   24.7559 C   0  0  0  0  0  0  0  0  0  0  0  0
  -26.4366  -26.5890   20.8669 C   0  0  0  0  0  0  0  0  0  0  0  0
  -29.9601  -20.0543   18.3700 C   0  0  0  0  0  0  0  0  0  0  0  0
  -19.8577   -5.1557   23.1420 C   0  0  0  0  0  0  0  0  0  0  0  0
  -23.5411  -10.7565   21.2168 C   0  0  0  0  0  0  0  0  0  0  0  0
  -24.2150  -12.9947   22.2386 C   0  0  0  0  0  0  0  0  0  0  0  0
  -19.4951  -31.9772   23.2939 C   0  0  0  0  0  0  0  0  0  0  0  0
  -24.3902  -27.5817   20.0383 C   0  0  0  0  0  0  0  0  0  0  0  0
  -20.7839  -31.5876   22.8820 C   0  0  0  0  0  0  0  0  0  0  0  0
  -25.0387  -26.7010   20.9158 C   0  0  0  0  0  0  0  0  0  0  0  0
  -29.7971  -20.8199   19.5245 C   0  0  0  0  0  0  0  0  0  0  0  0
  -28.7551  -20.5368   20.4076 C   0  0  0  0  0  0  0  0  0  0  0  0
  -27.8761  -19.4883   20.1361 C   0  0  0  0  0  0  0  0  0  0  0  0
  -28.0392  -18.7228   18.9815 C   0  0  0  0  0  0  0  0  0  0  0  0
  -22.9680   -8.0281   21.3153 C   0  0  0  0  0  0  0  0  0  0  0  0
  -27.1780  -27.3330   19.9493 C   0  0  0  0  0  0  0  0  0  0  0  0
  -21.8793   -6.2458   22.3925 C   0  0  0  0  0  0  0  0  0  0  0  0
  -20.2516   -5.3369   24.4678 C   0  0  0  0  0  0  0  0  0  0  0  0
  -20.6715   -5.6102   22.1043 C   0  0  0  0  0  0  0  0  0  0  0  0
  -29.0812  -19.0058   18.0984 C   0  0  0  0  0  0  0  0  0  0  0  0
  -23.8377  -12.1656   21.1653 C   0  0  0  0  0  0  0  0  0  0  0  0
  -24.3805  -14.2352   21.6726 C   0  0  0  0  0  0  0  0  0  0  0  0
  -24.3995  -12.6724   23.6235 C   0  0  0  0  0  0  0  0  0  0  0  0
  -22.4679  -28.3262   22.4579 C   0  0  0  0  0  0  0  0  0  0  0  0
  -21.9418  -25.1258   22.5146 C   0  0  0  0  0  0  0  0  0  0  0  0
  -23.0629  -21.9916   21.7618 C   0  0  0  0  0  0  0  0  0  0  0  0
  -26.3063  -17.5165   17.6073 C   0  0  0  0  0  0  0  0  0  0  0  0
  -18.7615  -31.2533   24.3950 C   0  0  0  0  0  0  0  0  0  0  0  0
  -22.8911  -27.7039   20.0517 C   0  0  0  0  0  0  0  0  0  0  0  0
  -24.2759  -25.8754   21.9182 C   0  0  0  0  0  0  0  0  0  0  0  0
  -19.3214  -29.8638   24.6887 C   0  0  0  0  0  0  0  0  0  0  0  0
  -23.1576  -15.9443   17.0677 C   0  0  0  0  0  0  0  0  0  0  0  0
  -20.8428  -29.9113   24.7878 C   0  0  0  0  0  0  0  0  0  0  0  0
  -23.0849  -14.8893   18.1740 C   0  0  0  0  0  0  0  0  0  0  0  0
  -24.5768  -16.0989   16.5238 C   0  0  0  0  0  0  0  0  0  0  0  0
  -25.5345  -15.2936   18.6459 C   0  0  0  0  0  0  0  0  0  0  0  0
  -21.4678  -30.3699   23.4647 C   0  0  1  0  0  0  0  0  0  0  0  0
  -22.2701  -27.2944   21.3837 C   0  0  1  0  0  0  0  0  0  0  0  0
  -24.1370  -15.1486   19.2701 C   0  0  2  0  0  0  0  0  0  0  0  0
  -28.5824  -21.3603   21.6448 C   0  0  0  0  0  0  0  0  0  0  0  0
  -26.7598  -19.1898   21.0883 C   0  0  0  0  0  0  0  0  0  0  0  0
  -22.4303  -19.5717   21.9645 C   0  0  0  0  0  0  0  0  0  0  0  0
  -22.6807  -25.1832   25.4745 C   0  0  0  0  0  0  0  0  0  0  0  0
  -22.9576  -22.6966   25.3820 C   0  0  0  0  0  0  0  0  0  0  0  0
  -20.7314  -23.7202   24.9141 C   0  0  0  0  0  0  0  0  0  0  0  0
  -23.0575  -21.6271   18.8248 C   0  0  0  0  0  0  0  0  0  0  0  0
  -30.7568  -21.9413   19.7930 C   0  0  0  0  0  0  0  0  0  0  0  0
  -30.3934  -25.7448   19.5423 C   0  0  0  0  0  0  0  0  0  0  0  0
  -31.0716  -24.4185   19.8509 C   0  0  0  0  0  0  0  0  0  0  0  0
  -29.0843  -25.9535   20.2938 C   0  0  0  0  0  0  0  0  0  1  0  0
  -22.5838  -23.9490   23.2088 C   0  0  1  0  0  0  0  0  0  0  0  0
  -22.3829  -20.8135   21.0879 C   0  0  2  0  0  0  0  0  0  0  0  0
  -22.2532  -23.9041   24.7273 C   0  0  0  0  0  0  0  0  0  0  0  0
  -23.7673  -12.8239   20.0053 N   0  0  0  0  0  0  0  0  0  0  0  0
  -24.1027  -14.0798   20.3464 N   0  0  0  0  0  0  0  0  0  0  0  0
  -22.8124  -26.0346   21.8966 N   0  0  0  0  0  0  0  0  0  0  0  0
  -25.5180  -16.3464   17.6182 N   0  0  0  0  0  0  0  0  0  0  0  0
  -24.7350  -15.4327   22.1850 N   0  0  0  0  0  0  0  0  0  0  0  0
  -24.1880  -11.3496   24.0355 N   0  0  0  0  0  0  0  0  0  0  0  0
  -27.1402  -17.6603   18.7157 N   0  0  0  0  0  0  0  0  0  0  0  0
  -21.4746  -29.2856   22.5063 N   0  0  0  0  0  0  0  0  0  0  0  0
  -22.1656  -22.7620   22.4708 N   0  0  0  0  0  0  0  0  0  0  0  0
  -23.0516  -20.5006   19.7933 N   0  3  0  0  0  0  0  0  0  0  0  0
  -30.1704  -23.2856   19.5350 N   0  3  0  0  0  0  0  0  0  0  0  0
  -24.7259  -13.5353   24.4733 O   0  0  0  0  0  0  0  0  0  0  0  0
  -23.4484  -28.2562   23.1897 O   0  0  0  0  0  0  0  0  0  0  0  0
  -20.7127  -25.2310   22.5145 O   0  0  0  0  0  0  0  0  0  0  0  0
  -24.2699  -22.2050   21.6715 O   0  0  0  0  0  0  0  0  0  0  0  0
  -26.2263  -18.3444   16.6962 O   0  0  0  0  0  0  0  0  0  0  0  0
  -22.6888   -6.6968   21.3634 O   0  0  0  0  0  0  0  0  0  0  0  0
  -28.5330  -27.2131   19.9119 O   0  0  0  0  0  0  0  0  0  1  0  0
  -19.4708   -4.8992   25.4643 F   0  0  0  0  0  0  0  0  0  0  0  0
  -20.2884   -5.4323   20.8326 F   0  0  0  0  0  0  0  0  0  0  0  0
  -29.3223  -18.0848   16.6559 Cl  0  0  0  0  0  0  0  0  0  0  0  0
  1  2  1  0  0  0  0
  1  5  2  0  0  0  0
  2  6  2  0  0  0  0
  3  8  2  0  0  0  0
  3 16  1  0  0  0  0
  4  9  1  0  0  0  0
  4 16  2  0  0  0  0
  5 18  1  0  0  0  0
  6 20  1  0  0  0  0
  7 10  2  0  0  0  0
  7 19  1  0  0  0  0
  8 26  1  0  0  0  0
  9 26  2  0  0  0  0
 10 27  1  0  0  0  0
 11 12  2  0  0  0  0
 11 28  1  0  0  0  0
 12 29  1  0  0  0  0
 13 21  1  0  0  0  0
 13 27  2  0  0  0  0
 14 22  1  0  0  0  0
 14 31  2  0  0  0  0
 15 29  2  0  0  0  0
 15 30  1  0  0  0  0
 16 32  1  0  0  0  0
 17 32  1  0  0  0  0
 17 33  2  0  0  0  0
 17 34  1  0  0  0  0
 18 20  2  0  0  0  0
 18 39  1  0  0  0  0
 19 21  2  0  0  0  0
 19 40  1  0  0  0  0
 20 48  1  0  0  0  0
 21 41  1  0  0  0  0
 22 23  2  0  0  0  0
 22 58  1  0  0  0  0
 23 24  1  0  0  0  0
 23 51  1  0  0  0  0
 24 25  2  0  0  0  0
 24 52  1  0  0  0  0
 25 31  1  0  0  0  0
 25 71  1  0  0  0  0
 26 81  1  0  0  0  0
 27 82  1  0  0  0  0
 28 30  2  0  0  0  0
 28 81  1  0  0  0  0
 29 83  1  0  0  0  0
 30 84  1  0  0  0  0
 31 85  1  0  0  0  0
 32 65  2  0  0  0  0
 33 66  1  0  0  0  0
 33 69  1  0  0  0  0
 34 70  1  0  0  0  0
 34 76  2  0  0  0  0
 35 49  1  0  0  0  0
 35 72  1  0  0  0  0
 35 77  2  0  0  0  0
 36 62  1  0  0  0  0
 36 67  1  0  0  0  0
 36 78  2  0  0  0  0
 37 63  1  0  0  0  0
 37 73  1  0  0  0  0
 37 79  2  0  0  0  0
 38 68  1  0  0  0  0
 38 71  1  0  0  0  0
 38 80  2  0  0  0  0
 39 42  1  0  0  0  0
 40 49  1  0  0  0  0
 41 67  1  0  0  0  0
 42 44  1  0  0  0  0
 43 45  1  0  0  0  0
 43 46  1  0  0  0  0
 44 48  1  0  0  0  0
 45 50  1  0  0  0  0
 46 68  1  0  0  0  0
 47 50  1  0  0  0  0
 47 68  1  0  0  0  0
 48 72  1  0  0  0  0
 49 67  1  0  0  0  0
 50 66  1  0  0  0  0
 53 63  1  0  0  0  0
 54 64  1  0  0  0  0
 55 64  1  0  0  0  0
 56 64  1  0  0  0  0
 57 74  1  0  0  0  0
 58 75  1  0  0  0  0
 59 60  1  0  0  0  0
 59 61  1  0  0  0  0
 60 75  1  0  0  0  0
 61 82  1  0  0  0  0
 62 64  1  0  0  0  0
 62 73  1  0  0  0  0
 63 74  1  0  0  0  0
 65 66  1  0  0  0  0
M  CHG  2  74   1  75   1
M  ISO  4  38 100  61 101  71 100  82 101
M  END
> <Batch ID>
0038

> <Smiles>
CNC(C)C(=O)NC(C(=O)N1Cc2cc([101O:1][101CH2:1]CCNCc3cc(Cl)c([100NH:0][100C:0](=O)N4CCCC(n5nc(-c6ccc(Oc7ccc(F)cc7F)cc6)c(C(N)=O)c5N)C4)c(C)c3C)ccc2CC1C(=O)NC1CCCc2ccccc21)C(C)(C)C

> <Shape>
0.219

> <Color>
0.097

> <Negative vol penalty>
0.000

$$$$

  -OEChem-04042322003D

 87 96  0     1  0  0  0  0  0999 V2000
  -16.4351  -29.2812   23.9001 C   0  0  0  0  0  0  0  0  0  0  0  0
  -17.1931  -28.4658   23.0657 C   0  0  0  0  0  0  0  0  0  0  0  0
  -22.9671   -9.8860   21.4535 C   0  0  0  0  0  0  0  0  0  0  0  0
  -24.2698  -10.5463   23.3781 C   0  0  0  0  0  0  0  0  0  0  0  0
  -17.0488  -30.3116   24.6110 C   0  0  0  0  0  0  0  0  0  0  0  0
  -18.5651  -28.6812   22.9410 C   0  0  0  0  0  0  0  0  0  0  0  0
  -22.9013  -24.4308   22.1423 C   0  0  0  0  0  0  0  0  0  0  0  0
  -22.2569   -8.9827   22.2442 C   0  0  0  0  0  0  0  0  0  0  0  0
  -23.5596   -9.6430   24.1688 C   0  0  0  0  0  0  0  0  0  0  0  0
  -23.5681  -23.9730   21.0068 C   0  0  0  0  0  0  0  0  0  0  0  0
  -22.7331   -5.8978   23.5409 C   0  0  0  0  0  0  0  0  0  0  0  0
  -22.5194   -4.6181   23.0288 C   0  0  0  0  0  0  0  0  0  0  0  0
  -25.3902  -25.4828   21.4755 C   0  0  0  0  0  0  0  0  0  0  0  0
  -30.8330  -20.1290   20.9049 C   0  0  0  0  0  0  0  0  0  0  0  0
  -31.4100  -17.7989   20.6311 C   0  0  0  0  0  0  0  0  0  0  0  0
  -20.1319   -4.9616   23.1671 C   0  0  0  0  0  0  0  0  0  0  0  0
  -23.9737  -10.6678   22.0205 C   0  0  0  0  0  0  0  0  0  0  0  0
  -24.1872  -12.6893   20.4791 C   0  0  0  0  0  0  0  0  0  0  0  0
  -18.4307  -30.5336   24.5024 C   0  0  0  0  0  0  0  0  0  0  0  0
  -23.4699  -25.4275   22.9483 C   0  0  0  0  0  0  0  0  0  0  0  0
  -19.1976  -29.7165   23.6502 C   0  0  0  0  0  0  0  0  0  0  0  0
  -24.7297  -25.9497   22.6222 C   0  0  0  0  0  0  0  0  0  0  0  0
  -29.4986  -19.8310   20.6287 C   0  0  0  0  0  0  0  0  0  0  0  0
  -29.1200  -18.5170   20.3537 C   0  0  0  0  0  0  0  0  0  0  0  0
  -30.0756  -17.5009   20.3549 C   0  0  0  0  0  0  0  0  0  0  0  0
  -22.5531   -8.8612   23.6018 C   0  0  0  0  0  0  0  0  0  0  0  0
  -24.8115  -24.5011   20.6716 C   0  0  0  0  0  0  0  0  0  0  0  0
  -21.6463   -6.7094   23.8661 C   0  0  0  0  0  0  0  0  0  0  0  0
  -21.2188   -4.1500   22.8419 C   0  0  0  0  0  0  0  0  0  0  0  0
  -20.3457   -6.2413   23.6792 C   0  0  0  0  0  0  0  0  0  0  0  0
  -31.7887  -19.1129   20.9061 C   0  0  0  0  0  0  0  0  0  0  0  0
  -24.7081  -11.6007   21.2041 C   0  0  0  0  0  0  0  0  0  0  0  0
  -25.2833  -13.2561   19.8760 C   0  0  0  0  0  0  0  0  0  0  0  0
  -26.7800  -22.0273   19.2945 C   0  0  0  0  0  0  0  0  0  0  0  0
  -25.7103  -21.3225   18.8904 C   0  0  0  0  0  0  0  0  0  0  0  0
  -22.8337  -13.1472   20.3614 C   0  0  0  0  0  0  0  0  0  0  0  0
  -22.6392  -28.3787   23.7876 C   0  0  0  0  0  0  0  0  0  0  0  0
  -25.2400  -28.1453   25.7120 C   0  0  0  0  0  0  0  0  0  0  0  0
  -28.5970  -26.8479   25.4566 C   0  0  0  0  0  0  0  0  0  0  0  0
  -30.5528  -15.0470   20.0433 C   0  0  0  0  0  0  0  0  0  0  0  0
  -19.0414  -31.6897   25.2541 C   0  0  0  0  0  0  0  0  0  0  0  0
  -22.7499  -25.8915   24.1847 C   0  0  0  0  0  0  0  0  0  0  0  0
  -25.3925  -27.0069   23.4657 C   0  0  0  0  0  0  0  0  0  0  0  0
  -20.5628  -31.6148   25.3552 C   0  0  0  0  0  0  0  0  0  0  0  0
  -30.0382  -11.5764   19.4376 C   0  0  0  0  0  0  0  0  0  0  0  0
  -29.1545  -23.6114   19.0262 C   0  0  0  0  0  0  0  0  0  0  0  0
  -21.1718  -31.2743   23.9988 C   0  0  0  0  0  0  0  0  0  0  0  0
  -27.7891  -24.2895   19.0059 C   0  0  0  0  0  0  0  0  0  0  0  0
  -28.5627  -11.3629   19.7835 C   0  0  0  0  0  0  0  0  0  0  0  0
  -30.6991  -12.5882   20.3720 C   0  0  0  0  0  0  0  0  0  0  0  0
  -28.5302  -13.6646   20.8266 C   0  0  0  0  0  0  0  0  0  0  0  0
  -29.0744  -22.1819   18.5006 C   0  0  0  0  0  0  0  0  0  0  0  0
  -20.6926  -29.9029   23.5076 C   0  0  1  0  0  0  0  0  0  0  0  0
  -26.7453  -23.4661   19.7589 C   0  0  1  0  0  0  0  0  0  1  0  0
  -23.1899  -27.2768   24.6480 C   0  0  1  0  0  0  0  0  0  0  0  0
  -27.8051  -12.7022   19.8719 C   0  0  2  0  0  0  0  0  0  0  0  0
  -27.6871  -18.2020   20.0580 C   0  0  0  0  0  0  0  0  0  0  0  0
  -30.1465  -25.9718   27.2254 C   0  0  0  0  0  0  0  0  0  0  0  0
  -26.3191  -30.9988   25.7707 C   0  0  0  0  0  0  0  0  0  0  0  0
  -28.6166  -30.0497   26.0687 C   0  0  0  0  0  0  0  0  0  0  0  0
  -26.8643  -29.6355   27.7952 C   0  0  0  0  0  0  0  0  0  0  0  0
  -28.9554  -24.2777   24.0336 C   0  0  0  0  0  0  0  0  0  0  0  0
  -28.4907  -20.9423   20.6337 C   0  0  0  0  0  0  0  0  0  0  0  0
  -26.7102  -28.4550   25.5648 C   0  0  1  0  0  0  0  0  0  0  0  0
  -29.1465  -25.6082   26.1389 C   0  0  2  0  0  0  0  0  0  0  0  0
  -27.1116  -29.7773   26.2775 C   0  0  0  0  0  0  0  0  0  0  0  0
  -26.0320  -11.4811   21.0746 N   0  0  0  0  0  0  0  0  0  0  0  0
  -26.3524  -12.5017   20.2611 N   0  0  0  0  0  0  0  0  0  0  0  0
  -24.6459  -27.4324   24.6611 N   0  0  0  0  0  0  0  0  0  0  0  0
  -29.9287  -13.8334   20.4018 N   0  0  0  0  0  0  0  0  0  0  0  0
  -25.4274  -14.3211   19.0590 N   0  0  0  0  0  0  0  0  0  0  0  0
  -22.3646  -14.0903   21.2860 N   0  0  0  0  0  0  0  0  0  0  0  0
  -29.7128  -16.1595   20.0778 N   0  0  0  0  0  0  0  0  0  0  0  0
  -21.4028  -28.8442   24.1926 N   0  0  0  0  0  0  0  0  0  0  0  0
  -27.4255  -27.2771   26.0437 N   0  0  0  0  0  0  0  0  0  0  0  0
  -28.0591  -21.3527   19.2527 N   0  3  1  0  0  0  0  0  0  0  0  0
  -29.8290  -24.7303   25.1467 N   0  3  0  0  0  0  0  0  0  0  0  0
  -22.0579  -12.7201   19.4730 O   0  0  0  0  0  0  0  0  0  0  0  0
  -23.2887  -28.7780   22.8282 O   0  0  0  0  0  0  0  0  0  0  0  0
  -24.6426  -28.5158   26.7256 O   0  0  0  0  0  0  0  0  0  0  0  0
  -29.1534  -27.3842   24.5009 O   0  0  0  0  0  0  0  0  0  0  0  0
  -31.7377  -15.0916   19.7027 O   0  0  0  0  0  0  0  0  0  0  0  0
  -21.8601   -7.9800   24.3737 O   0  0  0  0  0  0  0  0  0  0  0  0
  -25.4642  -24.0565   19.5634 O   0  0  0  0  0  0  0  0  0  1  0  0
  -21.0137   -2.9217   22.3487 F   0  0  0  0  0  0  0  0  0  0  0  0
  -19.2975   -7.0168   23.9887 F   0  0  0  0  0  0  0  0  0  0  0  0
  -33.4351  -19.4810   21.2458 Cl  0  0  0  0  0  0  0  0  0  0  0  0
  1  2  1  0  0  0  0
  1  5  2  0  0  0  0
  2  6  2  0  0  0  0
  3  8  2  0  0  0  0
  3 17  1  0  0  0  0
  4  9  1  0  0  0  0
  4 17  2  0  0  0  0
  5 19  1  0  0  0  0
  6 21  1  0  0  0  0
  7 10  2  0  0  0  0
  7 20  1  0  0  0  0
  8 26  1  0  0  0  0
  9 26  2  0  0  0  0
 10 27  1  0  0  0  0
 11 12  2  0  0  0  0
 11 28  1  0  0  0  0
 12 29  1  0  0  0  0
 13 22  1  0  0  0  0
 13 27  2  0  0  0  0
 14 23  1  0  0  0  0
 14 31  2  0  0  0  0
 15 25  2  0  0  0  0
 15 31  1  0  0  0  0
 16 29  2  0  0  0  0
 16 30  1  0  0  0  0
 17 32  1  0  0  0  0
 18 32  1  0  0  0  0
 18 33  2  0  0  0  0
 18 36  1  0  0  0  0
 19 21  2  0  0  0  0
 19 41  1  0  0  0  0
 20 22  2  0  0  0  0
 20 42  1  0  0  0  0
 21 53  1  0  0  0  0
 22 43  1  0  0  0  0
 23 24  2  0  0  0  0
 23 63  1  0  0  0  0
 24 25  1  0  0  0  0
 24 57  1  0  0  0  0
 25 73  1  0  0  0  0
 26 83  1  0  0  0  0
 27 84  1  0  0  0  0
 28 30  2  0  0  0  0
 28 83  1  0  0  0  0
 29 85  1  0  0  0  0
 30 86  1  0  0  0  0
 31 87  1  0  0  0  0
 32 67  2  0  0  0  0
 33 68  1  0  0  0  0
 33 71  1  0  0  0  0
 34 35  2  0  0  0  0
 34 54  1  0  0  0  0
 34 76  1  0  0  0  0
 36 72  1  0  0  0  0
 36 78  2  0  0  0  0
 37 55  1  0  0  0  0
 37 74  1  0  0  0  0
 37 79  2  0  0  0  0
 38 64  1  0  0  0  0
 38 69  1  0  0  0  0
 38 80  2  0  0  0  0
 39 65  1  0  0  0  0
 39 75  1  0  0  0  0
 39 81  2  0  0  0  0
 40 70  1  0  0  0  0
 40 73  1  0  0  0  0
 40 82  2  0  0  0  0
 41 44  1  0  0  0  0
 42 55  1  0  0  0  0
 43 69  1  0  0  0  0
 44 47  1  0  0  0  0
 45 49  1  0  0  0  0
 45 50  1  0  0  0  0
 46 48  1  0  0  0  0
 46 52  1  0  0  0  0
 47 53  1  0  0  0  0
 48 54  1  0  0  0  0
 49 56  1  0  0  0  0
 50 70  1  0  0  0  0
 51 56  1  0  0  0  0
 51 70  1  0  0  0  0
 52 76  1  0  0  0  0
 53 74  1  0  0  0  0
 54 84  1  0  0  0  0
 55 69  1  0  0  0  0
 56 68  1  0  0  0  0
 58 65  1  0  0  0  0
 59 66  1  0  0  0  0
 60 66  1  0  0  0  0
 61 66  1  0  0  0  0
 62 77  1  0  0  0  0
 63 76  1  0  0  0  0
 64 66  1  0  0  0  0
 64 75  1  0  0  0  0
 65 77  1  0  0  0  0
 67 68  1  0  0  0  0
M  CHG  2  76   1  77   1
M  ISO  4  40 100  54 101  73 100  84 101
M  END
> <Batch ID>
0038

> <Smiles>
C=C1N(Cc2cc(Cl)cc([100NH:0][100C:0](=O)N3CCCC(n4nc(-c5ccc(Oc6ccc(F)cc6F)cc5)c(C(N)=O)c4N)C3)c2C)CCC[101CH:1]1[101O:1]c1ccc2c(c1)CN(C(=O)C(NC(=O)C(C)NC)C(C)(C)C)C(C(=O)NC1CCCc3ccccc31)C2

> <Shape>
0.261

> <Color>
0.118

> <Negative vol penalty>
0.000

$$$$

  -OEChem-04042322003D

 90 99  0     1  0  0  0  0  0999 V2000
  -30.2916  -33.5629   15.5599 C   0  0  0  0  0  0  0  0  0  0  0  0
  -30.9648  -32.4034   15.9312 C   0  0  0  0  0  0  0  0  0  0  0  0
  -22.6680  -10.1985   20.1631 C   0  0  0  0  0  0  0  0  0  0  0  0
  -24.3236   -9.4064   21.7343 C   0  0  0  0  0  0  0  0  0  0  0  0
  -28.8999  -33.6116   15.6276 C   0  0  0  0  0  0  0  0  0  0  0  0
  -30.2466  -31.2922   16.3715 C   0  0  0  0  0  0  0  0  0  0  0  0
  -31.6378  -25.4021   15.4356 C   0  0  0  0  0  0  0  0  0  0  0  0
  -31.6608  -19.1788   23.1616 C   0  0  0  0  0  0  0  0  0  0  0  0
  -31.3176  -18.1282   24.0125 C   0  0  0  0  0  0  0  0  0  0  0  0
  -21.9328   -9.0275   20.3475 C   0  0  0  0  0  0  0  0  0  0  0  0
  -23.5884   -8.2355   21.9187 C   0  0  0  0  0  0  0  0  0  0  0  0
  -32.2683  -24.4489   16.2341 C   0  0  0  0  0  0  0  0  0  0  0  0
  -20.8443   -7.2637   23.6351 C   0  0  0  0  0  0  0  0  0  0  0  0
  -20.6623   -6.8137   24.9427 C   0  0  0  0  0  0  0  0  0  0  0  0
  -30.1143  -23.6371   16.9554 C   0  0  0  0  0  0  0  0  0  0  0  0
  -21.7824   -4.7463   24.3871 C   0  0  0  0  0  0  0  0  0  0  0  0
  -23.8634  -10.3879   20.8565 C   0  0  0  0  0  0  0  0  0  0  0  0
  -24.1995  -12.9160   20.9154 C   0  0  0  0  0  0  0  0  0  0  0  0
  -28.1637  -32.4972   16.0598 C   0  0  0  0  0  0  0  0  0  0  0  0
  -30.2386  -25.4872   15.3993 C   0  0  0  0  0  0  0  0  0  0  0  0
  -28.8437  -31.3265   16.4464 C   0  0  0  0  0  0  0  0  0  0  0  0
  -29.4684  -24.5906   16.1537 C   0  0  0  0  0  0  0  0  0  0  0  0
  -31.4940  -19.0430   21.7834 C   0  0  0  0  0  0  0  0  0  0  0  0
  -30.8077  -16.9418   23.4852 C   0  0  0  0  0  0  0  0  0  0  0  0
  -30.9842  -17.8566   21.2561 C   0  0  0  0  0  0  0  0  0  0  0  0
  -30.6410  -16.8060   22.1070 C   0  0  0  0  0  0  0  0  0  0  0  0
  -22.3930   -8.0461   21.2253 C   0  0  0  0  0  0  0  0  0  0  0  0
  -31.5066  -23.5681   16.9964 C   0  0  0  0  0  0  0  0  0  0  0  0
  -21.4952   -6.4550   22.7034 C   0  0  0  0  0  0  0  0  0  0  0  0
  -21.1314   -5.5550   25.3188 C   0  0  0  0  0  0  0  0  0  0  0  0
  -21.9643   -5.1963   23.0794 C   0  0  0  0  0  0  0  0  0  0  0  0
  -24.6236  -11.5970   20.6660 C   0  0  0  0  0  0  0  0  0  0  0  0
  -25.2799  -13.6938   20.5773 C   0  0  0  0  0  0  0  0  0  0  0  0
  -33.6010  -21.7128   20.1583 C   0  0  0  0  0  0  0  0  0  0  0  0
  -33.4583  -22.9171   20.7425 C   0  0  0  0  0  0  0  0  0  0  0  0
  -22.9415  -13.3953   21.4086 C   0  0  0  0  0  0  0  0  0  0  0  0
  -28.1064  -27.7168   16.1652 C   0  0  0  0  0  0  0  0  0  0  0  0
  -26.0123  -25.6061   14.8682 C   0  0  0  0  0  0  0  0  0  0  0  0
  -25.2947  -22.3739   14.0408 C   0  0  0  0  0  0  0  0  0  0  0  0
  -30.7480  -14.7399   20.6695 C   0  0  0  0  0  0  0  0  0  0  0  0
  -26.6634  -32.6133   16.1613 C   0  0  0  0  0  0  0  0  0  0  0  0
  -29.5734  -26.5036   14.5123 C   0  0  0  0  0  0  0  0  0  0  0  0
  -27.9629  -24.6273   16.1342 C   0  0  0  0  0  0  0  0  0  0  0  0
  -25.9551  -31.2664   16.2824 C   0  0  0  0  0  0  0  0  0  0  0  0
  -36.1493  -20.1244   19.2374 C   0  0  0  0  0  0  0  0  0  0  0  0
  -29.5664  -12.5062   18.1612 C   0  0  0  0  0  0  0  0  0  0  0  0
  -35.7090  -19.7882   20.6630 C   0  0  0  0  0  0  0  0  0  0  0  0
  -26.6512  -30.3883   17.3174 C   0  0  0  0  0  0  0  0  0  0  0  0
  -35.5719  -21.4119   18.6466 C   0  0  0  0  0  0  0  0  0  0  0  0
  -28.1402  -12.1790   18.6098 C   0  0  0  0  0  0  0  0  0  0  0  0
  -30.5163  -12.6474   19.3493 C   0  0  0  0  0  0  0  0  0  0  0  0
  -28.6502  -13.2611   20.8360 C   0  0  0  0  0  0  0  0  0  0  0  0
  -34.2374  -19.3919   20.7568 C   0  0  0  0  0  0  0  0  0  0  0  0
  -28.0984  -30.0922   16.9057 C   0  0  1  0  0  0  0  0  0  0  0  0
  -34.0390  -21.5169   18.7167 C   0  0  2  0  0  0  0  0  0  0  0  0
  -28.1498  -26.8366   14.9482 C   0  0  1  0  0  0  0  0  0  0  0  0
  -27.6433  -13.1732   19.6775 C   0  0  2  0  0  0  0  0  0  0  0  0
  -30.4498  -15.8340   24.4226 C   0  0  0  0  0  0  0  0  0  0  0  0
  -30.8092  -17.7174   19.7760 C   0  0  0  0  0  0  0  0  0  0  0  0
  -33.0293  -23.1050   22.1539 C   0  0  0  0  0  0  0  0  0  0  0  0
  -23.4906  -20.9539   13.0280 C   0  0  0  0  0  0  0  0  0  0  0  0
  -24.4183  -25.7843   17.4638 C   0  0  0  0  0  0  0  0  0  0  0  0
  -23.2144  -23.6963   16.7862 C   0  0  0  0  0  0  0  0  0  0  0  0
  -23.0275  -25.7521   15.3856 C   0  0  0  0  0  0  0  0  0  0  0  0
  -27.0553  -21.5153   11.8222 C   0  0  0  0  0  0  0  0  0  0  0  0
  -31.8715  -20.1887   20.8913 C   0  0  0  0  0  0  0  0  0  0  0  0
  -33.5464  -22.6190   17.7675 C   0  0  0  0  0  0  0  0  0  1  0  0
  -25.1951  -24.4508   15.3939 C   0  0  1  0  0  0  0  0  0  0  0  0
  -24.7542  -21.7574   12.7632 C   0  0  2  0  0  0  0  0  0  0  0  0
  -23.9922  -24.9212   16.2595 C   0  0  0  0  0  0  0  0  0  0  0  0
  -25.8757  -11.5365   20.2049 N   0  0  0  0  0  0  0  0  0  0  0  0
  -26.2476  -12.8272   20.1617 N   0  0  0  0  0  0  0  0  0  0  0  0
  -27.3592  -25.6432   15.2560 N   0  0  0  0  0  0  0  0  0  0  0  0
  -29.9825  -13.6082   20.3172 N   0  0  0  0  0  0  0  0  0  0  0  0
  -25.4870  -15.0276   20.5977 N   0  0  0  0  0  0  0  0  0  0  0  0
  -22.7764  -13.5357   22.7933 N   0  0  0  0  0  0  0  0  0  0  0  0
  -30.1242  -15.5994   21.5733 N   0  0  0  0  0  0  0  0  0  0  0  0
  -28.1336  -29.0692   15.8827 N   0  0  0  0  0  0  0  0  0  0  0  0
  -24.8192  -23.6542   14.2310 N   0  0  0  0  0  0  0  0  0  0  0  0
  -33.3259  -20.5704   21.0033 N   0  3  2  0  0  0  0  0  0  0  0  0
  -25.7692  -20.8507   12.1559 N   0  3  0  0  0  0  0  0  0  0  0  0
  -21.9863  -13.6747   20.6451 O   0  0  0  0  0  0  0  0  0  0  0  0
  -28.0508  -27.2068   17.2780 O   0  0  0  0  0  0  0  0  0  0  0  0
  -25.4772  -26.4410   14.1345 O   0  0  0  0  0  0  0  0  0  0  0  0
  -26.0591  -21.7780   14.7965 O   0  0  0  0  0  0  0  0  0  0  0  0
  -31.8627  -14.9465   20.1829 O   0  0  0  0  0  0  0  0  0  0  0  0
  -21.6757   -6.9035   21.4057 O   0  0  0  0  0  0  0  0  0  0  0  0
  -32.1195  -22.6371   17.7772 O   0  0  0  0  0  0  0  0  0  1  0  0
  -20.9580   -5.1236   26.5749 F   0  0  0  0  0  0  0  0  0  0  0  0
  -22.5914   -4.4154   22.1891 F   0  0  0  0  0  0  0  0  0  0  0  0
  1  2  1  0  0  0  0
  1  5  2  0  0  0  0
  2  6  2  0  0  0  0
  3 10  2  0  0  0  0
  3 17  1  0  0  0  0
  4 11  1  0  0  0  0
  4 17  2  0  0  0  0
  5 19  1  0  0  0  0
  6 21  1  0  0  0  0
  7 12  2  0  0  0  0
  7 20  1  0  0  0  0
  8  9  2  0  0  0  0
  8 23  1  0  0  0  0
  9 24  1  0  0  0  0
 10 27  1  0  0  0  0
 11 27  2  0  0  0  0
 12 28  1  0  0  0  0
 13 14  2  0  0  0  0
 13 29  1  0  0  0  0
 14 30  1  0  0  0  0
 15 22  1  0  0  0  0
 15 28  2  0  0  0  0
 16 30  2  0  0  0  0
 16 31  1  0  0  0  0
 17 32  1  0  0  0  0
 18 32  1  0  0  0  0
 18 33  2  0  0  0  0
 18 36  1  0  0  0  0
 19 21  2  0  0  0  0
 19 41  1  0  0  0  0
 20 22  2  0  0  0  0
 20 42  1  0  0  0  0
 21 54  1  0  0  0  0
 22 43  1  0  0  0  0
 23 25  2  0  0  0  0
 23 66  1  0  0  0  0
 24 26  2  0  0  0  0
 24 58  1  0  0  0  0
 25 26  1  0  0  0  0
 25 59  1  0  0  0  0
 26 77  1  0  0  0  0
 27 87  1  0  0  0  0
 28 88  1  0  0  0  0
 29 31  2  0  0  0  0
 29 87  1  0  0  0  0
 30 89  1  0  0  0  0
 31 90  1  0  0  0  0
 32 71  2  0  0  0  0
 33 72  1  0  0  0  0
 33 75  1  0  0  0  0
 34 35  2  0  0  0  0
 34 55  1  0  0  0  0
 34 80  1  0  0  0  0
 35 60  1  0  0  0  0
 36 76  1  0  0  0  0
 36 82  2  0  0  0  0
 37 56  1  0  0  0  0
 37 78  1  0  0  0  0
 37 83  2  0  0  0  0
 38 68  1  0  0  0  0
 38 73  1  0  0  0  0
 38 84  2  0  0  0  0
 39 69  1  0  0  0  0
 39 79  1  0  0  0  0
 39 85  2  0  0  0  0
 40 74  1  0  0  0  0
 40 77  1  0  0  0  0
 40 86  2  0  0  0  0
 41 44  1  0  0  0  0
 42 56  1  0  0  0  0
 43 73  1  0  0  0  0
 44 48  1  0  0  0  0
 45 47  1  0  0  0  0
 45 49  1  0  0  0  0
 46 50  1  0  0  0  0
 46 51  1  0  0  0  0
 47 53  1  0  0  0  0
 48 54  1  0  0  0  0
 49 55  1  0  0  0  0
 50 57  1  0  0  0  0
 51 74  1  0  0  0  0
 52 57  1  0  0  0  0
 52 74  1  0  0  0  0
 53 80  1  0  0  0  0
 54 78  1  0  0  0  0
 55 67  1  0  0  0  0
 56 73  1  0  0  0  0
 57 72  1  0  0  0  0
 61 69  1  0  0  0  0
 62 70  1  0  0  0  0
 63 70  1  0  0  0  0
 64 70  1  0  0  0  0
 65 81  1  0  0  0  0
 66 80  1  0  0  0  0
 67 88  1  0  0  0  0
 68 70  1  0  0  0  0
 68 79  1  0  0  0  0
 69 81  1  0  0  0  0
 71 72  1  0  0  0  0
M  CHG  2  80   1  81   1
M  ISO  4  40 100  67 101  77 100  88 101
M  END
> <Batch ID>
0038

> <Smiles>
CC=C1C([101CH2:1][101O:1]c2ccc3c(c2)CN(C(=O)C(NC(=O)C(C)NC)C(C)(C)C)C(C(=O)NC2CCCc4ccccc42)C3)CCCCN1Cc1ccc(C)c([100NH:0][100C:0](=O)N2CCCC(n3nc(-c4ccc(Oc5ccc(F)cc5F)cc4)c(C(N)=O)c3N)C2)c1C

> <Shape>
0.205

> <Color>
0.172

> <Negative vol penalty>
0.000

$$$$

  -OEChem-04042322003D

 89 98  0     1  0  0  0  0  0999 V2000
  -32.2206  -13.9342   20.6948 C   0  0  0  0  0  0  0  0  0  0  0  0
  -31.4910  -15.1076   20.8569 C   0  0  0  0  0  0  0  0  0  0  0  0
  -26.5173  -24.8229   18.0264 C   0  0  0  0  0  0  0  0  0  0  0  0
  -28.2606  -26.2894   18.8310 C   0  0  0  0  0  0  0  0  0  0  0  0
  -31.5843  -12.7744   20.2543 C   0  0  0  0  0  0  0  0  0  0  0  0
  -30.1250  -15.1222   20.5775 C   0  0  0  0  0  0  0  0  0  0  0  0
  -25.8093  -18.3611   23.4743 C   0  0  0  0  0  0  0  0  0  0  0  0
  -27.3759  -23.7312   18.1559 C   0  0  0  0  0  0  0  0  0  0  0  0
  -29.1192  -25.1978   18.9605 C   0  0  0  0  0  0  0  0  0  0  0  0
  -25.1827  -19.5694   23.1726 C   0  0  0  0  0  0  0  0  0  0  0  0
  -28.5217  -21.7444   20.6404 C   0  0  0  0  0  0  0  0  0  0  0  0
  -28.0143  -20.5871   21.2311 C   0  0  0  0  0  0  0  0  0  0  0  0
  -23.3488  -18.3620   22.1735 C   0  0  0  0  0  0  0  0  0  0  0  0
  -18.0528  -26.5036   21.5414 C   0  0  0  0  0  0  0  0  0  0  0  0
  -28.4850  -19.3492   19.2105 C   0  0  0  0  0  0  0  0  0  0  0  0
  -26.9597  -26.1020   18.3639 C   0  0  0  0  0  0  0  0  0  0  0  0
  -25.4540  -27.6892   17.0519 C   0  0  0  0  0  0  0  0  0  0  0  0
  -30.2079  -12.7723   19.9786 C   0  0  0  0  0  0  0  0  0  0  0  0
  -25.2146  -17.1423   23.1174 C   0  0  0  0  0  0  0  0  0  0  0  0
  -29.4700  -13.9617   20.1317 C   0  0  0  0  0  0  0  0  0  0  0  0
  -23.9688  -17.1395   22.4740 C   0  0  0  0  0  0  0  0  0  0  0  0
  -18.6490  -27.7087   21.9127 C   0  0  0  0  0  0  0  0  0  0  0  0
  -18.5247  -25.3008   22.0672 C   0  0  0  0  0  0  0  0  0  0  0  0
  -19.7171  -27.7111   22.8098 C   0  0  0  0  0  0  0  0  0  0  0  0
  -19.5929  -25.3032   22.9642 C   0  0  0  0  0  0  0  0  0  0  0  0
  -28.6768  -23.9186   18.6230 C   0  0  0  0  0  0  0  0  0  0  0  0
  -23.9536  -19.5701   22.5196 C   0  0  0  0  0  0  0  0  0  0  0  0
  -29.0107  -21.7040   19.3346 C   0  0  0  0  0  0  0  0  0  0  0  0
  -27.9960  -19.3896   20.5162 C   0  0  0  0  0  0  0  0  0  0  0  0
  -28.9924  -20.5065   18.6197 C   0  0  0  0  0  0  0  0  0  0  0  0
  -20.1891  -26.5083   23.3356 C   0  0  0  0  0  0  0  0  0  0  0  0
  -26.0734  -27.2301   18.2298 C   0  0  0  0  0  0  0  0  0  0  0  0
  -24.7199  -28.7789   17.4523 C   0  0  0  0  0  0  0  0  0  0  0  0
  -21.8881  -23.4124   22.0081 C   0  0  0  0  0  0  0  0  0  0  0  0
  -22.0022  -24.0203   20.8176 C   0  0  0  0  0  0  0  0  0  0  0  0
  -25.5349  -27.1766   15.7154 C   0  0  0  0  0  0  0  0  0  0  0  0
  -26.0222  -14.7225   21.2211 C   0  0  0  0  0  0  0  0  0  0  0  0
  -23.3531  -13.3647   22.4678 C   0  0  0  0  0  0  0  0  0  0  0  0
  -20.0042  -14.4194   23.2983 C   0  0  0  0  0  0  0  0  0  0  0  0
  -22.3510  -30.3906   22.7099 C   0  0  0  0  0  0  0  0  0  0  0  0
  -29.5734  -11.5064   19.4596 C   0  0  0  0  0  0  0  0  0  0  0  0
  -25.8908  -15.8469   23.4738 C   0  0  0  0  0  0  0  0  0  0  0  0
  -23.2787  -15.8577   22.0876 C   0  0  0  0  0  0  0  0  0  0  0  0
  -23.0750  -23.0636   22.8687 C   0  0  0  0  0  0  0  0  0  0  0  0
  -28.0492  -11.5099   19.5441 C   0  0  0  0  0  0  0  0  0  0  0  0
  -24.6633  -32.2513   20.7432 C   0  0  0  0  0  0  0  0  0  0  0  0
  -27.4886  -12.8283   19.0202 C   0  0  0  0  0  0  0  0  0  0  0  0
  -25.2310  -31.2169   19.7698 C   0  0  0  0  0  0  0  0  0  0  0  0
  -21.6252  -21.2313   23.8386 C   0  0  0  0  0  0  0  0  0  0  0  0
  -24.4034  -31.6466   22.1212 C   0  0  0  0  0  0  0  0  0  0  0  0
  -24.1298  -29.4008   21.1438 C   0  0  0  0  0  0  0  0  0  0  0  0
  -20.5209  -21.5928   22.8463 C   0  0  0  0  0  0  0  0  0  0  0  0
  -27.9816  -14.0110   19.8626 C   0  0  1  0  0  0  0  0  0  0  0  0
  -25.4380  -14.6777   22.6047 C   0  0  1  0  0  0  0  0  0  0  0  0
  -24.3559  -29.9498   19.7247 C   0  0  2  0  0  0  0  0  0  0  0  0
  -23.0134  -21.6036   23.3181 C   0  0  1  0  0  0  0  0  0  1  0  0
  -18.1229  -28.9815   21.3340 C   0  0  0  0  0  0  0  0  0  0  0  0
  -17.8671  -24.0254   21.6518 C   0  0  0  0  0  0  0  0  0  0  0  0
  -18.3896  -13.5322   25.0023 C   0  0  0  0  0  0  0  0  0  0  0  0
  -22.2801  -11.6899   20.1539 C   0  0  0  0  0  0  0  0  0  0  0  0
  -19.9709  -12.0626   21.0466 C   0  0  0  0  0  0  0  0  0  0  0  0
  -21.6587  -10.8496   22.4260 C   0  0  0  0  0  0  0  0  0  0  0  0
  -19.6906  -17.0797   24.5567 C   0  0  0  0  0  0  0  0  0  0  0  0
  -20.3420  -29.0165   23.1944 C   0  0  0  0  0  0  0  0  0  0  0  0
  -20.0840  -23.9978   23.5172 C   0  0  0  0  0  0  0  0  0  0  0  0
  -21.8900  -13.3456   22.0963 C   0  0  1  0  0  0  0  0  0  0  0  0
  -19.4272  -14.5995   24.6909 C   0  0  2  0  0  0  0  0  0  0  0  0
  -21.4666  -12.0090   21.4241 C   0  0  0  0  0  0  0  0  0  0  0  0
  -25.7603  -27.9678   19.2983 N   0  0  0  0  0  0  0  0  0  0  0  0
  -24.9361  -28.9016   18.7934 N   0  0  0  0  0  0  0  0  0  0  0  0
  -23.9829  -14.6173   22.4520 N   0  0  0  0  0  0  0  0  0  0  0  0
  -23.5666  -30.4495   22.0085 N   0  0  0  0  0  0  0  0  0  0  0  0
  -23.9171  -29.6344   16.7846 N   0  0  0  0  0  0  0  0  0  0  0  0
  -26.5382  -27.6698   14.8702 N   0  0  0  0  0  0  0  0  0  0  0  0
  -27.2444  -14.0882   21.1056 N   0  0  0  0  0  0  0  0  0  0  0  0
  -21.1548  -13.6599   23.3166 N   0  0  0  0  0  0  0  0  0  0  0  0
  -21.6162  -29.2232   22.5429 N   0  0  0  0  0  0  0  0  0  0  0  0
  -20.5650  -23.0508   22.4528 N   0  3  1  0  0  0  0  0  0  0  0  0
  -18.7786  -15.9356   24.8140 N   0  3  0  0  0  0  0  0  0  0  0  0
  -24.7307  -26.3188   15.2783 O   0  0  0  0  0  0  0  0  0  0  0  0
  -25.4088  -15.2893   20.3243 O   0  0  0  0  0  0  0  0  0  0  0  0
  -23.9146  -12.3082   22.7681 O   0  0  0  0  0  0  0  0  0  0  0  0
  -19.4840  -14.9010   22.2944 O   0  0  0  0  0  0  0  0  0  0  0  0
  -21.9478  -31.3124   23.4273 O   0  0  0  0  0  0  0  0  0  0  0  0
  -29.5147  -22.8536   18.7498 O   0  0  0  0  0  0  0  0  0  0  0  0
  -23.3401  -20.7481   22.2234 O   0  0  0  0  0  0  0  0  0  1  0  0
  -27.5102  -18.2780   21.0842 F   0  0  0  0  0  0  0  0  0  0  0  0
  -29.4618  -20.4613   17.3653 F   0  0  0  0  0  0  0  0  0  0  0  0
  -21.5162  -26.5113   24.4501 Cl  0  0  0  0  0  0  0  0  0  0  0  0
  1  2  1  0  0  0  0
  1  5  2  0  0  0  0
  2  6  2  0  0  0  0
  3  8  2  0  0  0  0
  3 16  1  0  0  0  0
  4  9  1  0  0  0  0
  4 16  2  0  0  0  0
  5 18  1  0  0  0  0
  6 20  1  0  0  0  0
  7 10  2  0  0  0  0
  7 19  1  0  0  0  0
  8 26  1  0  0  0  0
  9 26  2  0  0  0  0
 10 27  1  0  0  0  0
 11 12  2  0  0  0  0
 11 28  1  0  0  0  0
 12 29  1  0  0  0  0
 13 21  1  0  0  0  0
 13 27  2  0  0  0  0
 14 22  1  0  0  0  0
 14 23  2  0  0  0  0
 15 29  2  0  0  0  0
 15 30  1  0  0  0  0
 16 32  1  0  0  0  0
 17 32  1  0  0  0  0
 17 33  2  0  0  0  0
 17 36  1  0  0  0  0
 18 20  2  0  0  0  0
 18 41  1  0  0  0  0
 19 21  2  0  0  0  0
 19 42  1  0  0  0  0
 20 53  1  0  0  0  0
 21 43  1  0  0  0  0
 22 24  2  0  0  0  0
 22 57  1  0  0  0  0
 23 25  1  0  0  0  0
 23 58  1  0  0  0  0
 24 31  1  0  0  0  0
 24 64  1  0  0  0  0
 25 31  2  0  0  0  0
 25 65  1  0  0  0  0
 26 85  1  0  0  0  0
 27 86  1  0  0  0  0
 28 30  2  0  0  0  0
 28 85  1  0  0  0  0
 29 87  1  0  0  0  0
 30 88  1  0  0  0  0
 31 89  1  0  0  0  0
 32 69  2  0  0  0  0
 33 70  1  0  0  0  0
 33 73  1  0  0  0  0
 34 35  2  0  0  0  0
 34 44  1  0  0  0  0
 34 78  1  0  0  0  0
 36 74  1  0  0  0  0
 36 80  2  0  0  0  0
 37 54  1  0  0  0  0
 37 75  1  0  0  0  0
 37 81  2  0  0  0  0
 38 66  1  0  0  0  0
 38 71  1  0  0  0  0
 38 82  2  0  0  0  0
 39 67  1  0  0  0  0
 39 76  1  0  0  0  0
 39 83  2  0  0  0  0
 40 72  1  0  0  0  0
 40 77  1  0  0  0  0
 40 84  2  0  0  0  0
 41 45  1  0  0  0  0
 42 54  1  0  0  0  0
 43 71  1  0  0  0  0
 44 56  1  0  0  0  0
 45 47  1  0  0  0  0
 46 48  1  0  0  0  0
 46 50  1  0  0  0  0
 47 53  1  0  0  0  0
 48 55  1  0  0  0  0
 49 52  1  0  0  0  0
 49 56  1  0  0  0  0
 50 72  1  0  0  0  0
 51 55  1  0  0  0  0
 51 72  1  0  0  0  0
 52 78  1  0  0  0  0
 53 75  1  0  0  0  0
 54 71  1  0  0  0  0
 55 70  1  0  0  0  0
 56 86  1  0  0  0  0
 59 67  1  0  0  0  0
 60 68  1  0  0  0  0
 61 68  1  0  0  0  0
 62 68  1  0  0  0  0
 63 79  1  0  0  0  0
 64 77  1  0  0  0  0
 65 78  1  0  0  0  0
 66 68  1  0  0  0  0
 66 76  1  0  0  0  0
 67 79  1  0  0  0  0
 69 70  1  0  0  0  0
M  CHG  2  78   1  79   1
M  ISO  4  40 100  56 101  77 100  86 101
M  END
> <Batch ID>
0038

> <Smiles>
C=C1C[101CH:1]([101O:1]c2ccc3c(c2)CN(C(=O)C(NC(=O)C(C)NC)C(C)(C)C)C(C(=O)NC2CCCc4ccccc42)C3)CCN1Cc1c(C)cc(C)c(C[100NH:0][100C:0](=O)N2CCCC(n3nc(-c4ccc(Oc5ccc(F)cc5F)cc4)c(C(N)=O)c3N)C2)c1Cl

> <Shape>
0.249

> <Color>
0.085

> <Negative vol penalty>
0.000

$$$$

  -OEChem-04042322003D

 84 92  0     1  0  0  0  0  0999 V2000
  -30.0196  -25.6013   16.9094 C   0  0  0  0  0  0  0  0  0  0  0  0
  -28.6365  -25.6089   17.0592 C   0  0  0  0  0  0  0  0  0  0  0  0
  -28.8608  -13.0979   20.6070 C   0  0  0  0  0  0  0  0  0  0  0  0
  -28.0201  -13.8988   18.4884 C   0  0  0  0  0  0  0  0  0  0  0  0
  -30.8352  -26.0345   17.9540 C   0  0  0  0  0  0  0  0  0  0  0  0
  -28.0682  -26.0487   18.2542 C   0  0  0  0  0  0  0  0  0  0  0  0
  -22.7936  -29.0880   18.9231 C   0  0  0  0  0  0  0  0  0  0  0  0
  -22.7368  -24.4544   19.5418 C   0  0  0  0  0  0  0  0  0  0  0  0
  -24.0669  -24.0357   19.5093 C   0  0  0  0  0  0  0  0  0  0  0  0
  -29.2174  -11.8894   20.0087 C   0  0  0  0  0  0  0  0  0  0  0  0
  -28.3767  -12.6903   17.8900 C   0  0  0  0  0  0  0  0  0  0  0  0
  -21.5082  -28.6716   19.2666 C   0  0  0  0  0  0  0  0  0  0  0  0
  -27.6770   -9.0428   19.0346 C   0  0  0  0  0  0  0  0  0  0  0  0
  -27.3576   -7.8661   19.7119 C   0  0  0  0  0  0  0  0  0  0  0  0
  -21.9346  -29.2710   21.5640 C   0  0  0  0  0  0  0  0  0  0  0  0
  -22.1369  -22.4546   20.7574 C   0  0  0  0  0  0  0  0  0  0  0  0
  -29.6996   -7.2787   19.7960 C   0  0  0  0  0  0  0  0  0  0  0  0
  -28.2621  -14.1026   19.8469 C   0  0  0  0  0  0  0  0  0  0  0  0
  -28.6874  -16.5068   20.5860 C   0  0  0  0  0  0  0  0  0  0  0  0
  -30.2762  -26.4889   19.1589 C   0  0  0  0  0  0  0  0  0  0  0  0
  -23.6644  -29.5897   19.9010 C   0  0  0  0  0  0  0  0  0  0  0  0
  -28.8771  -26.4871   19.3164 C   0  0  0  0  0  0  0  0  0  0  0  0
  -23.2296  -29.6955   21.2299 C   0  0  0  0  0  0  0  0  0  0  0  0
  -21.7718  -23.6639   20.1659 C   0  0  0  0  0  0  0  0  0  0  0  0
  -24.4320  -22.8263   20.1008 C   0  0  0  0  0  0  0  0  0  0  0  0
  -23.4670  -22.0358   20.7249 C   0  0  0  0  0  0  0  0  0  0  0  0
  -28.9753  -11.6856   18.6502 C   0  0  0  0  0  0  0  0  0  0  0  0
  -21.0795  -28.7603   20.5878 C   0  0  0  0  0  0  0  0  0  0  0  0
  -29.0078   -9.3375   18.7379 C   0  0  0  0  0  0  0  0  0  0  0  0
  -28.3688   -6.9840   20.0927 C   0  0  0  0  0  0  0  0  0  0  0  0
  -30.0190   -8.4554   19.1186 C   0  0  0  0  0  0  0  0  0  0  0  0
  -27.8931  -15.3510   20.4645 C   0  0  0  0  0  0  0  0  0  0  0  0
  -27.8853  -17.4071   21.2437 C   0  0  0  0  0  0  0  0  0  0  0  0
  -30.0303  -16.7454   20.1439 C   0  0  0  0  0  0  0  0  0  0  0  0
  -26.4865  -28.6991   21.0614 C   0  0  0  0  0  0  0  0  0  0  0  0
  -26.2742  -31.5080   22.6699 C   0  0  0  0  0  0  0  0  0  0  0  0
  -24.2883  -33.9699   23.9513 C   0  0  0  0  0  0  0  0  0  0  0  0
  -22.9697  -19.9141   21.9888 C   0  0  0  0  0  0  0  0  0  0  0  0
  -31.1999  -26.9029   20.2770 C   0  0  0  0  0  0  0  0  0  0  0  0
  -25.0386  -30.0596   19.5094 C   0  0  0  0  0  0  0  0  0  0  0  0
  -24.1189  -30.2458   22.3138 C   0  0  0  0  0  0  0  0  0  0  0  0
  -30.5063  -27.7064   21.3741 C   0  0  0  0  0  0  0  0  0  0  0  0
  -23.4422  -16.7653   23.5822 C   0  0  0  0  0  0  0  0  0  0  0  0
  -29.1931  -27.0411   21.7738 C   0  0  0  0  0  0  0  0  0  0  0  0
  -24.7076  -16.2117   22.9231 C   0  0  0  0  0  0  0  0  0  0  0  0
  -22.5749  -17.5349   22.5876 C   0  0  0  0  0  0  0  0  0  0  0  0
  -24.5372  -18.0395   21.1861 C   0  0  0  0  0  0  0  0  0  0  0  0
  -28.2222  -26.9803   20.5884 C   0  0  1  0  0  0  0  0  0  0  0  0
  -26.0202  -30.0748   20.6772 C   0  0  1  0  0  0  0  0  0  0  0  0
  -25.4747  -17.3117   22.1634 C   0  0  2  0  0  0  0  0  0  0  0  0
  -25.8641  -22.4024   20.0500 C   0  0  0  0  0  0  0  0  0  0  0  0
  -24.3998  -36.1168   25.2458 C   0  0  0  0  0  0  0  0  0  0  0  0
  -18.2985  -26.2290   23.6518 C   0  0  0  0  0  0  0  0  0  0  0  0
  -26.7717  -29.9326   25.2352 C   0  0  0  0  0  0  0  0  0  0  0  0
  -25.9401  -31.9090   26.5277 C   0  0  0  0  0  0  0  0  0  0  0  0
  -27.9774  -32.1197   25.1037 C   0  0  0  0  0  0  0  0  0  0  0  0
  -23.0752  -35.5064   21.7317 C   0  0  0  0  0  0  0  0  0  0  0  0
  -20.3414  -24.1152   20.2005 C   0  0  0  0  0  0  0  0  0  0  0  0
  -18.7081  -25.7235   21.1928 C   0  0  0  0  0  0  0  0  0  0  0  0
  -19.6416  -27.8454   22.2465 C   0  0  0  0  0  0  0  0  0  1  0  0
  -25.7089  -31.9368   24.0025 C   0  0  1  0  0  0  0  0  0  0  0  0
  -24.3763  -35.4829   23.8637 C   0  0  2  0  0  0  0  0  0  0  0  0
  -18.5058  -26.8146   22.2505 C   0  0  2  0  0  0  0  0  0  0  0  0
  -26.5832  -31.4623   25.1974 C   0  0  0  0  0  0  0  0  0  0  0  0
  -26.6795  -15.5004   21.0020 N   0  0  0  0  0  0  0  0  0  0  0  0
  -26.7053  -16.7608   21.4677 N   0  0  0  0  0  0  0  0  0  0  0  0
  -25.4557  -30.6863   21.8821 N   0  0  0  0  0  0  0  0  0  0  0  0
  -23.3674  -18.5627   21.9090 N   0  0  0  0  0  0  0  0  0  0  0  0
  -28.0812  -18.6806   21.6465 N   0  0  0  0  0  0  0  0  0  0  0  0
  -30.7101  -15.7123   19.4844 N   0  0  0  0  0  0  0  0  0  0  0  0
  -23.8183  -20.8046   21.3320 N   0  0  0  0  0  0  0  0  0  0  0  0
  -27.6059  -28.2719   20.3730 N   0  0  0  0  0  0  0  0  0  0  0  0
  -25.5359  -33.3834   23.9260 N   0  0  0  0  0  0  0  0  0  0  0  0
  -23.2074  -36.0273   23.1167 N   0  3  0  0  0  0  0  0  0  0  0  0
  -20.0990  -25.2114   21.1785 N   0  3  0  0  0  0  0  0  0  0  0  0
  -30.6159  -17.8368   20.3427 O   0  0  0  0  0  0  0  0  0  0  0  0
  -25.8768  -28.0723   21.9199 O   0  0  0  0  0  0  0  0  0  0  0  0
  -27.3976  -31.8939   22.3372 O   0  0  0  0  0  0  0  0  0  0  0  0
  -23.2198  -33.3687   24.0376 O   0  0  0  0  0  0  0  0  0  0  0  0
  -21.9663  -20.2592   22.6181 O   0  0  0  0  0  0  0  0  0  0  0  0
  -29.3234  -10.5065   18.0660 O   0  0  0  0  0  0  0  0  0  0  0  0
  -19.8255  -28.3540   20.9259 O   0  0  0  0  0  0  0  0  0  1  0  0
  -28.0620   -5.8548   20.7445 F   0  0  0  0  0  0  0  0  0  0  0  0
  -31.2994   -8.7336   18.8373 F   0  0  0  0  0  0  0  0  0  0  0  0
  1  2  1  0  0  0  0
  1  5  2  0  0  0  0
  2  6  2  0  0  0  0
  3 10  2  0  0  0  0
  3 18  1  0  0  0  0
  4 11  1  0  0  0  0
  4 18  2  0  0  0  0
  5 20  1  0  0  0  0
  6 22  1  0  0  0  0
  7 12  2  0  0  0  0
  7 21  1  0  0  0  0
  8  9  2  0  0  0  0
  8 24  1  0  0  0  0
  9 25  1  0  0  0  0
 10 27  1  0  0  0  0
 11 27  2  0  0  0  0
 12 28  1  0  0  0  0
 13 14  2  0  0  0  0
 13 29  1  0  0  0  0
 14 30  1  0  0  0  0
 15 23  1  0  0  0  0
 15 28  2  0  0  0  0
 16 24  2  0  0  0  0
 16 26  1  0  0  0  0
 17 30  2  0  0  0  0
 17 31  1  0  0  0  0
 18 32  1  0  0  0  0
 19 32  1  0  0  0  0
 19 33  2  0  0  0  0
 19 34  1  0  0  0  0
 20 22  2  0  0  0  0
 20 39  1  0  0  0  0
 21 23  2  0  0  0  0
 21 40  1  0  0  0  0
 22 48  1  0  0  0  0
 23 41  1  0  0  0  0
 24 58  1  0  0  0  0
 25 26  2  0  0  0  0
 25 51  1  0  0  0  0
 26 71  1  0  0  0  0
 27 81  1  0  0  0  0
 28 82  1  0  0  0  0
 29 31  2  0  0  0  0
 29 81  1  0  0  0  0
 30 83  1  0  0  0  0
 31 84  1  0  0  0  0
 32 65  2  0  0  0  0
 33 66  1  0  0  0  0
 33 69  1  0  0  0  0
 34 70  1  0  0  0  0
 34 76  2  0  0  0  0
 35 49  1  0  0  0  0
 35 72  1  0  0  0  0
 35 77  2  0  0  0  0
 36 61  1  0  0  0  0
 36 67  1  0  0  0  0
 36 78  2  0  0  0  0
 37 62  1  0  0  0  0
 37 73  1  0  0  0  0
 37 79  2  0  0  0  0
 38 68  1  0  0  0  0
 38 71  1  0  0  0  0
 38 80  2  0  0  0  0
 39 42  1  0  0  0  0
 40 49  1  0  0  0  0
 41 67  1  0  0  0  0
 42 44  1  0  0  0  0
 43 45  1  0  0  0  0
 43 46  1  0  0  0  0
 44 48  1  0  0  0  0
 45 50  1  0  0  0  0
 46 68  1  0  0  0  0
 47 50  1  0  0  0  0
 47 68  1  0  0  0  0
 48 72  1  0  0  0  0
 49 67  1  0  0  0  0
 50 66  1  0  0  0  0
 52 62  1  0  0  0  0
 53 63  1  0  0  0  0
 54 64  1  0  0  0  0
 55 64  1  0  0  0  0
 56 64  1  0  0  0  0
 57 74  1  0  0  0  0
 58 75  1  0  0  0  0
 59 63  1  0  0  0  0
 59 75  1  0  0  0  0
 60 63  1  0  0  0  0
 60 82  1  0  0  0  0
 61 64  1  0  0  0  0
 61 73  1  0  0  0  0
 62 74  1  0  0  0  0
 65 66  1  0  0  0  0
M  CHG  2  74   1  75   1
M  ISO  4  38 100  60 101  71 100  82 101
M  END
> <Batch ID>
0038

> <Smiles>
CNC(C)C(=O)NC(C(=O)N1Cc2cc([101O:1][101CH2:1]C(C)CNCc3ccc(C)c([100NH:0][100C:0](=O)N4CCCC(n5nc(-c6ccc(Oc7ccc(F)cc7F)cc6)c(C(N)=O)c5N)C4)c3)ccc2CC1C(=O)NC1CCCc2ccccc21)C(C)(C)C

> <Shape>
0.284

> <Color>
0.085

> <Negative vol penalty>
0.000

$$$$

  -OEChem-04042322003D

 87 96  0     1  0  0  0  0  0999 V2000
  -25.1087  -36.5115   23.2943 C   0  0  0  0  0  0  0  0  0  0  0  0
  -26.2408  -35.7836   22.9421 C   0  0  0  0  0  0  0  0  0  0  0  0
  -22.8640   -9.5973   19.9448 C   0  0  0  0  0  0  0  0  0  0  0  0
  -24.5762   -8.7669   21.4334 C   0  0  0  0  0  0  0  0  0  0  0  0
  -23.9521  -35.8466   23.6997 C   0  0  0  0  0  0  0  0  0  0  0  0
  -26.2173  -34.3904   22.9962 C   0  0  0  0  0  0  0  0  0  0  0  0
  -28.9261  -28.6294   19.7114 C   0  0  0  0  0  0  0  0  0  0  0  0
  -21.8807   -9.0674   20.7802 C   0  0  0  0  0  0  0  0  0  0  0  0
  -23.5928   -8.2370   22.2688 C   0  0  0  0  0  0  0  0  0  0  0  0
  -29.6105  -27.4490   19.9974 C   0  0  0  0  0  0  0  0  0  0  0  0
  -21.5829   -5.5192   22.3389 C   0  0  0  0  0  0  0  0  0  0  0  0
  -21.7688   -4.2222   22.8170 C   0  0  0  0  0  0  0  0  0  0  0  0
  -27.5317  -26.4056   20.6368 C   0  0  0  0  0  0  0  0  0  0  0  0
  -27.5603  -18.3391   20.1824 C   0  0  0  0  0  0  0  0  0  0  0  0
  -21.7310   -5.0529   25.0854 C   0  0  0  0  0  0  0  0  0  0  0  0
  -24.2118   -9.4470   20.2714 C   0  0  0  0  0  0  0  0  0  0  0  0
  -25.4574   -9.6742   18.0568 C   0  0  0  0  0  0  0  0  0  0  0  0
  -23.9114  -34.4443   23.7496 C   0  0  0  0  0  0  0  0  0  0  0  0
  -27.5385  -28.7104   19.8967 C   0  0  0  0  0  0  0  0  0  0  0  0
  -25.0596  -33.7063   23.4040 C   0  0  0  0  0  0  0  0  0  0  0  0
  -26.8316  -27.5875   20.3501 C   0  0  0  0  0  0  0  0  0  0  0  0
  -27.0156  -19.6086   20.3751 C   0  0  0  0  0  0  0  0  0  0  0  0
  -25.7482  -19.9071   19.8747 C   0  0  0  0  0  0  0  0  0  0  0  0
  -25.5704  -17.6665   18.9887 C   0  0  0  0  0  0  0  0  0  0  0  0
  -26.8378  -17.3680   19.4891 C   0  0  0  0  0  0  0  0  0  0  0  0
  -22.2451   -8.3873   21.9422 C   0  0  0  0  0  0  0  0  0  0  0  0
  -28.9138  -26.3377   20.4629 C   0  0  0  0  0  0  0  0  0  0  0  0
  -21.4711   -6.5832   23.2340 C   0  0  0  0  0  0  0  0  0  0  0  0
  -21.8428   -3.9890   24.1903 C   0  0  0  0  0  0  0  0  0  0  0  0
  -21.5451   -6.3500   24.6072 C   0  0  0  0  0  0  0  0  0  0  0  0
  -25.0256  -18.9360   19.1815 C   0  0  0  0  0  0  0  0  0  0  0  0
  -25.2280   -9.9936   19.4085 C   0  0  0  0  0  0  0  0  0  0  0  0
  -26.5258  -10.4580   17.6953 C   0  0  0  0  0  0  0  0  0  0  0  0
  -24.7664   -8.7516   17.2041 C   0  0  0  0  0  0  0  0  0  0  0  0
  -25.6182  -30.4615   21.7271 C   0  0  0  0  0  0  0  0  0  0  0  0
  -23.2880  -28.9879   20.0179 C   0  0  0  0  0  0  0  0  0  0  0  0
  -22.6333  -25.6631   18.7793 C   0  0  0  0  0  0  0  0  0  0  0  0
  -28.6603  -15.6482   19.7474 C   0  0  0  0  0  0  0  0  0  0  0  0
  -22.6537  -33.7715   24.2395 C   0  0  0  0  0  0  0  0  0  0  0  0
  -26.8112  -29.9828   19.5583 C   0  0  0  0  0  0  0  0  0  0  0  0
  -25.3386  -27.6164   20.5465 C   0  0  0  0  0  0  0  0  0  0  0  0
  -22.5918  -32.2822   23.9105 C   0  0  0  0  0  0  0  0  0  0  0  0
  -30.4185  -12.5598   19.5294 C   0  0  0  0  0  0  0  0  0  0  0  0
  -30.1163  -22.2196   18.5121 C   0  0  0  0  0  0  0  0  0  0  0  0
  -23.9151  -31.6046   24.2519 C   0  0  0  0  0  0  0  0  0  0  0  0
  -29.3083  -11.5228   19.3445 C   0  0  0  0  0  0  0  0  0  0  0  0
  -30.4059  -23.5405   19.2128 C   0  0  0  0  0  0  0  0  0  0  0  0
  -29.9946  -13.6821   20.4751 C   0  0  0  0  0  0  0  0  0  0  0  0
  -27.6189  -13.3046   19.9432 C   0  0  0  0  0  0  0  0  0  0  0  0
  -29.6226  -21.1615   19.4885 C   0  0  0  0  0  0  0  0  0  0  0  0
  -28.7057  -22.9562   20.9813 C   0  0  0  0  0  0  0  0  0  0  0  0
  -25.0654  -32.1931   23.4261 C   0  0  1  0  0  0  0  0  0  0  0  0
  -25.4697  -30.1125   20.2732 C   0  0  1  0  0  0  0  0  0  0  0  0
  -27.9758  -12.1884   18.9480 C   0  0  2  0  0  0  0  0  0  0  0  0
  -29.1996  -24.0227   20.0126 C   0  0  1  0  0  0  0  0  0  1  0  0
  -25.1838  -21.2769   20.0930 C   0  0  0  0  0  0  0  0  0  0  0  0
  -24.8082  -16.6121   18.2449 C   0  0  0  0  0  0  0  0  0  0  0  0
  -21.2914  -24.8930   16.8035 C   0  0  0  0  0  0  0  0  0  0  0  0
  -21.0156  -28.7124   22.0353 C   0  0  0  0  0  0  0  0  0  0  0  0
  -20.3018  -26.6304   20.8420 C   0  0  0  0  0  0  0  0  0  0  0  0
  -20.2827  -28.8197   19.6466 C   0  0  0  0  0  0  0  0  0  0  0  0
  -24.9223  -24.1528   17.6665 C   0  0  0  0  0  0  0  0  0  0  0  0
  -27.8157  -20.6336   21.1237 C   0  0  0  0  0  0  0  0  0  0  0  0
  -22.4946  -27.7127   20.1701 C   0  0  1  0  0  0  0  0  0  0  0  0
  -22.6824  -25.2063   17.3324 C   0  0  2  0  0  0  0  0  0  0  0  0
  -21.0501  -27.9712   20.6838 C   0  0  0  0  0  0  0  0  0  0  0  0
  -26.0821  -10.9089   19.8742 N   0  0  0  0  0  0  0  0  0  0  0  0
  -26.8587  -11.1712   18.8092 N   0  0  0  0  0  0  0  0  0  0  0  0
  -24.6734  -28.8854   20.2078 N   0  0  0  0  0  0  0  0  0  0  0  0
  -28.7269  -14.2683   20.0344 N   0  0  0  0  0  0  0  0  0  0  0  0
  -27.2037  -10.5998   16.5365 N   0  0  0  0  0  0  0  0  0  0  0  0
  -23.6910   -8.0271   17.7360 N   0  0  0  0  0  0  0  0  0  0  0  0
  -27.4121  -16.0857   19.3058 N   0  0  0  0  0  0  0  0  0  0  0  0
  -25.0408  -31.6668   22.0782 N   0  0  0  0  0  0  0  0  0  0  0  0
  -22.5575  -27.0363   18.8790 N   0  0  0  0  0  0  0  0  0  0  0  0
  -28.4136  -21.6834   20.2281 N   0  3  2  0  0  0  0  0  0  0  0  0
  -23.5210  -23.9810   17.2043 N   0  3  0  0  0  0  0  0  0  0  0  0
  -25.1034   -8.5628   16.0107 O   0  0  0  0  0  0  0  0  0  0  0  0
  -26.2114  -29.6933   22.4753 O   0  0  0  0  0  0  0  0  0  0  0  0
  -22.7012  -30.0351   19.7338 O   0  0  0  0  0  0  0  0  0  0  0  0
  -22.6559  -24.8799   19.7262 O   0  0  0  0  0  0  0  0  0  0  0  0
  -29.6458  -16.3822   19.8573 O   0  0  0  0  0  0  0  0  0  0  0  0
  -21.2858   -7.8703   22.7578 O   0  0  0  0  0  0  0  0  0  0  0  0
  -29.5795  -25.1844   20.7434 O   0  0  0  0  0  0  0  0  0  1  0  0
  -22.0198   -2.7431   24.6493 F   0  0  0  0  0  0  0  0  0  0  0  0
  -21.4372   -7.3680   25.4721 F   0  0  0  0  0  0  0  0  0  0  0  0
  -23.4506  -19.3075   18.5609 Cl  0  0  0  0  0  0  0  0  0  0  0  0
  1  2  1  0  0  0  0
  1  5  2  0  0  0  0
  2  6  2  0  0  0  0
  3  8  2  0  0  0  0
  3 16  1  0  0  0  0
  4  9  1  0  0  0  0
  4 16  2  0  0  0  0
  5 18  1  0  0  0  0
  6 20  1  0  0  0  0
  7 10  2  0  0  0  0
  7 19  1  0  0  0  0
  8 26  1  0  0  0  0
  9 26  2  0  0  0  0
 10 27  1  0  0  0  0
 11 12  2  0  0  0  0
 11 28  1  0  0  0  0
 12 29  1  0  0  0  0
 13 21  1  0  0  0  0
 13 27  2  0  0  0  0
 14 22  1  0  0  0  0
 14 25  2  0  0  0  0
 15 29  2  0  0  0  0
 15 30  1  0  0  0  0
 16 32  1  0  0  0  0
 17 32  1  0  0  0  0
 17 33  2  0  0  0  0
 17 34  1  0  0  0  0
 18 20  2  0  0  0  0
 18 39  1  0  0  0  0
 19 21  2  0  0  0  0
 19 40  1  0  0  0  0
 20 52  1  0  0  0  0
 21 41  1  0  0  0  0
 22 23  2  0  0  0  0
 22 63  1  0  0  0  0
 23 31  1  0  0  0  0
 23 56  1  0  0  0  0
 24 25  1  0  0  0  0
 24 31  2  0  0  0  0
 24 57  1  0  0  0  0
 25 73  1  0  0  0  0
 26 83  1  0  0  0  0
 27 84  1  0  0  0  0
 28 30  2  0  0  0  0
 28 83  1  0  0  0  0
 29 85  1  0  0  0  0
 30 86  1  0  0  0  0
 31 87  1  0  0  0  0
 32 67  2  0  0  0  0
 33 68  1  0  0  0  0
 33 71  1  0  0  0  0
 34 72  1  0  0  0  0
 34 78  2  0  0  0  0
 35 53  1  0  0  0  0
 35 74  1  0  0  0  0
 35 79  2  0  0  0  0
 36 64  1  0  0  0  0
 36 69  1  0  0  0  0
 36 80  2  0  0  0  0
 37 65  1  0  0  0  0
 37 75  1  0  0  0  0
 37 81  2  0  0  0  0
 38 70  1  0  0  0  0
 38 73  1  0  0  0  0
 38 82  2  0  0  0  0
 39 42  1  0  0  0  0
 40 53  1  0  0  0  0
 41 69  1  0  0  0  0
 42 45  1  0  0  0  0
 43 46  1  0  0  0  0
 43 48  1  0  0  0  0
 44 47  1  0  0  0  0
 44 50  1  0  0  0  0
 45 52  1  0  0  0  0
 46 54  1  0  0  0  0
 47 55  1  0  0  0  0
 48 70  1  0  0  0  0
 49 54  1  0  0  0  0
 49 70  1  0  0  0  0
 50 76  1  0  0  0  0
 51 55  1  0  0  0  0
 51 76  1  0  0  0  0
 52 74  1  0  0  0  0
 53 69  1  0  0  0  0
 54 68  1  0  0  0  0
 55 84  1  0  0  0  0
 58 65  1  0  0  0  0
 59 66  1  0  0  0  0
 60 66  1  0  0  0  0
 61 66  1  0  0  0  0
 62 77  1  0  0  0  0
 63 76  1  0  0  0  0
 64 66  1  0  0  0  0
 64 75  1  0  0  0  0
 65 77  1  0  0  0  0
 67 68  1  0  0  0  0
M  CHG  2  76   1  77   1
M  ISO  4  38 100  55 101  73 100  84 101
M  END
> <Batch ID>
0038

> <Smiles>
CNC(C)C(=O)NC(C(=O)N1Cc2cc([101O:1][101CH:1]3CCCN(Cc4cc([100NH:0][100C:0](=O)N5CCCC(n6nc(-c7ccc(Oc8ccc(F)cc8F)cc7)c(C(N)=O)c6N)C5)c(C)c(Cl)c4C)C3)ccc2CC1C(=O)NC1CCCc2ccccc21)C(C)(C)C

> <Shape>
0.332

> <Color>
0.078

> <Negative vol penalty>
0.000

$$$$

  -OEChem-04042322003D

 88 97  0     1  0  0  0  0  0999 V2000
  -23.4534  -38.6137   22.1286 C   0  0  0  0  0  0  0  0  0  0  0  0
  -23.4866  -37.8300   20.9808 C   0  0  0  0  0  0  0  0  0  0  0  0
  -24.3816   -9.6224   22.4519 C   0  0  0  0  0  0  0  0  0  0  0  0
  -24.7584   -8.9843   20.1523 C   0  0  0  0  0  0  0  0  0  0  0  0
  -24.1153  -38.1877   23.2782 C   0  0  0  0  0  0  0  0  0  0  0  0
  -24.1717  -36.6145   20.9857 C   0  0  0  0  0  0  0  0  0  0  0  0
  -26.8948  -28.8299   19.8079 C   0  0  0  0  0  0  0  0  0  0  0  0
  -24.0235   -8.3094   22.7576 C   0  0  0  0  0  0  0  0  0  0  0  0
  -24.4003   -7.6713   20.4580 C   0  0  0  0  0  0  0  0  0  0  0  0
  -27.4580  -27.8533   20.6281 C   0  0  0  0  0  0  0  0  0  0  0  0
  -21.3160   -6.3183   22.3972 C   0  0  0  0  0  0  0  0  0  0  0  0
  -20.1797   -6.1234   23.1822 C   0  0  0  0  0  0  0  0  0  0  0  0
  -25.9325  -28.4652   22.3938 C   0  0  0  0  0  0  0  0  0  0  0  0
  -29.4666  -20.5261   21.1065 C   0  0  0  0  0  0  0  0  0  0  0  0
  -21.5239   -5.0067   24.8506 C   0  0  0  0  0  0  0  0  0  0  0  0
  -24.7490   -9.9598   21.1493 C   0  0  0  0  0  0  0  0  0  0  0  0
  -24.3220  -12.4686   20.9713 C   0  0  0  0  0  0  0  0  0  0  0  0
  -24.8191  -36.9722   23.2926 C   0  0  0  0  0  0  0  0  0  0  0  0
  -25.8518  -29.6402   20.2790 C   0  0  0  0  0  0  0  0  0  0  0  0
  -24.8259  -36.1558   22.1433 C   0  0  0  0  0  0  0  0  0  0  0  0
  -25.3561  -29.4497   21.5767 C   0  0  0  0  0  0  0  0  0  0  0  0
  -29.5756  -20.8379   22.4617 C   0  0  0  0  0  0  0  0  0  0  0  0
  -29.3381  -19.1965   20.7049 C   0  0  0  0  0  0  0  0  0  0  0  0
  -29.5562  -19.8200   23.4153 C   0  0  0  0  0  0  0  0  0  0  0  0
  -29.4277  -18.4904   23.0136 C   0  0  0  0  0  0  0  0  0  0  0  0
  -29.3187  -18.1787   21.6584 C   0  0  0  0  0  0  0  0  0  0  0  0
  -24.0329   -7.3338   21.7607 C   0  0  0  0  0  0  0  0  0  0  0  0
  -26.9788  -27.6728   21.9223 C   0  0  0  0  0  0  0  0  0  0  0  0
  -22.5563   -5.8575   22.8388 C   0  0  0  0  0  0  0  0  0  0  0  0
  -20.2836   -5.4676   24.4089 C   0  0  0  0  0  0  0  0  0  0  0  0
  -22.6603   -5.2017   24.0655 C   0  0  0  0  0  0  0  0  0  0  0  0
  -25.1185  -11.3161   20.8327 C   0  0  0  0  0  0  0  0  0  0  0  0
  -25.1257  -13.4953   20.5396 C   0  0  0  0  0  0  0  0  0  0  0  0
  -22.9761  -12.5993   21.4477 C   0  0  0  0  0  0  0  0  0  0  0  0
  -25.4785  -32.7593   20.7646 C   0  0  0  0  0  0  0  0  0  0  0  0
  -22.4204  -31.8961   21.4169 C   0  0  0  0  0  0  0  0  0  0  0  0
  -20.7581  -29.2305   23.1914 C   0  0  0  0  0  0  0  0  0  0  0  0
  -30.0392  -16.1115   20.4119 C   0  0  0  0  0  0  0  0  0  0  0  0
  -25.5113  -36.5556   24.5663 C   0  0  0  0  0  0  0  0  0  0  0  0
  -25.2371  -30.6713   19.3725 C   0  0  0  0  0  0  0  0  0  0  0  0
  -24.2244  -30.2798   22.1231 C   0  0  0  0  0  0  0  0  0  0  0  0
  -26.5713  -35.4819   24.3431 C   0  0  0  0  0  0  0  0  0  0  0  0
  -29.5837  -13.4049   18.1438 C   0  0  0  0  0  0  0  0  0  0  0  0
  -26.0604  -23.2884   22.4128 C   0  0  0  0  0  0  0  0  0  0  0  0
  -25.9945  -34.3474   23.5096 C   0  0  0  0  0  0  0  0  0  0  0  0
  -28.3159  -12.7150   18.6526 C   0  0  0  0  0  0  0  0  0  0  0  0
  -26.1455  -24.7654   22.7535 C   0  0  0  0  0  0  0  0  0  0  0  0
  -30.4434  -13.9302   19.2922 C   0  0  0  0  0  0  0  0  0  0  0  0
  -28.4718  -14.1020   20.7595 C   0  0  0  0  0  0  0  0  0  0  0  0
  -27.2522  -22.5276   22.9659 C   0  0  0  0  0  0  0  0  0  0  0  0
  -25.5903  -34.8445   22.1159 C   0  0  1  0  0  0  0  0  0  0  0  0
  -24.5244  -31.7859   20.1321 C   0  0  1  0  0  0  0  0  0  0  0  0
  -27.5418  -13.6134   19.6370 C   0  0  2  0  0  0  0  0  0  0  0  0
  -27.4599  -25.3697   22.2701 C   0  0  2  0  0  0  0  0  0  1  0  0
  -28.6851  -24.6032   22.7955 C   0  0  2  0  0  0  0  0  0  0  0  0
  -29.2220  -18.8945   19.2457 C   0  0  0  0  0  0  0  0  0  0  0  0
  -29.6734  -20.1579   24.8679 C   0  0  0  0  0  0  0  0  0  0  0  0
  -29.4077  -17.4018   24.0410 C   0  0  0  0  0  0  0  0  0  0  0  0
  -29.9725  -25.1746   22.1954 C   0  0  0  0  0  0  0  0  0  0  0  0
  -18.4736  -28.2399   22.8803 C   0  0  0  0  0  0  0  0  0  0  0  0
  -21.5804  -33.8887   23.5695 C   0  0  0  0  0  0  0  0  0  0  0  0
  -20.0619  -32.1316   24.5050 C   0  0  0  0  0  0  0  0  0  0  0  0
  -19.6987  -32.9879   22.1904 C   0  0  0  0  0  0  0  0  0  0  0  0
  -21.8573  -26.5002   22.8816 C   0  0  0  0  0  0  0  0  0  0  0  0
  -29.7112  -22.2761   22.8670 C   0  0  0  0  0  0  0  0  0  0  0  0
  -21.6698  -31.4750   22.6572 C   0  0  1  0  0  0  0  0  0  0  0  0
  -19.9576  -28.0939   22.5817 C   0  0  2  0  0  0  0  0  0  0  0  0
  -20.7805  -32.6158   23.2276 C   0  0  0  0  0  0  0  0  0  0  0  0
  -26.3348  -11.5848   20.3506 N   0  0  0  0  0  0  0  0  0  0  0  0
  -26.3085  -12.9179   20.1823 N   0  0  0  0  0  0  0  0  0  0  0  0
  -23.6608  -31.2792   21.2006 N   0  0  0  0  0  0  0  0  0  0  0  0
  -29.6444  -14.7767   20.1811 N   0  0  0  0  0  0  0  0  0  0  0  0
  -24.9289  -14.8267   20.4344 N   0  0  0  0  0  0  0  0  0  0  0  0
  -22.2951  -11.4429   21.8518 N   0  0  0  0  0  0  0  0  0  0  0  0
  -29.1846  -16.8291   21.2481 N   0  0  0  0  0  0  0  0  0  0  0  0
  -24.8607  -33.7979   21.4346 N   0  0  0  0  0  0  0  0  0  0  0  0
  -20.9349  -30.2667   22.2990 N   0  0  0  0  0  0  0  0  0  0  0  0
  -28.5398  -23.1256   22.4347 N   0  3  1  0  0  0  0  0  0  0  0  0
  -20.4197  -26.7853   23.1249 N   0  3  0  0  0  0  0  0  0  0  0  0
  -22.3889  -13.7066   21.4977 O   0  0  0  0  0  0  0  0  0  0  0  0
  -26.6858  -32.5804   20.6541 O   0  0  0  0  0  0  0  0  0  0  0  0
  -21.9213  -32.7360   20.6639 O   0  0  0  0  0  0  0  0  0  0  0  0
  -21.1809  -29.2036   24.3451 O   0  0  0  0  0  0  0  0  0  0  0  0
  -31.0454  -16.5913   19.8833 O   0  0  0  0  0  0  0  0  0  0  0  0
  -23.6837   -6.0525   22.0586 O   0  0  0  0  0  0  0  0  0  0  0  0
  -27.5271  -26.7207   22.7252 O   0  0  0  0  0  0  0  0  0  1  0  0
  -19.1926   -5.2818   25.1634 F   0  0  0  0  0  0  0  0  0  0  0  0
  -23.8493   -4.7577   24.4956 F   0  0  0  0  0  0  0  0  0  0  0  0
  1  2  1  0  0  0  0
  1  5  2  0  0  0  0
  2  6  2  0  0  0  0
  3  8  2  0  0  0  0
  3 16  1  0  0  0  0
  4  9  1  0  0  0  0
  4 16  2  0  0  0  0
  5 18  1  0  0  0  0
  6 20  1  0  0  0  0
  7 10  2  0  0  0  0
  7 19  1  0  0  0  0
  8 27  1  0  0  0  0
  9 27  2  0  0  0  0
 10 28  1  0  0  0  0
 11 12  2  0  0  0  0
 11 29  1  0  0  0  0
 12 30  1  0  0  0  0
 13 21  1  0  0  0  0
 13 28  2  0  0  0  0
 14 22  1  0  0  0  0
 14 23  2  0  0  0  0
 15 30  2  0  0  0  0
 15 31  1  0  0  0  0
 16 32  1  0  0  0  0
 17 32  1  0  0  0  0
 17 33  2  0  0  0  0
 17 34  1  0  0  0  0
 18 20  2  0  0  0  0
 18 39  1  0  0  0  0
 19 21  2  0  0  0  0
 19 40  1  0  0  0  0
 20 51  1  0  0  0  0
 21 41  1  0  0  0  0
 22 24  2  0  0  0  0
 22 65  1  0  0  0  0
 23 26  1  0  0  0  0
 23 56  1  0  0  0  0
 24 25  1  0  0  0  0
 24 57  1  0  0  0  0
 25 26  2  0  0  0  0
 25 58  1  0  0  0  0
 26 75  1  0  0  0  0
 27 85  1  0  0  0  0
 28 86  1  0  0  0  0
 29 31  2  0  0  0  0
 29 85  1  0  0  0  0
 30 87  1  0  0  0  0
 31 88  1  0  0  0  0
 32 69  2  0  0  0  0
 33 70  1  0  0  0  0
 33 73  1  0  0  0  0
 34 74  1  0  0  0  0
 34 80  2  0  0  0  0
 35 52  1  0  0  0  0
 35 76  1  0  0  0  0
 35 81  2  0  0  0  0
 36 66  1  0  0  0  0
 36 71  1  0  0  0  0
 36 82  2  0  0  0  0
 37 67  1  0  0  0  0
 37 77  1  0  0  0  0
 37 83  2  0  0  0  0
 38 72  1  0  0  0  0
 38 75  1  0  0  0  0
 38 84  2  0  0  0  0
 39 42  1  0  0  0  0
 40 52  1  0  0  0  0
 41 71  1  0  0  0  0
 42 45  1  0  0  0  0
 43 46  1  0  0  0  0
 43 48  1  0  0  0  0
 44 47  1  0  0  0  0
 44 50  1  0  0  0  0
 45 51  1  0  0  0  0
 46 53  1  0  0  0  0
 47 54  1  0  0  0  0
 48 72  1  0  0  0  0
 49 53  1  0  0  0  0
 49 72  1  0  0  0  0
 50 78  1  0  0  0  0
 51 76  1  0  0  0  0
 52 71  1  0  0  0  0
 53 70  1  0  0  0  0
 54 55  1  0  0  0  0
 54 86  1  0  0  0  0
 55 59  1  0  0  0  0
 55 78  1  0  0  0  0
 60 67  1  0  0  0  0
 61 68  1  0  0  0  0
 62 68  1  0  0  0  0
 63 68  1  0  0  0  0
 64 79  1  0  0  0  0
 65 78  1  0  0  0  0
 66 68  1  0  0  0  0
 66 77  1  0  0  0  0
 67 79  1  0  0  0  0
 69 70  1  0  0  0  0
M  CHG  2  78   1  79   1
M  ISO  4  38 100  54 101  75 100  86 101
M  END
> <Batch ID>
0038

> <Smiles>
CNC(C)C(=O)NC(C(=O)N1Cc2cc([101O:1][101CH:1]3CCCN(Cc4cc(C)c([100NH:0][100C:0](=O)N5CCCC(n6nc(-c7ccc(Oc8ccc(F)cc8F)cc7)c(C(N)=O)c6N)C5)c(C)c4C)C3C)ccc2CC1C(=O)NC1CCCc2ccccc21)C(C)(C)C

> <Shape>
0.328

> <Color>
0.126

> <Negative vol penalty>
0.000

$$$$

  -OEChem-04042322003D

 88 97  0     1  0  0  0  0  0999 V2000
  -16.4314  -27.2544   21.7316 C   0  0  0  0  0  0  0  0  0  0  0  0
  -17.6426  -26.9181   21.1354 C   0  0  0  0  0  0  0  0  0  0  0  0
  -22.9827   -9.8319   21.5192 C   0  0  0  0  0  0  0  0  0  0  0  0
  -24.3346  -10.5157   23.4012 C   0  0  0  0  0  0  0  0  0  0  0  0
  -16.3973  -28.2077   22.7485 C   0  0  0  0  0  0  0  0  0  0  0  0
  -18.8202  -27.5358   21.5550 C   0  0  0  0  0  0  0  0  0  0  0  0
  -22.6277  -24.2521   22.1590 C   0  0  0  0  0  0  0  0  0  0  0  0
  -22.3113   -8.9195   22.3329 C   0  0  0  0  0  0  0  0  0  0  0  0
  -23.6632   -9.6032   24.2150 C   0  0  0  0  0  0  0  0  0  0  0  0
  -23.2777  -23.8119   21.0068 C   0  0  0  0  0  0  0  0  0  0  0  0
  -22.8746   -5.8447   23.6187 C   0  0  0  0  0  0  0  0  0  0  0  0
  -22.6644   -4.5609   23.1154 C   0  0  0  0  0  0  0  0  0  0  0  0
  -25.0594  -25.3853   21.4180 C   0  0  0  0  0  0  0  0  0  0  0  0
  -31.2747  -17.8700   20.4221 C   0  0  0  0  0  0  0  0  0  0  0  0
  -20.2775   -4.8685   23.3276 C   0  0  0  0  0  0  0  0  0  0  0  0
  -23.9945  -10.6300   22.0533 C   0  0  0  0  0  0  0  0  0  0  0  0
  -24.1291  -12.6514   20.5030 C   0  0  0  0  0  0  0  0  0  0  0  0
  -17.5764  -28.8303   23.1874 C   0  0  0  0  0  0  0  0  0  0  0  0
  -23.1843  -25.2715   22.9448 C   0  0  0  0  0  0  0  0  0  0  0  0
  -18.8016  -28.4993   22.5778 C   0  0  0  0  0  0  0  0  0  0  0  0
  -24.4158  -25.8349   22.5811 C   0  0  0  0  0  0  0  0  0  0  0  0
  -29.3337  -19.8730   20.4772 C   0  0  0  0  0  0  0  0  0  0  0  0
  -28.9665  -18.5530   20.2156 C   0  0  0  0  0  0  0  0  0  0  0  0
  -30.6714  -20.1915   20.7112 C   0  0  0  0  0  0  0  0  0  0  0  0
  -29.9370  -17.5515   20.1881 C   0  0  0  0  0  0  0  0  0  0  0  0
  -22.6515   -8.8051   23.6808 C   0  0  0  0  0  0  0  0  0  0  0  0
  -24.4923  -24.3805   20.6346 C   0  0  0  0  0  0  0  0  0  0  0  0
  -21.7861   -6.6404   23.9765 C   0  0  0  0  0  0  0  0  0  0  0  0
  -21.3659   -4.0728   22.9698 C   0  0  0  0  0  0  0  0  0  0  0  0
  -20.4876   -6.1523   23.8309 C   0  0  0  0  0  0  0  0  0  0  0  0
  -31.6419  -19.1900   20.6837 C   0  0  0  0  0  0  0  0  0  0  0  0
  -24.6888  -11.5723   21.2130 C   0  0  0  0  0  0  0  0  0  0  0  0
  -25.1972  -13.2336   19.8652 C   0  0  0  0  0  0  0  0  0  0  0  0
  -26.5050  -21.9688   19.2119 C   0  0  0  0  0  0  0  0  0  0  0  0
  -25.4491  -21.2259   18.8410 C   0  0  0  0  0  0  0  0  0  0  0  0
  -22.7658  -13.0886   20.4270 C   0  0  0  0  0  0  0  0  0  0  0  0
  -22.2769  -28.1966   23.7958 C   0  0  0  0  0  0  0  0  0  0  0  0
  -24.9373  -28.0614   25.6468 C   0  0  0  0  0  0  0  0  0  0  0  0
  -28.3282  -26.8782   25.3016 C   0  0  0  0  0  0  0  0  0  0  0  0
  -30.4415  -15.1045   19.8654 C   0  0  0  0  0  0  0  0  0  0  0  0
  -17.4832  -29.8892   24.2573 C   0  0  0  0  0  0  0  0  0  0  0  0
  -22.4839  -25.7166   24.1992 C   0  0  0  0  0  0  0  0  0  0  0  0
  -25.0655  -26.9181   23.4015 C   0  0  0  0  0  0  0  0  0  0  0  0
  -18.8261  -30.2243   24.9013 C   0  0  0  0  0  0  0  0  0  0  0  0
  -29.9610  -11.6253   19.2811 C   0  0  0  0  0  0  0  0  0  0  0  0
  -28.8153  -23.6318   18.8705 C   0  0  0  0  0  0  0  0  0  0  0  0
  -19.8978  -30.4149   23.8327 C   0  0  0  0  0  0  0  0  0  0  0  0
  -27.4274  -24.2626   18.8862 C   0  0  0  0  0  0  0  0  0  0  0  0
  -28.5005  -11.3901   19.6733 C   0  0  0  0  0  0  0  0  0  0  0  0
  -30.6353  -12.6488   20.1930 C   0  0  0  0  0  0  0  0  0  0  0  0
  -28.4655  -13.6931   20.7135 C   0  0  0  0  0  0  0  0  0  0  0  0
  -28.7695  -22.1978   18.3529 C   0  0  0  0  0  0  0  0  0  0  0  0
  -20.1037  -29.1293   23.0224 C   0  0  1  0  0  0  0  0  0  0  0  0
  -26.4340  -23.4077   19.6716 C   0  0  1  0  0  0  0  0  0  1  0  0
  -22.8890  -27.1183   24.6446 C   0  0  1  0  0  0  0  0  0  0  0  0
  -27.7257  -12.7180   19.7832 C   0  0  2  0  0  0  0  0  0  0  0  0
  -27.5305  -18.2131   19.9647 C   0  0  0  0  0  0  0  0  0  0  0  0
  -31.0514  -21.6126   20.9907 C   0  0  0  0  0  0  0  0  0  0  0  0
  -29.9560  -26.0641   27.0293 C   0  0  0  0  0  0  0  0  0  0  0  0
  -25.9191  -30.9504   25.6639 C   0  0  0  0  0  0  0  0  0  0  0  0
  -28.2553  -30.0817   25.9006 C   0  0  0  0  0  0  0  0  0  0  0  0
  -26.5675  -29.6163   27.6775 C   0  0  0  0  0  0  0  0  0  0  0  0
  -28.7343  -24.3150   23.8790 C   0  0  0  0  0  0  0  0  0  0  0  0
  -28.2888  -20.9493   20.5064 C   0  0  0  0  0  0  0  0  0  0  0  0
  -26.3913  -28.4205   25.4569 C   0  0  1  0  0  0  0  0  0  0  0  0
  -28.9389  -25.6613   25.9728 C   0  0  2  0  0  0  0  0  0  0  0  0
  -26.7670  -29.7591   26.1528 C   0  0  0  0  0  0  0  0  0  0  0  0
  -26.0098  -11.4725   21.0424 N   0  0  0  0  0  0  0  0  0  0  0  0
  -26.2891  -12.4963   20.2179 N   0  0  0  0  0  0  0  0  0  0  0  0
  -24.3386  -27.3236   24.6158 N   0  0  0  0  0  0  0  0  0  0  0  0
  -29.8474  -13.8823   20.2449 N   0  0  0  0  0  0  0  0  0  0  0  0
  -25.2995  -14.2991   19.0425 N   0  0  0  0  0  0  0  0  0  0  0  0
  -22.3115  -14.0263   21.3643 N   0  0  0  0  0  0  0  0  0  0  0  0
  -29.5861  -16.2042   19.9244 N   0  0  0  0  0  0  0  0  0  0  0  0
  -20.8953  -28.1793   23.7743 N   0  0  0  0  0  0  0  0  0  0  0  0
  -27.1597  -27.2700   25.9199 N   0  0  0  0  0  0  0  0  0  0  0  0
  -27.8048  -21.3381   19.1366 N   0  3  1  0  0  0  0  0  0  0  0  0
  -29.6229  -24.8025   24.9651 N   0  3  0  0  0  0  0  0  0  0  0  0
  -21.9693  -12.6480   19.5638 O   0  0  0  0  0  0  0  0  0  0  0  0
  -23.0042  -28.9867   23.2054 O   0  0  0  0  0  0  0  0  0  0  0  0
  -24.3562  -28.4162   26.6755 O   0  0  0  0  0  0  0  0  0  0  0  0
  -28.8388  -27.4286   24.3285 O   0  0  0  0  0  0  0  0  0  0  0  0
  -31.6144  -15.1663   19.4880 O   0  0  0  0  0  0  0  0  0  0  0  0
  -21.9964   -7.9150   24.4753 O   0  0  0  0  0  0  0  0  0  0  0  0
  -25.1285  -23.9531   19.5101 O   0  0  0  0  0  0  0  0  0  1  0  0
  -21.1642   -2.8405   22.4851 F   0  0  0  0  0  0  0  0  0  0  0  0
  -19.4380   -6.9125   24.1718 F   0  0  0  0  0  0  0  0  0  0  0  0
  -33.3081  -19.5426   20.9682 Cl  0  0  0  0  0  0  0  0  0  0  0  0
  1  2  1  0  0  0  0
  1  5  2  0  0  0  0
  2  6  2  0  0  0  0
  3  8  2  0  0  0  0
  3 16  1  0  0  0  0
  4  9  1  0  0  0  0
  4 16  2  0  0  0  0
  5 18  1  0  0  0  0
  6 20  1  0  0  0  0
  7 10  2  0  0  0  0
  7 19  1  0  0  0  0
  8 26  1  0  0  0  0
  9 26  2  0  0  0  0
 10 27  1  0  0  0  0
 11 12  2  0  0  0  0
 11 28  1  0  0  0  0
 12 29  1  0  0  0  0
 13 21  1  0  0  0  0
 13 27  2  0  0  0  0
 14 25  2  0  0  0  0
 14 31  1  0  0  0  0
 15 29  2  0  0  0  0
 15 30  1  0  0  0  0
 16 32  1  0  0  0  0
 17 32  1  0  0  0  0
 17 33  2  0  0  0  0
 17 36  1  0  0  0  0
 18 20  2  0  0  0  0
 18 41  1  0  0  0  0
 19 21  2  0  0  0  0
 19 42  1  0  0  0  0
 20 53  1  0  0  0  0
 21 43  1  0  0  0  0
 22 23  2  0  0  0  0
 22 24  1  0  0  0  0
 22 64  1  0  0  0  0
 23 25  1  0  0  0  0
 23 57  1  0  0  0  0
 24 31  2  0  0  0  0
 24 58  1  0  0  0  0
 25 74  1  0  0  0  0
 26 84  1  0  0  0  0
 27 85  1  0  0  0  0
 28 30  2  0  0  0  0
 28 84  1  0  0  0  0
 29 86  1  0  0  0  0
 30 87  1  0  0  0  0
 31 88  1  0  0  0  0
 32 68  2  0  0  0  0
 33 69  1  0  0  0  0
 33 72  1  0  0  0  0
 34 35  2  0  0  0  0
 34 54  1  0  0  0  0
 34 77  1  0  0  0  0
 36 73  1  0  0  0  0
 36 79  2  0  0  0  0
 37 55  1  0  0  0  0
 37 75  1  0  0  0  0
 37 80  2  0  0  0  0
 38 65  1  0  0  0  0
 38 70  1  0  0  0  0
 38 81  2  0  0  0  0
 39 66  1  0  0  0  0
 39 76  1  0  0  0  0
 39 82  2  0  0  0  0
 40 71  1  0  0  0  0
 40 74  1  0  0  0  0
 40 83  2  0  0  0  0
 41 44  1  0  0  0  0
 42 55  1  0  0  0  0
 43 70  1  0  0  0  0
 44 47  1  0  0  0  0
 45 49  1  0  0  0  0
 45 50  1  0  0  0  0
 46 48  1  0  0  0  0
 46 52  1  0  0  0  0
 47 53  1  0  0  0  0
 48 54  1  0  0  0  0
 49 56  1  0  0  0  0
 50 71  1  0  0  0  0
 51 56  1  0  0  0  0
 51 71  1  0  0  0  0
 52 77  1  0  0  0  0
 53 75  1  0  0  0  0
 54 85  1  0  0  0  0
 55 70  1  0  0  0  0
 56 69  1  0  0  0  0
 59 66  1  0  0  0  0
 60 67  1  0  0  0  0
 61 67  1  0  0  0  0
 62 67  1  0  0  0  0
 63 78  1  0  0  0  0
 64 77  1  0  0  0  0
 65 67  1  0  0  0  0
 65 76  1  0  0  0  0
 66 78  1  0  0  0  0
 68 69  1  0  0  0  0
M  CHG  2  77   1  78   1
M  ISO  4  40 100  54 101  74 100  85 101
M  END
> <Batch ID>
0038

> <Smiles>
C=C1N(Cc2c(C)c(Cl)cc([100NH:0][100C:0](=O)N3CCCC(n4nc(-c5ccc(Oc6ccc(F)cc6F)cc5)c(C(N)=O)c4N)C3)c2C)CCC[101CH:1]1[101O:1]c1ccc2c(c1)CN(C(=O)C(NC(=O)C(C)NC)C(C)(C)C)C(C(=O)NC1CCCc3ccccc31)C2

> <Shape>
0.276

> <Color>
0.110

> <Negative vol penalty>
0.000

$$$$

  -OEChem-04042322003D

 88 97  0     1  0  0  0  0  0999 V2000
  -18.9148  -25.6125   19.2910 C   0  0  0  0  0  0  0  0  0  0  0  0
  -20.2477  -25.9857   19.1513 C   0  0  0  0  0  0  0  0  0  0  0  0
  -27.3616  -14.3381   22.4659 C   0  0  0  0  0  0  0  0  0  0  0  0
  -26.7995  -15.4044   20.3721 C   0  0  0  0  0  0  0  0  0  0  0  0
  -18.1890  -26.0281   20.4065 C   0  0  0  0  0  0  0  0  0  0  0  0
  -20.8553  -26.7757   20.1266 C   0  0  0  0  0  0  0  0  0  0  0  0
  -25.4709  -25.1098   21.3783 C   0  0  0  0  0  0  0  0  0  0  0  0
  -26.2191  -13.5439   22.3681 C   0  0  0  0  0  0  0  0  0  0  0  0
  -25.6570  -14.6101   20.2743 C   0  0  0  0  0  0  0  0  0  0  0  0
  -26.5136  -25.4040   20.5008 C   0  0  0  0  0  0  0  0  0  0  0  0
  -25.2504  -10.7682   20.6977 C   0  0  0  0  0  0  0  0  0  0  0  0
  -25.3811   -9.4077   20.9756 C   0  0  0  0  0  0  0  0  0  0  0  0
  -27.1900  -27.2290   21.9259 C   0  0  0  0  0  0  0  0  0  0  0  0
  -30.4436  -24.4457   20.4046 C   0  0  0  0  0  0  0  0  0  0  0  0
  -30.3491  -25.0914   18.0785 C   0  0  0  0  0  0  0  0  0  0  0  0
  -29.0606  -23.2037   18.8615 C   0  0  0  0  0  0  0  0  0  0  0  0
  -23.7733   -9.6191   22.7666 C   0  0  0  0  0  0  0  0  0  0  0  0
  -27.6518  -15.2684   21.4679 C   0  0  0  0  0  0  0  0  0  0  0  0
  -30.1163  -15.7960   21.0739 C   0  0  0  0  0  0  0  0  0  0  0  0
  -18.7907  -26.8155   21.4008 C   0  0  0  0  0  0  0  0  0  0  0  0
  -25.2730  -25.8812   22.5325 C   0  0  0  0  0  0  0  0  0  0  0  0
  -20.1365  -27.2033   21.2558 C   0  0  0  0  0  0  0  0  0  0  0  0
  -26.1456  -26.9410   22.8177 C   0  0  0  0  0  0  0  0  0  0  0  0
  -30.8416  -25.2902   19.3683 C   0  0  0  0  0  0  0  0  0  0  0  0
  -29.5531  -23.4024   20.1512 C   0  0  0  0  0  0  0  0  0  0  0  0
  -25.3669  -13.6799   21.2724 C   0  0  0  0  0  0  0  0  0  0  0  0
  -27.3716  -26.4655   20.7730 C   0  0  0  0  0  0  0  0  0  0  0  0
  -24.3813  -11.5543   21.4542 C   0  0  0  0  0  0  0  0  0  0  0  0
  -24.6426   -8.8331   22.0101 C   0  0  0  0  0  0  0  0  0  0  0  0
  -23.6427  -10.9798   22.4886 C   0  0  0  0  0  0  0  0  0  0  0  0
  -29.4585  -24.0482   17.8251 C   0  0  0  0  0  0  0  0  0  0  0  0
  -28.8315  -16.0896   21.5686 C   0  0  0  0  0  0  0  0  0  0  0  0
  -30.8761  -16.8853   21.4237 C   0  0  0  0  0  0  0  0  0  0  0  0
  -30.5814  -14.6417   20.3617 C   0  0  0  0  0  0  0  0  0  0  0  0
  -22.9265  -27.7288   23.6206 C   0  0  0  0  0  0  0  0  0  0  0  0
  -24.7897  -27.8654   26.2725 C   0  0  0  0  0  0  0  0  0  0  0  0
  -27.9043  -27.5993   27.6418 C   0  0  0  0  0  0  0  0  0  0  0  0
  -29.5444  -22.6025   22.5400 C   0  0  0  0  0  0  0  0  0  0  0  0
  -17.9523  -27.2799   22.5653 C   0  0  0  0  0  0  0  0  0  0  0  0
  -24.1598  -25.5343   23.4827 C   0  0  0  0  0  0  0  0  0  0  0  0
  -25.9884  -27.7870   24.0539 C   0  0  0  0  0  0  0  0  0  0  0  0
  -18.7765  -27.8029   23.7389 C   0  0  0  0  0  0  0  0  0  0  0  0
  -29.0828  -30.0247   18.0915 C   0  0  0  0  0  0  0  0  0  0  0  0
  -30.4890  -30.0333   17.4726 C   0  0  0  0  0  0  0  0  0  0  0  0
  -31.1820  -20.3293   24.7373 C   0  0  0  0  0  0  0  0  0  0  0  0
  -19.8622  -28.7547   23.2467 C   0  0  0  0  0  0  0  0  0  0  0  0
  -30.8871  -18.9578   24.1257 C   0  0  0  0  0  0  0  0  0  0  0  0
  -28.5237  -28.6412   18.4218 C   0  0  0  0  0  0  0  0  0  0  0  0
  -31.6422  -30.1288   18.4763 C   0  0  0  0  0  0  0  0  0  0  0  0
  -29.9951  -21.2806   24.5954 C   0  0  0  0  0  0  0  0  0  0  0  0
  -29.1831  -20.0571   22.6173 C   0  0  0  0  0  0  0  0  0  0  0  0
  -30.2268  -28.2334   20.3636 C   0  0  0  0  0  0  0  0  0  0  0  0
  -20.8377  -28.0389   22.3047 C   0  0  1  0  0  0  0  0  0  0  0  0
  -23.7392  -26.7066   24.3638 C   0  0  1  0  0  0  0  0  0  0  0  0
  -30.3727  -19.0850   22.6783 C   0  0  2  0  0  0  0  0  0  0  0  0
  -28.7965  -28.1261   19.8412 C   0  0  2  0  0  0  0  0  0  1  0  0
  -32.2743  -28.7990   18.9303 C   0  0  1  0  0  0  0  0  0  0  0  0
  -33.2781  -29.0304   20.0605 C   0  0  0  0  0  0  0  0  0  0  0  0
  -29.1188  -27.8024   29.8283 C   0  0  0  0  0  0  0  0  0  0  0  0
  -24.6284  -30.9060   26.0768 C   0  0  0  0  0  0  0  0  0  0  0  0
  -26.5737  -31.0406   27.6471 C   0  0  0  0  0  0  0  0  0  0  0  0
  -24.4358  -29.9984   28.3992 C   0  0  0  0  0  0  0  0  0  0  0  0
  -28.7770  -24.7727   27.5523 C   0  0  0  0  0  0  0  0  0  0  0  0
  -31.8001  -26.4119   19.6407 C   0  0  0  0  0  0  0  0  0  0  0  0
  -25.9036  -28.7648   26.7513 C   0  0  1  0  0  0  0  0  0  0  0  0
  -28.4049  -26.8615   28.8704 C   0  0  2  0  0  0  0  0  0  0  0  0
  -25.3874  -30.1629   27.1942 C   0  0  0  0  0  0  0  0  0  0  0  0
  -28.7745  -17.2727   22.1858 N   0  0  0  0  0  0  0  0  0  0  0  0
  -30.0331  -17.7321   22.0814 N   0  0  0  0  0  0  0  0  0  0  0  0
  -24.8812  -27.4122   24.9488 N   0  0  0  0  0  0  0  0  0  0  0  0
  -29.5652  -21.3541   23.1973 N   0  0  0  0  0  0  0  0  0  0  0  0
  -32.1765  -17.1919   21.2299 N   0  0  0  0  0  0  0  0  0  0  0  0
  -29.6686  -13.6149   20.0847 N   0  0  0  0  0  0  0  0  0  0  0  0
  -29.1496  -22.5440   21.2039 N   0  0  0  0  0  0  0  0  0  0  0  0
  -21.7669  -27.2271   23.0610 N   0  0  0  0  0  0  0  0  0  0  0  0
  -26.6028  -28.0269   27.7977 N   0  0  0  0  0  0  0  0  0  0  0  0
  -31.2262  -27.7713   19.3206 N   0  3  1  0  0  0  0  0  0  0  0  0
  -29.3546  -25.7829   28.4759 N   0  3  0  0  0  0  0  0  0  0  0  0
  -31.7750  -14.5171   19.9967 O   0  0  0  0  0  0  0  0  0  0  0  0
  -23.3214  -28.8873   23.5608 O   0  0  0  0  0  0  0  0  0  0  0  0
  -23.8760  -27.5698   27.0467 O   0  0  0  0  0  0  0  0  0  0  0  0
  -28.5998  -27.7815   26.6449 O   0  0  0  0  0  0  0  0  0  0  0  0
  -29.8802  -23.6427   23.1120 O   0  0  0  0  0  0  0  0  0  0  0  0
  -24.2521  -12.9048   21.1765 O   0  0  0  0  0  0  0  0  0  0  0  0
  -28.3945  -26.7565   19.9139 O   0  0  0  0  0  0  0  0  0  1  0  0
  -24.7670   -7.5261   22.2759 F   0  0  0  0  0  0  0  0  0  0  0  0
  -22.8052  -11.7296   23.2181 F   0  0  0  0  0  0  0  0  0  0  0  0
  -28.8522  -23.8015   16.2333 Cl  0  0  0  0  0  0  0  0  0  0  0  0
  1  2  1  0  0  0  0
  1  5  2  0  0  0  0
  2  6  2  0  0  0  0
  3  8  2  0  0  0  0
  3 18  1  0  0  0  0
  4  9  1  0  0  0  0
  4 18  2  0  0  0  0
  5 20  1  0  0  0  0
  6 22  1  0  0  0  0
  7 10  2  0  0  0  0
  7 21  1  0  0  0  0
  8 26  1  0  0  0  0
  9 26  2  0  0  0  0
 10 27  1  0  0  0  0
 11 12  2  0  0  0  0
 11 28  1  0  0  0  0
 12 29  1  0  0  0  0
 13 23  1  0  0  0  0
 13 27  2  0  0  0  0
 14 24  2  0  0  0  0
 14 25  1  0  0  0  0
 15 24  1  0  0  0  0
 15 31  2  0  0  0  0
 16 25  2  0  0  0  0
 16 31  1  0  0  0  0
 17 29  2  0  0  0  0
 17 30  1  0  0  0  0
 18 32  1  0  0  0  0
 19 32  1  0  0  0  0
 19 33  2  0  0  0  0
 19 34  1  0  0  0  0
 20 22  2  0  0  0  0
 20 39  1  0  0  0  0
 21 23  2  0  0  0  0
 21 40  1  0  0  0  0
 22 53  1  0  0  0  0
 23 41  1  0  0  0  0
 24 64  1  0  0  0  0
 25 74  1  0  0  0  0
 26 84  1  0  0  0  0
 27 85  1  0  0  0  0
 28 30  2  0  0  0  0
 28 84  1  0  0  0  0
 29 86  1  0  0  0  0
 30 87  1  0  0  0  0
 31 88  1  0  0  0  0
 32 68  2  0  0  0  0
 33 69  1  0  0  0  0
 33 72  1  0  0  0  0
 34 73  1  0  0  0  0
 34 79  2  0  0  0  0
 35 54  1  0  0  0  0
 35 75  1  0  0  0  0
 35 80  2  0  0  0  0
 36 65  1  0  0  0  0
 36 70  1  0  0  0  0
 36 81  2  0  0  0  0
 37 66  1  0  0  0  0
 37 76  1  0  0  0  0
 37 82  2  0  0  0  0
 38 71  1  0  0  0  0
 38 74  1  0  0  0  0
 38 83  2  0  0  0  0
 39 42  1  0  0  0  0
 40 54  1  0  0  0  0
 41 70  1  0  0  0  0
 42 46  1  0  0  0  0
 43 44  1  0  0  0  0
 43 48  1  0  0  0  0
 44 49  1  0  0  0  0
 45 47  1  0  0  0  0
 45 50  1  0  0  0  0
 46 53  1  0  0  0  0
 47 55  1  0  0  0  0
 48 56  1  0  0  0  0
 49 57  1  0  0  0  0
 50 71  1  0  0  0  0
 51 55  1  0  0  0  0
 51 71  1  0  0  0  0
 52 56  1  0  0  0  0
 52 77  1  0  0  0  0
 53 75  1  0  0  0  0
 54 70  1  0  0  0  0
 55 69  1  0  0  0  0
 56 85  1  0  0  0  0
 57 58  1  0  0  0  0
 57 77  1  0  0  0  0
 59 66  1  0  0  0  0
 60 67  1  0  0  0  0
 61 67  1  0  0  0  0
 62 67  1  0  0  0  0
 63 78  1  0  0  0  0
 64 77  1  0  0  0  0
 65 67  1  0  0  0  0
 65 76  1  0  0  0  0
 66 78  1  0  0  0  0
 68 69  1  0  0  0  0
M  CHG  2  77   1  78   1
M  ISO  4  38 100  56 101  74 100  85 101
M  END
> <Batch ID>
0038

> <Smiles>
CNC(C)C(=O)NC(C(=O)N1Cc2cc([101O:1][101CH:1]3CCCCC(C)N(Cc4cc(Cl)cc([100NH:0][100C:0](=O)N5CCCC(n6nc(-c7ccc(Oc8ccc(F)cc8F)cc7)c(C(N)=O)c6N)C5)c4)C3)ccc2CC1C(=O)NC1CCCc2ccccc21)C(C)(C)C

> <Shape>
0.245

> <Color>
0.076

> <Negative vol penalty>
0.000

$$$$

  -OEChem-04042322003D

 87 96  0     1  0  0  0  0  0999 V2000
  -25.1035  -36.5088   23.2923 C   0  0  0  0  0  0  0  0  0  0  0  0
  -26.2356  -35.7825   22.9370 C   0  0  0  0  0  0  0  0  0  0  0  0
  -22.8631   -9.6026   19.9485 C   0  0  0  0  0  0  0  0  0  0  0  0
  -24.5765   -8.7678   21.4332 C   0  0  0  0  0  0  0  0  0  0  0  0
  -23.9494  -35.8423   23.7021 C   0  0  0  0  0  0  0  0  0  0  0  0
  -26.2147  -34.3894   22.9923 C   0  0  0  0  0  0  0  0  0  0  0  0
  -28.9223  -28.6303   19.7032 C   0  0  0  0  0  0  0  0  0  0  0  0
  -21.8804   -9.0736   20.7852 C   0  0  0  0  0  0  0  0  0  0  0  0
  -23.5938   -8.2388   22.2699 C   0  0  0  0  0  0  0  0  0  0  0  0
  -29.6097  -27.4512   19.9878 C   0  0  0  0  0  0  0  0  0  0  0  0
  -21.5793   -5.5245   22.3410 C   0  0  0  0  0  0  0  0  0  0  0  0
  -21.7638   -4.2266   22.8176 C   0  0  0  0  0  0  0  0  0  0  0  0
  -27.5347  -26.4049   20.6349 C   0  0  0  0  0  0  0  0  0  0  0  0
  -27.5734  -18.3374   20.1857 C   0  0  0  0  0  0  0  0  0  0  0  0
  -21.7315   -5.0553   25.0868 C   0  0  0  0  0  0  0  0  0  0  0  0
  -24.2112   -9.4496   20.2725 C   0  0  0  0  0  0  0  0  0  0  0  0
  -25.4532   -9.6769   18.0559 C   0  0  0  0  0  0  0  0  0  0  0  0
  -23.9112  -34.4400   23.7533 C   0  0  0  0  0  0  0  0  0  0  0  0
  -27.5352  -28.7091   19.8930 C   0  0  0  0  0  0  0  0  0  0  0  0
  -25.0595  -33.7036   23.4045 C   0  0  0  0  0  0  0  0  0  0  0  0
  -26.8317  -27.5853   20.3496 C   0  0  0  0  0  0  0  0  0  0  0  0
  -27.0291  -19.6068   20.3804 C   0  0  0  0  0  0  0  0  0  0  0  0
  -25.7608  -19.9057   19.8826 C   0  0  0  0  0  0  0  0  0  0  0  0
  -25.0369  -18.9352   19.1899 C   0  0  0  0  0  0  0  0  0  0  0  0
  -25.5813  -17.6657   18.9952 C   0  0  0  0  0  0  0  0  0  0  0  0
  -26.8495  -17.3669   19.4930 C   0  0  0  0  0  0  0  0  0  0  0  0
  -22.2457   -8.3917   21.9459 C   0  0  0  0  0  0  0  0  0  0  0  0
  -28.9163  -26.3391   20.4565 C   0  0  0  0  0  0  0  0  0  0  0  0
  -21.4710   -6.5878   23.2374 C   0  0  0  0  0  0  0  0  0  0  0  0
  -21.8399   -3.9920   24.1905 C   0  0  0  0  0  0  0  0  0  0  0  0
  -21.5470   -6.3532   24.6102 C   0  0  0  0  0  0  0  0  0  0  0  0
  -25.2268   -9.9954   19.4083 C   0  0  0  0  0  0  0  0  0  0  0  0
  -26.5223  -10.4591   17.6933 C   0  0  0  0  0  0  0  0  0  0  0  0
  -24.7591   -8.7562   17.2036 C   0  0  0  0  0  0  0  0  0  0  0  0
  -25.6180  -30.4584   21.7283 C   0  0  0  0  0  0  0  0  0  0  0  0
  -23.2847  -28.9796   20.0280 C   0  0  0  0  0  0  0  0  0  0  0  0
  -22.6315  -25.6527   18.7941 C   0  0  0  0  0  0  0  0  0  0  0  0
  -28.6696  -15.6436   19.7464 C   0  0  0  0  0  0  0  0  0  0  0  0
  -22.6562  -33.7655   24.2478 C   0  0  0  0  0  0  0  0  0  0  0  0
  -26.8046  -29.9799   19.5559 C   0  0  0  0  0  0  0  0  0  0  0  0
  -25.3393  -27.6119   20.5509 C   0  0  0  0  0  0  0  0  0  0  0  0
  -22.5957  -32.2758   23.9202 C   0  0  0  0  0  0  0  0  0  0  0  0
  -30.4220  -12.5524   19.5223 C   0  0  0  0  0  0  0  0  0  0  0  0
  -30.1194  -22.2215   18.5051 C   0  0  0  0  0  0  0  0  0  0  0  0
  -23.9213  -31.6007   24.2578 C   0  0  0  0  0  0  0  0  0  0  0  0
  -29.3096  -11.5175   19.3384 C   0  0  0  0  0  0  0  0  0  0  0  0
  -30.4090  -23.5434   19.2038 C   0  0  0  0  0  0  0  0  0  0  0  0
  -30.0017  -13.6746   20.4698 C   0  0  0  0  0  0  0  0  0  0  0  0
  -27.6244  -13.3016   19.9419 C   0  0  0  0  0  0  0  0  0  0  0  0
  -29.6305  -21.1634   19.4839 C   0  0  0  0  0  0  0  0  0  0  0  0
  -28.7156  -22.9577   20.9783 C   0  0  0  0  0  0  0  0  0  0  0  0
  -25.0679  -32.1905   23.4277 C   0  0  1  0  0  0  0  0  0  0  0  0
  -25.4653  -30.1080   20.2752 C   0  0  1  0  0  0  0  0  0  0  0  0
  -27.9776  -12.1858   18.9450 C   0  0  2  0  0  0  0  0  0  0  0  0
  -29.2046  -24.0242   20.0071 C   0  0  1  0  0  0  0  0  0  1  0  0
  -25.1805  -21.2687   20.0921 C   0  0  0  0  0  0  0  0  0  0  0  0
  -23.6765  -19.2565   18.6560 C   0  0  0  0  0  0  0  0  0  0  0  0
  -24.8032  -16.6265   18.2501 C   0  0  0  0  0  0  0  0  0  0  0  0
  -21.2844  -24.8787   16.8234 C   0  0  0  0  0  0  0  0  0  0  0  0
  -21.0193  -28.7019   22.0530 C   0  0  0  0  0  0  0  0  0  0  0  0
  -20.3052  -26.6177   20.8638 C   0  0  0  0  0  0  0  0  0  0  0  0
  -20.2784  -28.8061   19.6667 C   0  0  0  0  0  0  0  0  0  0  0  0
  -24.9193  -24.1453   17.6751 C   0  0  0  0  0  0  0  0  0  0  0  0
  -27.8299  -20.6337   21.1255 C   0  0  0  0  0  0  0  0  0  0  0  0
  -22.4939  -27.7031   20.1838 C   0  0  1  0  0  0  0  0  0  0  0  0
  -22.6766  -25.1948   17.3475 C   0  0  2  0  0  0  0  0  0  0  0  0
  -21.0506  -27.9597   20.7021 C   0  0  0  0  0  0  0  0  0  0  0  0
  -26.0833  -10.9086   19.8734 N   0  0  0  0  0  0  0  0  0  0  0  0
  -26.8584  -11.1707   18.8072 N   0  0  0  0  0  0  0  0  0  0  0  0
  -24.6709  -28.8795   20.2134 N   0  0  0  0  0  0  0  0  0  0  0  0
  -28.7342  -14.2634   20.0319 N   0  0  0  0  0  0  0  0  0  0  0  0
  -27.1984  -10.6008   16.5334 N   0  0  0  0  0  0  0  0  0  0  0  0
  -23.6834   -8.0331   17.7368 N   0  0  0  0  0  0  0  0  0  0  0  0
  -27.4213  -16.0837   19.3075 N   0  0  0  0  0  0  0  0  0  0  0  0
  -25.0397  -31.6630   22.0803 N   0  0  0  0  0  0  0  0  0  0  0  0
  -22.5537  -27.0258   18.8930 N   0  0  0  0  0  0  0  0  0  0  0  0
  -28.4232  -21.6838   20.2271 N   0  3  2  0  0  0  0  0  0  0  0  0
  -23.5168  -23.9708   17.2176 N   0  3  0  0  0  0  0  0  0  0  0  0
  -25.0936   -8.5680   16.0094 O   0  0  0  0  0  0  0  0  0  0  0  0
  -26.2150  -29.6919   22.4751 O   0  0  0  0  0  0  0  0  0  0  0  0
  -22.6952  -30.0255   19.7449 O   0  0  0  0  0  0  0  0  0  0  0  0
  -22.6585  -24.8703   19.7416 O   0  0  0  0  0  0  0  0  0  0  0  0
  -29.6565  -16.3758   19.8553 O   0  0  0  0  0  0  0  0  0  0  0  0
  -21.2870   -7.8756   22.7627 O   0  0  0  0  0  0  0  0  0  0  0  0
  -29.5848  -25.1872   20.7357 O   0  0  0  0  0  0  0  0  0  1  0  0
  -22.0155   -2.7454   24.6480 F   0  0  0  0  0  0  0  0  0  0  0  0
  -21.4424   -7.3705   25.4762 F   0  0  0  0  0  0  0  0  0  0  0  0
  1  2  1  0  0  0  0
  1  5  2  0  0  0  0
  2  6  2  0  0  0  0
  3  8  2  0  0  0  0
  3 16  1  0  0  0  0
  4  9  1  0  0  0  0
  4 16  2  0  0  0  0
  5 18  1  0  0  0  0
  6 20  1  0  0  0  0
  7 10  2  0  0  0  0
  7 19  1  0  0  0  0
  8 27  1  0  0  0  0
  9 27  2  0  0  0  0
 10 28  1  0  0  0  0
 11 12  2  0  0  0  0
 11 29  1  0  0  0  0
 12 30  1  0  0  0  0
 13 21  1  0  0  0  0
 13 28  2  0  0  0  0
 14 22  1  0  0  0  0
 14 26  2  0  0  0  0
 15 30  2  0  0  0  0
 15 31  1  0  0  0  0
 16 32  1  0  0  0  0
 17 32  1  0  0  0  0
 17 33  2  0  0  0  0
 17 34  1  0  0  0  0
 18 20  2  0  0  0  0
 18 39  1  0  0  0  0
 19 21  2  0  0  0  0
 19 40  1  0  0  0  0
 20 52  1  0  0  0  0
 21 41  1  0  0  0  0
 22 23  2  0  0  0  0
 22 64  1  0  0  0  0
 23 24  1  0  0  0  0
 23 56  1  0  0  0  0
 24 25  2  0  0  0  0
 24 57  1  0  0  0  0
 25 26  1  0  0  0  0
 25 58  1  0  0  0  0
 26 74  1  0  0  0  0
 27 84  1  0  0  0  0
 28 85  1  0  0  0  0
 29 31  2  0  0  0  0
 29 84  1  0  0  0  0
 30 86  1  0  0  0  0
 31 87  1  0  0  0  0
 32 68  2  0  0  0  0
 33 69  1  0  0  0  0
 33 72  1  0  0  0  0
 34 73  1  0  0  0  0
 34 79  2  0  0  0  0
 35 53  1  0  0  0  0
 35 75  1  0  0  0  0
 35 80  2  0  0  0  0
 36 65  1  0  0  0  0
 36 70  1  0  0  0  0
 36 81  2  0  0  0  0
 37 66  1  0  0  0  0
 37 76  1  0  0  0  0
 37 82  2  0  0  0  0
 38 71  1  0  0  0  0
 38 74  1  0  0  0  0
 38 83  2  0  0  0  0
 39 42  1  0  0  0  0
 40 53  1  0  0  0  0
 41 70  1  0  0  0  0
 42 45  1  0  0  0  0
 43 46  1  0  0  0  0
 43 48  1  0  0  0  0
 44 47  1  0  0  0  0
 44 50  1  0  0  0  0
 45 52  1  0  0  0  0
 46 54  1  0  0  0  0
 47 55  1  0  0  0  0
 48 71  1  0  0  0  0
 49 54  1  0  0  0  0
 49 71  1  0  0  0  0
 50 77  1  0  0  0  0
 51 55  1  0  0  0  0
 51 77  1  0  0  0  0
 52 75  1  0  0  0  0
 53 70  1  0  0  0  0
 54 69  1  0  0  0  0
 55 85  1  0  0  0  0
 59 66  1  0  0  0  0
 60 67  1  0  0  0  0
 61 67  1  0  0  0  0
 62 67  1  0  0  0  0
 63 78  1  0  0  0  0
 64 77  1  0  0  0  0
 65 67  1  0  0  0  0
 65 76  1  0  0  0  0
 66 78  1  0  0  0  0
 68 69  1  0  0  0  0
M  CHG  2  77   1  78   1
M  ISO  4  38 100  55 101  74 100  85 101
M  END
> <Batch ID>
0038

> <Smiles>
CNC(C)C(=O)NC(C(=O)N1Cc2cc([101O:1][101CH:1]3CCCN(Cc4cc([100NH:0][100C:0](=O)N5CCCC(n6nc(-c7ccc(Oc8ccc(F)cc8F)cc7)c(C(N)=O)c6N)C5)c(C)c(C)c4C)C3)ccc2CC1C(=O)NC1CCCc2ccccc21)C(C)(C)C

> <Shape>
0.332

> <Color>
0.078

> <Negative vol penalty>
0.000

$$$$

  -OEChem-04042322003D

 87 96  0     1  0  0  0  0  0999 V2000
  -25.0673  -35.6838   22.0028 C   0  0  0  0  0  0  0  0  0  0  0  0
  -25.8019  -34.5030   21.9655 C   0  0  0  0  0  0  0  0  0  0  0  0
  -23.9735  -10.8181   23.5479 C   0  0  0  0  0  0  0  0  0  0  0  0
  -24.5848   -9.2790   21.7887 C   0  0  0  0  0  0  0  0  0  0  0  0
  -23.7665  -35.6786   22.5047 C   0  0  0  0  0  0  0  0  0  0  0  0
  -25.2365  -33.3164   22.4311 C   0  0  0  0  0  0  0  0  0  0  0  0
  -26.0879  -29.4089   19.3244 C   0  0  0  0  0  0  0  0  0  0  0  0
  -23.5879   -9.7457   24.3522 C   0  0  0  0  0  0  0  0  0  0  0  0
  -24.1992   -8.2066   22.5931 C   0  0  0  0  0  0  0  0  0  0  0  0
  -27.3500  -28.8187   19.3747 C   0  0  0  0  0  0  0  0  0  0  0  0
  -21.3192   -6.7002   23.5244 C   0  0  0  0  0  0  0  0  0  0  0  0
  -20.5499   -5.6948   22.9389 C   0  0  0  0  0  0  0  0  0  0  0  0
  -26.4617  -27.0506   20.7545 C   0  0  0  0  0  0  0  0  0  0  0  0
  -30.4311  -18.8460   20.1880 C   0  0  0  0  0  0  0  0  0  0  0  0
  -22.2670   -4.0772   23.4604 C   0  0  0  0  0  0  0  0  0  0  0  0
  -24.4719  -10.5847   22.2661 C   0  0  0  0  0  0  0  0  0  0  0  0
  -24.0617  -12.7565   20.9922 C   0  0  0  0  0  0  0  0  0  0  0  0
  -23.1814  -34.4895   22.9677 C   0  0  0  0  0  0  0  0  0  0  0  0
  -25.0037  -28.8292   19.9990 C   0  0  0  0  0  0  0  0  0  0  0  0
  -23.9271  -33.2955   22.9408 C   0  0  0  0  0  0  0  0  0  0  0  0
  -25.1862  -27.6340   20.7091 C   0  0  0  0  0  0  0  0  0  0  0  0
  -30.7018  -20.1680   20.5409 C   0  0  0  0  0  0  0  0  0  0  0  0
  -28.3421  -20.5606   20.8799 C   0  0  0  0  0  0  0  0  0  0  0  0
  -29.6572  -21.0253   20.8869 C   0  0  0  0  0  0  0  0  0  0  0  0
  -28.0714  -19.2385   20.5270 C   0  0  0  0  0  0  0  0  0  0  0  0
  -29.1160  -18.3812   20.1810 C   0  0  0  0  0  0  0  0  0  0  0  0
  -23.7008   -8.4400   23.8748 C   0  0  0  0  0  0  0  0  0  0  0  0
  -27.5377  -27.6410   20.0922 C   0  0  0  0  0  0  0  0  0  0  0  0
  -22.5625   -6.3941   24.0778 C   0  0  0  0  0  0  0  0  0  0  0  0
  -21.0237   -4.3833   22.9069 C   0  0  0  0  0  0  0  0  0  0  0  0
  -23.0364   -5.0826   24.0459 C   0  0  0  0  0  0  0  0  0  0  0  0
  -24.8699  -11.6921   21.4346 C   0  0  0  0  0  0  0  0  0  0  0  0
  -24.9038  -13.5367   20.2382 C   0  0  0  0  0  0  0  0  0  0  0  0
  -22.6738  -13.0168   21.2408 C   0  0  0  0  0  0  0  0  0  0  0  0
  -23.0753  -29.7485   22.3527 C   0  0  0  0  0  0  0  0  0  0  0  0
  -21.5367  -26.9809   21.6487 C   0  0  0  0  0  0  0  0  0  0  0  0
  -22.4587  -23.5913   20.8253 C   0  0  0  0  0  0  0  0  0  0  0  0
  -29.8007  -16.0683   19.4543 C   0  0  0  0  0  0  0  0  0  0  0  0
  -21.7890  -34.5424   23.5450 C   0  0  0  0  0  0  0  0  0  0  0  0
  -23.6427  -29.4638   19.9128 C   0  0  0  0  0  0  0  0  0  0  0  0
  -24.0504  -26.9608   21.4338 C   0  0  0  0  0  0  0  0  0  0  0  0
  -21.1298  -33.1714   23.6718 C   0  0  0  0  0  0  0  0  0  0  0  0
  -29.5839  -12.6359   18.5331 C   0  0  0  0  0  0  0  0  0  0  0  0
  -30.1462  -24.3502   17.9528 C   0  0  0  0  0  0  0  0  0  0  0  0
  -22.0973  -32.1692   24.2932 C   0  0  0  0  0  0  0  0  0  0  0  0
  -28.2717  -12.1719   19.1694 C   0  0  0  0  0  0  0  0  0  0  0  0
  -29.8639  -25.7570   18.4635 C   0  0  0  0  0  0  0  0  0  0  0  0
  -30.3206  -13.6386   19.4194 C   0  0  0  0  0  0  0  0  0  0  0  0
  -28.2090  -14.3298   20.4835 C   0  0  0  0  0  0  0  0  0  0  0  0
  -30.6142  -23.4295   19.0708 C   0  0  0  0  0  0  0  0  0  0  0  0
  -29.3551  -24.8093   20.7444 C   0  0  0  0  0  0  0  0  0  0  0  0
  -23.3396  -31.9835   23.4137 C   0  0  1  0  0  0  0  0  0  0  0  0
  -22.7231  -29.0638   21.0624 C   0  0  1  0  0  0  0  0  0  0  0  0
  -27.3995  -13.3681   19.5983 C   0  0  2  0  0  0  0  0  0  0  0  0
  -28.8849  -25.7388   19.6332 C   0  0  1  0  0  0  0  0  0  1  0  0
  -32.1184  -20.6418   20.5369 C   0  0  0  0  0  0  0  0  0  0  0  0
  -27.2220  -21.4808   21.2510 C   0  0  0  0  0  0  0  0  0  0  0  0
  -26.6591  -18.7426   20.5186 C   0  0  0  0  0  0  0  0  0  0  0  0
  -21.2410  -21.8468   19.4944 C   0  0  0  0  0  0  0  0  0  0  0  0
  -20.4819  -26.0633   24.3607 C   0  0  0  0  0  0  0  0  0  0  0  0
  -20.6980  -23.6988   23.5666 C   0  0  0  0  0  0  0  0  0  0  0  0
  -19.1492  -25.2680   22.3997 C   0  0  0  0  0  0  0  0  0  0  0  0
  -24.7569  -23.2141   18.9992 C   0  0  0  0  0  0  0  0  0  0  0  0
  -29.9518  -22.4471   21.2648 C   0  0  0  0  0  0  0  0  0  0  0  0
  -21.6455  -25.5490   22.1141 C   0  0  1  0  0  0  0  0  0  0  0  0
  -22.3227  -22.9156   19.4728 C   0  0  2  0  0  0  0  0  0  0  0  0
  -20.5162  -25.1621   23.1102 C   0  0  0  0  0  0  0  0  0  0  0  0
  -26.1288  -11.7845   20.9978 N   0  0  0  0  0  0  0  0  0  0  0  0
  -26.1179  -12.9162   20.2731 N   0  0  0  0  0  0  0  0  0  0  0  0
  -22.7402  -27.6233   21.3249 N   0  0  0  0  0  0  0  0  0  0  0  0
  -29.4336  -14.7461   19.7823 N   0  0  0  0  0  0  0  0  0  0  0  0
  -24.7169  -14.6861   19.5553 N   0  0  0  0  0  0  0  0  0  0  0  0
  -21.9567  -12.1132   22.0368 N   0  0  0  0  0  0  0  0  0  0  0  0
  -28.8639  -17.0344   19.8201 N   0  0  0  0  0  0  0  0  0  0  0  0
  -23.0373  -31.1282   22.2861 N   0  0  0  0  0  0  0  0  0  0  0  0
  -21.6847  -24.7295   20.9077 N   0  0  0  0  0  0  0  0  0  0  0  0
  -29.5940  -23.4302   20.1844 N   0  3  2  0  0  0  0  0  0  0  0  0
  -23.6099  -22.2737   19.0828 N   0  3  0  0  0  0  0  0  0  0  0  0
  -22.0830  -14.0121   20.7574 O   0  0  0  0  0  0  0  0  0  0  0  0
  -23.3591  -29.0749   23.3362 O   0  0  0  0  0  0  0  0  0  0  0  0
  -20.4242  -27.5078   21.5683 O   0  0  0  0  0  0  0  0  0  0  0  0
  -23.1766  -23.1513   21.7206 O   0  0  0  0  0  0  0  0  0  0  0  0
  -30.8550  -16.3222   18.8661 O   0  0  0  0  0  0  0  0  0  0  0  0
  -23.3248   -7.3933   24.6594 O   0  0  0  0  0  0  0  0  0  0  0  0
  -28.7687  -27.0632   20.1435 O   0  0  0  0  0  0  0  0  0  1  0  0
  -20.2841   -3.4176   22.3460 F   0  0  0  0  0  0  0  0  0  0  0  0
  -24.2295   -4.7823   24.5770 F   0  0  0  0  0  0  0  0  0  0  0  0
  1  2  1  0  0  0  0
  1  5  2  0  0  0  0
  2  6  2  0  0  0  0
  3  8  2  0  0  0  0
  3 16  1  0  0  0  0
  4  9  1  0  0  0  0
  4 16  2  0  0  0  0
  5 18  1  0  0  0  0
  6 20  1  0  0  0  0
  7 10  2  0  0  0  0
  7 19  1  0  0  0  0
  8 27  1  0  0  0  0
  9 27  2  0  0  0  0
 10 28  1  0  0  0  0
 11 12  2  0  0  0  0
 11 29  1  0  0  0  0
 12 30  1  0  0  0  0
 13 21  1  0  0  0  0
 13 28  2  0  0  0  0
 14 22  2  0  0  0  0
 14 26  1  0  0  0  0
 15 30  2  0  0  0  0
 15 31  1  0  0  0  0
 16 32  1  0  0  0  0
 17 32  1  0  0  0  0
 17 33  2  0  0  0  0
 17 34  1  0  0  0  0
 18 20  2  0  0  0  0
 18 39  1  0  0  0  0
 19 21  2  0  0  0  0
 19 40  1  0  0  0  0
 20 52  1  0  0  0  0
 21 41  1  0  0  0  0
 22 24  1  0  0  0  0
 22 56  1  0  0  0  0
 23 24  2  0  0  0  0
 23 25  1  0  0  0  0
 23 57  1  0  0  0  0
 24 64  1  0  0  0  0
 25 26  2  0  0  0  0
 25 58  1  0  0  0  0
 26 74  1  0  0  0  0
 27 84  1  0  0  0  0
 28 85  1  0  0  0  0
 29 31  2  0  0  0  0
 29 84  1  0  0  0  0
 30 86  1  0  0  0  0
 31 87  1  0  0  0  0
 32 68  2  0  0  0  0
 33 69  1  0  0  0  0
 33 72  1  0  0  0  0
 34 73  1  0  0  0  0
 34 79  2  0  0  0  0
 35 53  1  0  0  0  0
 35 75  1  0  0  0  0
 35 80  2  0  0  0  0
 36 65  1  0  0  0  0
 36 70  1  0  0  0  0
 36 81  2  0  0  0  0
 37 66  1  0  0  0  0
 37 76  1  0  0  0  0
 37 82  2  0  0  0  0
 38 71  1  0  0  0  0
 38 74  1  0  0  0  0
 38 83  2  0  0  0  0
 39 42  1  0  0  0  0
 40 53  1  0  0  0  0
 41 70  1  0  0  0  0
 42 45  1  0  0  0  0
 43 46  1  0  0  0  0
 43 48  1  0  0  0  0
 44 47  1  0  0  0  0
 44 50  1  0  0  0  0
 45 52  1  0  0  0  0
 46 54  1  0  0  0  0
 47 55  1  0  0  0  0
 48 71  1  0  0  0  0
 49 54  1  0  0  0  0
 49 71  1  0  0  0  0
 50 77  1  0  0  0  0
 51 55  1  0  0  0  0
 51 77  1  0  0  0  0
 52 75  1  0  0  0  0
 53 70  1  0  0  0  0
 54 69  1  0  0  0  0
 55 85  1  0  0  0  0
 59 66  1  0  0  0  0
 60 67  1  0  0  0  0
 61 67  1  0  0  0  0
 62 67  1  0  0  0  0
 63 78  1  0  0  0  0
 64 77  1  0  0  0  0
 65 67  1  0  0  0  0
 65 76  1  0  0  0  0
 66 78  1  0  0  0  0
 68 69  1  0  0  0  0
M  CHG  2  77   1  78   1
M  ISO  4  38 100  55 101  74 100  85 101
M  END
> <Batch ID>
0038

> <Smiles>
CNC(C)C(=O)NC(C(=O)N1Cc2cc([101O:1][101CH:1]3CCCN(Cc4c(C)cc([100NH:0][100C:0](=O)N5CCCC(n6nc(-c7ccc(Oc8ccc(F)cc8F)cc7)c(C(N)=O)c6N)C5)c(C)c4C)C3)ccc2CC1C(=O)NC1CCCc2ccccc21)C(C)(C)C

> <Shape>
0.335

> <Color>
0.157

> <Negative vol penalty>
0.000

$$$$

  -OEChem-04042322003D

 82 90  0     1  0  0  0  0  0999 V2000
  -40.7742  -30.7040   18.9589 C   0  0  0  0  0  0  0  0  0  0  0  0
  -40.6934  -29.4003   19.4377 C   0  0  0  0  0  0  0  0  0  0  0  0
  -23.0791   -9.8613   19.9530 C   0  0  0  0  0  0  0  0  0  0  0  0
  -23.8315   -9.8894   22.2487 C   0  0  0  0  0  0  0  0  0  0  0  0
  -39.7439  -31.6064   19.2196 C   0  0  0  0  0  0  0  0  0  0  0  0
  -39.5825  -28.9985   20.1785 C   0  0  0  0  0  0  0  0  0  0  0  0
  -36.9544  -23.4669   20.1670 C   0  0  0  0  0  0  0  0  0  0  0  0
  -31.8715  -18.3844   24.1553 C   0  0  0  0  0  0  0  0  0  0  0  0
  -30.4847  -18.3788   24.0067 C   0  0  0  0  0  0  0  0  0  0  0  0
  -22.3353   -8.7099   20.2108 C   0  0  0  0  0  0  0  0  0  0  0  0
  -23.0876   -8.7379   22.5066 C   0  0  0  0  0  0  0  0  0  0  0  0
  -37.0612  -22.3759   21.0285 C   0  0  0  0  0  0  0  0  0  0  0  0
  -19.3829   -7.9240   21.6595 C   0  0  0  0  0  0  0  0  0  0  0  0
  -18.0776   -7.8724   21.1704 C   0  0  0  0  0  0  0  0  0  0  0  0
  -35.0834  -23.1126   22.1968 C   0  0  0  0  0  0  0  0  0  0  0  0
  -32.0543  -16.6181   22.5170 C   0  0  0  0  0  0  0  0  0  0  0  0
  -18.6431   -5.9180   19.8674 C   0  0  0  0  0  0  0  0  0  0  0  0
  -23.8272  -10.4511   20.9720 C   0  0  0  0  0  0  0  0  0  0  0  0
  -24.1676  -12.9753   20.8305 C   0  0  0  0  0  0  0  0  0  0  0  0
  -38.6153  -31.2127   19.9558 C   0  0  0  0  0  0  0  0  0  0  0  0
  -35.9158  -24.3965   20.3211 C   0  0  0  0  0  0  0  0  0  0  0  0
  -38.5367  -29.8969   20.4506 C   0  0  0  0  0  0  0  0  0  0  0  0
  -34.9642  -24.2131   21.3344 C   0  0  0  0  0  0  0  0  0  0  0  0
  -32.6564  -17.5041   23.4104 C   0  0  0  0  0  0  0  0  0  0  0  0
  -29.8825  -17.4928   23.1133 C   0  0  0  0  0  0  0  0  0  0  0  0
  -30.6673  -16.6124   22.3685 C   0  0  0  0  0  0  0  0  0  0  0  0
  -22.3395   -8.1482   21.4876 C   0  0  0  0  0  0  0  0  0  0  0  0
  -36.1273  -22.2002   22.0454 C   0  0  0  0  0  0  0  0  0  0  0  0
  -20.3183   -6.9726   21.2525 C   0  0  0  0  0  0  0  0  0  0  0  0
  -17.7077   -6.8694   20.2744 C   0  0  0  0  0  0  0  0  0  0  0  0
  -19.9484   -5.9697   20.3565 C   0  0  0  0  0  0  0  0  0  0  0  0
  -24.5963  -11.6402   20.7061 C   0  0  0  0  0  0  0  0  0  0  0  0
  -25.2603  -13.7224   20.4641 C   0  0  0  0  0  0  0  0  0  0  0  0
  -22.8953  -13.4938   21.2407 C   0  0  0  0  0  0  0  0  0  0  0  0
  -35.7656  -27.5065   20.9606 C   0  0  0  0  0  0  0  0  0  0  0  0
  -32.5999  -27.0715   20.4027 C   0  0  0  0  0  0  0  0  0  0  0  0
  -29.9415  -24.9334   20.3087 C   0  0  0  0  0  0  0  0  0  0  0  0
  -30.7252  -14.7737   20.6474 C   0  0  0  0  0  0  0  0  0  0  0  0
  -37.5487  -32.2369   20.2527 C   0  0  0  0  0  0  0  0  0  0  0  0
  -35.7992  -25.5533   19.3669 C   0  0  0  0  0  0  0  0  0  0  0  0
  -33.8187  -25.1714   21.5294 C   0  0  0  0  0  0  0  0  0  0  0  0
  -36.2324  -31.6258   20.7261 C   0  0  0  0  0  0  0  0  0  0  0  0
  -29.6203  -12.3380   18.2971 C   0  0  0  0  0  0  0  0  0  0  0  0
  -36.4889  -30.5667   21.7935 C   0  0  0  0  0  0  0  0  0  0  0  0
  -28.1795  -12.0491   18.7246 C   0  0  0  0  0  0  0  0  0  0  0  0
  -30.5313  -12.5782   19.4997 C   0  0  0  0  0  0  0  0  0  0  0  0
  -28.6193  -13.3135   20.8682 C   0  0  0  0  0  0  0  0  0  0  0  0
  -37.3363  -29.4163   21.2369 C   0  0  1  0  0  0  0  0  0  0  0  0
  -34.9975  -26.7194   19.9368 C   0  0  1  0  0  0  0  0  0  0  0  0
  -27.6505  -13.1290   19.6887 C   0  0  2  0  0  0  0  0  0  0  0  0
  -28.3947  -17.5083   22.9753 C   0  0  0  0  0  0  0  0  0  0  0  0
  -27.4741  -24.8769   19.8550 C   0  0  0  0  0  0  0  0  0  0  0  0
  -32.0727  -28.3460   23.1243 C   0  0  0  0  0  0  0  0  0  0  0  0
  -29.7507  -27.4142   23.0332 C   0  0  0  0  0  0  0  0  0  0  0  0
  -30.5004  -29.0607   21.3156 C   0  0  0  0  0  0  0  0  0  0  0  0
  -30.2814  -23.0441   18.0561 C   0  0  0  0  0  0  0  0  0  0  0  0
  -34.1481  -17.5109   23.5708 C   0  0  0  0  0  0  0  0  0  0  0  0
  -36.2707  -18.7419   23.1037 C   0  0  0  0  0  0  0  0  0  0  0  0
  -36.8174  -19.9467   22.3636 C   0  0  0  0  0  0  0  0  0  1  0  0
  -31.4061  -26.7011   21.2492 C   0  0  1  0  0  0  0  0  0  0  0  0
  -28.8647  -24.7105   19.2622 C   0  0  2  0  0  0  0  0  0  0  0  0
  -30.9551  -27.8633   22.1784 C   0  0  0  0  0  0  0  0  0  0  0  0
  -25.8626  -11.5416   20.2928 N   0  0  0  0  0  0  0  0  0  0  0  0
  -26.2389  -12.8243   20.1543 N   0  0  0  0  0  0  0  0  0  0  0  0
  -33.7514  -26.2903   20.5749 N   0  0  0  0  0  0  0  0  0  0  0  0
  -29.9687  -13.6164   20.3660 N   0  0  0  0  0  0  0  0  0  0  0  0
  -25.4700  -15.0533   20.3799 N   0  0  0  0  0  0  0  0  0  0  0  0
  -21.8830  -12.5869   21.5827 N   0  0  0  0  0  0  0  0  0  0  0  0
  -30.0744  -15.7055   21.4554 N   0  0  0  0  0  0  0  0  0  0  0  0
  -36.5220  -28.5336   20.4293 N   0  0  0  0  0  0  0  0  0  0  0  0
  -30.3760  -26.2419   20.3238 N   0  0  0  0  0  0  0  0  0  0  0  0
  -28.9717  -23.3373   18.6931 N   0  3  0  0  0  0  0  0  0  0  0  0
  -34.7999  -18.6749   22.9119 N   0  3  0  0  0  0  0  0  0  0  0  0
  -22.6580  -14.7247   21.2862 O   0  0  0  0  0  0  0  0  0  0  0  0
  -35.6773  -27.2052   22.1452 O   0  0  0  0  0  0  0  0  0  0  0  0
  -32.5116  -28.0144   19.6123 O   0  0  0  0  0  0  0  0  0  0  0  0
  -30.3533  -24.0372   21.0421 O   0  0  0  0  0  0  0  0  0  0  0  0
  -31.8556  -14.9391   20.1820 O   0  0  0  0  0  0  0  0  0  0  0  0
  -21.6136   -7.0247   21.7396 O   0  0  0  0  0  0  0  0  0  0  0  0
  -36.2295  -21.1365   22.8880 O   0  0  0  0  0  0  0  0  0  1  0  0
  -16.4538   -6.8191   19.8060 F   0  0  0  0  0  0  0  0  0  0  0  0
  -20.8423   -5.0522   19.9628 F   0  0  0  0  0  0  0  0  0  0  0  0
  1  2  1  0  0  0  0
  1  5  2  0  0  0  0
  2  6  2  0  0  0  0
  3 10  2  0  0  0  0
  3 18  1  0  0  0  0
  4 11  1  0  0  0  0
  4 18  2  0  0  0  0
  5 20  1  0  0  0  0
  6 22  1  0  0  0  0
  7 12  2  0  0  0  0
  7 21  1  0  0  0  0
  8  9  2  0  0  0  0
  8 24  1  0  0  0  0
  9 25  1  0  0  0  0
 10 27  1  0  0  0  0
 11 27  2  0  0  0  0
 12 28  1  0  0  0  0
 13 14  2  0  0  0  0
 13 29  1  0  0  0  0
 14 30  1  0  0  0  0
 15 23  1  0  0  0  0
 15 28  2  0  0  0  0
 16 24  2  0  0  0  0
 16 26  1  0  0  0  0
 17 30  2  0  0  0  0
 17 31  1  0  0  0  0
 18 32  1  0  0  0  0
 19 32  1  0  0  0  0
 19 33  2  0  0  0  0
 19 34  1  0  0  0  0
 20 22  2  0  0  0  0
 20 39  1  0  0  0  0
 21 23  2  0  0  0  0
 21 40  1  0  0  0  0
 22 48  1  0  0  0  0
 23 41  1  0  0  0  0
 24 57  1  0  0  0  0
 25 26  2  0  0  0  0
 25 51  1  0  0  0  0
 26 69  1  0  0  0  0
 27 79  1  0  0  0  0
 28 80  1  0  0  0  0
 29 31  2  0  0  0  0
 29 79  1  0  0  0  0
 30 81  1  0  0  0  0
 31 82  1  0  0  0  0
 32 63  2  0  0  0  0
 33 64  1  0  0  0  0
 33 67  1  0  0  0  0
 34 68  1  0  0  0  0
 34 74  2  0  0  0  0
 35 49  1  0  0  0  0
 35 70  1  0  0  0  0
 35 75  2  0  0  0  0
 36 60  1  0  0  0  0
 36 65  1  0  0  0  0
 36 76  2  0  0  0  0
 37 61  1  0  0  0  0
 37 71  1  0  0  0  0
 37 77  2  0  0  0  0
 38 66  1  0  0  0  0
 38 69  1  0  0  0  0
 38 78  2  0  0  0  0
 39 42  1  0  0  0  0
 40 49  1  0  0  0  0
 41 65  1  0  0  0  0
 42 44  1  0  0  0  0
 43 45  1  0  0  0  0
 43 46  1  0  0  0  0
 44 48  1  0  0  0  0
 45 50  1  0  0  0  0
 46 66  1  0  0  0  0
 47 50  1  0  0  0  0
 47 66  1  0  0  0  0
 48 70  1  0  0  0  0
 49 65  1  0  0  0  0
 50 64  1  0  0  0  0
 52 61  1  0  0  0  0
 53 62  1  0  0  0  0
 54 62  1  0  0  0  0
 55 62  1  0  0  0  0
 56 72  1  0  0  0  0
 57 73  1  0  0  0  0
 58 59  1  0  0  0  0
 58 73  1  0  0  0  0
 59 80  1  0  0  0  0
 60 62  1  0  0  0  0
 60 71  1  0  0  0  0
 61 72  1  0  0  0  0
 63 64  1  0  0  0  0
M  CHG  2  72   1  73   1
M  ISO  4  38 100  59 101  69 100  80 101
M  END
> <Batch ID>
0038

> <Smiles>
CNC(C)C(=O)NC(C(=O)N1Cc2cc([101O:1][101CH2:1]CNCc3ccc(C)c([100NH:0][100C:0](=O)N4CCCC(n5nc(-c6ccc(Oc7ccc(F)cc7F)cc6)c(C(N)=O)c5N)C4)c3)ccc2CC1C(=O)NC1CCCc2ccccc21)C(C)(C)C

> <Shape>
0.197

> <Color>
0.192

> <Negative vol penalty>
0.000

$$$$

  -OEChem-04042322003D

 84 92  0     1  0  0  0  0  0999 V2000
  -29.9319  -12.4597   19.8854 C   0  0  0  0  0  0  0  0  0  0  0  0
  -29.6600  -13.7961   19.6105 C   0  0  0  0  0  0  0  0  0  0  0  0
  -30.5576  -21.5251   21.0117 C   0  0  0  0  0  0  0  0  0  0  0  0
  -28.5154  -21.0647   19.8057 C   0  0  0  0  0  0  0  0  0  0  0  0
  -28.8862  -11.5429   19.9846 C   0  0  0  0  0  0  0  0  0  0  0  0
  -28.3422  -14.2162   19.4336 C   0  0  0  0  0  0  0  0  0  0  0  0
  -24.0913  -19.8760   20.5355 C   0  0  0  0  0  0  0  0  0  0  0  0
  -30.9492  -20.1954   20.8563 C   0  0  0  0  0  0  0  0  0  0  0  0
  -28.9070  -19.7350   19.6502 C   0  0  0  0  0  0  0  0  0  0  0  0
  -23.1985  -20.7014   19.8535 C   0  0  0  0  0  0  0  0  0  0  0  0
  -32.3207  -16.8355   21.0885 C   0  0  0  0  0  0  0  0  0  0  0  0
  -32.8451  -16.1780   22.2012 C   0  0  0  0  0  0  0  0  0  0  0  0
  -19.2368  -25.8540   22.2686 C   0  0  0  0  0  0  0  0  0  0  0  0
  -21.4672  -19.0439   20.1262 C   0  0  0  0  0  0  0  0  0  0  0  0
  -21.2704  -26.7454   23.2210 C   0  0  0  0  0  0  0  0  0  0  0  0
  -30.7784  -16.5510   23.3956 C   0  0  0  0  0  0  0  0  0  0  0  0
  -29.3407  -21.9597   20.4864 C   0  0  0  0  0  0  0  0  0  0  0  0
  -19.9298  -24.7170   21.8531 C   0  0  0  0  0  0  0  0  0  0  0  0
  -29.2065  -24.4067   19.7779 C   0  0  0  0  0  0  0  0  0  0  0  0
  -27.5542  -11.9538   19.8184 C   0  0  0  0  0  0  0  0  0  0  0  0
  -23.6811  -18.6215   21.0093 C   0  0  0  0  0  0  0  0  0  0  0  0
  -27.2778  -13.3038   19.5294 C   0  0  0  0  0  0  0  0  0  0  0  0
  -22.3560  -18.2055   20.8162 C   0  0  0  0  0  0  0  0  0  0  0  0
  -21.2931  -24.5942   22.1215 C   0  0  0  0  0  0  0  0  0  0  0  0
  -21.9634  -25.6084   22.8054 C   0  0  0  0  0  0  0  0  0  0  0  0
  -30.1239  -19.3003   20.1755 C   0  0  0  0  0  0  0  0  0  0  0  0
  -21.8870  -20.2842   19.6461 C   0  0  0  0  0  0  0  0  0  0  0  0
  -31.0252  -17.3509   21.1293 C   0  0  0  0  0  0  0  0  0  0  0  0
  -32.0740  -16.0357   23.3548 C   0  0  0  0  0  0  0  0  0  0  0  0
  -30.2540  -17.2086   22.2828 C   0  0  0  0  0  0  0  0  0  0  0  0
  -19.9071  -26.8682   22.9525 C   0  0  0  0  0  0  0  0  0  0  0  0
  -28.9354  -23.3331   20.6471 C   0  0  0  0  0  0  0  0  0  0  0  0
  -28.6092  -25.4904   20.3740 C   0  0  0  0  0  0  0  0  0  0  0  0
  -19.1990  -23.6566   21.1306 C   0  0  0  0  0  0  0  0  0  0  0  0
  -29.9332  -24.4230   18.5420 C   0  0  0  0  0  0  0  0  0  0  0  0
  -24.5417  -15.6159   20.4356 C   0  0  0  0  0  0  0  0  0  0  0  0
  -22.4829  -14.9744   22.8588 C   0  0  0  0  0  0  0  0  0  0  0  0
  -19.7762  -15.9482   24.6952 C   0  0  0  0  0  0  0  0  0  0  0  0
  -24.0318  -26.0510   24.1737 C   0  0  0  0  0  0  0  0  0  0  0  0
  -26.4607  -10.9174   19.8880 C   0  0  0  0  0  0  0  0  0  0  0  0
  -24.6491  -17.7543   21.7666 C   0  0  0  0  0  0  0  0  0  0  0  0
  -21.8603  -16.8765   21.3227 C   0  0  0  0  0  0  0  0  0  0  0  0
  -25.0659  -11.5141   20.0582 C   0  0  0  0  0  0  0  0  0  0  0  0
  -27.3689  -27.1855   24.6778 C   0  0  0  0  0  0  0  0  0  0  0  0
  -24.8587  -12.6724   19.0875 C   0  0  0  0  0  0  0  0  0  0  0  0
  -28.1730  -26.4286   23.6182 C   0  0  0  0  0  0  0  0  0  0  0  0
  -26.2491  -26.3256   25.2614 C   0  0  0  0  0  0  0  0  0  0  0  0
  -26.1544  -24.9636   23.2108 C   0  0  0  0  0  0  0  0  0  0  0  0
  -25.8597  -13.8027   19.3556 C   0  0  1  0  0  0  0  0  0  0  0  0
  -24.2639  -16.2782   21.7553 C   0  0  1  0  0  0  0  0  0  0  0  0
  -27.2528  -25.8105   22.5474 C   0  0  2  0  0  0  0  0  0  0  0  0
  -22.0332  -23.3726   21.6739 C   0  0  0  0  0  0  0  0  0  0  0  0
  -18.3036  -15.1977   26.5835 C   0  0  0  0  0  0  0  0  0  0  0  0
  -21.0892  -13.0083   20.9873 C   0  0  0  0  0  0  0  0  0  0  0  0
  -19.1320  -13.0173   22.5486 C   0  0  0  0  0  0  0  0  0  0  0  0
  -21.3526  -12.2014   23.3398 C   0  0  0  0  0  0  0  0  0  0  0  0
  -20.5046  -18.2924   26.3485 C   0  0  0  0  0  0  0  0  0  0  0  0
  -18.9511  -22.3098   19.0760 C   0  0  0  0  0  0  0  0  0  0  0  0
  -19.6352  -20.9826   19.3339 C   0  0  0  0  0  0  0  0  0  1  0  0
  -21.0062  -14.6763   22.9563 C   0  0  1  0  0  0  0  0  0  0  0  0
  -19.5395  -15.9938   26.1940 C   0  0  2  0  0  0  0  0  0  0  0  0
  -20.6546  -13.2501   22.4466 C   0  0  0  0  0  0  0  0  0  0  0  0
  -28.2216  -23.7013   21.7143 N   0  0  0  0  0  0  0  0  0  0  0  0
  -28.0392  -25.0184   21.5196 N   0  0  0  0  0  0  0  0  0  0  0  0
  -22.8463  -16.0617   22.0516 N   0  0  0  0  0  0  0  0  0  0  0  0
  -25.4159  -25.7774   24.1890 N   0  0  0  0  0  0  0  0  0  0  0  0
  -28.5213  -26.7914   20.0248 N   0  0  0  0  0  0  0  0  0  0  0  0
  -18.1774  -23.0645   21.7492 N   0  0  0  0  0  0  0  0  0  0  0  0
  -30.4816  -23.2213   18.0735 N   0  0  0  0  0  0  0  0  0  0  0  0
  -23.3479  -25.5042   23.0885 N   0  0  0  0  0  0  0  0  0  0  0  0
  -25.4505  -14.5774   20.5075 N   0  0  0  0  0  0  0  0  0  0  0  0
  -20.6305  -14.9244   24.3440 N   0  0  0  0  0  0  0  0  0  0  0  0
  -19.5977  -23.3397   19.8929 N   0  3  0  0  0  0  0  0  0  0  0  0
  -19.3537  -17.4015   26.6465 N   0  3  0  0  0  0  0  0  0  0  0  0
  -30.1055  -25.4752   17.8813 O   0  0  0  0  0  0  0  0  0  0  0  0
  -23.9725  -16.0163   19.4269 O   0  0  0  0  0  0  0  0  0  0  0  0
  -23.2838  -14.2729   23.4816 O   0  0  0  0  0  0  0  0  0  0  0  0
  -19.2526  -16.7392   23.9138 O   0  0  0  0  0  0  0  0  0  0  0  0
  -23.4976  -26.7439   25.0435 O   0  0  0  0  0  0  0  0  0  0  0  0
  -30.5057  -18.0028   20.0234 O   0  0  0  0  0  0  0  0  0  0  0  0
  -21.0136  -21.0877   18.9801 O   0  0  0  0  0  0  0  0  0  1  0  0
  -32.5771  -15.4029   24.4228 F   0  0  0  0  0  0  0  0  0  0  0  0
  -29.0083  -17.7006   22.3276 F   0  0  0  0  0  0  0  0  0  0  0  0
  -19.0519  -28.2711   23.4652 Cl  0  0  0  0  0  0  0  0  0  0  0  0
  1  2  1  0  0  0  0
  1  5  2  0  0  0  0
  2  6  2  0  0  0  0
  3  8  2  0  0  0  0
  3 17  1  0  0  0  0
  4  9  1  0  0  0  0
  4 17  2  0  0  0  0
  5 20  1  0  0  0  0
  6 22  1  0  0  0  0
  7 10  2  0  0  0  0
  7 21  1  0  0  0  0
  8 26  1  0  0  0  0
  9 26  2  0  0  0  0
 10 27  1  0  0  0  0
 11 12  2  0  0  0  0
 11 28  1  0  0  0  0
 12 29  1  0  0  0  0
 13 18  1  0  0  0  0
 13 31  2  0  0  0  0
 14 23  1  0  0  0  0
 14 27  2  0  0  0  0
 15 25  2  0  0  0  0
 15 31  1  0  0  0  0
 16 29  2  0  0  0  0
 16 30  1  0  0  0  0
 17 32  1  0  0  0  0
 18 24  2  0  0  0  0
 18 34  1  0  0  0  0
 19 32  1  0  0  0  0
 19 33  2  0  0  0  0
 19 35  1  0  0  0  0
 20 22  2  0  0  0  0
 20 40  1  0  0  0  0
 21 23  2  0  0  0  0
 21 41  1  0  0  0  0
 22 49  1  0  0  0  0
 23 42  1  0  0  0  0
 24 25  1  0  0  0  0
 24 52  1  0  0  0  0
 25 70  1  0  0  0  0
 26 80  1  0  0  0  0
 27 81  1  0  0  0  0
 28 30  2  0  0  0  0
 28 80  1  0  0  0  0
 29 82  1  0  0  0  0
 30 83  1  0  0  0  0
 31 84  1  0  0  0  0
 32 63  2  0  0  0  0
 33 64  1  0  0  0  0
 33 67  1  0  0  0  0
 34 68  1  0  0  0  0
 34 73  2  0  0  0  0
 35 69  1  0  0  0  0
 35 75  2  0  0  0  0
 36 50  1  0  0  0  0
 36 71  1  0  0  0  0
 36 76  2  0  0  0  0
 37 60  1  0  0  0  0
 37 65  1  0  0  0  0
 37 77  2  0  0  0  0
 38 61  1  0  0  0  0
 38 72  1  0  0  0  0
 38 78  2  0  0  0  0
 39 66  1  0  0  0  0
 39 70  1  0  0  0  0
 39 79  2  0  0  0  0
 40 43  1  0  0  0  0
 41 50  1  0  0  0  0
 42 65  1  0  0  0  0
 43 45  1  0  0  0  0
 44 46  1  0  0  0  0
 44 47  1  0  0  0  0
 45 49  1  0  0  0  0
 46 51  1  0  0  0  0
 47 66  1  0  0  0  0
 48 51  1  0  0  0  0
 48 66  1  0  0  0  0
 49 71  1  0  0  0  0
 50 65  1  0  0  0  0
 51 64  1  0  0  0  0
 53 61  1  0  0  0  0
 54 62  1  0  0  0  0
 55 62  1  0  0  0  0
 56 62  1  0  0  0  0
 57 74  1  0  0  0  0
 58 59  1  0  0  0  0
 58 73  1  0  0  0  0
 59 81  1  0  0  0  0
 60 62  1  0  0  0  0
 60 72  1  0  0  0  0
 61 74  1  0  0  0  0
 63 64  1  0  0  0  0
M  CHG  2  73   1  74   1
M  ISO  4  39 100  59 101  70 100  81 101
M  END
> <Batch ID>
0038

> <Smiles>
CNC(C)C(=O)NC(C(=O)N1Cc2cc([101O:1][101CH2:1]CNC(=N)c3cc(Cl)cc([100NH:0][100C:0](=O)N4CCCC(n5nc(-c6ccc(Oc7ccc(F)cc7F)cc6)c(C(N)=O)c5N)C4)c3C)ccc2CC1C(=O)NC1CCCc2ccccc21)C(C)(C)C

> <Shape>
0.198

> <Color>
0.067

> <Negative vol penalty>
0.000

$$$$

  -OEChem-04042322003D

 88 97  0     1  0  0  0  0  0999 V2000
  -22.3147  -31.8173   14.5153 C   0  0  0  0  0  0  0  0  0  0  0  0
  -23.4238  -31.1829   15.0655 C   0  0  0  0  0  0  0  0  0  0  0  0
  -24.6314   -8.8983   20.8905 C   0  0  0  0  0  0  0  0  0  0  0  0
  -23.0034  -10.6811   20.7975 C   0  0  0  0  0  0  0  0  0  0  0  0
  -21.6903  -32.8532   15.2087 C   0  0  0  0  0  0  0  0  0  0  0  0
  -23.9098  -31.5848   16.3092 C   0  0  0  0  0  0  0  0  0  0  0  0
  -25.0002  -27.6673   19.3273 C   0  0  0  0  0  0  0  0  0  0  0  0
  -23.6141   -7.9836   21.1626 C   0  0  0  0  0  0  0  0  0  0  0  0
  -21.9862   -9.7663   21.0696 C   0  0  0  0  0  0  0  0  0  0  0  0
  -26.1957  -26.9915   19.0866 C   0  0  0  0  0  0  0  0  0  0  0  0
  -21.7631   -7.0375   23.8278 C   0  0  0  0  0  0  0  0  0  0  0  0
  -21.9830   -6.1083   24.8445 C   0  0  0  0  0  0  0  0  0  0  0  0
  -27.2361  -28.1996   20.8970 C   0  0  0  0  0  0  0  0  0  0  0  0
  -27.7851  -19.8887   18.9324 C   0  0  0  0  0  0  0  0  0  0  0  0
  -21.7089   -4.3071   23.2578 C   0  0  0  0  0  0  0  0  0  0  0  0
  -24.3260  -10.2471   20.7080 C   0  0  0  0  0  0  0  0  0  0  0  0
  -26.2595  -11.1817   19.3310 C   0  0  0  0  0  0  0  0  0  0  0  0
  -22.1630  -33.2616   16.4659 C   0  0  0  0  0  0  0  0  0  0  0  0
  -24.9166  -28.6237   20.3493 C   0  0  0  0  0  0  0  0  0  0  0  0
  -23.2919  -32.6280   17.0195 C   0  0  0  0  0  0  0  0  0  0  0  0
  -26.0377  -28.8842   21.1503 C   0  0  0  0  0  0  0  0  0  0  0  0
  -27.8165  -20.9308   18.0057 C   0  0  0  0  0  0  0  0  0  0  0  0
  -27.9395  -20.6504   16.6448 C   0  0  0  0  0  0  0  0  0  0  0  0
  -28.0312  -19.3280   16.2106 C   0  0  0  0  0  0  0  0  0  0  0  0
  -27.9998  -18.2859   17.1374 C   0  0  0  0  0  0  0  0  0  0  0  0
  -27.8769  -18.5663   18.4982 C   0  0  0  0  0  0  0  0  0  0  0  0
  -22.2915   -8.4176   21.2522 C   0  0  0  0  0  0  0  0  0  0  0  0
  -27.3147  -27.2597   19.8696 C   0  0  0  0  0  0  0  0  0  0  0  0
  -21.5160   -6.6015   22.5260 C   0  0  0  0  0  0  0  0  0  0  0  0
  -21.9560   -4.7432   24.5596 C   0  0  0  0  0  0  0  0  0  0  0  0
  -21.4889   -5.2363   22.2410 C   0  0  0  0  0  0  0  0  0  0  0  0
  -25.3765  -11.1926   20.4274 C   0  0  0  0  0  0  0  0  0  0  0  0
  -27.0591  -12.2818   19.5233 C   0  0  0  0  0  0  0  0  0  0  0  0
  -28.8282  -24.5046   18.4520 C   0  0  0  0  0  0  0  0  0  0  0  0
  -29.0017  -25.1335   17.2778 C   0  0  0  0  0  0  0  0  0  0  0  0
  -26.3488  -10.2598   18.2367 C   0  0  0  0  0  0  0  0  0  0  0  0
  -24.3107  -31.7422   20.4590 C   0  0  0  0  0  0  0  0  0  0  0  0
  -24.3895  -31.2490   23.6642 C   0  0  0  0  0  0  0  0  0  0  0  0
  -26.4068  -29.3683   25.9903 C   0  0  0  0  0  0  0  0  0  0  0  0
  -27.7227  -17.6510   20.8402 C   0  0  0  0  0  0  0  0  0  0  0  0
  -21.4837  -34.4176   17.1564 C   0  0  0  0  0  0  0  0  0  0  0  0
  -23.6123  -29.3247   20.6135 C   0  0  0  0  0  0  0  0  0  0  0  0
  -25.9944  -29.8872   22.2730 C   0  0  0  0  0  0  0  0  0  0  0  0
  -21.8331  -34.5327   18.6379 C   0  0  0  0  0  0  0  0  0  0  0  0
  -27.5613  -15.3285   23.5341 C   0  0  0  0  0  0  0  0  0  0  0  0
  -29.5911  -23.2486   20.9137 C   0  0  0  0  0  0  0  0  0  0  0  0
  -23.3381  -34.3931   18.8439 C   0  0  0  0  0  0  0  0  0  0  0  0
  -29.4311  -24.7638   20.8578 C   0  0  0  0  0  0  0  0  0  0  0  0
  -27.0512  -14.0446   22.8758 C   0  0  0  0  0  0  0  0  0  0  0  0
  -26.9142  -16.5725   22.9278 C   0  0  0  0  0  0  0  0  0  0  0  0
  -26.5000  -15.3883   20.8076 C   0  0  0  0  0  0  0  0  0  0  0  0
  -29.9987  -22.6811   19.5581 C   0  0  0  0  0  0  0  0  0  0  0  0
  -23.8337  -33.0189   18.3774 C   0  0  1  0  0  0  0  0  0  0  0  0
  -28.4624  -25.1829   19.7531 C   0  0  1  0  0  0  0  0  0  1  0  0
  -23.7846  -30.6508   21.3477 C   0  0  1  0  0  0  0  0  0  0  0  0
  -27.1714  -14.1122   21.3407 C   0  0  2  0  0  0  0  0  0  0  0  0
  -27.9741  -21.7706   15.6537 C   0  0  0  0  0  0  0  0  0  0  0  0
  -28.1633  -19.0280   14.7506 C   0  0  0  0  0  0  0  0  0  0  0  0
  -28.1001  -16.8677   16.6691 C   0  0  0  0  0  0  0  0  0  0  0  0
  -25.8396  -28.4131   28.2405 C   0  0  0  0  0  0  0  0  0  0  0  0
  -25.5373  -33.8629   24.7412 C   0  0  0  0  0  0  0  0  0  0  0  0
  -26.5440  -32.5620   26.6287 C   0  0  0  0  0  0  0  0  0  0  0  0
  -24.0666  -32.6302   26.3449 C   0  0  0  0  0  0  0  0  0  0  0  0
  -27.2409  -26.6483   25.1748 C   0  0  0  0  0  0  0  0  0  0  0  0
  -27.7199  -22.3443   18.4992 C   0  0  0  0  0  0  0  0  0  0  0  0
  -25.4632  -31.2821   24.7249 C   0  0  1  0  0  0  0  0  0  0  0  0
  -25.9909  -28.1246   26.7550 C   0  0  2  0  0  0  0  0  0  0  0  0
  -25.4088  -32.5776   25.5829 C   0  0  0  0  0  0  0  0  0  0  0  0
  -25.5945  -12.2181   21.2549 N   0  0  0  0  0  0  0  0  0  0  0  0
  -26.6237  -12.8619   20.6783 N   0  0  0  0  0  0  0  0  0  0  0  0
  -24.6980  -30.5511   22.4879 N   0  0  0  0  0  0  0  0  0  0  0  0
  -27.0713  -16.5704   21.4717 N   0  0  0  0  0  0  0  0  0  0  0  0
  -28.0853  -12.7997   18.8154 N   0  0  0  0  0  0  0  0  0  0  0  0
  -25.5982  -10.5189   17.0818 N   0  0  0  0  0  0  0  0  0  0  0  0
  -27.8420  -17.5233   19.4567 N   0  0  0  0  0  0  0  0  0  0  0  0
  -23.5147  -32.0061   19.3607 N   0  0  0  0  0  0  0  0  0  0  0  0
  -25.3166  -30.0503   25.4927 N   0  0  0  0  0  0  0  0  0  0  0  0
  -29.0352  -23.0728   18.4616 N   0  3  1  0  0  0  0  0  0  0  0  0
  -27.0082  -27.0486   26.5864 N   0  3  0  0  0  0  0  0  0  0  0  0
  -27.0602   -9.2278   18.2879 O   0  0  0  0  0  0  0  0  0  0  0  0
  -25.3603  -32.3042   20.7491 O   0  0  0  0  0  0  0  0  0  0  0  0
  -23.3139  -31.8152   23.8745 O   0  0  0  0  0  0  0  0  0  0  0  0
  -27.5811  -29.7035   25.8517 O   0  0  0  0  0  0  0  0  0  0  0  0
  -28.1678  -18.6055   21.4826 O   0  0  0  0  0  0  0  0  0  0  0  0
  -21.2986   -7.5252   21.5175 O   0  0  0  0  0  0  0  0  0  0  0  0
  -28.4830  -26.6020   19.6363 O   0  0  0  0  0  0  0  0  0  1  0  0
  -22.1687   -3.8510   25.5358 F   0  0  0  0  0  0  0  0  0  0  0  0
  -21.2532   -4.8114   20.9922 F   0  0  0  0  0  0  0  0  0  0  0  0
  1  2  1  0  0  0  0
  1  5  2  0  0  0  0
  2  6  2  0  0  0  0
  3  8  2  0  0  0  0
  3 16  1  0  0  0  0
  4  9  1  0  0  0  0
  4 16  2  0  0  0  0
  5 18  1  0  0  0  0
  6 20  1  0  0  0  0
  7 10  2  0  0  0  0
  7 19  1  0  0  0  0
  8 27  1  0  0  0  0
  9 27  2  0  0  0  0
 10 28  1  0  0  0  0
 11 12  2  0  0  0  0
 11 29  1  0  0  0  0
 12 30  1  0  0  0  0
 13 21  1  0  0  0  0
 13 28  2  0  0  0  0
 14 22  1  0  0  0  0
 14 26  2  0  0  0  0
 15 30  2  0  0  0  0
 15 31  1  0  0  0  0
 16 32  1  0  0  0  0
 17 32  1  0  0  0  0
 17 33  2  0  0  0  0
 17 36  1  0  0  0  0
 18 20  2  0  0  0  0
 18 41  1  0  0  0  0
 19 21  2  0  0  0  0
 19 42  1  0  0  0  0
 20 53  1  0  0  0  0
 21 43  1  0  0  0  0
 22 23  2  0  0  0  0
 22 65  1  0  0  0  0
 23 24  1  0  0  0  0
 23 57  1  0  0  0  0
 24 25  2  0  0  0  0
 24 58  1  0  0  0  0
 25 26  1  0  0  0  0
 25 59  1  0  0  0  0
 26 75  1  0  0  0  0
 27 85  1  0  0  0  0
 28 86  1  0  0  0  0
 29 31  2  0  0  0  0
 29 85  1  0  0  0  0
 30 87  1  0  0  0  0
 31 88  1  0  0  0  0
 32 69  2  0  0  0  0
 33 70  1  0  0  0  0
 33 73  1  0  0  0  0
 34 35  2  0  0  0  0
 34 54  1  0  0  0  0
 34 78  1  0  0  0  0
 36 74  1  0  0  0  0
 36 80  2  0  0  0  0
 37 55  1  0  0  0  0
 37 76  1  0  0  0  0
 37 81  2  0  0  0  0
 38 66  1  0  0  0  0
 38 71  1  0  0  0  0
 38 82  2  0  0  0  0
 39 67  1  0  0  0  0
 39 77  1  0  0  0  0
 39 83  2  0  0  0  0
 40 72  1  0  0  0  0
 40 75  1  0  0  0  0
 40 84  2  0  0  0  0
 41 44  1  0  0  0  0
 42 55  1  0  0  0  0
 43 71  1  0  0  0  0
 44 47  1  0  0  0  0
 45 49  1  0  0  0  0
 45 50  1  0  0  0  0
 46 48  1  0  0  0  0
 46 52  1  0  0  0  0
 47 53  1  0  0  0  0
 48 54  1  0  0  0  0
 49 56  1  0  0  0  0
 50 72  1  0  0  0  0
 51 56  1  0  0  0  0
 51 72  1  0  0  0  0
 52 78  1  0  0  0  0
 53 76  1  0  0  0  0
 54 86  1  0  0  0  0
 55 71  1  0  0  0  0
 56 70  1  0  0  0  0
 60 67  1  0  0  0  0
 61 68  1  0  0  0  0
 62 68  1  0  0  0  0
 63 68  1  0  0  0  0
 64 79  1  0  0  0  0
 65 78  1  0  0  0  0
 66 68  1  0  0  0  0
 66 77  1  0  0  0  0
 67 79  1  0  0  0  0
 69 70  1  0  0  0  0
M  CHG  2  78   1  79   1
M  ISO  4  40 100  54 101  75 100  86 101
M  END
> <Batch ID>
0038

> <Smiles>
C=C1N(Cc2cc([100NH:0][100C:0](=O)N3CCCC(n4nc(-c5ccc(Oc6ccc(F)cc6F)cc5)c(C(N)=O)c4N)C3)c(C)c(C)c2C)CCC[101CH:1]1[101O:1]c1ccc2c(c1)CN(C(=O)C(NC(=O)C(C)NC)C(C)(C)C)C(C(=O)NC1CCCc3ccccc31)C2

> <Shape>
0.296

> <Color>
0.124

> <Negative vol penalty>
0.000

$$$$

  -OEChem-04042322003D

 89 98  0     1  0  0  0  0  0999 V2000
  -25.0213  -36.4983   23.2918 C   0  0  0  0  0  0  0  0  0  0  0  0
  -26.1586  -35.7795   22.9377 C   0  0  0  0  0  0  0  0  0  0  0  0
  -22.8590   -9.6269   19.9633 C   0  0  0  0  0  0  0  0  0  0  0  0
  -24.5764   -8.7725   21.4322 C   0  0  0  0  0  0  0  0  0  0  0  0
  -23.8718  -35.8243   23.7020 C   0  0  0  0  0  0  0  0  0  0  0  0
  -26.1473  -34.3863   22.9946 C   0  0  0  0  0  0  0  0  0  0  0  0
  -28.8958  -28.6423   19.7129 C   0  0  0  0  0  0  0  0  0  0  0  0
  -21.8782   -9.1011   20.8042 C   0  0  0  0  0  0  0  0  0  0  0  0
  -23.5956   -8.2468   22.2732 C   0  0  0  0  0  0  0  0  0  0  0  0
  -29.5912  -27.4683   19.9991 C   0  0  0  0  0  0  0  0  0  0  0  0
  -21.5617   -5.5470   22.3453 C   0  0  0  0  0  0  0  0  0  0  0  0
  -21.7399   -4.2456   22.8145 C   0  0  0  0  0  0  0  0  0  0  0  0
  -27.5232  -26.4084   20.6467 C   0  0  0  0  0  0  0  0  0  0  0  0
  -27.6176  -18.3409   20.2063 C   0  0  0  0  0  0  0  0  0  0  0  0
  -25.6280  -17.6528   19.0209 C   0  0  0  0  0  0  0  0  0  0  0  0
  -21.7292   -5.0636   25.0877 C   0  0  0  0  0  0  0  0  0  0  0  0
  -24.2081   -9.4625   20.2772 C   0  0  0  0  0  0  0  0  0  0  0  0
  -25.4366   -9.6912   18.0532 C   0  0  0  0  0  0  0  0  0  0  0  0
  -23.8433  -34.4218   23.7547 C   0  0  0  0  0  0  0  0  0  0  0  0
  -27.5080  -28.7118   19.9021 C   0  0  0  0  0  0  0  0  0  0  0  0
  -24.9967  -33.6930   23.4071 C   0  0  0  0  0  0  0  0  0  0  0  0
  -26.8122  -27.5837   20.3597 C   0  0  0  0  0  0  0  0  0  0  0  0
  -27.0647  -19.6068   20.3996 C   0  0  0  0  0  0  0  0  0  0  0  0
  -25.0751  -18.9187   19.2142 C   0  0  0  0  0  0  0  0  0  0  0  0
  -25.7934  -19.8957   19.9035 C   0  0  0  0  0  0  0  0  0  0  0  0
  -26.8993  -17.3639   19.5170 C   0  0  0  0  0  0  0  0  0  0  0  0
  -22.2464   -8.4111   21.9591 C   0  0  0  0  0  0  0  0  0  0  0  0
  -28.9053  -26.3521   20.4688 C   0  0  0  0  0  0  0  0  0  0  0  0
  -21.4673   -6.6068   23.2474 C   0  0  0  0  0  0  0  0  0  0  0  0
  -21.8236   -4.0038   24.1857 C   0  0  0  0  0  0  0  0  0  0  0  0
  -21.5511   -6.3650   24.6186 C   0  0  0  0  0  0  0  0  0  0  0  0
  -25.2218  -10.0049   19.4087 C   0  0  0  0  0  0  0  0  0  0  0  0
  -26.5089  -10.4674   17.6869 C   0  0  0  0  0  0  0  0  0  0  0  0
  -24.7299   -8.7798   17.2014 C   0  0  0  0  0  0  0  0  0  0  0  0
  -25.5782  -30.4498   21.7348 C   0  0  0  0  0  0  0  0  0  0  0  0
  -23.2558  -28.9530   20.0353 C   0  0  0  0  0  0  0  0  0  0  0  0
  -22.6260  -25.6203   18.8050 C   0  0  0  0  0  0  0  0  0  0  0  0
  -28.7083  -15.6261   19.7497 C   0  0  0  0  0  0  0  0  0  0  0  0
  -22.5927  -33.7392   24.2496 C   0  0  0  0  0  0  0  0  0  0  0  0
  -26.7689  -29.9772   19.5634 C   0  0  0  0  0  0  0  0  0  0  0  0
  -25.3196  -27.6002   20.5605 C   0  0  0  0  0  0  0  0  0  0  0  0
  -22.5426  -32.2488   23.9236 C   0  0  0  0  0  0  0  0  0  0  0  0
  -30.4363  -12.5232   19.4989 C   0  0  0  0  0  0  0  0  0  0  0  0
  -30.1375  -22.2407   18.5224 C   0  0  0  0  0  0  0  0  0  0  0  0
  -23.8727  -31.5832   24.2624 C   0  0  0  0  0  0  0  0  0  0  0  0
  -29.3151  -11.4974   19.3179 C   0  0  0  0  0  0  0  0  0  0  0  0
  -30.4177  -23.5653   19.2197 C   0  0  0  0  0  0  0  0  0  0  0  0
  -30.0308  -13.6439   20.4546 C   0  0  0  0  0  0  0  0  0  0  0  0
  -27.6473  -13.2909   19.9413 C   0  0  0  0  0  0  0  0  0  0  0  0
  -29.6556  -21.1803   19.5022 C   0  0  0  0  0  0  0  0  0  0  0  0
  -28.7278  -22.9699   20.9943 C   0  0  0  0  0  0  0  0  0  0  0  0
  -25.0155  -32.1800   23.4321 C   0  0  1  0  0  0  0  0  0  0  0  0
  -25.4285  -30.0968   20.2820 C   0  0  1  0  0  0  0  0  0  0  0  0
  -27.9854  -12.1773   18.9367 C   0  0  2  0  0  0  0  0  0  0  0  0
  -29.2097  -24.0387   20.0221 C   0  0  1  0  0  0  0  0  0  1  0  0
  -25.2004  -21.2530   20.1113 C   0  0  0  0  0  0  0  0  0  0  0  0
  -21.2850  -24.8349   16.8346 C   0  0  0  0  0  0  0  0  0  0  0  0
  -20.9916  -28.6620   22.0599 C   0  0  0  0  0  0  0  0  0  0  0  0
  -20.2923  -26.5716   20.8727 C   0  0  0  0  0  0  0  0  0  0  0  0
  -20.2509  -28.7584   19.6732 C   0  0  0  0  0  0  0  0  0  0  0  0
  -24.9246  -24.1275   17.6884 C   0  0  0  0  0  0  0  0  0  0  0  0
  -27.8582  -20.6400   21.1438 C   0  0  0  0  0  0  0  0  0  0  0  0
  -22.4737  -27.6713   20.1923 C   0  0  1  0  0  0  0  0  0  0  0  0
  -22.6748  -25.1611   17.3589 C   0  0  2  0  0  0  0  0  0  0  0  0
  -23.7120  -19.2024   18.6731 C   0  0  0  0  0  0  0  0  0  0  0  0
  -21.0286  -27.9185   20.7098 C   0  0  0  0  0  0  0  0  0  0  0  0
  -26.0882  -10.9097   19.8721 N   0  0  0  0  0  0  0  0  0  0  0  0
  -26.8579  -11.1711   18.8019 N   0  0  0  0  0  0  0  0  0  0  0  0
  -24.6425  -28.8627   20.2213 N   0  0  0  0  0  0  0  0  0  0  0  0
  -28.7648  -14.2441   20.0282 N   0  0  0  0  0  0  0  0  0  0  0  0
  -27.1780  -10.6096   16.5231 N   0  0  0  0  0  0  0  0  0  0  0  0
  -23.6526   -8.0620   17.7385 N   0  0  0  0  0  0  0  0  0  0  0  0
  -27.4603  -16.0775   19.3214 N   0  0  0  0  0  0  0  0  0  0  0  0
  -24.9915  -31.6508   22.0853 N   0  0  0  0  0  0  0  0  0  0  0  0
  -22.5387  -26.9930   18.9023 N   0  0  0  0  0  0  0  0  0  0  0  0
  -28.4445  -21.6932   20.2444 N   0  3  2  0  0  0  0  0  0  0  0  0
  -23.5234  -23.9428   17.2306 N   0  3  0  0  0  0  0  0  0  0  0  0
  -25.0548   -8.5948   16.0040 O   0  0  0  0  0  0  0  0  0  0  0  0
  -26.1802  -29.6883   22.4827 O   0  0  0  0  0  0  0  0  0  0  0  0
  -22.6591  -29.9945   19.7509 O   0  0  0  0  0  0  0  0  0  0  0  0
  -22.6581  -24.8392   19.7533 O   0  0  0  0  0  0  0  0  0  0  0  0
  -29.7014  -16.3505   19.8552 O   0  0  0  0  0  0  0  0  0  0  0  0
  -21.2896   -7.8982   22.7801 O   0  0  0  0  0  0  0  0  0  0  0  0
  -29.5817  -25.2051   20.7495 O   0  0  0  0  0  0  0  0  0  1  0  0
  -21.9932   -2.7538   24.6361 F   0  0  0  0  0  0  0  0  0  0  0  0
  -21.4599   -7.3790   25.4901 F   0  0  0  0  0  0  0  0  0  0  0  0
  -23.1499  -18.1395   18.0267 F   0  0  0  0  0  0  0  0  0  0  0  0
  -22.8082  -19.5566   19.6326 F   0  0  0  0  0  0  0  0  0  0  0  0
  -23.7103  -20.2249   17.7703 F   0  0  0  0  0  0  0  0  0  0  0  0
  1  2  1  0  0  0  0
  1  5  2  0  0  0  0
  2  6  2  0  0  0  0
  3  8  2  0  0  0  0
  3 17  1  0  0  0  0
  4  9  1  0  0  0  0
  4 17  2  0  0  0  0
  5 19  1  0  0  0  0
  6 21  1  0  0  0  0
  7 10  2  0  0  0  0
  7 20  1  0  0  0  0
  8 27  1  0  0  0  0
  9 27  2  0  0  0  0
 10 28  1  0  0  0  0
 11 12  2  0  0  0  0
 11 29  1  0  0  0  0
 12 30  1  0  0  0  0
 13 22  1  0  0  0  0
 13 28  2  0  0  0  0
 14 23  1  0  0  0  0
 14 26  2  0  0  0  0
 15 24  2  0  0  0  0
 15 26  1  0  0  0  0
 16 30  2  0  0  0  0
 16 31  1  0  0  0  0
 17 32  1  0  0  0  0
 18 32  1  0  0  0  0
 18 33  2  0  0  0  0
 18 34  1  0  0  0  0
 19 21  2  0  0  0  0
 19 39  1  0  0  0  0
 20 22  2  0  0  0  0
 20 40  1  0  0  0  0
 21 52  1  0  0  0  0
 22 41  1  0  0  0  0
 23 25  2  0  0  0  0
 23 62  1  0  0  0  0
 24 25  1  0  0  0  0
 24 65  1  0  0  0  0
 25 56  1  0  0  0  0
 26 73  1  0  0  0  0
 27 83  1  0  0  0  0
 28 84  1  0  0  0  0
 29 31  2  0  0  0  0
 29 83  1  0  0  0  0
 30 85  1  0  0  0  0
 31 86  1  0  0  0  0
 32 67  2  0  0  0  0
 33 68  1  0  0  0  0
 33 71  1  0  0  0  0
 34 72  1  0  0  0  0
 34 78  2  0  0  0  0
 35 53  1  0  0  0  0
 35 74  1  0  0  0  0
 35 79  2  0  0  0  0
 36 63  1  0  0  0  0
 36 69  1  0  0  0  0
 36 80  2  0  0  0  0
 37 64  1  0  0  0  0
 37 75  1  0  0  0  0
 37 81  2  0  0  0  0
 38 70  1  0  0  0  0
 38 73  1  0  0  0  0
 38 82  2  0  0  0  0
 39 42  1  0  0  0  0
 40 53  1  0  0  0  0
 41 69  1  0  0  0  0
 42 45  1  0  0  0  0
 43 46  1  0  0  0  0
 43 48  1  0  0  0  0
 44 47  1  0  0  0  0
 44 50  1  0  0  0  0
 45 52  1  0  0  0  0
 46 54  1  0  0  0  0
 47 55  1  0  0  0  0
 48 70  1  0  0  0  0
 49 54  1  0  0  0  0
 49 70  1  0  0  0  0
 50 76  1  0  0  0  0
 51 55  1  0  0  0  0
 51 76  1  0  0  0  0
 52 74  1  0  0  0  0
 53 69  1  0  0  0  0
 54 68  1  0  0  0  0
 55 84  1  0  0  0  0
 57 64  1  0  0  0  0
 58 66  1  0  0  0  0
 59 66  1  0  0  0  0
 60 66  1  0  0  0  0
 61 77  1  0  0  0  0
 62 76  1  0  0  0  0
 63 66  1  0  0  0  0
 63 75  1  0  0  0  0
 64 77  1  0  0  0  0
 65 87  1  0  0  0  0
 65 88  1  0  0  0  0
 65 89  1  0  0  0  0
 67 68  1  0  0  0  0
M  CHG  2  76   1  77   1
M  ISO  4  38 100  55 101  73 100  84 101
M  END
> <Batch ID>
0038

> <Smiles>
CNC(C)C(=O)NC(C(=O)N1Cc2cc([101O:1][101CH:1]3CCCN(Cc4cc([100NH:0][100C:0](=O)N5CCCC(n6nc(-c7ccc(Oc8ccc(F)cc8F)cc7)c(C(N)=O)c6N)C5)cc(C(F)(F)F)c4C)C3)ccc2CC1C(=O)NC1CCCc2ccccc21)C(C)(C)C

> <Shape>
0.328

> <Color>
0.079

> <Negative vol penalty>
0.000

$$$$
