
  -OEChem-04042322043D

 87 96  0     1  0  0  0  0  0999 V2000
  -16.6818  -29.7923   23.9907 C   0  0  0  0  0  0  0  0  0  0  0  0
  -17.7910  -30.4947   24.4508 C   0  0  0  0  0  0  0  0  0  0  0  0
  -28.8978  -17.1070   20.8734 C   0  0  0  0  0  0  0  0  0  0  0  0
  -26.7514  -17.5438   19.8541 C   0  0  0  0  0  0  0  0  0  0  0  0
  -16.8561  -28.6292   23.2418 C   0  0  0  0  0  0  0  0  0  0  0  0
  -19.0753  -30.0337   24.1634 C   0  0  0  0  0  0  0  0  0  0  0  0
  -25.6988  -32.4216   22.8430 C   0  0  0  0  0  0  0  0  0  0  0  0
  -29.0690  -16.0021   20.0395 C   0  0  0  0  0  0  0  0  0  0  0  0
  -26.9226  -16.4389   19.0201 C   0  0  0  0  0  0  0  0  0  0  0  0
  -27.0128  -32.2467   23.2748 C   0  0  0  0  0  0  0  0  0  0  0  0
  -27.9865  -12.8036   19.8895 C   0  0  0  0  0  0  0  0  0  0  0  0
  -28.4547  -11.6233   20.4667 C   0  0  0  0  0  0  0  0  0  0  0  0
  -27.1930  -30.2689   21.9054 C   0  0  0  0  0  0  0  0  0  0  0  0
  -31.0426  -27.1319   20.6161 C   0  0  0  0  0  0  0  0  0  0  0  0
  -32.3119  -25.1014   20.9369 C   0  0  0  0  0  0  0  0  0  0  0  0
  -30.3780  -11.6716   19.0053 C   0  0  0  0  0  0  0  0  0  0  0  0
  -27.7389  -17.8778   20.7808 C   0  0  0  0  0  0  0  0  0  0  0  0
  -27.5249  -19.0241   23.0496 C   0  0  0  0  0  0  0  0  0  0  0  0
  -18.1432  -28.1590   22.9368 C   0  0  0  0  0  0  0  0  0  0  0  0
  -25.1174  -31.5139   21.9460 C   0  0  0  0  0  0  0  0  0  0  0  0
  -19.2669  -28.8624   23.4109 C   0  0  0  0  0  0  0  0  0  0  0  0
  -25.8723  -30.4361   21.4618 C   0  0  0  0  0  0  0  0  0  0  0  0
  -32.2241  -27.8731   20.6321 C   0  0  0  0  0  0  0  0  0  0  0  0
  -33.4496  -27.2284   20.8005 C   0  0  0  0  0  0  0  0  0  0  0  0
  -31.0864  -25.7461   20.7686 C   0  0  0  0  0  0  0  0  0  0  0  0
  -28.0814  -15.6681   19.1128 C   0  0  0  0  0  0  0  0  0  0  0  0
  -27.7592  -31.1686   22.8082 C   0  0  0  0  0  0  0  0  0  0  0  0
  -28.7140  -13.4179   18.8702 C   0  0  0  0  0  0  0  0  0  0  0  0
  -29.6505  -11.0573   20.0247 C   0  0  0  0  0  0  0  0  0  0  0  0
  -29.9097  -12.8519   18.4281 C   0  0  0  0  0  0  0  0  0  0  0  0
  -33.4935  -25.8425   20.9529 C   0  0  0  0  0  0  0  0  0  0  0  0
  -27.5613  -19.0190   21.6424 C   0  0  0  0  0  0  0  0  0  0  0  0
  -27.3364  -20.3431   23.3834 C   0  0  0  0  0  0  0  0  0  0  0  0
  -32.7787  -31.4676   21.4899 C   0  0  0  0  0  0  0  0  0  0  0  0
  -34.0739  -31.7733   21.6602 C   0  0  0  0  0  0  0  0  0  0  0  0
  -27.6502  -17.9342   23.9727 C   0  0  0  0  0  0  0  0  0  0  0  0
  -22.6408  -29.5245   22.0576 C   0  0  0  0  0  0  0  0  0  0  0  0
  -23.3505  -29.0855   18.9230 C   0  0  0  0  0  0  0  0  0  0  0  0
  -26.3310  -28.6973   16.9271 C   0  0  0  0  0  0  0  0  0  0  0  0
  -28.5875  -25.4782   20.5958 C   0  0  0  0  0  0  0  0  0  0  0  0
  -18.2813  -26.8711   22.1643 C   0  0  0  0  0  0  0  0  0  0  0  0
  -23.7076  -31.7317   21.4693 C   0  0  0  0  0  0  0  0  0  0  0  0
  -25.3013  -29.4447   20.4822 C   0  0  0  0  0  0  0  0  0  0  0  0
  -31.7447  -32.4792   21.0762 C   0  0  0  0  0  0  0  0  0  0  0  0
  -19.6770  -26.6550   21.5851 C   0  0  0  0  0  0  0  0  0  0  0  0
  -30.5511  -32.4349   22.0226 C   0  0  0  0  0  0  0  0  0  0  0  0
  -25.3882  -24.3868   21.7141 C   0  0  0  0  0  0  0  0  0  0  0  0
  -20.7426  -26.9470   22.6368 C   0  0  0  0  0  0  0  0  0  0  0  0
  -25.5807  -22.8880   21.9565 C   0  0  0  0  0  0  0  0  0  0  0  0
  -26.1797  -24.8713   20.5006 C   0  0  0  0  0  0  0  0  0  0  0  0
  -27.8012  -23.0347   20.7585 C   0  0  0  0  0  0  0  0  0  0  0  0
  -31.1888  -30.0882   22.6946 C   0  0  0  0  0  0  0  0  0  0  0  0
  -20.6761  -28.4078   23.0986 C   0  0  1  0  0  0  0  0  0  0  0  0
  -23.0481  -30.4570   20.9521 C   0  0  1  0  0  0  0  0  0  0  0  0
  -27.0748  -22.5130   22.0091 C   0  0  2  0  0  0  0  0  0  0  0  0
  -30.0583  -31.0028   22.2298 C   0  0  1  0  0  0  0  0  0  1  0  0
  -34.7084  -28.0387   20.8166 C   0  0  0  0  0  0  0  0  0  0  0  0
  -26.7584  -29.2303   14.5125 C   0  0  0  0  0  0  0  0  0  0  0  0
  -22.6199  -26.1614   18.4483 C   0  0  0  0  0  0  0  0  0  0  0  0
  -24.4180  -26.0669   16.7087 C   0  0  0  0  0  0  0  0  0  0  0  0
  -22.4829  -27.6139   16.4170 C   0  0  0  0  0  0  0  0  0  0  0  0
  -28.6469  -30.4144   17.5959 C   0  0  0  0  0  0  0  0  0  0  0  0
  -32.1480  -29.3623   20.4670 C   0  0  0  0  0  0  0  0  0  0  0  0
  -24.2446  -28.1458   18.1507 C   0  0  1  0  0  0  0  0  0  0  0  0
  -26.9077  -29.7053   15.9494 C   0  0  2  0  0  0  0  0  0  0  0  0
  -23.4474  -27.0047   17.4579 C   0  0  0  0  0  0  0  0  0  0  0  0
  -27.4081  -20.2379   21.1181 N   0  0  0  0  0  0  0  0  0  0  0  0
  -27.2735  -21.0213   22.2018 N   0  0  0  0  0  0  0  0  0  0  0  0
  -23.9165  -29.6970   20.0507 N   0  0  0  0  0  0  0  0  0  0  0  0
  -27.5868  -24.4839   20.6220 N   0  0  0  0  0  0  0  0  0  0  0  0
  -27.2200  -20.9772   24.5694 N   0  0  0  0  0  0  0  0  0  0  0  0
  -26.4883  -17.2597   24.3718 N   0  0  0  0  0  0  0  0  0  0  0  0
  -29.8858  -24.9939   20.7526 N   0  0  0  0  0  0  0  0  0  0  0  0
  -21.2824  -29.2774   22.1134 N   0  0  0  0  0  0  0  0  0  0  0  0
  -25.0162  -28.9777   17.2337 N   0  0  0  0  0  0  0  0  0  0  0  0
  -32.3681  -30.1097   21.7531 N   0  3  1  0  0  0  0  0  0  0  0  0
  -28.3560  -29.9234   16.2243 N   0  3  0  0  0  0  0  0  0  0  0  0
  -28.7580  -17.5797   24.4426 O   0  0  0  0  0  0  0  0  0  0  0  0
  -23.4959  -29.0622   22.8038 O   0  0  0  0  0  0  0  0  0  0  0  0
  -22.1949  -29.2757   18.5358 O   0  0  0  0  0  0  0  0  0  0  0  0
  -26.9807  -27.7534   17.3714 O   0  0  0  0  0  0  0  0  0  0  0  0
  -28.3109  -26.6742   20.4728 O   0  0  0  0  0  0  0  0  0  0  0  0
  -28.2482  -14.5901   18.2987 O   0  0  0  0  0  0  0  0  0  0  0  0
  -29.0418  -30.9950   23.2285 O   0  0  0  0  0  0  0  0  0  1  0  0
  -30.1008   -9.9246   20.5801 F   0  0  0  0  0  0  0  0  0  0  0  0
  -30.6136  -13.4381   17.4499 F   0  0  0  0  0  0  0  0  0  0  0  0
  -34.9899  -25.0066   21.1612 Cl  0  0  0  0  0  0  0  0  0  0  0  0
  1  2  1  0  0  0  0
  1  5  2  0  0  0  0
  2  6  2  0  0  0  0
  3  8  2  0  0  0  0
  3 17  1  0  0  0  0
  4  9  1  0  0  0  0
  4 17  2  0  0  0  0
  5 19  1  0  0  0  0
  6 21  1  0  0  0  0
  7 10  2  0  0  0  0
  7 20  1  0  0  0  0
  8 26  1  0  0  0  0
  9 26  2  0  0  0  0
 10 27  1  0  0  0  0
 11 12  2  0  0  0  0
 11 28  1  0  0  0  0
 12 29  1  0  0  0  0
 13 22  1  0  0  0  0
 13 27  2  0  0  0  0
 14 23  1  0  0  0  0
 14 25  2  0  0  0  0
 15 25  1  0  0  0  0
 15 31  2  0  0  0  0
 16 29  2  0  0  0  0
 16 30  1  0  0  0  0
 17 32  1  0  0  0  0
 18 32  1  0  0  0  0
 18 33  2  0  0  0  0
 18 36  1  0  0  0  0
 19 21  2  0  0  0  0
 19 41  1  0  0  0  0
 20 22  2  0  0  0  0
 20 42  1  0  0  0  0
 21 53  1  0  0  0  0
 22 43  1  0  0  0  0
 23 24  2  0  0  0  0
 23 63  1  0  0  0  0
 24 31  1  0  0  0  0
 24 57  1  0  0  0  0
 25 73  1  0  0  0  0
 26 83  1  0  0  0  0
 27 84  1  0  0  0  0
 28 30  2  0  0  0  0
 28 83  1  0  0  0  0
 29 85  1  0  0  0  0
 30 86  1  0  0  0  0
 31 87  1  0  0  0  0
 32 67  2  0  0  0  0
 33 68  1  0  0  0  0
 33 71  1  0  0  0  0
 34 35  2  0  0  0  0
 34 44  1  0  0  0  0
 34 76  1  0  0  0  0
 36 72  1  0  0  0  0
 36 78  2  0  0  0  0
 37 54  1  0  0  0  0
 37 74  1  0  0  0  0
 37 79  2  0  0  0  0
 38 64  1  0  0  0  0
 38 69  1  0  0  0  0
 38 80  2  0  0  0  0
 39 65  1  0  0  0  0
 39 75  1  0  0  0  0
 39 81  2  0  0  0  0
 40 70  1  0  0  0  0
 40 73  1  0  0  0  0
 40 82  2  0  0  0  0
 41 45  1  0  0  0  0
 42 54  1  0  0  0  0
 43 69  1  0  0  0  0
 44 46  1  0  0  0  0
 45 48  1  0  0  0  0
 46 56  1  0  0  0  0
 47 49  1  0  0  0  0
 47 50  1  0  0  0  0
 48 53  1  0  0  0  0
 49 55  1  0  0  0  0
 50 70  1  0  0  0  0
 51 55  1  0  0  0  0
 51 70  1  0  0  0  0
 52 56  1  0  0  0  0
 52 76  1  0  0  0  0
 53 74  1  0  0  0  0
 54 69  1  0  0  0  0
 55 68  1  0  0  0  0
 56 84  1  0  0  0  0
 58 65  1  0  0  0  0
 59 66  1  0  0  0  0
 60 66  1  0  0  0  0
 61 66  1  0  0  0  0
 62 77  1  0  0  0  0
 63 76  1  0  0  0  0
 64 66  1  0  0  0  0
 64 75  1  0  0  0  0
 65 77  1  0  0  0  0
 67 68  1  0  0  0  0
M  CHG  2  76   1  77   1
M  ISO  4  40 100  56 101  73 100  84 101
M  END
> <Batch ID>
0039

> <Smiles>
C=C1CC[101CH:1]([101O:1]c2ccc3c(c2)CN(C(=O)C(NC(=O)C(C)NC)C(C)(C)C)C(C(=O)NC2CCCc4ccccc42)C3)CN1Cc1cc([100NH:0][100C:0](=O)N2CCCC(n3nc(-c4ccc(Oc5ccc(F)cc5F)cc4)c(C(N)=O)c3N)C2)cc(Cl)c1C

> <Shape>
0.243

> <Color>
0.115

> <Negative vol penalty>
0.000

$$$$

  -OEChem-04042322043D

 89 98  0     1  0  0  0  0  0999 V2000
  -16.6389  -29.1493   23.9950 C   0  0  0  0  0  0  0  0  0  0  0  0
  -17.7063  -29.6494   24.7339 C   0  0  0  0  0  0  0  0  0  0  0  0
  -29.2054  -18.1658   20.5504 C   0  0  0  0  0  0  0  0  0  0  0  0
  -31.1883  -18.0498   21.9259 C   0  0  0  0  0  0  0  0  0  0  0  0
  -16.8753  -28.2743   22.9355 C   0  0  0  0  0  0  0  0  0  0  0  0
  -19.0107  -29.2740   24.4145 C   0  0  0  0  0  0  0  0  0  0  0  0
  -25.1999  -33.7018   22.6496 C   0  0  0  0  0  0  0  0  0  0  0  0
  -32.3191  -30.2619   18.3071 C   0  0  0  0  0  0  0  0  0  0  0  0
  -32.8354  -29.1280   18.9340 C   0  0  0  0  0  0  0  0  0  0  0  0
  -29.4642  -16.8825   20.0690 C   0  0  0  0  0  0  0  0  0  0  0  0
  -31.4471  -16.7664   21.4445 C   0  0  0  0  0  0  0  0  0  0  0  0
  -26.3252  -34.3721   22.1695 C   0  0  0  0  0  0  0  0  0  0  0  0
  -29.0826  -13.6973   21.1376 C   0  0  0  0  0  0  0  0  0  0  0  0
  -28.0146  -12.8026   21.0703 C   0  0  0  0  0  0  0  0  0  0  0  0
  -27.0081  -32.3874   20.9684 C   0  0  0  0  0  0  0  0  0  0  0  0
  -30.1825  -29.8749   19.3664 C   0  0  0  0  0  0  0  0  0  0  0  0
  -28.3360  -12.5983   18.6845 C   0  0  0  0  0  0  0  0  0  0  0  0
  -30.0675  -18.7495   21.4788 C   0  0  0  0  0  0  0  0  0  0  0  0
  -28.6579  -20.5073   22.6750 C   0  0  0  0  0  0  0  0  0  0  0  0
  -18.1839  -27.8955   22.5969 C   0  0  0  0  0  0  0  0  0  0  0  0
  -24.9661  -32.3749   22.2781 C   0  0  0  0  0  0  0  0  0  0  0  0
  -19.2647  -28.3920   23.3504 C   0  0  0  0  0  0  0  0  0  0  0  0
  -25.8761  -31.7148   21.4361 C   0  0  0  0  0  0  0  0  0  0  0  0
  -30.9926  -30.6355   18.5233 C   0  0  0  0  0  0  0  0  0  0  0  0
  -30.6987  -28.7408   19.9933 C   0  0  0  0  0  0  0  0  0  0  0  0
  -32.0252  -28.3674   19.7771 C   0  0  0  0  0  0  0  0  0  0  0  0
  -30.5850  -16.1828   20.5161 C   0  0  0  0  0  0  0  0  0  0  0  0
  -27.2272  -33.7164   21.3312 C   0  0  0  0  0  0  0  0  0  0  0  0
  -29.7772  -14.0426   19.9783 C   0  0  0  0  0  0  0  0  0  0  0  0
  -27.6413  -12.2530   19.8438 C   0  0  0  0  0  0  0  0  0  0  0  0
  -29.4039  -13.4930   18.7518 C   0  0  0  0  0  0  0  0  0  0  0  0
  -29.8010  -20.0753   21.9759 C   0  0  0  0  0  0  0  0  0  0  0  0
  -28.8887  -21.8387   22.9210 C   0  0  0  0  0  0  0  0  0  0  0  0
  -30.7858  -34.2315   17.5284 C   0  0  0  0  0  0  0  0  0  0  0  0
  -34.3098  -34.5346   16.5411 C   0  0  0  0  0  0  0  0  0  0  0  0
  -31.8995  -34.6748   16.9260 C   0  0  0  0  0  0  0  0  0  0  0  0
  -33.1996  -34.0921   17.1421 C   0  0  0  0  0  0  0  0  0  0  0  0
  -27.4919  -19.7708   23.0670 C   0  0  0  0  0  0  0  0  0  0  0  0
  -22.7319  -29.3714   22.5305 C   0  0  0  0  0  0  0  0  0  0  0  0
  -23.6676  -29.5434   19.6141 C   0  0  0  0  0  0  0  0  0  0  0  0
  -24.1320  -30.6253   16.6957 C   0  0  0  0  0  0  0  0  0  0  0  0
  -32.0315  -25.9146   20.1957 C   0  0  0  0  0  0  0  0  0  0  0  0
  -18.3866  -26.9100   21.4733 C   0  0  0  0  0  0  0  0  0  0  0  0
  -23.7996  -31.5946   22.8206 C   0  0  0  0  0  0  0  0  0  0  0  0
  -25.6022  -30.2765   21.0907 C   0  0  0  0  0  0  0  0  0  0  0  0
  -29.4304  -34.8433   17.2995 C   0  0  0  0  0  0  0  0  0  0  0  0
  -19.8241  -26.8558   20.9625 C   0  0  0  0  0  0  0  0  0  0  0  0
  -28.7647  -35.1706   18.6306 C   0  0  0  0  0  0  0  0  0  0  0  0
  -32.4313  -24.9702   23.6004 C   0  0  0  0  0  0  0  0  0  0  0  0
  -20.8031  -26.7827   22.1300 C   0  0  0  0  0  0  0  0  0  0  0  0
  -31.6926  -23.6327   23.6330 C   0  0  0  0  0  0  0  0  0  0  0  0
  -33.2303  -25.1515   22.3094 C   0  0  0  0  0  0  0  0  0  0  0  0
  -31.6909  -23.6305   21.1089 C   0  0  0  0  0  0  0  0  0  0  0  0
  -30.2541  -33.4855   19.7740 C   0  0  0  0  0  0  0  0  0  0  0  0
  -20.6956  -28.0276   23.0189 C   0  0  1  0  0  0  0  0  0  0  0  0
  -23.2205  -30.5917   21.8068 C   0  0  1  0  0  0  0  0  0  0  0  0
  -30.8330  -23.4457   22.3703 C   0  0  1  0  0  0  0  0  0  0  0  0
  -28.8220  -33.9809   19.5888 C   0  0  1  0  0  0  0  0  0  1  0  0
  -29.8071  -27.9431   20.8889 C   0  0  0  0  0  0  0  0  0  0  0  0
  -24.3781  -31.1031   14.2445 C   0  0  0  0  0  0  0  0  0  0  0  0
  -25.7368  -27.3731   20.1725 C   0  0  0  0  0  0  0  0  0  0  0  0
  -26.1777  -27.2593   17.7106 C   0  0  0  0  0  0  0  0  0  0  0  0
  -23.9150  -26.6976   18.5980 C   0  0  0  0  0  0  0  0  0  0  0  0
  -33.8666  -27.3203   21.1078 C   0  0  0  0  0  0  0  0  0  0  0  0
  -21.2492  -31.2291   16.4056 C   0  0  0  0  0  0  0  0  0  0  0  0
  -30.4367  -31.8539   17.8470 C   0  0  0  0  0  0  0  0  0  0  0  0
  -24.6767  -29.1084   18.5817 C   0  0  1  0  0  0  0  0  0  0  0  0
  -23.4354  -30.6468   15.3471 C   0  0  2  0  0  0  0  0  0  0  0  0
  -25.1293  -27.6342   18.7798 C   0  0  0  0  0  0  0  0  0  0  0  0
  -30.6916  -21.0531   21.7897 N   0  0  0  0  0  0  0  0  0  0  0  0
  -30.1082  -22.1128   22.3753 N   0  0  0  0  0  0  0  0  0  0  0  0
  -24.1718  -30.0936   20.7988 N   0  0  0  0  0  0  0  0  0  0  0  0
  -32.3788  -24.9236   21.1333 N   0  0  0  0  0  0  0  0  0  0  0  0
  -28.1653  -22.7901   23.5487 N   0  0  0  0  0  0  0  0  0  0  0  0
  -26.4059  -19.7188   22.1826 N   0  0  0  0  0  0  0  0  0  0  0  0
  -21.3741  -29.1481   22.4036 N   0  0  0  0  0  0  0  0  0  0  0  0
  -24.0727  -29.3784   17.2814 N   0  0  0  0  0  0  0  0  0  0  0  0
  -32.5787  -27.1969   20.4166 N   0  0  0  0  0  0  0  0  0  0  0  0
  -30.9157  -33.1395   18.4624 N   0  3  1  0  0  0  0  0  0  0  0  0
  -22.2688  -31.5735   15.3814 N   0  3  0  0  0  0  0  0  0  0  0  0
  -27.4090  -19.1902   24.1759 O   0  0  0  0  0  0  0  0  0  0  0  0
  -23.5275  -28.6815   23.1570 O   0  0  0  0  0  0  0  0  0  0  0  0
  -22.4646  -29.3954   19.3815 O   0  0  0  0  0  0  0  0  0  0  0  0
  -24.6776  -31.6146   17.1795 O   0  0  0  0  0  0  0  0  0  0  0  0
  -31.3100  -25.6670   19.2221 O   0  0  0  0  0  0  0  0  0  0  0  0
  -30.8377  -14.9304   20.0468 O   0  0  0  0  0  0  0  0  0  0  0  0
  -28.3213  -34.3781   20.8624 O   0  0  0  0  0  0  0  0  0  1  0  0
  -26.6167  -11.3926   19.7797 F   0  0  0  0  0  0  0  0  0  0  0  0
  -30.0683  -13.8200   17.6348 F   0  0  0  0  0  0  0  0  0  0  0  0
  1  2  1  0  0  0  0
  1  5  2  0  0  0  0
  2  6  2  0  0  0  0
  3 10  2  0  0  0  0
  3 18  1  0  0  0  0
  4 11  1  0  0  0  0
  4 18  2  0  0  0  0
  5 20  1  0  0  0  0
  6 22  1  0  0  0  0
  7 12  2  0  0  0  0
  7 21  1  0  0  0  0
  8  9  2  0  0  0  0
  8 24  1  0  0  0  0
  9 26  1  0  0  0  0
 10 27  1  0  0  0  0
 11 27  2  0  0  0  0
 12 28  1  0  0  0  0
 13 14  2  0  0  0  0
 13 29  1  0  0  0  0
 14 30  1  0  0  0  0
 15 23  1  0  0  0  0
 15 28  2  0  0  0  0
 16 24  2  0  0  0  0
 16 25  1  0  0  0  0
 17 30  2  0  0  0  0
 17 31  1  0  0  0  0
 18 32  1  0  0  0  0
 19 32  1  0  0  0  0
 19 33  2  0  0  0  0
 19 38  1  0  0  0  0
 20 22  2  0  0  0  0
 20 43  1  0  0  0  0
 21 23  2  0  0  0  0
 21 44  1  0  0  0  0
 22 55  1  0  0  0  0
 23 45  1  0  0  0  0
 24 66  1  0  0  0  0
 25 26  2  0  0  0  0
 25 59  1  0  0  0  0
 26 78  1  0  0  0  0
 27 86  1  0  0  0  0
 28 87  1  0  0  0  0
 29 31  2  0  0  0  0
 29 86  1  0  0  0  0
 30 88  1  0  0  0  0
 31 89  1  0  0  0  0
 32 70  2  0  0  0  0
 33 71  1  0  0  0  0
 33 74  1  0  0  0  0
 34 36  2  0  0  0  0
 34 46  1  0  0  0  0
 34 79  1  0  0  0  0
 35 37  2  0  0  0  0
 36 37  1  0  0  0  0
 38 75  1  0  0  0  0
 38 81  2  0  0  0  0
 39 56  1  0  0  0  0
 39 76  1  0  0  0  0
 39 82  2  0  0  0  0
 40 67  1  0  0  0  0
 40 72  1  0  0  0  0
 40 83  2  0  0  0  0
 41 68  1  0  0  0  0
 41 77  1  0  0  0  0
 41 84  2  0  0  0  0
 42 73  1  0  0  0  0
 42 78  1  0  0  0  0
 42 85  2  0  0  0  0
 43 47  1  0  0  0  0
 44 56  1  0  0  0  0
 45 72  1  0  0  0  0
 46 48  1  0  0  0  0
 47 50  1  0  0  0  0
 48 58  1  0  0  0  0
 49 51  1  0  0  0  0
 49 52  1  0  0  0  0
 50 55  1  0  0  0  0
 51 57  1  0  0  0  0
 52 73  1  0  0  0  0
 53 57  1  0  0  0  0
 53 73  1  0  0  0  0
 54 58  1  0  0  0  0
 54 79  1  0  0  0  0
 55 76  1  0  0  0  0
 56 72  1  0  0  0  0
 57 71  1  0  0  0  0
 58 87  1  0  0  0  0
 60 68  1  0  0  0  0
 61 69  1  0  0  0  0
 62 69  1  0  0  0  0
 63 69  1  0  0  0  0
 64 78  1  0  0  0  0
 65 80  1  0  0  0  0
 66 79  1  0  0  0  0
 67 69  1  0  0  0  0
 67 77  1  0  0  0  0
 68 80  1  0  0  0  0
 70 71  1  0  0  0  0
M  CHG  2  79   1  80   1
M  ISO  4  42 100  58 101  78 100  87 101
M  END
> <Batch ID>
0039

> <Smiles>
C=CC=C1CC[101CH:1]([101O:1]c2ccc3c(c2)CN(C(=O)C(NC(=O)C(C)NC)C(C)(C)C)C(C(=O)NC2CCCc4ccccc42)C3)CN1Cc1ccc([100N:0](C)[100C:0](=O)N2CCCC(n3nc(-c4ccc(Oc5ccc(F)cc5F)cc4)c(C(N)=O)c3N)C2)c(C)c1

> <Shape>
0.257

> <Color>
0.104

> <Negative vol penalty>
0.000

$$$$

  -OEChem-04042322043D

 89 98  0     1  0  0  0  0  0999 V2000
  -21.6682  -17.2692   25.0090 C   0  0  0  0  0  0  0  0  0  0  0  0
  -22.3949  -18.3613   24.5457 C   0  0  0  0  0  0  0  0  0  0  0  0
  -23.3067  -10.2182   22.2411 C   0  0  0  0  0  0  0  0  0  0  0  0
  -23.6003   -9.5286   19.9443 C   0  0  0  0  0  0  0  0  0  0  0  0
  -20.7930  -17.4209   26.0837 C   0  0  0  0  0  0  0  0  0  0  0  0
  -22.2460  -19.6061   25.1563 C   0  0  0  0  0  0  0  0  0  0  0  0
  -26.6804  -21.9088   25.9802 C   0  0  0  0  0  0  0  0  0  0  0  0
  -22.5615   -9.0661   22.4919 C   0  0  0  0  0  0  0  0  0  0  0  0
  -22.8551   -8.3764   20.1951 C   0  0  0  0  0  0  0  0  0  0  0  0
  -27.2902  -22.5252   24.8885 C   0  0  0  0  0  0  0  0  0  0  0  0
  -19.4105   -7.9709   21.9483 C   0  0  0  0  0  0  0  0  0  0  0  0
  -18.2271   -8.1104   22.6734 C   0  0  0  0  0  0  0  0  0  0  0  0
  -26.4615  -24.6624   25.6401 C   0  0  0  0  0  0  0  0  0  0  0  0
  -30.7658  -19.1613   20.3216 C   0  0  0  0  0  0  0  0  0  0  0  0
  -19.0915   -6.6233   24.3700 C   0  0  0  0  0  0  0  0  0  0  0  0
  -23.8261  -10.4495   20.9673 C   0  0  0  0  0  0  0  0  0  0  0  0
  -24.1681  -12.9744   20.8417 C   0  0  0  0  0  0  0  0  0  0  0  0
  -20.6405  -18.6660   26.7139 C   0  0  0  0  0  0  0  0  0  0  0  0
  -25.9461  -22.6643   26.9057 C   0  0  0  0  0  0  0  0  0  0  0  0
  -21.3669  -19.7749   26.2395 C   0  0  0  0  0  0  0  0  0  0  0  0
  -25.8455  -24.0535   26.7441 C   0  0  0  0  0  0  0  0  0  0  0  0
  -30.5793  -19.8723   21.5071 C   0  0  0  0  0  0  0  0  0  0  0  0
  -30.2279  -19.1983   22.6766 C   0  0  0  0  0  0  0  0  0  0  0  0
  -30.0628  -17.8133   22.6608 C   0  0  0  0  0  0  0  0  0  0  0  0
  -30.2492  -17.1023   21.4753 C   0  0  0  0  0  0  0  0  0  0  0  0
  -22.3357   -8.1452   21.4689 C   0  0  0  0  0  0  0  0  0  0  0  0
  -27.1785  -23.9019   24.7168 C   0  0  0  0  0  0  0  0  0  0  0  0
  -20.4343   -7.1575   22.4340 C   0  0  0  0  0  0  0  0  0  0  0  0
  -18.0676   -7.4366   23.8843 C   0  0  0  0  0  0  0  0  0  0  0  0
  -20.2748   -6.4837   23.6449 C   0  0  0  0  0  0  0  0  0  0  0  0
  -30.6006  -17.7763   20.3057 C   0  0  0  0  0  0  0  0  0  0  0  0
  -24.5954  -11.6397   20.7075 C   0  0  0  0  0  0  0  0  0  0  0  0
  -25.2606  -13.7229   20.4778 C   0  0  0  0  0  0  0  0  0  0  0  0
  -29.2245  -22.9710   22.5628 C   0  0  0  0  0  0  0  0  0  0  0  0
  -22.8973  -13.4912   21.2583 C   0  0  0  0  0  0  0  0  0  0  0  0
  -22.9139  -22.7143   27.8580 C   0  0  0  0  0  0  0  0  0  0  0  0
  -24.0332  -24.8650   30.0130 C   0  0  0  0  0  0  0  0  0  0  0  0
  -26.4119  -27.1683   30.8399 C   0  0  0  0  0  0  0  0  0  0  0  0
  -30.7267  -14.7687   20.6551 C   0  0  0  0  0  0  0  0  0  0  0  0
  -19.6471  -18.7919   27.8417 C   0  0  0  0  0  0  0  0  0  0  0  0
  -25.3167  -21.9879   28.0926 C   0  0  0  0  0  0  0  0  0  0  0  0
  -25.0855  -24.9124   27.7204 C   0  0  0  0  0  0  0  0  0  0  0  0
  -19.8271  -20.0593   28.6732 C   0  0  0  0  0  0  0  0  0  0  0  0
  -27.4623  -24.0174   19.9558 C   0  0  0  0  0  0  0  0  0  0  0  0
  -28.4025  -22.9189   19.4699 C   0  0  0  0  0  0  0  0  0  0  0  0
  -29.6144  -12.3494   18.2914 C   0  0  0  0  0  0  0  0  0  0  0  0
  -19.9989  -21.2733   27.7657 C   0  0  0  0  0  0  0  0  0  0  0  0
  -27.8806  -24.6841   21.2626 C   0  0  0  0  0  0  0  0  0  0  0  0
  -28.1743  -12.0589   18.7203 C   0  0  0  0  0  0  0  0  0  0  0  0
  -28.5474  -21.7650   20.4550 C   0  0  0  0  0  0  0  0  0  0  0  0
  -30.5284  -12.5810   19.4934 C   0  0  0  0  0  0  0  0  0  0  0  0
  -28.6202  -13.3088   20.8712 C   0  0  0  0  0  0  0  0  0  0  0  0
  -21.2512  -21.1357   26.8914 C   0  0  1  0  0  0  0  0  0  0  0  0
  -27.9074  -23.7344   22.4600 C   0  0  2  0  0  0  0  0  0  1  0  0
  -24.1620  -22.7849   28.6916 C   0  0  1  0  0  0  0  0  0  0  0  0
  -27.6485  -13.1328   19.6929 C   0  0  2  0  0  0  0  0  0  0  0  0
  -30.0280  -19.9640   23.9464 C   0  0  0  0  0  0  0  0  0  0  0  0
  -29.6856  -17.0961   23.9198 C   0  0  0  0  0  0  0  0  0  0  0  0
  -27.0382  -28.7908   32.6489 C   0  0  0  0  0  0  0  0  0  0  0  0
  -21.8553  -26.7736   29.0517 C   0  0  0  0  0  0  0  0  0  0  0  0
  -23.0962  -28.6404   30.1669 C   0  0  0  0  0  0  0  0  0  0  0  0
  -22.2033  -26.7503   31.5281 C   0  0  0  0  0  0  0  0  0  0  0  0
  -28.9792  -25.7871   31.3503 C   0  0  0  0  0  0  0  0  0  0  0  0
  -30.7640  -21.3623   21.4967 C   0  0  0  0  0  0  0  0  0  0  0  0
  -24.2071  -26.3645   30.0355 C   0  0  1  0  0  0  0  0  0  0  0  0
  -27.2113  -27.3781   32.1132 C   0  0  2  0  0  0  0  0  0  0  0  0
  -22.8533  -27.1160   30.1759 C   0  0  0  0  0  0  0  0  0  0  0  0
  -25.8607  -11.5429   20.2907 N   0  0  0  0  0  0  0  0  0  0  0  0
  -26.2378  -12.8261   20.1597 N   0  0  0  0  0  0  0  0  0  0  0  0
  -29.4904  -22.0699   21.5321 N   0  0  0  0  0  0  0  0  0  0  0  0
  -24.4825  -24.2036   28.8613 N   0  0  0  0  0  0  0  0  0  0  0  0
  -29.9686  -13.6139   20.3679 N   0  0  0  0  0  0  0  0  0  0  0  0
  -25.4712  -15.0542   20.4018 N   0  0  0  0  0  0  0  0  0  0  0  0
  -21.8850  -12.5828   21.5967 N   0  0  0  0  0  0  0  0  0  0  0  0
  -30.0786  -15.6957   21.4708 N   0  0  0  0  0  0  0  0  0  0  0  0
  -22.4403  -21.4311   27.6617 N   0  0  0  0  0  0  0  0  0  0  0  0
  -25.1617  -26.6487   31.1014 N   0  0  0  0  0  0  0  0  0  0  0  0
  -28.6612  -27.1463   31.8587 N   0  3  0  0  0  0  0  0  0  0  0  0
  -29.9880  -23.1661   23.5122 O   0  0  0  0  0  0  0  0  0  0  0  0
  -22.6610  -14.7219   21.3125 O   0  0  0  0  0  0  0  0  0  0  0  0
  -22.4165  -23.7477   27.4262 O   0  0  0  0  0  0  0  0  0  0  0  0
  -23.5242  -24.3006   30.9846 O   0  0  0  0  0  0  0  0  0  0  0  0
  -26.8511  -27.4416   29.7250 O   0  0  0  0  0  0  0  0  0  0  0  0
  -31.8562  -14.9363   20.1882 O   0  0  0  0  0  0  0  0  0  0  0  0
  -21.6088   -7.0207   21.7133 O   0  0  0  0  0  0  0  0  0  0  0  0
  -27.7722  -24.5060   23.6517 O   0  0  0  0  0  0  0  0  0  1  0  0
  -16.9318   -7.5719   24.5813 F   0  0  0  0  0  0  0  0  0  0  0  0
  -21.2554   -5.7019   24.1171 F   0  0  0  0  0  0  0  0  0  0  0  0
  -30.8420  -16.9377   18.8138 Cl  0  0  0  0  0  0  0  0  0  0  0  0
  1  2  1  0  0  0  0
  1  5  2  0  0  0  0
  2  6  2  0  0  0  0
  3  8  2  0  0  0  0
  3 16  1  0  0  0  0
  4  9  1  0  0  0  0
  4 16  2  0  0  0  0
  5 18  1  0  0  0  0
  6 20  1  0  0  0  0
  7 10  2  0  0  0  0
  7 19  1  0  0  0  0
  8 26  1  0  0  0  0
  9 26  2  0  0  0  0
 10 27  1  0  0  0  0
 11 12  2  0  0  0  0
 11 28  1  0  0  0  0
 12 29  1  0  0  0  0
 13 21  1  0  0  0  0
 13 27  2  0  0  0  0
 14 22  1  0  0  0  0
 14 31  2  0  0  0  0
 15 29  2  0  0  0  0
 15 30  1  0  0  0  0
 16 32  1  0  0  0  0
 17 32  1  0  0  0  0
 17 33  2  0  0  0  0
 17 35  1  0  0  0  0
 18 20  2  0  0  0  0
 18 40  1  0  0  0  0
 19 21  2  0  0  0  0
 19 41  1  0  0  0  0
 20 53  1  0  0  0  0
 21 42  1  0  0  0  0
 22 23  2  0  0  0  0
 22 64  1  0  0  0  0
 23 24  1  0  0  0  0
 23 57  1  0  0  0  0
 24 25  2  0  0  0  0
 24 58  1  0  0  0  0
 25 31  1  0  0  0  0
 25 75  1  0  0  0  0
 26 85  1  0  0  0  0
 27 86  1  0  0  0  0
 28 30  2  0  0  0  0
 28 85  1  0  0  0  0
 29 87  1  0  0  0  0
 30 88  1  0  0  0  0
 31 89  1  0  0  0  0
 32 68  2  0  0  0  0
 33 69  1  0  0  0  0
 33 73  1  0  0  0  0
 34 54  1  0  0  0  0
 34 70  1  0  0  0  0
 34 79  2  0  0  0  0
 35 74  1  0  0  0  0
 35 80  2  0  0  0  0
 36 55  1  0  0  0  0
 36 76  1  0  0  0  0
 36 81  2  0  0  0  0
 37 65  1  0  0  0  0
 37 71  1  0  0  0  0
 37 82  2  0  0  0  0
 38 66  1  0  0  0  0
 38 77  1  0  0  0  0
 38 83  2  0  0  0  0
 39 72  1  0  0  0  0
 39 75  1  0  0  0  0
 39 84  2  0  0  0  0
 40 43  1  0  0  0  0
 41 55  1  0  0  0  0
 42 71  1  0  0  0  0
 43 47  1  0  0  0  0
 44 45  1  0  0  0  0
 44 48  1  0  0  0  0
 45 50  1  0  0  0  0
 46 49  1  0  0  0  0
 46 51  1  0  0  0  0
 47 53  1  0  0  0  0
 48 54  1  0  0  0  0
 49 56  1  0  0  0  0
 50 70  1  0  0  0  0
 51 72  1  0  0  0  0
 52 56  1  0  0  0  0
 52 72  1  0  0  0  0
 53 76  1  0  0  0  0
 54 86  1  0  0  0  0
 55 71  1  0  0  0  0
 56 69  1  0  0  0  0
 59 66  1  0  0  0  0
 60 67  1  0  0  0  0
 61 67  1  0  0  0  0
 62 67  1  0  0  0  0
 63 78  1  0  0  0  0
 64 70  1  0  0  0  0
 65 67  1  0  0  0  0
 65 77  1  0  0  0  0
 66 78  1  0  0  0  0
 68 69  1  0  0  0  0
M  CHG  1  78   1
M  ISO  4  39 100  54 101  75 100  86 101
M  END
> <Batch ID>
0039

> <Smiles>
CNC(C)C(=O)NC(C(=O)N1Cc2cc([101O:1][101CH:1]3CCCCN(Cc4cc(Cl)c([100NH:0][100C:0](=O)N5CCCC(n6nc(-c7ccc(Oc8ccc(F)cc8F)cc7)c(C(N)=O)c6N)C5)c(C)c4C)C3=O)ccc2CC1C(=O)NC1CCCc2ccccc21)C(C)(C)C

> <Shape>
0.188

> <Color>
0.191

> <Negative vol penalty>
0.000

$$$$

  -OEChem-04042322043D

 87 95  0     1  0  0  0  0  0999 V2000
  -22.5901   -9.8517   20.4887 C   0  0  0  0  0  0  0  0  0  0  0  0
  -21.9747  -10.9362   21.1056 C   0  0  0  0  0  0  0  0  0  0  0  0
  -29.2901  -28.3235   19.7735 C   0  0  0  0  0  0  0  0  0  0  0  0
  -27.9363  -26.3327   19.9759 C   0  0  0  0  0  0  0  0  0  0  0  0
  -23.9391   -9.9208   20.1434 C   0  0  0  0  0  0  0  0  0  0  0  0
  -22.7084  -12.0902   21.3785 C   0  0  0  0  0  0  0  0  0  0  0  0
  -20.6782  -17.8661   21.2245 C   0  0  0  0  0  0  0  0  0  0  0  0
  -30.4015  -27.5370   19.4706 C   0  0  0  0  0  0  0  0  0  0  0  0
  -29.0477  -25.5461   19.6730 C   0  0  0  0  0  0  0  0  0  0  0  0
  -20.2450  -18.7350   22.2251 C   0  0  0  0  0  0  0  0  0  0  0  0
  -31.4459  -23.0336   18.5986 C   0  0  0  0  0  0  0  0  0  0  0  0
  -31.2763  -21.9954   17.6827 C   0  0  0  0  0  0  0  0  0  0  0  0
  -22.4511  -19.7053   22.3292 C   0  0  0  0  0  0  0  0  0  0  0  0
  -17.8743  -27.6970   21.5254 C   0  0  0  0  0  0  0  0  0  0  0  0
  -18.6044  -29.0426   23.3945 C   0  0  0  0  0  0  0  0  0  0  0  0
  -30.6051  -23.5916   15.9978 C   0  0  0  0  0  0  0  0  0  0  0  0
  -28.0575  -27.7214   20.0262 C   0  0  0  0  0  0  0  0  0  0  0  0
  -25.9776  -29.0744   19.4335 C   0  0  0  0  0  0  0  0  0  0  0  0
  -24.6873  -11.0798   20.4035 C   0  0  0  0  0  0  0  0  0  0  0  0
  -22.0062  -17.9029   20.7757 C   0  0  0  0  0  0  0  0  0  0  0  0
  -24.0691  -12.1744   21.0376 C   0  0  0  0  0  0  0  0  0  0  0  0
  -22.8980  -18.8375   21.3211 C   0  0  0  0  0  0  0  0  0  0  0  0
  -18.7696  -26.6942   21.8976 C   0  0  0  0  0  0  0  0  0  0  0  0
  -19.4996  -28.0398   23.7667 C   0  0  0  0  0  0  0  0  0  0  0  0
  -19.5822  -26.8656   23.0182 C   0  0  0  0  0  0  0  0  0  0  0  0
  -30.2803  -26.1483   19.4203 C   0  0  0  0  0  0  0  0  0  0  0  0
  -21.1322  -19.6528   22.7796 C   0  0  0  0  0  0  0  0  0  0  0  0
  -31.1950  -24.3508   18.2142 C   0  0  0  0  0  0  0  0  0  0  0  0
  -30.8560  -22.2744   16.3822 C   0  0  0  0  0  0  0  0  0  0  0  0
  -30.7746  -24.6298   16.9138 C   0  0  0  0  0  0  0  0  0  0  0  0
  -17.7918  -28.8713   22.2738 C   0  0  0  0  0  0  0  0  0  0  0  0
  -26.9092  -28.5333   20.3398 C   0  0  0  0  0  0  0  0  0  0  0  0
  -25.0874  -29.7591   20.2241 C   0  0  0  0  0  0  0  0  0  0  0  0
  -25.9220  -28.9675   18.0048 C   0  0  0  0  0  0  0  0  0  0  0  0
  -24.4257  -15.8414   20.7571 C   0  0  0  0  0  0  0  0  0  0  0  0
  -25.8825  -18.1655   19.0255 C   0  0  0  0  0  0  0  0  0  0  0  0
  -19.9590  -23.3531   23.5560 C   0  0  0  0  0  0  0  0  0  0  0  0
  -26.0860  -21.4727   18.2082 C   0  0  0  0  0  0  0  0  0  0  0  0
  -22.5128  -29.4040   25.3971 C   0  0  0  0  0  0  0  0  0  0  0  0
  -26.1546  -11.0901   20.0549 C   0  0  0  0  0  0  0  0  0  0  0  0
  -22.4509  -16.9769   19.6770 C   0  0  0  0  0  0  0  0  0  0  0  0
  -24.3288  -18.9311   20.8599 C   0  0  0  0  0  0  0  0  0  0  0  0
  -26.7672  -12.4882   20.0393 C   0  0  0  0  0  0  0  0  0  0  0  0
  -25.2172  -31.6399   24.7945 C   0  0  0  0  0  0  0  0  0  0  0  0
  -26.3469  -13.2690   21.2804 C   0  0  0  0  0  0  0  0  0  0  0  0
  -25.8426  -31.1170   23.5001 C   0  0  0  0  0  0  0  0  0  0  0  0
  -24.7159  -30.5007   25.6794 C   0  0  0  0  0  0  0  0  0  0  0  0
  -24.4225  -29.0353   23.7197 C   0  0  0  0  0  0  0  0  0  0  0  0
  -24.8252  -13.4527   21.3277 C   0  0  1  0  0  0  0  0  0  0  0  0
  -23.9599  -16.7537   19.6578 C   0  0  1  0  0  0  0  0  0  0  0  0
  -24.8924  -30.1496   22.7691 C   0  0  2  0  0  0  0  0  0  0  0  0
  -18.8387  -25.4463   21.0793 C   0  0  0  0  0  0  0  0  0  0  0  0
  -26.8599  -23.5276   16.9934 C   0  0  0  0  0  0  0  0  0  0  0  0
  -28.1824  -18.0410   21.0268 C   0  0  0  0  0  0  0  0  0  0  0  0
  -28.9765  -20.2458   20.1456 C   0  0  0  0  0  0  0  0  0  0  0  0
  -28.8890  -18.2603   18.6379 C   0  0  0  0  0  0  0  0  0  0  0  0
  -19.0983  -24.9891   25.2453 C   0  0  0  0  0  0  0  0  0  0  0  0
  -24.0399  -21.1361   16.0965 C   0  0  0  0  0  0  0  0  0  0  0  0
  -20.3588  -28.2472   24.9711 C   0  0  0  0  0  0  0  0  0  0  0  0
  -20.5465  -25.7866   23.4185 C   0  0  0  0  0  0  0  0  0  0  0  0
  -19.1972  -22.2846   24.3332 C   0  0  0  0  0  0  0  0  0  0  0  0
  -19.3397  -20.8918   23.7324 C   0  0  0  0  0  0  0  0  0  1  0  0
  -26.7326  -19.3692   19.3535 C   0  0  1  0  0  0  0  0  0  0  0  0
  -26.1775  -22.1746   16.8653 C   0  0  2  0  0  0  0  0  0  0  0  0
  -28.1687  -18.9762   19.8012 C   0  0  0  0  0  0  0  0  0  0  0  0
  -26.6361  -28.8473   21.6090 N   0  0  0  0  0  0  0  0  0  0  0  0
  -25.5230  -29.5933   21.5059 N   0  0  0  0  0  0  0  0  0  0  0  0
  -24.7174  -18.0001   19.7877 N   0  0  0  0  0  0  0  0  0  0  0  0
  -23.8184  -29.6210   24.9268 N   0  0  0  0  0  0  0  0  0  0  0  0
  -23.9823  -30.4809   19.9410 N   0  0  0  0  0  0  0  0  0  0  0  0
  -26.9157  -28.2262   17.3511 N   0  0  0  0  0  0  0  0  0  0  0  0
  -24.4143  -14.5016   20.4191 N   0  0  0  0  0  0  0  0  0  0  0  0
  -26.6882  -20.2326   18.1784 N   0  0  0  0  0  0  0  0  0  0  0  0
  -21.7260  -28.5619   24.6209 N   0  0  0  0  0  0  0  0  0  0  0  0
  -19.8708  -24.6578   24.0543 N   0  0  0  0  0  0  0  0  0  0  0  0
  -24.8159  -22.3868   16.2979 N   0  3  0  0  0  0  0  0  0  0  0  0
  -25.0272  -29.5268   17.3267 O   0  0  0  0  0  0  0  0  0  0  0  0
  -24.7712  -16.3179   21.8320 O   0  0  0  0  0  0  0  0  0  0  0  0
  -26.2355  -17.4041   18.1215 O   0  0  0  0  0  0  0  0  0  0  0  0
  -20.6077  -23.0542   22.5500 O   0  0  0  0  0  0  0  0  0  0  0  0
  -25.5386  -21.9758   19.1868 O   0  0  0  0  0  0  0  0  0  0  0  0
  -22.0786  -29.9265   26.4293 O   0  0  0  0  0  0  0  0  0  0  0  0
  -31.3645  -25.3805   19.1245 O   0  0  0  0  0  0  0  0  0  0  0  0
  -20.7122  -20.5017   23.7567 O   0  0  0  0  0  0  0  0  0  1  0  0
  -30.6947  -21.2775   15.5023 F   0  0  0  0  0  0  0  0  0  0  0  0
  -30.5332  -25.8933   16.5383 F   0  0  0  0  0  0  0  0  0  0  0  0
  -16.6874  -30.1090   21.8146 Cl  0  0  0  0  0  0  0  0  0  0  0  0
  1  2  1  0  0  0  0
  1  5  2  0  0  0  0
  2  6  2  0  0  0  0
  3  8  2  0  0  0  0
  3 17  1  0  0  0  0
  4  9  1  0  0  0  0
  4 17  2  0  0  0  0
  5 19  1  0  0  0  0
  6 21  1  0  0  0  0
  7 10  2  0  0  0  0
  7 20  1  0  0  0  0
  8 26  1  0  0  0  0
  9 26  2  0  0  0  0
 10 27  1  0  0  0  0
 11 12  2  0  0  0  0
 11 28  1  0  0  0  0
 12 29  1  0  0  0  0
 13 22  1  0  0  0  0
 13 27  2  0  0  0  0
 14 23  2  0  0  0  0
 14 31  1  0  0  0  0
 15 24  1  0  0  0  0
 15 31  2  0  0  0  0
 16 29  2  0  0  0  0
 16 30  1  0  0  0  0
 17 32  1  0  0  0  0
 18 32  1  0  0  0  0
 18 33  2  0  0  0  0
 18 34  1  0  0  0  0
 19 21  2  0  0  0  0
 19 40  1  0  0  0  0
 20 22  2  0  0  0  0
 20 41  1  0  0  0  0
 21 49  1  0  0  0  0
 22 42  1  0  0  0  0
 23 25  1  0  0  0  0
 23 52  1  0  0  0  0
 24 25  2  0  0  0  0
 24 59  1  0  0  0  0
 25 60  1  0  0  0  0
 26 83  1  0  0  0  0
 27 84  1  0  0  0  0
 28 30  2  0  0  0  0
 28 83  1  0  0  0  0
 29 85  1  0  0  0  0
 30 86  1  0  0  0  0
 31 87  1  0  0  0  0
 32 66  2  0  0  0  0
 33 67  1  0  0  0  0
 33 70  1  0  0  0  0
 34 71  1  0  0  0  0
 34 77  2  0  0  0  0
 35 50  1  0  0  0  0
 35 72  1  0  0  0  0
 35 78  2  0  0  0  0
 36 63  1  0  0  0  0
 36 68  1  0  0  0  0
 36 79  2  0  0  0  0
 37 61  1  0  0  0  0
 37 75  1  0  0  0  0
 37 80  2  0  0  0  0
 38 64  1  0  0  0  0
 38 73  1  0  0  0  0
 38 81  2  0  0  0  0
 39 69  1  0  0  0  0
 39 74  1  0  0  0  0
 39 82  2  0  0  0  0
 40 43  1  0  0  0  0
 41 50  1  0  0  0  0
 42 68  1  0  0  0  0
 43 45  1  0  0  0  0
 44 46  1  0  0  0  0
 44 47  1  0  0  0  0
 45 49  1  0  0  0  0
 46 51  1  0  0  0  0
 47 69  1  0  0  0  0
 48 51  1  0  0  0  0
 48 69  1  0  0  0  0
 49 72  1  0  0  0  0
 50 68  1  0  0  0  0
 51 67  1  0  0  0  0
 53 64  1  0  0  0  0
 54 65  1  0  0  0  0
 55 65  1  0  0  0  0
 56 65  1  0  0  0  0
 57 75  1  0  0  0  0
 58 76  1  0  0  0  0
 59 74  1  0  0  0  0
 60 75  1  0  0  0  0
 61 62  1  0  0  0  0
 62 84  1  0  0  0  0
 63 65  1  0  0  0  0
 63 73  1  0  0  0  0
 64 76  1  0  0  0  0
 66 67  1  0  0  0  0
M  CHG  1  76   1
M  ISO  4  39 100  62 101  74 100  84 101
M  END
> <Batch ID>
0039

> <Smiles>
CNC(C)C(=O)NC(C(=O)N1Cc2cc([101O:1][101CH2:1]CC(=O)N(C)Cc3c(C)cc(Cl)cc3C[100NH:0][100C:0](=O)N3CCCC(n4nc(-c5ccc(Oc6ccc(F)cc6F)cc5)c(C(N)=O)c4N)C3)ccc2CC1C(=O)NC1CCCc2ccccc21)C(C)(C)C

> <Shape>
0.255

> <Color>
0.053

> <Negative vol penalty>
0.000

$$$$

  -OEChem-04042322043D

 89 98  0     1  0  0  0  0  0999 V2000
  -16.3897  -29.6174   23.5805 C   0  0  0  0  0  0  0  0  0  0  0  0
  -17.0192  -28.9177   22.5572 C   0  0  0  0  0  0  0  0  0  0  0  0
  -26.1046  -13.6189   19.7856 C   0  0  0  0  0  0  0  0  0  0  0  0
  -24.5490  -13.6097   21.6341 C   0  0  0  0  0  0  0  0  0  0  0  0
  -17.1283  -30.4825   24.3850 C   0  0  0  0  0  0  0  0  0  0  0  0
  -18.3895  -29.0737   22.3457 C   0  0  0  0  0  0  0  0  0  0  0  0
  -25.4722  -27.9805   18.9015 C   0  0  0  0  0  0  0  0  0  0  0  0
  -25.5339  -12.4427   19.2994 C   0  0  0  0  0  0  0  0  0  0  0  0
  -23.9782  -12.4335   21.1480 C   0  0  0  0  0  0  0  0  0  0  0  0
  -26.7409  -28.5419   18.7638 C   0  0  0  0  0  0  0  0  0  0  0  0
  -24.6958   -9.1296   21.1511 C   0  0  0  0  0  0  0  0  0  0  0  0
  -24.4345   -8.1097   22.0660 C   0  0  0  0  0  0  0  0  0  0  0  0
  -26.9834  -28.5677   21.1637 C   0  0  0  0  0  0  0  0  0  0  0  0
  -28.8535  -24.8509   18.9347 C   0  0  0  0  0  0  0  0  0  0  0  0
  -22.0859   -8.2113   21.5085 C   0  0  0  0  0  0  0  0  0  0  0  0
  -25.6122  -14.2024   20.9530 C   0  0  0  0  0  0  0  0  0  0  0  0
  -27.5390  -15.6134   21.8498 C   0  0  0  0  0  0  0  0  0  0  0  0
  -18.5059  -30.6581   24.1746 C   0  0  0  0  0  0  0  0  0  0  0  0
  -24.9443  -27.7181   20.1739 C   0  0  0  0  0  0  0  0  0  0  0  0
  -19.1568  -29.9240   23.1623 C   0  0  0  0  0  0  0  0  0  0  0  0
  -25.7088  -28.0006   21.3148 C   0  0  0  0  0  0  0  0  0  0  0  0
  -30.2236  -24.8392   19.1958 C   0  0  0  0  0  0  0  0  0  0  0  0
  -30.7527  -23.9223   20.1041 C   0  0  0  0  0  0  0  0  0  0  0  0
  -28.5415  -23.0288   20.4902 C   0  0  0  0  0  0  0  0  0  0  0  0
  -24.4706  -11.8500   19.9806 C   0  0  0  0  0  0  0  0  0  0  0  0
  -27.4956  -28.8383   19.8950 C   0  0  0  0  0  0  0  0  0  0  0  0
  -23.6521   -9.6904   20.4149 C   0  0  0  0  0  0  0  0  0  0  0  0
  -23.1296   -7.6505   22.2447 C   0  0  0  0  0  0  0  0  0  0  0  0
  -22.3472   -9.2313   20.5936 C   0  0  0  0  0  0  0  0  0  0  0  0
  -28.0124  -23.9457   19.5820 C   0  0  0  0  0  0  0  0  0  0  0  0
  -29.9116  -23.0171   20.7513 C   0  0  0  0  0  0  0  0  0  0  0  0
  -26.2017  -15.4171   21.4560 C   0  0  0  0  0  0  0  0  0  0  0  0
  -27.5908  -16.9274   22.2463 C   0  0  0  0  0  0  0  0  0  0  0  0
  -32.4230  -27.8526   18.6464 C   0  0  0  0  0  0  0  0  0  0  0  0
  -33.7397  -27.7831   18.8935 C   0  0  0  0  0  0  0  0  0  0  0  0
  -28.6362  -14.6906   21.8564 C   0  0  0  0  0  0  0  0  0  0  0  0
  -22.4167  -28.7401   21.8081 C   0  0  0  0  0  0  0  0  0  0  0  0
  -23.3729  -26.4893   23.9393 C   0  0  0  0  0  0  0  0  0  0  0  0
  -26.4979  -25.3277   25.3185 C   0  0  0  0  0  0  0  0  0  0  0  0
  -26.3427  -22.2994   21.4800 C   0  0  0  0  0  0  0  0  0  0  0  0
  -19.2584  -31.6012   25.0800 C   0  0  0  0  0  0  0  0  0  0  0  0
  -23.5850  -27.0875   20.3047 C   0  0  0  0  0  0  0  0  0  0  0  0
  -25.1959  -27.7193   22.7027 C   0  0  0  0  0  0  0  0  0  0  0  0
  -31.8199  -28.8406   17.6852 C   0  0  0  0  0  0  0  0  0  0  0  0
  -20.6012  -32.0357   24.5018 C   0  0  0  0  0  0  0  0  0  0  0  0
  -30.6733  -29.5938   18.3487 C   0  0  0  0  0  0  0  0  0  0  0  0
  -23.8789  -20.2715   23.0595 C   0  0  0  0  0  0  0  0  0  0  0  0
  -21.3819  -30.8184   24.0292 C   0  0  0  0  0  0  0  0  0  0  0  0
  -24.3736  -18.8439   22.8155 C   0  0  0  0  0  0  0  0  0  0  0  0
  -24.1573  -21.1803   21.8636 C   0  0  0  0  0  0  0  0  0  0  0  0
  -26.0467  -19.7645   21.1601 C   0  0  0  0  0  0  0  0  0  0  0  0
  -30.4296  -27.7211   20.0216 C   0  0  0  0  0  0  0  0  0  0  0  0
  -20.6404  -30.1010   22.8941 C   0  0  1  0  0  0  0  0  0  0  0  0
  -22.9382  -27.3384   21.6634 C   0  0  1  0  0  0  0  0  0  0  0  0
  -25.8468  -18.8277   22.3626 C   0  0  2  0  0  0  0  0  0  0  0  0
  -29.7028  -28.6348   19.0380 C   0  0  1  0  0  0  0  0  0  1  0  0
  -32.2268  -23.9295   20.3691 C   0  0  0  0  0  0  0  0  0  0  0  0
  -34.3570  -26.8131   19.8407 C   0  0  0  0  0  0  0  0  0  0  0  0
  -27.1380  -23.0866   26.2486 C   0  0  0  0  0  0  0  0  0  0  0  0
  -22.6094  -27.7108   26.6291 C   0  0  0  0  0  0  0  0  0  0  0  0
  -24.5428  -26.4928   27.6522 C   0  0  0  0  0  0  0  0  0  0  0  0
  -22.6790  -25.2110   26.6006 C   0  0  0  0  0  0  0  0  0  0  0  0
  -28.7936  -25.0853   23.4665 C   0  0  0  0  0  0  0  0  0  0  0  0
  -31.1045  -25.8248   18.4861 C   0  0  0  0  0  0  0  0  0  0  0  0
  -24.3036  -26.4692   25.1277 C   0  0  1  0  0  0  0  0  0  0  0  0
  -27.1795  -24.0014   25.0344 C   0  0  2  0  0  0  0  0  0  0  0  0
  -23.5377  -26.4888   26.4807 C   0  0  0  0  0  0  0  0  0  0  0  0
  -25.4577  -16.5182   21.5903 N   0  0  0  0  0  0  0  0  0  0  0  0
  -26.3304  -17.4190   22.0730 N   0  0  0  0  0  0  0  0  0  0  0  0
  -23.8587  -27.1080   22.7787 N   0  0  0  0  0  0  0  0  0  0  0  0
  -25.5730  -21.1169   21.4938 N   0  0  0  0  0  0  0  0  0  0  0  0
  -28.5910  -17.6987   22.7229 N   0  0  0  0  0  0  0  0  0  0  0  0
  -28.8583  -13.9249   23.0091 N   0  0  0  0  0  0  0  0  0  0  0  0
  -27.6831  -22.1109   21.1449 N   0  0  0  0  0  0  0  0  0  0  0  0
  -21.3020  -28.8448   22.6179 N   0  0  0  0  0  0  0  0  0  0  0  0
  -25.1699  -25.3091   24.9482 N   0  0  0  0  0  0  0  0  0  0  0  0
  -31.5547  -26.9553   19.3694 N   0  3  1  0  0  0  0  0  0  0  0  0
  -28.6052  -24.2213   24.6602 N   0  3  0  0  0  0  0  0  0  0  0  0
  -29.4071  -14.5610   20.8753 O   0  0  0  0  0  0  0  0  0  0  0  0
  -22.9846  -29.6588   21.2291 O   0  0  0  0  0  0  0  0  0  0  0  0
  -22.2587  -25.9687   24.0349 O   0  0  0  0  0  0  0  0  0  0  0  0
  -27.0840  -26.2834   25.8222 O   0  0  0  0  0  0  0  0  0  0  0  0
  -25.8553  -23.3944   21.7723 O   0  0  0  0  0  0  0  0  0  0  0  0
  -23.9133  -10.7024   19.5064 O   0  0  0  0  0  0  0  0  0  0  0  0
  -28.7339  -29.3869   19.7635 O   0  0  0  0  0  0  0  0  0  1  0  0
  -22.8790   -6.6701   23.1222 F   0  0  0  0  0  0  0  0  0  0  0  0
  -21.3406   -9.7654   19.8884 F   0  0  0  0  0  0  0  0  0  0  0  0
  -26.3221  -24.0000   19.2246 Cl  0  0  0  0  0  0  0  0  0  0  0  0
  -30.5781  -21.8798   21.8803 Cl  0  0  0  0  0  0  0  0  0  0  0  0
  1  2  1  0  0  0  0
  1  5  2  0  0  0  0
  2  6  2  0  0  0  0
  3  8  2  0  0  0  0
  3 16  1  0  0  0  0
  4  9  1  0  0  0  0
  4 16  2  0  0  0  0
  5 18  1  0  0  0  0
  6 20  1  0  0  0  0
  7 10  2  0  0  0  0
  7 19  1  0  0  0  0
  8 25  1  0  0  0  0
  9 25  2  0  0  0  0
 10 26  1  0  0  0  0
 11 12  2  0  0  0  0
 11 27  1  0  0  0  0
 12 28  1  0  0  0  0
 13 21  1  0  0  0  0
 13 26  2  0  0  0  0
 14 22  1  0  0  0  0
 14 30  2  0  0  0  0
 15 28  2  0  0  0  0
 15 29  1  0  0  0  0
 16 32  1  0  0  0  0
 17 32  1  0  0  0  0
 17 33  2  0  0  0  0
 17 36  1  0  0  0  0
 18 20  2  0  0  0  0
 18 41  1  0  0  0  0
 19 21  2  0  0  0  0
 19 42  1  0  0  0  0
 20 53  1  0  0  0  0
 21 43  1  0  0  0  0
 22 23  2  0  0  0  0
 22 64  1  0  0  0  0
 23 31  1  0  0  0  0
 23 57  1  0  0  0  0
 24 30  1  0  0  0  0
 24 31  2  0  0  0  0
 24 74  1  0  0  0  0
 25 84  1  0  0  0  0
 26 85  1  0  0  0  0
 27 29  2  0  0  0  0
 27 84  1  0  0  0  0
 28 86  1  0  0  0  0
 29 87  1  0  0  0  0
 30 88  1  0  0  0  0
 31 89  1  0  0  0  0
 32 68  2  0  0  0  0
 33 69  1  0  0  0  0
 33 72  1  0  0  0  0
 34 35  2  0  0  0  0
 34 44  1  0  0  0  0
 34 77  1  0  0  0  0
 35 58  1  0  0  0  0
 36 73  1  0  0  0  0
 36 79  2  0  0  0  0
 37 54  1  0  0  0  0
 37 75  1  0  0  0  0
 37 80  2  0  0  0  0
 38 65  1  0  0  0  0
 38 70  1  0  0  0  0
 38 81  2  0  0  0  0
 39 66  1  0  0  0  0
 39 76  1  0  0  0  0
 39 82  2  0  0  0  0
 40 71  1  0  0  0  0
 40 74  1  0  0  0  0
 40 83  2  0  0  0  0
 41 45  1  0  0  0  0
 42 54  1  0  0  0  0
 43 70  1  0  0  0  0
 44 46  1  0  0  0  0
 45 48  1  0  0  0  0
 46 56  1  0  0  0  0
 47 49  1  0  0  0  0
 47 50  1  0  0  0  0
 48 53  1  0  0  0  0
 49 55  1  0  0  0  0
 50 71  1  0  0  0  0
 51 55  1  0  0  0  0
 51 71  1  0  0  0  0
 52 56  1  0  0  0  0
 52 77  1  0  0  0  0
 53 75  1  0  0  0  0
 54 70  1  0  0  0  0
 55 69  1  0  0  0  0
 56 85  1  0  0  0  0
 59 66  1  0  0  0  0
 60 67  1  0  0  0  0
 61 67  1  0  0  0  0
 62 67  1  0  0  0  0
 63 78  1  0  0  0  0
 64 77  1  0  0  0  0
 65 67  1  0  0  0  0
 65 76  1  0  0  0  0
 66 78  1  0  0  0  0
 68 69  1  0  0  0  0
M  CHG  2  77   1  78   1
M  ISO  4  40 100  56 101  74 100  85 101
M  END
> <Batch ID>
0039

> <Smiles>
CC=C1CC[101CH:1]([101O:1]c2ccc3c(c2)CN(C(=O)C(NC(=O)C(C)NC)C(C)(C)C)C(C(=O)NC2CCCc4ccccc42)C3)CN1Cc1cc(Cl)c([100NH:0][100C:0](=O)N2CCCC(n3nc(-c4ccc(Oc5ccc(F)cc5F)cc4)c(C(N)=O)c3N)C2)c(Cl)c1C

> <Shape>
0.238

> <Color>
0.076

> <Negative vol penalty>
0.000

$$$$

  -OEChem-04042322043D

 85 93  0     1  0  0  0  0  0999 V2000
  -16.9743  -29.4725   24.5638 C   0  0  0  0  0  0  0  0  0  0  0  0
  -17.4313  -28.2273   24.1442 C   0  0  0  0  0  0  0  0  0  0  0  0
  -24.8362  -11.8888   20.5989 C   0  0  0  0  0  0  0  0  0  0  0  0
  -24.4727  -11.1000   22.8534 C   0  0  0  0  0  0  0  0  0  0  0  0
  -30.8802  -16.1773   20.3174 C   0  0  0  0  0  0  0  0  0  0  0  0
  -17.4946  -30.6333   23.9932 C   0  0  0  0  0  0  0  0  0  0  0  0
  -18.4081  -28.1422   23.1527 C   0  0  0  0  0  0  0  0  0  0  0  0
  -22.8656  -23.9644   22.7250 C   0  0  0  0  0  0  0  0  0  0  0  0
  -24.5880  -10.6062   20.1101 C   0  0  0  0  0  0  0  0  0  0  0  0
  -24.2244   -9.8174   22.3646 C   0  0  0  0  0  0  0  0  0  0  0  0
  -22.9854  -22.7938   21.9773 C   0  0  0  0  0  0  0  0  0  0  0  0
  -23.1407   -6.4148   21.6816 C   0  0  0  0  0  0  0  0  0  0  0  0
  -22.0457   -5.7233   22.1994 C   0  0  0  0  0  0  0  0  0  0  0  0
  -30.6187  -16.2456   18.9490 C   0  0  0  0  0  0  0  0  0  0  0  0
  -24.2079  -24.0057   20.2873 C   0  0  0  0  0  0  0  0  0  0  0  0
  -20.5720   -7.4699   21.4152 C   0  0  0  0  0  0  0  0  0  0  0  0
  -24.7786  -12.1357   21.9706 C   0  0  0  0  0  0  0  0  0  0  0  0
  -30.3061  -17.1070   21.1844 C   0  0  0  0  0  0  0  0  0  0  0  0
  -24.0959  -14.4877   22.6843 C   0  0  0  0  0  0  0  0  0  0  0  0
  -18.4852  -30.5627   23.0011 C   0  0  0  0  0  0  0  0  0  0  0  0
  -23.4075  -25.1688   22.2536 C   0  0  0  0  0  0  0  0  0  0  0  0
  -18.9412  -29.3032   22.5673 C   0  0  0  0  0  0  0  0  0  0  0  0
  -24.0958  -25.1896   21.0322 C   0  0  0  0  0  0  0  0  0  0  0  0
  -29.2090  -18.1731   19.3144 C   0  0  0  0  0  0  0  0  0  0  0  0
  -24.2821   -9.5705   20.9930 C   0  0  0  0  0  0  0  0  0  0  0  0
  -23.6541  -22.8149   20.7569 C   0  0  0  0  0  0  0  0  0  0  0  0
  -22.9515   -7.6339   21.0306 C   0  0  0  0  0  0  0  0  0  0  0  0
  -20.7613   -6.2508   22.0662 C   0  0  0  0  0  0  0  0  0  0  0  0
  -21.6671   -8.1614   20.8974 C   0  0  0  0  0  0  0  0  0  0  0  0
  -29.7830  -17.2435   18.4475 C   0  0  0  0  0  0  0  0  0  0  0  0
  -29.4705  -18.1049   20.6829 C   0  0  0  0  0  0  0  0  0  0  0  0
  -25.0354  -13.4603   22.4762 C   0  0  0  0  0  0  0  0  0  0  0  0
  -24.8365  -15.5367   23.1717 C   0  0  0  0  0  0  0  0  0  0  0  0
  -30.6141  -16.9899   22.6155 C   0  0  0  0  0  0  0  0  0  0  0  0
  -22.6802  -14.4934   22.4575 C   0  0  0  0  0  0  0  0  0  0  0  0
  -22.2136  -28.0025   21.4483 C   0  0  0  0  0  0  0  0  0  0  0  0
  -25.3436  -28.8029   21.1570 C   0  0  0  0  0  0  0  0  0  0  0  0
  -26.0891  -19.8581   19.7573 C   0  0  0  0  0  0  0  0  0  0  0  0
  -28.5586  -27.7829   20.6373 C   0  0  0  0  0  0  0  0  0  0  0  0
  -18.9834  -31.8437   22.3801 C   0  0  0  0  0  0  0  0  0  0  0  0
  -23.2929  -26.4172   23.0847 C   0  0  0  0  0  0  0  0  0  0  0  0
  -24.7132  -26.4524   20.4912 C   0  0  0  0  0  0  0  0  0  0  0  0
  -20.2854  -31.6768   21.6010 C   0  0  0  0  0  0  0  0  0  0  0  0
  -28.8143  -16.4891   25.6571 C   0  0  0  0  0  0  0  0  0  0  0  0
  -20.2115  -30.4528   20.6937 C   0  0  0  0  0  0  0  0  0  0  0  0
  -27.5609  -15.7343   25.2104 C   0  0  0  0  0  0  0  0  0  0  0  0
  -30.0384  -16.0815   24.8411 C   0  0  0  0  0  0  0  0  0  0  0  0
  -28.6116  -15.4441   22.9273 C   0  0  0  0  0  0  0  0  0  0  0  0
  -20.0176  -29.1705   21.5119 C   0  0  1  0  0  0  0  0  0  0  0  0
  -23.4368  -27.6959   22.2653 C   0  0  1  0  0  0  0  0  0  0  0  0
  -27.3444  -15.8627   23.6908 C   0  0  1  0  0  0  0  0  0  0  0  0
  -30.8953  -28.6705   20.4147 C   0  0  0  0  0  0  0  0  0  0  0  0
  -24.7039  -29.7726   18.3356 C   0  0  0  0  0  0  0  0  0  0  0  0
  -27.1590  -29.7476   17.8454 C   0  0  0  0  0  0  0  0  0  0  0  0
  -26.2585  -31.2520   19.6198 C   0  0  0  0  0  0  0  0  0  0  0  0
  -26.4045  -17.7035   18.5208 C   0  0  0  0  0  0  0  0  0  0  0  0
  -29.4913  -26.2435   22.9867 C   0  0  0  0  0  0  0  0  0  0  0  0
  -28.3103  -19.2452   18.7692 C   0  0  0  0  0  0  0  0  0  0  0  0
  -24.6402  -19.4271   19.9603 C   0  0  0  0  0  0  0  0  0  0  0  0
  -23.8181  -20.4424   20.7442 C   0  0  0  0  0  0  0  0  0  1  0  0
  -26.3584  -28.7609   20.0401 C   0  0  1  0  0  0  0  0  0  0  0  0
  -29.8495  -28.1101   21.3661 C   0  0  2  0  0  0  0  0  0  0  0  0
  -26.1067  -29.8597   18.9692 C   0  0  0  0  0  0  0  0  0  0  0  0
  -26.2781  -13.8237   22.8042 N   0  0  0  0  0  0  0  0  0  0  0  0
  -26.1246  -15.0913   23.2234 N   0  0  0  0  0  0  0  0  0  0  0  0
  -29.7711  -16.2081   23.4089 N   0  0  0  0  0  0  0  0  0  0  0  0
  -24.5689  -27.6483   21.3377 N   0  0  0  0  0  0  0  0  0  0  0  0
  -24.5051  -16.7875   23.5566 N   0  0  0  0  0  0  0  0  0  0  0  0
  -22.0796  -13.3317   21.9535 N   0  0  0  0  0  0  0  0  0  0  0  0
  -21.2686  -28.7605   22.1130 N   0  0  0  0  0  0  0  0  0  0  0  0
  -27.6691  -28.8357   20.6764 N   0  0  0  0  0  0  0  0  0  0  0  0
  -26.9019  -18.9700   19.0438 N   0  0  0  0  0  0  0  0  0  0  0  0
  -30.4063  -26.8861   22.0084 N   0  3  0  0  0  0  0  0  0  0  0  0
  -31.6000  -17.6097   23.0118 O   0  0  0  0  0  0  0  0  0  0  0  0
  -21.9713  -15.5042   22.6794 O   0  0  0  0  0  0  0  0  0  0  0  0
  -22.1338  -27.5837   20.2994 O   0  0  0  0  0  0  0  0  0  0  0  0
  -25.2470  -29.8199   21.8484 O   0  0  0  0  0  0  0  0  0  0  0  0
  -26.4925  -20.9338   20.2073 O   0  0  0  0  0  0  0  0  0  0  0  0
  -28.3608  -26.7028   20.0852 O   0  0  0  0  0  0  0  0  0  0  0  0
  -24.0396   -8.3189   20.5163 O   0  0  0  0  0  0  0  0  0  0  0  0
  -23.7719  -21.6739   20.0247 O   0  0  0  0  0  0  0  0  0  1  0  0
  -19.7096   -5.5859   22.5622 F   0  0  0  0  0  0  0  0  0  0  0  0
  -21.4789   -9.3315   20.2719 F   0  0  0  0  0  0  0  0  0  0  0  0
  -29.4872  -17.2901   16.7466 Cl  0  0  0  0  0  0  0  0  0  0  0  0
  -28.7580  -19.2594   21.7627 Cl  0  0  0  0  0  0  0  0  0  0  0  0
  1  2  1  0  0  0  0
  1  6  2  0  0  0  0
  2  7  2  0  0  0  0
  3  9  2  0  0  0  0
  3 17  1  0  0  0  0
  4 10  1  0  0  0  0
  4 17  2  0  0  0  0
  5 14  1  0  0  0  0
  5 18  2  0  0  0  0
  6 20  1  0  0  0  0
  7 22  1  0  0  0  0
  8 11  2  0  0  0  0
  8 21  1  0  0  0  0
  9 25  1  0  0  0  0
 10 25  2  0  0  0  0
 11 26  1  0  0  0  0
 12 13  2  0  0  0  0
 12 27  1  0  0  0  0
 13 28  1  0  0  0  0
 14 30  2  0  0  0  0
 15 23  1  0  0  0  0
 15 26  2  0  0  0  0
 16 28  2  0  0  0  0
 16 29  1  0  0  0  0
 17 32  1  0  0  0  0
 18 31  1  0  0  0  0
 18 34  1  0  0  0  0
 19 32  1  0  0  0  0
 19 33  2  0  0  0  0
 19 35  1  0  0  0  0
 20 22  2  0  0  0  0
 20 40  1  0  0  0  0
 21 23  2  0  0  0  0
 21 41  1  0  0  0  0
 22 49  1  0  0  0  0
 23 42  1  0  0  0  0
 24 30  1  0  0  0  0
 24 31  2  0  0  0  0
 24 58  1  0  0  0  0
 25 80  1  0  0  0  0
 26 81  1  0  0  0  0
 27 29  2  0  0  0  0
 27 80  1  0  0  0  0
 28 82  1  0  0  0  0
 29 83  1  0  0  0  0
 30 84  1  0  0  0  0
 31 85  1  0  0  0  0
 32 64  2  0  0  0  0
 33 65  1  0  0  0  0
 33 68  1  0  0  0  0
 34 66  1  0  0  0  0
 34 74  2  0  0  0  0
 35 69  1  0  0  0  0
 35 75  2  0  0  0  0
 36 50  1  0  0  0  0
 36 70  1  0  0  0  0
 36 76  2  0  0  0  0
 37 61  1  0  0  0  0
 37 67  1  0  0  0  0
 37 77  2  0  0  0  0
 38 59  1  0  0  0  0
 38 72  1  0  0  0  0
 38 78  2  0  0  0  0
 39 62  1  0  0  0  0
 39 71  1  0  0  0  0
 39 79  2  0  0  0  0
 40 43  1  0  0  0  0
 41 50  1  0  0  0  0
 42 67  1  0  0  0  0
 43 45  1  0  0  0  0
 44 46  1  0  0  0  0
 44 47  1  0  0  0  0
 45 49  1  0  0  0  0
 46 51  1  0  0  0  0
 47 66  1  0  0  0  0
 48 51  1  0  0  0  0
 48 66  1  0  0  0  0
 49 70  1  0  0  0  0
 50 67  1  0  0  0  0
 51 65  1  0  0  0  0
 52 62  1  0  0  0  0
 53 63  1  0  0  0  0
 54 63  1  0  0  0  0
 55 63  1  0  0  0  0
 56 72  1  0  0  0  0
 57 73  1  0  0  0  0
 58 72  1  0  0  0  0
 59 60  1  0  0  0  0
 60 81  1  0  0  0  0
 61 63  1  0  0  0  0
 61 71  1  0  0  0  0
 62 73  1  0  0  0  0
 64 65  1  0  0  0  0
M  CHG  1  73   1
M  ISO  4  18 100  34 100  60 101  81 101
M  END
> <Batch ID>
0039

> <Smiles>
CNC(C)C(=O)NC(C(=O)N1Cc2cc([101O:1][101CH2:1]CC(=O)N(C)Cc3c(Cl)cc[100c:0]([100C:0](=O)N4CCCC(n5nc(-c6ccc(Oc7ccc(F)cc7F)cc6)c(C(N)=O)c5N)C4)c3Cl)ccc2CC1C(=O)NC1CCCc2ccccc21)C(C)(C)C

> <Shape>
0.232

> <Color>
0.067

> <Negative vol penalty>
0.000

$$$$

  -OEChem-04042322043D

 88 97  0     1  0  0  0  0  0999 V2000
  -17.7894  -26.1846   23.8837 C   0  0  0  0  0  0  0  0  0  0  0  0
  -19.0280  -25.7417   23.4307 C   0  0  0  0  0  0  0  0  0  0  0  0
  -23.8557  -14.5145   20.8136 C   0  0  0  0  0  0  0  0  0  0  0  0
  -26.0448  -14.6929   21.8200 C   0  0  0  0  0  0  0  0  0  0  0  0
  -17.3747  -27.4879   23.6130 C   0  0  0  0  0  0  0  0  0  0  0  0
  -19.8522  -26.6016   22.7057 C   0  0  0  0  0  0  0  0  0  0  0  0
  -25.9708  -26.8224   22.8426 C   0  0  0  0  0  0  0  0  0  0  0  0
  -24.1149  -13.1839   20.4854 C   0  0  0  0  0  0  0  0  0  0  0  0
  -26.3041  -13.3622   21.4918 C   0  0  0  0  0  0  0  0  0  0  0  0
  -26.9477  -26.2911   22.0015 C   0  0  0  0  0  0  0  0  0  0  0  0
  -24.1318  -10.1890   22.0550 C   0  0  0  0  0  0  0  0  0  0  0  0
  -23.1299   -9.2521   22.3076 C   0  0  0  0  0  0  0  0  0  0  0  0
  -27.0791  -28.3976   20.8334 C   0  0  0  0  0  0  0  0  0  0  0  0
  -30.0455  -22.8929   19.2888 C   0  0  0  0  0  0  0  0  0  0  0  0
  -31.8508  -21.7969   21.1115 C   0  0  0  0  0  0  0  0  0  0  0  0
  -23.0584   -8.6950   19.9577 C   0  0  0  0  0  0  0  0  0  0  0  0
  -24.8207  -15.2691   21.4808 C   0  0  0  0  0  0  0  0  0  0  0  0
  -23.9695  -17.1293   23.0048 C   0  0  0  0  0  0  0  0  0  0  0  0
  -18.1984  -28.3673   22.8926 C   0  0  0  0  0  0  0  0  0  0  0  0
  -25.5322  -28.1441   22.6781 C   0  0  0  0  0  0  0  0  0  0  0  0
  -19.4475  -27.9175   22.4239 C   0  0  0  0  0  0  0  0  0  0  0  0
  -26.0984  -28.9441   21.6752 C   0  0  0  0  0  0  0  0  0  0  0  0
  -31.4072  -23.1736   19.1763 C   0  0  0  0  0  0  0  0  0  0  0  0
  -32.3099  -22.6256   20.0876 C   0  0  0  0  0  0  0  0  0  0  0  0
  -29.5865  -22.0642   20.3127 C   0  0  0  0  0  0  0  0  0  0  0  0
  -25.3391  -12.6077   20.8246 C   0  0  0  0  0  0  0  0  0  0  0  0
  -27.4999  -27.0777   20.9949 C   0  0  0  0  0  0  0  0  0  0  0  0
  -24.5970  -10.3791   20.7538 C   0  0  0  0  0  0  0  0  0  0  0  0
  -22.5932   -8.5050   21.2590 C   0  0  0  0  0  0  0  0  0  0  0  0
  -24.0603   -9.6321   19.7052 C   0  0  0  0  0  0  0  0  0  0  0  0
  -30.4891  -21.5162   21.2240 C   0  0  0  0  0  0  0  0  0  0  0  0
  -24.5537  -16.6439   21.8195 C   0  0  0  0  0  0  0  0  0  0  0  0
  -23.9361  -18.4922   22.8379 C   0  0  0  0  0  0  0  0  0  0  0  0
  -32.7208  -26.2560   17.4474 C   0  0  0  0  0  0  0  0  0  0  0  0
  -34.0426  -26.4636   17.3503 C   0  0  0  0  0  0  0  0  0  0  0  0
  -23.4991  -16.4124   24.1539 C   0  0  0  0  0  0  0  0  0  0  0  0
  -22.7502  -29.5138   21.9798 C   0  0  0  0  0  0  0  0  0  0  0  0
  -24.3924  -32.2486   22.5686 C   0  0  0  0  0  0  0  0  0  0  0  0
  -27.4063  -33.8420   22.7227 C   0  0  0  0  0  0  0  0  0  0  0  0
  -27.1915  -22.2849   19.5633 C   0  0  0  0  0  0  0  0  0  0  0  0
  -17.6870  -29.7521   22.5837 C   0  0  0  0  0  0  0  0  0  0  0  0
  -24.4970  -28.7107   23.6106 C   0  0  0  0  0  0  0  0  0  0  0  0
  -25.6767  -30.3753   21.4700 C   0  0  0  0  0  0  0  0  0  0  0  0
  -31.7247  -26.8519   16.4919 C   0  0  0  0  0  0  0  0  0  0  0  0
  -18.7792  -30.7179   22.1316 C   0  0  0  0  0  0  0  0  0  0  0  0
  -30.6122  -27.5628   17.2567 C   0  0  0  0  0  0  0  0  0  0  0  0
  -23.6613  -21.8416   19.4261 C   0  0  0  0  0  0  0  0  0  0  0  0
  -19.6716  -30.0616   21.0829 C   0  0  0  0  0  0  0  0  0  0  0  0
  -23.4358  -20.5055   20.1375 C   0  0  0  0  0  0  0  0  0  0  0  0
  -24.9459  -21.8342   18.5993 C   0  0  0  0  0  0  0  0  0  0  0  0
  -25.9280  -20.0966   20.0435 C   0  0  0  0  0  0  0  0  0  0  0  0
  -31.1468  -26.1680   19.2940 C   0  0  0  0  0  0  0  0  0  0  0  0
  -20.3804  -28.8283   21.6556 C   0  0  1  0  0  0  0  0  0  0  0  0
  -23.7559  -29.9083   23.0240 C   0  0  1  0  0  0  0  0  0  0  0  0
  -30.0352  -26.6672   18.3616 C   0  0  1  0  0  0  0  0  0  0  0  0
  -24.6797  -20.0778   20.9408 C   0  0  2  0  0  0  0  0  0  0  0  0
  -33.7722  -22.9123   19.9873 C   0  0  0  0  0  0  0  0  0  0  0  0
  -28.4266  -36.0856   23.1950 C   0  0  0  0  0  0  0  0  0  0  0  0
  -23.4871  -33.2347   19.8267 C   0  0  0  0  0  0  0  0  0  0  0  0
  -25.2606  -34.9974   19.9524 C   0  0  0  0  0  0  0  0  0  0  0  0
  -23.4170  -34.9635   21.6325 C   0  0  0  0  0  0  0  0  0  0  0  0
  -28.9597  -32.7837   25.0088 C   0  0  0  0  0  0  0  0  0  0  0  0
  -31.8766  -24.0705   18.0690 C   0  0  0  0  0  0  0  0  0  0  0  0
  -28.9755  -27.4235   19.1622 C   0  0  0  0  0  0  0  0  0  1  0  0
  -25.2227  -33.1969   21.7378 C   0  0  1  0  0  0  0  0  0  0  0  0
  -28.0161  -34.7436   23.7809 C   0  0  2  0  0  0  0  0  0  0  0  0
  -24.3536  -34.0706   20.7897 C   0  0  0  0  0  0  0  0  0  0  0  0
  -24.8686  -17.6191   20.9629 N   0  0  0  0  0  0  0  0  0  0  0  0
  -24.4808  -18.7310   21.6105 N   0  0  0  0  0  0  0  0  0  0  0  0
  -24.6567  -30.8816   22.4032 N   0  0  0  0  0  0  0  0  0  0  0  0
  -26.0823  -21.4236   19.4269 N   0  0  0  0  0  0  0  0  0  0  0  0
  -23.4941  -19.4978   23.6228 N   0  0  0  0  0  0  0  0  0  0  0  0
  -23.6090  -15.0152   24.1608 N   0  0  0  0  0  0  0  0  0  0  0  0
  -28.1967  -21.8023   20.4006 N   0  0  0  0  0  0  0  0  0  0  0  0
  -21.4967  -29.2270   22.4858 N   0  0  0  0  0  0  0  0  0  0  0  0
  -26.0334  -33.9617   22.6793 N   0  0  0  0  0  0  0  0  0  0  0  0
  -32.2455  -25.4489   18.5435 N   0  3  1  0  0  0  0  0  0  0  0  0
  -29.2225  -34.1017   24.3756 N   0  3  0  0  0  0  0  0  0  0  0  0
  -22.9813  -16.9924   25.1383 O   0  0  0  0  0  0  0  0  0  0  0  0
  -23.0860  -29.4742   20.8019 O   0  0  0  0  0  0  0  0  0  0  0  0
  -23.5455  -32.7041   23.3412 O   0  0  0  0  0  0  0  0  0  0  0  0
  -28.0808  -33.1081   22.0037 O   0  0  0  0  0  0  0  0  0  0  0  0
  -27.2335  -23.3827   19.0020 O   0  0  0  0  0  0  0  0  0  0  0  0
  -25.5923  -11.3091   20.5047 O   0  0  0  0  0  0  0  0  0  0  0  0
  -28.4530  -26.5614   20.1722 O   0  0  0  0  0  0  0  0  0  1  0  0
  -21.6322   -7.6042   21.5019 F   0  0  0  0  0  0  0  0  0  0  0  0
  -24.5040   -9.8094   18.4532 F   0  0  0  0  0  0  0  0  0  0  0  0
  -29.9635  -20.4846   22.5066 Cl  0  0  0  0  0  0  0  0  0  0  0  0
  1  2  1  0  0  0  0
  1  5  2  0  0  0  0
  2  6  2  0  0  0  0
  3  8  2  0  0  0  0
  3 17  1  0  0  0  0
  4  9  1  0  0  0  0
  4 17  2  0  0  0  0
  5 19  1  0  0  0  0
  6 21  1  0  0  0  0
  7 10  2  0  0  0  0
  7 20  1  0  0  0  0
  8 26  1  0  0  0  0
  9 26  2  0  0  0  0
 10 27  1  0  0  0  0
 11 12  2  0  0  0  0
 11 28  1  0  0  0  0
 12 29  1  0  0  0  0
 13 22  1  0  0  0  0
 13 27  2  0  0  0  0
 14 23  1  0  0  0  0
 14 25  2  0  0  0  0
 15 24  1  0  0  0  0
 15 31  2  0  0  0  0
 16 29  2  0  0  0  0
 16 30  1  0  0  0  0
 17 32  1  0  0  0  0
 18 32  1  0  0  0  0
 18 33  2  0  0  0  0
 18 36  1  0  0  0  0
 19 21  2  0  0  0  0
 19 41  1  0  0  0  0
 20 22  2  0  0  0  0
 20 42  1  0  0  0  0
 21 53  1  0  0  0  0
 22 43  1  0  0  0  0
 23 24  2  0  0  0  0
 23 63  1  0  0  0  0
 24 57  1  0  0  0  0
 25 31  1  0  0  0  0
 25 74  1  0  0  0  0
 26 84  1  0  0  0  0
 27 85  1  0  0  0  0
 28 30  2  0  0  0  0
 28 84  1  0  0  0  0
 29 86  1  0  0  0  0
 30 87  1  0  0  0  0
 31 88  1  0  0  0  0
 32 68  2  0  0  0  0
 33 69  1  0  0  0  0
 33 72  1  0  0  0  0
 34 35  2  0  0  0  0
 34 44  1  0  0  0  0
 34 77  1  0  0  0  0
 36 73  1  0  0  0  0
 36 79  2  0  0  0  0
 37 54  1  0  0  0  0
 37 75  1  0  0  0  0
 37 80  2  0  0  0  0
 38 65  1  0  0  0  0
 38 70  1  0  0  0  0
 38 81  2  0  0  0  0
 39 66  1  0  0  0  0
 39 76  1  0  0  0  0
 39 82  2  0  0  0  0
 40 71  1  0  0  0  0
 40 74  1  0  0  0  0
 40 83  2  0  0  0  0
 41 45  1  0  0  0  0
 42 54  1  0  0  0  0
 43 70  1  0  0  0  0
 44 46  1  0  0  0  0
 45 48  1  0  0  0  0
 46 55  1  0  0  0  0
 47 49  1  0  0  0  0
 47 50  1  0  0  0  0
 48 53  1  0  0  0  0
 49 56  1  0  0  0  0
 50 71  1  0  0  0  0
 51 56  1  0  0  0  0
 51 71  1  0  0  0  0
 52 55  1  0  0  0  0
 52 77  1  0  0  0  0
 53 75  1  0  0  0  0
 54 70  1  0  0  0  0
 55 64  1  0  0  0  0
 56 69  1  0  0  0  0
 58 66  1  0  0  0  0
 59 67  1  0  0  0  0
 60 67  1  0  0  0  0
 61 67  1  0  0  0  0
 62 78  1  0  0  0  0
 63 77  1  0  0  0  0
 64 85  1  0  0  0  0
 65 67  1  0  0  0  0
 65 76  1  0  0  0  0
 66 78  1  0  0  0  0
 68 69  1  0  0  0  0
M  CHG  2  77   1  78   1
M  ISO  4  40 100  64 101  74 100  85 101
M  END
> <Batch ID>
0039

> <Smiles>
C=C1CCC([101CH2:1][101O:1]c2ccc3c(c2)CN(C(=O)C(NC(=O)C(C)NC)C(C)(C)C)C(C(=O)NC2CCCc4ccccc42)C3)CN1Cc1cc([100NH:0][100C:0](=O)N2CCCC(n3nc(-c4ccc(Oc5ccc(F)cc5F)cc4)c(C(N)=O)c3N)C2)c(Cl)cc1C

> <Shape>
0.247

> <Color>
0.092

> <Negative vol penalty>
0.000

$$$$

  -OEChem-04042322043D

 87 96  0     1  0  0  0  0  0999 V2000
  -26.3512  -34.6116   23.7849 C   0  0  0  0  0  0  0  0  0  0  0  0
  -26.8301  -33.3460   23.4619 C   0  0  0  0  0  0  0  0  0  0  0  0
  -22.7179  -10.4497   20.2680 C   0  0  0  0  0  0  0  0  0  0  0  0
  -23.8996  -10.0798   22.3425 C   0  0  0  0  0  0  0  0  0  0  0  0
  -25.0559  -34.7605   24.2787 C   0  0  0  0  0  0  0  0  0  0  0  0
  -26.0141  -32.2283   23.6336 C   0  0  0  0  0  0  0  0  0  0  0  0
  -26.1860  -29.0715   19.6776 C   0  0  0  0  0  0  0  0  0  0  0  0
  -22.3051   -9.1174   20.2655 C   0  0  0  0  0  0  0  0  0  0  0  0
  -23.4868   -8.7474   22.3401 C   0  0  0  0  0  0  0  0  0  0  0  0
  -27.2975  -28.2357   19.5778 C   0  0  0  0  0  0  0  0  0  0  0  0
  -20.6928   -7.0057   23.1020 C   0  0  0  0  0  0  0  0  0  0  0  0
  -20.2110   -6.4759   24.2990 C   0  0  0  0  0  0  0  0  0  0  0  0
  -26.0064  -26.4186   20.5001 C   0  0  0  0  0  0  0  0  0  0  0  0
  -25.0723  -20.6108   20.1675 C   0  0  0  0  0  0  0  0  0  0  0  0
  -24.5932  -21.9617   22.1123 C   0  0  0  0  0  0  0  0  0  0  0  0
  -21.9621   -4.8115   24.2670 C   0  0  0  0  0  0  0  0  0  0  0  0
  -23.5152  -10.9309   21.3065 C   0  0  0  0  0  0  0  0  0  0  0  0
  -24.7174  -12.9586   20.3313 C   0  0  0  0  0  0  0  0  0  0  0  0
  -24.2203  -33.6452   24.4474 C   0  0  0  0  0  0  0  0  0  0  0  0
  -24.9775  -28.5892   20.2005 C   0  0  0  0  0  0  0  0  0  0  0  0
  -24.7068  -32.3623   24.1313 C   0  0  0  0  0  0  0  0  0  0  0  0
  -24.8804  -27.2496   20.6031 C   0  0  0  0  0  0  0  0  0  0  0  0
  -24.1882  -21.0211   21.1653 C   0  0  0  0  0  0  0  0  0  0  0  0
  -26.3615  -21.1410   20.1168 C   0  0  0  0  0  0  0  0  0  0  0  0
  -26.7665  -22.0816   21.0638 C   0  0  0  0  0  0  0  0  0  0  0  0
  -22.6895   -8.2662   21.3015 C   0  0  0  0  0  0  0  0  0  0  0  0
  -27.2086  -26.9099   19.9917 C   0  0  0  0  0  0  0  0  0  0  0  0
  -21.8092   -6.4384   22.4875 C   0  0  0  0  0  0  0  0  0  0  0  0
  -20.8456   -5.3788   24.8815 C   0  0  0  0  0  0  0  0  0  0  0  0
  -22.4438   -5.3414   23.0700 C   0  0  0  0  0  0  0  0  0  0  0  0
  -25.8824  -22.4920   22.0616 C   0  0  0  0  0  0  0  0  0  0  0  0
  -23.9424  -12.3070   21.3094 C   0  0  0  0  0  0  0  0  0  0  0  0
  -24.8463  -14.2446   20.7960 C   0  0  0  0  0  0  0  0  0  0  0  0
  -25.2713  -12.4470   19.1118 C   0  0  0  0  0  0  0  0  0  0  0  0
  -23.1753  -29.3115   22.7172 C   0  0  0  0  0  0  0  0  0  0  0  0
  -21.1364  -27.1714   21.3811 C   0  0  0  0  0  0  0  0  0  0  0  0
  -19.5998  -24.6538   19.6643 C   0  0  0  0  0  0  0  0  0  0  0  0
  -22.6499  -18.8331   23.0909 C   0  0  0  0  0  0  0  0  0  0  0  0
  -22.8440  -33.8506   25.0290 C   0  0  0  0  0  0  0  0  0  0  0  0
  -23.7801  -29.4962   20.2767 C   0  0  0  0  0  0  0  0  0  0  0  0
  -23.6000  -26.6775   21.1526 C   0  0  0  0  0  0  0  0  0  0  0  0
  -21.9136  -32.6572   24.8282 C   0  0  0  0  0  0  0  0  0  0  0  0
  -30.0158  -24.1659   22.6705 C   0  0  0  0  0  0  0  0  0  0  0  0
  -30.3625  -22.8277   22.0183 C   0  0  0  0  0  0  0  0  0  0  0  0
  -23.7074  -16.2479   25.2989 C   0  0  0  0  0  0  0  0  0  0  0  0
  -22.6275  -31.3576   25.1861 C   0  0  0  0  0  0  0  0  0  0  0  0
  -23.9205  -15.0450   24.3782 C   0  0  0  0  0  0  0  0  0  0  0  0
  -29.6874  -25.2600   21.6583 C   0  0  0  0  0  0  0  0  0  0  0  0
  -29.1511  -21.9410   21.7238 C   0  0  0  0  0  0  0  0  0  0  0  0
  -22.5188  -17.0966   24.8526 C   0  0  0  0  0  0  0  0  0  0  0  0
  -22.7772  -16.3313   22.5242 C   0  0  0  0  0  0  0  0  0  0  0  0
  -28.3666  -23.7163   20.0994 C   0  0  0  0  0  0  0  0  0  0  0  0
  -23.8434  -31.1285   24.2803 C   0  0  1  0  0  0  0  0  0  0  0  0
  -22.7481  -29.0385   21.3028 C   0  0  1  0  0  0  0  0  0  0  0  0
  -23.9991  -15.4762   22.9013 C   0  0  2  0  0  0  0  0  0  0  0  0
  -28.4020  -25.0416   20.8600 C   0  0  2  0  0  0  0  0  0  1  0  0
  -27.2850  -20.6807   19.0357 C   0  0  0  0  0  0  0  0  0  0  0  0
  -17.5480  -23.2094   19.7030 C   0  0  0  0  0  0  0  0  0  0  0  0
  -22.3456  -25.5185   23.6429 C   0  0  0  0  0  0  0  0  0  0  0  0
  -20.8135  -23.6457   22.9996 C   0  0  0  0  0  0  0  0  0  0  0  0
  -19.8664  -25.8176   23.7795 C   0  0  0  0  0  0  0  0  0  0  0  0
  -18.6942  -25.6690   17.0360 C   0  0  0  0  0  0  0  0  0  0  0  0
  -22.8100  -20.4536   21.2180 C   0  0  0  0  0  0  0  0  0  0  0  0
  -20.9297  -25.6799   21.4899 C   0  0  1  0  0  0  0  0  0  0  0  0
  -18.1713  -24.4928   19.1765 C   0  0  2  0  0  0  0  0  0  0  0  0
  -21.0068  -25.1766   22.9590 C   0  0  0  0  0  0  0  0  0  0  0  0
  -23.6029  -13.1126   22.3192 N   0  0  0  0  0  0  0  0  0  0  0  0
  -24.1674  -14.2836   21.9782 N   0  0  0  0  0  0  0  0  0  0  0  0
  -28.0631  -22.6062   21.0022 N   0  0  3  0  0  0  0  0  0  0  0  0
  -22.4589  -27.6058   21.2131 N   0  0  0  0  0  0  0  0  0  0  0  0
  -22.6555  -17.4735   23.4437 N   0  0  0  0  0  0  0  0  0  0  0  0
  -25.4731  -15.3346   20.3046 N   0  0  0  0  0  0  0  0  0  0  0  0
  -26.5564  -11.8886   19.1441 N   0  0  0  0  0  0  0  0  0  0  0  0
  -23.4229  -30.6448   22.9827 N   0  0  0  0  0  0  0  0  0  0  0  0
  -19.6625  -25.3940   20.8260 N   0  0  0  0  0  0  0  0  0  0  0  0
  -22.7909  -19.1034   21.7352 N   0  0  0  0  0  0  0  0  0  0  0  0
  -18.1334  -24.4572   17.6872 N   0  3  0  0  0  0  0  0  0  0  0  0
  -24.6517  -12.4989   18.0223 O   0  0  0  0  0  0  0  0  0  0  0  0
  -23.2716  -28.3816   23.5095 O   0  0  0  0  0  0  0  0  0  0  0  0
  -20.1597  -27.9228   21.4356 O   0  0  0  0  0  0  0  0  0  0  0  0
  -20.5633  -24.1680   19.0759 O   0  0  0  0  0  0  0  0  0  0  0  0
  -22.5336  -19.7392   23.9230 O   0  0  0  0  0  0  0  0  0  0  0  0
  -22.2867   -6.9661   21.2995 O   0  0  0  0  0  0  0  0  0  0  0  0
  -28.2922  -26.0922   19.8960 O   0  0  0  0  0  0  0  0  0  1  0  0
  -20.3838   -4.8711   26.0318 F   0  0  0  0  0  0  0  0  0  0  0  0
  -23.5174   -4.7929   22.4849 F   0  0  0  0  0  0  0  0  0  0  0  0
  -26.3404  -23.6553   23.2543 Cl  0  0  0  0  0  0  0  0  0  0  0  0
  1  2  1  0  0  0  0
  1  5  2  0  0  0  0
  2  6  2  0  0  0  0
  3  8  2  0  0  0  0
  3 17  1  0  0  0  0
  4  9  1  0  0  0  0
  4 17  2  0  0  0  0
  5 19  1  0  0  0  0
  6 21  1  0  0  0  0
  7 10  2  0  0  0  0
  7 20  1  0  0  0  0
  8 26  1  0  0  0  0
  9 26  2  0  0  0  0
 10 27  1  0  0  0  0
 11 12  2  0  0  0  0
 11 28  1  0  0  0  0
 12 29  1  0  0  0  0
 13 22  1  0  0  0  0
 13 27  2  0  0  0  0
 14 23  1  0  0  0  0
 14 24  2  0  0  0  0
 15 23  2  0  0  0  0
 15 31  1  0  0  0  0
 16 29  2  0  0  0  0
 16 30  1  0  0  0  0
 17 32  1  0  0  0  0
 18 32  1  0  0  0  0
 18 33  2  0  0  0  0
 18 34  1  0  0  0  0
 19 21  2  0  0  0  0
 19 39  1  0  0  0  0
 20 22  2  0  0  0  0
 20 40  1  0  0  0  0
 21 53  1  0  0  0  0
 22 41  1  0  0  0  0
 23 63  1  0  0  0  0
 24 25  1  0  0  0  0
 24 57  1  0  0  0  0
 25 31  2  0  0  0  0
 25 69  1  0  0  0  0
 26 83  1  0  0  0  0
 27 84  1  0  0  0  0
 28 30  2  0  0  0  0
 28 83  1  0  0  0  0
 29 85  1  0  0  0  0
 30 86  1  0  0  0  0
 31 87  1  0  0  0  0
 32 67  2  0  0  0  0
 33 68  1  0  0  0  0
 33 72  1  0  0  0  0
 34 73  1  0  0  0  0
 34 78  2  0  0  0  0
 35 54  1  0  0  0  0
 35 74  1  0  0  0  0
 35 79  2  0  0  0  0
 36 64  1  0  0  0  0
 36 70  1  0  0  0  0
 36 80  2  0  0  0  0
 37 65  1  0  0  0  0
 37 75  1  0  0  0  0
 37 81  2  0  0  0  0
 38 71  1  0  0  0  0
 38 76  1  0  0  0  0
 38 82  2  0  0  0  0
 39 42  1  0  0  0  0
 40 54  1  0  0  0  0
 41 70  1  0  0  0  0
 42 46  1  0  0  0  0
 43 44  1  0  0  0  0
 43 48  1  0  0  0  0
 44 49  1  0  0  0  0
 45 47  1  0  0  0  0
 45 50  1  0  0  0  0
 46 53  1  0  0  0  0
 47 55  1  0  0  0  0
 48 56  1  0  0  0  0
 49 69  1  0  0  0  0
 50 71  1  0  0  0  0
 51 55  1  0  0  0  0
 51 71  1  0  0  0  0
 52 56  1  0  0  0  0
 52 69  1  0  0  0  0
 53 74  1  0  0  0  0
 54 70  1  0  0  0  0
 55 68  1  0  0  0  0
 56 84  1  0  0  0  0
 58 65  1  0  0  0  0
 59 66  1  0  0  0  0
 60 66  1  0  0  0  0
 61 66  1  0  0  0  0
 62 77  1  0  0  0  0
 63 76  1  0  0  0  0
 64 66  1  0  0  0  0
 64 75  1  0  0  0  0
 65 77  1  0  0  0  0
 67 68  1  0  0  0  0
M  CHG  1  77   1
M  ISO  4  38 100  56 101  76 100  84 101
M  END
> <Batch ID>
0039

> <Smiles>
CNC(C)C(=O)NC(C(=O)N1Cc2cc([101O:1][101CH:1]3CCCCN(c4c(C)cc(C[100NH:0][100C:0](=O)N5CCCC(n6nc(-c7ccc(Oc8ccc(F)cc8F)cc7)c(C(N)=O)c6N)C5)cc4Cl)C3)ccc2CC1C(=O)NC1CCCc2ccccc21)C(C)(C)C

> <Shape>
0.257

> <Color>
0.130

> <Negative vol penalty>
0.000

$$$$

  -OEChem-04042322043D

 85 93  0     1  0  0  0  0  0999 V2000
  -30.8514  -33.8440   16.5220 C   0  0  0  0  0  0  0  0  0  0  0  0
  -30.4457  -32.5830   16.9470 C   0  0  0  0  0  0  0  0  0  0  0  0
  -23.1463   -9.6877   20.2902 C   0  0  0  0  0  0  0  0  0  0  0  0
  -23.7796  -10.1032   22.5844 C   0  0  0  0  0  0  0  0  0  0  0  0
  -30.6534  -34.9525   17.3442 C   0  0  0  0  0  0  0  0  0  0  0  0
  -29.8426  -32.4296   18.1949 C   0  0  0  0  0  0  0  0  0  0  0  0
  -25.4100  -28.4735   19.6803 C   0  0  0  0  0  0  0  0  0  0  0  0
  -22.4063   -8.5770   20.6955 C   0  0  0  0  0  0  0  0  0  0  0  0
  -23.0395   -8.9925   22.9898 C   0  0  0  0  0  0  0  0  0  0  0  0
  -25.4353  -27.2284   20.3072 C   0  0  0  0  0  0  0  0  0  0  0  0
  -19.7948   -8.2341   23.5534 C   0  0  0  0  0  0  0  0  0  0  0  0
  -18.9757   -8.3767   24.6733 C   0  0  0  0  0  0  0  0  0  0  0  0
  -24.9468  -28.2882   22.4185 C   0  0  0  0  0  0  0  0  0  0  0  0
  -31.5966  -18.9675   23.4702 C   0  0  0  0  0  0  0  0  0  0  0  0
  -31.8840  -16.9642   22.1508 C   0  0  0  0  0  0  0  0  0  0  0  0
  -20.2023   -6.6226   25.7938 C   0  0  0  0  0  0  0  0  0  0  0  0
  -23.8330  -10.4507   21.2346 C   0  0  0  0  0  0  0  0  0  0  0  0
  -24.1451  -12.9257   20.7011 C   0  0  0  0  0  0  0  0  0  0  0  0
  -30.0389  -34.8141   18.5987 C   0  0  0  0  0  0  0  0  0  0  0  0
  -25.1632  -29.6384   20.4210 C   0  0  0  0  0  0  0  0  0  0  0  0
  -29.6375  -33.5371   19.0351 C   0  0  0  0  0  0  0  0  0  0  0  0
  -24.9163  -29.5465   21.7982 C   0  0  0  0  0  0  0  0  0  0  0  0
  -30.2192  -18.9092   23.2588 C   0  0  0  0  0  0  0  0  0  0  0  0
  -29.6741  -17.8784   22.4934 C   0  0  0  0  0  0  0  0  0  0  0  0
  -30.5065  -16.9058   21.9394 C   0  0  0  0  0  0  0  0  0  0  0  0
  -22.3528   -8.2294   22.0453 C   0  0  0  0  0  0  0  0  0  0  0  0
  -25.2066  -27.1359   21.6769 C   0  0  0  0  0  0  0  0  0  0  0  0
  -20.8177   -7.2857   23.5536 C   0  0  0  0  0  0  0  0  0  0  0  0
  -19.1794   -7.5710   25.7935 C   0  0  0  0  0  0  0  0  0  0  0  0
  -21.0214   -6.4800   24.6739 C   0  0  0  0  0  0  0  0  0  0  0  0
  -32.4291  -17.9950   22.9161 C   0  0  0  0  0  0  0  0  0  0  0  0
  -24.5981  -11.5978   20.8164 C   0  0  0  0  0  0  0  0  0  0  0  0
  -25.2448  -13.6276   20.2714 C   0  0  0  0  0  0  0  0  0  0  0  0
  -22.8465  -13.4757   20.9595 C   0  0  0  0  0  0  0  0  0  0  0  0
  -26.8062  -32.2852   21.0524 C   0  0  0  0  0  0  0  0  0  0  0  0
  -24.0290  -33.2092   22.4509 C   0  0  0  0  0  0  0  0  0  0  0  0
  -21.0815  -32.3056   23.9147 C   0  0  0  0  0  0  0  0  0  0  0  0
  -30.6779  -14.8147   20.5451 C   0  0  0  0  0  0  0  0  0  0  0  0
  -29.8891  -36.0344   19.4723 C   0  0  0  0  0  0  0  0  0  0  0  0
  -25.1128  -30.9710   19.7253 C   0  0  0  0  0  0  0  0  0  0  0  0
  -24.6266  -30.7649   22.6349 C   0  0  0  0  0  0  0  0  0  0  0  0
  -28.9034  -35.8431   20.6220 C   0  0  0  0  0  0  0  0  0  0  0  0
  -29.7289  -12.0072   18.5716 C   0  0  0  0  0  0  0  0  0  0  0  0
  -29.1583  -34.5153   21.3284 C   0  0  0  0  0  0  0  0  0  0  0  0
  -28.2722  -11.7596   18.9702 C   0  0  0  0  0  0  0  0  0  0  0  0
  -30.5736  -12.4587   19.7617 C   0  0  0  0  0  0  0  0  0  0  0  0
  -28.5840  -13.3634   20.8983 C   0  0  0  0  0  0  0  0  0  0  0  0
  -28.9573  -33.3339   20.3716 C   0  0  1  0  0  0  0  0  0  0  0  0
  -25.3608  -32.1460   20.6662 C   0  0  1  0  0  0  0  0  0  0  0  0
  -27.6795  -12.9693   19.7192 C   0  0  2  0  0  0  0  0  0  0  0  0
  -28.1955  -17.8198   22.2694 C   0  0  0  0  0  0  0  0  0  0  0  0
  -19.0362  -33.2822   24.9918 C   0  0  0  0  0  0  0  0  0  0  0  0
  -25.6400  -33.7921   24.9758 C   0  0  0  0  0  0  0  0  0  0  0  0
  -23.4880  -33.8378   26.2545 C   0  0  0  0  0  0  0  0  0  0  0  0
  -23.8921  -35.4975   24.4366 C   0  0  0  0  0  0  0  0  0  0  0  0
  -19.2974  -31.1162   21.8748 C   0  0  0  0  0  0  0  0  0  0  0  0
  -29.3462  -19.9677   23.8659 C   0  0  0  0  0  0  0  0  0  0  0  0
  -27.4907  -22.9131   22.3095 C   0  0  0  0  0  0  0  0  0  0  0  0
  -26.5795  -24.0154   22.8442 C   0  0  0  0  0  0  0  0  0  0  0  0
  -27.9406  -21.9855   23.4284 C   0  0  0  0  0  0  0  0  0  0  0  0
  -26.0861  -24.9269   21.7295 C   0  0  0  0  0  0  0  0  0  1  0  0
  -23.4352  -33.0852   23.8333 C   0  0  1  0  0  0  0  0  0  0  0  0
  -19.6587  -32.7874   23.6955 C   0  0  2  0  0  0  0  0  0  0  0  0
  -24.1212  -34.0302   24.8599 C   0  0  0  0  0  0  0  0  0  0  0  0
  -25.8852  -11.4616   20.4863 N   0  0  0  0  0  0  0  0  0  0  0  0
  -26.2503  -12.7129   20.1594 N   0  0  0  0  0  0  0  0  0  0  0  0
  -24.5942  -32.0458   21.9098 N   0  0  0  0  0  0  0  0  0  0  0  0
  -29.9530  -13.6107   20.4194 N   0  0  0  0  0  0  0  0  0  0  0  0
  -25.4400  -14.9316   19.9820 N   0  0  0  0  0  0  0  0  0  0  0  0
  -21.8306  -12.6140   21.3951 N   0  0  0  0  0  0  0  0  0  0  0  0
  -29.9738  -15.8503   21.1584 N   0  0  0  0  0  0  0  0  0  0  0  0
  -27.5469  -33.0674   20.1870 N   0  0  0  0  0  0  0  0  0  0  0  0
  -22.0010  -33.3066   23.6829 N   0  0  0  0  0  0  0  0  0  0  0  0
  -18.8142  -31.6822   23.1605 N   0  3  0  0  0  0  0  0  0  0  0  0
  -28.8567  -20.9613   22.8713 N   0  3  0  0  0  0  0  0  0  0  0  0
  -22.5901  -14.6922   20.7927 O   0  0  0  0  0  0  0  0  0  0  0  0
  -27.2184  -31.7257   22.0617 O   0  0  0  0  0  0  0  0  0  0  0  0
  -23.9863  -34.2964   21.8697 O   0  0  0  0  0  0  0  0  0  0  0  0
  -21.3500  -31.1573   24.2607 O   0  0  0  0  0  0  0  0  0  0  0  0
  -31.8284  -14.9275   20.1141 O   0  0  0  0  0  0  0  0  0  0  0  0
  -21.6306   -7.1458   22.4413 O   0  0  0  0  0  0  0  0  0  0  0  0
  -25.2314  -25.9220   22.2914 O   0  0  0  0  0  0  0  0  0  1  0  0
  -18.3937   -7.7092   26.8695 F   0  0  0  0  0  0  0  0  0  0  0  0
  -22.0032   -5.5679   24.6805 F   0  0  0  0  0  0  0  0  0  0  0  0
  -34.1287  -18.0679   23.1761 Cl  0  0  0  0  0  0  0  0  0  0  0  0
  1  2  1  0  0  0  0
  1  5  2  0  0  0  0
  2  6  2  0  0  0  0
  3  8  2  0  0  0  0
  3 17  1  0  0  0  0
  4  9  1  0  0  0  0
  4 17  2  0  0  0  0
  5 19  1  0  0  0  0
  6 21  1  0  0  0  0
  7 10  2  0  0  0  0
  7 20  1  0  0  0  0
  8 26  1  0  0  0  0
  9 26  2  0  0  0  0
 10 27  1  0  0  0  0
 11 12  2  0  0  0  0
 11 28  1  0  0  0  0
 12 29  1  0  0  0  0
 13 22  1  0  0  0  0
 13 27  2  0  0  0  0
 14 23  1  0  0  0  0
 14 31  2  0  0  0  0
 15 25  2  0  0  0  0
 15 31  1  0  0  0  0
 16 29  2  0  0  0  0
 16 30  1  0  0  0  0
 17 32  1  0  0  0  0
 18 32  1  0  0  0  0
 18 33  2  0  0  0  0
 18 34  1  0  0  0  0
 19 21  2  0  0  0  0
 19 39  1  0  0  0  0
 20 22  2  0  0  0  0
 20 40  1  0  0  0  0
 21 48  1  0  0  0  0
 22 41  1  0  0  0  0
 23 24  2  0  0  0  0
 23 57  1  0  0  0  0
 24 25  1  0  0  0  0
 24 51  1  0  0  0  0
 25 71  1  0  0  0  0
 26 81  1  0  0  0  0
 27 82  1  0  0  0  0
 28 30  2  0  0  0  0
 28 81  1  0  0  0  0
 29 83  1  0  0  0  0
 30 84  1  0  0  0  0
 31 85  1  0  0  0  0
 32 65  2  0  0  0  0
 33 66  1  0  0  0  0
 33 69  1  0  0  0  0
 34 70  1  0  0  0  0
 34 76  2  0  0  0  0
 35 49  1  0  0  0  0
 35 72  1  0  0  0  0
 35 77  2  0  0  0  0
 36 62  1  0  0  0  0
 36 67  1  0  0  0  0
 36 78  2  0  0  0  0
 37 63  1  0  0  0  0
 37 73  1  0  0  0  0
 37 79  2  0  0  0  0
 38 68  1  0  0  0  0
 38 71  1  0  0  0  0
 38 80  2  0  0  0  0
 39 42  1  0  0  0  0
 40 49  1  0  0  0  0
 41 67  1  0  0  0  0
 42 44  1  0  0  0  0
 43 45  1  0  0  0  0
 43 46  1  0  0  0  0
 44 48  1  0  0  0  0
 45 50  1  0  0  0  0
 46 68  1  0  0  0  0
 47 50  1  0  0  0  0
 47 68  1  0  0  0  0
 48 72  1  0  0  0  0
 49 67  1  0  0  0  0
 50 66  1  0  0  0  0
 52 63  1  0  0  0  0
 53 64  1  0  0  0  0
 54 64  1  0  0  0  0
 55 64  1  0  0  0  0
 56 74  1  0  0  0  0
 57 75  1  0  0  0  0
 58 59  1  0  0  0  0
 58 60  1  0  0  0  0
 59 61  1  0  0  0  0
 60 75  1  0  0  0  0
 61 82  1  0  0  0  0
 62 64  1  0  0  0  0
 62 73  1  0  0  0  0
 63 74  1  0  0  0  0
 65 66  1  0  0  0  0
M  CHG  2  74   1  75   1
M  ISO  4  38 100  61 101  71 100  82 101
M  END
> <Batch ID>
0039

> <Smiles>
CNC(C)C(=O)NC(C(=O)N1Cc2cc([101O:1][101CH2:1]CCCNCc3cc(Cl)cc([100NH:0][100C:0](=O)N4CCCC(n5nc(-c6ccc(Oc7ccc(F)cc7F)cc6)c(C(N)=O)c5N)C4)c3C)ccc2CC1C(=O)NC1CCCc2ccccc21)C(C)(C)C

> <Shape>
0.257

> <Color>
0.187

> <Negative vol penalty>
0.000

$$$$

  -OEChem-04042322043D

 92101  0     1  0  0  0  0  0999 V2000
  -19.3491  -29.6912   25.8333 C   0  0  0  0  0  0  0  0  0  0  0  0
  -20.6755  -29.4700   25.4767 C   0  0  0  0  0  0  0  0  0  0  0  0
  -26.6752  -13.5562   20.5306 C   0  0  0  0  0  0  0  0  0  0  0  0
  -24.3104  -13.8876   20.8979 C   0  0  0  0  0  0  0  0  0  0  0  0
  -18.3213  -29.1684   25.0497 C   0  0  0  0  0  0  0  0  0  0  0  0
  -20.9749  -28.7248   24.3368 C   0  0  0  0  0  0  0  0  0  0  0  0
  -24.6114  -30.8505   21.5257 C   0  0  0  0  0  0  0  0  0  0  0  0
  -26.4308  -12.2378   20.1463 C   0  0  0  0  0  0  0  0  0  0  0  0
  -24.0660  -12.5692   20.5136 C   0  0  0  0  0  0  0  0  0  0  0  0
  -25.9262  -30.6963   21.9630 C   0  0  0  0  0  0  0  0  0  0  0  0
  -24.3044   -9.4889   21.8869 C   0  0  0  0  0  0  0  0  0  0  0  0
  -23.4298   -8.7369   22.6712 C   0  0  0  0  0  0  0  0  0  0  0  0
  -26.2430  -28.9179   20.3642 C   0  0  0  0  0  0  0  0  0  0  0  0
  -29.2334  -25.5583   20.9413 C   0  0  0  0  0  0  0  0  0  0  0  0
  -21.9814   -8.4302   20.7619 C   0  0  0  0  0  0  0  0  0  0  0  0
  -25.6151  -14.3811   20.9064 C   0  0  0  0  0  0  0  0  0  0  0  0
  -26.6676  -16.1813   22.3758 C   0  0  0  0  0  0  0  0  0  0  0  0
  -18.6081  -28.4246   23.8942 C   0  0  0  0  0  0  0  0  0  0  0  0
  -24.0982  -30.0309   20.5102 C   0  0  0  0  0  0  0  0  0  0  0  0
  -19.9499  -28.1904   23.5376 C   0  0  0  0  0  0  0  0  0  0  0  0
  -24.9221  -29.0655   19.9141 C   0  0  0  0  0  0  0  0  0  0  0  0
  -30.5964  -25.2698   21.0089 C   0  0  0  0  0  0  0  0  0  0  0  0
  -28.3193  -24.5446   20.6537 C   0  0  0  0  0  0  0  0  0  0  0  0
  -31.0454  -23.9676   20.7889 C   0  0  0  0  0  0  0  0  0  0  0  0
  -30.1313  -22.9539   20.5012 C   0  0  0  0  0  0  0  0  0  0  0  0
  -28.7683  -23.2425   20.4337 C   0  0  0  0  0  0  0  0  0  0  0  0
  -25.1262  -11.7443   20.1378 C   0  0  0  0  0  0  0  0  0  0  0  0
  -26.7413  -29.7280   21.3842 C   0  0  0  0  0  0  0  0  0  0  0  0
  -24.0175   -9.7117   20.5402 C   0  0  0  0  0  0  0  0  0  0  0  0
  -22.2683   -8.2075   22.1087 C   0  0  0  0  0  0  0  0  0  0  0  0
  -22.8561   -9.1824   19.9776 C   0  0  0  0  0  0  0  0  0  0  0  0
  -25.8670  -15.7429   21.3040 C   0  0  0  0  0  0  0  0  0  0  0  0
  -26.5817  -17.5514   22.3304 C   0  0  0  0  0  0  0  0  0  0  0  0
  -32.6742  -28.3776   20.5492 C   0  0  0  0  0  0  0  0  0  0  0  0
  -32.1168  -29.4418   21.1531 C   0  0  0  0  0  0  0  0  0  0  0  0
  -30.7017  -29.5524   21.4193 C   0  0  0  0  0  0  0  0  0  0  0  0
  -30.1493  -30.6157   22.0220 C   0  0  0  0  0  0  0  0  0  0  0  0
  -27.4214  -15.4184   23.3272 C   0  0  0  0  0  0  0  0  0  0  0  0
  -21.7397  -27.9086   20.3174 C   0  0  0  0  0  0  0  0  0  0  0  0
  -22.5243  -27.9042   17.1699 C   0  0  0  0  0  0  0  0  0  0  0  0
  -25.5541  -27.9342   15.2112 C   0  0  0  0  0  0  0  0  0  0  0  0
  -26.6114  -22.3424   19.4935 C   0  0  0  0  0  0  0  0  0  0  0  0
  -17.4639  -27.8396   23.1048 C   0  0  0  0  0  0  0  0  0  0  0  0
  -22.6860  -30.2278   20.0313 C   0  0  0  0  0  0  0  0  0  0  0  0
  -24.4255  -28.1739   18.8064 C   0  0  0  0  0  0  0  0  0  0  0  0
  -34.1551  -28.3087   20.2935 C   0  0  0  0  0  0  0  0  0  0  0  0
  -17.8624  -27.3779   21.7054 C   0  0  0  0  0  0  0  0  0  0  0  0
  -34.5056  -28.8082   18.8928 C   0  0  0  0  0  0  0  0  0  0  0  0
  -34.0789  -27.8731   17.7636 C   0  0  0  0  0  0  0  0  0  0  0  0
  -23.5256  -20.5737   19.6569 C   0  0  0  0  0  0  0  0  0  0  0  0
  -32.6017  -27.4776   17.7667 C   0  0  0  0  0  0  0  0  0  0  0  0
  -19.1517  -26.5644   21.7586 C   0  0  0  0  0  0  0  0  0  0  0  0
  -23.9255  -19.1953   20.1881 C   0  0  0  0  0  0  0  0  0  0  0  0
  -24.5801  -21.1444   18.7102 C   0  0  0  0  0  0  0  0  0  0  0  0
  -26.3453  -19.8004   19.7811 C   0  0  0  0  0  0  0  0  0  0  0  0
  -32.2322  -26.5570   18.9270 C   0  0  0  0  0  0  0  0  0  0  0  0
  -20.3146  -27.4081   22.2946 C   0  0  1  0  0  0  0  0  0  0  0  0
  -22.1100  -28.9929   19.3453 C   0  0  1  0  0  0  0  0  0  0  0  0
  -25.3445  -19.2131   20.7896 C   0  0  2  0  0  0  0  0  0  0  0  0
  -26.8654  -24.8848   20.5895 C   0  0  0  0  0  0  0  0  0  0  0  0
  -32.5079  -23.6616   20.8620 C   0  0  0  0  0  0  0  0  0  0  0  0
  -30.6185  -21.5581   20.2657 C   0  0  0  0  0  0  0  0  0  0  0  0
  -25.9889  -28.7871   12.8915 C   0  0  0  0  0  0  0  0  0  0  0  0
  -21.9723  -25.0261   16.3205 C   0  0  0  0  0  0  0  0  0  0  0  0
  -23.8007  -25.2494   14.6248 C   0  0  0  0  0  0  0  0  0  0  0  0
  -21.7841  -26.7107   14.4818 C   0  0  0  0  0  0  0  0  0  0  0  0
  -27.7554  -29.6804   16.1407 C   0  0  0  0  0  0  0  0  0  0  0  0
  -31.5582  -26.3780   21.3215 C   0  0  0  0  0  0  0  0  0  0  0  0
  -28.6872  -30.7370   22.3069 C   0  0  0  0  0  0  0  0  0  1  0  0
  -23.4838  -27.1192   16.3083 C   0  0  1  0  0  0  0  0  0  0  0  0
  -26.0871  -29.0867   14.3792 C   0  0  2  0  0  0  0  0  0  0  0  0
  -22.7654  -26.0310   15.4614 C   0  0  0  0  0  0  0  0  0  0  0  0
  -25.3132  -16.7526   20.6273 N   0  0  0  0  0  0  0  0  0  0  0  0
  -25.7665  -17.8391   21.2756 N   0  0  0  0  0  0  0  0  0  0  0  0
  -23.0355  -28.4007   18.3773 N   0  0  0  0  0  0  0  0  0  0  0  0
  -25.8978  -21.1338   19.3491 N   0  0  0  0  0  0  0  0  0  0  0  0
  -27.1248  -18.5260   23.0904 N   0  0  0  0  0  0  0  0  0  0  0  0
  -27.3998  -14.0204   23.2301 N   0  0  0  0  0  0  0  0  0  0  0  0
  -27.8375  -22.2138   20.1451 N   0  0  0  0  0  0  0  0  0  0  0  0
  -20.8116  -28.2956   21.2652 N   0  0  0  0  0  0  0  0  0  0  0  0
  -24.2205  -28.1007   15.5194 N   0  0  0  0  0  0  0  0  0  0  0  0
  -31.7841  -27.3110   20.1569 N   0  3  1  0  0  0  0  0  0  0  0  0
  -27.5157  -29.3490   14.7126 N   0  3  0  0  0  0  0  0  0  0  0  0
  -28.0811  -15.9598   24.2466 O   0  0  0  0  0  0  0  0  0  0  0  0
  -22.2566  -26.8024   20.2142 O   0  0  0  0  0  0  0  0  0  0  0  0
  -21.3660  -28.0767   16.7824 O   0  0  0  0  0  0  0  0  0  0  0  0
  -26.2503  -26.9798   15.5503 O   0  0  0  0  0  0  0  0  0  0  0  0
  -26.1552  -23.4170   19.0945 O   0  0  0  0  0  0  0  0  0  0  0  0
  -24.8872  -10.4579   19.7627 O   0  0  0  0  0  0  0  0  0  0  0  0
  -28.0249  -29.5749   21.8096 O   0  0  0  0  0  0  0  0  0  1  0  0
  -21.4293   -7.4840   22.8615 F   0  0  0  0  0  0  0  0  0  0  0  0
  -22.5757   -9.3920   18.6841 F   0  0  0  0  0  0  0  0  0  0  0  0
  1  2  1  0  0  0  0
  1  5  2  0  0  0  0
  2  6  2  0  0  0  0
  3  8  2  0  0  0  0
  3 16  1  0  0  0  0
  4  9  1  0  0  0  0
  4 16  2  0  0  0  0
  5 18  1  0  0  0  0
  6 20  1  0  0  0  0
  7 10  2  0  0  0  0
  7 19  1  0  0  0  0
  8 27  1  0  0  0  0
  9 27  2  0  0  0  0
 10 28  1  0  0  0  0
 11 12  2  0  0  0  0
 11 29  1  0  0  0  0
 12 30  1  0  0  0  0
 13 21  1  0  0  0  0
 13 28  2  0  0  0  0
 14 22  1  0  0  0  0
 14 23  2  0  0  0  0
 15 30  2  0  0  0  0
 15 31  1  0  0  0  0
 16 32  1  0  0  0  0
 17 32  1  0  0  0  0
 17 33  2  0  0  0  0
 17 38  1  0  0  0  0
 18 20  2  0  0  0  0
 18 43  1  0  0  0  0
 19 21  2  0  0  0  0
 19 44  1  0  0  0  0
 20 57  1  0  0  0  0
 21 45  1  0  0  0  0
 22 24  2  0  0  0  0
 22 68  1  0  0  0  0
 23 26  1  0  0  0  0
 23 60  1  0  0  0  0
 24 25  1  0  0  0  0
 24 61  1  0  0  0  0
 25 26  2  0  0  0  0
 25 62  1  0  0  0  0
 26 79  1  0  0  0  0
 27 89  1  0  0  0  0
 28 90  1  0  0  0  0
 29 31  2  0  0  0  0
 29 89  1  0  0  0  0
 30 91  1  0  0  0  0
 31 92  1  0  0  0  0
 32 73  2  0  0  0  0
 33 74  1  0  0  0  0
 33 77  1  0  0  0  0
 34 35  2  0  0  0  0
 34 46  1  0  0  0  0
 34 82  1  0  0  0  0
 35 36  1  0  0  0  0
 36 37  2  0  0  0  0
 37 69  1  0  0  0  0
 38 78  1  0  0  0  0
 38 84  2  0  0  0  0
 39 58  1  0  0  0  0
 39 80  1  0  0  0  0
 39 85  2  0  0  0  0
 40 70  1  0  0  0  0
 40 75  1  0  0  0  0
 40 86  2  0  0  0  0
 41 71  1  0  0  0  0
 41 81  1  0  0  0  0
 41 87  2  0  0  0  0
 42 76  1  0  0  0  0
 42 79  1  0  0  0  0
 42 88  2  0  0  0  0
 43 47  1  0  0  0  0
 44 58  1  0  0  0  0
 45 75  1  0  0  0  0
 46 48  1  0  0  0  0
 47 52  1  0  0  0  0
 48 49  1  0  0  0  0
 49 51  1  0  0  0  0
 50 53  1  0  0  0  0
 50 54  1  0  0  0  0
 51 56  1  0  0  0  0
 52 57  1  0  0  0  0
 53 59  1  0  0  0  0
 54 76  1  0  0  0  0
 55 59  1  0  0  0  0
 55 76  1  0  0  0  0
 56 82  1  0  0  0  0
 57 80  1  0  0  0  0
 58 75  1  0  0  0  0
 59 74  1  0  0  0  0
 63 71  1  0  0  0  0
 64 72  1  0  0  0  0
 65 72  1  0  0  0  0
 66 72  1  0  0  0  0
 67 83  1  0  0  0  0
 68 82  1  0  0  0  0
 69 90  1  0  0  0  0
 70 72  1  0  0  0  0
 70 81  1  0  0  0  0
 71 83  1  0  0  0  0
 73 74  1  0  0  0  0
M  CHG  2  82   1  83   1
M  ISO  4  42 100  69 101  79 100  90 101
M  END
> <Batch ID>
0039

> <Smiles>
CNC(C)C(=O)NC(C(=O)N1Cc2cc([101O:1][101CH2:1]C=CC=C3CCCCCN3Cc3cc(C)c([100NH:0][100C:0](=O)N4CCCC(n5nc(-c6ccc(Oc7ccc(F)cc7F)cc6)c(C(N)=O)c5N)C4)c(C)c3C)ccc2CC1C(=O)NC1CCCc2ccccc21)C(C)(C)C

> <Shape>
0.232

> <Color>
0.062

> <Negative vol penalty>
0.000

$$$$

  -OEChem-04042322043D

 84 92  0     1  0  0  0  0  0999 V2000
  -23.1117  -32.5286   25.8275 C   0  0  0  0  0  0  0  0  0  0  0  0
  -23.9694  -31.5873   25.2673 C   0  0  0  0  0  0  0  0  0  0  0  0
  -27.6581  -24.3011   15.4041 C   0  0  0  0  0  0  0  0  0  0  0  0
  -24.5789  -13.7142   21.7622 C   0  0  0  0  0  0  0  0  0  0  0  0
  -26.3766  -13.6705   20.1487 C   0  0  0  0  0  0  0  0  0  0  0  0
  -21.7315  -32.3524   25.7387 C   0  0  0  0  0  0  0  0  0  0  0  0
  -23.4472  -30.4687   24.6188 C   0  0  0  0  0  0  0  0  0  0  0  0
  -25.7695  -29.5122   20.2213 C   0  0  0  0  0  0  0  0  0  0  0  0
  -28.8845  -24.5097   16.0350 C   0  0  0  0  0  0  0  0  0  0  0  0
  -26.7277  -23.4236   15.9609 C   0  0  0  0  0  0  0  0  0  0  0  0
  -24.5853  -12.3202   21.8072 C   0  0  0  0  0  0  0  0  0  0  0  0
  -26.3830  -12.2764   20.1937 C   0  0  0  0  0  0  0  0  0  0  0  0
  -27.0143  -28.8873   20.2814 C   0  0  0  0  0  0  0  0  0  0  0  0
  -23.4317   -9.7624   19.9226 C   0  0  0  0  0  0  0  0  0  0  0  0
  -22.2010   -9.1076   19.8763 C   0  0  0  0  0  0  0  0  0  0  0  0
  -25.9716  -26.7740   19.7661 C   0  0  0  0  0  0  0  0  0  0  0  0
  -22.6523   -8.1069   22.0285 C   0  0  0  0  0  0  0  0  0  0  0  0
  -25.4745  -14.3894   20.9330 C   0  0  0  0  0  0  0  0  0  0  0  0
  -26.2137  -16.7099   21.6923 C   0  0  0  0  0  0  0  0  0  0  0  0
  -21.1921  -31.2361   25.0804 C   0  0  0  0  0  0  0  0  0  0  0  0
  -24.6129  -28.7695   19.9435 C   0  0  0  0  0  0  0  0  0  0  0  0
  -22.0585  -30.2768   24.5222 C   0  0  0  0  0  0  0  0  0  0  0  0
  -24.7136  -27.3922   19.7006 C   0  0  0  0  0  0  0  0  0  0  0  0
  -29.1805  -23.8408   17.2227 C   0  0  0  0  0  0  0  0  0  0  0  0
  -27.0237  -22.7547   17.1486 C   0  0  0  0  0  0  0  0  0  0  0  0
  -25.4873  -11.6012   21.0230 C   0  0  0  0  0  0  0  0  0  0  0  0
  -27.1151  -27.5175   20.0567 C   0  0  0  0  0  0  0  0  0  0  0  0
  -24.2728   -9.5894   21.0219 C   0  0  0  0  0  0  0  0  0  0  0  0
  -21.8113   -8.2799   20.9292 C   0  0  0  0  0  0  0  0  0  0  0  0
  -23.8831   -8.7617   22.0748 C   0  0  0  0  0  0  0  0  0  0  0  0
  -28.2501  -22.9633   17.7795 C   0  0  0  0  0  0  0  0  0  0  0  0
  -25.4680  -15.8295   20.8857 C   0  0  0  0  0  0  0  0  0  0  0  0
  -25.8545  -17.9621   21.2569 C   0  0  0  0  0  0  0  0  0  0  0  0
  -27.1476  -16.4217   22.7413 C   0  0  0  0  0  0  0  0  0  0  0  0
  -21.9230  -28.1356   21.5139 C   0  0  0  0  0  0  0  0  0  0  0  0
  -21.0776  -26.7330   18.7139 C   0  0  0  0  0  0  0  0  0  0  0  0
  -31.0074  -26.1969   19.1122 C   0  0  0  0  0  0  0  0  0  0  0  0
  -22.0639  -25.2678   15.7937 C   0  0  0  0  0  0  0  0  0  0  0  0
  -24.7977  -21.5752   17.1542 C   0  0  0  0  0  0  0  0  0  0  0  0
  -19.6940  -31.0644   25.0510 C   0  0  0  0  0  0  0  0  0  0  0  0
  -23.2811  -29.4631   19.8559 C   0  0  0  0  0  0  0  0  0  0  0  0
  -23.5049  -26.5534   19.3784 C   0  0  0  0  0  0  0  0  0  0  0  0
  -19.2179  -30.0437   24.0206 C   0  0  0  0  0  0  0  0  0  0  0  0
  -22.1373  -19.4285   18.1498 C   0  0  0  0  0  0  0  0  0  0  0  0
  -20.0571  -28.7724   24.1014 C   0  0  0  0  0  0  0  0  0  0  0  0
  -22.8280  -18.3732   19.0167 C   0  0  0  0  0  0  0  0  0  0  0  0
  -23.0120  -19.8566   16.9728 C   0  0  0  0  0  0  0  0  0  0  0  0
  -25.0572  -19.2396   18.1999 C   0  0  0  0  0  0  0  0  0  0  0  0
  -21.5300  -29.0629   23.7891 C   0  0  1  0  0  0  0  0  0  0  0  0
  -22.1012  -28.5207   20.0725 C   0  0  1  0  0  0  0  0  0  0  0  0
  -24.2412  -18.8245   19.4349 C   0  0  2  0  0  0  0  0  0  0  0  0
  -21.1452  -24.1872   13.7235 C   0  0  0  0  0  0  0  0  0  0  0  0
  -20.4547  -24.2087   20.3108 C   0  0  0  0  0  0  0  0  0  0  0  0
  -20.4699  -22.9279   18.1596 C   0  0  0  0  0  0  0  0  0  0  0  0
  -18.7969  -24.7436   18.5163 C   0  0  0  0  0  0  0  0  0  0  0  0
  -23.2986  -27.3079   14.0408 C   0  0  0  0  0  0  0  0  0  0  0  0
  -30.5130  -24.0967   17.8654 C   0  0  0  0  0  0  0  0  0  0  0  0
  -30.7123  -26.8679   20.4446 C   0  0  0  0  0  0  0  0  0  0  0  0
  -29.4574  -27.7265   20.4121 C   0  0  0  0  0  0  0  0  0  1  0  0
  -21.2199  -25.3502   18.1251 C   0  0  1  0  0  0  0  0  0  0  0  0
  -21.6209  -25.4849   14.3580 C   0  0  2  0  0  0  0  0  0  0  0  0
  -20.2581  -24.3228   18.7859 C   0  0  0  0  0  0  0  0  0  0  0  0
  -24.6935  -16.4682   20.0046 N   0  0  0  0  0  0  0  0  0  0  0  0
  -24.9505  -17.7633   20.2552 N   0  0  0  0  0  0  0  0  0  0  0  0
  -22.2243  -27.2765   19.3103 N   0  0  0  0  0  0  0  0  0  0  0  0
  -24.3335  -20.2750   17.4455 N   0  0  0  0  0  0  0  0  0  0  0  0
  -26.2269  -19.2027   21.6370 N   0  0  0  0  0  0  0  0  0  0  0  0
  -27.4006  -15.0807   23.0607 N   0  0  0  0  0  0  0  0  0  0  0  0
  -26.0536  -21.8710   17.6831 N   0  0  0  0  0  0  0  0  0  0  0  0
  -21.7251  -29.2081   22.3625 N   0  0  0  0  0  0  0  0  0  0  0  0
  -30.3991  -24.9529   19.0240 N   0  0  0  0  0  0  0  0  0  0  0  0
  -21.0377  -25.4989   16.6853 N   0  0  0  0  0  0  0  0  0  0  0  0
  -22.7480  -26.0208   13.5436 N   0  3  0  0  0  0  0  0  0  0  0  0
  -27.7278  -17.3267   23.3876 O   0  0  0  0  0  0  0  0  0  0  0  0
  -21.9607  -26.9529   21.8325 O   0  0  0  0  0  0  0  0  0  0  0  0
  -19.9911  -27.3125   18.6408 O   0  0  0  0  0  0  0  0  0  0  0  0
  -31.7002  -26.7106   18.2381 O   0  0  0  0  0  0  0  0  0  0  0  0
  -23.2049  -24.9239   16.0939 O   0  0  0  0  0  0  0  0  0  0  0  0
  -24.1186  -22.3771   16.5079 O   0  0  0  0  0  0  0  0  0  0  0  0
  -25.4940  -10.2408   21.0668 O   0  0  0  0  0  0  0  0  0  0  0  0
  -28.3289  -26.9050   20.1153 O   0  0  0  0  0  0  0  0  0  1  0  0
  -20.6287   -7.6524   20.8853 F   0  0  0  0  0  0  0  0  0  0  0  0
  -24.6864   -8.5926   23.1341 F   0  0  0  0  0  0  0  0  0  0  0  0
  -28.6235  -22.1346   19.2559 Cl  0  0  0  0  0  0  0  0  0  0  0  0
  1  2  1  0  0  0  0
  1  6  2  0  0  0  0
  2  7  2  0  0  0  0
  3  9  2  0  0  0  0
  3 10  1  0  0  0  0
  4 11  2  0  0  0  0
  4 18  1  0  0  0  0
  5 12  1  0  0  0  0
  5 18  2  0  0  0  0
  6 20  1  0  0  0  0
  7 22  1  0  0  0  0
  8 13  2  0  0  0  0
  8 21  1  0  0  0  0
  9 24  1  0  0  0  0
 10 25  2  0  0  0  0
 11 26  1  0  0  0  0
 12 26  2  0  0  0  0
 13 27  1  0  0  0  0
 14 15  2  0  0  0  0
 14 28  1  0  0  0  0
 15 29  1  0  0  0  0
 16 23  1  0  0  0  0
 16 27  2  0  0  0  0
 17 29  2  0  0  0  0
 17 30  1  0  0  0  0
 18 32  1  0  0  0  0
 19 32  1  0  0  0  0
 19 33  2  0  0  0  0
 19 34  1  0  0  0  0
 20 22  2  0  0  0  0
 20 40  1  0  0  0  0
 21 23  2  0  0  0  0
 21 41  1  0  0  0  0
 22 49  1  0  0  0  0
 23 42  1  0  0  0  0
 24 31  2  0  0  0  0
 24 57  1  0  0  0  0
 25 31  1  0  0  0  0
 25 69  1  0  0  0  0
 26 80  1  0  0  0  0
 27 81  1  0  0  0  0
 28 30  2  0  0  0  0
 28 80  1  0  0  0  0
 29 82  1  0  0  0  0
 30 83  1  0  0  0  0
 31 84  1  0  0  0  0
 32 63  2  0  0  0  0
 33 64  1  0  0  0  0
 33 67  1  0  0  0  0
 34 68  1  0  0  0  0
 34 74  2  0  0  0  0
 35 50  1  0  0  0  0
 35 70  1  0  0  0  0
 35 75  2  0  0  0  0
 36 60  1  0  0  0  0
 36 65  1  0  0  0  0
 36 76  2  0  0  0  0
 37 58  1  0  0  0  0
 37 71  1  0  0  0  0
 37 77  2  0  0  0  0
 38 61  1  0  0  0  0
 38 72  1  0  0  0  0
 38 78  2  0  0  0  0
 39 66  1  0  0  0  0
 39 69  1  0  0  0  0
 39 79  2  0  0  0  0
 40 43  1  0  0  0  0
 41 50  1  0  0  0  0
 42 65  1  0  0  0  0
 43 45  1  0  0  0  0
 44 46  1  0  0  0  0
 44 47  1  0  0  0  0
 45 49  1  0  0  0  0
 46 51  1  0  0  0  0
 47 66  1  0  0  0  0
 48 51  1  0  0  0  0
 48 66  1  0  0  0  0
 49 70  1  0  0  0  0
 50 65  1  0  0  0  0
 51 64  1  0  0  0  0
 52 61  1  0  0  0  0
 53 62  1  0  0  0  0
 54 62  1  0  0  0  0
 55 62  1  0  0  0  0
 56 73  1  0  0  0  0
 57 71  1  0  0  0  0
 58 59  1  0  0  0  0
 59 81  1  0  0  0  0
 60 62  1  0  0  0  0
 60 72  1  0  0  0  0
 61 73  1  0  0  0  0
 63 64  1  0  0  0  0
M  CHG  1  73   1
M  ISO  4  39 100  59 101  69 100  81 101
M  END
> <Batch ID>
0039

> <Smiles>
CNC(C)C(=O)NC(C(=O)N1Cc2cc([101O:1][101CH2:1]CC(=O)NCc3cccc([100NH:0][100C:0](=O)N4CCCC(n5nc(-c6ccc(Oc7ccc(F)cc7F)cc6)c(C(N)=O)c5N)C4)c3Cl)ccc2CC1C(=O)NC1CCCc2ccccc21)C(C)(C)C

> <Shape>
0.223

> <Color>
0.090

> <Negative vol penalty>
0.000

$$$$

  -OEChem-04042322043D

 94103  0     1  0  0  0  0  0999 V2000
  -24.1871  -37.7926   23.8101 C   0  0  0  0  0  0  0  0  0  0  0  0
  -25.0745  -37.1499   22.9528 C   0  0  0  0  0  0  0  0  0  0  0  0
  -22.6391  -10.0939   22.6599 C   0  0  0  0  0  0  0  0  0  0  0  0
  -23.4461   -9.8761   20.3931 C   0  0  0  0  0  0  0  0  0  0  0  0
  -23.5311  -37.0675   24.8040 C   0  0  0  0  0  0  0  0  0  0  0  0
  -25.3073  -35.7819   23.0898 C   0  0  0  0  0  0  0  0  0  0  0  0
  -26.8169  -29.9589   19.2001 C   0  0  0  0  0  0  0  0  0  0  0  0
  -29.9088  -20.1481   20.6150 C   0  0  0  0  0  0  0  0  0  0  0  0
  -30.1962  -18.7840   20.6597 C   0  0  0  0  0  0  0  0  0  0  0  0
  -22.0665   -8.8246   22.5780 C   0  0  0  0  0  0  0  0  0  0  0  0
  -22.8736   -8.6068   20.3112 C   0  0  0  0  0  0  0  0  0  0  0  0
  -27.7304  -28.9071   19.1456 C   0  0  0  0  0  0  0  0  0  0  0  0
  -23.0962   -5.6100   22.7759 C   0  0  0  0  0  0  0  0  0  0  0  0
  -23.2811   -4.7447   23.8541 C   0  0  0  0  0  0  0  0  0  0  0  0
  -26.4807  -27.7414   20.8481 C   0  0  0  0  0  0  0  0  0  0  0  0
  -27.8069  -19.6696   19.5240 C   0  0  0  0  0  0  0  0  0  0  0  0
  -20.8887   -4.6266   24.1698 C   0  0  0  0  0  0  0  0  0  0  0  0
  -23.3288  -10.6197   21.5674 C   0  0  0  0  0  0  0  0  0  0  0  0
  -24.9060  -12.3626   22.5586 C   0  0  0  0  0  0  0  0  0  0  0  0
  -23.7486  -35.6881   24.9470 C   0  0  0  0  0  0  0  0  0  0  0  0
  -25.7327  -29.9146   20.0882 C   0  0  0  0  0  0  0  0  0  0  0  0
  -24.6546  -35.0380   24.0874 C   0  0  0  0  0  0  0  0  0  0  0  0
  -25.5534  -28.7928   20.9100 C   0  0  0  0  0  0  0  0  0  0  0  0
  -28.7141  -20.5910   20.0472 C   0  0  0  0  0  0  0  0  0  0  0  0
  -29.2890  -17.8626   20.1365 C   0  0  0  0  0  0  0  0  0  0  0  0
  -28.0943  -18.3054   19.5687 C   0  0  0  0  0  0  0  0  0  0  0  0
  -22.1838   -8.0810   21.4037 C   0  0  0  0  0  0  0  0  0  0  0  0
  -27.5640  -27.7994   19.9717 C   0  0  0  0  0  0  0  0  0  0  0  0
  -21.8075   -5.9838   22.3947 C   0  0  0  0  0  0  0  0  0  0  0  0
  -22.1775   -4.2529   24.5510 C   0  0  0  0  0  0  0  0  0  0  0  0
  -20.7038   -5.4920   23.0916 C   0  0  0  0  0  0  0  0  0  0  0  0
  -23.9200  -11.9310   21.6512 C   0  0  0  0  0  0  0  0  0  0  0  0
  -25.1255  -13.6774   22.2274 C   0  0  0  0  0  0  0  0  0  0  0  0
  -28.2730  -24.0733   18.6394 C   0  0  0  0  0  0  0  0  0  0  0  0
  -26.9735  -24.4162   18.6451 C   0  0  0  0  0  0  0  0  0  0  0  0
  -25.9040  -23.4523   18.7201 C   0  0  0  0  0  0  0  0  0  0  0  0
  -24.6089  -23.8028   18.7253 C   0  0  0  0  0  0  0  0  0  0  0  0
  -23.5317  -22.8400   18.8004 C   0  0  0  0  0  0  0  0  0  0  0  0
  -22.2416  -23.1975   18.8052 C   0  0  0  0  0  0  0  0  0  0  0  0
  -21.2098  -22.1440   18.8853 C   0  0  0  0  0  0  0  0  0  0  0  0
  -25.5648  -11.6396   23.6069 C   0  0  0  0  0  0  0  0  0  0  0  0
  -24.7811  -31.6777   22.5560 C   0  0  0  0  0  0  0  0  0  0  0  0
  -22.1761  -29.7488   22.4295 C   0  0  0  0  0  0  0  0  0  0  0  0
  -20.8294  -26.7568   21.4908 C   0  0  0  0  0  0  0  0  0  0  0  0
  -25.9325  -17.6767   18.4383 C   0  0  0  0  0  0  0  0  0  0  0  0
  -23.0524  -34.9556   26.0666 C   0  0  0  0  0  0  0  0  0  0  0  0
  -24.7411  -31.0453   20.1158 C   0  0  0  0  0  0  0  0  0  0  0  0
  -24.3947  -28.6874   21.8665 C   0  0  0  0  0  0  0  0  0  0  0  0
  -23.0704  -33.4378   25.9052 C   0  0  0  0  0  0  0  0  0  0  0  0
  -22.5631  -16.7702   19.1469 C   0  0  0  0  0  0  0  0  0  0  0  0
  -30.2439  -23.2849   16.8780 C   0  0  0  0  0  0  0  0  0  0  0  0
  -24.4688  -32.9573   25.5304 C   0  0  0  0  0  0  0  0  0  0  0  0
  -30.2197  -24.7676   17.2660 C   0  0  0  0  0  0  0  0  0  0  0  0
  -22.6968  -15.4659   19.9362 C   0  0  0  0  0  0  0  0  0  0  0  0
  -23.6138  -16.8754   18.0430 C   0  0  0  0  0  0  0  0  0  0  0  0
  -25.1345  -15.3791   19.2750 C   0  0  0  0  0  0  0  0  0  0  0  0
  -29.9551  -22.3753   18.0635 C   0  0  0  0  0  0  0  0  0  0  0  0
  -24.9147  -33.5506   24.1885 C   0  0  1  0  0  0  0  0  0  0  0  0
  -29.4358  -25.0412   18.5624 C   0  0  1  0  0  0  0  0  0  0  0  0
  -23.9614  -31.1245   21.4247 C   0  0  1  0  0  0  0  0  0  0  0  0
  -24.1385  -15.2573   20.4398 C   0  0  2  0  0  0  0  0  0  0  0  0
  -29.6236  -16.4074   20.1973 C   0  0  0  0  0  0  0  0  0  0  0  0
  -19.0619  -25.0183   21.1025 C   0  0  0  0  0  0  0  0  0  0  0  0
  -22.6369  -29.1423   25.3841 C   0  0  0  0  0  0  0  0  0  0  0  0
  -21.1101  -27.1724   25.1462 C   0  0  0  0  0  0  0  0  0  0  0  0
  -20.2412  -29.4768   24.7490 C   0  0  0  0  0  0  0  0  0  0  0  0
  -19.1069  -21.2324   18.9789 C   0  0  0  0  0  0  0  0  0  0  0  0
  -20.2204  -27.8116   18.7935 C   0  0  0  0  0  0  0  0  0  0  0  0
  -28.4058  -22.0585   19.9997 C   0  0  0  0  0  0  0  0  0  0  0  0
  -29.0974  -26.5304   18.6701 C   0  0  0  0  0  0  0  0  0  1  0  0
  -21.7930  -28.4275   23.0511 C   0  0  1  0  0  0  0  0  0  0  0  0
  -19.5472  -26.4165   20.7529 C   0  0  2  0  0  0  0  0  0  0  0  0
  -21.4683  -28.5573   24.5661 C   0  0  0  0  0  0  0  0  0  0  0  0
  -23.5393  -12.8936   20.8071 N   0  0  0  0  0  0  0  0  0  0  0  0
  -19.9513  -22.4209   18.8942 N   0  0  0  0  0  0  0  0  0  0  0  0
  -24.2899  -13.9431   21.1828 N   0  0  0  0  0  0  0  0  0  0  0  0
  -23.4558  -29.8214   21.8611 N   0  0  0  0  0  0  0  0  0  0  0  0
  -24.9550  -16.6714   18.5948 N   0  0  0  0  0  0  0  0  0  0  0  0
  -25.9498  -14.6205   22.7309 N   0  0  0  0  0  0  0  0  0  0  0  0
  -26.7509  -10.9569   23.3046 N   0  0  0  0  0  0  0  0  0  0  0  0
  -27.1598  -17.3850   19.0327 N   0  0  0  0  0  0  0  0  0  0  0  0
  -24.2826  -32.8501   23.0912 N   0  0  0  0  0  0  0  0  0  0  0  0
  -20.6948  -27.9015   22.2476 N   0  0  0  0  0  0  0  0  0  0  0  0
  -28.5718  -22.6524   18.6252 N   0  3  1  0  0  0  0  0  0  0  0  0
  -19.7635  -26.4843   19.2800 N   0  3  0  0  0  0  0  0  0  0  0  0
  -25.1061  -11.5867   24.7733 O   0  0  0  0  0  0  0  0  0  0  0  0
  -25.7902  -31.0839   22.9176 O   0  0  0  0  0  0  0  0  0  0  0  0
  -21.3671  -30.6799   22.4412 O   0  0  0  0  0  0  0  0  0  0  0  0
  -21.8475  -26.0733   21.4073 O   0  0  0  0  0  0  0  0  0  0  0  0
  -25.6899  -18.7313   17.8459 O   0  0  0  0  0  0  0  0  0  0  0  0
  -21.6254   -6.8424   21.3235 O   0  0  0  0  0  0  0  0  0  0  0  0
  -28.4546  -26.7717   19.9210 O   0  0  0  0  0  0  0  0  0  1  0  0
  -22.3552   -3.4207   25.5854 F   0  0  0  0  0  0  0  0  0  0  0  0
  -19.4633   -5.8465   22.7292 F   0  0  0  0  0  0  0  0  0  0  0  0
  1  2  1  0  0  0  0
  1  5  2  0  0  0  0
  2  6  2  0  0  0  0
  3 10  2  0  0  0  0
  3 18  1  0  0  0  0
  4 11  1  0  0  0  0
  4 18  2  0  0  0  0
  5 20  1  0  0  0  0
  6 22  1  0  0  0  0
  7 12  2  0  0  0  0
  7 21  1  0  0  0  0
  8  9  2  0  0  0  0
  8 24  1  0  0  0  0
  9 25  1  0  0  0  0
 10 27  1  0  0  0  0
 11 27  2  0  0  0  0
 12 28  1  0  0  0  0
 13 14  2  0  0  0  0
 13 29  1  0  0  0  0
 14 30  1  0  0  0  0
 15 23  1  0  0  0  0
 15 28  2  0  0  0  0
 16 24  2  0  0  0  0
 16 26  1  0  0  0  0
 17 30  2  0  0  0  0
 17 31  1  0  0  0  0
 18 32  1  0  0  0  0
 19 32  1  0  0  0  0
 19 33  2  0  0  0  0
 19 41  1  0  0  0  0
 20 22  2  0  0  0  0
 20 46  1  0  0  0  0
 21 23  2  0  0  0  0
 21 47  1  0  0  0  0
 22 58  1  0  0  0  0
 23 48  1  0  0  0  0
 24 69  1  0  0  0  0
 25 26  2  0  0  0  0
 25 62  1  0  0  0  0
 26 81  1  0  0  0  0
 27 91  1  0  0  0  0
 28 92  1  0  0  0  0
 29 31  2  0  0  0  0
 29 91  1  0  0  0  0
 30 93  1  0  0  0  0
 31 94  1  0  0  0  0
 32 74  2  0  0  0  0
 33 76  1  0  0  0  0
 33 79  1  0  0  0  0
 34 35  2  0  0  0  0
 34 59  1  0  0  0  0
 34 84  1  0  0  0  0
 35 36  1  0  0  0  0
 36 37  2  0  0  0  0
 37 38  1  0  0  0  0
 38 39  2  0  0  0  0
 39 40  1  0  0  0  0
 40 75  2  0  0  0  0
 41 80  1  0  0  0  0
 41 86  2  0  0  0  0
 42 60  1  0  0  0  0
 42 82  1  0  0  0  0
 42 87  2  0  0  0  0
 43 71  1  0  0  0  0
 43 77  1  0  0  0  0
 43 88  2  0  0  0  0
 44 72  1  0  0  0  0
 44 83  1  0  0  0  0
 44 89  2  0  0  0  0
 45 78  1  0  0  0  0
 45 81  1  0  0  0  0
 45 90  2  0  0  0  0
 46 49  1  0  0  0  0
 47 60  1  0  0  0  0
 48 77  1  0  0  0  0
 49 52  1  0  0  0  0
 50 54  1  0  0  0  0
 50 55  1  0  0  0  0
 51 53  1  0  0  0  0
 51 57  1  0  0  0  0
 52 58  1  0  0  0  0
 53 59  1  0  0  0  0
 54 61  1  0  0  0  0
 55 78  1  0  0  0  0
 56 61  1  0  0  0  0
 56 78  1  0  0  0  0
 57 84  1  0  0  0  0
 58 82  1  0  0  0  0
 59 70  1  0  0  0  0
 60 77  1  0  0  0  0
 61 76  1  0  0  0  0
 63 72  1  0  0  0  0
 64 73  1  0  0  0  0
 65 73  1  0  0  0  0
 66 73  1  0  0  0  0
 67 75  1  0  0  0  0
 68 85  1  0  0  0  0
 69 84  1  0  0  0  0
 70 92  1  0  0  0  0
 71 73  1  0  0  0  0
 71 83  1  0  0  0  0
 72 85  1  0  0  0  0
 74 76  1  0  0  0  0
M  CHG  2  84   1  85   1
M  ISO  4  45 100  70 101  81 100  92 101
M  END
> <Batch ID>
0039

> <Smiles>
CN=CC=CC=CC=C1C([101CH2:1][101O:1]c2ccc3c(c2)CN(C(=O)C(NC(=O)C(C)NC)C(C)(C)C)C(C(=O)NC2CCCc4ccccc42)C3)CCCN1Cc1ccc(C)c([100NH:0][100C:0](=O)N2CCCC(n3nc(-c4ccc(Oc5ccc(F)cc5F)cc4)c(C(N)=O)c3N)C2)c1

> <Shape>
0.337

> <Color>
0.100

> <Negative vol penalty>
0.000

$$$$

  -OEChem-04042322043D

 84 92  0     1  0  0  0  0  0999 V2000
  -27.9804  -24.1148   17.7331 C   0  0  0  0  0  0  0  0  0  0  0  0
  -26.8261  -24.3816   18.4623 C   0  0  0  0  0  0  0  0  0  0  0  0
  -26.4319  -12.8572   19.6938 C   0  0  0  0  0  0  0  0  0  0  0  0
  -24.4116  -13.3965   20.9041 C   0  0  0  0  0  0  0  0  0  0  0  0
  -29.1871  -24.7105   18.0977 C   0  0  0  0  0  0  0  0  0  0  0  0
  -26.8781  -25.2434   19.5573 C   0  0  0  0  0  0  0  0  0  0  0  0
  -23.0382  -28.5444   19.6155 C   0  0  0  0  0  0  0  0  0  0  0  0
  -26.3274  -11.5302   20.1108 C   0  0  0  0  0  0  0  0  0  0  0  0
  -24.3072  -12.0695   21.3211 C   0  0  0  0  0  0  0  0  0  0  0  0
  -21.8009  -28.0742   20.0535 C   0  0  0  0  0  0  0  0  0  0  0  0
  -23.2754   -9.1257   20.0211 C   0  0  0  0  0  0  0  0  0  0  0  0
  -22.0216   -8.5198   19.9416 C   0  0  0  0  0  0  0  0  0  0  0  0
  -22.1979  -29.0631   22.2176 C   0  0  0  0  0  0  0  0  0  0  0  0
  -22.4851  -22.0487   24.7974 C   0  0  0  0  0  0  0  0  0  0  0  0
  -24.5535  -22.6346   23.0193 C   0  0  0  0  0  0  0  0  0  0  0  0
  -22.0535   -8.1406   22.3274 C   0  0  0  0  0  0  0  0  0  0  0  0
  -25.4740  -13.7903   20.0905 C   0  0  0  0  0  0  0  0  0  0  0  0
  -25.0357  -15.7322   18.4952 C   0  0  0  0  0  0  0  0  0  0  0  0
  -29.2520  -25.5875   19.1918 C   0  0  0  0  0  0  0  0  0  0  0  0
  -23.8708  -29.2694   20.4802 C   0  0  0  0  0  0  0  0  0  0  0  0
  -28.0871  -25.8503   19.9377 C   0  0  0  0  0  0  0  0  0  0  0  0
  -23.4442  -29.5436   21.7874 C   0  0  0  0  0  0  0  0  0  0  0  0
  -23.4801  -21.1032   24.5489 C   0  0  0  0  0  0  0  0  0  0  0  0
  -22.5243  -23.2871   24.1567 C   0  0  0  0  0  0  0  0  0  0  0  0
  -24.5143  -21.3962   23.6599 C   0  0  0  0  0  0  0  0  0  0  0  0
  -25.2651  -11.1364   20.9244 C   0  0  0  0  0  0  0  0  0  0  0  0
  -21.3818  -28.3311   21.3556 C   0  0  0  0  0  0  0  0  0  0  0  0
  -23.9183   -9.2390   21.2538 C   0  0  0  0  0  0  0  0  0  0  0  0
  -21.4106   -8.0272   21.0947 C   0  0  0  0  0  0  0  0  0  0  0  0
  -23.3073   -8.7465   22.4070 C   0  0  0  0  0  0  0  0  0  0  0  0
  -23.5585  -23.5801   23.2678 C   0  0  0  0  0  0  0  0  0  0  0  0
  -25.5816  -15.1613   19.6605 C   0  0  0  0  0  0  0  0  0  0  0  0
  -25.4177  -17.0504   18.5472 C   0  0  0  0  0  0  0  0  0  0  0  0
  -24.2530  -15.1251   17.4586 C   0  0  0  0  0  0  0  0  0  0  0  0
  -26.7768  -28.8278   21.6900 C   0  0  0  0  0  0  0  0  0  0  0  0
  -26.3257  -31.8244   22.8473 C   0  0  0  0  0  0  0  0  0  0  0  0
  -24.1368  -34.2701   23.7821 C   0  0  0  0  0  0  0  0  0  0  0  0
  -26.8590  -20.7086   23.0467 C   0  0  0  0  0  0  0  0  0  0  0  0
  -30.5887  -26.1706   19.5766 C   0  0  0  0  0  0  0  0  0  0  0  0
  -25.1909  -29.7926   19.9842 C   0  0  0  0  0  0  0  0  0  0  0  0
  -24.2919  -30.3347   22.7487 C   0  0  0  0  0  0  0  0  0  0  0  0
  -30.4830  -27.3645   20.5220 C   0  0  0  0  0  0  0  0  0  0  0  0
  -28.8904  -19.8787   20.2429 C   0  0  0  0  0  0  0  0  0  0  0  0
  -29.5090  -27.0626   21.6564 C   0  0  0  0  0  0  0  0  0  0  0  0
  -28.2193  -18.6303   19.6657 C   0  0  0  0  0  0  0  0  0  0  0  0
  -28.8311  -19.9002   21.7692 C   0  0  0  0  0  0  0  0  0  0  0  0
  -26.8183  -18.4797   21.7637 C   0  0  0  0  0  0  0  0  0  0  0  0
  -28.0981  -26.7989   21.1167 C   0  0  1  0  0  0  0  0  0  0  0  0
  -26.1809  -30.0788   21.1090 C   0  0  1  0  0  0  0  0  0  0  0  0
  -26.7957  -18.4454   20.2269 C   0  0  2  0  0  0  0  0  0  0  0  0
  -23.4118  -19.7838   25.2476 C   0  0  0  0  0  0  0  0  0  0  0  0
  -24.0654  -36.5951   24.7236 C   0  0  0  0  0  0  0  0  0  0  0  0
  -26.9974  -30.7228   25.6123 C   0  0  0  0  0  0  0  0  0  0  0  0
  -26.0027  -32.7957   26.6032 C   0  0  0  0  0  0  0  0  0  0  0  0
  -27.9945  -32.9608   25.1105 C   0  0  0  0  0  0  0  0  0  0  0  0
  -22.7603  -35.3239   21.3834 C   0  0  0  0  0  0  0  0  0  0  0  0
  -21.4351  -24.2763   24.4502 C   0  0  0  0  0  0  0  0  0  0  0  0
  -18.8134  -25.9448   22.2132 C   0  0  0  0  0  0  0  0  0  0  0  0
  -19.5347  -25.5936   23.5057 C   0  0  0  0  0  0  0  0  0  0  0  0
  -19.6912  -26.6659   21.1976 C   0  0  0  0  0  0  0  0  0  1  0  0
  -25.7394  -32.4053   24.1113 C   0  0  1  0  0  0  0  0  0  0  0  0
  -24.0838  -35.7521   23.4580 C   0  0  2  0  0  0  0  0  0  0  0  0
  -26.6681  -32.2045   25.3420 C   0  0  0  0  0  0  0  0  0  0  0  0
  -26.2591  -16.0446   20.3987 N   0  0  0  0  0  0  0  0  0  0  0  0
  -26.1414  -17.1838   19.6955 N   0  0  0  0  0  0  0  0  0  0  0  0
  -25.5770  -30.8193   22.2186 N   0  0  0  0  0  0  0  0  0  0  0  0
  -27.4516  -19.7239   22.2283 N   0  0  0  0  0  0  0  0  0  0  0  0
  -25.2020  -18.0969   17.7221 N   0  0  0  0  0  0  0  0  0  0  0  0
  -23.9512  -13.7603   17.5616 N   0  0  0  0  0  0  0  0  0  0  0  0
  -25.5336  -20.4486   23.3938 N   0  0  0  0  0  0  0  0  0  0  0  0
  -27.4484  -28.0449   20.7705 N   0  0  0  0  0  0  0  0  0  0  0  0
  -25.4328  -33.8005   23.8154 N   0  0  0  0  0  0  0  0  0  0  0  0
  -22.8606  -36.0659   22.6665 N   0  3  0  0  0  0  0  0  0  0  0  0
  -20.6592  -24.6659   23.2404 N   0  3  0  0  0  0  0  0  0  0  0  0
  -23.8476  -15.7700   16.4620 O   0  0  0  0  0  0  0  0  0  0  0  0
  -26.6388  -28.5911   22.8845 O   0  0  0  0  0  0  0  0  0  0  0  0
  -27.4046  -32.2518   22.4290 O   0  0  0  0  0  0  0  0  0  0  0  0
  -23.1294  -33.5970   23.9891 O   0  0  0  0  0  0  0  0  0  0  0  0
  -27.4726  -21.7221   23.3904 O   0  0  0  0  0  0  0  0  0  0  0  0
  -25.1628   -9.8416   21.3313 O   0  0  0  0  0  0  0  0  0  0  0  0
  -20.1749  -27.8727   21.7858 O   0  0  0  0  0  0  0  0  0  1  0  0
  -20.2059   -7.4467   21.0184 F   0  0  0  0  0  0  0  0  0  0  0  0
  -23.9195   -8.8535   23.5942 F   0  0  0  0  0  0  0  0  0  0  0  0
  -23.6396  -25.1017   22.4567 Cl  0  0  0  0  0  0  0  0  0  0  0  0
  1  2  1  0  0  0  0
  1  5  2  0  0  0  0
  2  6  2  0  0  0  0
  3  8  2  0  0  0  0
  3 17  1  0  0  0  0
  4  9  1  0  0  0  0
  4 17  2  0  0  0  0
  5 19  1  0  0  0  0
  6 21  1  0  0  0  0
  7 10  2  0  0  0  0
  7 20  1  0  0  0  0
  8 26  1  0  0  0  0
  9 26  2  0  0  0  0
 10 27  1  0  0  0  0
 11 12  2  0  0  0  0
 11 28  1  0  0  0  0
 12 29  1  0  0  0  0
 13 22  1  0  0  0  0
 13 27  2  0  0  0  0
 14 23  2  0  0  0  0
 14 24  1  0  0  0  0
 15 25  2  0  0  0  0
 15 31  1  0  0  0  0
 16 29  2  0  0  0  0
 16 30  1  0  0  0  0
 17 32  1  0  0  0  0
 18 32  1  0  0  0  0
 18 33  2  0  0  0  0
 18 34  1  0  0  0  0
 19 21  2  0  0  0  0
 19 39  1  0  0  0  0
 20 22  2  0  0  0  0
 20 40  1  0  0  0  0
 21 48  1  0  0  0  0
 22 41  1  0  0  0  0
 23 25  1  0  0  0  0
 23 51  1  0  0  0  0
 24 31  2  0  0  0  0
 24 57  1  0  0  0  0
 25 70  1  0  0  0  0
 26 80  1  0  0  0  0
 27 81  1  0  0  0  0
 28 30  2  0  0  0  0
 28 80  1  0  0  0  0
 29 82  1  0  0  0  0
 30 83  1  0  0  0  0
 31 84  1  0  0  0  0
 32 64  2  0  0  0  0
 33 65  1  0  0  0  0
 33 68  1  0  0  0  0
 34 69  1  0  0  0  0
 34 75  2  0  0  0  0
 35 49  1  0  0  0  0
 35 71  1  0  0  0  0
 35 76  2  0  0  0  0
 36 61  1  0  0  0  0
 36 66  1  0  0  0  0
 36 77  2  0  0  0  0
 37 62  1  0  0  0  0
 37 72  1  0  0  0  0
 37 78  2  0  0  0  0
 38 67  1  0  0  0  0
 38 70  1  0  0  0  0
 38 79  2  0  0  0  0
 39 42  1  0  0  0  0
 40 49  1  0  0  0  0
 41 66  1  0  0  0  0
 42 44  1  0  0  0  0
 43 45  1  0  0  0  0
 43 46  1  0  0  0  0
 44 48  1  0  0  0  0
 45 50  1  0  0  0  0
 46 67  1  0  0  0  0
 47 50  1  0  0  0  0
 47 67  1  0  0  0  0
 48 71  1  0  0  0  0
 49 66  1  0  0  0  0
 50 65  1  0  0  0  0
 52 62  1  0  0  0  0
 53 63  1  0  0  0  0
 54 63  1  0  0  0  0
 55 63  1  0  0  0  0
 56 73  1  0  0  0  0
 57 74  1  0  0  0  0
 58 59  1  0  0  0  0
 58 60  1  0  0  0  0
 59 74  1  0  0  0  0
 60 81  1  0  0  0  0
 61 63  1  0  0  0  0
 61 72  1  0  0  0  0
 62 73  1  0  0  0  0
 64 65  1  0  0  0  0
M  CHG  2  73   1  74   1
M  ISO  4  38 100  60 101  70 100  81 101
M  END
> <Batch ID>
0039

> <Smiles>
CNC(C)C(=O)NC(C(=O)N1Cc2cc([101O:1][101CH2:1]CCNCc3cc(C)c([100NH:0][100C:0](=O)N4CCCC(n5nc(-c6ccc(Oc7ccc(F)cc7F)cc6)c(C(N)=O)c5N)C4)cc3Cl)ccc2CC1C(=O)NC1CCCc2ccccc21)C(C)(C)C

> <Shape>
0.309

> <Color>
0.076

> <Negative vol penalty>
0.000

$$$$

  -OEChem-04042322043D

 84 92  0     1  0  0  0  0  0999 V2000
  -29.2469  -20.4878   14.2868 C   0  0  0  0  0  0  0  0  0  0  0  0
  -28.8363  -20.6274   15.6087 C   0  0  0  0  0  0  0  0  0  0  0  0
  -23.0968   -9.8997   19.8752 C   0  0  0  0  0  0  0  0  0  0  0  0
  -23.8813   -9.8103   22.1585 C   0  0  0  0  0  0  0  0  0  0  0  0
  -30.2773  -21.2852   13.7903 C   0  0  0  0  0  0  0  0  0  0  0  0
  -29.4565  -21.5637   16.4352 C   0  0  0  0  0  0  0  0  0  0  0  0
  -26.1399  -24.2363   19.1742 C   0  0  0  0  0  0  0  0  0  0  0  0
  -22.3744   -8.7238   20.0773 C   0  0  0  0  0  0  0  0  0  0  0  0
  -23.1588   -8.6344   22.3607 C   0  0  0  0  0  0  0  0  0  0  0  0
  -25.5956  -23.6158   20.2977 C   0  0  0  0  0  0  0  0  0  0  0  0
  -19.4552   -7.8103   21.5186 C   0  0  0  0  0  0  0  0  0  0  0  0
  -18.1441   -7.7655   21.0448 C   0  0  0  0  0  0  0  0  0  0  0  0
  -27.1533  -24.8070   21.7027 C   0  0  0  0  0  0  0  0  0  0  0  0
  -30.4906  -19.9377   21.7933 C   0  0  0  0  0  0  0  0  0  0  0  0
  -31.0566  -17.8030   20.8138 C   0  0  0  0  0  0  0  0  0  0  0  0
  -18.7206   -5.8970   19.6259 C   0  0  0  0  0  0  0  0  0  0  0  0
  -23.8504  -10.4429   20.9157 C   0  0  0  0  0  0  0  0  0  0  0  0
  -24.1502  -12.9763   20.9127 C   0  0  0  0  0  0  0  0  0  0  0  0
  -30.9040  -22.2384   14.6084 C   0  0  0  0  0  0  0  0  0  0  0  0
  -27.2041  -25.1401   19.3056 C   0  0  0  0  0  0  0  0  0  0  0  0
  -30.4972  -22.3736   15.9495 C   0  0  0  0  0  0  0  0  0  0  0  0
  -27.7076  -25.4396   20.5795 C   0  0  0  0  0  0  0  0  0  0  0  0
  -31.2164  -19.1876   20.8680 C   0  0  0  0  0  0  0  0  0  0  0  0
  -29.6051  -19.3032   22.6645 C   0  0  0  0  0  0  0  0  0  0  0  0
  -29.4453  -17.9186   22.6103 C   0  0  0  0  0  0  0  0  0  0  0  0
  -30.1710  -17.1685   21.6849 C   0  0  0  0  0  0  0  0  0  0  0  0
  -22.4053   -8.0912   21.3201 C   0  0  0  0  0  0  0  0  0  0  0  0
  -26.1042  -23.8989   21.5620 C   0  0  0  0  0  0  0  0  0  0  0  0
  -20.3991   -6.8985   21.0460 C   0  0  0  0  0  0  0  0  0  0  0  0
  -17.7768   -6.8088   20.0986 C   0  0  0  0  0  0  0  0  0  0  0  0
  -20.0318   -5.9418   20.0997 C   0  0  0  0  0  0  0  0  0  0  0  0
  -24.5973  -11.6573   20.7073 C   0  0  0  0  0  0  0  0  0  0  0  0
  -25.2261  -13.7602   20.5746 C   0  0  0  0  0  0  0  0  0  0  0  0
  -22.8762  -13.4505   21.3685 C   0  0  0  0  0  0  0  0  0  0  0  0
  -30.2075  -25.2350   18.2693 C   0  0  0  0  0  0  0  0  0  0  0  0
  -30.1539  -28.2033   19.5764 C   0  0  0  0  0  0  0  0  0  0  0  0
  -28.7662  -30.3477   21.8397 C   0  0  0  0  0  0  0  0  0  0  0  0
  -30.6763  -14.8869   20.7440 C   0  0  0  0  0  0  0  0  0  0  0  0
  -32.0452  -23.0446   14.0405 C   0  0  0  0  0  0  0  0  0  0  0  0
  -27.7624  -25.8213   18.0863 C   0  0  0  0  0  0  0  0  0  0  0  0
  -28.8358  -26.4178   20.7764 C   0  0  0  0  0  0  0  0  0  0  0  0
  -32.3973  -24.2734   14.8749 C   0  0  0  0  0  0  0  0  0  0  0  0
  -29.5754  -12.5700   18.2747 C   0  0  0  0  0  0  0  0  0  0  0  0
  -32.4781  -23.9091   16.3540 C   0  0  0  0  0  0  0  0  0  0  0  0
  -28.1453  -12.2345   18.7044 C   0  0  0  0  0  0  0  0  0  0  0  0
  -30.4996  -12.7567   19.4767 C   0  0  0  0  0  0  0  0  0  0  0  0
  -28.5963  -13.3830   20.9100 C   0  0  0  0  0  0  0  0  0  0  0  0
  -31.1287  -23.3953   16.8701 C   0  0  1  0  0  0  0  0  0  0  0  0
  -29.1846  -26.3354   18.2877 C   0  0  1  0  0  0  0  0  0  0  0  0
  -27.6137  -13.2498   19.7351 C   0  0  2  0  0  0  0  0  0  0  0  0
  -32.1642  -19.8658   19.9375 C   0  0  0  0  0  0  0  0  0  0  0  0
  -28.4946  -17.2426   23.5479 C   0  0  0  0  0  0  0  0  0  0  0  0
  -28.9579  -32.6964   22.7023 C   0  0  0  0  0  0  0  0  0  0  0  0
  -32.6474  -27.4191   21.1503 C   0  0  0  0  0  0  0  0  0  0  0  0
  -32.2342  -29.3821   22.6484 C   0  0  0  0  0  0  0  0  0  0  0  0
  -32.6872  -29.7408   20.2217 C   0  0  0  0  0  0  0  0  0  0  0  0
  -26.0040  -31.0038   21.0037 C   0  0  0  0  0  0  0  0  0  0  0  0
  -28.8383  -20.1333   23.6514 C   0  0  0  0  0  0  0  0  0  0  0  0
  -25.1684  -21.2171   23.7888 C   0  0  0  0  0  0  0  0  0  0  0  0
  -26.6068  -21.0740   24.2631 C   0  0  0  0  0  0  0  0  0  0  0  0
  -25.0275  -21.9885   22.4823 C   0  0  0  0  0  0  0  0  0  1  0  0
  -30.4621  -28.7776   20.9381 C   0  0  1  0  0  0  0  0  0  0  0  0
  -28.2739  -31.7771   21.7024 C   0  0  2  0  0  0  0  0  0  0  0  0
  -31.9877  -28.8100   21.2361 C   0  0  0  0  0  0  0  0  0  0  0  0
  -25.8590  -11.6024   20.2722 N   0  0  0  0  0  0  0  0  0  0  0  0
  -26.2137  -12.8967   20.2014 N   0  0  0  0  0  0  0  0  0  0  0  0
  -29.3523  -27.0532   19.5529 N   0  0  0  0  0  0  0  0  0  0  0  0
  -29.9337  -13.7353   20.4077 N   0  0  0  0  0  0  0  0  0  0  0  0
  -25.4143  -15.0969   20.5630 N   0  0  0  0  0  0  0  0  0  0  0  0
  -21.8827  -12.5096   21.6722 N   0  0  0  0  0  0  0  0  0  0  0  0
  -30.0231  -15.7611   21.6120 N   0  0  0  0  0  0  0  0  0  0  0  0
  -30.2217  -24.4994   17.0996 N   0  0  0  0  0  0  0  0  0  0  0  0
  -29.8161  -30.0848   20.9855 N   0  0  0  0  0  0  0  0  0  0  0  0
  -26.8031  -31.8429   21.9334 N   0  3  0  0  0  0  0  0  0  0  0  0
  -27.4081  -20.3119   23.2769 N   0  3  0  0  0  0  0  0  0  0  0  0
  -22.6208  -14.6729   21.4868 O   0  0  0  0  0  0  0  0  0  0  0  0
  -30.9314  -25.0667   19.2437 O   0  0  0  0  0  0  0  0  0  0  0  0
  -30.6017  -28.7589   18.5702 O   0  0  0  0  0  0  0  0  0  0  0  0
  -28.2714  -29.5457   22.6287 O   0  0  0  0  0  0  0  0  0  0  0  0
  -31.7974  -15.0963   20.2736 O   0  0  0  0  0  0  0  0  0  0  0  0
  -21.7003   -6.9438   21.5179 O   0  0  0  0  0  0  0  0  0  0  0  0
  -25.5752  -23.2942   22.6603 O   0  0  0  0  0  0  0  0  0  1  0  0
  -16.5172   -6.7649   19.6449 F   0  0  0  0  0  0  0  0  0  0  0  0
  -20.9339   -5.0625   19.6428 F   0  0  0  0  0  0  0  0  0  0  0  0
  1  2  1  0  0  0  0
  1  5  2  0  0  0  0
  2  6  2  0  0  0  0
  3  8  2  0  0  0  0
  3 17  1  0  0  0  0
  4  9  1  0  0  0  0
  4 17  2  0  0  0  0
  5 19  1  0  0  0  0
  6 21  1  0  0  0  0
  7 10  2  0  0  0  0
  7 20  1  0  0  0  0
  8 27  1  0  0  0  0
  9 27  2  0  0  0  0
 10 28  1  0  0  0  0
 11 12  2  0  0  0  0
 11 29  1  0  0  0  0
 12 30  1  0  0  0  0
 13 22  1  0  0  0  0
 13 28  2  0  0  0  0
 14 23  2  0  0  0  0
 14 24  1  0  0  0  0
 15 23  1  0  0  0  0
 15 26  2  0  0  0  0
 16 30  2  0  0  0  0
 16 31  1  0  0  0  0
 17 32  1  0  0  0  0
 18 32  1  0  0  0  0
 18 33  2  0  0  0  0
 18 34  1  0  0  0  0
 19 21  2  0  0  0  0
 19 39  1  0  0  0  0
 20 22  2  0  0  0  0
 20 40  1  0  0  0  0
 21 48  1  0  0  0  0
 22 41  1  0  0  0  0
 23 51  1  0  0  0  0
 24 25  2  0  0  0  0
 24 58  1  0  0  0  0
 25 26  1  0  0  0  0
 25 52  1  0  0  0  0
 26 71  1  0  0  0  0
 27 81  1  0  0  0  0
 28 82  1  0  0  0  0
 29 31  2  0  0  0  0
 29 81  1  0  0  0  0
 30 83  1  0  0  0  0
 31 84  1  0  0  0  0
 32 65  2  0  0  0  0
 33 66  1  0  0  0  0
 33 69  1  0  0  0  0
 34 70  1  0  0  0  0
 34 76  2  0  0  0  0
 35 49  1  0  0  0  0
 35 72  1  0  0  0  0
 35 77  2  0  0  0  0
 36 62  1  0  0  0  0
 36 67  1  0  0  0  0
 36 78  2  0  0  0  0
 37 63  1  0  0  0  0
 37 73  1  0  0  0  0
 37 79  2  0  0  0  0
 38 68  1  0  0  0  0
 38 71  1  0  0  0  0
 38 80  2  0  0  0  0
 39 42  1  0  0  0  0
 40 49  1  0  0  0  0
 41 67  1  0  0  0  0
 42 44  1  0  0  0  0
 43 45  1  0  0  0  0
 43 46  1  0  0  0  0
 44 48  1  0  0  0  0
 45 50  1  0  0  0  0
 46 68  1  0  0  0  0
 47 50  1  0  0  0  0
 47 68  1  0  0  0  0
 48 72  1  0  0  0  0
 49 67  1  0  0  0  0
 50 66  1  0  0  0  0
 53 63  1  0  0  0  0
 54 64  1  0  0  0  0
 55 64  1  0  0  0  0
 56 64  1  0  0  0  0
 57 74  1  0  0  0  0
 58 75  1  0  0  0  0
 59 60  1  0  0  0  0
 59 61  1  0  0  0  0
 60 75  1  0  0  0  0
 61 82  1  0  0  0  0
 62 64  1  0  0  0  0
 62 73  1  0  0  0  0
 63 74  1  0  0  0  0
 65 66  1  0  0  0  0
M  CHG  2  74   1  75   1
M  ISO  4  38 100  61 101  71 100  82 101
M  END
> <Batch ID>
0039

> <Smiles>
CNC(C)C(=O)NC(C(=O)N1Cc2cc([101O:1][101CH2:1]CCNCc3cc(C)cc([100NH:0][100C:0](=O)N4CCCC(n5nc(-c6ccc(Oc7ccc(F)cc7F)cc6)c(C(N)=O)c5N)C4)c3C)ccc2CC1C(=O)NC1CCCc2ccccc21)C(C)(C)C

> <Shape>
0.240

> <Color>
0.209

> <Negative vol penalty>
0.000

$$$$

  -OEChem-04042322043D

 89 98  0     1  0  0  0  0  0999 V2000
  -26.3738  -23.1609   15.3588 C   0  0  0  0  0  0  0  0  0  0  0  0
  -25.4772  -23.7418   16.2499 C   0  0  0  0  0  0  0  0  0  0  0  0
  -26.7412  -13.0176   20.2132 C   0  0  0  0  0  0  0  0  0  0  0  0
  -24.3841  -13.5239   20.0551 C   0  0  0  0  0  0  0  0  0  0  0  0
  -27.7242  -23.0664   15.6927 C   0  0  0  0  0  0  0  0  0  0  0  0
  -25.9303  -24.2275   17.4759 C   0  0  0  0  0  0  0  0  0  0  0  0
  -24.0140  -28.7808   18.5897 C   0  0  0  0  0  0  0  0  0  0  0  0
  -26.4520  -11.9274   21.0338 C   0  0  0  0  0  0  0  0  0  0  0  0
  -24.0949  -12.4337   20.8757 C   0  0  0  0  0  0  0  0  0  0  0  0
  -22.7043  -28.8212   19.0659 C   0  0  0  0  0  0  0  0  0  0  0  0
  -22.7093   -9.5699   22.6355 C   0  0  0  0  0  0  0  0  0  0  0  0
  -21.6593   -8.7332   22.2574 C   0  0  0  0  0  0  0  0  0  0  0  0
  -23.5368  -29.0299   21.3204 C   0  0  0  0  0  0  0  0  0  0  0  0
  -19.7735  -22.2459   18.9475 C   0  0  0  0  0  0  0  0  0  0  0  0
  -22.7993   -8.2388   20.1854 C   0  0  0  0  0  0  0  0  0  0  0  0
  -25.7073  -13.8159   19.7239 C   0  0  0  0  0  0  0  0  0  0  0  0
  -26.6589  -14.9193   17.6299 C   0  0  0  0  0  0  0  0  0  0  0  0
  -28.1957  -23.5600   16.9194 C   0  0  0  0  0  0  0  0  0  0  0  0
  -25.0968  -28.8538   19.4778 C   0  0  0  0  0  0  0  0  0  0  0  0
  -27.2880  -24.1383   17.8271 C   0  0  0  0  0  0  0  0  0  0  0  0
  -24.8593  -28.9928   20.8527 C   0  0  0  0  0  0  0  0  0  0  0  0
  -20.8973  -23.0525   19.1267 C   0  0  0  0  0  0  0  0  0  0  0  0
  -18.7828  -23.1830   20.9419 C   0  0  0  0  0  0  0  0  0  0  0  0
  -19.9066  -23.9896   21.1211 C   0  0  0  0  0  0  0  0  0  0  0  0
  -25.1289  -11.6355   21.3651 C   0  0  0  0  0  0  0  0  0  0  0  0
  -22.4655  -28.9429   20.4316 C   0  0  0  0  0  0  0  0  0  0  0  0
  -23.8043   -9.7411   21.7885 C   0  0  0  0  0  0  0  0  0  0  0  0
  -21.7043   -8.0676   21.0324 C   0  0  0  0  0  0  0  0  0  0  0  0
  -23.8493   -9.0756   20.5635 C   0  0  0  0  0  0  0  0  0  0  0  0
  -18.7162  -22.3112   19.8551 C   0  0  0  0  0  0  0  0  0  0  0  0
  -20.9639  -23.9243   20.2135 C   0  0  0  0  0  0  0  0  0  0  0  0
  -26.0054  -14.9426   18.8766 C   0  0  0  0  0  0  0  0  0  0  0  0
  -26.6957  -16.2348   17.2369 C   0  0  0  0  0  0  0  0  0  0  0  0
  -18.7791  -26.7211   23.4084 C   0  0  0  0  0  0  0  0  0  0  0  0
  -17.5532  -26.5123   23.9118 C   0  0  0  0  0  0  0  0  0  0  0  0
  -27.1854  -13.8078   16.8929 C   0  0  0  0  0  0  0  0  0  0  0  0
  -27.4996  -26.9210   20.2489 C   0  0  0  0  0  0  0  0  0  0  0  0
  -28.4769  -29.4722   21.9977 C   0  0  0  0  0  0  0  0  0  0  0  0
  -26.9430  -31.9491   24.1259 C   0  0  0  0  0  0  0  0  0  0  0  0
  -23.2263  -20.8292   18.5449 C   0  0  0  0  0  0  0  0  0  0  0  0
  -29.6563  -23.3927   17.2560 C   0  0  0  0  0  0  0  0  0  0  0  0
  -26.5036  -28.8357   18.9458 C   0  0  0  0  0  0  0  0  0  0  0  0
  -25.9869  -29.0953   21.8459 C   0  0  0  0  0  0  0  0  0  0  0  0
  -19.8175  -27.5619   24.1001 C   0  0  0  0  0  0  0  0  0  0  0  0
  -30.1182  -24.2699   18.4168 C   0  0  0  0  0  0  0  0  0  0  0  0
  -20.3869  -28.5983   23.1389 C   0  0  0  0  0  0  0  0  0  0  0  0
  -26.8105  -20.6744   19.0213 C   0  0  0  0  0  0  0  0  0  0  0  0
  -29.1288  -24.1872   19.5749 C   0  0  0  0  0  0  0  0  0  0  0  0
  -27.0665  -19.1698   18.9173 C   0  0  0  0  0  0  0  0  0  0  0  0
  -25.4954  -20.9631   19.7391 C   0  0  0  0  0  0  0  0  0  0  0  0
  -24.5589  -18.7966   19.0298 C   0  0  0  0  0  0  0  0  0  0  0  0
  -19.6470  -27.1772   21.1902 C   0  0  0  0  0  0  0  0  0  0  0  0
  -27.7453  -24.6992   19.1562 C   0  0  1  0  0  0  0  0  0  0  0  0
  -27.5304  -28.4002   19.9866 C   0  0  1  0  0  0  0  0  0  0  0  0
  -25.8629  -18.4385   18.2939 C   0  0  2  0  0  0  0  0  0  0  0  0
  -20.8003  -27.9596   21.8131 C   0  0  1  0  0  0  0  0  0  1  0  0
  -17.6534  -23.2630   21.9220 C   0  0  0  0  0  0  0  0  0  0  0  0
  -27.6551  -34.2909   24.6796 C   0  0  0  0  0  0  0  0  0  0  0  0
  -29.8158  -28.1836   24.4177 C   0  0  0  0  0  0  0  0  0  0  0  0
  -29.1263  -30.1737   25.7714 C   0  0  0  0  0  0  0  0  0  0  0  0
  -30.6765  -30.4590   23.8379 C   0  0  0  0  0  0  0  0  0  0  0  0
  -24.3460  -33.0689   23.2539 C   0  0  0  0  0  0  0  0  0  0  0  0
  -22.0059  -22.9492   18.1286 C   0  0  0  0  0  0  0  0  0  0  0  0
  -19.9622  -24.9216   22.2956 C   0  0  0  0  0  0  0  0  0  0  0  0
  -28.2362  -29.9580   23.4066 C   0  0  1  0  0  0  0  0  0  0  0  0
  -26.7540  -33.4229   23.8151 C   0  0  2  0  0  0  0  0  0  0  0  0
  -29.4443  -29.6781   24.3445 C   0  0  0  0  0  0  0  0  0  0  0  0
  -25.6526  -16.1752   19.2509 N   0  0  0  0  0  0  0  0  0  0  0  0
  -26.0861  -16.9387   18.2334 N   0  0  0  0  0  0  0  0  0  0  0  0
  -27.3446  -29.0666   21.2772 N   0  0  0  0  0  0  0  0  0  0  0  0
  -24.3876  -20.2522   19.0852 N   0  0  0  0  0  0  0  0  0  0  0  0
  -27.1897  -16.8466   16.1396 N   0  0  0  0  0  0  0  0  0  0  0  0
  -26.3454  -13.1512   15.9832 N   0  0  0  0  0  0  0  0  0  0  0  0
  -27.7290  -26.1460   19.1280 N   0  0  0  0  0  0  0  0  0  0  0  0
  -27.8791  -31.3683   23.2968 N   0  0  0  0  0  0  0  0  0  0  0  0
  -23.1383  -22.2124   18.6440 N   0  0  0  0  0  0  0  0  0  0  0  0
  -19.0890  -26.1341   22.1273 N   0  3  1  0  0  0  0  0  0  0  0  0
  -25.3399  -33.8262   24.0574 N   0  3  0  0  0  0  0  0  0  0  0  0
  -28.3609  -13.3985   17.0489 O   0  0  0  0  0  0  0  0  0  0  0  0
  -27.2851  -26.5130   21.3843 O   0  0  0  0  0  0  0  0  0  0  0  0
  -29.6264  -29.4602   21.5503 O   0  0  0  0  0  0  0  0  0  0  0  0
  -26.3250  -31.3719   25.0178 O   0  0  0  0  0  0  0  0  0  0  0  0
  -22.3356  -20.1614   18.0085 O   0  0  0  0  0  0  0  0  0  0  0  0
  -24.8463  -10.5716   22.1656 O   0  0  0  0  0  0  0  0  0  0  0  0
  -21.1881  -28.9820   20.8992 O   0  0  0  0  0  0  0  0  0  1  0  0
  -20.6966   -7.2629   20.6701 F   0  0  0  0  0  0  0  0  0  0  0  0
  -24.8992   -9.2352   19.7461 F   0  0  0  0  0  0  0  0  0  0  0  0
  -17.3425  -21.2977   19.5959 Cl  0  0  0  0  0  0  0  0  0  0  0  0
  -22.3621  -24.9237   20.4330 Cl  0  0  0  0  0  0  0  0  0  0  0  0
  1  2  1  0  0  0  0
  1  5  2  0  0  0  0
  2  6  2  0  0  0  0
  3  8  2  0  0  0  0
  3 16  1  0  0  0  0
  4  9  1  0  0  0  0
  4 16  2  0  0  0  0
  5 18  1  0  0  0  0
  6 20  1  0  0  0  0
  7 10  2  0  0  0  0
  7 19  1  0  0  0  0
  8 25  1  0  0  0  0
  9 25  2  0  0  0  0
 10 26  1  0  0  0  0
 11 12  2  0  0  0  0
 11 27  1  0  0  0  0
 12 28  1  0  0  0  0
 13 21  1  0  0  0  0
 13 26  2  0  0  0  0
 14 22  2  0  0  0  0
 14 30  1  0  0  0  0
 15 28  2  0  0  0  0
 15 29  1  0  0  0  0
 16 32  1  0  0  0  0
 17 32  1  0  0  0  0
 17 33  2  0  0  0  0
 17 36  1  0  0  0  0
 18 20  2  0  0  0  0
 18 41  1  0  0  0  0
 19 21  2  0  0  0  0
 19 42  1  0  0  0  0
 20 53  1  0  0  0  0
 21 43  1  0  0  0  0
 22 31  1  0  0  0  0
 22 63  1  0  0  0  0
 23 24  1  0  0  0  0
 23 30  2  0  0  0  0
 23 57  1  0  0  0  0
 24 31  2  0  0  0  0
 24 64  1  0  0  0  0
 25 84  1  0  0  0  0
 26 85  1  0  0  0  0
 27 29  2  0  0  0  0
 27 84  1  0  0  0  0
 28 86  1  0  0  0  0
 29 87  1  0  0  0  0
 30 88  1  0  0  0  0
 31 89  1  0  0  0  0
 32 68  2  0  0  0  0
 33 69  1  0  0  0  0
 33 72  1  0  0  0  0
 34 35  2  0  0  0  0
 34 44  1  0  0  0  0
 34 77  1  0  0  0  0
 36 73  1  0  0  0  0
 36 79  2  0  0  0  0
 37 54  1  0  0  0  0
 37 74  1  0  0  0  0
 37 80  2  0  0  0  0
 38 65  1  0  0  0  0
 38 70  1  0  0  0  0
 38 81  2  0  0  0  0
 39 66  1  0  0  0  0
 39 75  1  0  0  0  0
 39 82  2  0  0  0  0
 40 71  1  0  0  0  0
 40 76  1  0  0  0  0
 40 83  2  0  0  0  0
 41 45  1  0  0  0  0
 42 54  1  0  0  0  0
 43 70  1  0  0  0  0
 44 46  1  0  0  0  0
 45 48  1  0  0  0  0
 46 56  1  0  0  0  0
 47 49  1  0  0  0  0
 47 50  1  0  0  0  0
 48 53  1  0  0  0  0
 49 55  1  0  0  0  0
 50 71  1  0  0  0  0
 51 55  1  0  0  0  0
 51 71  1  0  0  0  0
 52 56  1  0  0  0  0
 52 77  1  0  0  0  0
 53 74  1  0  0  0  0
 54 70  1  0  0  0  0
 55 69  1  0  0  0  0
 56 85  1  0  0  0  0
 58 66  1  0  0  0  0
 59 67  1  0  0  0  0
 60 67  1  0  0  0  0
 61 67  1  0  0  0  0
 62 78  1  0  0  0  0
 63 76  1  0  0  0  0
 64 77  1  0  0  0  0
 65 67  1  0  0  0  0
 65 75  1  0  0  0  0
 66 78  1  0  0  0  0
 68 69  1  0  0  0  0
M  CHG  2  77   1  78   1
M  ISO  4  40 100  56 101  76 100  85 101
M  END
> <Batch ID>
0039

> <Smiles>
C=C1CC[101CH:1]([101O:1]c2ccc3c(c2)CN(C(=O)C(NC(=O)C(C)NC)C(C)(C)C)C(C(=O)NC2CCCc4ccccc42)C3)CN1Cc1c(C)c(Cl)cc(C[100NH:0][100C:0](=O)N2CCCC(n3nc(-c4ccc(Oc5ccc(F)cc5F)cc4)c(C(N)=O)c3N)C2)c1Cl

> <Shape>
0.245

> <Color>
0.079

> <Negative vol penalty>
0.000

$$$$

  -OEChem-04042322043D

 90 99  0     1  0  0  0  0  0999 V2000
  -22.8554  -14.3616   24.7000 C   0  0  0  0  0  0  0  0  0  0  0  0
  -23.6466  -15.3775   24.1735 C   0  0  0  0  0  0  0  0  0  0  0  0
  -25.9674  -13.7869   19.0700 C   0  0  0  0  0  0  0  0  0  0  0  0
  -25.8190  -13.5315   21.4679 C   0  0  0  0  0  0  0  0  0  0  0  0
  -21.4879  -14.3335   24.4297 C   0  0  0  0  0  0  0  0  0  0  0  0
  -23.0709  -16.3654   23.3753 C   0  0  0  0  0  0  0  0  0  0  0  0
  -24.6781  -22.2681   23.0902 C   0  0  0  0  0  0  0  0  0  0  0  0
  -24.8627  -12.9501   18.9125 C   0  0  0  0  0  0  0  0  0  0  0  0
  -24.7142  -12.6946   21.3104 C   0  0  0  0  0  0  0  0  0  0  0  0
  -25.4761  -22.9808   22.1964 C   0  0  0  0  0  0  0  0  0  0  0  0
  -24.1301   -9.4697   20.4801 C   0  0  0  0  0  0  0  0  0  0  0  0
  -24.0945   -8.2951   21.2315 C   0  0  0  0  0  0  0  0  0  0  0  0
  -23.5046  -23.6466   20.9762 C   0  0  0  0  0  0  0  0  0  0  0  0
  -22.0418   -9.0253   22.2757 C   0  0  0  0  0  0  0  0  0  0  0  0
  -30.5165  -25.2229   18.1849 C   0  0  0  0  0  0  0  0  0  0  0  0
  -26.4456  -14.0776   20.3478 C   0  0  0  0  0  0  0  0  0  0  0  0
  -28.8852  -14.7399   20.0053 C   0  0  0  0  0  0  0  0  0  0  0  0
  -20.8934  -15.3269   23.6358 C   0  0  0  0  0  0  0  0  0  0  0  0
  -23.2858  -22.2303   22.9271 C   0  0  0  0  0  0  0  0  0  0  0  0
  -21.6944  -16.3498   23.0931 C   0  0  0  0  0  0  0  0  0  0  0  0
  -22.6908  -22.9348   21.8708 C   0  0  0  0  0  0  0  0  0  0  0  0
  -30.6524  -24.4003   20.4524 C   0  0  0  0  0  0  0  0  0  0  0  0
  -29.2659  -26.3119   19.9420 C   0  0  0  0  0  0  0  0  0  0  0  0
  -24.2361  -12.4039   20.0326 C   0  0  0  0  0  0  0  0  0  0  0  0
  -24.8897  -23.6678   21.1375 C   0  0  0  0  0  0  0  0  0  0  0  0
  -23.1216  -10.4222   20.6265 C   0  0  0  0  0  0  0  0  0  0  0  0
  -23.0503   -8.0729   22.1293 C   0  0  0  0  0  0  0  0  0  0  0  0
  -22.0774  -10.2000   21.5243 C   0  0  0  0  0  0  0  0  0  0  0  0
  -31.0240  -24.3116   19.1108 C   0  0  0  0  0  0  0  0  0  0  0  0
  -29.6375  -26.2232   18.6004 C   0  0  0  0  0  0  0  0  0  0  0  0
  -29.7734  -25.4005   20.8679 C   0  0  0  0  0  0  0  0  0  0  0  0
  -27.5871  -14.9416   20.5112 C   0  0  0  0  0  0  0  0  0  0  0  0
  -29.5945  -15.8355   20.4330 C   0  0  0  0  0  0  0  0  0  0  0  0
  -29.4036  -13.6588   19.2190 C   0  0  0  0  0  0  0  0  0  0  0  0
  -21.1517  -19.9365   22.3902 C   0  0  0  0  0  0  0  0  0  0  0  0
  -19.0281  -22.3531   22.8059 C   0  0  0  0  0  0  0  0  0  0  0  0
  -18.4021  -25.7068   22.7194 C   0  0  0  0  0  0  0  0  0  0  0  0
  -30.0427  -21.2489   21.0973 C   0  0  0  0  0  0  0  0  0  0  0  0
  -19.4194  -15.2281   23.3323 C   0  0  0  0  0  0  0  0  0  0  0  0
  -22.4366  -21.4789   23.9154 C   0  0  0  0  0  0  0  0  0  0  0  0
  -21.1990  -22.9425   21.6635 C   0  0  0  0  0  0  0  0  0  0  0  0
  -18.8220  -16.5222   22.7858 C   0  0  0  0  0  0  0  0  0  0  0  0
  -24.8693  -28.7098   19.6349 C   0  0  0  0  0  0  0  0  0  0  0  0
  -28.3875  -19.4467   23.7637 C   0  0  0  0  0  0  0  0  0  0  0  0
  -19.7145  -17.1026   21.6934 C   0  0  0  0  0  0  0  0  0  0  0  0
  -28.1392  -18.0887   23.1046 C   0  0  0  0  0  0  0  0  0  0  0  0
  -25.6305  -29.0119   20.9205 C   0  0  0  0  0  0  0  0  0  0  0  0
  -25.6723  -27.8139   18.6986 C   0  0  0  0  0  0  0  0  0  0  0  0
  -28.2069  -20.5868   22.7659 C   0  0  0  0  0  0  0  0  0  0  0  0
  -28.8004  -19.1154   20.8800 C   0  0  0  0  0  0  0  0  0  0  0  0
  -21.1024  -17.4532   22.2433 C   0  0  1  0  0  0  0  0  0  0  0  0
  -21.0733  -21.0860   23.3547 C   0  0  1  0  0  0  0  0  0  0  0  0
  -28.9895  -17.9200   21.8315 C   0  0  2  0  0  0  0  0  0  0  0  0
  -26.0976  -27.7345   21.6176 C   0  0  2  0  0  0  0  0  0  0  0  0
  -26.1863  -26.5363   19.3675 C   0  0  2  0  0  0  0  0  0  0  0  0
  -26.8622  -28.0197   22.9061 C   0  0  0  0  0  0  0  0  0  0  0  0
  -16.5627  -27.3771   23.0719 C   0  0  0  0  0  0  0  0  0  0  0  0
  -17.8193  -21.5870   20.1111 C   0  0  0  0  0  0  0  0  0  0  0  0
  -16.6630  -23.8074   20.0771 C   0  0  0  0  0  0  0  0  0  0  0  0
  -16.1466  -22.1617   21.8793 C   0  0  0  0  0  0  0  0  0  0  0  0
  -19.8727  -27.0362   24.9169 C   0  0  0  0  0  0  0  0  0  0  0  0
  -31.1992  -23.4169   21.4426 C   0  0  0  0  0  0  0  0  0  0  0  0
  -28.3212  -27.3906   20.3833 C   0  0  0  0  0  0  0  0  0  0  0  0
  -25.0854  -25.5152   19.6527 C   0  0  0  0  0  0  0  0  0  1  0  0
  -18.3698  -23.3655   21.8999 C   0  0  1  0  0  0  0  0  0  0  0  0
  -17.7218  -26.6305   23.7137 C   0  0  2  0  0  0  0  0  0  0  0  0
  -17.2780  -22.7288   20.9944 C   0  0  0  0  0  0  0  0  0  0  0  0
  -27.4754  -16.0761   21.2071 N   0  0  0  0  0  0  0  0  0  0  0  0
  -28.7125  -16.5971   21.1417 N   0  0  0  0  0  0  0  0  0  0  0  0
  -20.4120  -22.1879   22.6528 N   0  0  0  0  0  0  0  0  0  0  0  0
  -29.0573  -20.3751   21.5860 N   0  0  0  0  0  0  0  0  0  0  0  0
  -30.8804  -16.2121   20.2683 N   0  0  0  0  0  0  0  0  0  0  0  0
  -29.9531  -12.5534   19.8828 N   0  0  0  0  0  0  0  0  0  0  0  0
  -21.0529  -18.6940   22.9866 N   0  0  0  0  0  0  0  0  0  0  0  0
  -17.8799  -24.4315   22.7671 N   0  0  0  0  0  0  0  0  0  0  0  0
  -30.2189  -22.4230   21.8193 N   0  0  0  0  0  0  0  0  0  0  0  0
  -26.9244  -26.8781   20.6620 N   0  3  1  0  0  0  0  0  0  0  0  0
  -18.6927  -27.6317   24.2387 N   0  3  0  0  0  0  0  0  0  0  0  0
  -29.3951  -13.6798   17.9648 O   0  0  0  0  0  0  0  0  0  0  0  0
  -21.2901  -20.1604   21.1934 O   0  0  0  0  0  0  0  0  0  0  0  0
  -18.3410  -21.7368   23.6243 O   0  0  0  0  0  0  0  0  0  0  0  0
  -19.3037  -26.0802   21.9724 O   0  0  0  0  0  0  0  0  0  0  0  0
  -30.7197  -20.9989   20.0942 O   0  0  0  0  0  0  0  0  0  0  0  0
  -23.1579  -11.5874   19.8792 O   0  0  0  0  0  0  0  0  0  0  0  0
  -25.6664  -24.3637   20.2633 O   0  0  0  0  0  0  0  0  0  1  0  0
  -23.0154   -6.9442   22.8497 F   0  0  0  0  0  0  0  0  0  0  0  0
  -21.1051  -11.1108   21.6684 F   0  0  0  0  0  0  0  0  0  0  0  0
  -32.1090  -23.0890   18.5527 Cl  0  0  0  0  0  0  0  0  0  0  0  0
  -29.0339  -27.3307   17.4202 Cl  0  0  0  0  0  0  0  0  0  0  0  0
  -29.3119  -25.5123   22.5355 Cl  0  0  0  0  0  0  0  0  0  0  0  0
  1  2  1  0  0  0  0
  1  5  2  0  0  0  0
  2  6  2  0  0  0  0
  3  8  2  0  0  0  0
  3 16  1  0  0  0  0
  4  9  1  0  0  0  0
  4 16  2  0  0  0  0
  5 18  1  0  0  0  0
  6 20  1  0  0  0  0
  7 10  2  0  0  0  0
  7 19  1  0  0  0  0
  8 24  1  0  0  0  0
  9 24  2  0  0  0  0
 10 25  1  0  0  0  0
 11 12  2  0  0  0  0
 11 26  1  0  0  0  0
 12 27  1  0  0  0  0
 13 21  1  0  0  0  0
 13 25  2  0  0  0  0
 14 27  2  0  0  0  0
 14 28  1  0  0  0  0
 15 29  1  0  0  0  0
 15 30  2  0  0  0  0
 16 32  1  0  0  0  0
 17 32  1  0  0  0  0
 17 33  2  0  0  0  0
 17 34  1  0  0  0  0
 18 20  2  0  0  0  0
 18 39  1  0  0  0  0
 19 21  2  0  0  0  0
 19 40  1  0  0  0  0
 20 51  1  0  0  0  0
 21 41  1  0  0  0  0
 22 29  2  0  0  0  0
 22 31  1  0  0  0  0
 22 62  1  0  0  0  0
 23 30  1  0  0  0  0
 23 31  2  0  0  0  0
 23 63  1  0  0  0  0
 24 84  1  0  0  0  0
 25 85  1  0  0  0  0
 26 28  2  0  0  0  0
 26 84  1  0  0  0  0
 27 86  1  0  0  0  0
 28 87  1  0  0  0  0
 29 88  1  0  0  0  0
 30 89  1  0  0  0  0
 31 90  1  0  0  0  0
 32 68  2  0  0  0  0
 33 69  1  0  0  0  0
 33 72  1  0  0  0  0
 34 73  1  0  0  0  0
 34 79  2  0  0  0  0
 35 52  1  0  0  0  0
 35 74  1  0  0  0  0
 35 80  2  0  0  0  0
 36 65  1  0  0  0  0
 36 70  1  0  0  0  0
 36 81  2  0  0  0  0
 37 66  1  0  0  0  0
 37 75  1  0  0  0  0
 37 82  2  0  0  0  0
 38 71  1  0  0  0  0
 38 76  1  0  0  0  0
 38 83  2  0  0  0  0
 39 42  1  0  0  0  0
 40 52  1  0  0  0  0
 41 70  1  0  0  0  0
 42 45  1  0  0  0  0
 43 47  1  0  0  0  0
 43 48  1  0  0  0  0
 44 46  1  0  0  0  0
 44 49  1  0  0  0  0
 45 51  1  0  0  0  0
 46 53  1  0  0  0  0
 47 54  1  0  0  0  0
 48 55  1  0  0  0  0
 49 71  1  0  0  0  0
 50 53  1  0  0  0  0
 50 71  1  0  0  0  0
 51 74  1  0  0  0  0
 52 70  1  0  0  0  0
 53 69  1  0  0  0  0
 54 56  1  0  0  0  0
 54 77  1  0  0  0  0
 55 64  1  0  0  0  0
 55 77  1  0  0  0  0
 57 66  1  0  0  0  0
 58 67  1  0  0  0  0
 59 67  1  0  0  0  0
 60 67  1  0  0  0  0
 61 78  1  0  0  0  0
 62 76  1  0  0  0  0
 63 77  1  0  0  0  0
 64 85  1  0  0  0  0
 65 67  1  0  0  0  0
 65 75  1  0  0  0  0
 66 78  1  0  0  0  0
 68 69  1  0  0  0  0
M  CHG  2  77   1  78   1
M  ISO  4  38 100  64 101  76 100  85 101
M  END
> <Batch ID>
0039

> <Smiles>
CNC(C)C(=O)NC(C(=O)N1Cc2cc([101O:1][101CH2:1]C3CCCC(C)N3Cc3c(Cl)cc(Cl)c(C[100NH:0][100C:0](=O)N4CCCC(n5nc(-c6ccc(Oc7ccc(F)cc7F)cc6)c(C(N)=O)c5N)C4)c3Cl)ccc2CC1C(=O)NC1CCCc2ccccc21)C(C)(C)C

> <Shape>
0.213

> <Color>
0.047

> <Negative vol penalty>
0.000

$$$$

  -OEChem-04042322043D

 87 96  0     1  0  0  0  0  0999 V2000
  -16.6892  -28.4150   23.9577 C   0  0  0  0  0  0  0  0  0  0  0  0
  -17.7081  -27.4828   23.7898 C   0  0  0  0  0  0  0  0  0  0  0  0
  -21.6603  -19.2287   21.7599 C   0  0  0  0  0  0  0  0  0  0  0  0
  -23.2097  -19.4141   19.9155 C   0  0  0  0  0  0  0  0  0  0  0  0
  -16.8048  -29.6825   23.3883 C   0  0  0  0  0  0  0  0  0  0  0  0
  -18.8428  -27.8171   23.0516 C   0  0  0  0  0  0  0  0  0  0  0  0
  -25.8852  -26.5397   22.7528 C   0  0  0  0  0  0  0  0  0  0  0  0
  -21.6512  -17.8417   21.6129 C   0  0  0  0  0  0  0  0  0  0  0  0
  -23.2006  -18.0270   19.7684 C   0  0  0  0  0  0  0  0  0  0  0  0
  -26.8686  -26.1318   21.8526 C   0  0  0  0  0  0  0  0  0  0  0  0
  -24.6186  -15.3548   21.2749 C   0  0  0  0  0  0  0  0  0  0  0  0
  -25.8454  -14.7154   21.0974 C   0  0  0  0  0  0  0  0  0  0  0  0
  -26.9947  -28.3779   20.9818 C   0  0  0  0  0  0  0  0  0  0  0  0
  -27.4214  -28.1526   15.9499 C   0  0  0  0  0  0  0  0  0  0  0  0
  -25.0181  -27.9833   16.1310 C   0  0  0  0  0  0  0  0  0  0  0  0
  -25.0953  -13.8689   18.9624 C   0  0  0  0  0  0  0  0  0  0  0  0
  -22.4396  -20.0149   20.9112 C   0  0  0  0  0  0  0  0  0  0  0  0
  -22.8402  -22.1803   22.1990 C   0  0  0  0  0  0  0  0  0  0  0  0
  -17.9459  -30.0357   22.6508 C   0  0  0  0  0  0  0  0  0  0  0  0
  -25.4406  -27.8696   22.7668 C   0  0  0  0  0  0  0  0  0  0  0  0
  -18.9732  -29.0900   22.4707 C   0  0  0  0  0  0  0  0  0  0  0  0
  -26.0074  -28.8008   21.8849 C   0  0  0  0  0  0  0  0  0  0  0  0
  -27.5350  -26.7807   16.1750 C   0  0  0  0  0  0  0  0  0  0  0  0
  -26.3902  -26.0101   16.3780 C   0  0  0  0  0  0  0  0  0  0  0  0
  -25.1317  -26.6114   16.3560 C   0  0  0  0  0  0  0  0  0  0  0  0
  -22.4213  -17.2408   20.6172 C   0  0  0  0  0  0  0  0  0  0  0  0
  -27.4215  -27.0503   20.9650 C   0  0  0  0  0  0  0  0  0  0  0  0
  -23.6300  -15.2513   20.2962 C   0  0  0  0  0  0  0  0  0  0  0  0
  -26.0838  -13.9725   19.9411 C   0  0  0  0  0  0  0  0  0  0  0  0
  -23.8685  -14.5084   19.1400 C   0  0  0  0  0  0  0  0  0  0  0  0
  -26.1629  -28.7539   15.9280 C   0  0  0  0  0  0  0  0  0  0  0  0
  -22.4490  -21.4478   21.0622 C   0  0  0  0  0  0  0  0  0  0  0  0
  -22.6667  -23.4939   21.8375 C   0  0  0  0  0  0  0  0  0  0  0  0
  -30.4459  -24.8578   17.5623 C   0  0  0  0  0  0  0  0  0  0  0  0
  -30.2234  -23.5892   17.1995 C   0  0  0  0  0  0  0  0  0  0  0  0
  -23.3177  -21.7148   23.4682 C   0  0  0  0  0  0  0  0  0  0  0  0
  -22.6549  -29.3091   22.2462 C   0  0  0  0  0  0  0  0  0  0  0  0
  -24.2803  -31.9459   23.2093 C   0  0  0  0  0  0  0  0  0  0  0  0
  -27.2854  -33.5170   23.5942 C   0  0  0  0  0  0  0  0  0  0  0  0
  -22.6397  -26.3079   16.5662 C   0  0  0  0  0  0  0  0  0  0  0  0
  -18.0047  -31.4019   22.0145 C   0  0  0  0  0  0  0  0  0  0  0  0
  -24.3982  -28.2998   23.7621 C   0  0  0  0  0  0  0  0  0  0  0  0
  -25.5793  -30.2447   21.8735 C   0  0  0  0  0  0  0  0  0  0  0  0
  -31.7076  -25.3798   18.1694 C   0  0  0  0  0  0  0  0  0  0  0  0
  -19.4063  -31.8033   21.5623 C   0  0  0  0  0  0  0  0  0  0  0  0
  -31.1402  -26.4364   19.1010 C   0  0  0  0  0  0  0  0  0  0  0  0
  -20.0170  -26.2713   18.9739 C   0  0  0  0  0  0  0  0  0  0  0  0
  -20.0706  -30.6589   20.8034 C   0  0  0  0  0  0  0  0  0  0  0  0
  -20.3819  -25.1007   19.8897 C   0  0  0  0  0  0  0  0  0  0  0  0
  -20.3666  -25.9808   17.5155 C   0  0  0  0  0  0  0  0  0  0  0  0
  -22.1186  -24.3887   18.1975 C   0  0  0  0  0  0  0  0  0  0  0  0
  -20.2307  -29.4235   21.6975 C   0  0  1  0  0  0  0  0  0  0  0  0
  -23.6537  -29.5626   23.3396 C   0  0  1  0  0  0  0  0  0  0  0  0
  -21.8448  -24.6603   19.6857 C   0  0  2  0  0  0  0  0  0  0  0  0
  -29.9608  -27.0183   18.3223 C   0  0  2  0  0  0  0  0  0  0  0  0
  -26.5169  -24.5385   16.6189 C   0  0  0  0  0  0  0  0  0  0  0  0
  -28.9106  -35.2925   24.3040 C   0  0  0  0  0  0  0  0  0  0  0  0
  -23.3828  -33.2910   20.6218 C   0  0  0  0  0  0  0  0  0  0  0  0
  -25.1467  -35.0282   20.9949 C   0  0  0  0  0  0  0  0  0  0  0  0
  -23.2955  -34.7583   22.6451 C   0  0  0  0  0  0  0  0  0  0  0  0
  -27.6599  -32.2742   26.2539 C   0  0  0  0  0  0  0  0  0  0  0  0
  -28.9003  -26.1589   16.1937 C   0  0  0  0  0  0  0  0  0  0  0  0
  -28.9039  -27.6481   19.2040 C   0  0  0  0  0  0  0  0  0  1  0  0
  -25.1096  -33.0019   22.5193 C   0  0  1  0  0  0  0  0  0  0  0  0
  -27.8857  -34.2693   24.7681 C   0  0  2  0  0  0  0  0  0  0  0  0
  -24.2406  -33.9923   21.6940 C   0  0  0  0  0  0  0  0  0  0  0  0
  -22.0565  -22.2311   20.0540 N   0  0  0  0  0  0  0  0  0  0  0  0
  -22.2000  -23.4694   20.5561 N   0  0  0  0  0  0  0  0  0  0  0  0
  -24.5524  -30.6152   22.8614 N   0  0  0  0  0  0  0  0  0  0  0  0
  -21.7687  -25.5738   17.3988 N   0  0  0  0  0  0  0  0  0  0  0  0
  -22.8692  -24.6561   22.4938 N   0  0  0  0  0  0  0  0  0  0  0  0
  -24.6972  -21.5347   23.6379 N   0  0  0  0  0  0  0  0  0  0  0  0
  -23.9560  -25.8474   16.5603 N   0  0  0  0  0  0  0  0  0  0  0  0
  -21.3496  -29.5939   22.5994 N   0  0  0  0  0  0  0  0  0  0  0  0
  -25.9120  -33.6354   23.5602 N   0  0  0  0  0  0  0  0  0  0  0  0
  -29.3721  -25.8173   17.5772 N   0  3  1  0  0  0  0  0  0  0  0  0
  -28.5573  -33.3216   25.7018 N   0  3  0  0  0  0  0  0  0  0  0  0
  -22.5426  -21.4503   24.4184 O   0  0  0  0  0  0  0  0  0  0  0  0
  -23.0400  -28.8878   21.1618 O   0  0  0  0  0  0  0  0  0  0  0  0
  -23.4276  -32.2886   24.0321 O   0  0  0  0  0  0  0  0  0  0  0  0
  -27.9669  -32.8904   22.7859 O   0  0  0  0  0  0  0  0  0  0  0  0
  -22.2531  -27.2904   15.9282 O   0  0  0  0  0  0  0  0  0  0  0  0
  -22.4128  -15.8873   20.4736 O   0  0  0  0  0  0  0  0  0  0  0  0
  -28.3810  -26.6546   20.0849 O   0  0  0  0  0  0  0  0  0  1  0  0
  -27.2626  -13.3597   19.7701 F   0  0  0  0  0  0  0  0  0  0  0  0
  -22.9231  -14.4063   18.1957 F   0  0  0  0  0  0  0  0  0  0  0  0
  -26.0231  -30.4467   15.6515 Cl  0  0  0  0  0  0  0  0  0  0  0  0
  1  2  1  0  0  0  0
  1  5  2  0  0  0  0
  2  6  2  0  0  0  0
  3  8  2  0  0  0  0
  3 17  1  0  0  0  0
  4  9  1  0  0  0  0
  4 17  2  0  0  0  0
  5 19  1  0  0  0  0
  6 21  1  0  0  0  0
  7 10  2  0  0  0  0
  7 20  1  0  0  0  0
  8 26  1  0  0  0  0
  9 26  2  0  0  0  0
 10 27  1  0  0  0  0
 11 12  2  0  0  0  0
 11 28  1  0  0  0  0
 12 29  1  0  0  0  0
 13 22  1  0  0  0  0
 13 27  2  0  0  0  0
 14 23  1  0  0  0  0
 14 31  2  0  0  0  0
 15 25  2  0  0  0  0
 15 31  1  0  0  0  0
 16 29  2  0  0  0  0
 16 30  1  0  0  0  0
 17 32  1  0  0  0  0
 18 32  1  0  0  0  0
 18 33  2  0  0  0  0
 18 36  1  0  0  0  0
 19 21  2  0  0  0  0
 19 41  1  0  0  0  0
 20 22  2  0  0  0  0
 20 42  1  0  0  0  0
 21 52  1  0  0  0  0
 22 43  1  0  0  0  0
 23 24  2  0  0  0  0
 23 62  1  0  0  0  0
 24 25  1  0  0  0  0
 24 56  1  0  0  0  0
 25 73  1  0  0  0  0
 26 83  1  0  0  0  0
 27 84  1  0  0  0  0
 28 30  2  0  0  0  0
 28 83  1  0  0  0  0
 29 85  1  0  0  0  0
 30 86  1  0  0  0  0
 31 87  1  0  0  0  0
 32 67  2  0  0  0  0
 33 68  1  0  0  0  0
 33 71  1  0  0  0  0
 34 35  2  0  0  0  0
 34 44  1  0  0  0  0
 34 76  1  0  0  0  0
 36 72  1  0  0  0  0
 36 78  2  0  0  0  0
 37 53  1  0  0  0  0
 37 74  1  0  0  0  0
 37 79  2  0  0  0  0
 38 64  1  0  0  0  0
 38 69  1  0  0  0  0
 38 80  2  0  0  0  0
 39 65  1  0  0  0  0
 39 75  1  0  0  0  0
 39 81  2  0  0  0  0
 40 70  1  0  0  0  0
 40 73  1  0  0  0  0
 40 82  2  0  0  0  0
 41 45  1  0  0  0  0
 42 53  1  0  0  0  0
 43 69  1  0  0  0  0
 44 46  1  0  0  0  0
 45 48  1  0  0  0  0
 46 55  1  0  0  0  0
 47 49  1  0  0  0  0
 47 50  1  0  0  0  0
 48 52  1  0  0  0  0
 49 54  1  0  0  0  0
 50 70  1  0  0  0  0
 51 54  1  0  0  0  0
 51 70  1  0  0  0  0
 52 74  1  0  0  0  0
 53 69  1  0  0  0  0
 54 68  1  0  0  0  0
 55 63  1  0  0  0  0
 55 76  1  0  0  0  0
 57 65  1  0  0  0  0
 58 66  1  0  0  0  0
 59 66  1  0  0  0  0
 60 66  1  0  0  0  0
 61 77  1  0  0  0  0
 62 76  1  0  0  0  0
 63 84  1  0  0  0  0
 64 66  1  0  0  0  0
 64 75  1  0  0  0  0
 65 77  1  0  0  0  0
 67 68  1  0  0  0  0
M  CHG  2  76   1  77   1
M  ISO  4  40 100  63 101  73 100  84 101
M  END
> <Batch ID>
0039

> <Smiles>
C=C1CCC([101CH2:1][101O:1]c2ccc3c(c2)CN(C(=O)C(NC(=O)C(C)NC)C(C)(C)C)C(C(=O)NC2CCCc4ccccc42)C3)N1Cc1cc(Cl)cc([100NH:0][100C:0](=O)N2CCCC(n3nc(-c4ccc(Oc5ccc(F)cc5F)cc4)c(C(N)=O)c3N)C2)c1C

> <Shape>
0.189

> <Color>
0.080

> <Negative vol penalty>
0.000

$$$$

  -OEChem-04042322043D

 89 98  0     1  0  0  0  0  0999 V2000
  -26.3183  -23.0908   15.3886 C   0  0  0  0  0  0  0  0  0  0  0  0
  -25.4249  -23.6821   16.2761 C   0  0  0  0  0  0  0  0  0  0  0  0
  -26.7466  -13.0496   20.2683 C   0  0  0  0  0  0  0  0  0  0  0  0
  -24.3893  -13.5427   20.0757 C   0  0  0  0  0  0  0  0  0  0  0  0
  -27.6676  -22.9883   15.7243 C   0  0  0  0  0  0  0  0  0  0  0  0
  -25.8802  -24.1703   17.5004 C   0  0  0  0  0  0  0  0  0  0  0  0
  -23.9949  -28.7421   18.5912 C   0  0  0  0  0  0  0  0  0  0  0  0
  -26.4510  -11.9520   21.0766 C   0  0  0  0  0  0  0  0  0  0  0  0
  -24.0937  -12.4450   20.8840 C   0  0  0  0  0  0  0  0  0  0  0  0
  -22.6851  -28.7939   19.0658 C   0  0  0  0  0  0  0  0  0  0  0  0
  -22.6976   -9.5606   22.6012 C   0  0  0  0  0  0  0  0  0  0  0  0
  -21.6590   -8.7201   22.2005 C   0  0  0  0  0  0  0  0  0  0  0  0
  -23.5167  -29.0071   21.3201 C   0  0  0  0  0  0  0  0  0  0  0  0
  -19.7355  -22.2502   18.9640 C   0  0  0  0  0  0  0  0  0  0  0  0
  -22.8353   -8.2472   20.1438 C   0  0  0  0  0  0  0  0  0  0  0  0
  -25.7158  -13.8450   19.7679 C   0  0  0  0  0  0  0  0  0  0  0  0
  -26.6941  -14.9688   17.6972 C   0  0  0  0  0  0  0  0  0  0  0  0
  -28.1414  -23.4842   16.9492 C   0  0  0  0  0  0  0  0  0  0  0  0
  -25.0773  -28.8115   19.4800 C   0  0  0  0  0  0  0  0  0  0  0  0
  -27.2369  -24.0731   17.8533 C   0  0  0  0  0  0  0  0  0  0  0  0
  -24.8394  -28.9585   20.8540 C   0  0  0  0  0  0  0  0  0  0  0  0
  -20.8587  -23.0551   19.1541 C   0  0  0  0  0  0  0  0  0  0  0  0
  -20.9166  -23.9259   20.2422 C   0  0  0  0  0  0  0  0  0  0  0  0
  -19.8513  -23.9917   21.1403 C   0  0  0  0  0  0  0  0  0  0  0  0
  -18.7281  -23.1868   20.9502 C   0  0  0  0  0  0  0  0  0  0  0  0
  -25.1245  -11.6496   21.3844 C   0  0  0  0  0  0  0  0  0  0  0  0
  -22.4458  -28.9236   20.4307 C   0  0  0  0  0  0  0  0  0  0  0  0
  -23.8050   -9.7444   21.7733 C   0  0  0  0  0  0  0  0  0  0  0  0
  -21.7278   -8.0635   20.9718 C   0  0  0  0  0  0  0  0  0  0  0  0
  -18.6702  -22.3160   19.8621 C   0  0  0  0  0  0  0  0  0  0  0  0
  -23.8739   -9.0877   20.5446 C   0  0  0  0  0  0  0  0  0  0  0  0
  -26.0205  -14.9794   18.9333 C   0  0  0  0  0  0  0  0  0  0  0  0
  -26.7291  -16.2873   17.3140 C   0  0  0  0  0  0  0  0  0  0  0  0
  -18.7408  -26.7416   23.4138 C   0  0  0  0  0  0  0  0  0  0  0  0
  -17.5130  -26.5438   23.9169 C   0  0  0  0  0  0  0  0  0  0  0  0
  -27.2393  -13.8658   16.9612 C   0  0  0  0  0  0  0  0  0  0  0  0
  -27.4657  -26.8653   20.2625 C   0  0  0  0  0  0  0  0  0  0  0  0
  -28.4592  -29.4177   22.0005 C   0  0  0  0  0  0  0  0  0  0  0  0
  -26.9407  -31.9151   24.1158 C   0  0  0  0  0  0  0  0  0  0  0  0
  -23.2109  -20.8512   18.5975 C   0  0  0  0  0  0  0  0  0  0  0  0
  -29.6004  -23.3081   17.2881 C   0  0  0  0  0  0  0  0  0  0  0  0
  -26.4845  -28.7810   18.9496 C   0  0  0  0  0  0  0  0  0  0  0  0
  -25.9667  -29.0576   21.8479 C   0  0  0  0  0  0  0  0  0  0  0  0
  -19.7844  -27.5783   24.1028 C   0  0  0  0  0  0  0  0  0  0  0  0
  -30.0673  -24.1874   18.4454 C   0  0  0  0  0  0  0  0  0  0  0  0
  -20.3621  -28.6062   23.1374 C   0  0  0  0  0  0  0  0  0  0  0  0
  -26.7878  -20.7148   19.1307 C   0  0  0  0  0  0  0  0  0  0  0  0
  -29.0762  -24.1170   19.6028 C   0  0  0  0  0  0  0  0  0  0  0  0
  -27.0547  -19.2126   19.0204 C   0  0  0  0  0  0  0  0  0  0  0  0
  -25.4595  -20.9905   19.8291 C   0  0  0  0  0  0  0  0  0  0  0  0
  -24.5480  -18.8234   19.0899 C   0  0  0  0  0  0  0  0  0  0  0  0
  -19.6141  -27.1813   21.1944 C   0  0  0  0  0  0  0  0  0  0  0  0
  -27.6968  -24.6368   19.1803 C   0  0  1  0  0  0  0  0  0  0  0  0
  -27.5072  -28.3430   19.9935 C   0  0  1  0  0  0  0  0  0  0  0  0
  -25.8658  -18.4783   18.3726 C   0  0  2  0  0  0  0  0  0  0  0  0
  -20.7723  -27.9585   21.8149 C   0  0  1  0  0  0  0  0  0  1  0  0
  -22.1215  -24.7899   20.4417 C   0  0  0  0  0  0  0  0  0  0  0  0
  -17.5762  -23.2393   21.8998 C   0  0  0  0  0  0  0  0  0  0  0  0
  -27.6688  -34.2543   24.6594 C   0  0  0  0  0  0  0  0  0  0  0  0
  -29.7866  -28.1308   24.4279 C   0  0  0  0  0  0  0  0  0  0  0  0
  -29.1098  -30.1319   25.7717 C   0  0  0  0  0  0  0  0  0  0  0  0
  -30.6638  -30.3974   23.8385 C   0  0  0  0  0  0  0  0  0  0  0  0
  -24.3525  -33.0491   23.2359 C   0  0  0  0  0  0  0  0  0  0  0  0
  -21.9842  -22.9666   18.1763 C   0  0  0  0  0  0  0  0  0  0  0  0
  -19.9122  -24.9286   22.3106 C   0  0  0  0  0  0  0  0  0  0  0  0
  -28.2205  -29.9116   23.4070 C   0  0  1  0  0  0  0  0  0  0  0  0
  -26.7624  -33.3887   23.7980 C   0  0  2  0  0  0  0  0  0  0  0  0
  -29.4257  -29.6275   24.3474 C   0  0  0  0  0  0  0  0  0  0  0  0
  -25.6542  -16.2072   19.3104 N   0  0  0  0  0  0  0  0  0  0  0  0
  -26.0992  -16.9805   18.3054 N   0  0  0  0  0  0  0  0  0  0  0  0
  -27.3248  -29.0167   21.2808 N   0  0  0  0  0  0  0  0  0  0  0  0
  -24.3668  -20.2775   19.1525 N   0  0  0  0  0  0  0  0  0  0  0  0
  -27.2370  -16.9097   16.2291 N   0  0  0  0  0  0  0  0  0  0  0  0
  -26.4182  -13.2104   16.0335 N   0  0  0  0  0  0  0  0  0  0  0  0
  -27.6908  -26.0836   19.1455 N   0  0  0  0  0  0  0  0  0  0  0  0
  -27.8735  -31.3238   23.2903 N   0  0  0  0  0  0  0  0  0  0  0  0
  -23.1127  -22.2331   18.7048 N   0  0  0  0  0  0  0  0  0  0  0  0
  -19.0478  -26.1466   22.1358 N   0  3  1  0  0  0  0  0  0  0  0  0
  -25.3510  -33.8031   24.0370 N   0  3  0  0  0  0  0  0  0  0  0  0
  -28.4146  -13.4625   17.1333 O   0  0  0  0  0  0  0  0  0  0  0  0
  -27.2471  -26.4641   21.3996 O   0  0  0  0  0  0  0  0  0  0  0  0
  -29.6091  -29.3954   21.5544 O   0  0  0  0  0  0  0  0  0  0  0  0
  -26.3178  -31.3463   25.0096 O   0  0  0  0  0  0  0  0  0  0  0  0
  -22.3331  -20.1818   18.0422 O   0  0  0  0  0  0  0  0  0  0  0  0
  -24.8357  -10.5785   22.1729 O   0  0  0  0  0  0  0  0  0  0  0  0
  -21.1682  -28.9738   20.8967 O   0  0  0  0  0  0  0  0  0  1  0  0
  -20.7311   -7.2552   20.5878 F   0  0  0  0  0  0  0  0  0  0  0  0
  -17.5954  -21.5380   19.6707 F   0  0  0  0  0  0  0  0  0  0  0  0
  -24.9358   -9.2594   19.7454 F   0  0  0  0  0  0  0  0  0  0  0  0
  1  2  1  0  0  0  0
  1  5  2  0  0  0  0
  2  6  2  0  0  0  0
  3  8  2  0  0  0  0
  3 16  1  0  0  0  0
  4  9  1  0  0  0  0
  4 16  2  0  0  0  0
  5 18  1  0  0  0  0
  6 20  1  0  0  0  0
  7 10  2  0  0  0  0
  7 19  1  0  0  0  0
  8 26  1  0  0  0  0
  9 26  2  0  0  0  0
 10 27  1  0  0  0  0
 11 12  2  0  0  0  0
 11 28  1  0  0  0  0
 12 29  1  0  0  0  0
 13 21  1  0  0  0  0
 13 27  2  0  0  0  0
 14 22  2  0  0  0  0
 14 30  1  0  0  0  0
 15 29  2  0  0  0  0
 15 31  1  0  0  0  0
 16 32  1  0  0  0  0
 17 32  1  0  0  0  0
 17 33  2  0  0  0  0
 17 36  1  0  0  0  0
 18 20  2  0  0  0  0
 18 41  1  0  0  0  0
 19 21  2  0  0  0  0
 19 42  1  0  0  0  0
 20 53  1  0  0  0  0
 21 43  1  0  0  0  0
 22 23  1  0  0  0  0
 22 64  1  0  0  0  0
 23 24  2  0  0  0  0
 23 57  1  0  0  0  0
 24 25  1  0  0  0  0
 24 65  1  0  0  0  0
 25 30  2  0  0  0  0
 25 58  1  0  0  0  0
 26 85  1  0  0  0  0
 27 86  1  0  0  0  0
 28 31  2  0  0  0  0
 28 85  1  0  0  0  0
 29 87  1  0  0  0  0
 30 88  1  0  0  0  0
 31 89  1  0  0  0  0
 32 69  2  0  0  0  0
 33 70  1  0  0  0  0
 33 73  1  0  0  0  0
 34 35  2  0  0  0  0
 34 44  1  0  0  0  0
 34 78  1  0  0  0  0
 36 74  1  0  0  0  0
 36 80  2  0  0  0  0
 37 54  1  0  0  0  0
 37 75  1  0  0  0  0
 37 81  2  0  0  0  0
 38 66  1  0  0  0  0
 38 71  1  0  0  0  0
 38 82  2  0  0  0  0
 39 67  1  0  0  0  0
 39 76  1  0  0  0  0
 39 83  2  0  0  0  0
 40 72  1  0  0  0  0
 40 77  1  0  0  0  0
 40 84  2  0  0  0  0
 41 45  1  0  0  0  0
 42 54  1  0  0  0  0
 43 71  1  0  0  0  0
 44 46  1  0  0  0  0
 45 48  1  0  0  0  0
 46 56  1  0  0  0  0
 47 49  1  0  0  0  0
 47 50  1  0  0  0  0
 48 53  1  0  0  0  0
 49 55  1  0  0  0  0
 50 72  1  0  0  0  0
 51 55  1  0  0  0  0
 51 72  1  0  0  0  0
 52 56  1  0  0  0  0
 52 78  1  0  0  0  0
 53 75  1  0  0  0  0
 54 71  1  0  0  0  0
 55 70  1  0  0  0  0
 56 86  1  0  0  0  0
 59 67  1  0  0  0  0
 60 68  1  0  0  0  0
 61 68  1  0  0  0  0
 62 68  1  0  0  0  0
 63 79  1  0  0  0  0
 64 77  1  0  0  0  0
 65 78  1  0  0  0  0
 66 68  1  0  0  0  0
 66 76  1  0  0  0  0
 67 79  1  0  0  0  0
 69 70  1  0  0  0  0
M  CHG  2  78   1  79   1
M  ISO  4  40 100  56 101  77 100  86 101
M  END
> <Batch ID>
0039

> <Smiles>
C=C1CC[101CH:1]([101O:1]c2ccc3c(c2)CN(C(=O)C(NC(=O)C(C)NC)C(C)(C)C)C(C(=O)NC2CCCc4ccccc42)C3)CN1Cc1c(C)c(F)cc(C[100NH:0][100C:0](=O)N2CCCC(n3nc(-c4ccc(Oc5ccc(F)cc5F)cc4)c(C(N)=O)c3N)C2)c1C

> <Shape>
0.244

> <Color>
0.081

> <Negative vol penalty>
0.000

$$$$

  -OEChem-04042322043D

 95104  0     1  0  0  0  0  0999 V2000
  -30.4389  -20.6705   16.9809 C   0  0  0  0  0  0  0  0  0  0  0  0
  -29.7353  -20.8997   18.1590 C   0  0  0  0  0  0  0  0  0  0  0  0
  -28.4756  -13.2370   19.2886 C   0  0  0  0  0  0  0  0  0  0  0  0
  -28.4077  -14.6255   21.2646 C   0  0  0  0  0  0  0  0  0  0  0  0
  -30.9903  -21.7421   16.2799 C   0  0  0  0  0  0  0  0  0  0  0  0
  -29.5837  -22.2007   18.6374 C   0  0  0  0  0  0  0  0  0  0  0  0
  -24.8555  -23.1678   20.1715 C   0  0  0  0  0  0  0  0  0  0  0  0
  -29.8394  -13.4967   19.1530 C   0  0  0  0  0  0  0  0  0  0  0  0
  -29.7714  -14.8852   21.1290 C   0  0  0  0  0  0  0  0  0  0  0  0
  -24.4770  -22.6728   21.4187 C   0  0  0  0  0  0  0  0  0  0  0  0
  -31.7952  -16.0030   18.0051 C   0  0  0  0  0  0  0  0  0  0  0  0
  -32.2706  -16.3186   16.7324 C   0  0  0  0  0  0  0  0  0  0  0  0
  -24.8424  -24.8516   22.3876 C   0  0  0  0  0  0  0  0  0  0  0  0
  -22.6569  -17.5182   25.8973 C   0  0  0  0  0  0  0  0  0  0  0  0
  -21.2709  -19.1536   24.7831 C   0  0  0  0  0  0  0  0  0  0  0  0
  -33.7390  -14.4014   16.8055 C   0  0  0  0  0  0  0  0  0  0  0  0
  -27.7598  -13.8014   20.3444 C   0  0  0  0  0  0  0  0  0  0  0  0
  -21.9563  -19.5095   27.0723 C   0  0  0  0  0  0  0  0  0  0  0  0
  -25.7371  -12.2793   20.6595 C   0  0  0  0  0  0  0  0  0  0  0  0
  -30.8371  -23.0578   16.7448 C   0  0  0  0  0  0  0  0  0  0  0  0
  -25.2414  -24.5079   20.0249 C   0  0  0  0  0  0  0  0  0  0  0  0
  -30.1347  -23.2908   17.9426 C   0  0  0  0  0  0  0  0  0  0  0  0
  -25.2229  -25.3617   21.1370 C   0  0  0  0  0  0  0  0  0  0  0  0
  -22.6518  -18.3006   27.0520 C   0  0  0  0  0  0  0  0  0  0  0  0
  -21.9665  -17.9447   24.7628 C   0  0  0  0  0  0  0  0  0  0  0  0
  -30.4873  -14.3207   20.0732 C   0  0  0  0  0  0  0  0  0  0  0  0
  -24.4731  -23.5140   22.5276 C   0  0  0  0  0  0  0  0  0  0  0  0
  -32.2917  -14.8866   18.6781 C   0  0  0  0  0  0  0  0  0  0  0  0
  -33.2425  -15.5178   16.1325 C   0  0  0  0  0  0  0  0  0  0  0  0
  -33.2635  -14.0858   18.0783 C   0  0  0  0  0  0  0  0  0  0  0  0
  -21.2659  -19.9360   25.9378 C   0  0  0  0  0  0  0  0  0  0  0  0
  -26.3509  -13.5340   20.4846 C   0  0  0  0  0  0  0  0  0  0  0  0
  -24.3953  -12.5616   20.7396 C   0  0  0  0  0  0  0  0  0  0  0  0
  -21.9655  -20.3140   28.2924 C   0  0  0  0  0  0  0  0  0  0  0  0
  -21.0602  -20.2398   29.2890 C   0  0  0  0  0  0  0  0  0  0  0  0
  -26.3270  -10.9751   20.7423 C   0  0  0  0  0  0  0  0  0  0  0  0
  -27.9076  -25.9894   19.1304 C   0  0  0  0  0  0  0  0  0  0  0  0
  -26.0442  -28.6363   19.3395 C   0  0  0  0  0  0  0  0  0  0  0  0
  -23.5259  -29.9131   21.5856 C   0  0  0  0  0  0  0  0  0  0  0  0
  -21.3382  -17.4271   22.3787 C   0  0  0  0  0  0  0  0  0  0  0  0
  -31.4914  -24.1796   15.9778 C   0  0  0  0  0  0  0  0  0  0  0  0
  -25.6213  -25.0331   18.6676 C   0  0  0  0  0  0  0  0  0  0  0  0
  -25.6090  -26.8135   21.0287 C   0  0  0  0  0  0  0  0  0  0  0  0
  -30.9652  -25.5624   16.3536 C   0  0  0  0  0  0  0  0  0  0  0  0
  -21.1426  -15.7439   19.2473 C   0  0  0  0  0  0  0  0  0  0  0  0
  -26.2314  -20.9770   29.2229 C   0  0  0  0  0  0  0  0  0  0  0  0
  -30.8937  -25.7125   17.8699 C   0  0  0  0  0  0  0  0  0  0  0  0
  -22.3970  -14.8674   19.2278 C   0  0  0  0  0  0  0  0  0  0  0  0
  -26.2600  -19.6664   30.0206 C   0  0  0  0  0  0  0  0  0  0  0  0
  -21.4029  -17.0919   19.9173 C   0  0  0  0  0  0  0  0  0  0  0  0
  -23.2500  -16.1378   21.2391 C   0  0  0  0  0  0  0  0  0  0  0  0
  -25.7277  -18.0478   27.5623 C   0  0  0  0  0  0  0  0  0  0  0  0
  -26.8185  -20.8968   27.8076 C   0  0  0  0  0  0  0  0  0  0  0  0
  -29.9276  -24.6901   18.4805 C   0  0  1  0  0  0  0  0  0  0  0  0
  -26.4892  -26.2860   18.7332 C   0  0  1  0  0  0  0  0  0  0  0  0
  -23.0202  -14.7441   20.6321 C   0  0  2  0  0  0  0  0  0  0  0  0
  -25.0385  -18.7303   29.8415 C   0  0  2  0  0  0  0  0  0  0  0  0
  -25.8448  -18.9799   26.3467 C   0  0  2  0  0  0  0  0  0  0  0  0
  -21.1042  -21.0906   30.5166 C   0  0  0  0  0  0  0  0  0  0  0  0
  -25.2835  -17.4230   30.6106 C   0  0  0  0  0  0  0  0  0  0  0  0
  -27.0922  -18.6815   25.5188 C   0  0  0  0  0  0  0  0  0  0  0  0
  -21.6162  -31.4873   21.1704 C   0  0  0  0  0  0  0  0  0  0  0  0
  -27.9980  -30.7901   20.2634 C   0  0  0  0  0  0  0  0  0  0  0  0
  -26.0943  -31.9151   21.4375 C   0  0  0  0  0  0  0  0  0  0  0  0
  -26.0435  -31.6451   18.9582 C   0  0  0  0  0  0  0  0  0  0  0  0
  -21.5514  -27.9831   22.6511 C   0  0  0  0  0  0  0  0  0  0  0  0
  -23.4087  -17.8050   28.2502 C   0  0  0  0  0  0  0  0  0  0  0  0
  -24.8149  -22.6002   26.0000 C   0  0  0  0  0  0  0  0  0  0  0  0
  -25.6775  -21.4030   25.6301 C   0  0  0  0  0  0  0  0  0  0  0  0
  -24.7006  -23.6394   24.8915 C   0  0  0  0  0  0  0  0  0  1  0  0
  -25.7028  -29.6198   20.4327 C   0  0  1  0  0  0  0  0  0  0  0  0
  -22.0380  -30.0328   21.3092 C   0  0  2  0  0  0  0  0  0  0  0  0
  -26.4663  -30.9655   20.2788 C   0  0  0  0  0  0  0  0  0  0  0  0
  -25.4713  -14.5387   20.4551 N   0  0  0  0  0  0  0  0  0  0  0  0
  -24.2910  -13.9155   20.6124 N   0  0  0  0  0  0  0  0  0  0  0  0
  -25.9788  -27.2781   19.6815 N   0  0  0  0  0  0  0  0  0  0  0  0
  -21.9893  -16.8963   21.2450 N   0  0  0  0  0  0  0  0  0  0  0  0
  -24.6608  -18.5257   28.4406 N   0  0  2  0  0  0  0  0  0  0  0  0
  -23.3063  -11.7813   20.9056 N   0  0  0  0  0  0  0  0  0  0  0  0
  -27.7205  -10.8645   20.6410 N   0  0  0  0  0  0  0  0  0  0  0  0
  -21.9716  -17.1499   23.5898 N   0  0  0  0  0  0  0  0  0  0  0  0
  -28.5567  -25.1104   18.2845 N   0  0  0  0  0  0  0  0  0  0  0  0
  -24.2500  -29.7526   20.4233 N   0  0  0  0  0  0  0  0  0  0  0  0
  -25.7831  -20.4442   26.7919 N   0  3  2  0  0  0  0  0  0  0  0  0
  -21.2541  -29.4200   22.4187 N   0  3  0  0  0  0  0  0  0  0  0  0
  -25.6375   -9.9370   20.8849 O   0  0  0  0  0  0  0  0  0  0  0  0
  -28.3788  -26.5199   20.1295 O   0  0  0  0  0  0  0  0  0  0  0  0
  -26.3504  -29.0574   18.2212 O   0  0  0  0  0  0  0  0  0  0  0  0
  -23.9988  -29.9612   22.7190 O   0  0  0  0  0  0  0  0  0  0  0  0
  -20.2812  -18.0562   22.2848 O   0  0  0  0  0  0  0  0  0  0  0  0
  -31.8180  -14.5741   19.9413 O   0  0  0  0  0  0  0  0  0  0  0  0
  -24.1022  -23.0299   23.7547 O   0  0  0  0  0  0  0  0  0  1  0  0
  -33.6978  -15.8201   14.9097 F   0  0  0  0  0  0  0  0  0  0  0  0
  -33.7435  -13.0113   18.7194 F   0  0  0  0  0  0  0  0  0  0  0  0
  -20.3856  -21.4251   25.9031 Cl  0  0  0  0  0  0  0  0  0  0  0  0
  1  2  1  0  0  0  0
  1  5  2  0  0  0  0
  2  6  2  0  0  0  0
  3  8  2  0  0  0  0
  3 17  1  0  0  0  0
  4  9  1  0  0  0  0
  4 17  2  0  0  0  0
  5 20  1  0  0  0  0
  6 22  1  0  0  0  0
  7 10  2  0  0  0  0
  7 21  1  0  0  0  0
  8 26  1  0  0  0  0
  9 26  2  0  0  0  0
 10 27  1  0  0  0  0
 11 12  2  0  0  0  0
 11 28  1  0  0  0  0
 12 29  1  0  0  0  0
 13 23  1  0  0  0  0
 13 27  2  0  0  0  0
 14 24  1  0  0  0  0
 14 25  2  0  0  0  0
 15 25  1  0  0  0  0
 15 31  2  0  0  0  0
 16 29  2  0  0  0  0
 16 30  1  0  0  0  0
 17 32  1  0  0  0  0
 18 24  2  0  0  0  0
 18 31  1  0  0  0  0
 18 34  1  0  0  0  0
 19 32  1  0  0  0  0
 19 33  2  0  0  0  0
 19 36  1  0  0  0  0
 20 22  2  0  0  0  0
 20 41  1  0  0  0  0
 21 23  2  0  0  0  0
 21 42  1  0  0  0  0
 22 54  1  0  0  0  0
 23 43  1  0  0  0  0
 24 67  1  0  0  0  0
 25 81  1  0  0  0  0
 26 91  1  0  0  0  0
 27 92  1  0  0  0  0
 28 30  2  0  0  0  0
 28 91  1  0  0  0  0
 29 93  1  0  0  0  0
 30 94  1  0  0  0  0
 31 95  1  0  0  0  0
 32 74  2  0  0  0  0
 33 75  1  0  0  0  0
 33 79  1  0  0  0  0
 34 35  2  0  0  0  0
 35 59  1  0  0  0  0
 36 80  1  0  0  0  0
 36 86  2  0  0  0  0
 37 55  1  0  0  0  0
 37 82  1  0  0  0  0
 37 87  2  0  0  0  0
 38 71  1  0  0  0  0
 38 76  1  0  0  0  0
 38 88  2  0  0  0  0
 39 72  1  0  0  0  0
 39 83  1  0  0  0  0
 39 89  2  0  0  0  0
 40 77  1  0  0  0  0
 40 81  1  0  0  0  0
 40 90  2  0  0  0  0
 41 44  1  0  0  0  0
 42 55  1  0  0  0  0
 43 76  1  0  0  0  0
 44 47  1  0  0  0  0
 45 48  1  0  0  0  0
 45 50  1  0  0  0  0
 46 49  1  0  0  0  0
 46 53  1  0  0  0  0
 47 54  1  0  0  0  0
 48 56  1  0  0  0  0
 49 57  1  0  0  0  0
 50 77  1  0  0  0  0
 51 56  1  0  0  0  0
 51 77  1  0  0  0  0
 52 58  1  0  0  0  0
 52 78  1  0  0  0  0
 53 84  1  0  0  0  0
 54 82  1  0  0  0  0
 55 76  1  0  0  0  0
 56 75  1  0  0  0  0
 57 60  1  0  0  0  0
 57 78  1  0  0  0  0
 58 61  1  0  0  0  0
 58 84  1  0  0  0  0
 62 72  1  0  0  0  0
 63 73  1  0  0  0  0
 64 73  1  0  0  0  0
 65 73  1  0  0  0  0
 66 85  1  0  0  0  0
 67 78  1  0  0  0  0
 68 69  1  0  0  0  0
 68 70  1  0  0  0  0
 69 84  1  0  0  0  0
 70 92  1  0  0  0  0
 71 73  1  0  0  0  0
 71 83  1  0  0  0  0
 72 85  1  0  0  0  0
 74 75  1  0  0  0  0
M  CHG  2  84   1  85   1
M  ISO  4  40 100  70 101  81 100  92 101
M  END
> <Batch ID>
0039

> <Smiles>
CC=Cc1c(Cl)cc([100NH:0][100C:0](=O)N2CCCC(n3nc(-c4ccc(Oc5ccc(F)cc5F)cc4)c(C(N)=O)c3N)C2)cc1CN1CC(C)N(CC[101CH2:1][101O:1]c2ccc3c(c2)CN(C(=O)C(NC(=O)C(C)NC)C(C)(C)C)C(C(=O)NC2CCCc4ccccc42)C3)CCCC1C

> <Shape>
0.194

> <Color>
0.083

> <Negative vol penalty>
0.000

$$$$

  -OEChem-04042322043D

 85 93  0     1  0  0  0  0  0999 V2000
  -31.3636  -22.7370   20.5517 C   0  0  0  0  0  0  0  0  0  0  0  0
  -30.2012  -23.3352   20.0758 C   0  0  0  0  0  0  0  0  0  0  0  0
  -25.3519  -12.8769   21.6209 C   0  0  0  0  0  0  0  0  0  0  0  0
  -25.6100  -12.7577   19.2216 C   0  0  0  0  0  0  0  0  0  0  0  0
  -31.5897  -22.6504   21.9248 C   0  0  0  0  0  0  0  0  0  0  0  0
  -29.2637  -23.8461   20.9727 C   0  0  0  0  0  0  0  0  0  0  0  0
  -27.5663  -28.4195   19.6135 C   0  0  0  0  0  0  0  0  0  0  0  0
  -24.3444  -11.9141   21.5603 C   0  0  0  0  0  0  0  0  0  0  0  0
  -24.6025  -11.7949   19.1611 C   0  0  0  0  0  0  0  0  0  0  0  0
  -26.6115  -28.4686   18.5987 C   0  0  0  0  0  0  0  0  0  0  0  0
  -24.1250   -8.5541   21.2525 C   0  0  0  0  0  0  0  0  0  0  0  0
  -24.1614   -7.5181   22.1857 C   0  0  0  0  0  0  0  0  0  0  0  0
  -23.7002  -23.5287   15.2014 C   0  0  0  0  0  0  0  0  0  0  0  0
  -24.8748  -28.7238   20.2535 C   0  0  0  0  0  0  0  0  0  0  0  0
  -25.7627  -22.2750   15.3090 C   0  0  0  0  0  0  0  0  0  0  0  0
  -21.9912   -8.1857   23.0114 C   0  0  0  0  0  0  0  0  0  0  0  0
  -25.9846  -13.2987   20.4515 C   0  0  0  0  0  0  0  0  0  0  0  0
  -24.0456  -24.1977   16.3756 C   0  0  0  0  0  0  0  0  0  0  0  0
  -28.4059  -14.0708   20.6728 C   0  0  0  0  0  0  0  0  0  0  0  0
  -30.6591  -23.1692   22.8388 C   0  0  0  0  0  0  0  0  0  0  0  0
  -27.1808  -28.5114   20.9586 C   0  0  0  0  0  0  0  0  0  0  0  0
  -29.4770  -23.7652   22.3593 C   0  0  0  0  0  0  0  0  0  0  0  0
  -25.8269  -28.6782   21.2833 C   0  0  0  0  0  0  0  0  0  0  0  0
  -26.1081  -22.9441   16.4832 C   0  0  0  0  0  0  0  0  0  0  0  0
  -25.2496  -23.9054   17.0165 C   0  0  0  0  0  0  0  0  0  0  0  0
  -23.9697  -11.3731   20.3305 C   0  0  0  0  0  0  0  0  0  0  0  0
  -25.2652  -28.6178   18.9188 C   0  0  0  0  0  0  0  0  0  0  0  0
  -23.0217   -9.4059   21.1987 C   0  0  0  0  0  0  0  0  0  0  0  0
  -23.0945   -7.3339   23.0652 C   0  0  0  0  0  0  0  0  0  0  0  0
  -21.9548   -9.2217   22.0781 C   0  0  0  0  0  0  0  0  0  0  0  0
  -24.5588  -22.5673   14.6681 C   0  0  0  0  0  0  0  0  0  0  0  0
  -27.0251  -14.2936   20.5133 C   0  0  0  0  0  0  0  0  0  0  0  0
  -28.9592  -15.3279   20.6690 C   0  0  0  0  0  0  0  0  0  0  0  0
  -23.1213  -25.2116   16.9217 C   0  0  0  0  0  0  0  0  0  0  0  0
  -29.1242  -12.8377   20.8117 C   0  0  0  0  0  0  0  0  0  0  0  0
  -27.3882  -26.5967   23.4873 C   0  0  0  0  0  0  0  0  0  0  0  0
  -26.2162  -29.1838   25.0544 C   0  0  0  0  0  0  0  0  0  0  0  0
  -24.4543  -32.1032   24.9141 C   0  0  0  0  0  0  0  0  0  0  0  0
  -27.1563  -20.4117   18.2691 C   0  0  0  0  0  0  0  0  0  0  0  0
  -30.9250  -23.0100   24.3148 C   0  0  0  0  0  0  0  0  0  0  0  0
  -28.2256  -28.4837   22.0402 C   0  0  0  0  0  0  0  0  0  0  0  0
  -25.3632  -28.8018   22.7109 C   0  0  0  0  0  0  0  0  0  0  0  0
  -30.0580  -23.9110   25.1905 C   0  0  0  0  0  0  0  0  0  0  0  0
  -27.9348  -19.8735   21.7622 C   0  0  0  0  0  0  0  0  0  0  0  0
  -28.6016  -23.8511   24.7409 C   0  0  0  0  0  0  0  0  0  0  0  0
  -27.9192  -18.3461   21.8454 C   0  0  0  0  0  0  0  0  0  0  0  0
  -26.8513  -20.3868   20.8184 C   0  0  0  0  0  0  0  0  0  0  0  0
  -26.8963  -18.2902   19.5237 C   0  0  0  0  0  0  0  0  0  0  0  0
  -28.4480  -24.3533   23.3002 C   0  0  1  0  0  0  0  0  0  0  0  0
  -27.6684  -28.0703   23.3989 C   0  0  1  0  0  0  0  0  0  0  0  0
  -27.9835  -17.7079   20.4452 C   0  0  2  0  0  0  0  0  0  0  0  0
  -25.6208  -24.6224   18.2759 C   0  0  0  0  0  0  0  0  0  0  0  0
  -23.6304  -33.9784   26.3640 C   0  0  0  0  0  0  0  0  0  0  0  0
  -24.0200  -27.3699   26.1483 C   0  0  0  0  0  0  0  0  0  0  0  0
  -22.7338  -29.4236   26.7778 C   0  0  0  0  0  0  0  0  0  0  0  0
  -24.9625  -28.9850   27.8089 C   0  0  0  0  0  0  0  0  0  0  0  0
  -26.0068  -34.1139   23.3958 C   0  0  0  0  0  0  0  0  0  0  0  0
  -27.4031  -22.6127   17.1502 C   0  0  0  0  0  0  0  0  0  0  0  0
  -22.4096  -27.5748   16.9947 C   0  0  0  0  0  0  0  0  0  0  0  0
  -23.0295  -28.1706   18.2423 C   0  0  0  0  0  0  0  0  0  1  0  0
  -24.8362  -29.6979   25.3865 C   0  0  1  0  0  0  0  0  0  0  0  0
  -24.7523  -33.4869   25.4626 C   0  0  2  0  0  0  0  0  0  0  0  0
  -24.1463  -28.8648   26.5035 C   0  0  0  0  0  0  0  0  0  0  0  0
  -26.7199  -15.5902   20.4156 N   0  0  0  0  0  0  0  0  0  0  0  0
  -27.9167  -16.1935   20.5139 N   0  0  0  0  0  0  0  0  0  0  0  0
  -26.4221  -28.7626   23.7330 N   0  0  0  0  0  0  0  0  0  0  0  0
  -26.9799  -19.7543   19.4980 N   0  0  0  0  0  0  0  0  0  0  0  0
  -30.2309  -15.7662   20.7833 N   0  0  0  0  0  0  0  0  0  0  0  0
  -22.1893  -24.8110   17.7864 N   0  0  0  0  0  0  0  0  0  0  0  0
  -28.4008  -11.6374   20.7943 N   0  0  0  0  0  0  0  0  0  0  0  0
  -28.4939  -25.7993   23.2614 N   0  0  0  0  0  0  0  0  0  0  0  0
  -24.9937  -31.1124   25.7070 N   0  0  0  0  0  0  0  0  0  0  0  0
  -27.2184  -21.7985   18.3308 N   0  0  0  0  0  0  0  0  0  0  0  0
  -23.2616  -26.4810   16.5215 N   0  3  0  0  0  0  0  0  0  0  0  0
  -24.9201  -34.4611   24.3474 N   0  3  0  0  0  0  0  0  0  0  0  0
  -30.3689  -12.8022   20.9638 O   0  0  0  0  0  0  0  0  0  0  0  0
  -26.2533  -26.2117   23.7432 O   0  0  0  0  0  0  0  0  0  0  0  0
  -27.0816  -29.1635   25.9331 O   0  0  0  0  0  0  0  0  0  0  0  0
  -23.8044  -31.9194   23.8872 O   0  0  0  0  0  0  0  0  0  0  0  0
  -27.2567  -19.8071   17.1960 O   0  0  0  0  0  0  0  0  0  0  0  0
  -22.9868  -10.4335   20.2710 O   0  0  0  0  0  0  0  0  0  0  0  0
  -24.3311  -28.6654   17.9303 O   0  0  0  0  0  0  0  0  0  1  0  0
  -23.1289   -6.3380   23.9603 F   0  0  0  0  0  0  0  0  0  0  0  0
  -20.8917  -10.0361   22.0304 F   0  0  0  0  0  0  0  0  0  0  0  0
  -24.1326  -21.7418   13.2193 Cl  0  0  0  0  0  0  0  0  0  0  0  0
  1  2  1  0  0  0  0
  1  5  2  0  0  0  0
  2  6  2  0  0  0  0
  3  8  2  0  0  0  0
  3 17  1  0  0  0  0
  4  9  1  0  0  0  0
  4 17  2  0  0  0  0
  5 20  1  0  0  0  0
  6 22  1  0  0  0  0
  7 10  2  0  0  0  0
  7 21  1  0  0  0  0
  8 26  1  0  0  0  0
  9 26  2  0  0  0  0
 10 27  1  0  0  0  0
 11 12  2  0  0  0  0
 11 28  1  0  0  0  0
 12 29  1  0  0  0  0
 13 18  1  0  0  0  0
 13 31  2  0  0  0  0
 14 23  1  0  0  0  0
 14 27  2  0  0  0  0
 15 24  2  0  0  0  0
 15 31  1  0  0  0  0
 16 29  2  0  0  0  0
 16 30  1  0  0  0  0
 17 32  1  0  0  0  0
 18 25  2  0  0  0  0
 18 34  1  0  0  0  0
 19 32  1  0  0  0  0
 19 33  2  0  0  0  0
 19 35  1  0  0  0  0
 20 22  2  0  0  0  0
 20 40  1  0  0  0  0
 21 23  2  0  0  0  0
 21 41  1  0  0  0  0
 22 49  1  0  0  0  0
 23 42  1  0  0  0  0
 24 25  1  0  0  0  0
 24 58  1  0  0  0  0
 25 52  1  0  0  0  0
 26 81  1  0  0  0  0
 27 82  1  0  0  0  0
 28 30  2  0  0  0  0
 28 81  1  0  0  0  0
 29 83  1  0  0  0  0
 30 84  1  0  0  0  0
 31 85  1  0  0  0  0
 32 64  2  0  0  0  0
 33 65  1  0  0  0  0
 33 68  1  0  0  0  0
 34 69  1  0  0  0  0
 34 74  2  0  0  0  0
 35 70  1  0  0  0  0
 35 76  2  0  0  0  0
 36 50  1  0  0  0  0
 36 71  1  0  0  0  0
 36 77  2  0  0  0  0
 37 61  1  0  0  0  0
 37 66  1  0  0  0  0
 37 78  2  0  0  0  0
 38 62  1  0  0  0  0
 38 72  1  0  0  0  0
 38 79  2  0  0  0  0
 39 67  1  0  0  0  0
 39 73  1  0  0  0  0
 39 80  2  0  0  0  0
 40 43  1  0  0  0  0
 41 50  1  0  0  0  0
 42 66  1  0  0  0  0
 43 45  1  0  0  0  0
 44 46  1  0  0  0  0
 44 47  1  0  0  0  0
 45 49  1  0  0  0  0
 46 51  1  0  0  0  0
 47 67  1  0  0  0  0
 48 51  1  0  0  0  0
 48 67  1  0  0  0  0
 49 71  1  0  0  0  0
 50 66  1  0  0  0  0
 51 65  1  0  0  0  0
 53 62  1  0  0  0  0
 54 63  1  0  0  0  0
 55 63  1  0  0  0  0
 56 63  1  0  0  0  0
 57 75  1  0  0  0  0
 58 73  1  0  0  0  0
 59 60  1  0  0  0  0
 59 74  1  0  0  0  0
 60 82  1  0  0  0  0
 61 63  1  0  0  0  0
 61 72  1  0  0  0  0
 62 75  1  0  0  0  0
 64 65  1  0  0  0  0
M  CHG  2  74   1  75   1
M  ISO  4  39 100  60 101  73 100  82 101
M  END
> <Batch ID>
0039

> <Smiles>
CNC(C)C(=O)NC(C(=O)N1Cc2cc([101O:1][101CH2:1]CNC(=N)c3cc(Cl)cc(C[100NH:0][100C:0](=O)N4CCCC(n5nc(-c6ccc(Oc7ccc(F)cc7F)cc6)c(C(N)=O)c5N)C4)c3C)ccc2CC1C(=O)NC1CCCc2ccccc21)C(C)(C)C

> <Shape>
0.215

> <Color>
0.062

> <Negative vol penalty>
0.000

$$$$

  -OEChem-04042322043D

 86 94  0     1  0  0  0  0  0999 V2000
  -31.3877  -26.6946   16.9901 C   0  0  0  0  0  0  0  0  0  0  0  0
  -30.0038  -26.5523   16.9933 C   0  0  0  0  0  0  0  0  0  0  0  0
  -28.9931  -18.0217   20.3044 C   0  0  0  0  0  0  0  0  0  0  0  0
  -26.6475  -18.2474   19.7716 C   0  0  0  0  0  0  0  0  0  0  0  0
  -32.0472  -27.1112   18.1457 C   0  0  0  0  0  0  0  0  0  0  0  0
  -29.2787  -26.8255   18.1525 C   0  0  0  0  0  0  0  0  0  0  0  0
  -23.6688  -29.2578   18.4984 C   0  0  0  0  0  0  0  0  0  0  0  0
  -29.0245  -16.7925   19.6459 C   0  0  0  0  0  0  0  0  0  0  0  0
  -26.6788  -17.0181   19.1130 C   0  0  0  0  0  0  0  0  0  0  0  0
  -22.4082  -28.6876   18.6707 C   0  0  0  0  0  0  0  0  0  0  0  0
  -28.1125  -13.6012   20.2845 C   0  0  0  0  0  0  0  0  0  0  0  0
  -28.7661  -12.5441   20.9177 C   0  0  0  0  0  0  0  0  0  0  0  0
  -22.5436  -29.1188   21.0402 C   0  0  0  0  0  0  0  0  0  0  0  0
  -20.6086  -24.6803   23.9617 C   0  0  0  0  0  0  0  0  0  0  0  0
  -30.2891  -12.3673   19.0505 C   0  0  0  0  0  0  0  0  0  0  0  0
  -27.8046  -18.7492   20.3673 C   0  0  0  0  0  0  0  0  0  0  0  0
  -28.0196  -21.2880   20.4919 C   0  0  0  0  0  0  0  0  0  0  0  0
  -31.3288  -27.3989   19.3169 C   0  0  0  0  0  0  0  0  0  0  0  0
  -24.3821  -29.7537   19.5992 C   0  0  0  0  0  0  0  0  0  0  0  0
  -29.9293  -27.2451   19.3253 C   0  0  0  0  0  0  0  0  0  0  0  0
  -23.8119  -29.6971   20.8790 C   0  0  0  0  0  0  0  0  0  0  0  0
  -20.0825  -23.8491   22.9729 C   0  0  0  0  0  0  0  0  0  0  0  0
  -20.2927  -22.4715   23.0353 C   0  0  0  0  0  0  0  0  0  0  0  0
  -21.5553  -22.7566   25.0753 C   0  0  0  0  0  0  0  0  0  0  0  0
  -27.8674  -16.2907   19.0501 C   0  0  0  0  0  0  0  0  0  0  0  0
  -21.8467  -28.6155   19.9421 C   0  0  0  0  0  0  0  0  0  0  0  0
  -28.5471  -14.0413   19.0343 C   0  0  0  0  0  0  0  0  0  0  0  0
  -29.8544  -11.9272   20.3007 C   0  0  0  0  0  0  0  0  0  0  0  0
  -29.6354  -13.4244   18.4173 C   0  0  0  0  0  0  0  0  0  0  0  0
  -21.3451  -24.1341   25.0129 C   0  0  0  0  0  0  0  0  0  0  0  0
  -21.0291  -21.9253   24.0865 C   0  0  0  0  0  0  0  0  0  0  0  0
  -27.7714  -20.0187   21.0479 C   0  0  0  0  0  0  0  0  0  0  0  0
  -27.8639  -22.1593   21.5423 C   0  0  0  0  0  0  0  0  0  0  0  0
  -28.3602  -21.6474   19.1464 C   0  0  0  0  0  0  0  0  0  0  0  0
  -27.1577  -29.0459   20.9771 C   0  0  0  0  0  0  0  0  0  0  0  0
  -26.4909  -31.6654   22.7704 C   0  0  0  0  0  0  0  0  0  0  0  0
  -24.1378  -33.7953   24.0249 C   0  0  0  0  0  0  0  0  0  0  0  0
  -24.7680  -21.8659   26.6589 C   0  0  0  0  0  0  0  0  0  0  0  0
  -32.0902  -27.8006   20.5553 C   0  0  0  0  0  0  0  0  0  0  0  0
  -25.7294  -30.3899   19.3930 C   0  0  0  0  0  0  0  0  0  0  0  0
  -24.5279  -30.2336   22.0906 C   0  0  0  0  0  0  0  0  0  0  0  0
  -31.2115  -28.4307   21.6329 C   0  0  0  0  0  0  0  0  0  0  0  0
  -28.2709  -22.3950   26.3035 C   0  0  0  0  0  0  0  0  0  0  0  0
  -29.9447  -27.6061   21.8383 C   0  0  0  0  0  0  0  0  0  0  0  0
  -28.5625  -21.9605   24.8661 C   0  0  0  0  0  0  0  0  0  0  0  0
  -27.2029  -21.5175   26.9527 C   0  0  0  0  0  0  0  0  0  0  0  0
  -26.2374  -20.9707   24.7521 C   0  0  0  0  0  0  0  0  0  0  0  0
  -29.1053  -27.5558   20.5560 C   0  0  1  0  0  0  0  0  0  0  0  0
  -26.5860  -30.3977   20.6554 C   0  0  1  0  0  0  0  0  0  0  0  0
  -27.2680  -21.8610   24.0369 C   0  0  2  0  0  0  0  0  0  0  0  0
  -18.2213  -21.3767   22.1425 C   0  0  0  0  0  0  0  0  0  0  0  0
  -23.8928  -35.8187   25.4889 C   0  0  0  0  0  0  0  0  0  0  0  0
  -26.9038  -29.9243   25.2418 C   0  0  0  0  0  0  0  0  0  0  0  0
  -25.7439  -31.6858   26.5909 C   0  0  0  0  0  0  0  0  0  0  0  0
  -27.8751  -32.2227   25.4108 C   0  0  0  0  0  0  0  0  0  0  0  0
  -22.9876  -35.3964   21.8176 C   0  0  0  0  0  0  0  0  0  0  0  0
  -19.7185  -21.5984   21.9627 C   0  0  0  0  0  0  0  0  0  0  0  0
  -22.3473  -22.1750   26.2071 C   0  0  0  0  0  0  0  0  0  0  0  0
  -19.2946  -24.4639   21.8539 C   0  0  0  0  0  0  0  0  0  0  0  0
  -19.3457  -26.0279   19.9071 C   0  0  0  0  0  0  0  0  0  0  0  0
  -20.2368  -27.0300   19.2001 C   0  0  0  0  0  0  0  0  0  1  0  0
  -25.7566  -31.9158   24.0654 C   0  0  1  0  0  0  0  0  0  0  0  0
  -24.0713  -35.3113   24.0664 C   0  0  2  0  0  0  0  0  0  0  0  0
  -26.5569  -31.4252   25.3049 C   0  0  0  0  0  0  0  0  0  0  0  0
  -27.4804  -20.0742   22.3503 N   0  0  0  0  0  0  0  0  0  0  0  0
  -27.5448  -21.3888   22.6215 N   0  0  0  0  0  0  0  0  0  0  0  0
  -25.8453  -30.8406   21.8383 N   0  0  0  0  0  0  0  0  0  0  0  0
  -26.0008  -21.4665   26.1170 N   0  0  0  0  0  0  0  0  0  0  0  0
  -27.9704  -23.5016   21.6387 N   0  0  0  0  0  0  0  0  0  0  0  0
  -28.4796  -20.6277   18.1923 N   0  0  0  0  0  0  0  0  0  0  0  0
  -28.3778  -28.7943   20.3792 N   0  0  0  0  0  0  0  0  0  0  0  0
  -25.4377  -33.3393   24.0852 N   0  0  0  0  0  0  0  0  0  0  0  0
  -23.6802  -21.7925   25.7974 N   0  0  0  0  0  0  0  0  0  0  0  0
  -22.9285  -35.8022   23.2454 N   0  3  0  0  0  0  0  0  0  0  0  0
  -20.0800  -25.4462   21.0589 N   0  3  0  0  0  0  0  0  0  0  0  0
  -28.5691  -22.8360   18.8040 O   0  0  0  0  0  0  0  0  0  0  0  0
  -26.5385  -28.2879   21.7145 O   0  0  0  0  0  0  0  0  0  0  0  0
  -27.5933  -32.1884   22.5894 O   0  0  0  0  0  0  0  0  0  0  0  0
  -23.1366  -33.0863   23.9504 O   0  0  0  0  0  0  0  0  0  0  0  0
  -24.6466  -22.2637   27.8225 O   0  0  0  0  0  0  0  0  0  0  0  0
  -27.8977  -15.0914   18.4073 O   0  0  0  0  0  0  0  0  0  0  0  0
  -20.6167  -28.0589   20.1130 O   0  0  0  0  0  0  0  0  0  1  0  0
  -30.4829  -10.9131   20.9096 F   0  0  0  0  0  0  0  0  0  0  0  0
  -30.0583  -13.8436   17.2167 F   0  0  0  0  0  0  0  0  0  0  0  0
  -21.9780  -25.2004   26.2152 Cl  0  0  0  0  0  0  0  0  0  0  0  0
  -21.2888  -20.2130   24.1615 Cl  0  0  0  0  0  0  0  0  0  0  0  0
  1  2  1  0  0  0  0
  1  5  2  0  0  0  0
  2  6  2  0  0  0  0
  3  8  2  0  0  0  0
  3 16  1  0  0  0  0
  4  9  1  0  0  0  0
  4 16  2  0  0  0  0
  5 18  1  0  0  0  0
  6 20  1  0  0  0  0
  7 10  2  0  0  0  0
  7 19  1  0  0  0  0
  8 25  1  0  0  0  0
  9 25  2  0  0  0  0
 10 26  1  0  0  0  0
 11 12  2  0  0  0  0
 11 27  1  0  0  0  0
 12 28  1  0  0  0  0
 13 21  1  0  0  0  0
 13 26  2  0  0  0  0
 14 22  2  0  0  0  0
 14 30  1  0  0  0  0
 15 28  2  0  0  0  0
 15 29  1  0  0  0  0
 16 32  1  0  0  0  0
 17 32  1  0  0  0  0
 17 33  2  0  0  0  0
 17 34  1  0  0  0  0
 18 20  2  0  0  0  0
 18 39  1  0  0  0  0
 19 21  2  0  0  0  0
 19 40  1  0  0  0  0
 20 48  1  0  0  0  0
 21 41  1  0  0  0  0
 22 23  1  0  0  0  0
 22 59  1  0  0  0  0
 23 31  2  0  0  0  0
 23 57  1  0  0  0  0
 24 30  2  0  0  0  0
 24 31  1  0  0  0  0
 24 58  1  0  0  0  0
 25 81  1  0  0  0  0
 26 82  1  0  0  0  0
 27 29  2  0  0  0  0
 27 81  1  0  0  0  0
 28 83  1  0  0  0  0
 29 84  1  0  0  0  0
 30 85  1  0  0  0  0
 31 86  1  0  0  0  0
 32 65  2  0  0  0  0
 33 66  1  0  0  0  0
 33 69  1  0  0  0  0
 34 70  1  0  0  0  0
 34 76  2  0  0  0  0
 35 49  1  0  0  0  0
 35 71  1  0  0  0  0
 35 77  2  0  0  0  0
 36 62  1  0  0  0  0
 36 67  1  0  0  0  0
 36 78  2  0  0  0  0
 37 63  1  0  0  0  0
 37 72  1  0  0  0  0
 37 79  2  0  0  0  0
 38 68  1  0  0  0  0
 38 73  1  0  0  0  0
 38 80  2  0  0  0  0
 39 42  1  0  0  0  0
 40 49  1  0  0  0  0
 41 67  1  0  0  0  0
 42 44  1  0  0  0  0
 43 45  1  0  0  0  0
 43 46  1  0  0  0  0
 44 48  1  0  0  0  0
 45 50  1  0  0  0  0
 46 68  1  0  0  0  0
 47 50  1  0  0  0  0
 47 68  1  0  0  0  0
 48 71  1  0  0  0  0
 49 67  1  0  0  0  0
 50 66  1  0  0  0  0
 51 57  1  0  0  0  0
 52 63  1  0  0  0  0
 53 64  1  0  0  0  0
 54 64  1  0  0  0  0
 55 64  1  0  0  0  0
 56 74  1  0  0  0  0
 58 73  1  0  0  0  0
 59 75  1  0  0  0  0
 60 61  1  0  0  0  0
 60 75  1  0  0  0  0
 61 82  1  0  0  0  0
 62 64  1  0  0  0  0
 62 72  1  0  0  0  0
 63 74  1  0  0  0  0
 65 66  1  0  0  0  0
M  CHG  2  74   1  75   1
M  ISO  4  38 100  61 101  73 100  82 101
M  END
> <Batch ID>
0039

> <Smiles>
CCc1c(CNC[101CH2:1][101O:1]c2ccc3c(c2)CN(C(=O)C(NC(=O)C(C)NC)C(C)(C)C)C(C(=O)NC2CCCc4ccccc42)C3)cc(Cl)c(C[100NH:0][100C:0](=O)N2CCCC(n3nc(-c4ccc(Oc5ccc(F)cc5F)cc4)c(C(N)=O)c3N)C2)c1Cl

> <Shape>
0.268

> <Color>
0.086

> <Negative vol penalty>
0.000

$$$$

  -OEChem-04042322043D

 90 99  0     1  0  0  0  0  0999 V2000
  -23.0494  -32.0809   25.9929 C   0  0  0  0  0  0  0  0  0  0  0  0
  -23.9045  -31.1549   25.4039 C   0  0  0  0  0  0  0  0  0  0  0  0
  -24.3984  -10.3957   21.3999 C   0  0  0  0  0  0  0  0  0  0  0  0
  -22.6309  -11.8297   20.5896 C   0  0  0  0  0  0  0  0  0  0  0  0
  -21.6688  -31.9265   25.8750 C   0  0  0  0  0  0  0  0  0  0  0  0
  -23.3793  -30.0734   24.6976 C   0  0  0  0  0  0  0  0  0  0  0  0
  -25.7594  -29.2863   20.2975 C   0  0  0  0  0  0  0  0  0  0  0  0
  -23.5160   -9.3155   21.4133 C   0  0  0  0  0  0  0  0  0  0  0  0
  -21.7484  -10.7495   20.6029 C   0  0  0  0  0  0  0  0  0  0  0  0
  -26.9956  -28.6435   20.3484 C   0  0  0  0  0  0  0  0  0  0  0  0
  -21.0444   -8.1433   23.3986 C   0  0  0  0  0  0  0  0  0  0  0  0
  -21.0514   -7.3155   24.5212 C   0  0  0  0  0  0  0  0  0  0  0  0
  -25.9358  -26.5689   19.7222 C   0  0  0  0  0  0  0  0  0  0  0  0
  -27.2027  -22.5254   18.3662 C   0  0  0  0  0  0  0  0  0  0  0  0
  -21.6423   -5.4318   23.1286 C   0  0  0  0  0  0  0  0  0  0  0  0
  -23.9558  -11.6528   20.9882 C   0  0  0  0  0  0  0  0  0  0  0  0
  -26.0620  -12.8821   20.2396 C   0  0  0  0  0  0  0  0  0  0  0  0
  -21.1265  -30.8479   25.1587 C   0  0  0  0  0  0  0  0  0  0  0  0
  -24.5986  -28.5717   19.9687 C   0  0  0  0  0  0  0  0  0  0  0  0
  -21.9900  -29.9037   24.5711 C   0  0  0  0  0  0  0  0  0  0  0  0
  -24.6865  -27.2055   19.6653 C   0  0  0  0  0  0  0  0  0  0  0  0
  -28.5406  -22.3146   18.0325 C   0  0  0  0  0  0  0  0  0  0  0  0
  -29.1806  -21.1394   18.4260 C   0  0  0  0  0  0  0  0  0  0  0  0
  -27.1450  -20.3858   19.4868 C   0  0  0  0  0  0  0  0  0  0  0  0
  -22.1910   -9.4924   21.0148 C   0  0  0  0  0  0  0  0  0  0  0  0
  -27.0835  -27.2840   20.0635 C   0  0  0  0  0  0  0  0  0  0  0  0
  -21.3363   -7.6153   22.1409 C   0  0  0  0  0  0  0  0  0  0  0  0
  -21.3504   -5.9598   24.3863 C   0  0  0  0  0  0  0  0  0  0  0  0
  -21.6353   -6.2595   22.0059 C   0  0  0  0  0  0  0  0  0  0  0  0
  -26.5049  -21.5610   19.0934 C   0  0  0  0  0  0  0  0  0  0  0  0
  -28.4829  -20.1749   19.1531 C   0  0  0  0  0  0  0  0  0  0  0  0
  -24.8667  -12.7691   20.9747 C   0  0  0  0  0  0  0  0  0  0  0  0
  -26.5528  -14.1215   20.5707 C   0  0  0  0  0  0  0  0  0  0  0  0
  -30.9180  -25.1437   17.2818 C   0  0  0  0  0  0  0  0  0  0  0  0
  -34.1472  -23.4204   16.9856 C   0  0  0  0  0  0  0  0  0  0  0  0
  -32.1910  -24.8862   16.9454 C   0  0  0  0  0  0  0  0  0  0  0  0
  -32.8779  -23.6766   17.3213 C   0  0  0  0  0  0  0  0  0  0  0  0
  -26.6739  -11.9502   19.3381 C   0  0  0  0  0  0  0  0  0  0  0  0
  -21.8766  -27.9020   21.4674 C   0  0  0  0  0  0  0  0  0  0  0  0
  -21.0590  -26.6378   18.5942 C   0  0  0  0  0  0  0  0  0  0  0  0
  -22.6545  -24.6462   16.0436 C   0  0  0  0  0  0  0  0  0  0  0  0
  -25.8242  -19.5679   21.4699 C   0  0  0  0  0  0  0  0  0  0  0  0
  -19.6271  -30.6969   25.0987 C   0  0  0  0  0  0  0  0  0  0  0  0
  -23.2768  -29.2854   19.8921 C   0  0  0  0  0  0  0  0  0  0  0  0
  -23.4731  -26.3975   19.2870 C   0  0  0  0  0  0  0  0  0  0  0  0
  -30.2050  -26.4083   16.8869 C   0  0  0  0  0  0  0  0  0  0  0  0
  -19.1552  -29.7297   24.0160 C   0  0  0  0  0  0  0  0  0  0  0  0
  -29.5597  -27.0561   18.1060 C   0  0  0  0  0  0  0  0  0  0  0  0
  -25.1320  -17.3694   24.1837 C   0  0  0  0  0  0  0  0  0  0  0  0
  -19.9776  -28.4455   24.0521 C   0  0  0  0  0  0  0  0  0  0  0  0
  -25.0996  -15.9859   23.5303 C   0  0  0  0  0  0  0  0  0  0  0  0
  -24.5368  -18.4412   23.2722 C   0  0  0  0  0  0  0  0  0  0  0  0
  -25.0798  -17.1141   21.2689 C   0  0  0  0  0  0  0  0  0  0  0  0
  -29.5979  -24.8296   19.2919 C   0  0  0  0  0  0  0  0  0  0  0  0
  -21.4587  -28.7310   23.7759 C   0  0  1  0  0  0  0  0  0  0  0  0
  -22.0823  -28.3493   20.0478 C   0  0  1  0  0  0  0  0  0  0  0  0
  -25.7280  -16.0124   22.1232 C   0  0  2  0  0  0  0  0  0  0  0  0
  -28.7498  -26.0408   18.9122 C   0  0  1  0  0  0  0  0  0  1  0  0
  -30.6179  -20.9358   18.0571 C   0  0  0  0  0  0  0  0  0  0  0  0
  -22.2120  -24.4935   13.5781 C   0  0  0  0  0  0  0  0  0  0  0  0
  -19.2745  -24.2824   19.3542 C   0  0  0  0  0  0  0  0  0  0  0  0
  -20.0653  -23.1070   17.2899 C   0  0  0  0  0  0  0  0  0  0  0  0
  -18.8125  -25.2555   17.0972 C   0  0  0  0  0  0  0  0  0  0  0  0
  -25.4671  -25.2865   15.3814 C   0  0  0  0  0  0  0  0  0  0  0  0
  -29.2668  -23.3692   17.2507 C   0  0  0  0  0  0  0  0  0  0  0  0
  -21.1940  -25.2812   17.9457 C   0  0  1  0  0  0  0  0  0  0  0  0
  -23.0814  -25.1104   14.6627 C   0  0  2  0  0  0  0  0  0  0  0  0
  -19.8552  -24.4906   17.9412 C   0  0  0  0  0  0  0  0  0  0  0  0
  -24.6137  -13.8503   21.7169 N   0  0  0  0  0  0  0  0  0  0  0  0
  -25.6568  -14.6545   21.4500 N   0  0  0  0  0  0  0  0  0  0  0  0
  -22.2025  -27.1392   19.2320 N   0  0  0  0  0  0  0  0  0  0  0  0
  -25.1836  -18.4096   21.9586 N   0  0  0  0  0  0  0  0  0  0  0  0
  -27.6592  -14.7963   20.1927 N   0  0  0  0  0  0  0  0  0  0  0  0
  -26.3349  -12.0139   17.9796 N   0  0  0  0  0  0  0  0  0  0  0  0
  -26.4319  -19.4089   20.2249 N   0  0  0  0  0  0  0  0  0  0  0  0
  -21.6782  -28.9377   22.3604 N   0  0  0  0  0  0  0  0  0  0  0  0
  -21.7533  -25.5168   16.6190 N   0  0  0  0  0  0  0  0  0  0  0  0
  -30.2255  -24.1687   18.0890 N   0  3  1  0  0  0  0  0  0  0  0  0
  -24.4984  -24.7285   14.4030 N   0  3  0  0  0  0  0  0  0  0  0  0
  -27.4845  -11.0760   19.7282 O   0  0  0  0  0  0  0  0  0  0  0  0
  -21.8950  -26.7058   21.7327 O   0  0  0  0  0  0  0  0  0  0  0  0
  -19.9809  -27.2338   18.5307 O   0  0  0  0  0  0  0  0  0  0  0  0
  -23.0753  -23.6127   16.5585 O   0  0  0  0  0  0  0  0  0  0  0  0
  -25.8564  -20.6153   22.1210 O   0  0  0  0  0  0  0  0  0  0  0  0
  -21.3297   -8.4385   21.0274 O   0  0  0  0  0  0  0  0  0  0  0  0
  -28.2887  -26.6540   20.1130 O   0  0  0  0  0  0  0  0  0  1  0  0
  -21.3586   -5.1653   25.4647 F   0  0  0  0  0  0  0  0  0  0  0  0
  -21.9177   -5.7468   20.8005 F   0  0  0  0  0  0  0  0  0  0  0  0
  -24.8491  -21.8689   19.4822 Cl  0  0  0  0  0  0  0  0  0  0  0  0
  -29.2869  -18.7156   19.6390 Cl  0  0  0  0  0  0  0  0  0  0  0  0
  1  2  1  0  0  0  0
  1  5  2  0  0  0  0
  2  6  2  0  0  0  0
  3  8  2  0  0  0  0
  3 16  1  0  0  0  0
  4  9  1  0  0  0  0
  4 16  2  0  0  0  0
  5 18  1  0  0  0  0
  6 20  1  0  0  0  0
  7 10  2  0  0  0  0
  7 19  1  0  0  0  0
  8 25  1  0  0  0  0
  9 25  2  0  0  0  0
 10 26  1  0  0  0  0
 11 12  2  0  0  0  0
 11 27  1  0  0  0  0
 12 28  1  0  0  0  0
 13 21  1  0  0  0  0
 13 26  2  0  0  0  0
 14 22  1  0  0  0  0
 14 30  2  0  0  0  0
 15 28  2  0  0  0  0
 15 29  1  0  0  0  0
 16 32  1  0  0  0  0
 17 32  1  0  0  0  0
 17 33  2  0  0  0  0
 17 38  1  0  0  0  0
 18 20  2  0  0  0  0
 18 43  1  0  0  0  0
 19 21  2  0  0  0  0
 19 44  1  0  0  0  0
 20 55  1  0  0  0  0
 21 45  1  0  0  0  0
 22 23  2  0  0  0  0
 22 65  1  0  0  0  0
 23 31  1  0  0  0  0
 23 59  1  0  0  0  0
 24 30  1  0  0  0  0
 24 31  2  0  0  0  0
 24 75  1  0  0  0  0
 25 85  1  0  0  0  0
 26 86  1  0  0  0  0
 27 29  2  0  0  0  0
 27 85  1  0  0  0  0
 28 87  1  0  0  0  0
 29 88  1  0  0  0  0
 30 89  1  0  0  0  0
 31 90  1  0  0  0  0
 32 69  2  0  0  0  0
 33 70  1  0  0  0  0
 33 73  1  0  0  0  0
 34 36  2  0  0  0  0
 34 46  1  0  0  0  0
 34 78  1  0  0  0  0
 35 37  2  0  0  0  0
 36 37  1  0  0  0  0
 38 74  1  0  0  0  0
 38 80  2  0  0  0  0
 39 56  1  0  0  0  0
 39 76  1  0  0  0  0
 39 81  2  0  0  0  0
 40 66  1  0  0  0  0
 40 71  1  0  0  0  0
 40 82  2  0  0  0  0
 41 67  1  0  0  0  0
 41 77  1  0  0  0  0
 41 83  2  0  0  0  0
 42 72  1  0  0  0  0
 42 75  1  0  0  0  0
 42 84  2  0  0  0  0
 43 47  1  0  0  0  0
 44 56  1  0  0  0  0
 45 71  1  0  0  0  0
 46 48  1  0  0  0  0
 47 50  1  0  0  0  0
 48 58  1  0  0  0  0
 49 51  1  0  0  0  0
 49 52  1  0  0  0  0
 50 55  1  0  0  0  0
 51 57  1  0  0  0  0
 52 72  1  0  0  0  0
 53 57  1  0  0  0  0
 53 72  1  0  0  0  0
 54 58  1  0  0  0  0
 54 78  1  0  0  0  0
 55 76  1  0  0  0  0
 56 71  1  0  0  0  0
 57 70  1  0  0  0  0
 58 86  1  0  0  0  0
 60 67  1  0  0  0  0
 61 68  1  0  0  0  0
 62 68  1  0  0  0  0
 63 68  1  0  0  0  0
 64 79  1  0  0  0  0
 65 78  1  0  0  0  0
 66 68  1  0  0  0  0
 66 77  1  0  0  0  0
 67 79  1  0  0  0  0
 69 70  1  0  0  0  0
M  CHG  2  78   1  79   1
M  ISO  4  42 100  58 101  75 100  86 101
M  END
> <Batch ID>
0039

> <Smiles>
C=CC=C1CC[101CH:1]([101O:1]c2ccc3c(c2)CN(C(=O)C(NC(=O)C(C)NC)C(C)(C)C)C(C(=O)NC2CCCc4ccccc42)C3)CN1Cc1cc(Cl)c([100NH:0][100C:0](=O)N2CCCC(n3nc(-c4ccc(Oc5ccc(F)cc5F)cc4)c(C(N)=O)c3N)C2)c(Cl)c1C

> <Shape>
0.266

> <Color>
0.060

> <Negative vol penalty>
0.000

$$$$

  -OEChem-04042322043D

 90 99  0     1  0  0  0  0  0999 V2000
  -19.1608  -24.4474   24.2388 C   0  0  0  0  0  0  0  0  0  0  0  0
  -20.4937  -24.4155   23.8418 C   0  0  0  0  0  0  0  0  0  0  0  0
  -24.0100  -17.3151   24.7315 C   0  0  0  0  0  0  0  0  0  0  0  0
  -24.7802  -18.1923   22.6162 C   0  0  0  0  0  0  0  0  0  0  0  0
  -18.3902  -25.5844   23.9992 C   0  0  0  0  0  0  0  0  0  0  0  0
  -21.0566  -25.5204   23.2040 C   0  0  0  0  0  0  0  0  0  0  0  0
  -25.6413  -26.6815   25.0143 C   0  0  0  0  0  0  0  0  0  0  0  0
  -24.5619  -18.4148   25.3885 C   0  0  0  0  0  0  0  0  0  0  0  0
  -25.3321  -19.2920   23.2732 C   0  0  0  0  0  0  0  0  0  0  0  0
  -26.7121  -25.8980   24.5862 C   0  0  0  0  0  0  0  0  0  0  0  0
  -23.7592  -21.6548   25.9280 C   0  0  0  0  0  0  0  0  0  0  0  0
  -22.9843  -22.2838   26.9024 C   0  0  0  0  0  0  0  0  0  0  0  0
  -27.3162  -27.6049   22.9922 C   0  0  0  0  0  0  0  0  0  0  0  0
  -32.1064  -16.4926   21.2069 C   0  0  0  0  0  0  0  0  0  0  0  0
  -29.7997  -16.1971   20.5520 C   0  0  0  0  0  0  0  0  0  0  0  0
  -24.6767  -21.8035   28.5584 C   0  0  0  0  0  0  0  0  0  0  0  0
  -24.1192  -17.2038   23.3453 C   0  0  0  0  0  0  0  0  0  0  0  0
  -22.1978  -15.6758   22.6519 C   0  0  0  0  0  0  0  0  0  0  0  0
  -18.9466  -26.7073   23.3668 C   0  0  0  0  0  0  0  0  0  0  0  0
  -25.3930  -27.9300   24.4260 C   0  0  0  0  0  0  0  0  0  0  0  0
  -20.2924  -26.6730   22.9545 C   0  0  0  0  0  0  0  0  0  0  0  0
  -26.2431  -28.4035   23.4164 C   0  0  0  0  0  0  0  0  0  0  0  0
  -30.9268  -17.0101   20.6718 C   0  0  0  0  0  0  0  0  0  0  0  0
  -32.1590  -15.1620   21.6221 C   0  0  0  0  0  0  0  0  0  0  0  0
  -29.8523  -14.8664   20.9673 C   0  0  0  0  0  0  0  0  0  0  0  0
  -25.2229  -19.4033   24.6594 C   0  0  0  0  0  0  0  0  0  0  0  0
  -27.5480  -26.3583   23.5731 C   0  0  0  0  0  0  0  0  0  0  0  0
  -24.9929  -21.1001   26.2688 C   0  0  0  0  0  0  0  0  0  0  0  0
  -23.4431  -22.3581   28.2176 C   0  0  0  0  0  0  0  0  0  0  0  0
  -25.4516  -21.1744   27.5840 C   0  0  0  0  0  0  0  0  0  0  0  0
  -31.0319  -14.3489   21.5024 C   0  0  0  0  0  0  0  0  0  0  0  0
  -23.5498  -16.0678   22.6661 C   0  0  0  0  0  0  0  0  0  0  0  0
  -22.1763  -14.5454   21.8720 C   0  0  0  0  0  0  0  0  0  0  0  0
  -29.7716  -22.3118   22.2385 C   0  0  0  0  0  0  0  0  0  0  0  0
  -29.7986  -20.5979   20.4410 C   0  0  0  0  0  0  0  0  0  0  0  0
  -29.0480  -20.8063   19.3449 C   0  0  0  0  0  0  0  0  0  0  0  0
  -29.2321  -23.5385   22.1540 C   0  0  0  0  0  0  0  0  0  0  0  0
  -21.0628  -16.2795   23.2867 C   0  0  0  0  0  0  0  0  0  0  0  0
  -22.9884  -29.1934   22.7751 C   0  0  0  0  0  0  0  0  0  0  0  0
  -24.7520  -31.9041   23.0284 C   0  0  0  0  0  0  0  0  0  0  0  0
  -26.3662  -34.9026   22.8043 C   0  0  0  0  0  0  0  0  0  0  0  0
  -27.4450  -14.4539   20.3163 C   0  0  0  0  0  0  0  0  0  0  0  0
  -18.0613  -27.8958   23.0869 C   0  0  0  0  0  0  0  0  0  0  0  0
  -24.2498  -28.7749   24.9175 C   0  0  0  0  0  0  0  0  0  0  0  0
  -26.0317  -29.7456   22.7664 C   0  0  0  0  0  0  0  0  0  0  0  0
  -30.5591  -21.7195   21.0967 C   0  0  0  0  0  0  0  0  0  0  0  0
  -29.6288  -21.4767   23.4852 C   0  0  0  0  0  0  0  0  0  0  0  0
  -18.8363  -29.1648   22.7417 C   0  0  0  0  0  0  0  0  0  0  0  0
  -29.0767  -20.0661   23.2454 C   0  0  0  0  0  0  0  0  0  0  0  0
  -25.4806  -11.1777   20.8398 C   0  0  0  0  0  0  0  0  0  0  0  0
  -19.9288  -28.8621   21.7211 C   0  0  0  0  0  0  0  0  0  0  0  0
  -24.3064  -11.9498   21.4281 C   0  0  0  0  0  0  0  0  0  0  0  0
  -26.7287  -12.0556   20.8085 C   0  0  0  0  0  0  0  0  0  0  0  0
  -25.1660  -13.6635   19.7108 C   0  0  0  0  0  0  0  0  0  0  0  0
  -30.0332  -19.1686   22.4604 C   0  0  0  0  0  0  0  0  0  0  0  0
  -20.9458  -27.8609   22.2821 C   0  0  1  0  0  0  0  0  0  0  0  0
  -23.7845  -29.8051   23.8930 C   0  0  1  0  0  0  0  0  0  0  0  0
  -23.9912  -13.2138   20.6035 C   0  0  2  0  0  0  0  0  0  0  0  0
  -33.4447  -14.6508   22.1888 C   0  0  0  0  0  0  0  0  0  0  0  0
  -26.4458  -36.9988   21.4270 C   0  0  0  0  0  0  0  0  0  0  0  0
  -26.2551  -30.4044   20.8371 C   0  0  0  0  0  0  0  0  0  0  0  0
  -27.1105  -32.6081   20.0123 C   0  0  0  0  0  0  0  0  0  0  0  0
  -24.6599  -32.1421   20.0063 C   0  0  0  0  0  0  0  0  0  0  0  0
  -25.6261  -36.5905   25.1199 C   0  0  0  0  0  0  0  0  0  0  0  0
  -30.8706  -18.4416   20.2262 C   0  0  0  0  0  0  0  0  0  0  0  0
  -28.4434  -24.1793   23.2476 C   0  0  0  0  0  0  0  0  0  1  0  0
  -25.8378  -32.5539   22.2051 C   0  0  1  0  0  0  0  0  0  0  0  0
  -25.8430  -36.3189   22.6465 C   0  0  2  0  0  0  0  0  0  0  0  0
  -25.9704  -31.9190   20.7921 C   0  0  0  0  0  0  0  0  0  0  0  0
  -24.3306  -15.2525   21.9522 N   0  0  0  0  0  0  0  0  0  0  0  0
  -23.4665  -14.3369   21.4821 N   0  0  0  0  0  0  0  0  0  0  0  0
  -24.8966  -30.5319   23.2772 N   0  0  0  0  0  0  0  0  0  0  0  0
  -26.4778  -13.4178   20.3153 N   0  0  0  0  0  0  0  0  0  0  0  0
  -21.1798  -13.7192   21.4888 N   0  0  0  0  0  0  0  0  0  0  0  0
  -20.3434  -17.2545   22.5823 N   0  0  0  0  0  0  0  0  0  0  0  0
  -28.6867  -14.0710   20.8304 N   0  0  0  0  0  0  0  0  0  0  0  0
  -21.8556  -28.5216   23.1933 N   0  0  0  0  0  0  0  0  0  0  0  0
  -25.5412  -33.9823   22.1929 N   0  0  0  0  0  0  0  0  0  0  0  0
  -29.8303  -19.2502   20.9633 N   0  3  2  0  0  0  0  0  0  0  0  0
  -26.1765  -37.1314   23.8505 N   0  3  0  0  0  0  0  0  0  0  0  0
  -20.7073  -15.9756   24.4507 O   0  0  0  0  0  0  0  0  0  0  0  0
  -23.3726  -29.3227   21.6187 O   0  0  0  0  0  0  0  0  0  0  0  0
  -23.8139  -32.5903   23.4416 O   0  0  0  0  0  0  0  0  0  0  0  0
  -27.4049  -34.6394   23.4062 O   0  0  0  0  0  0  0  0  0  0  0  0
  -27.1863  -15.5818   19.8913 O   0  0  0  0  0  0  0  0  0  0  0  0
  -25.7614  -20.4766   25.3001 O   0  0  0  0  0  0  0  0  0  0  0  0
  -28.5935  -25.5952   23.1529 O   0  0  0  0  0  0  0  0  0  1  0  0
  -22.6995  -22.9635   29.1529 F   0  0  0  0  0  0  0  0  0  0  0  0
  -26.6365  -20.6444   27.9171 F   0  0  0  0  0  0  0  0  0  0  0  0
  -31.1040  -12.6959   22.0198 Cl  0  0  0  0  0  0  0  0  0  0  0  0
  1  2  1  0  0  0  0
  1  5  2  0  0  0  0
  2  6  2  0  0  0  0
  3  8  2  0  0  0  0
  3 17  1  0  0  0  0
  4  9  1  0  0  0  0
  4 17  2  0  0  0  0
  5 19  1  0  0  0  0
  6 21  1  0  0  0  0
  7 10  2  0  0  0  0
  7 20  1  0  0  0  0
  8 26  1  0  0  0  0
  9 26  2  0  0  0  0
 10 27  1  0  0  0  0
 11 12  2  0  0  0  0
 11 28  1  0  0  0  0
 12 29  1  0  0  0  0
 13 22  1  0  0  0  0
 13 27  2  0  0  0  0
 14 23  1  0  0  0  0
 14 24  2  0  0  0  0
 15 23  2  0  0  0  0
 15 25  1  0  0  0  0
 16 29  2  0  0  0  0
 16 30  1  0  0  0  0
 17 32  1  0  0  0  0
 18 32  1  0  0  0  0
 18 33  2  0  0  0  0
 18 38  1  0  0  0  0
 19 21  2  0  0  0  0
 19 43  1  0  0  0  0
 20 22  2  0  0  0  0
 20 44  1  0  0  0  0
 21 56  1  0  0  0  0
 22 45  1  0  0  0  0
 23 65  1  0  0  0  0
 24 31  1  0  0  0  0
 24 59  1  0  0  0  0
 25 31  2  0  0  0  0
 25 76  1  0  0  0  0
 26 86  1  0  0  0  0
 27 87  1  0  0  0  0
 28 30  2  0  0  0  0
 28 86  1  0  0  0  0
 29 88  1  0  0  0  0
 30 89  1  0  0  0  0
 31 90  1  0  0  0  0
 32 70  2  0  0  0  0
 33 71  1  0  0  0  0
 33 74  1  0  0  0  0
 34 37  2  0  0  0  0
 34 46  1  0  0  0  0
 34 47  1  0  0  0  0
 35 36  2  0  0  0  0
 35 46  1  0  0  0  0
 35 79  1  0  0  0  0
 37 66  1  0  0  0  0
 38 75  1  0  0  0  0
 38 81  2  0  0  0  0
 39 57  1  0  0  0  0
 39 77  1  0  0  0  0
 39 82  2  0  0  0  0
 40 67  1  0  0  0  0
 40 72  1  0  0  0  0
 40 83  2  0  0  0  0
 41 68  1  0  0  0  0
 41 78  1  0  0  0  0
 41 84  2  0  0  0  0
 42 73  1  0  0  0  0
 42 76  1  0  0  0  0
 42 85  2  0  0  0  0
 43 48  1  0  0  0  0
 44 57  1  0  0  0  0
 45 72  1  0  0  0  0
 47 49  1  0  0  0  0
 48 51  1  0  0  0  0
 49 55  1  0  0  0  0
 50 52  1  0  0  0  0
 50 53  1  0  0  0  0
 51 56  1  0  0  0  0
 52 58  1  0  0  0  0
 53 73  1  0  0  0  0
 54 58  1  0  0  0  0
 54 73  1  0  0  0  0
 55 79  1  0  0  0  0
 56 77  1  0  0  0  0
 57 72  1  0  0  0  0
 58 71  1  0  0  0  0
 60 68  1  0  0  0  0
 61 69  1  0  0  0  0
 62 69  1  0  0  0  0
 63 69  1  0  0  0  0
 64 80  1  0  0  0  0
 65 79  1  0  0  0  0
 66 87  1  0  0  0  0
 67 69  1  0  0  0  0
 67 78  1  0  0  0  0
 68 80  1  0  0  0  0
 70 71  1  0  0  0  0
M  CHG  2  79   1  80   1
M  ISO  4  42 100  66 101  76 100  87 101
M  END
> <Batch ID>
0039

> <Smiles>
C=C1CC(=C[101CH2:1][101O:1]c2ccc3c(c2)CN(C(=O)C(NC(=O)C(C)NC)C(C)(C)C)C(C(=O)NC2CCCc4ccccc42)C3)CCCN1Cc1cc(C)c(Cl)c([100NH:0][100C:0](=O)N2CCCC(n3nc(-c4ccc(Oc5ccc(F)cc5F)cc4)c(C(N)=O)c3N)C2)c1

> <Shape>
0.238

> <Color>
0.097

> <Negative vol penalty>
0.000

$$$$

  -OEChem-04042322043D

 86 94  0     1  0  0  0  0  0999 V2000
  -29.0326  -24.9723   16.9204 C   0  0  0  0  0  0  0  0  0  0  0  0
  -27.8297  -25.0288   17.6171 C   0  0  0  0  0  0  0  0  0  0  0  0
  -30.8451  -17.9157   20.5843 C   0  0  0  0  0  0  0  0  0  0  0  0
  -28.8950  -16.6588   19.9103 C   0  0  0  0  0  0  0  0  0  0  0  0
  -30.1534  -25.6405   17.4116 C   0  0  0  0  0  0  0  0  0  0  0  0
  -27.7473  -25.7528   18.8060 C   0  0  0  0  0  0  0  0  0  0  0  0
  -23.5737  -28.6100   19.0551 C   0  0  0  0  0  0  0  0  0  0  0  0
  -31.6284  -16.7686   20.4570 C   0  0  0  0  0  0  0  0  0  0  0  0
  -29.6783  -15.5117   19.7830 C   0  0  0  0  0  0  0  0  0  0  0  0
  -22.3789  -27.9656   19.3731 C   0  0  0  0  0  0  0  0  0  0  0  0
  -31.8438  -14.2128   17.5371 C   0  0  0  0  0  0  0  0  0  0  0  0
  -31.6612  -13.4282   16.3984 C   0  0  0  0  0  0  0  0  0  0  0  0
  -22.5855  -28.7214   21.6546 C   0  0  0  0  0  0  0  0  0  0  0  0
  -20.2674  -21.3160   24.0841 C   0  0  0  0  0  0  0  0  0  0  0  0
  -19.9601  -21.1276   21.3178 C   0  0  0  0  0  0  0  0  0  0  0  0
  -31.0470  -11.5513   17.7903 C   0  0  0  0  0  0  0  0  0  0  0  0
  -29.4783  -17.8608   20.3109 C   0  0  0  0  0  0  0  0  0  0  0  0
  -28.3948  -20.0030   19.4479 C   0  0  0  0  0  0  0  0  0  0  0  0
  -30.0821  -26.3810   18.6020 C   0  0  0  0  0  0  0  0  0  0  0  0
  -24.2901  -29.3070   20.0387 C   0  0  0  0  0  0  0  0  0  0  0  0
  -28.8685  -26.4305   19.3142 C   0  0  0  0  0  0  0  0  0  0  0  0
  -23.7878  -29.3760   21.3460 C   0  0  0  0  0  0  0  0  0  0  0  0
  -20.9397  -20.3214   23.3739 C   0  0  0  0  0  0  0  0  0  0  0  0
  -19.2878  -22.1222   22.0280 C   0  0  0  0  0  0  0  0  0  0  0  0
  -31.0450  -15.5666   20.0564 C   0  0  0  0  0  0  0  0  0  0  0  0
  -21.8862  -28.0188   20.6737 C   0  0  0  0  0  0  0  0  0  0  0  0
  -31.6281  -13.6667   18.8024 C   0  0  0  0  0  0  0  0  0  0  0  0
  -31.2627  -12.0975   16.5250 C   0  0  0  0  0  0  0  0  0  0  0  0
  -31.2297  -12.3360   18.9290 C   0  0  0  0  0  0  0  0  0  0  0  0
  -20.7860  -20.2272   21.9907 C   0  0  0  0  0  0  0  0  0  0  0  0
  -19.4414  -22.2164   23.4112 C   0  0  0  0  0  0  0  0  0  0  0  0
  -28.6685  -19.0452   20.4427 C   0  0  0  0  0  0  0  0  0  0  0  0
  -27.5861  -20.9226   20.0698 C   0  0  0  0  0  0  0  0  0  0  0  0
  -28.8324  -20.0565   18.0836 C   0  0  0  0  0  0  0  0  0  0  0  0
  -27.1795  -29.0238   21.3328 C   0  0  0  0  0  0  0  0  0  0  0  0
  -26.3643  -31.7963   22.8062 C   0  0  0  0  0  0  0  0  0  0  0  0
  -19.5828  -25.2753   21.1021 C   0  0  0  0  0  0  0  0  0  0  0  0
  -23.8904  -33.8729   23.9082 C   0  0  0  0  0  0  0  0  0  0  0  0
  -23.8887  -20.5842   24.7672 C   0  0  0  0  0  0  0  0  0  0  0  0
  -31.3326  -27.0476   19.1183 C   0  0  0  0  0  0  0  0  0  0  0  0
  -25.5635  -30.0193   19.6734 C   0  0  0  0  0  0  0  0  0  0  0  0
  -24.5085  -30.1281   22.4338 C   0  0  0  0  0  0  0  0  0  0  0  0
  -31.0633  -28.1014   20.1894 C   0  0  0  0  0  0  0  0  0  0  0  0
  -26.6590  -22.7865   24.3776 C   0  0  0  0  0  0  0  0  0  0  0  0
  -30.0859  -27.5661   21.2310 C   0  0  0  0  0  0  0  0  0  0  0  0
  -27.4635  -22.1638   23.2352 C   0  0  0  0  0  0  0  0  0  0  0  0
  -26.0313  -21.7201   25.2725 C   0  0  0  0  0  0  0  0  0  0  0  0
  -26.0198  -20.0948   23.4199 C   0  0  0  0  0  0  0  0  0  0  0  0
  -28.7329  -27.2258   20.5945 C   0  0  1  0  0  0  0  0  0  0  0  0
  -26.4741  -30.2678   20.8720 C   0  0  1  0  0  0  0  0  0  0  0  0
  -26.6259  -21.1308   22.4577 C   0  0  2  0  0  0  0  0  0  0  0  0
  -23.5330  -36.0475   25.1086 C   0  0  0  0  0  0  0  0  0  0  0  0
  -27.0472  -30.4438   25.4547 C   0  0  0  0  0  0  0  0  0  0  0  0
  -25.7979  -32.2684   26.6286 C   0  0  0  0  0  0  0  0  0  0  0  0
  -27.8146  -32.8166   25.2666 C   0  0  0  0  0  0  0  0  0  0  0  0
  -19.5116  -23.7041   19.1582 C   0  0  0  0  0  0  0  0  0  0  0  0
  -22.4988  -35.0615   21.5823 C   0  0  0  0  0  0  0  0  0  0  0  0
  -21.8153  -19.3769   24.1322 C   0  0  0  0  0  0  0  0  0  0  0  0
  -18.4076  -23.0714   21.2675 C   0  0  0  0  0  0  0  0  0  0  0  0
  -20.3925  -26.2199   20.2391 C   0  0  0  0  0  0  0  0  0  1  0  0
  -25.6718  -32.1568   24.0983 C   0  0  1  0  0  0  0  0  0  0  0  0
  -23.6897  -35.3699   23.7561 C   0  0  2  0  0  0  0  0  0  0  0  0
  -26.5701  -31.9055   25.3422 C   0  0  0  0  0  0  0  0  0  0  0  0
  -28.0815  -19.3302   21.6082 N   0  0  0  0  0  0  0  0  0  0  0  0
  -27.4309  -20.4773   21.3496 N   0  0  0  0  0  0  0  0  0  0  0  0
  -25.7527  -30.8028   22.0285 N   0  0  0  0  0  0  0  0  0  0  0  0
  -25.2493  -20.7731   24.4740 N   0  0  0  0  0  0  0  0  0  0  0  0
  -26.9998  -22.0606   19.6414 N   0  0  0  0  0  0  0  0  0  0  0  0
  -29.6595  -19.0305   17.6065 N   0  0  0  0  0  0  0  0  0  0  0  0
  -27.9657  -28.4310   20.3633 N   0  0  0  0  0  0  0  0  0  0  0  0
  -25.2274  -33.5386   23.9515 N   0  0  0  0  0  0  0  0  0  0  0  0
  -23.2198  -19.6737   23.9582 N   0  0  0  0  0  0  0  0  0  0  0  0
  -19.1839  -24.0661   20.5316 N   0  0  0  0  0  0  0  0  0  0  0  0
  -22.4703  -35.6494   22.9464 N   0  3  0  0  0  0  0  0  0  0  0  0
  -28.5132  -20.9951   17.3151 O   0  0  0  0  0  0  0  0  0  0  0  0
  -27.0233  -28.6316   22.4832 O   0  0  0  0  0  0  0  0  0  0  0  0
  -27.4055  -32.3798   22.4949 O   0  0  0  0  0  0  0  0  0  0  0  0
  -19.3202  -25.6089   22.2617 O   0  0  0  0  0  0  0  0  0  0  0  0
  -22.9547  -33.0798   23.9850 O   0  0  0  0  0  0  0  0  0  0  0  0
  -23.3113  -21.1865   25.6787 O   0  0  0  0  0  0  0  0  0  0  0  0
  -31.8091  -14.4472   19.9319 O   0  0  0  0  0  0  0  0  0  0  0  0
  -20.7206  -27.3902   20.9869 O   0  0  0  0  0  0  0  0  0  1  0  0
  -31.0859  -11.3446   15.4314 F   0  0  0  0  0  0  0  0  0  0  0  0
  -31.0198  -11.8060   20.1418 F   0  0  0  0  0  0  0  0  0  0  0  0
  -21.6032  -19.0104   21.0792 Cl  0  0  0  0  0  0  0  0  0  0  0  0
  -18.6254  -23.4339   24.3229 Cl  0  0  0  0  0  0  0  0  0  0  0  0
  1  2  1  0  0  0  0
  1  5  2  0  0  0  0
  2  6  2  0  0  0  0
  3  8  2  0  0  0  0
  3 17  1  0  0  0  0
  4  9  1  0  0  0  0
  4 17  2  0  0  0  0
  5 19  1  0  0  0  0
  6 21  1  0  0  0  0
  7 10  2  0  0  0  0
  7 20  1  0  0  0  0
  8 25  1  0  0  0  0
  9 25  2  0  0  0  0
 10 26  1  0  0  0  0
 11 12  2  0  0  0  0
 11 27  1  0  0  0  0
 12 28  1  0  0  0  0
 13 22  1  0  0  0  0
 13 26  2  0  0  0  0
 14 23  2  0  0  0  0
 14 31  1  0  0  0  0
 15 24  1  0  0  0  0
 15 30  2  0  0  0  0
 16 28  2  0  0  0  0
 16 29  1  0  0  0  0
 17 32  1  0  0  0  0
 18 32  1  0  0  0  0
 18 33  2  0  0  0  0
 18 34  1  0  0  0  0
 19 21  2  0  0  0  0
 19 40  1  0  0  0  0
 20 22  2  0  0  0  0
 20 41  1  0  0  0  0
 21 49  1  0  0  0  0
 22 42  1  0  0  0  0
 23 30  1  0  0  0  0
 23 58  1  0  0  0  0
 24 31  2  0  0  0  0
 24 59  1  0  0  0  0
 25 81  1  0  0  0  0
 26 82  1  0  0  0  0
 27 29  2  0  0  0  0
 27 81  1  0  0  0  0
 28 83  1  0  0  0  0
 29 84  1  0  0  0  0
 30 85  1  0  0  0  0
 31 86  1  0  0  0  0
 32 64  2  0  0  0  0
 33 65  1  0  0  0  0
 33 68  1  0  0  0  0
 34 69  1  0  0  0  0
 34 75  2  0  0  0  0
 35 50  1  0  0  0  0
 35 70  1  0  0  0  0
 35 76  2  0  0  0  0
 36 61  1  0  0  0  0
 36 66  1  0  0  0  0
 36 77  2  0  0  0  0
 37 60  1  0  0  0  0
 37 73  1  0  0  0  0
 37 78  2  0  0  0  0
 38 62  1  0  0  0  0
 38 71  1  0  0  0  0
 38 79  2  0  0  0  0
 39 67  1  0  0  0  0
 39 72  1  0  0  0  0
 39 80  2  0  0  0  0
 40 43  1  0  0  0  0
 41 50  1  0  0  0  0
 42 66  1  0  0  0  0
 43 45  1  0  0  0  0
 44 46  1  0  0  0  0
 44 47  1  0  0  0  0
 45 49  1  0  0  0  0
 46 51  1  0  0  0  0
 47 67  1  0  0  0  0
 48 51  1  0  0  0  0
 48 67  1  0  0  0  0
 49 70  1  0  0  0  0
 50 66  1  0  0  0  0
 51 65  1  0  0  0  0
 52 62  1  0  0  0  0
 53 63  1  0  0  0  0
 54 63  1  0  0  0  0
 55 63  1  0  0  0  0
 56 73  1  0  0  0  0
 57 74  1  0  0  0  0
 58 72  1  0  0  0  0
 59 73  1  0  0  0  0
 60 82  1  0  0  0  0
 61 63  1  0  0  0  0
 61 71  1  0  0  0  0
 62 74  1  0  0  0  0
 64 65  1  0  0  0  0
M  CHG  1  74   1
M  ISO  4  39 100  60 101  72 100  82 101
M  END
> <Batch ID>
0039

> <Smiles>
CNC(C)C(=O)NC(C(=O)N1Cc2cc([101O:1][101CH2:1]C(=O)N(C)Cc3cc(Cl)c(C[100NH:0][100C:0](=O)N4CCCC(n5nc(-c6ccc(Oc7ccc(F)cc7F)cc6)c(C(N)=O)c5N)C4)cc3Cl)ccc2CC1C(=O)NC1CCCc2ccccc21)C(C)(C)C

> <Shape>
0.265

> <Color>
0.070

> <Negative vol penalty>
0.000

$$$$

  -OEChem-04042322043D

 85 93  0     1  0  0  0  0  0999 V2000
  -19.2444  -22.1424   20.8674 C   0  0  0  0  0  0  0  0  0  0  0  0
  -20.6250  -21.9783   20.8187 C   0  0  0  0  0  0  0  0  0  0  0  0
  -26.9516  -12.7607   20.9168 C   0  0  0  0  0  0  0  0  0  0  0  0
  -27.0946  -12.8169   18.5057 C   0  0  0  0  0  0  0  0  0  0  0  0
  -18.6856  -23.4029   20.6601 C   0  0  0  0  0  0  0  0  0  0  0  0
  -21.4477  -23.0744   20.5615 C   0  0  0  0  0  0  0  0  0  0  0  0
  -27.0257  -24.1122   22.8667 C   0  0  0  0  0  0  0  0  0  0  0  0
  -26.4062  -11.4784   20.8546 C   0  0  0  0  0  0  0  0  0  0  0  0
  -26.5492  -11.5346   18.4435 C   0  0  0  0  0  0  0  0  0  0  0  0
  -28.3058  -23.9053   22.3544 C   0  0  0  0  0  0  0  0  0  0  0  0
  -24.6422   -8.3317   21.3130 C   0  0  0  0  0  0  0  0  0  0  0  0
  -23.5355   -8.0564   22.1162 C   0  0  0  0  0  0  0  0  0  0  0  0
  -28.3786  -26.2034   21.6247 C   0  0  0  0  0  0  0  0  0  0  0  0
  -26.0792  -22.5469   14.7482 C   0  0  0  0  0  0  0  0  0  0  0  0
  -28.3183  -23.4510   14.6686 C   0  0  0  0  0  0  0  0  0  0  0  0
  -22.2920   -9.8021   21.0012 C   0  0  0  0  0  0  0  0  0  0  0  0
  -27.2957  -13.4300   19.7423 C   0  0  0  0  0  0  0  0  0  0  0  0
  -29.2215  -15.0961   19.8945 C   0  0  0  0  0  0  0  0  0  0  0  0
  -19.5024  -24.5168   20.4098 C   0  0  0  0  0  0  0  0  0  0  0  0
  -26.4071  -25.3654   22.7520 C   0  0  0  0  0  0  0  0  0  0  0  0
  -20.8992  -24.3507   20.3493 C   0  0  0  0  0  0  0  0  0  0  0  0
  -27.0917  -26.4243   22.1386 C   0  0  0  0  0  0  0  0  0  0  0  0
  -25.9769  -22.9183   16.0888 C   0  0  0  0  0  0  0  0  0  0  0  0
  -28.2159  -23.8225   16.0092 C   0  0  0  0  0  0  0  0  0  0  0  0
  -27.0452  -23.5561   16.7193 C   0  0  0  0  0  0  0  0  0  0  0  0
  -26.2050  -10.8654   19.6179 C   0  0  0  0  0  0  0  0  0  0  0  0
  -28.9813  -24.9501   21.7307 C   0  0  0  0  0  0  0  0  0  0  0  0
  -24.5738   -9.3424   20.3540 C   0  0  0  0  0  0  0  0  0  0  0  0
  -22.3604   -8.7915   21.9603 C   0  0  0  0  0  0  0  0  0  0  0  0
  -23.3987  -10.0775   20.1981 C   0  0  0  0  0  0  0  0  0  0  0  0
  -27.2499  -22.8132   14.0381 C   0  0  0  0  0  0  0  0  0  0  0  0
  -27.8586  -14.7549   19.8059 C   0  0  0  0  0  0  0  0  0  0  0  0
  -29.2304  -16.4692   19.9262 C   0  0  0  0  0  0  0  0  0  0  0  0
  -30.3763  -14.2477   19.9436 C   0  0  0  0  0  0  0  0  0  0  0  0
  -23.7795  -26.4480   21.3282 C   0  0  0  0  0  0  0  0  0  0  0  0
  -24.5636  -29.2061   22.8449 C   0  0  0  0  0  0  0  0  0  0  0  0
  -26.9859  -31.1382   24.2756 C   0  0  0  0  0  0  0  0  0  0  0  0
  -25.4238  -20.4760   17.8501 C   0  0  0  0  0  0  0  0  0  0  0  0
  -18.8499  -25.8505   20.1451 C   0  0  0  0  0  0  0  0  0  0  0  0
  -25.0366  -25.5797   23.3335 C   0  0  0  0  0  0  0  0  0  0  0  0
  -26.4798  -27.7943   22.0079 C   0  0  0  0  0  0  0  0  0  0  0  0
  -19.8123  -27.0309   20.2497 C   0  0  0  0  0  0  0  0  0  0  0  0
  -26.5552  -20.2010   21.2767 C   0  0  0  0  0  0  0  0  0  0  0  0
  -21.1056  -26.7335   19.4976 C   0  0  0  0  0  0  0  0  0  0  0  0
  -27.1508  -18.7921   21.2882 C   0  0  0  0  0  0  0  0  0  0  0  0
  -25.3037  -20.2651   20.4062 C   0  0  0  0  0  0  0  0  0  0  0  0
  -26.0994  -18.3943   19.0131 C   0  0  0  0  0  0  0  0  0  0  0  0
  -21.8262  -25.5201   20.0976 C   0  0  1  0  0  0  0  0  0  0  0  0
  -24.2978  -26.7568   22.7043 C   0  0  1  0  0  0  0  0  0  0  0  0
  -27.3803  -18.2691   19.8578 C   0  0  2  0  0  0  0  0  0  0  0  0
  -26.9359  -23.9537   18.1571 C   0  0  0  0  0  0  0  0  0  0  0  0
  -27.3298  -33.3575   25.3952 C   0  0  0  0  0  0  0  0  0  0  0  0
  -24.4045  -30.5960   20.1333 C   0  0  0  0  0  0  0  0  0  0  0  0
  -25.6531  -32.5252   21.1270 C   0  0  0  0  0  0  0  0  0  0  0  0
  -23.4154  -31.8922   22.0296 C   0  0  0  0  0  0  0  0  0  0  0  0
  -27.9055  -29.8617   26.7824 C   0  0  0  0  0  0  0  0  0  0  0  0
  -24.7124  -22.6217   16.8269 C   0  0  0  0  0  0  0  0  0  0  0  0
  -29.3789  -24.5075   16.6644 C   0  0  0  0  0  0  0  0  0  0  0  0
  -31.5740  -23.5443   19.6503 C   0  0  0  0  0  0  0  0  0  0  0  0
  -31.1068  -24.3729   18.4631 C   0  0  0  0  0  0  0  0  0  0  0  0
  -30.5428  -23.4372   20.7670 C   0  0  0  0  0  0  0  0  0  1  0  0
  -25.4080  -30.4104   22.5049 C   0  0  1  0  0  0  0  0  0  0  0  0
  -27.0314  -31.8803   25.5990 C   0  0  2  0  0  0  0  0  0  0  0  0
  -24.7313  -31.3297   21.4493 C   0  0  0  0  0  0  0  0  0  0  0  0
  -27.0596  -15.8249   19.7830 N   0  0  0  0  0  0  0  0  0  0  0  0
  -27.9231  -16.8520   19.8577 N   0  0  0  0  0  0  0  0  0  0  0  0
  -25.1354  -27.9522   22.5868 N   0  0  0  0  0  0  0  0  0  0  0  0
  -25.5946  -19.7708   19.0530 N   0  0  0  0  0  0  0  0  0  0  0  0
  -30.2287  -17.3743   20.0058 N   0  0  0  0  0  0  0  0  0  0  0  0
  -30.1879  -12.8595   19.9008 N   0  0  0  0  0  0  0  0  0  0  0  0
  -22.5145  -25.8921   21.3151 N   0  0  0  0  0  0  0  0  0  0  0  0
  -25.7043  -31.0718   23.7711 N   0  0  0  0  0  0  0  0  0  0  0  0
  -24.9350  -21.7707   17.9746 N   0  0  0  0  0  0  0  0  0  0  0  0
  -28.0871  -31.3048   26.4796 N   0  3  0  0  0  0  0  0  0  0  0  0
  -29.9172  -23.7553   17.8314 N   0  3  0  0  0  0  0  0  0  0  0  0
  -31.5398  -14.7066   20.0397 O   0  0  0  0  0  0  0  0  0  0  0  0
  -24.4751  -26.6971   20.3505 O   0  0  0  0  0  0  0  0  0  0  0  0
  -23.4410  -29.3717   23.3286 O   0  0  0  0  0  0  0  0  0  0  0  0
  -27.9875  -30.6678   23.7408 O   0  0  0  0  0  0  0  0  0  0  0  0
  -25.6923  -19.9896   16.7463 O   0  0  0  0  0  0  0  0  0  0  0  0
  -25.6731   -9.6140   19.5569 O   0  0  0  0  0  0  0  0  0  0  0  0
  -30.2305  -24.7507   21.2292 O   0  0  0  0  0  0  0  0  0  1  0  0
  -21.2973   -8.5259   22.7306 F   0  0  0  0  0  0  0  0  0  0  0  0
  -23.3265  -11.0488   19.2777 F   0  0  0  0  0  0  0  0  0  0  0  0
  -27.3766  -22.3547   12.3839 Cl  0  0  0  0  0  0  0  0  0  0  0  0
  1  2  1  0  0  0  0
  1  5  2  0  0  0  0
  2  6  2  0  0  0  0
  3  8  2  0  0  0  0
  3 17  1  0  0  0  0
  4  9  1  0  0  0  0
  4 17  2  0  0  0  0
  5 19  1  0  0  0  0
  6 21  1  0  0  0  0
  7 10  2  0  0  0  0
  7 20  1  0  0  0  0
  8 26  1  0  0  0  0
  9 26  2  0  0  0  0
 10 27  1  0  0  0  0
 11 12  2  0  0  0  0
 11 28  1  0  0  0  0
 12 29  1  0  0  0  0
 13 22  1  0  0  0  0
 13 27  2  0  0  0  0
 14 23  2  0  0  0  0
 14 31  1  0  0  0  0
 15 24  1  0  0  0  0
 15 31  2  0  0  0  0
 16 29  2  0  0  0  0
 16 30  1  0  0  0  0
 17 32  1  0  0  0  0
 18 32  1  0  0  0  0
 18 33  2  0  0  0  0
 18 34  1  0  0  0  0
 19 21  2  0  0  0  0
 19 39  1  0  0  0  0
 20 22  2  0  0  0  0
 20 40  1  0  0  0  0
 21 48  1  0  0  0  0
 22 41  1  0  0  0  0
 23 25  1  0  0  0  0
 23 57  1  0  0  0  0
 24 25  2  0  0  0  0
 24 58  1  0  0  0  0
 25 51  1  0  0  0  0
 26 81  1  0  0  0  0
 27 82  1  0  0  0  0
 28 30  2  0  0  0  0
 28 81  1  0  0  0  0
 29 83  1  0  0  0  0
 30 84  1  0  0  0  0
 31 85  1  0  0  0  0
 32 65  2  0  0  0  0
 33 66  1  0  0  0  0
 33 69  1  0  0  0  0
 34 70  1  0  0  0  0
 34 76  2  0  0  0  0
 35 49  1  0  0  0  0
 35 71  1  0  0  0  0
 35 77  2  0  0  0  0
 36 62  1  0  0  0  0
 36 67  1  0  0  0  0
 36 78  2  0  0  0  0
 37 63  1  0  0  0  0
 37 72  1  0  0  0  0
 37 79  2  0  0  0  0
 38 68  1  0  0  0  0
 38 73  1  0  0  0  0
 38 80  2  0  0  0  0
 39 42  1  0  0  0  0
 40 49  1  0  0  0  0
 41 67  1  0  0  0  0
 42 44  1  0  0  0  0
 43 45  1  0  0  0  0
 43 46  1  0  0  0  0
 44 48  1  0  0  0  0
 45 50  1  0  0  0  0
 46 68  1  0  0  0  0
 47 50  1  0  0  0  0
 47 68  1  0  0  0  0
 48 71  1  0  0  0  0
 49 67  1  0  0  0  0
 50 66  1  0  0  0  0
 52 63  1  0  0  0  0
 53 64  1  0  0  0  0
 54 64  1  0  0  0  0
 55 64  1  0  0  0  0
 56 74  1  0  0  0  0
 57 73  1  0  0  0  0
 58 75  1  0  0  0  0
 59 60  1  0  0  0  0
 59 61  1  0  0  0  0
 60 75  1  0  0  0  0
 61 82  1  0  0  0  0
 62 64  1  0  0  0  0
 62 72  1  0  0  0  0
 63 74  1  0  0  0  0
 65 66  1  0  0  0  0
M  CHG  2  74   1  75   1
M  ISO  4  38 100  61 101  73 100  82 101
M  END
> <Batch ID>
0039

> <Smiles>
CNC(C)C(=O)NC(C(=O)N1Cc2cc([101O:1][101CH2:1]CCNCc3cc(Cl)cc(C[100NH:0][100C:0](=O)N4CCCC(n5nc(-c6ccc(Oc7ccc(F)cc7F)cc6)c(C(N)=O)c5N)C4)c3C)ccc2CC1C(=O)NC1CCCc2ccccc21)C(C)(C)C

> <Shape>
0.222

> <Color>
0.068

> <Negative vol penalty>
0.000

$$$$

  -OEChem-04042322043D

 86 94  0     1  0  0  0  0  0999 V2000
  -25.2833  -32.3575   20.9670 C   0  0  0  0  0  0  0  0  0  0  0  0
  -25.3685  -30.9757   21.1046 C   0  0  0  0  0  0  0  0  0  0  0  0
  -23.0161   -9.9738   19.9404 C   0  0  0  0  0  0  0  0  0  0  0  0
  -24.0512   -9.7933   22.1160 C   0  0  0  0  0  0  0  0  0  0  0  0
  -24.2191  -33.0499   21.5431 C   0  0  0  0  0  0  0  0  0  0  0  0
  -24.3900  -30.2857   21.8193 C   0  0  0  0  0  0  0  0  0  0  0  0
  -22.8580  -26.0796   19.4515 C   0  0  0  0  0  0  0  0  0  0  0  0
  -29.8721  -19.2488   18.2870 C   0  0  0  0  0  0  0  0  0  0  0  0
  -29.5881  -20.3669   19.0711 C   0  0  0  0  0  0  0  0  0  0  0  0
  -22.3212   -8.7869   20.1725 C   0  0  0  0  0  0  0  0  0  0  0  0
  -23.3562   -8.6064   22.3481 C   0  0  0  0  0  0  0  0  0  0  0  0
  -23.6916  -24.9648   19.5306 C   0  0  0  0  0  0  0  0  0  0  0  0
  -19.5819   -7.7995   21.8914 C   0  0  0  0  0  0  0  0  0  0  0  0
  -18.2260   -7.7679   21.5657 C   0  0  0  0  0  0  0  0  0  0  0  0
  -22.2938  -24.0506   21.2711 C   0  0  0  0  0  0  0  0  0  0  0  0
  -18.6408   -5.9631   20.0140 C   0  0  0  0  0  0  0  0  0  0  0  0
  -23.8812  -10.4770   20.9121 C   0  0  0  0  0  0  0  0  0  0  0  0
  -24.1779  -13.0097   20.9820 C   0  0  0  0  0  0  0  0  0  0  0  0
  -23.2219  -32.3670   22.2570 C   0  0  0  0  0  0  0  0  0  0  0  0
  -21.7403  -26.1935   20.2906 C   0  0  0  0  0  0  0  0  0  0  0  0
  -23.3121  -30.9699   22.4066 C   0  0  0  0  0  0  0  0  0  0  0  0
  -21.4461  -25.1666   21.1989 C   0  0  0  0  0  0  0  0  0  0  0  0
  -29.7223  -17.9679   18.8186 C   0  0  0  0  0  0  0  0  0  0  0  0
  -29.1545  -20.2041   20.3868 C   0  0  0  0  0  0  0  0  0  0  0  0
  -29.2886  -17.8051   20.1343 C   0  0  0  0  0  0  0  0  0  0  0  0
  -22.4912   -8.1032   21.3764 C   0  0  0  0  0  0  0  0  0  0  0  0
  -23.4112  -23.9515   20.4425 C   0  0  0  0  0  0  0  0  0  0  0  0
  -20.4674   -6.9130   21.2783 C   0  0  0  0  0  0  0  0  0  0  0  0
  -17.7555   -6.8497   20.6271 C   0  0  0  0  0  0  0  0  0  0  0  0
  -19.9968   -5.9947   20.3397 C   0  0  0  0  0  0  0  0  0  0  0  0
  -29.0047  -18.9232   20.9184 C   0  0  0  0  0  0  0  0  0  0  0  0
  -24.5997  -11.7028   20.6727 C   0  0  0  0  0  0  0  0  0  0  0  0
  -25.2090  -13.8124   20.5590 C   0  0  0  0  0  0  0  0  0  0  0  0
  -22.9628  -13.4581   21.5969 C   0  0  0  0  0  0  0  0  0  0  0  0
  -20.8297  -28.2367   22.5489 C   0  0  0  0  0  0  0  0  0  0  0  0
  -18.0943  -26.4947   22.4755 C   0  0  0  0  0  0  0  0  0  0  0  0
  -26.4679  -22.0700   20.9566 C   0  0  0  0  0  0  0  0  0  0  0  0
  -16.5642  -23.5332   21.7437 C   0  0  0  0  0  0  0  0  0  0  0  0
  -30.8403  -14.5907   20.5562 C   0  0  0  0  0  0  0  0  0  0  0  0
  -22.1159  -33.1640   22.9020 C   0  0  0  0  0  0  0  0  0  0  0  0
  -20.8359  -27.3898   20.1743 C   0  0  0  0  0  0  0  0  0  0  0  0
  -20.2470  -25.2313   22.1079 C   0  0  0  0  0  0  0  0  0  0  0  0
  -20.9200  -32.3148   23.3252 C   0  0  0  0  0  0  0  0  0  0  0  0
  -29.2673  -12.7770   17.7388 C   0  0  0  0  0  0  0  0  0  0  0  0
  -21.3879  -31.0627   24.0602 C   0  0  0  0  0  0  0  0  0  0  0  0
  -27.9063  -12.3863   18.3125 C   0  0  0  0  0  0  0  0  0  0  0  0
  -30.3271  -12.9041   18.8289 C   0  0  0  0  0  0  0  0  0  0  0  0
  -28.5892  -13.4405   20.5041 C   0  0  0  0  0  0  0  0  0  0  0  0
  -22.2570  -30.1830   23.1534 C   0  0  1  0  0  0  0  0  0  0  0  0
  -20.0148  -27.6428   21.4349 C   0  0  1  0  0  0  0  0  0  0  0  0
  -27.4880  -13.3495   19.4370 C   0  0  2  0  0  0  0  0  0  0  0  0
  -30.0323  -16.7863   17.9592 C   0  0  0  0  0  0  0  0  0  0  0  0
  -14.3276  -22.3983   21.8266 C   0  0  0  0  0  0  0  0  0  0  0  0
  -18.3948  -26.1279   25.4896 C   0  0  0  0  0  0  0  0  0  0  0  0
  -16.7350  -24.2583   25.3574 C   0  0  0  0  0  0  0  0  0  0  0  0
  -16.0570  -26.5730   24.7208 C   0  0  0  0  0  0  0  0  0  0  0  0
  -31.3589  -16.6948   21.7323 C   0  0  0  0  0  0  0  0  0  0  0  0
  -16.5198  -23.1509   18.8093 C   0  0  0  0  0  0  0  0  0  0  0  0
  -28.8505  -21.4103   21.2277 C   0  0  0  0  0  0  0  0  0  0  0  0
  -29.1229  -16.4416   20.7214 C   0  0  0  0  0  0  0  0  0  0  0  0
  -25.6008  -23.0550   20.2021 C   0  0  0  0  0  0  0  0  0  1  0  0
  -17.5897  -25.2660   23.1929 C   0  0  1  0  0  0  0  0  0  0  0  0
  -15.2892  -23.2195   20.9818 C   0  0  2  0  0  0  0  0  0  0  0  0
  -17.2179  -25.5557   24.6746 C   0  0  0  0  0  0  0  0  0  0  0  0
  -25.8048  -11.6724   20.0974 N   0  0  0  0  0  0  0  0  0  0  0  0
  -26.1490  -12.9703   20.0418 N   0  0  0  0  0  0  0  0  0  0  0  0
  -19.3966  -26.4241   21.9609 N   0  0  0  0  0  0  0  0  0  0  0  0
  -29.8860  -13.7912   19.9058 N   0  0  0  0  0  0  0  0  0  0  0  0
  -25.3943  -15.1494   20.5826 N   0  0  0  0  0  0  0  0  0  0  0  0
  -22.0099  -12.5004   21.9699 N   0  0  0  0  0  0  0  0  0  0  0  0
  -21.4299  -29.4392   22.2276 N   0  0  0  0  0  0  0  0  0  0  0  0
  -27.8098  -22.2262   20.6464 N   0  0  0  0  0  0  0  0  0  0  0  0
  -16.4868  -24.7487   22.3902 N   0  0  0  0  0  0  0  0  0  0  0  0
  -30.4039  -15.8254   21.0600 N   0  0  0  0  0  0  0  0  0  0  0  0
  -15.6015  -22.4507   19.7439 N   0  3  0  0  0  0  0  0  0  0  0  0
  -22.7218  -14.6732   21.7942 O   0  0  0  0  0  0  0  0  0  0  0  0
  -20.9069  -27.6483   23.6210 O   0  0  0  0  0  0  0  0  0  0  0  0
  -17.3574  -27.4782   22.3691 O   0  0  0  0  0  0  0  0  0  0  0  0
  -26.0077  -21.2441   21.7403 O   0  0  0  0  0  0  0  0  0  0  0  0
  -17.5306  -22.7742   21.7663 O   0  0  0  0  0  0  0  0  0  0  0  0
  -32.0175  -14.2261   20.6711 O   0  0  0  0  0  0  0  0  0  0  0  0
  -21.8131   -6.9451   21.6033 O   0  0  0  0  0  0  0  0  0  0  0  0
  -24.2236  -22.8627   20.5223 O   0  0  0  0  0  0  0  0  0  1  0  0
  -16.4531   -6.8184   20.3156 F   0  0  0  0  0  0  0  0  0  0  0  0
  -20.8424   -5.1397   19.7483 F   0  0  0  0  0  0  0  0  0  0  0  0
  -28.5881  -18.7675   22.1839 F   0  0  0  0  0  0  0  0  0  0  0  0
  1  2  1  0  0  0  0
  1  5  2  0  0  0  0
  2  6  2  0  0  0  0
  3 10  2  0  0  0  0
  3 17  1  0  0  0  0
  4 11  1  0  0  0  0
  4 17  2  0  0  0  0
  5 19  1  0  0  0  0
  6 21  1  0  0  0  0
  7 12  2  0  0  0  0
  7 20  1  0  0  0  0
  8  9  2  0  0  0  0
  8 23  1  0  0  0  0
  9 24  1  0  0  0  0
 10 26  1  0  0  0  0
 11 26  2  0  0  0  0
 12 27  1  0  0  0  0
 13 14  2  0  0  0  0
 13 28  1  0  0  0  0
 14 29  1  0  0  0  0
 15 22  1  0  0  0  0
 15 27  2  0  0  0  0
 16 29  2  0  0  0  0
 16 30  1  0  0  0  0
 17 32  1  0  0  0  0
 18 32  1  0  0  0  0
 18 33  2  0  0  0  0
 18 34  1  0  0  0  0
 19 21  2  0  0  0  0
 19 40  1  0  0  0  0
 20 22  2  0  0  0  0
 20 41  1  0  0  0  0
 21 49  1  0  0  0  0
 22 42  1  0  0  0  0
 23 25  2  0  0  0  0
 23 52  1  0  0  0  0
 24 31  2  0  0  0  0
 24 59  1  0  0  0  0
 25 31  1  0  0  0  0
 25 60  1  0  0  0  0
 26 82  1  0  0  0  0
 27 83  1  0  0  0  0
 28 30  2  0  0  0  0
 28 82  1  0  0  0  0
 29 84  1  0  0  0  0
 30 85  1  0  0  0  0
 31 86  1  0  0  0  0
 32 65  2  0  0  0  0
 33 66  1  0  0  0  0
 33 69  1  0  0  0  0
 34 70  1  0  0  0  0
 34 76  2  0  0  0  0
 35 50  1  0  0  0  0
 35 71  1  0  0  0  0
 35 77  2  0  0  0  0
 36 62  1  0  0  0  0
 36 67  1  0  0  0  0
 36 78  2  0  0  0  0
 37 61  1  0  0  0  0
 37 72  1  0  0  0  0
 37 79  2  0  0  0  0
 38 63  1  0  0  0  0
 38 73  1  0  0  0  0
 38 80  2  0  0  0  0
 39 68  1  0  0  0  0
 39 74  1  0  0  0  0
 39 81  2  0  0  0  0
 40 43  1  0  0  0  0
 41 50  1  0  0  0  0
 42 67  1  0  0  0  0
 43 45  1  0  0  0  0
 44 46  1  0  0  0  0
 44 47  1  0  0  0  0
 45 49  1  0  0  0  0
 46 51  1  0  0  0  0
 47 68  1  0  0  0  0
 48 51  1  0  0  0  0
 48 68  1  0  0  0  0
 49 71  1  0  0  0  0
 50 67  1  0  0  0  0
 51 66  1  0  0  0  0
 53 63  1  0  0  0  0
 54 64  1  0  0  0  0
 55 64  1  0  0  0  0
 56 64  1  0  0  0  0
 57 74  1  0  0  0  0
 58 75  1  0  0  0  0
 59 72  1  0  0  0  0
 60 74  1  0  0  0  0
 61 83  1  0  0  0  0
 62 64  1  0  0  0  0
 62 73  1  0  0  0  0
 63 75  1  0  0  0  0
 65 66  1  0  0  0  0
M  CHG  1  75   1
M  ISO  4  39 100  61 101  74 100  83 101
M  END
> <Batch ID>
0039

> <Smiles>
CNC(C)C(=O)NC(C(=O)N1Cc2cc([101O:1][101CH2:1]C(=O)NCc3ccc(C)c(C[100N:0](C)[100C:0](=O)N4CCCC(n5nc(-c6ccc(Oc7ccc(F)cc7F)cc6)c(C(N)=O)c5N)C4)c3F)ccc2CC1C(=O)NC1CCCc2ccccc21)C(C)(C)C

> <Shape>
0.305

> <Color>
0.196

> <Negative vol penalty>
0.000

$$$$

  -OEChem-04042322043D

 87 95  0     1  0  0  0  0  0999 V2000
  -23.4210   -7.7098   20.7593 C   0  0  0  0  0  0  0  0  0  0  0  0
  -22.5111   -8.5023   20.0669 C   0  0  0  0  0  0  0  0  0  0  0  0
  -28.2967  -28.7333   20.8114 C   0  0  0  0  0  0  0  0  0  0  0  0
  -26.8144  -27.3065   19.5448 C   0  0  0  0  0  0  0  0  0  0  0  0
  -24.1985   -8.2671   21.7736 C   0  0  0  0  0  0  0  0  0  0  0  0
  -22.3774   -9.8524   20.3892 C   0  0  0  0  0  0  0  0  0  0  0  0
  -20.9378  -16.1936   17.3837 C   0  0  0  0  0  0  0  0  0  0  0  0
  -29.3472  -27.8446   20.5831 C   0  0  0  0  0  0  0  0  0  0  0  0
  -27.8650  -26.4178   19.3164 C   0  0  0  0  0  0  0  0  0  0  0  0
  -20.0916  -17.2910   17.5372 C   0  0  0  0  0  0  0  0  0  0  0  0
  -30.5453  -26.2056   17.2691 C   0  0  0  0  0  0  0  0  0  0  0  0
  -30.7040  -25.7111   15.9745 C   0  0  0  0  0  0  0  0  0  0  0  0
  -21.5440  -18.1632   19.2544 C   0  0  0  0  0  0  0  0  0  0  0  0
  -19.1787  -24.6613   20.2532 C   0  0  0  0  0  0  0  0  0  0  0  0
  -17.9452  -27.1409   20.5892 C   0  0  0  0  0  0  0  0  0  0  0  0
  -30.4013  -23.4598   16.7973 C   0  0  0  0  0  0  0  0  0  0  0  0
  -27.0302  -28.4642   20.2923 C   0  0  0  0  0  0  0  0  0  0  0  0
  -25.5699  -30.4789   19.7300 C   0  0  0  0  0  0  0  0  0  0  0  0
  -24.0811   -9.6268   22.1020 C   0  0  0  0  0  0  0  0  0  0  0  0
  -22.0896  -16.0671   18.1734 C   0  0  0  0  0  0  0  0  0  0  0  0
  -23.1531  -10.4280   21.4098 C   0  0  0  0  0  0  0  0  0  0  0  0
  -22.4045  -17.0646   19.1072 C   0  0  0  0  0  0  0  0  0  0  0  0
  -19.3067  -25.3458   21.4618 C   0  0  0  0  0  0  0  0  0  0  0  0
  -18.4339  -25.2165   19.2126 C   0  0  0  0  0  0  0  0  0  0  0  0
  -18.6899  -26.5856   21.6298 C   0  0  0  0  0  0  0  0  0  0  0  0
  -29.1314  -26.6869   19.8356 C   0  0  0  0  0  0  0  0  0  0  0  0
  -20.3931  -18.2745   18.4746 C   0  0  0  0  0  0  0  0  0  0  0  0
  -30.3146  -25.3271   18.3278 C   0  0  0  0  0  0  0  0  0  0  0  0
  -30.6320  -24.3382   15.7386 C   0  0  0  0  0  0  0  0  0  0  0  0
  -30.2426  -23.9542   18.0919 C   0  0  0  0  0  0  0  0  0  0  0  0
  -17.8172  -26.4563   19.3806 C   0  0  0  0  0  0  0  0  0  0  0  0
  -25.9444  -29.3815   20.5283 C   0  0  0  0  0  0  0  0  0  0  0  0
  -24.4892  -31.0233   20.3799 C   0  0  0  0  0  0  0  0  0  0  0  0
  -26.1472  -30.9629   18.5101 C   0  0  0  0  0  0  0  0  0  0  0  0
  -23.1197  -13.9573   20.3162 C   0  0  0  0  0  0  0  0  0  0  0  0
  -25.8239  -15.7452   20.2006 C   0  0  0  0  0  0  0  0  0  0  0  0
  -18.3862  -21.9428   17.8529 C   0  0  0  0  0  0  0  0  0  0  0  0
  -27.2795  -18.7561   19.5206 C   0  0  0  0  0  0  0  0  0  0  0  0
  -20.4332  -28.7533   24.1544 C   0  0  0  0  0  0  0  0  0  0  0  0
  -24.9091  -10.1734   23.2380 C   0  0  0  0  0  0  0  0  0  0  0  0
  -23.0062  -14.8909   17.9770 C   0  0  0  0  0  0  0  0  0  0  0  0
  -23.6397  -16.9860   19.9654 C   0  0  0  0  0  0  0  0  0  0  0  0
  -24.9750  -11.6982   23.2651 C   0  0  0  0  0  0  0  0  0  0  0  0
  -22.6042  -31.5117   24.7501 C   0  0  0  0  0  0  0  0  0  0  0  0
  -23.5847  -12.2961   23.0741 C   0  0  0  0  0  0  0  0  0  0  0  0
  -23.6726  -31.3776   23.6636 C   0  0  0  0  0  0  0  0  0  0  0  0
  -22.1512  -30.1483   25.2676 C   0  0  0  0  0  0  0  0  0  0  0  0
  -22.7699  -29.0739   23.1376 C   0  0  0  0  0  0  0  0  0  0  0  0
  -22.9970  -11.9023   21.7136 C   0  0  1  0  0  0  0  0  0  0  0  0
  -23.8806  -14.6050   19.1940 C   0  0  1  0  0  0  0  0  0  0  0  0
  -23.2179  -30.4209   22.5451 C   0  0  2  0  0  0  0  0  0  0  0  0
  -20.1106  -24.7337   22.5616 C   0  0  0  0  0  0  0  0  0  0  0  0
  -29.5006  -19.9235   19.5581 C   0  0  0  0  0  0  0  0  0  0  0  0
  -25.6383  -15.9958   23.2359 C   0  0  0  0  0  0  0  0  0  0  0  0
  -27.2636  -17.8959   23.1086 C   0  0  0  0  0  0  0  0  0  0  0  0
  -27.9499  -15.6175   22.3598 C   0  0  0  0  0  0  0  0  0  0  0  0
  -16.3421  -23.1604   18.6338 C   0  0  0  0  0  0  0  0  0  0  0  0
  -27.2013  -19.2468   16.6031 C   0  0  0  0  0  0  0  0  0  0  0  0
  -18.3207  -24.4479   17.9279 C   0  0  0  0  0  0  0  0  0  0  0  0
  -18.8155  -27.3379   22.9139 C   0  0  0  0  0  0  0  0  0  0  0  0
  -17.6114  -20.6554   18.1146 C   0  0  0  0  0  0  0  0  0  0  0  0
  -18.4116  -19.3994   17.7931 C   0  0  0  0  0  0  0  0  0  1  0  0
  -26.3383  -16.9547   20.9432 C   0  0  1  0  0  0  0  0  0  0  0  0
  -28.5183  -19.1184   18.7216 C   0  0  2  0  0  0  0  0  0  0  0  0
  -26.7732  -16.6168   22.3972 C   0  0  0  0  0  0  0  0  0  0  0  0
  -25.1651  -29.2360   21.6033 N   0  0  0  0  0  0  0  0  0  0  0  0
  -24.2901  -30.2492   21.4850 N   0  0  0  0  0  0  0  0  0  0  0  0
  -24.5012  -15.8134   19.7406 N   0  0  0  0  0  0  0  0  0  0  0  0
  -21.7314  -29.2898   24.1573 N   0  0  0  0  0  0  0  0  0  0  0  0
  -23.6995  -32.0838   20.1081 N   0  0  0  0  0  0  0  0  0  0  0  0
  -27.2537  -30.2855   17.9798 N   0  0  0  0  0  0  0  0  0  0  0  0
  -23.5834  -12.7016   20.6592 N   0  0  0  0  0  0  0  0  0  0  0  0
  -27.4006  -17.5191   20.1177 N   0  0  0  0  0  0  0  0  0  0  0  0
  -20.1144  -27.9556   23.0623 N   0  0  0  0  0  0  0  0  0  0  0  0
  -17.7090  -23.1361   18.1276 N   0  0  0  0  0  0  0  0  0  0  0  0
  -28.1457  -19.9270   17.5265 N   0  3  0  0  0  0  0  0  0  0  0  0
  -25.7055  -31.9760   17.9169 O   0  0  0  0  0  0  0  0  0  0  0  0
  -22.1822  -14.5533   20.8335 O   0  0  0  0  0  0  0  0  0  0  0  0
  -26.5704  -14.7784   20.0287 O   0  0  0  0  0  0  0  0  0  0  0  0
  -19.5425  -21.9028   17.4244 O   0  0  0  0  0  0  0  0  0  0  0  0
  -26.3037  -19.4979   19.6096 O   0  0  0  0  0  0  0  0  0  0  0  0
  -19.6169  -28.9735   25.0555 O   0  0  0  0  0  0  0  0  0  0  0  0
  -30.1564  -25.8196   19.6123 O   0  0  0  0  0  0  0  0  0  0  0  0
  -19.5685  -19.3463   18.6269 O   0  0  0  0  0  0  0  0  0  1  0  0
  -30.7830  -23.8637   14.4952 F   0  0  0  0  0  0  0  0  0  0  0  0
  -30.0200  -23.1055   19.1048 F   0  0  0  0  0  0  0  0  0  0  0  0
  -16.8881  -27.1747   18.1157 Cl  0  0  0  0  0  0  0  0  0  0  0  0
  1  2  1  0  0  0  0
  1  5  2  0  0  0  0
  2  6  2  0  0  0  0
  3  8  2  0  0  0  0
  3 17  1  0  0  0  0
  4  9  1  0  0  0  0
  4 17  2  0  0  0  0
  5 19  1  0  0  0  0
  6 21  1  0  0  0  0
  7 10  2  0  0  0  0
  7 20  1  0  0  0  0
  8 26  1  0  0  0  0
  9 26  2  0  0  0  0
 10 27  1  0  0  0  0
 11 12  2  0  0  0  0
 11 28  1  0  0  0  0
 12 29  1  0  0  0  0
 13 22  1  0  0  0  0
 13 27  2  0  0  0  0
 14 23  2  0  0  0  0
 14 24  1  0  0  0  0
 15 25  2  0  0  0  0
 15 31  1  0  0  0  0
 16 29  2  0  0  0  0
 16 30  1  0  0  0  0
 17 32  1  0  0  0  0
 18 32  1  0  0  0  0
 18 33  2  0  0  0  0
 18 34  1  0  0  0  0
 19 21  2  0  0  0  0
 19 40  1  0  0  0  0
 20 22  2  0  0  0  0
 20 41  1  0  0  0  0
 21 49  1  0  0  0  0
 22 42  1  0  0  0  0
 23 25  1  0  0  0  0
 23 52  1  0  0  0  0
 24 31  2  0  0  0  0
 24 59  1  0  0  0  0
 25 60  1  0  0  0  0
 26 83  1  0  0  0  0
 27 84  1  0  0  0  0
 28 30  2  0  0  0  0
 28 83  1  0  0  0  0
 29 85  1  0  0  0  0
 30 86  1  0  0  0  0
 31 87  1  0  0  0  0
 32 66  2  0  0  0  0
 33 67  1  0  0  0  0
 33 70  1  0  0  0  0
 34 71  1  0  0  0  0
 34 77  2  0  0  0  0
 35 50  1  0  0  0  0
 35 72  1  0  0  0  0
 35 78  2  0  0  0  0
 36 63  1  0  0  0  0
 36 68  1  0  0  0  0
 36 79  2  0  0  0  0
 37 61  1  0  0  0  0
 37 75  1  0  0  0  0
 37 80  2  0  0  0  0
 38 64  1  0  0  0  0
 38 73  1  0  0  0  0
 38 81  2  0  0  0  0
 39 69  1  0  0  0  0
 39 74  1  0  0  0  0
 39 82  2  0  0  0  0
 40 43  1  0  0  0  0
 41 50  1  0  0  0  0
 42 68  1  0  0  0  0
 43 45  1  0  0  0  0
 44 46  1  0  0  0  0
 44 47  1  0  0  0  0
 45 49  1  0  0  0  0
 46 51  1  0  0  0  0
 47 69  1  0  0  0  0
 48 51  1  0  0  0  0
 48 69  1  0  0  0  0
 49 72  1  0  0  0  0
 50 68  1  0  0  0  0
 51 67  1  0  0  0  0
 53 64  1  0  0  0  0
 54 65  1  0  0  0  0
 55 65  1  0  0  0  0
 56 65  1  0  0  0  0
 57 75  1  0  0  0  0
 58 76  1  0  0  0  0
 59 75  1  0  0  0  0
 60 74  1  0  0  0  0
 61 62  1  0  0  0  0
 62 84  1  0  0  0  0
 63 65  1  0  0  0  0
 63 73  1  0  0  0  0
 64 76  1  0  0  0  0
 66 67  1  0  0  0  0
M  CHG  1  76   1
M  ISO  4  39 100  62 101  74 100  84 101
M  END
> <Batch ID>
0039

> <Smiles>
CNC(C)C(=O)NC(C(=O)N1Cc2cc([101O:1][101CH2:1]CC(=O)N(C)Cc3cc(C)c(C[100NH:0][100C:0](=O)N4CCCC(n5nc(-c6ccc(Oc7ccc(F)cc7F)cc6)c(C(N)=O)c5N)C4)cc3Cl)ccc2CC1C(=O)NC1CCCc2ccccc21)C(C)(C)C

> <Shape>
0.252

> <Color>
0.068

> <Negative vol penalty>
0.000

$$$$

  -OEChem-04042322043D

 91 99  0     1  0  0  0  0  0999 V2000
  -31.4221  -31.2825   18.3122 C   0  0  0  0  0  0  0  0  0  0  0  0
  -30.7651  -30.6219   19.3453 C   0  0  0  0  0  0  0  0  0  0  0  0
  -22.9998   -9.8966   19.9812 C   0  0  0  0  0  0  0  0  0  0  0  0
  -23.7319   -9.9434   22.2832 C   0  0  0  0  0  0  0  0  0  0  0  0
  -30.8796  -31.2791   17.0278 C   0  0  0  0  0  0  0  0  0  0  0  0
  -29.5646  -29.9583   19.0948 C   0  0  0  0  0  0  0  0  0  0  0  0
  -29.3948  -25.3738   21.2392 C   0  0  0  0  0  0  0  0  0  0  0  0
  -22.2346   -8.7612   20.2477 C   0  0  0  0  0  0  0  0  0  0  0  0
  -22.9667   -8.8081   22.5497 C   0  0  0  0  0  0  0  0  0  0  0  0
  -29.1307  -25.3201   22.6071 C   0  0  0  0  0  0  0  0  0  0  0  0
  -23.2111   -5.4702   22.0706 C   0  0  0  0  0  0  0  0  0  0  0  0
  -23.8014   -4.4518   22.8189 C   0  0  0  0  0  0  0  0  0  0  0  0
  -26.8281  -24.7777   22.1352 C   0  0  0  0  0  0  0  0  0  0  0  0
  -29.4012  -18.8716   22.1081 C   0  0  0  0  0  0  0  0  0  0  0  0
  -22.0825   -4.6907   24.4998 C   0  0  0  0  0  0  0  0  0  0  0  0
  -23.7485  -10.4877   20.9990 C   0  0  0  0  0  0  0  0  0  0  0  0
  -24.1321  -13.0038   20.8267 C   0  0  0  0  0  0  0  0  0  0  0  0
  -29.6768  -30.6070   16.7594 C   0  0  0  0  0  0  0  0  0  0  0  0
  -28.3732  -25.1402   20.3074 C   0  0  0  0  0  0  0  0  0  0  0  0
  -29.0048  -29.9470   17.8059 C   0  0  0  0  0  0  0  0  0  0  0  0
  -27.0823  -24.8265   20.7560 C   0  0  0  0  0  0  0  0  0  0  0  0
  -28.5900  -19.7264   22.8544 C   0  0  0  0  0  0  0  0  0  0  0  0
  -29.9576  -17.7404   22.7050 C   0  0  0  0  0  0  0  0  0  0  0  0
  -29.7030  -17.4639   24.0482 C   0  0  0  0  0  0  0  0  0  0  0  0
  -28.3354  -19.4499   24.1977 C   0  0  0  0  0  0  0  0  0  0  0  0
  -28.8918  -18.3187   24.7946 C   0  0  0  0  0  0  0  0  0  0  0  0
  -22.2180   -8.2170   21.5319 C   0  0  0  0  0  0  0  0  0  0  0  0
  -27.8466  -25.0248   23.0553 C   0  0  0  0  0  0  0  0  0  0  0  0
  -22.0565   -6.0989   22.5368 C   0  0  0  0  0  0  0  0  0  0  0  0
  -23.2371   -4.0620   24.0335 C   0  0  0  0  0  0  0  0  0  0  0  0
  -21.4922   -5.7091   23.7514 C   0  0  0  0  0  0  0  0  0  0  0  0
  -24.5396  -11.6602   20.7242 C   0  0  0  0  0  0  0  0  0  0  0  0
  -25.2404  -13.7276   20.4603 C   0  0  0  0  0  0  0  0  0  0  0  0
  -22.8651  -13.5488   21.2181 C   0  0  0  0  0  0  0  0  0  0  0  0
  -26.9893  -26.8574   18.0183 C   0  0  0  0  0  0  0  0  0  0  0  0
  -25.4856  -24.0581   17.3666 C   0  0  0  0  0  0  0  0  0  0  0  0
  -24.4232  -21.0122   18.4805 C   0  0  0  0  0  0  0  0  0  0  0  0
  -30.7371  -14.6643   20.6941 C   0  0  0  0  0  0  0  0  0  0  0  0
  -29.1049  -30.6710   15.3653 C   0  0  0  0  0  0  0  0  0  0  0  0
  -28.6804  -25.1756   18.8354 C   0  0  0  0  0  0  0  0  0  0  0  0
  -25.9552  -24.5477   19.7966 C   0  0  0  0  0  0  0  0  0  0  0  0
  -28.0213  -29.6283   15.1030 C   0  0  0  0  0  0  0  0  0  0  0  0
  -29.5904  -12.2446   18.3474 C   0  0  0  0  0  0  0  0  0  0  0  0
  -27.0246  -29.5922   16.2572 C   0  0  0  0  0  0  0  0  0  0  0  0
  -28.1433  -11.9834   18.7688 C   0  0  0  0  0  0  0  0  0  0  0  0
  -30.4964  -12.4781   19.5543 C   0  0  0  0  0  0  0  0  0  0  0  0
  -28.5899  -13.2701   20.9004 C   0  0  0  0  0  0  0  0  0  0  0  0
  -27.7132  -29.1950   17.5685 C   0  0  1  0  0  0  0  0  0  0  0  0
  -27.4470  -25.4270   17.9735 C   0  0  1  0  0  0  0  0  0  0  0  0
  -27.6274  -13.0843   19.7149 C   0  0  2  0  0  0  0  0  0  0  0  0
  -28.0067  -20.9313   22.1916 C   0  0  0  0  0  0  0  0  0  0  0  0
  -30.2998  -16.2493   24.6858 C   0  0  0  0  0  0  0  0  0  0  0  0
  -23.1896  -18.9603   17.7286 C   0  0  0  0  0  0  0  0  0  0  0  0
  -31.3557  -19.5034   29.3659 C   0  0  0  0  0  0  0  0  0  0  0  0
  -29.4026  -21.0823   29.3350 C   0  0  0  0  0  0  0  0  0  0  0  0
  -22.8450  -25.5730   17.5727 C   0  0  0  0  0  0  0  0  0  0  0  0
  -21.6751  -23.3679   17.7648 C   0  0  0  0  0  0  0  0  0  0  0  0
  -22.9568  -23.9219   15.6977 C   0  0  0  0  0  0  0  0  0  0  0  0
  -26.7686  -19.2777   18.9799 C   0  0  0  0  0  0  0  0  0  0  0  0
  -30.8224  -16.8410   21.8832 C   0  0  0  0  0  0  0  0  0  0  0  0
  -27.4629  -20.3713   24.9981 C   0  0  0  0  0  0  0  0  0  0  0  0
  -28.6184  -18.0222   26.2356 C   0  0  0  0  0  0  0  0  0  0  0  0
  -28.0725  -23.8584   26.4576 C   0  0  0  0  0  0  0  0  0  0  0  0
  -27.2890  -22.6020   26.1084 C   0  0  0  0  0  0  0  0  0  0  0  0
  -29.0748  -18.6651   28.6057 C   0  0  0  0  0  0  0  0  0  0  0  0
  -28.6562  -24.5737   25.2455 C   0  0  0  0  0  0  0  0  0  1  0  0
  -24.2100  -23.3966   17.8297 C   0  0  1  0  0  0  0  0  0  0  0  0
  -24.5501  -19.6216   17.8851 C   0  0  2  0  0  0  0  0  0  0  0  0
  -29.8392  -19.6282   29.5210 C   0  0  0  0  0  0  0  0  0  0  0  0
  -22.9423  -24.0719   17.2346 C   0  0  0  0  0  0  0  0  0  0  0  0
  -25.8077  -11.5350   20.3240 N   0  0  0  0  0  0  0  0  0  0  0  0
  -26.2066  -12.8093   20.1716 N   0  0  0  0  0  0  0  0  0  0  0  0
  -26.3042  -24.6004   18.3673 N   0  0  0  0  0  0  0  0  0  0  0  0
  -29.9517  -13.5349   20.4101 N   0  0  0  0  0  0  0  0  0  0  0  0
  -25.4730  -15.0536   20.3601 N   0  0  0  0  0  0  0  0  0  0  0  0
  -21.8347  -12.6635   21.5630 N   0  0  0  0  0  0  0  0  0  0  0  0
  -27.9443  -27.7669   17.6056 N   0  0  0  0  0  0  0  0  0  0  0  0
  -24.3423  -21.9810   17.5027 N   0  0  0  0  0  0  0  0  0  0  0  0
  -30.1427  -15.6212   21.5076 N   0  0  0  0  0  0  0  0  0  0  0  0
  -25.3942  -18.7588   18.7593 N   0  3  0  0  0  0  0  0  0  0  0  0
  -28.1437  -21.6421   25.3712 N   0  3  0  0  0  0  0  0  0  0  0  0
  -29.3722  -18.9017   27.1681 N   0  3  0  0  0  0  0  0  0  0  0  0
  -22.6478  -14.7840   21.2448 O   0  0  0  0  0  0  0  0  0  0  0  0
  -25.8533  -27.1167   18.3978 O   0  0  0  0  0  0  0  0  0  0  0  0
  -25.7494  -24.0860   16.1619 O   0  0  0  0  0  0  0  0  0  0  0  0
  -24.3947  -21.2181   19.6918 O   0  0  0  0  0  0  0  0  0  0  0  0
  -31.8811  -14.8116   20.2508 O   0  0  0  0  0  0  0  0  0  0  0  0
  -21.4713   -7.1092   21.7923 O   0  0  0  0  0  0  0  0  0  0  0  0
  -27.5860  -24.9724   24.3899 O   0  0  0  0  0  0  0  0  0  1  0  0
  -23.8032   -3.0830   24.7514 F   0  0  0  0  0  0  0  0  0  0  0  0
  -20.3824   -6.3086   24.2040 F   0  0  0  0  0  0  0  0  0  0  0  0
  1  2  1  0  0  0  0
  1  5  2  0  0  0  0
  2  6  2  0  0  0  0
  3  8  2  0  0  0  0
  3 16  1  0  0  0  0
  4  9  1  0  0  0  0
  4 16  2  0  0  0  0
  5 18  1  0  0  0  0
  6 20  1  0  0  0  0
  7 10  2  0  0  0  0
  7 19  1  0  0  0  0
  8 27  1  0  0  0  0
  9 27  2  0  0  0  0
 10 28  1  0  0  0  0
 11 12  2  0  0  0  0
 11 29  1  0  0  0  0
 12 30  1  0  0  0  0
 13 21  1  0  0  0  0
 13 28  2  0  0  0  0
 14 22  2  0  0  0  0
 14 23  1  0  0  0  0
 15 30  2  0  0  0  0
 15 31  1  0  0  0  0
 16 32  1  0  0  0  0
 17 32  1  0  0  0  0
 17 33  2  0  0  0  0
 17 34  1  0  0  0  0
 18 20  2  0  0  0  0
 18 39  1  0  0  0  0
 19 21  2  0  0  0  0
 19 40  1  0  0  0  0
 20 48  1  0  0  0  0
 21 41  1  0  0  0  0
 22 25  1  0  0  0  0
 22 51  1  0  0  0  0
 23 24  2  0  0  0  0
 23 60  1  0  0  0  0
 24 26  1  0  0  0  0
 24 52  1  0  0  0  0
 25 26  2  0  0  0  0
 25 61  1  0  0  0  0
 26 62  1  0  0  0  0
 27 88  1  0  0  0  0
 28 89  1  0  0  0  0
 29 31  2  0  0  0  0
 29 88  1  0  0  0  0
 30 90  1  0  0  0  0
 31 91  1  0  0  0  0
 32 71  2  0  0  0  0
 33 72  1  0  0  0  0
 33 75  1  0  0  0  0
 34 76  1  0  0  0  0
 34 83  2  0  0  0  0
 35 49  1  0  0  0  0
 35 77  1  0  0  0  0
 35 84  2  0  0  0  0
 36 67  1  0  0  0  0
 36 73  1  0  0  0  0
 36 85  2  0  0  0  0
 37 68  1  0  0  0  0
 37 78  1  0  0  0  0
 37 86  2  0  0  0  0
 38 74  1  0  0  0  0
 38 79  1  0  0  0  0
 38 87  2  0  0  0  0
 39 42  1  0  0  0  0
 40 49  1  0  0  0  0
 41 73  1  0  0  0  0
 42 44  1  0  0  0  0
 43 45  1  0  0  0  0
 43 46  1  0  0  0  0
 44 48  1  0  0  0  0
 45 50  1  0  0  0  0
 46 74  1  0  0  0  0
 47 50  1  0  0  0  0
 47 74  1  0  0  0  0
 48 77  1  0  0  0  0
 49 73  1  0  0  0  0
 50 72  1  0  0  0  0
 53 68  1  0  0  0  0
 54 69  1  0  0  0  0
 55 69  1  0  0  0  0
 56 70  1  0  0  0  0
 57 70  1  0  0  0  0
 58 70  1  0  0  0  0
 59 80  1  0  0  0  0
 60 79  1  0  0  0  0
 61 81  1  0  0  0  0
 62 82  1  0  0  0  0
 63 64  1  0  0  0  0
 63 66  1  0  0  0  0
 64 81  1  0  0  0  0
 65 69  1  0  0  0  0
 65 82  1  0  0  0  0
 66 89  1  0  0  0  0
 67 70  1  0  0  0  0
 67 78  1  0  0  0  0
 68 80  1  0  0  0  0
 71 72  1  0  0  0  0
M  CHG  3  80   1  81   1  82   1
M  ISO  4  38 100  66 101  79 100  89 101
M  END
> <Batch ID>
0039

> <Smiles>
CNC(C)C(=O)NC(C(=O)N1Cc2cc([101O:1][101CH2:1]CCNCc3c(C)cc(C[100NH:0][100C:0](=O)N4CCCC(n5nc(-c6ccc(Oc7ccc(F)cc7F)cc6)c(C(N)=O)c5N)C4)c(C)c3CNCC(C)C)ccc2CC1C(=O)NC1CCCc2ccccc21)C(C)(C)C

> <Shape>
0.201

> <Color>
0.185

> <Negative vol penalty>
0.000

$$$$

  -OEChem-04042322043D

 84 92  0     1  0  0  0  0  0999 V2000
  -28.3186  -24.7746   16.5766 C   0  0  0  0  0  0  0  0  0  0  0  0
  -27.1384  -24.9130   17.3000 C   0  0  0  0  0  0  0  0  0  0  0  0
  -28.6634  -17.6376   21.3106 C   0  0  0  0  0  0  0  0  0  0  0  0
  -26.2851  -17.8488   20.9418 C   0  0  0  0  0  0  0  0  0  0  0  0
  -29.5022  -25.3279   17.0633 C   0  0  0  0  0  0  0  0  0  0  0  0
  -27.1414  -25.6039   18.5113 C   0  0  0  0  0  0  0  0  0  0  0  0
  -23.2372  -28.8014   18.9334 C   0  0  0  0  0  0  0  0  0  0  0  0
  -28.6353  -16.3570   20.7584 C   0  0  0  0  0  0  0  0  0  0  0  0
  -26.2570  -16.5682   20.3896 C   0  0  0  0  0  0  0  0  0  0  0  0
  -21.9971  -28.2529   19.2576 C   0  0  0  0  0  0  0  0  0  0  0  0
  -25.4942  -13.2153   19.2121 C   0  0  0  0  0  0  0  0  0  0  0  0
  -24.4677  -12.3594   19.6115 C   0  0  0  0  0  0  0  0  0  0  0  0
  -22.3111  -28.9164   21.5555 C   0  0  0  0  0  0  0  0  0  0  0  0
  -21.4676  -24.2367   26.0955 C   0  0  0  0  0  0  0  0  0  0  0  0
  -20.2217  -22.4906   24.3118 C   0  0  0  0  0  0  0  0  0  0  0  0
  -25.2257  -12.5181   21.9000 C   0  0  0  0  0  0  0  0  0  0  0  0
  -27.4882  -18.3835   21.4024 C   0  0  0  0  0  0  0  0  0  0  0  0
  -27.7294  -20.9207   21.2941 C   0  0  0  0  0  0  0  0  0  0  0  0
  -29.5177  -26.0342   18.2764 C   0  0  0  0  0  0  0  0  0  0  0  0
  -24.0297  -29.4029   19.9216 C   0  0  0  0  0  0  0  0  0  0  0  0
  -28.3265  -26.1660   19.0153 C   0  0  0  0  0  0  0  0  0  0  0  0
  -23.5597  -29.4741   21.2408 C   0  0  0  0  0  0  0  0  0  0  0  0
  -21.6510  -22.8600   26.2243 C   0  0  0  0  0  0  0  0  0  0  0  0
  -20.0383  -23.8674   24.1830 C   0  0  0  0  0  0  0  0  0  0  0  0
  -27.4322  -15.8223   20.2979 C   0  0  0  0  0  0  0  0  0  0  0  0
  -21.5352  -28.3078   20.5693 C   0  0  0  0  0  0  0  0  0  0  0  0
  -26.3864  -13.7226   20.1567 C   0  0  0  0  0  0  0  0  0  0  0  0
  -24.3335  -12.0109   20.9554 C   0  0  0  0  0  0  0  0  0  0  0  0
  -26.2522  -13.3740   21.5006 C   0  0  0  0  0  0  0  0  0  0  0  0
  -21.0281  -21.9869   25.3325 C   0  0  0  0  0  0  0  0  0  0  0  0
  -20.6612  -24.7404   25.0749 C   0  0  0  0  0  0  0  0  0  0  0  0
  -27.5164  -19.7061   21.9732 C   0  0  0  0  0  0  0  0  0  0  0  0
  -27.6615  -21.8793   22.2754 C   0  0  0  0  0  0  0  0  0  0  0  0
  -27.9672  -21.1610   19.9008 C   0  0  0  0  0  0  0  0  0  0  0  0
  -26.9072  -28.8310   21.1451 C   0  0  0  0  0  0  0  0  0  0  0  0
  -26.3636  -31.6162   22.7167 C   0  0  0  0  0  0  0  0  0  0  0  0
  -24.1006  -33.8631   23.9319 C   0  0  0  0  0  0  0  0  0  0  0  0
  -24.9692  -22.0587   27.6206 C   0  0  0  0  0  0  0  0  0  0  0  0
  -30.8308  -26.5740   18.7853 C   0  0  0  0  0  0  0  0  0  0  0  0
  -25.3532  -30.0137   19.5506 C   0  0  0  0  0  0  0  0  0  0  0  0
  -24.3632  -30.1269   22.3348 C   0  0  0  0  0  0  0  0  0  0  0  0
  -30.6741  -27.6131   19.8926 C   0  0  0  0  0  0  0  0  0  0  0  0
  -28.4375  -22.5095   26.9543 C   0  0  0  0  0  0  0  0  0  0  0  0
  -29.6735  -27.1318   20.9385 C   0  0  0  0  0  0  0  0  0  0  0  0
  -28.6140  -21.9518   25.5409 C   0  0  0  0  0  0  0  0  0  0  0  0
  -27.4171  -21.7040   27.7555 C   0  0  0  0  0  0  0  0  0  0  0  0
  -26.2804  -20.9868   25.6898 C   0  0  0  0  0  0  0  0  0  0  0  0
  -28.2844  -26.9297   20.3211 C   0  0  1  0  0  0  0  0  0  0  0  0
  -26.3041  -30.1451   20.7363 C   0  0  1  0  0  0  0  0  0  0  0  0
  -27.2585  -21.8000   24.8247 C   0  0  2  0  0  0  0  0  0  0  0  0
  -23.9560  -36.0218   25.2033 C   0  0  0  0  0  0  0  0  0  0  0  0
  -26.9757  -30.1277   25.3089 C   0  0  0  0  0  0  0  0  0  0  0  0
  -25.9118  -32.0157   26.5626 C   0  0  0  0  0  0  0  0  0  0  0  0
  -27.9428  -32.4301   25.1748 C   0  0  0  0  0  0  0  0  0  0  0  0
  -22.7745  -35.2395   21.6723 C   0  0  0  0  0  0  0  0  0  0  0  0
  -22.5229  -22.3610   27.3310 C   0  0  0  0  0  0  0  0  0  0  0  0
  -19.1631  -24.3696   23.0727 C   0  0  0  0  0  0  0  0  0  0  0  0
  -19.0550  -25.7331   20.9828 C   0  0  0  0  0  0  0  0  0  0  0  0
  -19.8830  -26.6590   20.1137 C   0  0  0  0  0  0  0  0  0  1  0  0
  -25.7293  -31.9946   24.0333 C   0  0  1  0  0  0  0  0  0  0  0  0
  -24.0280  -35.3759   23.8284 C   0  0  2  0  0  0  0  0  0  0  0  0
  -26.6254  -31.6279   25.2499 C   0  0  0  0  0  0  0  0  0  0  0  0
  -27.3276  -19.8749   23.2847 N   0  0  0  0  0  0  0  0  0  0  0  0
  -27.4217  -21.2067   23.4375 N   0  0  0  0  0  0  0  0  0  0  0  0
  -25.6536  -30.7040   21.9232 N   0  0  0  0  0  0  0  0  0  0  0  0
  -26.1536  -21.5988   27.0218 N   0  0  0  0  0  0  0  0  0  0  0  0
  -27.7841  -23.2234   22.2491 N   0  0  0  0  0  0  0  0  0  0  0  0
  -28.0054  -20.0632   19.0304 N   0  0  0  0  0  0  0  0  0  0  0  0
  -27.6207  -28.2032   20.1420 N   0  0  0  0  0  0  0  0  0  0  0  0
  -25.4041  -33.4135   23.9368 N   0  0  0  0  0  0  0  0  0  0  0  0
  -23.8175  -21.9276   26.8543 N   0  0  0  0  0  0  0  0  0  0  0  0
  -22.8226  -35.7848   23.0533 N   0  3  0  0  0  0  0  0  0  0  0  0
  -19.8791  -25.2672   22.1264 N   0  3  0  0  0  0  0  0  0  0  0  0
  -28.1570  -22.3137   19.4437 O   0  0  0  0  0  0  0  0  0  0  0  0
  -26.7390  -28.4181   22.2865 O   0  0  0  0  0  0  0  0  0  0  0  0
  -27.4457  -32.1171   22.4006 O   0  0  0  0  0  0  0  0  0  0  0  0
  -23.1010  -33.1517   24.0051 O   0  0  0  0  0  0  0  0  0  0  0  0
  -24.9410  -22.5547   28.7520 O   0  0  0  0  0  0  0  0  0  0  0  0
  -27.4045  -14.5729   19.7588 O   0  0  0  0  0  0  0  0  0  0  0  0
  -20.3254  -27.7726   20.8886 O   0  0  0  0  0  0  0  0  0  1  0  0
  -23.3468  -11.1901   21.3389 F   0  0  0  0  0  0  0  0  0  0  0  0
  -27.1056  -13.8591   22.4128 F   0  0  0  0  0  0  0  0  0  0  0  0
  -21.2333  -20.2780   25.4606 Cl  0  0  0  0  0  0  0  0  0  0  0  0
  -20.4573  -26.4496   24.9463 Cl  0  0  0  0  0  0  0  0  0  0  0  0
  1  2  1  0  0  0  0
  1  5  2  0  0  0  0
  2  6  2  0  0  0  0
  3  8  2  0  0  0  0
  3 17  1  0  0  0  0
  4  9  1  0  0  0  0
  4 17  2  0  0  0  0
  5 19  1  0  0  0  0
  6 21  1  0  0  0  0
  7 10  2  0  0  0  0
  7 20  1  0  0  0  0
  8 25  1  0  0  0  0
  9 25  2  0  0  0  0
 10 26  1  0  0  0  0
 11 12  2  0  0  0  0
 11 27  1  0  0  0  0
 12 28  1  0  0  0  0
 13 22  1  0  0  0  0
 13 26  2  0  0  0  0
 14 23  2  0  0  0  0
 14 31  1  0  0  0  0
 15 24  1  0  0  0  0
 15 30  2  0  0  0  0
 16 28  2  0  0  0  0
 16 29  1  0  0  0  0
 17 32  1  0  0  0  0
 18 32  1  0  0  0  0
 18 33  2  0  0  0  0
 18 34  1  0  0  0  0
 19 21  2  0  0  0  0
 19 39  1  0  0  0  0
 20 22  2  0  0  0  0
 20 40  1  0  0  0  0
 21 48  1  0  0  0  0
 22 41  1  0  0  0  0
 23 30  1  0  0  0  0
 23 56  1  0  0  0  0
 24 31  2  0  0  0  0
 24 57  1  0  0  0  0
 25 79  1  0  0  0  0
 26 80  1  0  0  0  0
 27 29  2  0  0  0  0
 27 79  1  0  0  0  0
 28 81  1  0  0  0  0
 29 82  1  0  0  0  0
 30 83  1  0  0  0  0
 31 84  1  0  0  0  0
 32 63  2  0  0  0  0
 33 64  1  0  0  0  0
 33 67  1  0  0  0  0
 34 68  1  0  0  0  0
 34 74  2  0  0  0  0
 35 49  1  0  0  0  0
 35 69  1  0  0  0  0
 35 75  2  0  0  0  0
 36 60  1  0  0  0  0
 36 65  1  0  0  0  0
 36 76  2  0  0  0  0
 37 61  1  0  0  0  0
 37 70  1  0  0  0  0
 37 77  2  0  0  0  0
 38 66  1  0  0  0  0
 38 71  1  0  0  0  0
 38 78  2  0  0  0  0
 39 42  1  0  0  0  0
 40 49  1  0  0  0  0
 41 65  1  0  0  0  0
 42 44  1  0  0  0  0
 43 45  1  0  0  0  0
 43 46  1  0  0  0  0
 44 48  1  0  0  0  0
 45 50  1  0  0  0  0
 46 66  1  0  0  0  0
 47 50  1  0  0  0  0
 47 66  1  0  0  0  0
 48 69  1  0  0  0  0
 49 65  1  0  0  0  0
 50 64  1  0  0  0  0
 51 61  1  0  0  0  0
 52 62  1  0  0  0  0
 53 62  1  0  0  0  0
 54 62  1  0  0  0  0
 55 72  1  0  0  0  0
 56 71  1  0  0  0  0
 57 73  1  0  0  0  0
 58 59  1  0  0  0  0
 58 73  1  0  0  0  0
 59 80  1  0  0  0  0
 60 62  1  0  0  0  0
 60 70  1  0  0  0  0
 61 72  1  0  0  0  0
 63 64  1  0  0  0  0
M  CHG  2  72   1  73   1
M  ISO  4  38 100  59 101  71 100  80 101
M  END
> <Batch ID>
0039

> <Smiles>
CNC(C)C(=O)NC(C(=O)N1Cc2cc([101O:1][101CH2:1]CNCc3cc(Cl)c(C[100NH:0][100C:0](=O)N4CCCC(n5nc(-c6ccc(Oc7ccc(F)cc7F)cc6)c(C(N)=O)c5N)C4)cc3Cl)ccc2CC1C(=O)NC1CCCc2ccccc21)C(C)(C)C

> <Shape>
0.270

> <Color>
0.077

> <Negative vol penalty>
0.000

$$$$

  -OEChem-04042322043D

 92101  0     1  0  0  0  0  0999 V2000
  -19.4700  -26.3269   26.0462 C   0  0  0  0  0  0  0  0  0  0  0  0
  -20.6597  -25.7141   25.6661 C   0  0  0  0  0  0  0  0  0  0  0  0
  -23.0281  -10.1697   19.9116 C   0  0  0  0  0  0  0  0  0  0  0  0
  -23.7742   -9.8915   22.1926 C   0  0  0  0  0  0  0  0  0  0  0  0
  -18.6730  -26.9533   25.0889 C   0  0  0  0  0  0  0  0  0  0  0  0
  -21.0526  -25.7264   24.3282 C   0  0  0  0  0  0  0  0  0  0  0  0
  -26.9292  -25.9385   20.2371 C   0  0  0  0  0  0  0  0  0  0  0  0
  -22.2111   -9.0467   20.0419 C   0  0  0  0  0  0  0  0  0  0  0  0
  -22.9572   -8.7685   22.3229 C   0  0  0  0  0  0  0  0  0  0  0  0
  -27.5295  -25.2586   19.1782 C   0  0  0  0  0  0  0  0  0  0  0  0
  -19.2102   -8.2942   21.4062 C   0  0  0  0  0  0  0  0  0  0  0  0
  -17.9058   -8.3817   20.9201 C   0  0  0  0  0  0  0  0  0  0  0  0
  -28.6453  -16.9435   18.2142 C   0  0  0  0  0  0  0  0  0  0  0  0
  -26.1121  -26.4396   17.6241 C   0  0  0  0  0  0  0  0  0  0  0  0
  -18.3482   -6.5537   19.4036 C   0  0  0  0  0  0  0  0  0  0  0  0
  -23.8097  -10.5921   20.9870 C   0  0  0  0  0  0  0  0  0  0  0  0
  -28.8207  -15.9650   17.2358 C   0  0  0  0  0  0  0  0  0  0  0  0
  -24.3119  -13.0892   21.1282 C   0  0  0  0  0  0  0  0  0  0  0  0
  -19.0611  -26.9816   23.7401 C   0  0  0  0  0  0  0  0  0  0  0  0
  -25.9065  -26.8677   19.9978 C   0  0  0  0  0  0  0  0  0  0  0  0
  -20.2594  -26.3526   23.3518 C   0  0  0  0  0  0  0  0  0  0  0  0
  -25.5021  -27.1319   18.6814 C   0  0  0  0  0  0  0  0  0  0  0  0
  -28.1034  -16.0364   16.0415 C   0  0  0  0  0  0  0  0  0  0  0  0
  -27.2106  -17.0862   15.8260 C   0  0  0  0  0  0  0  0  0  0  0  0
  -27.0350  -18.0646   16.8045 C   0  0  0  0  0  0  0  0  0  0  0  0
  -22.1756   -8.3461   21.2475 C   0  0  0  0  0  0  0  0  0  0  0  0
  -27.1190  -25.5070   17.8718 C   0  0  0  0  0  0  0  0  0  0  0  0
  -20.0838   -7.3365   20.8909 C   0  0  0  0  0  0  0  0  0  0  0  0
  -17.4747   -7.5115   19.9189 C   0  0  0  0  0  0  0  0  0  0  0  0
  -19.6527   -6.4663   19.8896 C   0  0  0  0  0  0  0  0  0  0  0  0
  -27.7525  -17.9935   17.9986 C   0  0  0  0  0  0  0  0  0  0  0  0
  -24.6543  -11.7518   20.8529 C   0  0  0  0  0  0  0  0  0  0  0  0
  -25.4515  -13.8010   20.8432 C   0  0  0  0  0  0  0  0  0  0  0  0
  -29.7679  -14.8723   17.4919 C   0  0  0  0  0  0  0  0  0  0  0  0
  -23.0745  -13.6390   21.5995 C   0  0  0  0  0  0  0  0  0  0  0  0
  -22.8432  -27.0921   20.8160 C   0  0  0  0  0  0  0  0  0  0  0  0
  -23.0830  -30.0041   19.4072 C   0  0  0  0  0  0  0  0  0  0  0  0
  -24.6926  -32.0161   17.1693 C   0  0  0  0  0  0  0  0  0  0  0  0
  -18.1432  -27.6299   22.7341 C   0  0  0  0  0  0  0  0  0  0  0  0
  -25.2875  -27.6123   21.1488 C   0  0  0  0  0  0  0  0  0  0  0  0
  -24.4225  -28.1347   18.3696 C   0  0  0  0  0  0  0  0  0  0  0  0
  -18.8164  -27.9232   21.3958 C   0  0  0  0  0  0  0  0  0  0  0  0
  -30.1659  -12.2463   19.8768 C   0  0  0  0  0  0  0  0  0  0  0  0
  -29.0486  -21.3845   16.1921 C   0  0  0  0  0  0  0  0  0  0  0  0
  -19.6142  -26.7122   20.9228 C   0  0  0  0  0  0  0  0  0  0  0  0
  -28.7376  -11.9775   20.3538 C   0  0  0  0  0  0  0  0  0  0  0  0
  -28.8748  -22.8958   16.1749 C   0  0  0  0  0  0  0  0  0  0  0  0
  -26.3407  -23.0258   16.0621 C   0  0  0  0  0  0  0  0  0  0  0  0
  -30.2057  -12.6136   18.3956 C   0  0  0  0  0  0  0  0  0  0  0  0
  -27.8904  -13.4704   18.4954 C   0  0  0  0  0  0  0  0  0  0  0  0
  -27.8875  -20.5870   15.6129 C   0  0  0  0  0  0  0  0  0  0  0  0
  -20.7317  -26.3662   21.9142 C   0  0  1  0  0  0  0  0  0  0  0  0
  -23.9000  -28.1601   20.8290 C   0  0  1  0  0  0  0  0  0  0  0  0
  -27.8005  -13.1463   19.9957 C   0  0  1  0  0  0  0  0  0  0  0  0
  -27.6017  -23.4163   16.8370 C   0  0  2  0  0  0  0  0  0  1  0  0
  -25.7080  -21.6771   16.4383 C   0  0  2  0  0  0  0  0  0  0  0  0
  -28.2907  -14.9867   14.9915 C   0  0  0  0  0  0  0  0  0  0  0  0
  -23.8391  -22.8411   17.6219 C   0  0  0  0  0  0  0  0  0  0  0  0
  -24.6369  -34.3339   16.2091 C   0  0  0  0  0  0  0  0  0  0  0  0
  -20.6803  -29.2332   17.6918 C   0  0  0  0  0  0  0  0  0  0  0  0
  -21.2593  -31.1229   16.1549 C   0  0  0  0  0  0  0  0  0  0  0  0
  -20.6514  -31.5897   18.5288 C   0  0  0  0  0  0  0  0  0  0  0  0
  -27.4101  -32.6221   18.1727 C   0  0  0  0  0  0  0  0  0  0  0  0
  -26.0709  -19.1878   16.5593 C   0  0  0  0  0  0  0  0  0  0  0  0
  -24.9141  -21.8150   17.7435 C   0  0  0  0  0  0  0  0  0  0  0  0
  -22.8884  -30.5335   18.0069 C   0  0  1  0  0  0  0  0  0  0  0  0
  -25.2201  -33.4346   17.2879 C   0  0  2  0  0  0  0  0  0  0  0  0
  -26.4414  -17.1610   14.5448 C   0  0  0  0  0  0  0  0  0  0  0  0
  -21.3889  -30.5995   17.6013 C   0  0  0  0  0  0  0  0  0  0  0  0
  -25.9128  -11.6192   20.4256 N   0  0  0  0  0  0  0  0  0  0  0  0
  -26.3712  -12.8825   20.4302 N   0  0  0  0  0  0  0  0  0  0  0  0
  -29.2876  -13.7158   18.1109 N   0  0  0  0  0  0  0  0  0  0  0  0
  -23.8435  -28.8325   19.5295 N   0  0  0  0  0  0  0  0  0  0  0  0
  -25.7464  -15.1168   20.9079 N   0  0  0  0  0  0  0  0  0  0  0  0
  -22.0050  -12.7662   21.8421 N   0  0  0  0  0  0  0  0  0  0  0  0
  -21.8469  -27.2750   21.7560 N   0  0  0  0  0  0  0  0  0  0  0  0
  -23.5781  -31.8182   17.9567 N   0  0  0  0  0  0  0  0  0  0  0  0
  -26.7288  -20.5536   16.5937 N   0  3  1  0  0  0  0  0  0  0  0  0
  -26.7047  -33.4476   17.1587 N   0  3  0  0  0  0  0  0  0  0  0  0
  -30.9318  -15.0697   17.1462 O   0  0  0  0  0  0  0  0  0  0  0  0
  -22.9165  -14.8696   21.7840 O   0  0  0  0  0  0  0  0  0  0  0  0
  -22.9248  -26.1711   20.0118 O   0  0  0  0  0  0  0  0  0  0  0  0
  -22.5849  -30.6117   20.3581 O   0  0  0  0  0  0  0  0  0  0  0  0
  -25.2145  -31.1695   16.4473 O   0  0  0  0  0  0  0  0  0  0  0  0
  -21.3783   -7.2504   21.3750 O   0  0  0  0  0  0  0  0  0  0  0  0
  -27.7029  -24.8443   16.8365 O   0  0  0  0  0  0  0  0  0  1  0  0
  -16.2215   -7.5946   19.4533 F   0  0  0  0  0  0  0  0  0  0  0  0
  -20.4870   -5.5434   19.3915 F   0  0  0  0  0  0  0  0  0  0  0  0
  -26.7164  -16.1373   13.6862 F   0  0  0  0  0  0  0  0  0  0  0  0
  -25.0893  -17.1294   14.7218 F   0  0  0  0  0  0  0  0  0  0  0  0
  -26.6974  -18.3056   13.8503 F   0  0  0  0  0  0  0  0  0  0  0  0
  -27.5641  -19.1847   19.2342 Cl  0  0  0  0  0  0  0  0  0  0  0  0
  1  2  1  0  0  0  0
  1  5  2  0  0  0  0
  2  6  2  0  0  0  0
  3  8  2  0  0  0  0
  3 16  1  0  0  0  0
  4  9  1  0  0  0  0
  4 16  2  0  0  0  0
  5 19  1  0  0  0  0
  6 21  1  0  0  0  0
  7 10  2  0  0  0  0
  7 20  1  0  0  0  0
  8 26  1  0  0  0  0
  9 26  2  0  0  0  0
 10 27  1  0  0  0  0
 11 12  2  0  0  0  0
 11 28  1  0  0  0  0
 12 29  1  0  0  0  0
 13 17  1  0  0  0  0
 13 31  2  0  0  0  0
 14 22  1  0  0  0  0
 14 27  2  0  0  0  0
 15 29  2  0  0  0  0
 15 30  1  0  0  0  0
 16 32  1  0  0  0  0
 17 23  2  0  0  0  0
 17 34  1  0  0  0  0
 18 32  1  0  0  0  0
 18 33  2  0  0  0  0
 18 35  1  0  0  0  0
 19 21  2  0  0  0  0
 19 39  1  0  0  0  0
 20 22  2  0  0  0  0
 20 40  1  0  0  0  0
 21 52  1  0  0  0  0
 22 41  1  0  0  0  0
 23 24  1  0  0  0  0
 23 57  1  0  0  0  0
 24 25  2  0  0  0  0
 24 68  1  0  0  0  0
 25 31  1  0  0  0  0
 25 64  1  0  0  0  0
 26 85  1  0  0  0  0
 27 86  1  0  0  0  0
 28 30  2  0  0  0  0
 28 85  1  0  0  0  0
 29 87  1  0  0  0  0
 30 88  1  0  0  0  0
 31 92  1  0  0  0  0
 32 70  2  0  0  0  0
 33 71  1  0  0  0  0
 33 74  1  0  0  0  0
 34 72  1  0  0  0  0
 34 80  2  0  0  0  0
 35 75  1  0  0  0  0
 35 81  2  0  0  0  0
 36 53  1  0  0  0  0
 36 76  1  0  0  0  0
 36 82  2  0  0  0  0
 37 66  1  0  0  0  0
 37 73  1  0  0  0  0
 37 83  2  0  0  0  0
 38 67  1  0  0  0  0
 38 77  1  0  0  0  0
 38 84  2  0  0  0  0
 39 42  1  0  0  0  0
 40 53  1  0  0  0  0
 41 73  1  0  0  0  0
 42 45  1  0  0  0  0
 43 46  1  0  0  0  0
 43 49  1  0  0  0  0
 44 47  1  0  0  0  0
 44 51  1  0  0  0  0
 45 52  1  0  0  0  0
 46 54  1  0  0  0  0
 47 55  1  0  0  0  0
 48 55  1  0  0  0  0
 48 56  1  0  0  0  0
 49 72  1  0  0  0  0
 50 54  1  0  0  0  0
 50 72  1  0  0  0  0
 51 78  1  0  0  0  0
 52 76  1  0  0  0  0
 53 73  1  0  0  0  0
 54 71  1  0  0  0  0
 55 86  1  0  0  0  0
 56 65  1  0  0  0  0
 56 78  1  0  0  0  0
 58 65  1  0  0  0  0
 59 67  1  0  0  0  0
 60 69  1  0  0  0  0
 61 69  1  0  0  0  0
 62 69  1  0  0  0  0
 63 79  1  0  0  0  0
 64 78  1  0  0  0  0
 66 69  1  0  0  0  0
 66 77  1  0  0  0  0
 67 79  1  0  0  0  0
 68 89  1  0  0  0  0
 68 90  1  0  0  0  0
 68 91  1  0  0  0  0
 70 71  1  0  0  0  0
M  CHG  2  78   1  79   1
M  ISO  4  17 100  34 100  55 101  86 101
M  END
> <Batch ID>
0039

> <Smiles>
CCC1C[101CH:1]([101O:1]c2ccc3c(c2)CN(C(=O)C(NC(=O)C(C)NC)C(C)(C)C)C(C(=O)NC2CCCc4ccccc42)C3)CCCN1Cc1c(Cl)c[100c:0]([100C:0](=O)N2CCCC(n3nc(-c4ccc(Oc5ccc(F)cc5F)cc4)c(C(N)=O)c3N)C2)c(C)c1C(F)(F)F

> <Shape>
0.214

> <Color>
0.160

> <Negative vol penalty>
0.000

$$$$

  -OEChem-04042322043D

 86 94  0     1  0  0  0  0  0999 V2000
  -21.7825  -32.5932   22.6653 C   0  0  0  0  0  0  0  0  0  0  0  0
  -21.5798  -31.3201   22.1421 C   0  0  0  0  0  0  0  0  0  0  0  0
  -26.9452  -12.9368   20.8772 C   0  0  0  0  0  0  0  0  0  0  0  0
  -27.2767  -12.7623   18.4904 C   0  0  0  0  0  0  0  0  0  0  0  0
  -22.9001  -33.3333   22.2818 C   0  0  0  0  0  0  0  0  0  0  0  0
  -22.4941  -30.7869   21.2343 C   0  0  0  0  0  0  0  0  0  0  0  0
  -23.6696  -25.9699   22.2636 C   0  0  0  0  0  0  0  0  0  0  0  0
  -26.3627  -11.6695   20.8890 C   0  0  0  0  0  0  0  0  0  0  0  0
  -26.6942  -11.4949   18.5022 C   0  0  0  0  0  0  0  0  0  0  0  0
  -22.7441  -24.9954   21.8927 C   0  0  0  0  0  0  0  0  0  0  0  0
  -24.4617   -8.6284   21.4903 C   0  0  0  0  0  0  0  0  0  0  0  0
  -23.2873   -8.4596   22.2237 C   0  0  0  0  0  0  0  0  0  0  0  0
  -24.0543  -24.5077   19.9268 C   0  0  0  0  0  0  0  0  0  0  0  0
  -24.4984  -24.7524   15.5770 C   0  0  0  0  0  0  0  0  0  0  0  0
  -22.1945  -10.1256   20.8571 C   0  0  0  0  0  0  0  0  0  0  0  0
  -27.4021  -13.4833   19.6779 C   0  0  0  0  0  0  0  0  0  0  0  0
  -29.3663  -15.1039   19.8313 C   0  0  0  0  0  0  0  0  0  0  0  0
  -23.8336  -32.8051   21.3762 C   0  0  0  0  0  0  0  0  0  0  0  0
  -24.7906  -26.2286   21.4618 C   0  0  0  0  0  0  0  0  0  0  0  0
  -23.6245  -31.5212   20.8373 C   0  0  0  0  0  0  0  0  0  0  0  0
  -24.9939  -25.4842   20.2910 C   0  0  0  0  0  0  0  0  0  0  0  0
  -24.2316  -23.3945   15.7516 C   0  0  0  0  0  0  0  0  0  0  0  0
  -22.9193  -22.9599   15.9379 C   0  0  0  0  0  0  0  0  0  0  0  0
  -21.8738  -23.8833   15.9496 C   0  0  0  0  0  0  0  0  0  0  0  0
  -26.2372  -10.9485   19.7016 C   0  0  0  0  0  0  0  0  0  0  0  0
  -22.9348  -24.2661   20.7227 C   0  0  0  0  0  0  0  0  0  0  0  0
  -24.5026   -9.5459   20.4404 C   0  0  0  0  0  0  0  0  0  0  0  0
  -22.1537   -9.2081   21.9071 C   0  0  0  0  0  0  0  0  0  0  0  0
  -23.3690  -10.2944   20.1238 C   0  0  0  0  0  0  0  0  0  0  0  0
  -23.4530  -25.6758   15.5887 C   0  0  0  0  0  0  0  0  0  0  0  0
  -22.1407  -25.2412   15.7750 C   0  0  0  0  0  0  0  0  0  0  0  0
  -28.0035  -14.7926   19.6650 C   0  0  0  0  0  0  0  0  0  0  0  0
  -29.4196  -16.4731   19.7377 C   0  0  0  0  0  0  0  0  0  0  0  0
  -19.9524  -23.4121   18.3882 C   0  0  0  0  0  0  0  0  0  0  0  0
  -30.4840  -14.2332   20.0507 C   0  0  0  0  0  0  0  0  0  0  0  0
  -25.8653  -28.7521   19.8554 C   0  0  0  0  0  0  0  0  0  0  0  0
  -28.4429  -26.8473   19.3556 C   0  0  0  0  0  0  0  0  0  0  0  0
  -29.7178  -23.6870   19.1719 C   0  0  0  0  0  0  0  0  0  0  0  0
  -25.9250  -20.3680   17.0040 C   0  0  0  0  0  0  0  0  0  0  0  0
  -25.0016  -33.6615   20.9553 C   0  0  0  0  0  0  0  0  0  0  0  0
  -25.7937  -27.2646   21.8896 C   0  0  0  0  0  0  0  0  0  0  0  0
  -26.1916  -25.7094   19.4060 C   0  0  0  0  0  0  0  0  0  0  0  0
  -26.1197  -32.8753   20.2756 C   0  0  0  0  0  0  0  0  0  0  0  0
  -26.7771  -20.3860   20.5212 C   0  0  0  0  0  0  0  0  0  0  0  0
  -25.5450  -31.9278   19.2273 C   0  0  0  0  0  0  0  0  0  0  0  0
  -27.3214  -18.9688   20.7096 C   0  0  0  0  0  0  0  0  0  0  0  0
  -25.5998  -20.4015   19.5507 C   0  0  0  0  0  0  0  0  0  0  0  0
  -26.4367  -18.3874   18.4033 C   0  0  0  0  0  0  0  0  0  0  0  0
  -24.6069  -30.8985   19.8691 C   0  0  1  0  0  0  0  0  0  0  0  0
  -26.6299  -27.8007   20.7316 C   0  0  1  0  0  0  0  0  0  0  0  0
  -27.6432  -18.3077   19.3562 C   0  0  2  0  0  0  0  0  0  0  0  0
  -22.6384  -21.5021   16.1244 C   0  0  0  0  0  0  0  0  0  0  0  0
  -31.8496  -22.4466   18.7087 C   0  0  0  0  0  0  0  0  0  0  0  0
  -28.1038  -27.3838   16.3711 C   0  0  0  0  0  0  0  0  0  0  0  0
  -29.5991  -25.4269   15.9204 C   0  0  0  0  0  0  0  0  0  0  0  0
  -30.4731  -27.4002   17.1714 C   0  0  0  0  0  0  0  0  0  0  0  0
  -29.7378  -22.4787   21.8735 C   0  0  0  0  0  0  0  0  0  0  0  0
  -20.4679  -23.3916   16.1519 C   0  0  0  0  0  0  0  0  0  0  0  0
  -25.3691  -22.4264   15.7347 C   0  0  0  0  0  0  0  0  0  0  0  0
  -19.7536  -22.8335   19.7638 C   0  0  0  0  0  0  0  0  0  0  0  0
  -20.6776  -23.5180   20.7569 C   0  0  0  0  0  0  0  0  0  1  0  0
  -28.8391  -25.8387   18.3045 C   0  0  1  0  0  0  0  0  0  0  0  0
  -30.9636  -23.0665   19.7781 C   0  0  2  0  0  0  0  0  0  0  0  0
  -29.2301  -26.5093   16.9573 C   0  0  0  0  0  0  0  0  0  0  0  0
  -27.2457  -15.8769   19.4800 N   0  0  0  0  0  0  0  0  0  0  0  0
  -20.3224  -22.6630   17.4086 N   0  0  0  0  0  0  0  0  0  0  0  0
  -28.1355  -16.8829   19.5295 N   0  0  0  0  0  0  0  0  0  0  0  0
  -27.1407  -26.7377   19.8637 N   0  0  0  0  0  0  0  0  0  0  0  0
  -25.9777  -19.7747   18.2762 N   0  0  0  0  0  0  0  0  0  0  0  0
  -30.4392  -17.3546   19.8141 N   0  0  0  0  0  0  0  0  0  0  0  0
  -30.2520  -12.8527   20.1201 N   0  0  0  0  0  0  0  0  0  0  0  0
  -25.3704  -29.8568   20.5220 N   0  0  0  0  0  0  0  0  0  0  0  0
  -29.8964  -25.0262   18.8965 N   0  0  0  0  0  0  0  0  0  0  0  0
  -25.4726  -21.6813   16.9697 N   0  0  0  0  0  0  0  0  0  0  0  0
  -30.5907  -22.0035   20.7537 N   0  3  0  0  0  0  0  0  0  0  0  0
  -31.6516  -14.6676   20.1975 O   0  0  0  0  0  0  0  0  0  0  0  0
  -25.7353  -28.5033   18.6626 O   0  0  0  0  0  0  0  0  0  0  0  0
  -29.2610  -27.6965   19.7177 O   0  0  0  0  0  0  0  0  0  0  0  0
  -28.6903  -23.0467   18.9601 O   0  0  0  0  0  0  0  0  0  0  0  0
  -26.2616  -19.7729   15.9746 O   0  0  0  0  0  0  0  0  0  0  0  0
  -25.6691   -9.7117   19.7127 O   0  0  0  0  0  0  0  0  0  0  0  0
  -22.0326  -23.3149   20.3581 O   0  0  0  0  0  0  0  0  0  1  0  0
  -21.0255   -9.0448   22.6104 F   0  0  0  0  0  0  0  0  0  0  0  0
  -23.4018  -11.1765   19.1155 F   0  0  0  0  0  0  0  0  0  0  0  0
  -23.8560  -27.3432   15.3663 Cl  0  0  0  0  0  0  0  0  0  0  0  0
  -20.8255  -26.3739   15.7932 Cl  0  0  0  0  0  0  0  0  0  0  0  0
  1  2  1  0  0  0  0
  1  5  2  0  0  0  0
  2  6  2  0  0  0  0
  3  8  2  0  0  0  0
  3 16  1  0  0  0  0
  4  9  1  0  0  0  0
  4 16  2  0  0  0  0
  5 18  1  0  0  0  0
  6 20  1  0  0  0  0
  7 10  2  0  0  0  0
  7 19  1  0  0  0  0
  8 25  1  0  0  0  0
  9 25  2  0  0  0  0
 10 26  1  0  0  0  0
 11 12  2  0  0  0  0
 11 27  1  0  0  0  0
 12 28  1  0  0  0  0
 13 21  1  0  0  0  0
 13 26  2  0  0  0  0
 14 22  1  0  0  0  0
 14 30  2  0  0  0  0
 15 28  2  0  0  0  0
 15 29  1  0  0  0  0
 16 32  1  0  0  0  0
 17 32  1  0  0  0  0
 17 33  2  0  0  0  0
 17 35  1  0  0  0  0
 18 20  2  0  0  0  0
 18 40  1  0  0  0  0
 19 21  2  0  0  0  0
 19 41  1  0  0  0  0
 20 49  1  0  0  0  0
 21 42  1  0  0  0  0
 22 23  2  0  0  0  0
 22 59  1  0  0  0  0
 23 24  1  0  0  0  0
 23 52  1  0  0  0  0
 24 31  2  0  0  0  0
 24 58  1  0  0  0  0
 25 81  1  0  0  0  0
 26 82  1  0  0  0  0
 27 29  2  0  0  0  0
 27 81  1  0  0  0  0
 28 83  1  0  0  0  0
 29 84  1  0  0  0  0
 30 31  1  0  0  0  0
 30 85  1  0  0  0  0
 31 86  1  0  0  0  0
 32 65  2  0  0  0  0
 33 67  1  0  0  0  0
 33 70  1  0  0  0  0
 34 60  1  0  0  0  0
 34 66  2  0  0  0  0
 35 71  1  0  0  0  0
 35 76  2  0  0  0  0
 36 50  1  0  0  0  0
 36 72  1  0  0  0  0
 36 77  2  0  0  0  0
 37 62  1  0  0  0  0
 37 68  1  0  0  0  0
 37 78  2  0  0  0  0
 38 63  1  0  0  0  0
 38 73  1  0  0  0  0
 38 79  2  0  0  0  0
 39 69  1  0  0  0  0
 39 74  1  0  0  0  0
 39 80  2  0  0  0  0
 40 43  1  0  0  0  0
 41 50  1  0  0  0  0
 42 68  1  0  0  0  0
 43 45  1  0  0  0  0
 44 46  1  0  0  0  0
 44 47  1  0  0  0  0
 45 49  1  0  0  0  0
 46 51  1  0  0  0  0
 47 69  1  0  0  0  0
 48 51  1  0  0  0  0
 48 69  1  0  0  0  0
 49 72  1  0  0  0  0
 50 68  1  0  0  0  0
 51 67  1  0  0  0  0
 53 63  1  0  0  0  0
 54 64  1  0  0  0  0
 55 64  1  0  0  0  0
 56 64  1  0  0  0  0
 57 75  1  0  0  0  0
 58 66  1  0  0  0  0
 59 74  1  0  0  0  0
 60 61  1  0  0  0  0
 61 82  1  0  0  0  0
 62 64  1  0  0  0  0
 62 73  1  0  0  0  0
 63 75  1  0  0  0  0
 65 67  1  0  0  0  0
M  CHG  1  75   1
M  ISO  4  39 100  61 101  74 100  82 101
M  END
> <Batch ID>
0039

> <Smiles>
CNC(C)C(=O)NC(C(=O)N1Cc2cc([101O:1][101CH2:1]C=CNCc3c(C)c(C[100NH:0][100C:0](=O)N4CCCC(n5nc(-c6ccc(Oc7ccc(F)cc7F)cc6)c(C(N)=O)c5N)C4)cc(Cl)c3Cl)ccc2CC1C(=O)NC1CCCc2ccccc21)C(C)(C)C

> <Shape>
0.209

> <Color>
0.078

> <Negative vol penalty>
0.000

$$$$

  -OEChem-04042322043D

 89 98  0     1  0  0  0  0  0999 V2000
  -31.3402  -12.6795   17.1242 C   0  0  0  0  0  0  0  0  0  0  0  0
  -30.3979  -13.5945   16.6658 C   0  0  0  0  0  0  0  0  0  0  0  0
  -29.1640  -28.8273   19.5185 C   0  0  0  0  0  0  0  0  0  0  0  0
  -27.4608  -27.2927   20.2808 C   0  0  0  0  0  0  0  0  0  0  0  0
  -31.1437  -12.0290   18.3417 C   0  0  0  0  0  0  0  0  0  0  0  0
  -29.2580  -13.8589   17.4240 C   0  0  0  0  0  0  0  0  0  0  0  0
  -26.5400  -20.6492   20.1683 C   0  0  0  0  0  0  0  0  0  0  0  0
  -30.0446  -27.7607   19.3386 C   0  0  0  0  0  0  0  0  0  0  0  0
  -28.3414  -26.2260   20.1008 C   0  0  0  0  0  0  0  0  0  0  0  0
  -26.0447  -21.7670   20.8401 C   0  0  0  0  0  0  0  0  0  0  0  0
  -30.9539  -24.8475   21.7456 C   0  0  0  0  0  0  0  0  0  0  0  0
  -31.0309  -23.8926   22.7594 C   0  0  0  0  0  0  0  0  0  0  0  0
  -25.0577  -20.3338   22.5193 C   0  0  0  0  0  0  0  0  0  0  0  0
  -19.0456  -28.7915   22.5258 C   0  0  0  0  0  0  0  0  0  0  0  0
  -30.3351  -22.1823   21.2012 C   0  0  0  0  0  0  0  0  0  0  0  0
  -27.8721  -28.5934   19.9896 C   0  0  0  0  0  0  0  0  0  0  0  0
  -26.5065  -30.5965   19.1959 C   0  0  0  0  0  0  0  0  0  0  0  0
  -30.0055  -12.2927   19.1199 C   0  0  0  0  0  0  0  0  0  0  0  0
  -26.3088  -19.3687   20.6784 C   0  0  0  0  0  0  0  0  0  0  0  0
  -29.0454  -13.2104   18.6524 C   0  0  0  0  0  0  0  0  0  0  0  0
  -25.5619  -19.2111   21.8575 C   0  0  0  0  0  0  0  0  0  0  0  0
  -19.9660  -28.4104   23.5020 C   0  0  0  0  0  0  0  0  0  0  0  0
  -20.4067  -27.0886   23.5670 C   0  0  0  0  0  0  0  0  0  0  0  0
  -19.9268  -26.1478   22.6558 C   0  0  0  0  0  0  0  0  0  0  0  0
  -19.0063  -26.5289   21.6795 C   0  0  0  0  0  0  0  0  0  0  0  0
  -29.6333  -26.4600   19.6297 C   0  0  0  0  0  0  0  0  0  0  0  0
  -25.3052  -21.6097   22.0125 C   0  0  0  0  0  0  0  0  0  0  0  0
  -30.5675  -24.4698   20.4596 C   0  0  0  0  0  0  0  0  0  0  0  0
  -30.7216  -22.5600   22.4872 C   0  0  0  0  0  0  0  0  0  0  0  0
  -30.2581  -23.1372   20.1874 C   0  0  0  0  0  0  0  0  0  0  0  0
  -18.5657  -27.8508   21.6145 C   0  0  0  0  0  0  0  0  0  0  0  0
  -26.9622  -29.6949   20.1762 C   0  0  0  0  0  0  0  0  0  0  0  0
  -25.6678  -31.4465   19.8744 C   0  0  0  0  0  0  0  0  0  0  0  0
  -22.5969  -23.5630   22.6636 C   0  0  0  0  0  0  0  0  0  0  0  0
  -26.8139  -30.6600   17.7969 C   0  0  0  0  0  0  0  0  0  0  0  0
  -26.8345  -15.6738   20.2945 C   0  0  0  0  0  0  0  0  0  0  0  0
  -27.1370  -16.3114   23.2798 C   0  0  0  0  0  0  0  0  0  0  0  0
  -27.9973  -16.3611   26.5805 C   0  0  0  0  0  0  0  0  0  0  0  0
  -22.4539  -30.8581   24.8920 C   0  0  0  0  0  0  0  0  0  0  0  0
  -29.8132  -11.5299   20.4067 C   0  0  0  0  0  0  0  0  0  0  0  0
  -26.7707  -18.1330   19.9550 C   0  0  0  0  0  0  0  0  0  0  0  0
  -25.3086  -17.8127   22.3505 C   0  0  0  0  0  0  0  0  0  0  0  0
  -28.7630  -12.1448   21.3282 C   0  0  0  0  0  0  0  0  0  0  0  0
  -23.5600  -25.9338   21.1895 C   0  0  0  0  0  0  0  0  0  0  0  0
  -24.9432  -33.3132   24.2197 C   0  0  0  0  0  0  0  0  0  0  0  0
  -27.5052  -12.5003   20.5417 C   0  0  0  0  0  0  0  0  0  0  0  0
  -24.5076  -24.9596   21.8869 C   0  0  0  0  0  0  0  0  0  0  0  0
  -25.7018  -32.7456   23.0187 C   0  0  0  0  0  0  0  0  0  0  0  0
  -22.1353  -25.4009   21.0655 C   0  0  0  0  0  0  0  0  0  0  0  0
  -24.5077  -32.2120   25.1839 C   0  0  0  0  0  0  0  0  0  0  0  0
  -24.4956  -30.5493   23.3648 C   0  0  0  0  0  0  0  0  0  0  0  0
  -27.8082  -13.5423   19.4582 C   0  0  1  0  0  0  0  0  0  0  0  0
  -23.9418  -23.5466   21.9498 C   0  0  1  0  0  0  0  0  0  1  0  0
  -27.1884  -16.9973   20.9063 C   0  0  1  0  0  0  0  0  0  0  0  0
  -24.9068  -31.6164   22.3360 C   0  0  2  0  0  0  0  0  0  0  0  0
  -21.3939  -26.6830   24.6156 C   0  0  0  0  0  0  0  0  0  0  0  0
  -18.4994  -25.5085   20.7077 C   0  0  0  0  0  0  0  0  0  0  0  0
  -28.0569  -14.9040   28.6227 C   0  0  0  0  0  0  0  0  0  0  0  0
  -24.1171  -16.6170   23.5815 C   0  0  0  0  0  0  0  0  0  0  0  0
  -24.3696  -16.0201   25.9998 C   0  0  0  0  0  0  0  0  0  0  0  0
  -25.0098  -14.3749   24.2374 C   0  0  0  0  0  0  0  0  0  0  0  0
  -30.9348  -16.6258   26.8257 C   0  0  0  0  0  0  0  0  0  0  0  0
  -20.4025  -24.7256   22.7270 C   0  0  0  0  0  0  0  0  0  0  0  0
  -20.4644  -29.4369   24.4659 C   0  0  0  0  0  0  0  0  0  0  0  0
  -26.4677  -16.4032   24.6278 C   0  0  1  0  0  0  0  0  0  0  0  0
  -28.8343  -15.4111   27.4180 C   0  0  2  0  0  0  0  0  0  0  0  0
  -25.0054  -15.8758   24.6006 C   0  0  0  0  0  0  0  0  0  0  0  0
  -26.4551  -29.9485   21.3856 N   0  0  0  0  0  0  0  0  0  0  0  0
  -25.6721  -31.0192   21.1696 N   0  0  0  0  0  0  0  0  0  0  0  0
  -21.7506  -24.5762   22.2052 N   0  0  0  0  0  0  0  0  0  0  0  0
  -26.5327  -17.0062   22.2250 N   0  0  0  0  0  0  0  0  0  0  0  0
  -23.7573  -31.1733   24.4739 N   0  0  0  0  0  0  0  0  0  0  0  0
  -24.9343  -32.5104   19.4836 N   0  0  0  0  0  0  0  0  0  0  0  0
  -26.0060  -29.9450   16.9022 N   0  0  0  0  0  0  0  0  0  0  0  0
  -27.9234  -14.8610   20.0432 N   0  0  0  0  0  0  0  0  0  0  0  0
  -27.3387  -15.7014   25.5645 N   0  0  0  0  0  0  0  0  0  0  0  0
  -21.8109  -29.8667   24.1608 N   0  0  0  0  0  0  0  0  0  0  0  0
  -30.0636  -16.0972   27.9067 N   0  3  0  0  0  0  0  0  0  0  0  0
  -22.3130  -22.7476   23.5393 O   0  0  0  0  0  0  0  0  0  0  0  0
  -27.7863  -31.3178   17.3549 O   0  0  0  0  0  0  0  0  0  0  0  0
  -25.6600  -15.4077   20.0678 O   0  0  0  0  0  0  0  0  0  0  0  0
  -28.1645  -15.6380   23.1612 O   0  0  0  0  0  0  0  0  0  0  0  0
  -27.9313  -17.5673   26.8074 O   0  0  0  0  0  0  0  0  0  0  0  0
  -21.9020  -31.4222   25.8428 O   0  0  0  0  0  0  0  0  0  0  0  0
  -30.4923  -25.4189   19.4540 O   0  0  0  0  0  0  0  0  0  0  0  0
  -24.8285  -22.7055   22.6658 O   0  0  0  0  0  0  0  0  0  1  0  0
  -30.7970  -21.6428   23.4605 F   0  0  0  0  0  0  0  0  0  0  0  0
  -29.8874  -22.7682   18.9537 F   0  0  0  0  0  0  0  0  0  0  0  0
  -17.4279  -28.3632   20.4211 Cl  0  0  0  0  0  0  0  0  0  0  0  0
  1  2  1  0  0  0  0
  1  5  2  0  0  0  0
  2  6  2  0  0  0  0
  3  8  2  0  0  0  0
  3 16  1  0  0  0  0
  4  9  1  0  0  0  0
  4 16  2  0  0  0  0
  5 18  1  0  0  0  0
  6 20  1  0  0  0  0
  7 10  2  0  0  0  0
  7 19  1  0  0  0  0
  8 26  1  0  0  0  0
  9 26  2  0  0  0  0
 10 27  1  0  0  0  0
 11 12  2  0  0  0  0
 11 28  1  0  0  0  0
 12 29  1  0  0  0  0
 13 21  1  0  0  0  0
 13 27  2  0  0  0  0
 14 22  2  0  0  0  0
 14 31  1  0  0  0  0
 15 29  2  0  0  0  0
 15 30  1  0  0  0  0
 16 32  1  0  0  0  0
 17 32  1  0  0  0  0
 17 33  2  0  0  0  0
 17 35  1  0  0  0  0
 18 20  2  0  0  0  0
 18 40  1  0  0  0  0
 19 21  2  0  0  0  0
 19 41  1  0  0  0  0
 20 52  1  0  0  0  0
 21 42  1  0  0  0  0
 22 23  1  0  0  0  0
 22 64  1  0  0  0  0
 23 24  2  0  0  0  0
 23 56  1  0  0  0  0
 24 25  1  0  0  0  0
 24 63  1  0  0  0  0
 25 31  2  0  0  0  0
 25 57  1  0  0  0  0
 26 85  1  0  0  0  0
 27 86  1  0  0  0  0
 28 30  2  0  0  0  0
 28 85  1  0  0  0  0
 29 87  1  0  0  0  0
 30 88  1  0  0  0  0
 31 89  1  0  0  0  0
 32 68  2  0  0  0  0
 33 69  1  0  0  0  0
 33 73  1  0  0  0  0
 34 53  1  0  0  0  0
 34 70  1  0  0  0  0
 34 79  2  0  0  0  0
 35 74  1  0  0  0  0
 35 80  2  0  0  0  0
 36 54  1  0  0  0  0
 36 75  1  0  0  0  0
 36 81  2  0  0  0  0
 37 65  1  0  0  0  0
 37 71  1  0  0  0  0
 37 82  2  0  0  0  0
 38 66  1  0  0  0  0
 38 76  1  0  0  0  0
 38 83  2  0  0  0  0
 39 72  1  0  0  0  0
 39 77  1  0  0  0  0
 39 84  2  0  0  0  0
 40 43  1  0  0  0  0
 41 54  1  0  0  0  0
 42 71  1  0  0  0  0
 43 46  1  0  0  0  0
 44 47  1  0  0  0  0
 44 49  1  0  0  0  0
 45 48  1  0  0  0  0
 45 50  1  0  0  0  0
 46 52  1  0  0  0  0
 47 53  1  0  0  0  0
 48 55  1  0  0  0  0
 49 70  1  0  0  0  0
 50 72  1  0  0  0  0
 51 55  1  0  0  0  0
 51 72  1  0  0  0  0
 52 75  1  0  0  0  0
 53 86  1  0  0  0  0
 54 71  1  0  0  0  0
 55 69  1  0  0  0  0
 58 66  1  0  0  0  0
 59 67  1  0  0  0  0
 60 67  1  0  0  0  0
 61 67  1  0  0  0  0
 62 78  1  0  0  0  0
 63 70  1  0  0  0  0
 64 77  1  0  0  0  0
 65 67  1  0  0  0  0
 65 76  1  0  0  0  0
 66 78  1  0  0  0  0
 68 69  1  0  0  0  0
M  CHG  1  78   1
M  ISO  4  39 100  53 101  77 100  86 101
M  END
> <Batch ID>
0039

> <Smiles>
CNC(C)C(=O)NC(C(=O)N1Cc2cc([101O:1][101CH:1]3CCCN(Cc4c(C)c(Cl)cc(C[100NH:0][100C:0](=O)N5CCCC(n6nc(-c7ccc(Oc8ccc(F)cc8F)cc7)c(C(N)=O)c6N)C5)c4C)C3=O)ccc2CC1C(=O)NC1CCCc2ccccc21)C(C)(C)C

> <Shape>
0.225

> <Color>
0.068

> <Negative vol penalty>
0.000

$$$$

  -OEChem-04042322043D

 84 92  0     1  0  0  0  0  0999 V2000
  -16.7137  -28.9154   24.0589 C   0  0  0  0  0  0  0  0  0  0  0  0
  -17.3415  -28.1496   23.0817 C   0  0  0  0  0  0  0  0  0  0  0  0
  -26.8720  -11.3664   21.2366 C   0  0  0  0  0  0  0  0  0  0  0  0
  -26.0746  -13.0926   19.7461 C   0  0  0  0  0  0  0  0  0  0  0  0
  -17.2197  -30.1717   24.3902 C   0  0  0  0  0  0  0  0  0  0  0  0
  -18.4750  -28.6401   22.4344 C   0  0  0  0  0  0  0  0  0  0  0  0
  -22.1368  -25.1657   22.0290 C   0  0  0  0  0  0  0  0  0  0  0  0
  -27.1705  -21.5210   18.3103 C   0  0  0  0  0  0  0  0  0  0  0  0
  -25.6549  -10.6966   21.1121 C   0  0  0  0  0  0  0  0  0  0  0  0
  -24.8574  -12.4228   19.6216 C   0  0  0  0  0  0  0  0  0  0  0  0
  -21.9929  -24.2024   21.0315 C   0  0  0  0  0  0  0  0  0  0  0  0
  -24.1405   -8.6796   18.8602 C   0  0  0  0  0  0  0  0  0  0  0  0
  -24.1776   -7.3003   18.6561 C   0  0  0  0  0  0  0  0  0  0  0  0
  -28.5546  -21.6567   18.4171 C   0  0  0  0  0  0  0  0  0  0  0  0
  -23.5181  -25.4366   19.6279 C   0  0  0  0  0  0  0  0  0  0  0  0
  -22.9263   -6.9650   20.6954 C   0  0  0  0  0  0  0  0  0  0  0  0
  -27.0819  -12.5645   20.5536 C   0  0  0  0  0  0  0  0  0  0  0  0
  -29.4847  -13.0948   19.8809 C   0  0  0  0  0  0  0  0  0  0  0  0
  -18.3656  -30.6737   23.7535 C   0  0  0  0  0  0  0  0  0  0  0  0
  -22.9654  -26.2792   21.8289 C   0  0  0  0  0  0  0  0  0  0  0  0
  -18.9960  -29.9048   22.7566 C   0  0  0  0  0  0  0  0  0  0  0  0
  -23.6728  -26.4113   20.6255 C   0  0  0  0  0  0  0  0  0  0  0  0
  -28.4276  -21.1044   20.7657 C   0  0  0  0  0  0  0  0  0  0  0  0
  -26.4149  -21.1771   19.4313 C   0  0  0  0  0  0  0  0  0  0  0  0
  -24.6476  -11.2248   20.3046 C   0  0  0  0  0  0  0  0  0  0  0  0
  -22.6813  -24.3392   19.8296 C   0  0  0  0  0  0  0  0  0  0  0  0
  -23.4964   -9.2017   19.9819 C   0  0  0  0  0  0  0  0  0  0  0  0
  -23.5704   -6.4430   19.5737 C   0  0  0  0  0  0  0  0  0  0  0  0
  -22.8893   -8.3443   20.8995 C   0  0  0  0  0  0  0  0  0  0  0  0
  -29.1832  -21.4484   19.6447 C   0  0  0  0  0  0  0  0  0  0  0  0
  -27.0435  -20.9687   20.6589 C   0  0  0  0  0  0  0  0  0  0  0  0
  -28.3388  -13.2571   20.6823 C   0  0  0  0  0  0  0  0  0  0  0  0
  -30.3995  -13.9735   20.4078 C   0  0  0  0  0  0  0  0  0  0  0  0
  -29.7029  -12.2274   18.7603 C   0  0  0  0  0  0  0  0  0  0  0  0
  -22.5107  -29.4234   21.7233 C   0  0  0  0  0  0  0  0  0  0  0  0
  -25.7483  -29.4927   21.5342 C   0  0  0  0  0  0  0  0  0  0  0  0
  -28.6373  -27.8758   20.7062 C   0  0  0  0  0  0  0  0  0  0  0  0
  -29.8449  -19.0317   23.5635 C   0  0  0  0  0  0  0  0  0  0  0  0
  -18.8479  -32.0571   24.1118 C   0  0  0  0  0  0  0  0  0  0  0  0
  -23.1307  -27.2957   22.9252 C   0  0  0  0  0  0  0  0  0  0  0  0
  -24.5905  -27.5777   20.3690 C   0  0  0  0  0  0  0  0  0  0  0  0
  -20.2721  -32.3458   23.6443 C   0  0  0  0  0  0  0  0  0  0  0  0
  -31.6152  -16.0946   24.5205 C   0  0  0  0  0  0  0  0  0  0  0  0
  -20.4588  -31.9029   22.1966 C   0  0  0  0  0  0  0  0  0  0  0  0
  -31.0797  -15.0197   23.5730 C   0  0  0  0  0  0  0  0  0  0  0  0
  -30.5234  -17.0804   24.9304 C   0  0  0  0  0  0  0  0  0  0  0  0
  -29.2646  -16.6308   22.8599 C   0  0  0  0  0  0  0  0  0  0  0  0
  -20.2422  -30.3919   22.0496 C   0  0  1  0  0  0  0  0  0  0  0  0
  -23.6008  -28.6542   22.4145 C   0  0  1  0  0  0  0  0  0  0  0  0
  -30.3418  -15.6459   22.3744 C   0  0  2  0  0  0  0  0  0  0  0  0
  -31.1242  -28.2024   20.6261 C   0  0  0  0  0  0  0  0  0  0  0  0
  -25.4403  -31.2035   19.0265 C   0  0  0  0  0  0  0  0  0  0  0  0
  -27.8302  -30.7013   18.4749 C   0  0  0  0  0  0  0  0  0  0  0  0
  -27.2679  -31.9337   20.5696 C   0  0  0  0  0  0  0  0  0  0  0  0
  -29.1060  -25.6645   22.6166 C   0  0  0  0  0  0  0  0  0  0  0  0
  -29.1085  -20.8818   22.0823 C   0  0  0  0  0  0  0  0  0  0  0  0
  -22.8391  -21.1006   18.2374 C   0  0  0  0  0  0  0  0  0  0  0  0
  -24.3427  -21.2549   18.0436 C   0  0  0  0  0  0  0  0  0  0  0  0
  -22.2707  -22.0639   19.2728 C   0  0  0  0  0  0  0  0  0  1  0  0
  -26.7543  -29.4634   20.4091 C   0  0  1  0  0  0  0  0  0  0  0  0
  -29.9479  -27.7085   21.4538 C   0  0  2  0  0  0  0  0  0  0  0  0
  -26.8045  -30.8044   19.6238 C   0  0  0  0  0  0  0  0  0  0  0  0
  -28.5076  -14.1672   21.6452 N   0  0  0  0  0  0  0  0  0  0  0  0
  -29.7704  -14.5847   21.4523 N   0  0  0  0  0  0  0  0  0  0  0  0
  -24.7140  -28.5483   21.4691 N   0  0  0  0  0  0  0  0  0  0  0  0
  -29.8640  -17.6393   23.7477 N   0  0  0  0  0  0  0  0  0  0  0  0
  -31.6725  -14.2753   20.0750 N   0  0  0  0  0  0  0  0  0  0  0  0
  -28.6569  -11.3893   18.3506 N   0  0  0  0  0  0  0  0  0  0  0  0
  -25.0418  -21.0507   19.2893 N   0  0  0  0  0  0  0  0  0  0  0  0
  -21.4049  -29.6670   22.5153 N   0  0  0  0  0  0  0  0  0  0  0  0
  -28.0261  -29.0742   21.0087 N   0  0  0  0  0  0  0  0  0  0  0  0
  -29.2050  -19.4776   22.4135 N   0  0  0  0  0  0  0  0  0  0  0  0
  -30.1758  -26.2735   21.7850 N   0  3  0  0  0  0  0  0  0  0  0  0
  -30.7985  -12.1846   18.1510 O   0  0  0  0  0  0  0  0  0  0  0  0
  -22.6623  -29.7715   20.5582 O   0  0  0  0  0  0  0  0  0  0  0  0
  -25.8794  -30.3183   22.4413 O   0  0  0  0  0  0  0  0  0  0  0  0
  -28.2014  -27.0297   19.9286 O   0  0  0  0  0  0  0  0  0  0  0  0
  -30.3646  -19.8189   24.3618 O   0  0  0  0  0  0  0  0  0  0  0  0
  -23.4598  -10.5713   20.1827 O   0  0  0  0  0  0  0  0  0  0  0  0
  -22.5421  -23.4008   18.8540 O   0  0  0  0  0  0  0  0  0  1  0  0
  -23.6047   -5.1185   19.3767 F   0  0  0  0  0  0  0  0  0  0  0  0
  -22.2680   -8.8400   21.9785 F   0  0  0  0  0  0  0  0  0  0  0  0
  -30.8986  -21.6271   19.7304 Cl  0  0  0  0  0  0  0  0  0  0  0  0
  -26.1030  -20.5408   22.0523 Cl  0  0  0  0  0  0  0  0  0  0  0  0
  1  2  1  0  0  0  0
  1  5  2  0  0  0  0
  2  6  2  0  0  0  0
  3  9  2  0  0  0  0
  3 17  1  0  0  0  0
  4 10  1  0  0  0  0
  4 17  2  0  0  0  0
  5 19  1  0  0  0  0
  6 21  1  0  0  0  0
  7 11  2  0  0  0  0
  7 20  1  0  0  0  0
  8 14  2  0  0  0  0
  8 24  1  0  0  0  0
  9 25  1  0  0  0  0
 10 25  2  0  0  0  0
 11 26  1  0  0  0  0
 12 13  2  0  0  0  0
 12 27  1  0  0  0  0
 13 28  1  0  0  0  0
 14 30  1  0  0  0  0
 15 22  1  0  0  0  0
 15 26  2  0  0  0  0
 16 28  2  0  0  0  0
 16 29  1  0  0  0  0
 17 32  1  0  0  0  0
 18 32  1  0  0  0  0
 18 33  2  0  0  0  0
 18 34  1  0  0  0  0
 19 21  2  0  0  0  0
 19 39  1  0  0  0  0
 20 22  2  0  0  0  0
 20 40  1  0  0  0  0
 21 48  1  0  0  0  0
 22 41  1  0  0  0  0
 23 30  2  0  0  0  0
 23 31  1  0  0  0  0
 23 56  1  0  0  0  0
 24 31  2  0  0  0  0
 24 69  1  0  0  0  0
 25 79  1  0  0  0  0
 26 80  1  0  0  0  0
 27 29  2  0  0  0  0
 27 79  1  0  0  0  0
 28 81  1  0  0  0  0
 29 82  1  0  0  0  0
 30 83  1  0  0  0  0
 31 84  1  0  0  0  0
 32 63  2  0  0  0  0
 33 64  1  0  0  0  0
 33 67  1  0  0  0  0
 34 68  1  0  0  0  0
 34 74  2  0  0  0  0
 35 49  1  0  0  0  0
 35 70  1  0  0  0  0
 35 75  2  0  0  0  0
 36 60  1  0  0  0  0
 36 65  1  0  0  0  0
 36 76  2  0  0  0  0
 37 61  1  0  0  0  0
 37 71  1  0  0  0  0
 37 77  2  0  0  0  0
 38 66  1  0  0  0  0
 38 72  1  0  0  0  0
 38 78  2  0  0  0  0
 39 42  1  0  0  0  0
 40 49  1  0  0  0  0
 41 65  1  0  0  0  0
 42 44  1  0  0  0  0
 43 45  1  0  0  0  0
 43 46  1  0  0  0  0
 44 48  1  0  0  0  0
 45 50  1  0  0  0  0
 46 66  1  0  0  0  0
 47 50  1  0  0  0  0
 47 66  1  0  0  0  0
 48 70  1  0  0  0  0
 49 65  1  0  0  0  0
 50 64  1  0  0  0  0
 51 61  1  0  0  0  0
 52 62  1  0  0  0  0
 53 62  1  0  0  0  0
 54 62  1  0  0  0  0
 55 73  1  0  0  0  0
 56 72  1  0  0  0  0
 57 58  1  0  0  0  0
 57 59  1  0  0  0  0
 58 69  1  0  0  0  0
 59 80  1  0  0  0  0
 60 62  1  0  0  0  0
 60 71  1  0  0  0  0
 61 73  1  0  0  0  0
 63 64  1  0  0  0  0
M  CHG  1  73   1
M  ISO  4  38 100  59 101  72 100  80 101
M  END
> <Batch ID>
0039

> <Smiles>
CNC(C)C(=O)NC(C(=O)N1Cc2cc([101O:1][101CH2:1]CCNc3ccc(Cl)c(C[100NH:0][100C:0](=O)N4CCCC(n5nc(-c6ccc(Oc7ccc(F)cc7F)cc6)c(C(N)=O)c5N)C4)c3Cl)ccc2CC1C(=O)NC1CCCc2ccccc21)C(C)(C)C

> <Shape>
0.275

> <Color>
0.080

> <Negative vol penalty>
0.000

$$$$

  -OEChem-04042322043D

 87 96  0     1  0  0  0  0  0999 V2000
  -32.3674   -6.3920   37.3428 C   0  0  0  0  0  0  0  0  0  0  0  0
  -32.2054   -7.3786   36.3754 C   0  0  0  0  0  0  0  0  0  0  0  0
  -22.8458  -10.1061   20.1101 C   0  0  0  0  0  0  0  0  0  0  0  0
  -24.2784   -9.5474   21.9736 C   0  0  0  0  0  0  0  0  0  0  0  0
  -31.8277   -5.1226   37.1395 C   0  0  0  0  0  0  0  0  0  0  0  0
  -31.5045   -7.0960   35.2036 C   0  0  0  0  0  0  0  0  0  0  0  0
  -28.2458  -10.7659   33.9559 C   0  0  0  0  0  0  0  0  0  0  0  0
  -22.1376   -8.9193   20.2988 C   0  0  0  0  0  0  0  0  0  0  0  0
  -23.5702   -8.3606   22.1623 C   0  0  0  0  0  0  0  0  0  0  0  0
  -28.7730  -11.9089   33.3563 C   0  0  0  0  0  0  0  0  0  0  0  0
  -20.6410   -7.4037   23.5496 C   0  0  0  0  0  0  0  0  0  0  0  0
  -20.2839   -7.0644   24.8546 C   0  0  0  0  0  0  0  0  0  0  0  0
  -28.0951  -11.0803   31.1946 C   0  0  0  0  0  0  0  0  0  0  0  0
  -32.8719  -12.2821   23.5523 C   0  0  0  0  0  0  0  0  0  0  0  0
  -30.9631  -12.5443   25.0100 C   0  0  0  0  0  0  0  0  0  0  0  0
  -21.5540   -5.0175   24.6698 C   0  0  0  0  0  0  0  0  0  0  0  0
  -23.9163  -10.4201   20.9475 C   0  0  0  0  0  0  0  0  0  0  0  0
  -24.1410  -12.9574   20.8092 C   0  0  0  0  0  0  0  0  0  0  0  0
  -31.1116   -4.8272   35.9688 C   0  0  0  0  0  0  0  0  0  0  0  0
  -27.6479   -9.7649   33.1769 C   0  0  0  0  0  0  0  0  0  0  0  0
  -30.9559   -5.8210   34.9838 C   0  0  0  0  0  0  0  0  0  0  0  0
  -27.5587   -9.9269   31.7869 C   0  0  0  0  0  0  0  0  0  0  0  0
  -33.6647  -11.9487   24.6504 C   0  0  0  0  0  0  0  0  0  0  0  0
  -31.7560  -12.2110   26.1081 C   0  0  0  0  0  0  0  0  0  0  0  0
  -33.1068  -11.9132   25.9283 C   0  0  0  0  0  0  0  0  0  0  0  0
  -31.5211  -12.5799   23.7321 C   0  0  0  0  0  0  0  0  0  0  0  0
  -22.4997   -8.0466   21.3249 C   0  0  0  0  0  0  0  0  0  0  0  0
  -28.7003  -12.0649   31.9752 C   0  0  0  0  0  0  0  0  0  0  0  0
  -21.4545   -6.5499   22.8046 C   0  0  0  0  0  0  0  0  0  0  0  0
  -20.7405   -5.8713   25.4147 C   0  0  0  0  0  0  0  0  0  0  0  0
  -21.9110   -5.3568   23.3648 C   0  0  0  0  0  0  0  0  0  0  0  0
  -24.6486  -11.6456   20.7527 C   0  0  0  0  0  0  0  0  0  0  0  0
  -25.2285  -13.7576   20.5572 C   0  0  0  0  0  0  0  0  0  0  0  0
  -29.8617  -13.5028   29.0641 C   0  0  0  0  0  0  0  0  0  0  0  0
  -28.6390  -13.9469   28.7290 C   0  0  0  0  0  0  0  0  0  0  0  0
  -22.8058  -13.4121   21.0665 C   0  0  0  0  0  0  0  0  0  0  0  0
  -28.2522   -6.6941   32.6214 C   0  0  0  0  0  0  0  0  0  0  0  0
  -25.4463   -6.8370   31.0001 C   0  0  0  0  0  0  0  0  0  0  0  0
  -23.8147   -9.1461   28.7588 C   0  0  0  0  0  0  0  0  0  0  0  0
  -31.1109  -12.9979   21.2819 C   0  0  0  0  0  0  0  0  0  0  0  0
  -30.5871   -3.4267   35.7726 C   0  0  0  0  0  0  0  0  0  0  0  0
  -27.0600   -8.5504   33.8415 C   0  0  0  0  0  0  0  0  0  0  0  0
  -26.9088   -8.8908   30.9079 C   0  0  0  0  0  0  0  0  0  0  0  0
  -29.5366   -3.3186   34.6704 C   0  0  0  0  0  0  0  0  0  0  0  0
  -29.4206  -13.7586   18.2419 C   0  0  0  0  0  0  0  0  0  0  0  0
  -32.6097  -13.6806   29.8617 C   0  0  0  0  0  0  0  0  0  0  0  0
  -29.9941   -4.0659   33.4217 C   0  0  0  0  0  0  0  0  0  0  0  0
  -31.5141  -13.6954   30.9218 C   0  0  0  0  0  0  0  0  0  0  0  0
  -27.9580  -13.4283   18.5479 C   0  0  0  0  0  0  0  0  0  0  0  0
  -30.3770  -12.7778   18.9180 C   0  0  0  0  0  0  0  0  0  0  0  0
  -28.7167  -12.2845   20.6699 C   0  0  0  0  0  0  0  0  0  0  0  0
  -32.1140  -14.2585   28.5402 C   0  0  0  0  0  0  0  0  0  0  0  0
  -30.1808   -5.5603   33.7105 C   0  0  1  0  0  0  0  0  0  0  0  0
  -30.2522  -12.9873   30.4310 C   0  0  1  0  0  0  0  0  0  1  0  0
  -26.9328   -7.3567   32.9000 C   0  0  1  0  0  0  0  0  0  0  0  0
  -27.7180  -13.2837   20.0635 C   0  0  2  0  0  0  0  0  0  0  0  0
  -35.1085  -11.6347   24.4311 C   0  0  0  0  0  0  0  0  0  0  0  0
  -33.9570  -11.5551   27.1057 C   0  0  0  0  0  0  0  0  0  0  0  0
  -21.3772   -9.5272   28.2995 C   0  0  0  0  0  0  0  0  0  0  0  0
  -25.8677   -4.8683   28.7074 C   0  0  0  0  0  0  0  0  0  0  0  0
  -24.3316   -6.2703   27.3135 C   0  0  0  0  0  0  0  0  0  0  0  0
  -23.4820   -5.1797   29.3899 C   0  0  0  0  0  0  0  0  0  0  0  0
  -24.0280  -12.0302   29.3881 C   0  0  0  0  0  0  0  0  0  0  0  0
  -31.1314  -12.1799   27.4719 C   0  0  0  0  0  0  0  0  0  0  0  0
  -25.0475   -7.1558   29.5794 C   0  0  1  0  0  0  0  0  0  0  0  0
  -22.6013  -10.0056   29.0647 C   0  0  2  0  0  0  0  0  0  0  0  0
  -24.7054   -5.8799   28.7594 C   0  0  0  0  0  0  0  0  0  0  0  0
  -25.9568  -11.6100   20.4857 N   0  0  0  0  0  0  0  0  0  0  0  0
  -26.2804  -12.9094   20.3720 N   0  0  0  0  0  0  0  0  0  0  0  0
  -26.3544   -7.7181   31.6042 N   0  0  0  0  0  0  0  0  0  0  0  0
  -30.0932  -12.6960   20.3524 N   0  0  0  0  0  0  0  0  0  0  0  0
  -25.3780  -15.0969   20.4781 N   0  0  0  0  0  0  0  0  0  0  0  0
  -21.8090  -12.4563   21.3056 N   0  0  0  0  0  0  0  0  0  0  0  0
  -30.7151  -12.9175   22.6166 N   0  0  0  0  0  0  0  0  0  0  0  0
  -28.8990   -6.2311   33.7513 N   0  0  0  0  0  0  0  0  0  0  0  0
  -23.9557   -8.1195   29.6684 N   0  0  0  0  0  0  0  0  0  0  0  0
  -30.8776  -13.5511   28.0353 N   0  3  1  0  0  0  0  0  0  0  0  0
  -22.8641  -11.4243   28.6915 N   0  3  0  0  0  0  0  0  0  0  0  0
  -22.5022  -14.6292   21.0676 O   0  0  0  0  0  0  0  0  0  0  0  0
  -28.6531   -6.6078   31.4665 O   0  0  0  0  0  0  0  0  0  0  0  0
  -24.9642   -5.8469   31.5558 O   0  0  0  0  0  0  0  0  0  0  0  0
  -24.5605   -9.3616   27.8060 O   0  0  0  0  0  0  0  0  0  0  0  0
  -32.2421  -13.3316   20.9200 O   0  0  0  0  0  0  0  0  0  0  0  0
  -21.8087   -6.8886   21.5095 O   0  0  0  0  0  0  0  0  0  0  0  0
  -29.2148  -13.1792   31.3874 O   0  0  0  0  0  0  0  0  0  1  0  0
  -20.3988   -5.5463   26.6684 F   0  0  0  0  0  0  0  0  0  0  0  0
  -22.6938   -4.5331   22.6544 F   0  0  0  0  0  0  0  0  0  0  0  0
  1  2  1  0  0  0  0
  1  5  2  0  0  0  0
  2  6  2  0  0  0  0
  3  8  2  0  0  0  0
  3 17  1  0  0  0  0
  4  9  1  0  0  0  0
  4 17  2  0  0  0  0
  5 19  1  0  0  0  0
  6 21  1  0  0  0  0
  7 10  2  0  0  0  0
  7 20  1  0  0  0  0
  8 27  1  0  0  0  0
  9 27  2  0  0  0  0
 10 28  1  0  0  0  0
 11 12  2  0  0  0  0
 11 29  1  0  0  0  0
 12 30  1  0  0  0  0
 13 22  1  0  0  0  0
 13 28  2  0  0  0  0
 14 23  2  0  0  0  0
 14 26  1  0  0  0  0
 15 24  1  0  0  0  0
 15 26  2  0  0  0  0
 16 30  2  0  0  0  0
 16 31  1  0  0  0  0
 17 32  1  0  0  0  0
 18 32  1  0  0  0  0
 18 33  2  0  0  0  0
 18 36  1  0  0  0  0
 19 21  2  0  0  0  0
 19 41  1  0  0  0  0
 20 22  2  0  0  0  0
 20 42  1  0  0  0  0
 21 53  1  0  0  0  0
 22 43  1  0  0  0  0
 23 25  1  0  0  0  0
 23 57  1  0  0  0  0
 24 25  2  0  0  0  0
 24 64  1  0  0  0  0
 25 58  1  0  0  0  0
 26 74  1  0  0  0  0
 27 84  1  0  0  0  0
 28 85  1  0  0  0  0
 29 31  2  0  0  0  0
 29 84  1  0  0  0  0
 30 86  1  0  0  0  0
 31 87  1  0  0  0  0
 32 68  2  0  0  0  0
 33 69  1  0  0  0  0
 33 72  1  0  0  0  0
 34 35  2  0  0  0  0
 34 54  1  0  0  0  0
 34 77  1  0  0  0  0
 36 73  1  0  0  0  0
 36 79  2  0  0  0  0
 37 55  1  0  0  0  0
 37 75  1  0  0  0  0
 37 80  2  0  0  0  0
 38 65  1  0  0  0  0
 38 70  1  0  0  0  0
 38 81  2  0  0  0  0
 39 66  1  0  0  0  0
 39 76  1  0  0  0  0
 39 82  2  0  0  0  0
 40 71  1  0  0  0  0
 40 74  1  0  0  0  0
 40 83  2  0  0  0  0
 41 44  1  0  0  0  0
 42 55  1  0  0  0  0
 43 70  1  0  0  0  0
 44 47  1  0  0  0  0
 45 49  1  0  0  0  0
 45 50  1  0  0  0  0
 46 48  1  0  0  0  0
 46 52  1  0  0  0  0
 47 53  1  0  0  0  0
 48 54  1  0  0  0  0
 49 56  1  0  0  0  0
 50 71  1  0  0  0  0
 51 56  1  0  0  0  0
 51 71  1  0  0  0  0
 52 77  1  0  0  0  0
 53 75  1  0  0  0  0
 54 85  1  0  0  0  0
 55 70  1  0  0  0  0
 56 69  1  0  0  0  0
 59 66  1  0  0  0  0
 60 67  1  0  0  0  0
 61 67  1  0  0  0  0
 62 67  1  0  0  0  0
 63 78  1  0  0  0  0
 64 77  1  0  0  0  0
 65 67  1  0  0  0  0
 65 76  1  0  0  0  0
 66 78  1  0  0  0  0
 68 69  1  0  0  0  0
M  CHG  2  77   1  78   1
M  ISO  4  40 100  54 101  74 100  85 101
M  END
> <Batch ID>
0039

> <Smiles>
C=C1N(Cc2cc([100NH:0][100C:0](=O)N3CCCC(n4nc(-c5ccc(Oc6ccc(F)cc6F)cc5)c(C(N)=O)c4N)C3)cc(C)c2C)CCC[101CH:1]1[101O:1]c1ccc2c(c1)CN(C(=O)C(NC(=O)C(C)NC)C(C)(C)C)C(C(=O)NC1CCCc3ccccc31)C2

> <Shape>
0.150

> <Color>
0.174

> <Negative vol penalty>
0.000

$$$$

  -OEChem-04042322043D

 89 98  0     1  0  0  0  0  0999 V2000
  -16.4835  -29.9390   22.8705 C   0  0  0  0  0  0  0  0  0  0  0  0
  -17.5540  -30.7631   22.5385 C   0  0  0  0  0  0  0  0  0  0  0  0
  -25.0161  -13.4654   21.1623 C   0  0  0  0  0  0  0  0  0  0  0  0
  -26.9630  -12.7738   19.9101 C   0  0  0  0  0  0  0  0  0  0  0  0
  -16.7011  -28.7826   23.6183 C   0  0  0  0  0  0  0  0  0  0  0  0
  -18.8428  -30.4317   22.9552 C   0  0  0  0  0  0  0  0  0  0  0  0
  -25.3492  -29.4079   18.7545 C   0  0  0  0  0  0  0  0  0  0  0  0
  -30.0831  -23.1002   24.4756 C   0  0  0  0  0  0  0  0  0  0  0  0
  -24.7576  -12.1357   21.4950 C   0  0  0  0  0  0  0  0  0  0  0  0
  -26.7046  -11.4441   20.2428 C   0  0  0  0  0  0  0  0  0  0  0  0
  -26.5293  -29.0466   18.1040 C   0  0  0  0  0  0  0  0  0  0  0  0
  -23.3957   -9.4183   20.0168 C   0  0  0  0  0  0  0  0  0  0  0  0
  -22.0806   -8.9670   19.9055 C   0  0  0  0  0  0  0  0  0  0  0  0
  -29.5187  -24.3512   24.2268 C   0  0  0  0  0  0  0  0  0  0  0  0
  -27.1287  -27.6189   19.9616 C   0  0  0  0  0  0  0  0  0  0  0  0
  -22.0635   -8.4358   22.2624 C   0  0  0  0  0  0  0  0  0  0  0  0
  -26.1187  -13.7845   20.3698 C   0  0  0  0  0  0  0  0  0  0  0  0
  -25.5449  -16.0351   19.3147 C   0  0  0  0  0  0  0  0  0  0  0  0
  -17.9945  -28.4318   24.0361 C   0  0  0  0  0  0  0  0  0  0  0  0
  -25.0467  -28.8635   20.0057 C   0  0  0  0  0  0  0  0  0  0  0  0
  -19.0778  -29.2702   23.7105 C   0  0  0  0  0  0  0  0  0  0  0  0
  -25.9422  -27.9675   20.6124 C   0  0  0  0  0  0  0  0  0  0  0  0
  -31.0912  -22.6120   23.6441 C   0  0  0  0  0  0  0  0  0  0  0  0
  -31.5347  -23.3749   22.5638 C   0  0  0  0  0  0  0  0  0  0  0  0
  -30.9702  -24.6259   22.3150 C   0  0  0  0  0  0  0  0  0  0  0  0
  -25.6019  -11.1250   21.0352 C   0  0  0  0  0  0  0  0  0  0  0  0
  -27.4169  -28.1545   18.7062 C   0  0  0  0  0  0  0  0  0  0  0  0
  -24.0448   -9.3783   21.2508 C   0  0  0  0  0  0  0  0  0  0  0  0
  -21.4145   -8.4758   21.0283 C   0  0  0  0  0  0  0  0  0  0  0  0
  -23.3786   -8.8871   22.3736 C   0  0  0  0  0  0  0  0  0  0  0  0
  -29.9621  -25.1141   23.1465 C   0  0  0  0  0  0  0  0  0  0  0  0
  -26.3859  -15.1578   20.0254 C   0  0  0  0  0  0  0  0  0  0  0  0
  -26.2510  -17.2115   19.2513 C   0  0  0  0  0  0  0  0  0  0  0  0
  -29.9872  -26.6152   19.5530 C   0  0  0  0  0  0  0  0  0  0  0  0
  -24.2420  -15.8070   18.7615 C   0  0  0  0  0  0  0  0  0  0  0  0
  -22.6244  -28.6716   22.8643 C   0  0  0  0  0  0  0  0  0  0  0  0
  -23.6669  -25.8262   22.3872 C   0  0  0  0  0  0  0  0  0  0  0  0
  -24.7381  -22.7873   21.2672 C   0  0  0  0  0  0  0  0  0  0  0  0
  -30.4292  -19.4848   22.7484 C   0  0  0  0  0  0  0  0  0  0  0  0
  -18.1739  -27.1968   24.8830 C   0  0  0  0  0  0  0  0  0  0  0  0
  -23.8167  -29.2715   20.7703 C   0  0  0  0  0  0  0  0  0  0  0  0
  -25.5920  -27.4337   21.9745 C   0  0  0  0  0  0  0  0  0  0  0  0
  -19.6217  -26.7203   24.9662 C   0  0  0  0  0  0  0  0  0  0  0  0
  -29.9678  -24.5028   16.9967 C   0  0  0  0  0  0  0  0  0  0  0  0
  -30.7606  -23.8557   18.1278 C   0  0  0  0  0  0  0  0  0  0  0  0
  -30.7325  -18.8908   19.1914 C   0  0  0  0  0  0  0  0  0  0  0  0
  -20.5544  -27.8935   25.2500 C   0  0  0  0  0  0  0  0  0  0  0  0
  -29.8417  -26.0202   17.0920 C   0  0  0  0  0  0  0  0  0  0  0  0
  -29.5594  -17.9415   18.9404 C   0  0  0  0  0  0  0  0  0  0  0  0
  -30.1600  -24.1005   19.5069 C   0  0  0  0  0  0  0  0  0  0  0  0
  -31.3945  -18.6079   20.5367 C   0  0  0  0  0  0  0  0  0  0  0  0
  -29.2930  -17.7035   21.4529 C   0  0  0  0  0  0  0  0  0  0  0  0
  -20.4939  -28.9315   24.1229 C   0  0  1  0  0  0  0  0  0  0  0  0
  -29.0833  -26.5008   18.3290 C   0  0  2  0  0  0  0  0  0  1  0  0
  -23.2115  -28.1230   21.5971 C   0  0  1  0  0  0  0  0  0  0  0  0
  -28.5672  -17.9533   20.1184 C   0  0  2  0  0  0  0  0  0  0  0  0
  -32.6163  -22.8478   21.6744 C   0  0  0  0  0  0  0  0  0  0  0  0
  -24.5555  -20.3323   21.7541 C   0  0  0  0  0  0  0  0  0  0  0  0
  -25.5784  -26.1548   24.7413 C   0  0  0  0  0  0  0  0  0  0  0  0
  -26.0942  -23.7107   24.5720 C   0  0  0  0  0  0  0  0  0  0  0  0
  -23.7725  -24.4605   25.0919 C   0  0  0  0  0  0  0  0  0  0  0  0
  -23.5309  -22.2343   18.6222 C   0  0  0  0  0  0  0  0  0  0  0  0
  -31.4566  -25.4363   21.1485 C   0  0  0  0  0  0  0  0  0  0  0  0
  -31.6792  -21.2701   23.9347 C   0  0  0  0  0  0  0  0  0  0  0  0
  -24.6815  -24.7728   22.7535 C   0  0  1  0  0  0  0  0  0  0  0  0
  -23.9875  -21.5026   20.9664 C   0  0  2  0  0  0  0  0  0  0  0  0
  -25.0354  -24.7919   24.2673 C   0  0  0  0  0  0  0  0  0  0  0  0
  -27.5382  -15.7282   20.3873 N   0  0  0  0  0  0  0  0  0  0  0  0
  -27.4263  -16.9764   19.9021 N   0  0  0  0  0  0  0  0  0  0  0  0
  -30.5113  -25.4178   20.0394 N   0  0  0  0  0  0  0  0  0  0  0  0
  -24.1637  -27.0842   22.0251 N   0  0  0  0  0  0  0  0  0  0  0  0
  -30.3993  -18.6523   21.6173 N   0  0  0  0  0  0  0  0  0  0  0  0
  -25.9749  -18.4137   18.7027 N   0  0  0  0  0  0  0  0  0  0  0  0
  -24.1484  -15.3353   17.4450 N   0  0  0  0  0  0  0  0  0  0  0  0
  -21.2606  -28.4824   22.9806 N   0  0  0  0  0  0  0  0  0  0  0  0
  -24.1395  -23.5028   22.2825 N   0  0  0  0  0  0  0  0  0  0  0  0
  -31.5139  -20.3492   22.8322 N   0  0  0  0  0  0  0  0  0  0  0  0
  -24.0760  -21.1788   19.5144 N   0  3  0  0  0  0  0  0  0  0  0  0
  -30.2233  -27.7171   20.0553 O   0  0  0  0  0  0  0  0  0  0  0  0
  -23.1916  -16.0308   19.4096 O   0  0  0  0  0  0  0  0  0  0  0  0
  -23.3544  -29.2248   23.6784 O   0  0  0  0  0  0  0  0  0  0  0  0
  -22.4655  -25.5459   22.4256 O   0  0  0  0  0  0  0  0  0  0  0  0
  -25.7560  -23.1208   20.6645 O   0  0  0  0  0  0  0  0  0  0  0  0
  -29.5509  -19.4633   23.6174 O   0  0  0  0  0  0  0  0  0  0  0  0
  -25.3502   -9.8274   21.3598 O   0  0  0  0  0  0  0  0  0  0  0  0
  -28.5649  -27.8026   18.0636 O   0  0  0  0  0  0  0  0  0  1  0  0
  -20.1511   -8.0439   20.9216 F   0  0  0  0  0  0  0  0  0  0  0  0
  -23.9966   -8.8473   23.5620 F   0  0  0  0  0  0  0  0  0  0  0  0
  -29.2379  -26.6572   22.8725 Cl  0  0  0  0  0  0  0  0  0  0  0  0
  1  2  1  0  0  0  0
  1  5  2  0  0  0  0
  2  6  2  0  0  0  0
  3  9  2  0  0  0  0
  3 17  1  0  0  0  0
  4 10  1  0  0  0  0
  4 17  2  0  0  0  0
  5 19  1  0  0  0  0
  6 21  1  0  0  0  0
  7 11  2  0  0  0  0
  7 20  1  0  0  0  0
  8 14  1  0  0  0  0
  8 23  2  0  0  0  0
  9 26  1  0  0  0  0
 10 26  2  0  0  0  0
 11 27  1  0  0  0  0
 12 13  2  0  0  0  0
 12 28  1  0  0  0  0
 13 29  1  0  0  0  0
 14 31  2  0  0  0  0
 15 22  1  0  0  0  0
 15 27  2  0  0  0  0
 16 29  2  0  0  0  0
 16 30  1  0  0  0  0
 17 32  1  0  0  0  0
 18 32  1  0  0  0  0
 18 33  2  0  0  0  0
 18 35  1  0  0  0  0
 19 21  2  0  0  0  0
 19 40  1  0  0  0  0
 20 22  2  0  0  0  0
 20 41  1  0  0  0  0
 21 53  1  0  0  0  0
 22 42  1  0  0  0  0
 23 24  1  0  0  0  0
 23 64  1  0  0  0  0
 24 25  2  0  0  0  0
 24 57  1  0  0  0  0
 25 31  1  0  0  0  0
 25 63  1  0  0  0  0
 26 85  1  0  0  0  0
 27 86  1  0  0  0  0
 28 30  2  0  0  0  0
 28 85  1  0  0  0  0
 29 87  1  0  0  0  0
 30 88  1  0  0  0  0
 31 89  1  0  0  0  0
 32 68  2  0  0  0  0
 33 69  1  0  0  0  0
 33 73  1  0  0  0  0
 34 54  1  0  0  0  0
 34 70  1  0  0  0  0
 34 79  2  0  0  0  0
 35 74  1  0  0  0  0
 35 80  2  0  0  0  0
 36 55  1  0  0  0  0
 36 75  1  0  0  0  0
 36 81  2  0  0  0  0
 37 65  1  0  0  0  0
 37 71  1  0  0  0  0
 37 82  2  0  0  0  0
 38 66  1  0  0  0  0
 38 76  1  0  0  0  0
 38 83  2  0  0  0  0
 39 72  1  0  0  0  0
 39 77  1  0  0  0  0
 39 84  2  0  0  0  0
 40 43  1  0  0  0  0
 41 55  1  0  0  0  0
 42 71  1  0  0  0  0
 43 47  1  0  0  0  0
 44 45  1  0  0  0  0
 44 48  1  0  0  0  0
 45 50  1  0  0  0  0
 46 49  1  0  0  0  0
 46 51  1  0  0  0  0
 47 53  1  0  0  0  0
 48 54  1  0  0  0  0
 49 56  1  0  0  0  0
 50 70  1  0  0  0  0
 51 72  1  0  0  0  0
 52 56  1  0  0  0  0
 52 72  1  0  0  0  0
 53 75  1  0  0  0  0
 54 86  1  0  0  0  0
 55 71  1  0  0  0  0
 56 69  1  0  0  0  0
 58 66  1  0  0  0  0
 59 67  1  0  0  0  0
 60 67  1  0  0  0  0
 61 67  1  0  0  0  0
 62 78  1  0  0  0  0
 63 70  1  0  0  0  0
 64 77  1  0  0  0  0
 65 67  1  0  0  0  0
 65 76  1  0  0  0  0
 66 78  1  0  0  0  0
 68 69  1  0  0  0  0
M  CHG  1  78   1
M  ISO  4  39 100  54 101  77 100  86 101
M  END
> <Batch ID>
0039

> <Smiles>
CNC(C)C(=O)NC(C(=O)N1Cc2cc([101O:1][101CH:1]3CCCCN(Cc4c(Cl)ccc(C[100NH:0][100C:0](=O)N5CCCC(n6nc(-c7ccc(Oc8ccc(F)cc8F)cc7)c(C(N)=O)c6N)C5)c4C)C3=O)ccc2CC1C(=O)NC1CCCc2ccccc21)C(C)(C)C

> <Shape>
0.243

> <Color>
0.078

> <Negative vol penalty>
0.000

$$$$

  -OEChem-04042322043D

 84 92  0     1  0  0  0  0  0999 V2000
  -27.9850  -24.6173   16.8752 C   0  0  0  0  0  0  0  0  0  0  0  0
  -26.8048  -24.8392   17.5776 C   0  0  0  0  0  0  0  0  0  0  0  0
  -25.8421  -12.1691   19.9633 C   0  0  0  0  0  0  0  0  0  0  0  0
  -24.2007  -12.9081   21.5748 C   0  0  0  0  0  0  0  0  0  0  0  0
  -29.1909  -25.1170   17.3650 C   0  0  0  0  0  0  0  0  0  0  0  0
  -26.8301  -25.5601   18.7709 C   0  0  0  0  0  0  0  0  0  0  0  0
  -23.1039  -28.9777   19.0553 C   0  0  0  0  0  0  0  0  0  0  0  0
  -26.0185  -10.9883   20.6845 C   0  0  0  0  0  0  0  0  0  0  0  0
  -24.3771  -11.7272   22.2960 C   0  0  0  0  0  0  0  0  0  0  0  0
  -21.8312  -28.5069   19.3750 C   0  0  0  0  0  0  0  0  0  0  0  0
  -24.1314   -8.7486   24.3661 C   0  0  0  0  0  0  0  0  0  0  0  0
  -22.9895   -8.0863   24.8167 C   0  0  0  0  0  0  0  0  0  0  0  0
  -22.1511  -29.2115   21.6598 C   0  0  0  0  0  0  0  0  0  0  0  0
  -22.0744  -21.9317   23.3732 C   0  0  0  0  0  0  0  0  0  0  0  0
  -24.2485  -22.6458   21.7776 C   0  0  0  0  0  0  0  0  0  0  0  0
  -22.2307   -7.8428   22.5359 C   0  0  0  0  0  0  0  0  0  0  0  0
  -24.9333  -13.1291   20.4086 C   0  0  0  0  0  0  0  0  0  0  0  0
  -23.8326  -14.5809   18.6230 C   0  0  0  0  0  0  0  0  0  0  0  0
  -29.2295  -25.8527   18.5600 C   0  0  0  0  0  0  0  0  0  0  0  0
  -23.9154  -29.5601   20.0395 C   0  0  0  0  0  0  0  0  0  0  0  0
  -28.0378  -26.0690   19.2779 C   0  0  0  0  0  0  0  0  0  0  0  0
  -23.4327  -29.6913   21.3494 C   0  0  0  0  0  0  0  0  0  0  0  0
  -22.1871  -23.2357   22.8912 C   0  0  0  0  0  0  0  0  0  0  0  0
  -24.1357  -21.3418   22.2597 C   0  0  0  0  0  0  0  0  0  0  0  0
  -25.2859  -10.7673   21.8508 C   0  0  0  0  0  0  0  0  0  0  0  0
  -21.3557  -28.6212   20.6781 C   0  0  0  0  0  0  0  0  0  0  0  0
  -24.3230   -8.9580   23.0004 C   0  0  0  0  0  0  0  0  0  0  0  0
  -22.0392   -7.6334   23.9016 C   0  0  0  0  0  0  0  0  0  0  0  0
  -23.3726   -8.5051   22.0853 C   0  0  0  0  0  0  0  0  0  0  0  0
  -23.0487  -20.9847   23.0575 C   0  0  0  0  0  0  0  0  0  0  0  0
  -23.2741  -23.5928   22.0934 C   0  0  0  0  0  0  0  0  0  0  0  0
  -24.7511  -14.3494   19.6644 C   0  0  0  0  0  0  0  0  0  0  0  0
  -24.0548  -15.8848   18.2527 C   0  0  0  0  0  0  0  0  0  0  0  0
  -22.8649  -13.6965   18.0423 C   0  0  0  0  0  0  0  0  0  0  0  0
  -26.7404  -28.8626   21.3189 C   0  0  0  0  0  0  0  0  0  0  0  0
  -26.3313  -31.7133   22.8117 C   0  0  0  0  0  0  0  0  0  0  0  0
  -24.1804  -34.1122   23.9367 C   0  0  0  0  0  0  0  0  0  0  0  0
  -26.2732  -20.6255   21.1352 C   0  0  0  0  0  0  0  0  0  0  0  0
  -30.5637  -26.3324   19.0744 C   0  0  0  0  0  0  0  0  0  0  0  0
  -25.2755  -30.0872   19.6725 C   0  0  0  0  0  0  0  0  0  0  0  0
  -24.2566  -30.3270   22.4382 C   0  0  0  0  0  0  0  0  0  0  0  0
  -30.4502  -27.4069   20.1527 C   0  0  0  0  0  0  0  0  0  0  0  0
  -27.5062  -19.2018   18.1137 C   0  0  0  0  0  0  0  0  0  0  0  0
  -29.4107  -27.0088   21.1957 C   0  0  0  0  0  0  0  0  0  0  0  0
  -26.8513  -17.8193   18.0706 C   0  0  0  0  0  0  0  0  0  0  0  0
  -27.8816  -19.6074   19.5379 C   0  0  0  0  0  0  0  0  0  0  0  0
  -26.1333  -18.1444   20.4718 C   0  0  0  0  0  0  0  0  0  0  0  0
  -28.0208  -26.8675   20.5633 C   0  0  1  0  0  0  0  0  0  0  0  0
  -26.2165  -30.1968   20.8683 C   0  0  1  0  0  0  0  0  0  0  0  0
  -25.6785  -17.7200   19.0658 C   0  0  2  0  0  0  0  0  0  0  0  0
  -24.1389  -36.3079   25.1510 C   0  0  0  0  0  0  0  0  0  0  0  0
  -26.8256  -30.2611   25.4493 C   0  0  0  0  0  0  0  0  0  0  0  0
  -25.8515  -32.2368   26.6393 C   0  0  0  0  0  0  0  0  0  0  0  0
  -27.9205  -32.5025   25.2713 C   0  0  0  0  0  0  0  0  0  0  0  0
  -22.9626  -35.5004   21.6240 C   0  0  0  0  0  0  0  0  0  0  0  0
  -21.1179  -24.2241   23.2530 C   0  0  0  0  0  0  0  0  0  0  0  0
  -18.6694  -26.2512   21.1183 C   0  0  0  0  0  0  0  0  0  0  0  0
  -19.3125  -25.7189   22.3900 C   0  0  0  0  0  0  0  0  0  0  0  0
  -19.6208  -27.0545   20.2400 C   0  0  0  0  0  0  0  0  0  1  0  0
  -25.7016  -32.1601   24.1090 C   0  0  1  0  0  0  0  0  0  0  0  0
  -24.1931  -35.6235   23.7941 C   0  0  2  0  0  0  0  0  0  0  0  0
  -26.5598  -31.7764   25.3474 C   0  0  0  0  0  0  0  0  0  0  0  0
  -25.5011  -15.4202   19.9380 N   0  0  0  0  0  0  0  0  0  0  0  0
  -25.0542  -16.3372   19.0630 N   0  0  0  0  0  0  0  0  0  0  0  0
  -25.5823  -30.8213   22.0311 N   0  0  0  0  0  0  0  0  0  0  0  0
  -26.7207  -19.4925   20.4233 N   0  0  0  0  0  0  0  0  0  0  0  0
  -23.4909  -16.6769   17.3162 N   0  0  0  0  0  0  0  0  0  0  0  0
  -22.7686  -12.3906   18.5420 N   0  0  0  0  0  0  0  0  0  0  0  0
  -25.1418  -20.4038   21.9197 N   0  0  0  0  0  0  0  0  0  0  0  0
  -27.4312  -28.1705   20.3425 N   0  0  0  0  0  0  0  0  0  0  0  0
  -25.4568  -33.5918   23.9720 N   0  0  0  0  0  0  0  0  0  0  0  0
  -23.0225  -36.0779   22.9914 N   0  3  0  0  0  0  0  0  0  0  0  0
  -20.4175  -24.7867   22.0654 N   0  3  0  0  0  0  0  0  0  0  0  0
  -22.1194  -14.0486   17.0970 O   0  0  0  0  0  0  0  0  0  0  0  0
  -26.5345  -28.4893   22.4678 O   0  0  0  0  0  0  0  0  0  0  0  0
  -27.4435  -32.1455   22.4990 O   0  0  0  0  0  0  0  0  0  0  0  0
  -23.1421  -33.4591   24.0132 O   0  0  0  0  0  0  0  0  0  0  0  0
  -26.8348  -21.7193   21.0337 O   0  0  0  0  0  0  0  0  0  0  0  0
  -25.4576   -9.6150   22.5546 O   0  0  0  0  0  0  0  0  0  0  0  0
  -20.1140  -28.1619   20.9930 O   0  0  0  0  0  0  0  0  0  1  0  0
  -20.9434   -6.9961   24.3344 F   0  0  0  0  0  0  0  0  0  0  0  0
  -23.5517   -8.7024   20.7720 F   0  0  0  0  0  0  0  0  0  0  0  0
  -22.8709  -19.3814   23.6757 Cl  0  0  0  0  0  0  0  0  0  0  0  0
  -23.4468  -25.1972   21.4804 Cl  0  0  0  0  0  0  0  0  0  0  0  0
  1  2  1  0  0  0  0
  1  5  2  0  0  0  0
  2  6  2  0  0  0  0
  3  8  2  0  0  0  0
  3 17  1  0  0  0  0
  4  9  1  0  0  0  0
  4 17  2  0  0  0  0
  5 19  1  0  0  0  0
  6 21  1  0  0  0  0
  7 10  2  0  0  0  0
  7 20  1  0  0  0  0
  8 25  1  0  0  0  0
  9 25  2  0  0  0  0
 10 26  1  0  0  0  0
 11 12  2  0  0  0  0
 11 27  1  0  0  0  0
 12 28  1  0  0  0  0
 13 22  1  0  0  0  0
 13 26  2  0  0  0  0
 14 23  1  0  0  0  0
 14 30  2  0  0  0  0
 15 24  2  0  0  0  0
 15 31  1  0  0  0  0
 16 28  2  0  0  0  0
 16 29  1  0  0  0  0
 17 32  1  0  0  0  0
 18 32  1  0  0  0  0
 18 33  2  0  0  0  0
 18 34  1  0  0  0  0
 19 21  2  0  0  0  0
 19 39  1  0  0  0  0
 20 22  2  0  0  0  0
 20 40  1  0  0  0  0
 21 48  1  0  0  0  0
 22 41  1  0  0  0  0
 23 31  2  0  0  0  0
 23 56  1  0  0  0  0
 24 30  1  0  0  0  0
 24 69  1  0  0  0  0
 25 79  1  0  0  0  0
 26 80  1  0  0  0  0
 27 29  2  0  0  0  0
 27 79  1  0  0  0  0
 28 81  1  0  0  0  0
 29 82  1  0  0  0  0
 30 83  1  0  0  0  0
 31 84  1  0  0  0  0
 32 63  2  0  0  0  0
 33 64  1  0  0  0  0
 33 67  1  0  0  0  0
 34 68  1  0  0  0  0
 34 74  2  0  0  0  0
 35 49  1  0  0  0  0
 35 70  1  0  0  0  0
 35 75  2  0  0  0  0
 36 60  1  0  0  0  0
 36 65  1  0  0  0  0
 36 76  2  0  0  0  0
 37 61  1  0  0  0  0
 37 71  1  0  0  0  0
 37 77  2  0  0  0  0
 38 66  1  0  0  0  0
 38 69  1  0  0  0  0
 38 78  2  0  0  0  0
 39 42  1  0  0  0  0
 40 49  1  0  0  0  0
 41 65  1  0  0  0  0
 42 44  1  0  0  0  0
 43 45  1  0  0  0  0
 43 46  1  0  0  0  0
 44 48  1  0  0  0  0
 45 50  1  0  0  0  0
 46 66  1  0  0  0  0
 47 50  1  0  0  0  0
 47 66  1  0  0  0  0
 48 70  1  0  0  0  0
 49 65  1  0  0  0  0
 50 64  1  0  0  0  0
 51 61  1  0  0  0  0
 52 62  1  0  0  0  0
 53 62  1  0  0  0  0
 54 62  1  0  0  0  0
 55 72  1  0  0  0  0
 56 73  1  0  0  0  0
 57 58  1  0  0  0  0
 57 59  1  0  0  0  0
 58 73  1  0  0  0  0
 59 80  1  0  0  0  0
 60 62  1  0  0  0  0
 60 71  1  0  0  0  0
 61 72  1  0  0  0  0
 63 64  1  0  0  0  0
M  CHG  2  72   1  73   1
M  ISO  4  38 100  59 101  69 100  80 101
M  END
> <Batch ID>
0039

> <Smiles>
CNC(C)C(=O)NC(C(=O)N1Cc2cc([101O:1][101CH2:1]CCNCc3cc(Cl)c([100NH:0][100C:0](=O)N4CCCC(n5nc(-c6ccc(Oc7ccc(F)cc7F)cc6)c(C(N)=O)c5N)C4)cc3Cl)ccc2CC1C(=O)NC1CCCc2ccccc21)C(C)(C)C

> <Shape>
0.295

> <Color>
0.078

> <Negative vol penalty>
0.000

$$$$

  -OEChem-04042322043D

 88 97  0     1  0  0  0  0  0999 V2000
  -22.2068   -7.2649   24.0934 C   0  0  0  0  0  0  0  0  0  0  0  0
  -23.4903   -7.7415   24.3402 C   0  0  0  0  0  0  0  0  0  0  0  0
  -25.0306  -26.8437   20.8902 C   0  0  0  0  0  0  0  0  0  0  0  0
  -26.9045  -27.7611   22.1084 C   0  0  0  0  0  0  0  0  0  0  0  0
  -21.5797   -7.5499   22.8812 C   0  0  0  0  0  0  0  0  0  0  0  0
  -24.1480   -8.5024   23.3743 C   0  0  0  0  0  0  0  0  0  0  0  0
  -28.8254  -13.8915   22.7447 C   0  0  0  0  0  0  0  0  0  0  0  0
  -24.1670  -27.6990   21.5744 C   0  0  0  0  0  0  0  0  0  0  0  0
  -26.0409  -28.6166   22.7926 C   0  0  0  0  0  0  0  0  0  0  0  0
  -30.0249  -14.2077   22.1084 C   0  0  0  0  0  0  0  0  0  0  0  0
  -22.6960  -27.8436   24.6141 C   0  0  0  0  0  0  0  0  0  0  0  0
  -21.5107  -27.3035   25.1129 C   0  0  0  0  0  0  0  0  0  0  0  0
  -28.8126  -14.7040   20.0828 C   0  0  0  0  0  0  0  0  0  0  0  0
  -32.6576  -19.6902   15.0191 C   0  0  0  0  0  0  0  0  0  0  0  0
  -20.2374  -28.8478   23.7597 C   0  0  0  0  0  0  0  0  0  0  0  0
  -26.3994  -26.8747   21.1573 C   0  0  0  0  0  0  0  0  0  0  0  0
  -27.2639  -24.5834   20.4428 C   0  0  0  0  0  0  0  0  0  0  0  0
  -22.2262   -8.3228   21.9038 C   0  0  0  0  0  0  0  0  0  0  0  0
  -27.6094  -13.9688   22.0504 C   0  0  0  0  0  0  0  0  0  0  0  0
  -23.5294   -8.7968   22.1473 C   0  0  0  0  0  0  0  0  0  0  0  0
  -27.5988  -14.3906   20.7133 C   0  0  0  0  0  0  0  0  0  0  0  0
  -31.6023  -18.9131   15.4964 C   0  0  0  0  0  0  0  0  0  0  0  0
  -30.2927  -19.3849   15.4071 C   0  0  0  0  0  0  0  0  0  0  0  0
  -30.0384  -20.6340   14.8406 C   0  0  0  0  0  0  0  0  0  0  0  0
  -31.0938  -21.4112   14.3634 C   0  0  0  0  0  0  0  0  0  0  0  0
  -24.6721  -28.5855   22.5255 C   0  0  0  0  0  0  0  0  0  0  0  0
  -30.0189  -14.6113   20.7764 C   0  0  0  0  0  0  0  0  0  0  0  0
  -22.6521  -28.8859   23.6881 C   0  0  0  0  0  0  0  0  0  0  0  0
  -20.2814  -27.8055   24.6857 C   0  0  0  0  0  0  0  0  0  0  0  0
  -21.4228  -29.3879   23.2609 C   0  0  0  0  0  0  0  0  0  0  0  0
  -32.4034  -20.9393   14.4526 C   0  0  0  0  0  0  0  0  0  0  0  0
  -27.2919  -25.9909   20.4513 C   0  0  0  0  0  0  0  0  0  0  0  0
  -28.3105  -24.2241   19.6292 C   0  0  0  0  0  0  0  0  0  0  0  0
  -26.3716  -23.6815   21.1106 C   0  0  0  0  0  0  0  0  0  0  0  0
  -25.3496  -11.8834   21.2455 C   0  0  0  0  0  0  0  0  0  0  0  0
  -23.8107  -14.5435   20.2073 C   0  0  0  0  0  0  0  0  0  0  0  0
  -24.0186  -17.7680   19.1091 C   0  0  0  0  0  0  0  0  0  0  0  0
  -31.2834  -24.8734   14.9510 C   0  0  0  0  0  0  0  0  0  0  0  0
  -21.5266   -8.5649   20.5899 C   0  0  0  0  0  0  0  0  0  0  0  0
  -26.3215  -13.6500   22.7589 C   0  0  0  0  0  0  0  0  0  0  0  0
  -26.3181  -14.5095   19.9294 C   0  0  0  0  0  0  0  0  0  0  0  0
  -22.1456   -9.6933   19.7690 C   0  0  0  0  0  0  0  0  0  0  0  0
  -32.0814  -26.9896   17.7008 C   0  0  0  0  0  0  0  0  0  0  0  0
  -32.7804  -18.2908   19.7540 C   0  0  0  0  0  0  0  0  0  0  0  0
  -23.6639   -9.5520   19.7271 C   0  0  0  0  0  0  0  0  0  0  0  0
  -30.9017  -26.8071   18.6572 C   0  0  0  0  0  0  0  0  0  0  0  0
  -32.4896  -16.9191   20.3483 C   0  0  0  0  0  0  0  0  0  0  0  0
  -31.6343  -26.9589   16.2409 C   0  0  0  0  0  0  0  0  0  0  0  0
  -29.6682  -25.5885   16.8154 C   0  0  0  0  0  0  0  0  0  0  0  0
  -32.9934  -18.2179   18.2487 C   0  0  0  0  0  0  0  0  0  0  0  0
  -31.5362  -16.1799   18.1337 C   0  0  0  0  0  0  0  0  0  0  0  0
  -24.2658   -9.6464   21.1343 C   0  0  1  0  0  0  0  0  0  0  0  0
  -25.1934  -13.2690   21.8052 C   0  0  1  0  0  0  0  0  0  0  0  0
  -30.0769  -25.5565   18.2980 C   0  0  2  0  0  0  0  0  0  0  0  0
  -31.3204  -16.2420   19.6401 C   0  0  1  0  0  0  0  0  0  1  0  0
  -29.1629  -18.5489   15.9202 C   0  0  0  0  0  0  0  0  0  0  0  0
  -28.6326  -21.1384   14.7453 C   0  0  0  0  0  0  0  0  0  0  0  0
  -22.5943  -19.6693   18.3003 C   0  0  0  0  0  0  0  0  0  0  0  0
  -23.4939  -13.1550   17.5088 C   0  0  0  0  0  0  0  0  0  0  0  0
  -22.9493  -15.3830   16.5049 C   0  0  0  0  0  0  0  0  0  0  0  0
  -21.4772  -14.4207   18.2740 C   0  0  0  0  0  0  0  0  0  0  0  0
  -24.8743  -19.5116   21.3421 C   0  0  0  0  0  0  0  0  0  0  0  0
  -30.8063  -22.7503   13.7576 C   0  0  0  0  0  0  0  0  0  0  0  0
  -31.9026  -17.5733   16.1012 C   0  0  0  0  0  0  0  0  0  0  0  0
  -23.7578  -15.3092   18.9073 C   0  0  1  0  0  0  0  0  0  0  0  0
  -23.2547  -19.0184   19.5057 C   0  0  2  0  0  0  0  0  0  0  0  0
  -22.9440  -14.5630   17.8127 C   0  0  0  0  0  0  0  0  0  0  0  0
  -28.2783  -26.4915   19.7026 N   0  0  0  0  0  0  0  0  0  0  0  0
  -28.8798  -25.3927   19.2162 N   0  0  0  0  0  0  0  0  0  0  0  0
  -25.0856  -14.1807   20.6644 N   0  0  0  0  0  0  0  0  0  0  0  0
  -30.8587  -25.7471   15.9654 N   0  0  0  0  0  0  0  0  0  0  0  0
  -28.7902  -23.0257   19.2340 N   0  0  0  0  0  0  0  0  0  0  0  0
  -26.7072  -23.2404   22.3978 N   0  0  0  0  0  0  0  0  0  0  0  0
  -24.3165  -11.0253   21.5709 N   0  0  0  0  0  0  0  0  0  0  0  0
  -23.2435  -16.6346   19.2349 N   0  0  0  0  0  0  0  0  0  0  0  0
  -30.4949  -23.7454   14.7594 N   0  0  0  0  0  0  0  0  0  0  0  0
  -31.7947  -17.5664   17.6012 N   0  3  2  0  0  0  0  0  0  0  0  0
  -24.1743  -20.0108   20.1306 N   0  3  0  0  0  0  0  0  0  0  0  0
  -25.3162  -23.2658   20.5749 O   0  0  0  0  0  0  0  0  0  0  0  0
  -26.3338  -11.6132   20.5672 O   0  0  0  0  0  0  0  0  0  0  0  0
  -22.7602  -14.2833   20.7990 O   0  0  0  0  0  0  0  0  0  0  0  0
  -25.1849  -17.7945   18.7224 O   0  0  0  0  0  0  0  0  0  0  0  0
  -32.2937  -25.0803   14.2702 O   0  0  0  0  0  0  0  0  0  0  0  0
  -23.8297  -29.4205   23.1932 O   0  0  0  0  0  0  0  0  0  0  0  0
  -31.1884  -14.9199   20.1528 O   0  0  0  0  0  0  0  0  0  1  0  0
  -19.1432  -27.2857   25.1637 F   0  0  0  0  0  0  0  0  0  0  0  0
  -21.3743  -30.3883   22.3706 F   0  0  0  0  0  0  0  0  0  0  0  0
  -33.7374  -21.8699   13.8730 Cl  0  0  0  0  0  0  0  0  0  0  0  0
  1  2  1  0  0  0  0
  1  5  2  0  0  0  0
  2  6  2  0  0  0  0
  3  8  2  0  0  0  0
  3 16  1  0  0  0  0
  4  9  1  0  0  0  0
  4 16  2  0  0  0  0
  5 18  1  0  0  0  0
  6 20  1  0  0  0  0
  7 10  2  0  0  0  0
  7 19  1  0  0  0  0
  8 26  1  0  0  0  0
  9 26  2  0  0  0  0
 10 27  1  0  0  0  0
 11 12  2  0  0  0  0
 11 28  1  0  0  0  0
 12 29  1  0  0  0  0
 13 21  1  0  0  0  0
 13 27  2  0  0  0  0
 14 22  1  0  0  0  0
 14 31  2  0  0  0  0
 15 29  2  0  0  0  0
 15 30  1  0  0  0  0
 16 32  1  0  0  0  0
 17 32  1  0  0  0  0
 17 33  2  0  0  0  0
 17 34  1  0  0  0  0
 18 20  2  0  0  0  0
 18 39  1  0  0  0  0
 19 21  2  0  0  0  0
 19 40  1  0  0  0  0
 20 52  1  0  0  0  0
 21 41  1  0  0  0  0
 22 23  2  0  0  0  0
 22 64  1  0  0  0  0
 23 24  1  0  0  0  0
 23 56  1  0  0  0  0
 24 25  2  0  0  0  0
 24 57  1  0  0  0  0
 25 31  1  0  0  0  0
 25 63  1  0  0  0  0
 26 84  1  0  0  0  0
 27 85  1  0  0  0  0
 28 30  2  0  0  0  0
 28 84  1  0  0  0  0
 29 86  1  0  0  0  0
 30 87  1  0  0  0  0
 31 88  1  0  0  0  0
 32 68  2  0  0  0  0
 33 69  1  0  0  0  0
 33 72  1  0  0  0  0
 34 73  1  0  0  0  0
 34 79  2  0  0  0  0
 35 53  1  0  0  0  0
 35 74  1  0  0  0  0
 35 80  2  0  0  0  0
 36 65  1  0  0  0  0
 36 70  1  0  0  0  0
 36 81  2  0  0  0  0
 37 66  1  0  0  0  0
 37 75  1  0  0  0  0
 37 82  2  0  0  0  0
 38 71  1  0  0  0  0
 38 76  1  0  0  0  0
 38 83  2  0  0  0  0
 39 42  1  0  0  0  0
 40 53  1  0  0  0  0
 41 70  1  0  0  0  0
 42 45  1  0  0  0  0
 43 46  1  0  0  0  0
 43 48  1  0  0  0  0
 44 47  1  0  0  0  0
 44 50  1  0  0  0  0
 45 52  1  0  0  0  0
 46 54  1  0  0  0  0
 47 55  1  0  0  0  0
 48 71  1  0  0  0  0
 49 54  1  0  0  0  0
 49 71  1  0  0  0  0
 50 77  1  0  0  0  0
 51 55  1  0  0  0  0
 51 77  1  0  0  0  0
 52 74  1  0  0  0  0
 53 70  1  0  0  0  0
 54 69  1  0  0  0  0
 55 85  1  0  0  0  0
 58 66  1  0  0  0  0
 59 67  1  0  0  0  0
 60 67  1  0  0  0  0
 61 67  1  0  0  0  0
 62 78  1  0  0  0  0
 63 76  1  0  0  0  0
 64 77  1  0  0  0  0
 65 67  1  0  0  0  0
 65 75  1  0  0  0  0
 66 78  1  0  0  0  0
 68 69  1  0  0  0  0
M  CHG  2  77   1  78   1
M  ISO  4  38 100  55 101  76 100  85 101
M  END
> <Batch ID>
0039

> <Smiles>
CNC(C)C(=O)NC(C(=O)N1Cc2cc([101O:1][101CH:1]3CCCN(Cc4cc(Cl)c(C[100NH:0][100C:0](=O)N5CCCC(n6nc(-c7ccc(Oc8ccc(F)cc8F)cc7)c(C(N)=O)c6N)C5)c(C)c4C)C3)ccc2CC1C(=O)NC1CCCc2ccccc21)C(C)(C)C

> <Shape>
0.190

> <Color>
0.106

> <Negative vol penalty>
0.000

$$$$

  -OEChem-04042322043D

 85 93  0     1  0  0  0  0  0999 V2000
  -26.3943  -24.2783   16.8210 C   0  0  0  0  0  0  0  0  0  0  0  0
  -25.2974  -24.7151   17.5569 C   0  0  0  0  0  0  0  0  0  0  0  0
  -25.7248  -12.1543   20.8372 C   0  0  0  0  0  0  0  0  0  0  0  0
  -25.1374  -13.0240   23.0133 C   0  0  0  0  0  0  0  0  0  0  0  0
  -27.6861  -24.5516   17.2687 C   0  0  0  0  0  0  0  0  0  0  0  0
  -25.4917  -25.4245   18.7415 C   0  0  0  0  0  0  0  0  0  0  0  0
  -22.4624  -29.4663   19.1047 C   0  0  0  0  0  0  0  0  0  0  0  0
  -26.2539  -11.0114   21.4367 C   0  0  0  0  0  0  0  0  0  0  0  0
  -25.6665  -11.8810   23.6129 C   0  0  0  0  0  0  0  0  0  0  0  0
  -21.1360  -29.2373   19.4679 C   0  0  0  0  0  0  0  0  0  0  0  0
  -25.0881   -8.1313   22.7705 C   0  0  0  0  0  0  0  0  0  0  0  0
  -24.7649   -6.8960   22.2090 C   0  0  0  0  0  0  0  0  0  0  0  0
  -21.6517  -29.8818   21.7346 C   0  0  0  0  0  0  0  0  0  0  0  0
  -21.1418  -21.7789   21.5233 C   0  0  0  0  0  0  0  0  0  0  0  0
  -22.9883  -23.3369   21.5382 C   0  0  0  0  0  0  0  0  0  0  0  0
  -27.1082   -6.4644   21.8097 C   0  0  0  0  0  0  0  0  0  0  0  0
  -25.1666  -13.1606   21.6255 C   0  0  0  0  0  0  0  0  0  0  0  0
  -20.8195  -24.0262   22.3494 C   0  0  0  0  0  0  0  0  0  0  0  0
  -23.2963  -14.5382   20.5711 C   0  0  0  0  0  0  0  0  0  0  0  0
  -27.8964  -25.2731   18.4544 C   0  0  0  0  0  0  0  0  0  0  0  0
  -23.3975  -29.8951   20.0577 C   0  0  0  0  0  0  0  0  0  0  0  0
  -26.7876  -25.7066   19.2062 C   0  0  0  0  0  0  0  0  0  0  0  0
  -22.9888  -30.1180   21.3803 C   0  0  0  0  0  0  0  0  0  0  0  0
  -20.3115  -22.7577   22.0691 C   0  0  0  0  0  0  0  0  0  0  0  0
  -22.4803  -22.0684   21.2579 C   0  0  0  0  0  0  0  0  0  0  0  0
  -26.2247  -10.8747   22.8245 C   0  0  0  0  0  0  0  0  0  0  0  0
  -20.7311  -29.4422   20.7836 C   0  0  0  0  0  0  0  0  0  0  0  0
  -26.4214   -8.5332   22.8515 C   0  0  0  0  0  0  0  0  0  0  0  0
  -25.7749   -6.0626   21.7287 C   0  0  0  0  0  0  0  0  0  0  0  0
  -27.4314   -7.6997   22.3711 C   0  0  0  0  0  0  0  0  0  0  0  0
  -22.1579  -24.3158   22.0840 C   0  0  0  0  0  0  0  0  0  0  0  0
  -24.6204  -14.3417   21.0068 C   0  0  0  0  0  0  0  0  0  0  0  0
  -23.2885  -15.8132   20.0604 C   0  0  0  0  0  0  0  0  0  0  0  0
  -19.9284  -25.0520   22.9275 C   0  0  0  0  0  0  0  0  0  0  0  0
  -22.1737  -13.6479   20.6235 C   0  0  0  0  0  0  0  0  0  0  0  0
  -26.0872  -28.6992   21.2572 C   0  0  0  0  0  0  0  0  0  0  0  0
  -26.2526  -31.5832   22.7327 C   0  0  0  0  0  0  0  0  0  0  0  0
  -24.6123  -34.3396   23.8984 C   0  0  0  0  0  0  0  0  0  0  0  0
  -24.6744  -21.1966   20.3792 C   0  0  0  0  0  0  0  0  0  0  0  0
  -29.3114  -25.5034   18.9229 C   0  0  0  0  0  0  0  0  0  0  0  0
  -24.8185  -30.1633   19.6440 C   0  0  0  0  0  0  0  0  0  0  0  0
  -23.9491  -30.5974   22.4369 C   0  0  0  0  0  0  0  0  0  0  0  0
  -29.4302  -26.5853   19.9932 C   0  0  0  0  0  0  0  0  0  0  0  0
  -27.1068  -18.9729   19.0317 C   0  0  0  0  0  0  0  0  0  0  0  0
  -28.3693  -26.3884   21.0714 C   0  0  0  0  0  0  0  0  0  0  0  0
  -26.5679  -17.5860   19.3896 C   0  0  0  0  0  0  0  0  0  0  0  0
  -26.8336  -19.9904   20.1380 C   0  0  0  0  0  0  0  0  0  0  0  0
  -24.8931  -18.6926   20.9250 C   0  0  0  0  0  0  0  0  0  0  0  0
  -26.9575  -26.5004   20.4833 C   0  0  1  0  0  0  0  0  0  0  0  0
  -25.8013  -30.1046   20.8093 C   0  0  1  0  0  0  0  0  0  0  0  0
  -25.0872  -17.6488   19.8130 C   0  0  2  0  0  0  0  0  0  0  0  0
  -18.8821  -22.4195   22.3437 C   0  0  0  0  0  0  0  0  0  0  0  0
  -25.0107  -36.5113   25.0910 C   0  0  0  0  0  0  0  0  0  0  0  0
  -26.5577  -30.0770   25.3687 C   0  0  0  0  0  0  0  0  0  0  0  0
  -25.9987  -32.2026   26.5677 C   0  0  0  0  0  0  0  0  0  0  0  0
  -28.0368  -32.0799   25.1345 C   0  0  0  0  0  0  0  0  0  0  0  0
  -23.5950  -35.9165   21.6099 C   0  0  0  0  0  0  0  0  0  0  0  0
  -17.7017  -27.5737   21.3404 C   0  0  0  0  0  0  0  0  0  0  0  0
  -18.3406  -26.9039   22.5456 C   0  0  0  0  0  0  0  0  0  0  0  0
  -18.7265  -28.2169   20.4148 C   0  0  0  0  0  0  0  0  0  1  0  0
  -25.7567  -32.1433   24.0440 C   0  0  1  0  0  0  0  0  0  0  0  0
  -24.8959  -35.8224   23.7400 C   0  0  2  0  0  0  0  0  0  0  0  0
  -26.5696  -31.6148   25.2595 C   0  0  0  0  0  0  0  0  0  0  0  0
  -25.3975  -15.4066   20.7915 N   0  0  0  0  0  0  0  0  0  0  0  0
  -24.5590  -16.2844   20.2149 N   0  0  0  0  0  0  0  0  0  0  0  0
  -25.3291  -30.8396   21.9845 N   0  0  0  0  0  0  0  0  0  0  0  0
  -25.4105  -19.9974   20.4838 N   0  0  0  0  0  0  0  0  0  0  0  0
  -22.3188  -16.5660   19.4987 N   0  0  0  0  0  0  0  0  0  0  0  0
  -19.8414  -25.1323   24.2553 N   0  0  0  0  0  0  0  0  0  0  0  0
  -22.3560  -12.3748   21.1806 N   0  0  0  0  0  0  0  0  0  0  0  0
  -23.3236  -21.0741   20.7030 N   0  0  0  0  0  0  0  0  0  0  0  0
  -26.6087  -27.8883   20.2673 N   0  0  0  0  0  0  0  0  0  0  0  0
  -25.7729  -33.5950   23.9000 N   0  0  0  0  0  0  0  0  0  0  0  0
  -19.2492  -25.8501   22.0934 N   0  3  0  0  0  0  0  0  0  0  0  0
  -23.8029  -36.4794   22.9689 N   0  3  0  0  0  0  0  0  0  0  0  0
  -21.0464  -13.9657   20.1741 O   0  0  0  0  0  0  0  0  0  0  0  0
  -25.8534  -28.3748   22.4156 O   0  0  0  0  0  0  0  0  0  0  0  0
  -27.4145  -31.8036   22.3818 O   0  0  0  0  0  0  0  0  0  0  0  0
  -23.4753  -33.8874   24.0132 O   0  0  0  0  0  0  0  0  0  0  0  0
  -25.1975  -22.2483   20.0021 O   0  0  0  0  0  0  0  0  0  0  0  0
  -26.7407   -9.7595   23.4099 O   0  0  0  0  0  0  0  0  0  0  0  0
  -19.4372  -29.2188   21.1410 O   0  0  0  0  0  0  0  0  0  1  0  0
  -25.4645   -4.8757   21.1909 F   0  0  0  0  0  0  0  0  0  0  0  0
  -28.7142   -8.0798   22.4473 F   0  0  0  0  0  0  0  0  0  0  0  0
  -22.8252  -25.8737   22.4161 Cl  0  0  0  0  0  0  0  0  0  0  0  0
  1  2  1  0  0  0  0
  1  5  2  0  0  0  0
  2  6  2  0  0  0  0
  3  8  2  0  0  0  0
  3 17  1  0  0  0  0
  4  9  1  0  0  0  0
  4 17  2  0  0  0  0
  5 20  1  0  0  0  0
  6 22  1  0  0  0  0
  7 10  2  0  0  0  0
  7 21  1  0  0  0  0
  8 26  1  0  0  0  0
  9 26  2  0  0  0  0
 10 27  1  0  0  0  0
 11 12  2  0  0  0  0
 11 28  1  0  0  0  0
 12 29  1  0  0  0  0
 13 23  1  0  0  0  0
 13 27  2  0  0  0  0
 14 24  2  0  0  0  0
 14 25  1  0  0  0  0
 15 25  2  0  0  0  0
 15 31  1  0  0  0  0
 16 29  2  0  0  0  0
 16 30  1  0  0  0  0
 17 32  1  0  0  0  0
 18 24  1  0  0  0  0
 18 31  2  0  0  0  0
 18 34  1  0  0  0  0
 19 32  1  0  0  0  0
 19 33  2  0  0  0  0
 19 35  1  0  0  0  0
 20 22  2  0  0  0  0
 20 40  1  0  0  0  0
 21 23  2  0  0  0  0
 21 41  1  0  0  0  0
 22 49  1  0  0  0  0
 23 42  1  0  0  0  0
 24 52  1  0  0  0  0
 25 71  1  0  0  0  0
 26 81  1  0  0  0  0
 27 82  1  0  0  0  0
 28 30  2  0  0  0  0
 28 81  1  0  0  0  0
 29 83  1  0  0  0  0
 30 84  1  0  0  0  0
 31 85  1  0  0  0  0
 32 64  2  0  0  0  0
 33 65  1  0  0  0  0
 33 68  1  0  0  0  0
 34 69  1  0  0  0  0
 34 74  2  0  0  0  0
 35 70  1  0  0  0  0
 35 76  2  0  0  0  0
 36 50  1  0  0  0  0
 36 72  1  0  0  0  0
 36 77  2  0  0  0  0
 37 61  1  0  0  0  0
 37 66  1  0  0  0  0
 37 78  2  0  0  0  0
 38 62  1  0  0  0  0
 38 73  1  0  0  0  0
 38 79  2  0  0  0  0
 39 67  1  0  0  0  0
 39 71  1  0  0  0  0
 39 80  2  0  0  0  0
 40 43  1  0  0  0  0
 41 50  1  0  0  0  0
 42 66  1  0  0  0  0
 43 45  1  0  0  0  0
 44 46  1  0  0  0  0
 44 47  1  0  0  0  0
 45 49  1  0  0  0  0
 46 51  1  0  0  0  0
 47 67  1  0  0  0  0
 48 51  1  0  0  0  0
 48 67  1  0  0  0  0
 49 72  1  0  0  0  0
 50 66  1  0  0  0  0
 51 65  1  0  0  0  0
 53 62  1  0  0  0  0
 54 63  1  0  0  0  0
 55 63  1  0  0  0  0
 56 63  1  0  0  0  0
 57 75  1  0  0  0  0
 58 59  1  0  0  0  0
 58 60  1  0  0  0  0
 59 74  1  0  0  0  0
 60 82  1  0  0  0  0
 61 63  1  0  0  0  0
 61 73  1  0  0  0  0
 62 75  1  0  0  0  0
 64 65  1  0  0  0  0
M  CHG  2  74   1  75   1
M  ISO  4  39 100  60 101  71 100  82 101
M  END
> <Batch ID>
0039

> <Smiles>
CNC(C)C(=O)NC(C(=O)N1Cc2cc([101O:1][101CH2:1]CCNC(=N)c3c(C)cc([100NH:0][100C:0](=O)N4CCCC(n5nc(-c6ccc(Oc7ccc(F)cc7F)cc6)c(C(N)=O)c5N)C4)cc3Cl)ccc2CC1C(=O)NC1CCCc2ccccc21)C(C)(C)C

> <Shape>
0.257

> <Color>
0.075

> <Negative vol penalty>
0.000

$$$$

  -OEChem-04042322043D

 89 98  0     1  0  0  0  0  0999 V2000
  -25.1611  -30.8308   23.9318 C   0  0  0  0  0  0  0  0  0  0  0  0
  -25.3398  -29.5242   24.3749 C   0  0  0  0  0  0  0  0  0  0  0  0
  -24.4287   -9.3332   20.2634 C   0  0  0  0  0  0  0  0  0  0  0  0
  -24.7616   -9.9527   22.5748 C   0  0  0  0  0  0  0  0  0  0  0  0
  -25.3718  -31.1456   22.5900 C   0  0  0  0  0  0  0  0  0  0  0  0
  -25.7283  -28.5314   23.4761 C   0  0  0  0  0  0  0  0  0  0  0  0
  -29.3884  -25.5604   25.3259 C   0  0  0  0  0  0  0  0  0  0  0  0
  -24.1747   -8.0181   20.6524 C   0  0  0  0  0  0  0  0  0  0  0  0
  -24.5075   -8.6375   22.9638 C   0  0  0  0  0  0  0  0  0  0  0  0
  -29.0096  -24.5763   26.2381 C   0  0  0  0  0  0  0  0  0  0  0  0
  -21.8102   -6.6530   23.4183 C   0  0  0  0  0  0  0  0  0  0  0  0
  -20.9613   -6.4533   24.5069 C   0  0  0  0  0  0  0  0  0  0  0  0
  -29.0718  -22.9287   24.4772 C   0  0  0  0  0  0  0  0  0  0  0  0
  -26.1897  -20.3653   21.3811 C   0  0  0  0  0  0  0  0  0  0  0  0
  -24.7130  -20.6654   23.2696 C   0  0  0  0  0  0  0  0  0  0  0  0
  -22.7405   -5.3222   25.6868 C   0  0  0  0  0  0  0  0  0  0  0  0
  -24.7222  -10.3006   21.2246 C   0  0  0  0  0  0  0  0  0  0  0  0
  -24.0480  -12.6998   20.6796 C   0  0  0  0  0  0  0  0  0  0  0  0
  -25.7724  -30.1580   21.6762 C   0  0  0  0  0  0  0  0  0  0  0  0
  -29.6015  -25.2374   23.9781 C   0  0  0  0  0  0  0  0  0  0  0  0
  -25.9432  -28.8330   22.1205 C   0  0  0  0  0  0  0  0  0  0  0  0
  -29.4557  -23.9100   23.5505 C   0  0  0  0  0  0  0  0  0  0  0  0
  -27.0801  -19.6588   22.1895 C   0  0  0  0  0  0  0  0  0  0  0  0
  -25.6034  -19.9588   24.0780 C   0  0  0  0  0  0  0  0  0  0  0  0
  -26.7869  -19.4555   23.5380 C   0  0  0  0  0  0  0  0  0  0  0  0
  -24.2141   -7.6702   22.0026 C   0  0  0  0  0  0  0  0  0  0  0  0
  -28.8484  -23.2608   25.8132 C   0  0  0  0  0  0  0  0  0  0  0  0
  -23.1242   -6.1873   23.4639 C   0  0  0  0  0  0  0  0  0  0  0  0
  -21.4264   -5.7879   25.6412 C   0  0  0  0  0  0  0  0  0  0  0  0
  -23.5894   -5.5219   24.5982 C   0  0  0  0  0  0  0  0  0  0  0  0
  -25.0062  -20.8687   21.9211 C   0  0  0  0  0  0  0  0  0  0  0  0
  -24.9852  -11.6592   20.8233 C   0  0  0  0  0  0  0  0  0  0  0  0
  -24.7948  -13.7821   20.2828 C   0  0  0  0  0  0  0  0  0  0  0  0
  -25.5361  -17.3532   28.2824 C   0  0  0  0  0  0  0  0  0  0  0  0
  -26.4495  -18.2223   27.8366 C   0  0  0  0  0  0  0  0  0  0  0  0
  -22.6293  -12.6890   20.8863 C   0  0  0  0  0  0  0  0  0  0  0  0
  -28.2681  -26.1040   21.2258 C   0  0  0  0  0  0  0  0  0  0  0  0
  -30.6785  -24.3457   19.9528 C   0  0  0  0  0  0  0  0  0  0  0  0
  -32.9583  -21.8376   20.3513 C   0  0  0  0  0  0  0  0  0  0  0  0
  -29.3243  -17.0074   20.7588 C   0  0  0  0  0  0  0  0  0  0  0  0
  -25.9421  -30.5366   20.2262 C   0  0  0  0  0  0  0  0  0  0  0  0
  -30.0357  -26.3055   23.0121 C   0  0  0  0  0  0  0  0  0  0  0  0
  -29.6922  -23.5076   22.1185 C   0  0  0  0  0  0  0  0  0  0  0  0
  -26.7159  -29.5020   19.4131 C   0  0  0  0  0  0  0  0  0  0  0  0
  -29.6072  -14.0791   18.7535 C   0  0  0  0  0  0  0  0  0  0  0  0
  -26.1965  -28.0975   19.7038 C   0  0  0  0  0  0  0  0  0  0  0  0
  -27.3829  -20.3373   28.6983 C   0  0  0  0  0  0  0  0  0  0  0  0
  -28.3565  -13.2721   19.1060 C   0  0  0  0  0  0  0  0  0  0  0  0
  -27.2777  -21.8579   28.7582 C   0  0  0  0  0  0  0  0  0  0  0  0
  -30.1653  -14.8151   19.9696 C   0  0  0  0  0  0  0  0  0  0  0  0
  -27.9413  -14.8603   21.0306 C   0  0  0  0  0  0  0  0  0  0  0  0
  -26.1299  -21.8586   26.5132 C   0  0  0  0  0  0  0  0  0  0  0  0
  -26.3881  -27.7332   21.1810 C   0  0  1  0  0  0  0  0  0  0  0  0
  -26.2693  -19.7088   27.8513 C   0  0  1  0  0  0  0  0  0  0  0  0
  -29.7260  -25.9588   21.5591 C   0  0  1  0  0  0  0  0  0  0  0  0
  -27.3097  -14.1451   19.8240 C   0  0  2  0  0  0  0  0  0  0  0  0
  -27.2288  -22.4746   27.3656 C   0  0  2  0  0  0  0  0  0  1  0  0
  -27.7421  -18.6986   24.4052 C   0  0  0  0  0  0  0  0  0  0  0  0
  -34.7656  -20.6047   19.1220 C   0  0  0  0  0  0  0  0  0  0  0  0
  -28.5599  -22.8016   18.3916 C   0  0  0  0  0  0  0  0  0  0  0  0
  -30.2748  -21.0316   17.9507 C   0  0  0  0  0  0  0  0  0  0  0  0
  -30.6246  -23.3465   17.0898 C   0  0  0  0  0  0  0  0  0  0  0  0
  -35.0211  -22.6869   22.2962 C   0  0  0  0  0  0  0  0  0  0  0  0
  -28.3407  -19.1301   21.5870 C   0  0  0  0  0  0  0  0  0  0  0  0
  -25.2649  -19.7533   25.5252 C   0  0  0  0  0  0  0  0  0  0  0  0
  -30.8568  -22.8972   19.5669 C   0  0  1  0  0  0  0  0  0  0  0  0
  -34.4438  -21.7688   20.0462 C   0  0  2  0  0  0  0  0  0  0  0  0
  -30.0726  -22.5268   18.2764 C   0  0  0  0  0  0  0  0  0  0  0  0
  -26.2322  -12.0457   20.5406 N   0  0  0  0  0  0  0  0  0  0  0  0
  -26.0836  -13.3411   20.2153 N   0  0  0  0  0  0  0  0  0  0  0  0
  -30.1092  -24.5891   21.2108 N   0  0  0  0  0  0  0  0  0  0  0  0
  -29.1229  -15.6260   20.6036 N   0  0  0  0  0  0  0  0  0  0  0  0
  -24.4681  -15.0585   19.9885 N   0  0  0  0  0  0  0  0  0  0  0  0
  -22.0225  -11.4930   21.2935 N   0  0  0  0  0  0  0  0  0  0  0  0
  -27.7661  -27.3738   21.4383 N   0  0  0  0  0  0  0  0  0  0  0  0
  -32.2955  -22.6728   19.4769 N   0  0  0  0  0  0  0  0  0  0  0  0
  -28.2842  -17.7027   21.3636 N   0  0  0  0  0  0  0  0  0  0  0  0
  -26.2883  -20.3498   26.4629 N   0  3  1  0  0  0  0  0  0  0  0  0
  -35.2238  -21.5993   21.3047 N   0  3  0  0  0  0  0  0  0  0  0  0
  -21.9184  -13.7055   20.6992 O   0  0  0  0  0  0  0  0  0  0  0  0
  -27.6450  -25.1360   20.8056 O   0  0  0  0  0  0  0  0  0  0  0  0
  -31.0379  -25.2287   19.1700 O   0  0  0  0  0  0  0  0  0  0  0  0
  -32.4374  -21.2102   21.2708 O   0  0  0  0  0  0  0  0  0  0  0  0
  -30.3523  -17.5798   20.3812 O   0  0  0  0  0  0  0  0  0  0  0  0
  -23.9660   -6.3870   22.3827 O   0  0  0  0  0  0  0  0  0  0  0  0
  -28.4781  -22.2985   26.7013 O   0  0  0  0  0  0  0  0  0  1  0  0
  -20.6115   -5.5976   26.6871 F   0  0  0  0  0  0  0  0  0  0  0  0
  -24.8511   -5.0732   24.6483 F   0  0  0  0  0  0  0  0  0  0  0  0
  -23.9074  -21.7408   20.9238 Cl  0  0  0  0  0  0  0  0  0  0  0  0
  1  2  1  0  0  0  0
  1  5  2  0  0  0  0
  2  6  2  0  0  0  0
  3  8  2  0  0  0  0
  3 17  1  0  0  0  0
  4  9  1  0  0  0  0
  4 17  2  0  0  0  0
  5 19  1  0  0  0  0
  6 21  1  0  0  0  0
  7 10  2  0  0  0  0
  7 20  1  0  0  0  0
  8 26  1  0  0  0  0
  9 26  2  0  0  0  0
 10 27  1  0  0  0  0
 11 12  2  0  0  0  0
 11 28  1  0  0  0  0
 12 29  1  0  0  0  0
 13 22  1  0  0  0  0
 13 27  2  0  0  0  0
 14 23  2  0  0  0  0
 14 31  1  0  0  0  0
 15 24  1  0  0  0  0
 15 31  2  0  0  0  0
 16 29  2  0  0  0  0
 16 30  1  0  0  0  0
 17 32  1  0  0  0  0
 18 32  1  0  0  0  0
 18 33  2  0  0  0  0
 18 36  1  0  0  0  0
 19 21  2  0  0  0  0
 19 41  1  0  0  0  0
 20 22  2  0  0  0  0
 20 42  1  0  0  0  0
 21 53  1  0  0  0  0
 22 43  1  0  0  0  0
 23 25  1  0  0  0  0
 23 64  1  0  0  0  0
 24 25  2  0  0  0  0
 24 65  1  0  0  0  0
 25 58  1  0  0  0  0
 26 85  1  0  0  0  0
 27 86  1  0  0  0  0
 28 30  2  0  0  0  0
 28 85  1  0  0  0  0
 29 87  1  0  0  0  0
 30 88  1  0  0  0  0
 31 89  1  0  0  0  0
 32 69  2  0  0  0  0
 33 70  1  0  0  0  0
 33 73  1  0  0  0  0
 34 35  2  0  0  0  0
 35 54  1  0  0  0  0
 36 74  1  0  0  0  0
 36 80  2  0  0  0  0
 37 55  1  0  0  0  0
 37 75  1  0  0  0  0
 37 81  2  0  0  0  0
 38 66  1  0  0  0  0
 38 71  1  0  0  0  0
 38 82  2  0  0  0  0
 39 67  1  0  0  0  0
 39 76  1  0  0  0  0
 39 83  2  0  0  0  0
 40 72  1  0  0  0  0
 40 77  1  0  0  0  0
 40 84  2  0  0  0  0
 41 44  1  0  0  0  0
 42 55  1  0  0  0  0
 43 71  1  0  0  0  0
 44 46  1  0  0  0  0
 45 48  1  0  0  0  0
 45 50  1  0  0  0  0
 46 53  1  0  0  0  0
 47 49  1  0  0  0  0
 47 54  1  0  0  0  0
 48 56  1  0  0  0  0
 49 57  1  0  0  0  0
 50 72  1  0  0  0  0
 51 56  1  0  0  0  0
 51 72  1  0  0  0  0
 52 57  1  0  0  0  0
 52 78  1  0  0  0  0
 53 75  1  0  0  0  0
 54 78  1  0  0  0  0
 55 71  1  0  0  0  0
 56 70  1  0  0  0  0
 57 86  1  0  0  0  0
 59 67  1  0  0  0  0
 60 68  1  0  0  0  0
 61 68  1  0  0  0  0
 62 68  1  0  0  0  0
 63 79  1  0  0  0  0
 64 77  1  0  0  0  0
 65 78  1  0  0  0  0
 66 68  1  0  0  0  0
 66 76  1  0  0  0  0
 67 79  1  0  0  0  0
 69 70  1  0  0  0  0
M  CHG  2  78   1  79   1
M  ISO  4  40 100  57 101  77 100  86 101
M  END
> <Batch ID>
0039

> <Smiles>
C=CC1CC[101CH:1]([101O:1]c2ccc3c(c2)CN(C(=O)C(NC(=O)C(C)NC)C(C)(C)C)C(C(=O)NC2CCCc4ccccc42)C3)CN1Cc1cc(Cl)cc(C[100NH:0][100C:0](=O)N2CCCC(n3nc(-c4ccc(Oc5ccc(F)cc5F)cc4)c(C(N)=O)c3N)C2)c1C

> <Shape>
0.226

> <Color>
0.102

> <Negative vol penalty>
0.000

$$$$

  -OEChem-04042322043D

 87 96  0     1  0  0  0  0  0999 V2000
  -25.0984  -33.9375   20.2409 C   0  0  0  0  0  0  0  0  0  0  0  0
  -25.6523  -33.0628   19.3131 C   0  0  0  0  0  0  0  0  0  0  0  0
  -23.3087  -10.2141   22.2374 C   0  0  0  0  0  0  0  0  0  0  0  0
  -23.6029   -9.5276   19.9397 C   0  0  0  0  0  0  0  0  0  0  0  0
  -25.4943  -33.8745   21.5753 C   0  0  0  0  0  0  0  0  0  0  0  0
  -26.5934  -32.1170   19.7213 C   0  0  0  0  0  0  0  0  0  0  0  0
  -31.4222  -25.4136   20.7936 C   0  0  0  0  0  0  0  0  0  0  0  0
  -22.5644   -9.0610   22.4866 C   0  0  0  0  0  0  0  0  0  0  0  0
  -22.8587   -8.3745   20.1889 C   0  0  0  0  0  0  0  0  0  0  0  0
  -31.9595  -24.7591   21.9012 C   0  0  0  0  0  0  0  0  0  0  0  0
  -19.4143   -7.9638   21.9414 C   0  0  0  0  0  0  0  0  0  0  0  0
  -18.2308   -8.1014   22.6666 C   0  0  0  0  0  0  0  0  0  0  0  0
  -29.8943  -25.1035   23.0992 C   0  0  0  0  0  0  0  0  0  0  0  0
  -30.4919  -18.3506   24.0467 C   0  0  0  0  0  0  0  0  0  0  0  0
  -32.0581  -16.6025   22.5388 C   0  0  0  0  0  0  0  0  0  0  0  0
  -19.0963   -6.6128   24.3613 C   0  0  0  0  0  0  0  0  0  0  0  0
  -23.8279  -10.4474   20.9639 C   0  0  0  0  0  0  0  0  0  0  0  0
  -24.1678  -12.9727   20.8416 C   0  0  0  0  0  0  0  0  0  0  0  0
  -26.4499  -32.9354   21.9969 C   0  0  0  0  0  0  0  0  0  0  0  0
  -30.1185  -25.9285   20.8345 C   0  0  0  0  0  0  0  0  0  0  0  0
  -26.9882  -32.0217   21.0680 C   0  0  0  0  0  0  0  0  0  0  0  0
  -29.3418  -25.7620   21.9900 C   0  0  0  0  0  0  0  0  0  0  0  0
  -31.8791  -18.3551   24.1921 C   0  0  0  0  0  0  0  0  0  0  0  0
  -29.8877  -17.4720   23.1473 C   0  0  0  0  0  0  0  0  0  0  0  0
  -32.6622  -17.4811   23.4382 C   0  0  0  0  0  0  0  0  0  0  0  0
  -30.6709  -16.5980   22.3934 C   0  0  0  0  0  0  0  0  0  0  0  0
  -22.3395   -8.1412   21.4624 C   0  0  0  0  0  0  0  0  0  0  0  0
  -31.1966  -24.6065   23.0552 C   0  0  0  0  0  0  0  0  0  0  0  0
  -20.4388   -7.1507   22.4260 C   0  0  0  0  0  0  0  0  0  0  0  0
  -18.0718   -7.4259   23.8766 C   0  0  0  0  0  0  0  0  0  0  0  0
  -20.2798   -6.4752   23.6360 C   0  0  0  0  0  0  0  0  0  0  0  0
  -24.5963  -11.6387   20.7057 C   0  0  0  0  0  0  0  0  0  0  0  0
  -25.2597  -13.7227   20.4786 C   0  0  0  0  0  0  0  0  0  0  0  0
  -31.9706  -21.6025   24.4415 C   0  0  0  0  0  0  0  0  0  0  0  0
  -22.8965  -13.4880   21.2587 C   0  0  0  0  0  0  0  0  0  0  0  0
  -28.8439  -28.8299   20.5870 C   0  0  0  0  0  0  0  0  0  0  0  0
  -26.0500  -27.1832   20.6587 C   0  0  0  0  0  0  0  0  0  0  0  0
  -24.6881  -24.3860   22.4857 C   0  0  0  0  0  0  0  0  0  0  0  0
  -30.7249  -14.7729   20.6577 C   0  0  0  0  0  0  0  0  0  0  0  0
  -26.8363  -32.9058   23.4547 C   0  0  0  0  0  0  0  0  0  0  0  0
  -29.5440  -26.6085   19.6220 C   0  0  0  0  0  0  0  0  0  0  0  0
  -27.9298  -26.2786   22.0777 C   0  0  0  0  0  0  0  0  0  0  0  0
  -28.1526  -32.1775   23.7061 C   0  0  0  0  0  0  0  0  0  0  0  0
  -29.9202  -21.7762   26.5278 C   0  0  0  0  0  0  0  0  0  0  0  0
  -29.6148  -12.3558   18.2908 C   0  0  0  0  0  0  0  0  0  0  0  0
  -28.1426  -30.8282   23.0034 C   0  0  0  0  0  0  0  0  0  0  0  0
  -30.5760  -23.0392   26.0099 C   0  0  0  0  0  0  0  0  0  0  0  0
  -28.1749  -12.0635   18.7193 C   0  0  0  0  0  0  0  0  0  0  0  0
  -30.9276  -20.6404   26.5268 C   0  0  0  0  0  0  0  0  0  0  0  0
  -30.5285  -12.5866   19.4932 C   0  0  0  0  0  0  0  0  0  0  0  0
  -28.6196  -13.3109   20.8718 C   0  0  0  0  0  0  0  0  0  0  0  0
  -28.0360  -31.0049   21.4834 C   0  0  1  0  0  0  0  0  0  0  0  0
  -31.0459  -22.8043   24.5878 C   0  0  1  0  0  0  0  0  0  1  0  0
  -28.3871  -27.5457   19.9545 C   0  0  1  0  0  0  0  0  0  0  0  0
  -27.6481  -13.1356   19.6931 C   0  0  2  0  0  0  0  0  0  0  0  0
  -28.3997  -17.4890   23.0119 C   0  0  0  0  0  0  0  0  0  0  0  0
  -34.1492  -17.4678   23.5772 C   0  0  0  0  0  0  0  0  0  0  0  0
  -22.9142  -22.7292   21.8487 C   0  0  0  0  0  0  0  0  0  0  0  0
  -24.1589  -29.0867   22.1113 C   0  0  0  0  0  0  0  0  0  0  0  0
  -22.9362  -27.0878   22.9932 C   0  0  0  0  0  0  0  0  0  0  0  0
  -23.0365  -27.5021   20.5354 C   0  0  0  0  0  0  0  0  0  0  0  0
  -26.4858  -22.0906   22.9941 C   0  0  0  0  0  0  0  0  0  0  0  0
  -32.5068  -19.3093   25.1666 C   0  0  0  0  0  0  0  0  0  0  0  0
  -25.1123  -26.7154   21.7454 C   0  0  1  0  0  0  0  0  0  0  0  0
  -24.4084  -22.9959   21.9436 C   0  0  2  0  0  0  0  0  0  0  0  0
  -23.8388  -27.6012   21.8511 C   0  0  0  0  0  0  0  0  0  0  0  0
  -25.8616  -11.5434   20.2888 N   0  0  0  0  0  0  0  0  0  0  0  0
  -26.2376  -12.8272   20.1595 N   0  0  0  0  0  0  0  0  0  0  0  0
  -31.7305  -20.5340   25.3074 N   0  0  0  0  0  0  0  0  0  0  0  0
  -27.4152  -26.9418   20.8682 N   0  0  0  0  0  0  0  0  0  0  0  0
  -29.9678  -13.6178   20.3689 N   0  0  0  0  0  0  0  0  0  0  0  0
  -25.4691  -15.0543   20.4044 N   0  0  0  0  0  0  0  0  0  0  0  0
  -21.8849  -12.5783   21.5959 N   0  0  0  0  0  0  0  0  0  0  0  0
  -30.0759  -15.6983   21.4745 N   0  0  0  0  0  0  0  0  0  0  0  0
  -27.8193  -29.7123   20.8719 N   0  0  0  0  0  0  0  0  0  0  0  0
  -24.8405  -25.3084   21.4722 N   0  0  0  0  0  0  0  0  0  0  0  0
  -25.0149  -21.9626   22.8298 N   0  3  0  0  0  0  0  0  0  0  0  0
  -32.8250  -21.5893   23.5516 O   0  0  0  0  0  0  0  0  0  0  0  0
  -22.6592  -14.7184   21.3145 O   0  0  0  0  0  0  0  0  0  0  0  0
  -30.0373  -29.0064   20.8021 O   0  0  0  0  0  0  0  0  0  0  0  0
  -25.5876  -27.7358   19.6575 O   0  0  0  0  0  0  0  0  0  0  0  0
  -24.7602  -24.6300   23.6882 O   0  0  0  0  0  0  0  0  0  0  0  0
  -31.8543  -14.9421   20.1911 O   0  0  0  0  0  0  0  0  0  0  0  0
  -21.6135   -7.0158   21.7053 O   0  0  0  0  0  0  0  0  0  0  0  0
  -31.7189  -23.9686   24.1378 O   0  0  0  0  0  0  0  0  0  1  0  0
  -16.9358   -7.5593   24.5737 F   0  0  0  0  0  0  0  0  0  0  0  0
  -21.2610   -5.6936   24.1074 F   0  0  0  0  0  0  0  0  0  0  0  0
  1  2  1  0  0  0  0
  1  5  2  0  0  0  0
  2  6  2  0  0  0  0
  3  8  2  0  0  0  0
  3 17  1  0  0  0  0
  4  9  1  0  0  0  0
  4 17  2  0  0  0  0
  5 19  1  0  0  0  0
  6 21  1  0  0  0  0
  7 10  2  0  0  0  0
  7 20  1  0  0  0  0
  8 27  1  0  0  0  0
  9 27  2  0  0  0  0
 10 28  1  0  0  0  0
 11 12  2  0  0  0  0
 11 29  1  0  0  0  0
 12 30  1  0  0  0  0
 13 22  1  0  0  0  0
 13 28  2  0  0  0  0
 14 23  1  0  0  0  0
 14 24  2  0  0  0  0
 15 25  1  0  0  0  0
 15 26  2  0  0  0  0
 16 30  2  0  0  0  0
 16 31  1  0  0  0  0
 17 32  1  0  0  0  0
 18 32  1  0  0  0  0
 18 33  2  0  0  0  0
 18 35  1  0  0  0  0
 19 21  2  0  0  0  0
 19 40  1  0  0  0  0
 20 22  2  0  0  0  0
 20 41  1  0  0  0  0
 21 52  1  0  0  0  0
 22 42  1  0  0  0  0
 23 25  2  0  0  0  0
 23 63  1  0  0  0  0
 24 26  1  0  0  0  0
 24 56  1  0  0  0  0
 25 57  1  0  0  0  0
 26 74  1  0  0  0  0
 27 84  1  0  0  0  0
 28 85  1  0  0  0  0
 29 31  2  0  0  0  0
 29 84  1  0  0  0  0
 30 86  1  0  0  0  0
 31 87  1  0  0  0  0
 32 67  2  0  0  0  0
 33 68  1  0  0  0  0
 33 72  1  0  0  0  0
 34 53  1  0  0  0  0
 34 69  1  0  0  0  0
 34 78  2  0  0  0  0
 35 73  1  0  0  0  0
 35 79  2  0  0  0  0
 36 54  1  0  0  0  0
 36 75  1  0  0  0  0
 36 80  2  0  0  0  0
 37 64  1  0  0  0  0
 37 70  1  0  0  0  0
 37 81  2  0  0  0  0
 38 65  1  0  0  0  0
 38 76  1  0  0  0  0
 38 82  2  0  0  0  0
 39 71  1  0  0  0  0
 39 74  1  0  0  0  0
 39 83  2  0  0  0  0
 40 43  1  0  0  0  0
 41 54  1  0  0  0  0
 42 70  1  0  0  0  0
 43 46  1  0  0  0  0
 44 47  1  0  0  0  0
 44 49  1  0  0  0  0
 45 48  1  0  0  0  0
 45 50  1  0  0  0  0
 46 52  1  0  0  0  0
 47 53  1  0  0  0  0
 48 55  1  0  0  0  0
 49 69  1  0  0  0  0
 50 71  1  0  0  0  0
 51 55  1  0  0  0  0
 51 71  1  0  0  0  0
 52 75  1  0  0  0  0
 53 85  1  0  0  0  0
 54 70  1  0  0  0  0
 55 68  1  0  0  0  0
 58 65  1  0  0  0  0
 59 66  1  0  0  0  0
 60 66  1  0  0  0  0
 61 66  1  0  0  0  0
 62 77  1  0  0  0  0
 63 69  1  0  0  0  0
 64 66  1  0  0  0  0
 64 76  1  0  0  0  0
 65 77  1  0  0  0  0
 67 68  1  0  0  0  0
M  CHG  1  77   1
M  ISO  4  39 100  53 101  74 100  85 101
M  END
> <Batch ID>
0039

> <Smiles>
CNC(C)C(=O)NC(C(=O)N1Cc2cc([101O:1][101CH:1]3CCCN(Cc4cc(C)c([100NH:0][100C:0](=O)N5CCCC(n6nc(-c7ccc(Oc8ccc(F)cc8F)cc7)c(C(N)=O)c6N)C5)cc4C)C3=O)ccc2CC1C(=O)NC1CCCc2ccccc21)C(C)(C)C

> <Shape>
0.249

> <Color>
0.191

> <Negative vol penalty>
0.000

$$$$

  -OEChem-04042322043D

 88 97  0     1  0  0  0  0  0999 V2000
  -16.5874  -28.9837   23.9663 C   0  0  0  0  0  0  0  0  0  0  0  0
  -17.0401  -28.4736   22.7547 C   0  0  0  0  0  0  0  0  0  0  0  0
  -26.1839  -13.6499   19.6714 C   0  0  0  0  0  0  0  0  0  0  0  0
  -24.2605  -13.9288   21.1067 C   0  0  0  0  0  0  0  0  0  0  0  0
  -17.4243  -29.7901   24.7348 C   0  0  0  0  0  0  0  0  0  0  0  0
  -18.3337  -28.7598   22.3170 C   0  0  0  0  0  0  0  0  0  0  0  0
  -25.9539  -28.7293   18.9505 C   0  0  0  0  0  0  0  0  0  0  0  0
  -25.7269  -12.3840   19.3049 C   0  0  0  0  0  0  0  0  0  0  0  0
  -23.8035  -12.6630   20.7401 C   0  0  0  0  0  0  0  0  0  0  0  0
  -27.2046  -29.1977   19.3505 C   0  0  0  0  0  0  0  0  0  0  0  0
  -24.4835   -9.4452   21.5241 C   0  0  0  0  0  0  0  0  0  0  0  0
  -24.0218   -8.6046   22.5369 C   0  0  0  0  0  0  0  0  0  0  0  0
  -26.7535  -28.4609   21.6028 C   0  0  0  0  0  0  0  0  0  0  0  0
  -29.2108  -25.4699   18.9011 C   0  0  0  0  0  0  0  0  0  0  0  0
  -21.8534   -8.5163   21.4751 C   0  0  0  0  0  0  0  0  0  0  0  0
  -25.4508  -14.4223   20.5723 C   0  0  0  0  0  0  0  0  0  0  0  0
  -27.1420  -16.0438   21.5813 C   0  0  0  0  0  0  0  0  0  0  0  0
  -18.7242  -30.0961   24.2996 C   0  0  0  0  0  0  0  0  0  0  0  0
  -25.0877  -28.1320   19.8775 C   0  0  0  0  0  0  0  0  0  0  0  0
  -19.2017  -29.5521   23.0899 C   0  0  0  0  0  0  0  0  0  0  0  0
  -25.4934  -27.9834   21.2115 C   0  0  0  0  0  0  0  0  0  0  0  0
  -30.4504  -25.2650   19.5069 C   0  0  0  0  0  0  0  0  0  0  0  0
  -30.7078  -24.0722   20.1825 C   0  0  0  0  0  0  0  0  0  0  0  0
  -29.7256  -23.0842   20.2523 C   0  0  0  0  0  0  0  0  0  0  0  0
  -28.4860  -23.2891   19.6464 C   0  0  0  0  0  0  0  0  0  0  0  0
  -24.5366  -11.8906   19.8392 C   0  0  0  0  0  0  0  0  0  0  0  0
  -27.6035  -29.0662   20.6775 C   0  0  0  0  0  0  0  0  0  0  0  0
  -23.6301   -9.8215   20.4868 C   0  0  0  0  0  0  0  0  0  0  0  0
  -22.7068   -8.1401   22.5124 C   0  0  0  0  0  0  0  0  0  0  0  0
  -28.2286  -24.4820   18.9709 C   0  0  0  0  0  0  0  0  0  0  0  0
  -22.3151   -9.3570   20.4623 C   0  0  0  0  0  0  0  0  0  0  0  0
  -25.9227  -15.7298   20.9517 C   0  0  0  0  0  0  0  0  0  0  0  0
  -27.1133  -17.4096   21.7235 C   0  0  0  0  0  0  0  0  0  0  0  0
  -32.6904  -28.1059   20.5708 C   0  0  0  0  0  0  0  0  0  0  0  0
  -33.8828  -27.8536   21.1315 C   0  0  0  0  0  0  0  0  0  0  0  0
  -28.2057  -15.1783   22.0000 C   0  0  0  0  0  0  0  0  0  0  0  0
  -22.1911  -28.8070   20.9992 C   0  0  0  0  0  0  0  0  0  0  0  0
  -22.5194  -25.9365   22.4739 C   0  0  0  0  0  0  0  0  0  0  0  0
  -25.1318  -24.1488   24.2051 C   0  0  0  0  0  0  0  0  0  0  0  0
  -26.0952  -22.4969   19.7021 C   0  0  0  0  0  0  0  0  0  0  0  0
  -19.5904  -30.9674   25.1747 C   0  0  0  0  0  0  0  0  0  0  0  0
  -23.7526  -27.6078   19.4245 C   0  0  0  0  0  0  0  0  0  0  0  0
  -24.6088  -27.3312   22.2414 C   0  0  0  0  0  0  0  0  0  0  0  0
  -32.3779  -29.3892   19.8503 C   0  0  0  0  0  0  0  0  0  0  0  0
  -20.7719  -31.5747   24.4254 C   0  0  0  0  0  0  0  0  0  0  0  0
  -31.0836  -29.9937   20.3810 C   0  0  0  0  0  0  0  0  0  0  0  0
  -23.3331  -20.7110   21.0653 C   0  0  0  0  0  0  0  0  0  0  0  0
  -21.5055  -30.4926   23.6473 C   0  0  0  0  0  0  0  0  0  0  0  0
  -23.8609  -19.2817   21.2090 C   0  0  0  0  0  0  0  0  0  0  0  0
  -23.8725  -21.3909   19.8081 C   0  0  0  0  0  0  0  0  0  0  0  0
  -25.8618  -19.9378   19.8116 C   0  0  0  0  0  0  0  0  0  0  0  0
  -30.3891  -27.7233   21.2340 C   0  0  0  0  0  0  0  0  0  0  0  0
  -20.5942  -29.8751   22.5790 C   0  0  1  0  0  0  0  0  0  0  0  0
  -22.7437  -27.4800   20.5616 C   0  0  1  0  0  0  0  0  0  0  0  0
  -25.3974  -19.2344   21.0974 C   0  0  2  0  0  0  0  0  0  0  0  0
  -29.9650  -28.9534   20.4357 C   0  0  1  0  0  0  0  0  0  1  0  0
  -32.0372  -23.8553   20.8335 C   0  0  0  0  0  0  0  0  0  0  0  0
  -30.0030  -21.8047   20.9786 C   0  0  0  0  0  0  0  0  0  0  0  0
  -25.4989  -21.6848   24.5068 C   0  0  0  0  0  0  0  0  0  0  0  0
  -21.0116  -26.3271   25.0976 C   0  0  0  0  0  0  0  0  0  0  0  0
  -22.5836  -24.6956   26.1632 C   0  0  0  0  0  0  0  0  0  0  0  0
  -21.1069  -23.9616   24.2914 C   0  0  0  0  0  0  0  0  0  0  0  0
  -27.8616  -24.2991   23.0719 C   0  0  0  0  0  0  0  0  0  0  0  0
  -31.4888  -26.3443   19.4179 C   0  0  0  0  0  0  0  0  0  0  0  0
  -23.0733  -25.4727   23.7994 C   0  0  1  0  0  0  0  0  0  0  0  0
  -25.8769  -22.9229   23.7087 C   0  0  2  0  0  0  0  0  0  0  0  0
  -21.9538  -25.1376   24.8250 C   0  0  0  0  0  0  0  0  0  0  0  0
  -25.1738  -16.8092   20.7108 N   0  0  0  0  0  0  0  0  0  0  0  0
  -25.9245  -17.8148   21.1915 N   0  0  0  0  0  0  0  0  0  0  0  0
  -23.3104  -26.8404   21.7508 N   0  0  0  0  0  0  0  0  0  0  0  0
  -25.3344  -21.3108   19.7726 N   0  0  0  0  0  0  0  0  0  0  0  0
  -27.9890  -18.2915   22.2505 N   0  0  0  0  0  0  0  0  0  0  0  0
  -28.1649  -14.6489   23.2970 N   0  0  0  0  0  0  0  0  0  0  0  0
  -27.4754  -22.2977   19.7071 N   0  0  0  0  0  0  0  0  0  0  0  0
  -21.2512  -28.7199   22.0084 N   0  0  0  0  0  0  0  0  0  0  0  0
  -23.9643  -24.3566   23.5014 N   0  0  0  0  0  0  0  0  0  0  0  0
  -31.6596  -27.1051   20.7036 N   0  3  1  0  0  0  0  0  0  0  0  0
  -27.3482  -23.1276   23.8276 N   0  3  0  0  0  0  0  0  0  0  0  0
  -29.1723  -14.8963   21.2519 O   0  0  0  0  0  0  0  0  0  0  0  0
  -22.5891  -29.8340   20.4620 O   0  0  0  0  0  0  0  0  0  0  0  0
  -21.4284  -25.5068   22.0908 O   0  0  0  0  0  0  0  0  0  0  0  0
  -25.5423  -24.8497   25.1274 O   0  0  0  0  0  0  0  0  0  0  0  0
  -25.5620  -23.6089   19.6691 O   0  0  0  0  0  0  0  0  0  0  0  0
  -24.0902  -10.6555   19.4817 O   0  0  0  0  0  0  0  0  0  0  0  0
  -28.8235  -29.5231   21.0707 O   0  0  0  0  0  0  0  0  0  1  0  0
  -22.2641   -7.3316   23.4842 F   0  0  0  0  0  0  0  0  0  0  0  0
  -27.0416  -24.6902   18.3832 F   0  0  0  0  0  0  0  0  0  0  0  0
  -21.4910   -9.7140   19.4678 F   0  0  0  0  0  0  0  0  0  0  0  0
  1  2  1  0  0  0  0
  1  5  2  0  0  0  0
  2  6  2  0  0  0  0
  3  8  2  0  0  0  0
  3 16  1  0  0  0  0
  4  9  1  0  0  0  0
  4 16  2  0  0  0  0
  5 18  1  0  0  0  0
  6 20  1  0  0  0  0
  7 10  2  0  0  0  0
  7 19  1  0  0  0  0
  8 26  1  0  0  0  0
  9 26  2  0  0  0  0
 10 27  1  0  0  0  0
 11 12  2  0  0  0  0
 11 28  1  0  0  0  0
 12 29  1  0  0  0  0
 13 21  1  0  0  0  0
 13 27  2  0  0  0  0
 14 22  1  0  0  0  0
 14 30  2  0  0  0  0
 15 29  2  0  0  0  0
 15 31  1  0  0  0  0
 16 32  1  0  0  0  0
 17 32  1  0  0  0  0
 17 33  2  0  0  0  0
 17 36  1  0  0  0  0
 18 20  2  0  0  0  0
 18 41  1  0  0  0  0
 19 21  2  0  0  0  0
 19 42  1  0  0  0  0
 20 53  1  0  0  0  0
 21 43  1  0  0  0  0
 22 23  2  0  0  0  0
 22 64  1  0  0  0  0
 23 24  1  0  0  0  0
 23 57  1  0  0  0  0
 24 25  2  0  0  0  0
 24 58  1  0  0  0  0
 25 30  1  0  0  0  0
 25 74  1  0  0  0  0
 26 84  1  0  0  0  0
 27 85  1  0  0  0  0
 28 31  2  0  0  0  0
 28 84  1  0  0  0  0
 29 86  1  0  0  0  0
 30 87  1  0  0  0  0
 31 88  1  0  0  0  0
 32 68  2  0  0  0  0
 33 69  1  0  0  0  0
 33 72  1  0  0  0  0
 34 35  2  0  0  0  0
 34 44  1  0  0  0  0
 34 77  1  0  0  0  0
 36 73  1  0  0  0  0
 36 79  2  0  0  0  0
 37 54  1  0  0  0  0
 37 75  1  0  0  0  0
 37 80  2  0  0  0  0
 38 65  1  0  0  0  0
 38 70  1  0  0  0  0
 38 81  2  0  0  0  0
 39 66  1  0  0  0  0
 39 76  1  0  0  0  0
 39 82  2  0  0  0  0
 40 71  1  0  0  0  0
 40 74  1  0  0  0  0
 40 83  2  0  0  0  0
 41 45  1  0  0  0  0
 42 54  1  0  0  0  0
 43 70  1  0  0  0  0
 44 46  1  0  0  0  0
 45 48  1  0  0  0  0
 46 56  1  0  0  0  0
 47 49  1  0  0  0  0
 47 50  1  0  0  0  0
 48 53  1  0  0  0  0
 49 55  1  0  0  0  0
 50 71  1  0  0  0  0
 51 55  1  0  0  0  0
 51 71  1  0  0  0  0
 52 56  1  0  0  0  0
 52 77  1  0  0  0  0
 53 75  1  0  0  0  0
 54 70  1  0  0  0  0
 55 69  1  0  0  0  0
 56 85  1  0  0  0  0
 59 66  1  0  0  0  0
 60 67  1  0  0  0  0
 61 67  1  0  0  0  0
 62 67  1  0  0  0  0
 63 78  1  0  0  0  0
 64 77  1  0  0  0  0
 65 67  1  0  0  0  0
 65 76  1  0  0  0  0
 66 78  1  0  0  0  0
 68 69  1  0  0  0  0
M  CHG  2  77   1  78   1
M  ISO  4  40 100  56 101  74 100  85 101
M  END
> <Batch ID>
0039

> <Smiles>
C=C1CC[101CH:1]([101O:1]c2ccc3c(c2)CN(C(=O)C(NC(=O)C(C)NC)C(C)(C)C)C(C(=O)NC2CCCc4ccccc42)C3)CN1Cc1cc(F)c([100NH:0][100C:0](=O)N2CCCC(n3nc(-c4ccc(Oc5ccc(F)cc5F)cc4)c(C(N)=O)c3N)C2)c(C)c1C

> <Shape>
0.248

> <Color>
0.073

> <Negative vol penalty>
0.000

$$$$

  -OEChem-04042322043D

 93101  0     1  0  0  0  0  0999 V2000
  -18.6681  -23.0907   28.6022 C   0  0  0  0  0  0  0  0  0  0  0  0
  -19.8657  -22.3848   28.5470 C   0  0  0  0  0  0  0  0  0  0  0  0
  -23.1899   -9.8196   19.9313 C   0  0  0  0  0  0  0  0  0  0  0  0
  -23.5685   -9.9996   22.3107 C   0  0  0  0  0  0  0  0  0  0  0  0
  -17.7654  -22.8498   29.6370 C   0  0  0  0  0  0  0  0  0  0  0  0
  -20.1617  -21.4384   29.5274 C   0  0  0  0  0  0  0  0  0  0  0  0
  -22.0128  -17.1434   27.5855 C   0  0  0  0  0  0  0  0  0  0  0  0
  -22.4238   -8.6728   20.1400 C   0  0  0  0  0  0  0  0  0  0  0  0
  -22.8024   -8.8528   22.5193 C   0  0  0  0  0  0  0  0  0  0  0  0
  -23.3510  -17.1462   27.1945 C   0  0  0  0  0  0  0  0  0  0  0  0
  -21.2455   -5.7685   23.6478 C   0  0  0  0  0  0  0  0  0  0  0  0
  -21.7421   -4.8086   24.5295 C   0  0  0  0  0  0  0  0  0  0  0  0
  -23.9485  -16.0388   29.2526 C   0  0  0  0  0  0  0  0  0  0  0  0
  -32.8229  -11.8311   26.3241 C   0  0  0  0  0  0  0  0  0  0  0  0
  -32.6558  -12.1095   23.9300 C   0  0  0  0  0  0  0  0  0  0  0  0
  -23.7006   -4.5451   23.1395 C   0  0  0  0  0  0  0  0  0  0  0  0
  -23.7623  -10.4830   21.0167 C   0  0  0  0  0  0  0  0  0  0  0  0
  -30.7266  -12.5047   25.3297 C   0  0  0  0  0  0  0  0  0  0  0  0
  -24.1007  -12.9997   20.7734 C   0  0  0  0  0  0  0  0  0  0  0  0
  -18.0461  -21.8931   30.6252 C   0  0  0  0  0  0  0  0  0  0  0  0
  -21.6331  -16.5971   28.8199 C   0  0  0  0  0  0  0  0  0  0  0  0
  -19.2624  -21.1855   30.5772 C   0  0  0  0  0  0  0  0  0  0  0  0
  -22.6044  -16.0279   29.6558 C   0  0  0  0  0  0  0  0  0  0  0  0
  -31.4811  -12.1874   26.4592 C   0  0  0  0  0  0  0  0  0  0  0  0
  -31.3140  -12.4658   24.0651 C   0  0  0  0  0  0  0  0  0  0  0  0
  -22.2300   -8.1894   21.4339 C   0  0  0  0  0  0  0  0  0  0  0  0
  -24.3195  -16.5965   28.0293 C   0  0  0  0  0  0  0  0  0  0  0  0
  -21.9763   -6.1168   22.5119 C   0  0  0  0  0  0  0  0  0  0  0  0
  -22.9696   -4.1969   24.2754 C   0  0  0  0  0  0  0  0  0  0  0  0
  -23.2039   -5.5051   22.2578 C   0  0  0  0  0  0  0  0  0  0  0  0
  -33.4103  -11.7922   25.0595 C   0  0  0  0  0  0  0  0  0  0  0  0
  -24.5543  -11.6673   20.8018 C   0  0  0  0  0  0  0  0  0  0  0  0
  -25.2318  -13.7426   20.5381 C   0  0  0  0  0  0  0  0  0  0  0  0
  -26.1520  -10.8085   29.8375 C   0  0  0  0  0  0  0  0  0  0  0  0
  -29.3094  -12.8808   25.4793 C   0  0  0  0  0  0  0  0  0  0  0  0
  -28.8729  -14.1351   25.6863 C   0  0  0  0  0  0  0  0  0  0  0  0
  -26.1569  -12.1242   30.0785 C   0  0  0  0  0  0  0  0  0  0  0  0
  -27.2201  -15.8660   26.0524 C   0  0  0  0  0  0  0  0  0  0  0  0
  -22.7754  -13.5194   20.9446 C   0  0  0  0  0  0  0  0  0  0  0  0
  -27.4777  -14.5564   25.8514 C   0  0  0  0  0  0  0  0  0  0  0  0
  -20.2641  -17.7381   31.4519 C   0  0  0  0  0  0  0  0  0  0  0  0
  -20.2731  -14.6183   32.3402 C   0  0  0  0  0  0  0  0  0  0  0  0
  -29.8135  -14.0574   29.1186 C   0  0  0  0  0  0  0  0  0  0  0  0
  -21.6524  -11.5147   32.0057 C   0  0  0  0  0  0  0  0  0  0  0  0
  -31.0365  -12.7824   21.5814 C   0  0  0  0  0  0  0  0  0  0  0  0
  -17.0606  -21.7012   31.7506 C   0  0  0  0  0  0  0  0  0  0  0  0
  -20.1820  -16.5777   29.2152 C   0  0  0  0  0  0  0  0  0  0  0  0
  -22.2462  -15.4107   30.9821 C   0  0  0  0  0  0  0  0  0  0  0  0
  -17.2819  -20.4142   32.5412 C   0  0  0  0  0  0  0  0  0  0  0  0
  -29.5234  -13.4645   18.4313 C   0  0  0  0  0  0  0  0  0  0  0  0
  -18.7592  -20.2435   32.8805 C   0  0  0  0  0  0  0  0  0  0  0  0
  -28.0354  -13.2082   18.6808 C   0  0  0  0  0  0  0  0  0  0  0  0
  -30.4048  -12.4794   19.1972 C   0  0  0  0  0  0  0  0  0  0  0  0
  -28.6453  -12.1374   20.8873 C   0  0  0  0  0  0  0  0  0  0  0  0
  -19.6082  -20.1332   31.6083 C   0  0  1  0  0  0  0  0  0  0  0  0
  -19.9747  -16.4571   30.7218 C   0  0  1  0  0  0  0  0  0  0  0  0
  -27.7192  -13.1459   20.1880 C   0  0  2  0  0  0  0  0  0  0  0  0
  -26.4153  -13.4907   25.7808 C   0  0  0  0  0  0  0  0  0  0  0  0
  -29.7932  -15.5020   29.4494 C   0  0  0  0  0  0  0  0  0  0  0  0
  -21.4733   -9.1735   32.8913 C   0  0  0  0  0  0  0  0  0  0  0  0
  -21.6904  -15.4811   34.9009 C   0  0  0  0  0  0  0  0  0  0  0  0
  -22.3207  -13.0873   35.2759 C   0  0  0  0  0  0  0  0  0  0  0  0
  -19.9160  -13.7486   35.2237 C   0  0  0  0  0  0  0  0  0  0  0  0
  -20.9910  -10.4302   29.3327 C   0  0  0  0  0  0  0  0  0  0  0  0
  -30.8888  -12.2167   27.8321 C   0  0  0  0  0  0  0  0  0  0  0  0
  -26.9479  -12.7736   31.1773 C   0  0  0  0  0  0  0  0  0  0  0  0
  -25.8970  -16.5375   26.2505 C   0  0  0  0  0  0  0  0  0  1  0  0
  -27.8964  -13.8476   30.6532 C   0  0  0  0  0  0  0  0  0  0  0  0
  -21.2399  -13.7173   33.0700 C   0  0  1  0  0  0  0  0  0  0  0  0
  -21.0215  -10.1473   31.8141 C   0  0  2  0  0  0  0  0  0  0  0  0
  -21.2991  -14.0219   34.5935 C   0  0  0  0  0  0  0  0  0  0  0  0
  -25.8708  -11.5665   20.6004 N   0  0  0  0  0  0  0  0  0  0  0  0
  -26.2542  -12.8449   20.4432 N   0  0  0  0  0  0  0  0  0  0  0  0
  -20.8149  -15.4217   31.3269 N   0  0  0  0  0  0  0  0  0  0  0  0
  -30.0513  -12.4776   20.6184 N   0  0  0  0  0  0  0  0  0  0  0  0
  -25.4415  -15.0695   20.4051 N   0  0  0  0  0  0  0  0  0  0  0  0
  -21.7289  -12.6170   21.1786 N   0  0  0  0  0  0  0  0  0  0  0  0
  -30.5759  -12.7819   22.8976 N   0  0  0  0  0  0  0  0  0  0  0  0
  -19.4940  -18.8081   31.0377 N   0  0  0  0  0  0  0  0  0  0  0  0
  -28.8866  -13.3069   29.7192 N   0  0  0  0  0  0  0  0  0  0  0  0
  -20.8454  -12.3500   32.7489 N   0  0  0  0  0  0  0  0  0  0  0  0
  -30.7359  -13.6073   28.2604 N   0  3  0  0  0  0  0  0  0  0  0  0
  -21.3961   -9.5855   30.4856 N   0  3  0  0  0  0  0  0  0  0  0  0
  -22.5241  -14.7464   20.8752 O   0  0  0  0  0  0  0  0  0  0  0  0
  -21.1214  -17.7542   32.3273 O   0  0  0  0  0  0  0  0  0  0  0  0
  -19.0799  -14.6044   32.6528 O   0  0  0  0  0  0  0  0  0  0  0  0
  -22.7529  -11.8109   31.5456 O   0  0  0  0  0  0  0  0  0  0  0  0
  -32.1965  -13.0527   21.2599 O   0  0  0  0  0  0  0  0  0  0  0  0
  -21.4823   -7.0705   21.6379 O   0  0  0  0  0  0  0  0  0  0  0  0
  -25.6265  -16.5985   27.6504 O   0  0  0  0  0  0  0  0  0  1  0  0
  -23.4472   -3.2762   25.1230 F   0  0  0  0  0  0  0  0  0  0  0  0
  -23.9111   -5.8363   21.1688 F   0  0  0  0  0  0  0  0  0  0  0  0
  -35.0661  -11.3524   24.8930 Cl  0  0  0  0  0  0  0  0  0  0  0  0
  1  2  1  0  0  0  0
  1  5  2  0  0  0  0
  2  6  2  0  0  0  0
  3  8  2  0  0  0  0
  3 17  1  0  0  0  0
  4  9  1  0  0  0  0
  4 17  2  0  0  0  0
  5 20  1  0  0  0  0
  6 22  1  0  0  0  0
  7 10  2  0  0  0  0
  7 21  1  0  0  0  0
  8 26  1  0  0  0  0
  9 26  2  0  0  0  0
 10 27  1  0  0  0  0
 11 12  2  0  0  0  0
 11 28  1  0  0  0  0
 12 29  1  0  0  0  0
 13 23  1  0  0  0  0
 13 27  2  0  0  0  0
 14 24  1  0  0  0  0
 14 31  2  0  0  0  0
 15 25  2  0  0  0  0
 15 31  1  0  0  0  0
 16 29  2  0  0  0  0
 16 30  1  0  0  0  0
 17 32  1  0  0  0  0
 18 24  2  0  0  0  0
 18 25  1  0  0  0  0
 18 35  1  0  0  0  0
 19 32  1  0  0  0  0
 19 33  2  0  0  0  0
 19 39  1  0  0  0  0
 20 22  2  0  0  0  0
 20 46  1  0  0  0  0
 21 23  2  0  0  0  0
 21 47  1  0  0  0  0
 22 55  1  0  0  0  0
 23 48  1  0  0  0  0
 24 65  1  0  0  0  0
 25 78  1  0  0  0  0
 26 89  1  0  0  0  0
 27 90  1  0  0  0  0
 28 30  2  0  0  0  0
 28 89  1  0  0  0  0
 29 91  1  0  0  0  0
 30 92  1  0  0  0  0
 31 93  1  0  0  0  0
 32 72  2  0  0  0  0
 33 73  1  0  0  0  0
 33 76  1  0  0  0  0
 34 37  2  0  0  0  0
 35 36  2  0  0  0  0
 36 40  1  0  0  0  0
 37 66  1  0  0  0  0
 38 40  2  0  0  0  0
 38 67  1  0  0  0  0
 39 77  1  0  0  0  0
 39 84  2  0  0  0  0
 40 58  1  0  0  0  0
 41 56  1  0  0  0  0
 41 79  1  0  0  0  0
 41 85  2  0  0  0  0
 42 69  1  0  0  0  0
 42 74  1  0  0  0  0
 42 86  2  0  0  0  0
 43 59  1  0  0  0  0
 43 80  1  0  0  0  0
 43 82  2  0  0  0  0
 44 70  1  0  0  0  0
 44 81  1  0  0  0  0
 44 87  2  0  0  0  0
 45 75  1  0  0  0  0
 45 78  1  0  0  0  0
 45 88  2  0  0  0  0
 46 49  1  0  0  0  0
 47 56  1  0  0  0  0
 48 74  1  0  0  0  0
 49 51  1  0  0  0  0
 50 52  1  0  0  0  0
 50 53  1  0  0  0  0
 51 55  1  0  0  0  0
 52 57  1  0  0  0  0
 53 75  1  0  0  0  0
 54 57  1  0  0  0  0
 54 75  1  0  0  0  0
 55 79  1  0  0  0  0
 56 74  1  0  0  0  0
 57 73  1  0  0  0  0
 60 70  1  0  0  0  0
 61 71  1  0  0  0  0
 62 71  1  0  0  0  0
 63 71  1  0  0  0  0
 64 83  1  0  0  0  0
 65 82  1  0  0  0  0
 66 68  1  0  0  0  0
 67 90  1  0  0  0  0
 68 80  1  0  0  0  0
 69 71  1  0  0  0  0
 69 81  1  0  0  0  0
 70 83  1  0  0  0  0
 72 73  1  0  0  0  0
M  CHG  2  82   1  83   1
M  ISO  4  45 100  67 101  78 100  90 101
M  END
> <Batch ID>
0039

> <Smiles>
C=CCCN=C(C)NCc1cc(Cl)cc([100NH:0][100C:0](=O)N2CCCC(n3nc(-c4ccc(Oc5ccc(F)cc5F)cc4)c(C(N)=O)c3N)C2)c1C=CC(C)=C[101CH2:1][101O:1]c1ccc2c(c1)CN(C(=O)C(NC(=O)C(C)NC)C(C)(C)C)C(C(=O)NC1CCCc3ccccc31)C2

> <Shape>
0.134

> <Color>
0.171

> <Negative vol penalty>
0.000

$$$$

  -OEChem-04042322043D

 93102  0     1  0  0  0  0  0999 V2000
  -34.9450  -21.4832   16.0049 C   0  0  0  0  0  0  0  0  0  0  0  0
  -16.6781  -27.1531   25.2966 C   0  0  0  0  0  0  0  0  0  0  0  0
  -17.8064  -26.8045   26.0304 C   0  0  0  0  0  0  0  0  0  0  0  0
  -26.6571  -13.7606   18.5312 C   0  0  0  0  0  0  0  0  0  0  0  0
  -25.6078  -14.4143   20.6070 C   0  0  0  0  0  0  0  0  0  0  0  0
  -16.7744  -27.3269   23.9176 C   0  0  0  0  0  0  0  0  0  0  0  0
  -19.0338  -26.6414   25.3871 C   0  0  0  0  0  0  0  0  0  0  0  0
  -26.7913  -25.0683   24.6328 C   0  0  0  0  0  0  0  0  0  0  0  0
  -25.7295  -12.7288   18.3872 C   0  0  0  0  0  0  0  0  0  0  0  0
  -24.6802  -13.3826   20.4630 C   0  0  0  0  0  0  0  0  0  0  0  0
  -27.7694  -24.7129   23.7050 C   0  0  0  0  0  0  0  0  0  0  0  0
  -24.5795  -10.0377   20.9451 C   0  0  0  0  0  0  0  0  0  0  0  0
  -24.3011   -9.2554   22.0658 C   0  0  0  0  0  0  0  0  0  0  0  0
  -27.1785  -26.6253   22.3586 C   0  0  0  0  0  0  0  0  0  0  0  0
  -31.6860  -23.6659   17.5730 C   0  0  0  0  0  0  0  0  0  0  0  0
  -21.9793   -9.9131   21.9482 C   0  0  0  0  0  0  0  0  0  0  0  0
  -33.8384  -22.2244   16.5377 C   0  0  0  0  0  0  0  0  0  0  0  0
  -26.5963  -14.6033   19.6411 C   0  0  0  0  0  0  0  0  0  0  0  0
  -28.9539  -15.5469   19.8841 C   0  0  0  0  0  0  0  0  0  0  0  0
  -18.0014  -27.1535   23.2562 C   0  0  0  0  0  0  0  0  0  0  0  0
  -25.9908  -26.2006   24.4247 C   0  0  0  0  0  0  0  0  0  0  0  0
  -19.1565  -26.8359   23.9994 C   0  0  0  0  0  0  0  0  0  0  0  0
  -26.1927  -26.9944   23.2866 C   0  0  0  0  0  0  0  0  0  0  0  0
  -32.8224  -24.3371   17.1217 C   0  0  0  0  0  0  0  0  0  0  0  0
  -33.8985  -23.6164   16.6040 C   0  0  0  0  0  0  0  0  0  0  0  0
  -32.7020  -21.5531   16.9891 C   0  0  0  0  0  0  0  0  0  0  0  0
  -31.6258  -22.2739   17.5067 C   0  0  0  0  0  0  0  0  0  0  0  0
  -24.7411  -12.5398   19.3531 C   0  0  0  0  0  0  0  0  0  0  0  0
  -27.9612  -25.4898   22.5663 C   0  0  0  0  0  0  0  0  0  0  0  0
  -23.5578  -10.7577   20.3259 C   0  0  0  0  0  0  0  0  0  0  0  0
  -23.0011   -9.1930   22.5674 C   0  0  0  0  0  0  0  0  0  0  0  0
  -22.2577  -10.6954   20.8274 C   0  0  0  0  0  0  0  0  0  0  0  0
  -27.5545  -15.6689   19.7907 C   0  0  0  0  0  0  0  0  0  0  0  0
  -29.4033  -16.8383   20.0131 C   0  0  0  0  0  0  0  0  0  0  0  0
  -31.7875  -26.6020   19.9209 C   0  0  0  0  0  0  0  0  0  0  0  0
  -33.1483  -26.1608   19.6267 C   0  0  0  0  0  0  0  0  0  0  0  0
  -30.9265  -25.8138   20.5907 C   0  0  0  0  0  0  0  0  0  0  0  0
  -33.9382  -25.6010   20.5624 C   0  0  0  0  0  0  0  0  0  0  0  0
  -29.7741  -14.3712   19.8567 C   0  0  0  0  0  0  0  0  0  0  0  0
  -22.8773  -26.7048   24.0298 C   0  0  0  0  0  0  0  0  0  0  0  0
  -23.7644  -29.8229   24.1415 C   0  0  0  0  0  0  0  0  0  0  0  0
  -26.4519  -31.8446   22.8346 C   0  0  0  0  0  0  0  0  0  0  0  0
  -29.3163  -22.1989   18.5101 C   0  0  0  0  0  0  0  0  0  0  0  0
  -18.0506  -27.3618   21.7631 C   0  0  0  0  0  0  0  0  0  0  0  0
  -24.9581  -26.5855   25.4483 C   0  0  0  0  0  0  0  0  0  0  0  0
  -25.3734  -28.2311   23.0267 C   0  0  0  0  0  0  0  0  0  0  0  0
  -31.3294  -27.9658   19.4606 C   0  0  0  0  0  0  0  0  0  0  0  0
  -19.2826  -26.7374   21.1160 C   0  0  0  0  0  0  0  0  0  0  0  0
  -32.4184  -29.0271   19.2974 C   0  0  0  0  0  0  0  0  0  0  0  0
  -26.8717  -21.1368   20.8708 C   0  0  0  0  0  0  0  0  0  0  0  0
  -33.2714  -28.8336   18.0453 C   0  0  0  0  0  0  0  0  0  0  0  0
  -20.5342  -27.1491   21.8766 C   0  0  0  0  0  0  0  0  0  0  0  0
  -26.9465  -19.6095   20.8079 C   0  0  0  0  0  0  0  0  0  0  0  0
  -27.0758  -21.7717   19.4964 C   0  0  0  0  0  0  0  0  0  0  0  0
  -28.3658  -19.8188   18.7274 C   0  0  0  0  0  0  0  0  0  0  0  0
  -34.3068  -27.7203   18.1324 C   0  0  0  0  0  0  0  0  0  0  0  0
  -20.4957  -26.6232   23.3171 C   0  0  1  0  0  0  0  0  0  0  0  0
  -23.8529  -27.4696   24.8789 C   0  0  1  0  0  0  0  0  0  0  0  0
  -28.2307  -19.1370   20.0987 C   0  0  2  0  0  0  0  0  0  0  0  0
  -35.1119  -24.3523   16.1241 C   0  0  0  0  0  0  0  0  0  0  0  0
  -32.6269  -20.0574   16.9230 C   0  0  0  0  0  0  0  0  0  0  0  0
  -35.3277  -25.1395   20.3023 C   0  0  0  0  0  0  0  0  0  0  0  0
  -27.4553  -33.9780   23.6943 C   0  0  0  0  0  0  0  0  0  0  0  0
  -21.7910  -31.1749   22.2474 C   0  0  0  0  0  0  0  0  0  0  0  0
  -23.5637  -32.8609   21.7156 C   0  0  0  0  0  0  0  0  0  0  0  0
  -22.6952  -32.6595   24.0454 C   0  0  0  0  0  0  0  0  0  0  0  0
  -29.1730  -30.6818   22.8813 C   0  0  0  0  0  0  0  0  0  0  0  0
  -32.8602  -25.8346   17.2064 C   0  0  0  0  0  0  0  0  0  0  0  0
  -29.5245  -26.2044   20.9227 C   0  0  0  0  0  0  0  0  0  1  0  0
  -24.1982  -30.8482   23.1219 C   0  0  1  0  0  0  0  0  0  0  0  0
  -27.5898  -32.4648   23.6252 C   0  0  2  0  0  0  0  0  0  0  0  0
  -23.0669  -31.8581   22.7787 C   0  0  0  0  0  0  0  0  0  0  0  0
  -35.8403  -20.8837   15.5740 N   0  0  0  0  0  0  0  0  0  0  0  0
  -27.1421  -16.9377   19.8550 N   0  0  0  0  0  0  0  0  0  0  0  0
  -28.2892  -17.6247   19.9903 N   0  0  0  0  0  0  0  0  0  0  0  0
  -24.3719  -28.5623   24.0538 N   0  0  0  0  0  0  0  0  0  0  0  0
  -28.3136  -21.2806   18.8868 N   0  0  0  0  0  0  0  0  0  0  0  0
  -30.6388  -17.3666   20.1427 N   0  0  0  0  0  0  0  0  0  0  0  0
  -29.1499  -13.1241   19.7181 N   0  0  0  0  0  0  0  0  0  0  0  0
  -30.4614  -21.6134   17.9712 N   0  0  0  0  0  0  0  0  0  0  0  0
  -21.5900  -27.2060   24.0619 N   0  0  0  0  0  0  0  0  0  0  0  0
  -25.4089  -31.4651   23.6529 N   0  0  0  0  0  0  0  0  0  0  0  0
  -33.7372  -26.3396   18.3177 N   0  3  2  0  0  0  0  0  0  0  0  0
  -28.8988  -32.1377   22.9922 N   0  3  0  0  0  0  0  0  0  0  0  0
  -31.0224  -14.4239   19.9688 O   0  0  0  0  0  0  0  0  0  0  0  0
  -23.2642  -25.7328   23.3916 O   0  0  0  0  0  0  0  0  0  0  0  0
  -22.9230  -30.1314   24.9892 O   0  0  0  0  0  0  0  0  0  0  0  0
  -26.4833  -31.7136   21.6130 O   0  0  0  0  0  0  0  0  0  0  0  0
  -29.1810  -23.4134   18.6800 O   0  0  0  0  0  0  0  0  0  0  0  0
  -23.8356  -11.5333   19.2128 O   0  0  0  0  0  0  0  0  0  0  0  0
  -28.9147  -25.1448   21.6588 O   0  0  0  0  0  0  0  0  0  1  0  0
  -22.7336   -8.4406   23.6427 F   0  0  0  0  0  0  0  0  0  0  0  0
  -21.2718  -11.3840   20.2362 F   0  0  0  0  0  0  0  0  0  0  0  0
  1 17  1  0  0  0  0
  1 73  3  0  0  0  0
  2  3  1  0  0  0  0
  2  6  2  0  0  0  0
  3  7  2  0  0  0  0
  4  9  2  0  0  0  0
  4 18  1  0  0  0  0
  5 10  1  0  0  0  0
  5 18  2  0  0  0  0
  6 20  1  0  0  0  0
  7 22  1  0  0  0  0
  8 11  2  0  0  0  0
  8 21  1  0  0  0  0
  9 28  1  0  0  0  0
 10 28  2  0  0  0  0
 11 29  1  0  0  0  0
 12 13  2  0  0  0  0
 12 30  1  0  0  0  0
 13 31  1  0  0  0  0
 14 23  1  0  0  0  0
 14 29  2  0  0  0  0
 15 24  1  0  0  0  0
 15 27  2  0  0  0  0
 16 31  2  0  0  0  0
 16 32  1  0  0  0  0
 17 25  1  0  0  0  0
 17 26  2  0  0  0  0
 18 33  1  0  0  0  0
 19 33  1  0  0  0  0
 19 34  2  0  0  0  0
 19 39  1  0  0  0  0
 20 22  2  0  0  0  0
 20 44  1  0  0  0  0
 21 23  2  0  0  0  0
 21 45  1  0  0  0  0
 22 57  1  0  0  0  0
 23 46  1  0  0  0  0
 24 25  2  0  0  0  0
 24 68  1  0  0  0  0
 25 60  1  0  0  0  0
 26 27  1  0  0  0  0
 26 61  1  0  0  0  0
 27 80  1  0  0  0  0
 28 90  1  0  0  0  0
 29 91  1  0  0  0  0
 30 32  2  0  0  0  0
 30 90  1  0  0  0  0
 31 92  1  0  0  0  0
 32 93  1  0  0  0  0
 33 74  2  0  0  0  0
 34 75  1  0  0  0  0
 34 78  1  0  0  0  0
 35 36  1  0  0  0  0
 35 37  2  0  0  0  0
 35 47  1  0  0  0  0
 36 38  2  0  0  0  0
 36 83  1  0  0  0  0
 37 69  1  0  0  0  0
 38 62  1  0  0  0  0
 39 79  1  0  0  0  0
 39 85  2  0  0  0  0
 40 58  1  0  0  0  0
 40 81  1  0  0  0  0
 40 86  2  0  0  0  0
 41 70  1  0  0  0  0
 41 76  1  0  0  0  0
 41 87  2  0  0  0  0
 42 71  1  0  0  0  0
 42 82  1  0  0  0  0
 42 88  2  0  0  0  0
 43 77  1  0  0  0  0
 43 80  1  0  0  0  0
 43 89  2  0  0  0  0
 44 48  1  0  0  0  0
 45 58  1  0  0  0  0
 46 76  1  0  0  0  0
 47 49  1  0  0  0  0
 48 52  1  0  0  0  0
 49 51  1  0  0  0  0
 50 53  1  0  0  0  0
 50 54  1  0  0  0  0
 51 56  1  0  0  0  0
 52 57  1  0  0  0  0
 53 59  1  0  0  0  0
 54 77  1  0  0  0  0
 55 59  1  0  0  0  0
 55 77  1  0  0  0  0
 56 83  1  0  0  0  0
 57 81  1  0  0  0  0
 58 76  1  0  0  0  0
 59 75  1  0  0  0  0
 63 71  1  0  0  0  0
 64 72  1  0  0  0  0
 65 72  1  0  0  0  0
 66 72  1  0  0  0  0
 67 84  1  0  0  0  0
 68 83  1  0  0  0  0
 69 91  1  0  0  0  0
 70 72  1  0  0  0  0
 70 82  1  0  0  0  0
 71 84  1  0  0  0  0
 74 75  1  0  0  0  0
M  CHG  2  83   1  84   1
M  ISO  4  43 100  69 101  80 100  91 101
M  END
> <Batch ID>
0039

> <Smiles>
CC=C1C(=C[101CH2:1][101O:1]c2ccc3c(c2)CN(C(=O)C(NC(=O)C(C)NC)C(C)(C)C)C(C(=O)NC2CCCc4ccccc42)C3)CCCCN1Cc1cc([100NH:0][100C:0](=O)N2CCCC(n3nc(-c4ccc(Oc5ccc(F)cc5F)cc4)c(C(N)=O)c3N)C2)c(C)c(C#N)c1C

> <Shape>
0.245

> <Color>
0.061

> <Negative vol penalty>
0.000

$$$$

  -OEChem-04042322043D

 87 96  0     1  0  0  0  0  0999 V2000
  -19.3702  -29.9295   19.8715 C   0  0  0  0  0  0  0  0  0  0  0  0
  -20.7460  -29.8165   20.0444 C   0  0  0  0  0  0  0  0  0  0  0  0
  -24.3776  -14.4200   20.7481 C   0  0  0  0  0  0  0  0  0  0  0  0
  -25.7838  -12.7756   19.6731 C   0  0  0  0  0  0  0  0  0  0  0  0
  -18.5067  -29.1318   20.6211 C   0  0  0  0  0  0  0  0  0  0  0  0
  -21.2590  -28.9065   20.9681 C   0  0  0  0  0  0  0  0  0  0  0  0
  -25.1664  -26.2633   19.1265 C   0  0  0  0  0  0  0  0  0  0  0  0
  -29.1382  -24.7883   15.9543 C   0  0  0  0  0  0  0  0  0  0  0  0
  -28.0611  -23.9337   15.7197 C   0  0  0  0  0  0  0  0  0  0  0  0
  -23.9013  -13.4420   21.6212 C   0  0  0  0  0  0  0  0  0  0  0  0
  -25.3076  -11.7976   20.5462 C   0  0  0  0  0  0  0  0  0  0  0  0
  -26.4038  -26.9040   19.0814 C   0  0  0  0  0  0  0  0  0  0  0  0
  -22.5425   -9.8790   20.8689 C   0  0  0  0  0  0  0  0  0  0  0  0
  -22.1834   -8.6452   20.3264 C   0  0  0  0  0  0  0  0  0  0  0  0
  -27.0617  -25.7628   21.1022 C   0  0  0  0  0  0  0  0  0  0  0  0
  -30.2915  -23.0147   17.1210 C   0  0  0  0  0  0  0  0  0  0  0  0
  -23.8335   -7.5548   21.7139 C   0  0  0  0  0  0  0  0  0  0  0  0
  -25.3188  -14.0868   19.7740 C   0  0  0  0  0  0  0  0  0  0  0  0
  -25.0572  -15.8674   17.9661 C   0  0  0  0  0  0  0  0  0  0  0  0
  -19.0097  -28.2047   21.5475 C   0  0  0  0  0  0  0  0  0  0  0  0
  -24.8627  -25.3743   20.1676 C   0  0  0  0  0  0  0  0  0  0  0  0
  -20.4014  -28.0966   21.7318 C   0  0  0  0  0  0  0  0  0  0  0  0
  -25.8207  -25.1101   21.1569 C   0  0  0  0  0  0  0  0  0  0  0  0
  -30.2534  -24.3288   16.6549 C   0  0  0  0  0  0  0  0  0  0  0  0
  -28.0992  -22.6195   16.1857 C   0  0  0  0  0  0  0  0  0  0  0  0
  -29.2144  -22.1600   16.8864 C   0  0  0  0  0  0  0  0  0  0  0  0
  -24.3664  -12.1308   21.5203 C   0  0  0  0  0  0  0  0  0  0  0  0
  -27.3506  -26.6561   20.0709 C   0  0  0  0  0  0  0  0  0  0  0  0
  -23.5472   -9.9507   21.8339 C   0  0  0  0  0  0  0  0  0  0  0  0
  -22.8289   -7.4831   20.7488 C   0  0  0  0  0  0  0  0  0  0  0  0
  -24.1927   -8.7886   22.2564 C   0  0  0  0  0  0  0  0  0  0  0  0
  -25.8107  -15.0965   18.8714 C   0  0  0  0  0  0  0  0  0  0  0  0
  -25.9823  -16.6730   17.3482 C   0  0  0  0  0  0  0  0  0  0  0  0
  -23.6471  -15.8564   17.7069 C   0  0  0  0  0  0  0  0  0  0  0  0
  -22.6824  -25.2873   22.4789 C   0  0  0  0  0  0  0  0  0  0  0  0
  -23.9453  -22.3500   23.0259 C   0  0  0  0  0  0  0  0  0  0  0  0
  -27.2364  -20.8743   23.1192 C   0  0  0  0  0  0  0  0  0  0  0  0
  -30.4106  -20.0426   17.5439 C   0  0  0  0  0  0  0  0  0  0  0  0
  -18.0357  -27.3977   22.3689 C   0  0  0  0  0  0  0  0  0  0  0  0
  -23.5334  -24.6707   20.1873 C   0  0  0  0  0  0  0  0  0  0  0  0
  -25.5516  -24.1488   22.2847 C   0  0  0  0  0  0  0  0  0  0  0  0
  -18.6714  -26.1926   23.0571 C   0  0  0  0  0  0  0  0  0  0  0  0
  -31.9317  -25.9977   21.2082 C   0  0  0  0  0  0  0  0  0  0  0  0
  -31.0417  -16.5404   17.4281 C   0  0  0  0  0  0  0  0  0  0  0  0
  -19.9792  -26.5922   23.7329 C   0  0  0  0  0  0  0  0  0  0  0  0
  -29.6751  -15.9160   17.7188 C   0  0  0  0  0  0  0  0  0  0  0  0
  -30.5651  -26.6788   21.1964 C   0  0  0  0  0  0  0  0  0  0  0  0
  -32.9113  -26.6390   20.2267 C   0  0  0  0  0  0  0  0  0  0  0  0
  -31.2666  -17.8156   18.2387 C   0  0  0  0  0  0  0  0  0  0  0  0
  -28.8389  -18.1991   18.4081 C   0  0  0  0  0  0  0  0  0  0  0  0
  -30.4118  -26.7721   18.6243 C   0  0  0  0  0  0  0  0  0  0  0  0
  -20.9970  -27.1035   22.7061 C   0  0  1  0  0  0  0  0  0  0  0  0
  -23.1393  -24.1768   21.5758 C   0  0  1  0  0  0  0  0  0  0  0  0
  -28.5402  -16.9477   17.5665 C   0  0  2  0  0  0  0  0  0  0  0  0
  -29.7194  -26.4485   19.9445 C   0  0  2  0  0  0  0  0  0  1  0  0
  -32.8825  -26.0915   18.7914 C   0  0  2  0  0  0  0  0  0  0  0  0
  -26.9307  -21.7266   15.9206 C   0  0  0  0  0  0  0  0  0  0  0  0
  -33.5697  -27.0648   17.8322 C   0  0  0  0  0  0  0  0  0  0  0  0
  -27.9789  -18.5146   22.6976 C   0  0  0  0  0  0  0  0  0  0  0  0
  -23.6900  -22.0363   26.0502 C   0  0  0  0  0  0  0  0  0  0  0  0
  -25.7447  -20.6064   26.0053 C   0  0  0  0  0  0  0  0  0  0  0  0
  -23.6979  -19.8848   24.7752 C   0  0  0  0  0  0  0  0  0  0  0  0
  -29.1678  -21.7295   21.0462 C   0  0  0  0  0  0  0  0  0  0  0  0
  -31.4116  -25.2488   16.9066 C   0  0  0  0  0  0  0  0  0  0  0  0
  -25.0684  -21.8110   23.8787 C   0  0  1  0  0  0  0  0  0  0  0  0
  -27.8283  -19.9085   22.1086 C   0  0  2  0  0  0  0  0  0  0  0  0
  -24.5508  -21.1111   25.1670 C   0  0  0  0  0  0  0  0  0  0  0  0
  -27.1141  -15.3861   18.8350 N   0  0  0  0  0  0  0  0  0  0  0  0
  -27.1868  -16.3480   17.8993 N   0  0  0  0  0  0  0  0  0  0  0  0
  -24.2349  -23.4906   22.2636 N   0  0  0  0  0  0  0  0  0  0  0  0
  -30.1541  -18.7476   18.0417 N   0  0  0  0  0  0  0  0  0  0  0  0
  -25.8747  -17.6205   16.3926 N   0  0  0  0  0  0  0  0  0  0  0  0
  -23.1564  -14.9937   16.7173 N   0  0  0  0  0  0  0  0  0  0  0  0
  -29.2722  -20.8283   17.3672 N   0  0  0  0  0  0  0  0  0  0  0  0
  -21.5985  -25.9954   21.9957 N   0  0  0  0  0  0  0  0  0  0  0  0
  -25.8640  -20.9506   23.0097 N   0  0  0  0  0  0  0  0  0  0  0  0
  -31.4776  -25.7402   18.3328 N   0  3  2  0  0  0  0  0  0  0  0  0
  -29.1713  -20.3797   21.6668 N   0  3  0  0  0  0  0  0  0  0  0  0
  -22.8480  -16.6018   18.3228 O   0  0  0  0  0  0  0  0  0  0  0  0
  -23.2687  -25.4861   23.5364 O   0  0  0  0  0  0  0  0  0  0  0  0
  -22.8535  -21.7758   23.0302 O   0  0  0  0  0  0  0  0  0  0  0  0
  -27.9225  -21.4959   23.9276 O   0  0  0  0  0  0  0  0  0  0  0  0
  -31.5531  -20.4170   17.2671 O   0  0  0  0  0  0  0  0  0  0  0  0
  -23.9020  -11.1763   22.3722 O   0  0  0  0  0  0  0  0  0  0  0  0
  -28.5589  -27.2806   20.0296 O   0  0  0  0  0  0  0  0  0  1  0  0
  -22.4829   -6.2982   20.2288 F   0  0  0  0  0  0  0  0  0  0  0  0
  -25.1578   -8.8510   23.1840 F   0  0  0  0  0  0  0  0  0  0  0  0
  1  2  1  0  0  0  0
  1  5  2  0  0  0  0
  2  6  2  0  0  0  0
  3 10  2  0  0  0  0
  3 18  1  0  0  0  0
  4 11  1  0  0  0  0
  4 18  2  0  0  0  0
  5 20  1  0  0  0  0
  6 22  1  0  0  0  0
  7 12  2  0  0  0  0
  7 21  1  0  0  0  0
  8  9  2  0  0  0  0
  8 24  1  0  0  0  0
  9 25  1  0  0  0  0
 10 27  1  0  0  0  0
 11 27  2  0  0  0  0
 12 28  1  0  0  0  0
 13 14  2  0  0  0  0
 13 29  1  0  0  0  0
 14 30  1  0  0  0  0
 15 23  1  0  0  0  0
 15 28  2  0  0  0  0
 16 24  2  0  0  0  0
 16 26  1  0  0  0  0
 17 30  2  0  0  0  0
 17 31  1  0  0  0  0
 18 32  1  0  0  0  0
 19 32  1  0  0  0  0
 19 33  2  0  0  0  0
 19 34  1  0  0  0  0
 20 22  2  0  0  0  0
 20 39  1  0  0  0  0
 21 23  2  0  0  0  0
 21 40  1  0  0  0  0
 22 52  1  0  0  0  0
 23 41  1  0  0  0  0
 24 64  1  0  0  0  0
 25 26  2  0  0  0  0
 25 57  1  0  0  0  0
 26 74  1  0  0  0  0
 27 84  1  0  0  0  0
 28 85  1  0  0  0  0
 29 31  2  0  0  0  0
 29 84  1  0  0  0  0
 30 86  1  0  0  0  0
 31 87  1  0  0  0  0
 32 68  2  0  0  0  0
 33 69  1  0  0  0  0
 33 72  1  0  0  0  0
 34 73  1  0  0  0  0
 34 79  2  0  0  0  0
 35 53  1  0  0  0  0
 35 75  1  0  0  0  0
 35 80  2  0  0  0  0
 36 65  1  0  0  0  0
 36 70  1  0  0  0  0
 36 81  2  0  0  0  0
 37 66  1  0  0  0  0
 37 76  1  0  0  0  0
 37 82  2  0  0  0  0
 38 71  1  0  0  0  0
 38 74  1  0  0  0  0
 38 83  2  0  0  0  0
 39 42  1  0  0  0  0
 40 53  1  0  0  0  0
 41 70  1  0  0  0  0
 42 45  1  0  0  0  0
 43 47  1  0  0  0  0
 43 48  1  0  0  0  0
 44 46  1  0  0  0  0
 44 49  1  0  0  0  0
 45 52  1  0  0  0  0
 46 54  1  0  0  0  0
 47 55  1  0  0  0  0
 48 56  1  0  0  0  0
 49 71  1  0  0  0  0
 50 54  1  0  0  0  0
 50 71  1  0  0  0  0
 51 55  1  0  0  0  0
 51 77  1  0  0  0  0
 52 75  1  0  0  0  0
 53 70  1  0  0  0  0
 54 69  1  0  0  0  0
 55 85  1  0  0  0  0
 56 58  1  0  0  0  0
 56 77  1  0  0  0  0
 59 66  1  0  0  0  0
 60 67  1  0  0  0  0
 61 67  1  0  0  0  0
 62 67  1  0  0  0  0
 63 78  1  0  0  0  0
 64 77  1  0  0  0  0
 65 67  1  0  0  0  0
 65 76  1  0  0  0  0
 66 78  1  0  0  0  0
 68 69  1  0  0  0  0
M  CHG  2  77   1  78   1
M  ISO  4  38 100  55 101  74 100  85 101
M  END
> <Batch ID>
0039

> <Smiles>
CNC(C)C(=O)NC(C(=O)N1Cc2cc([101O:1][101CH:1]3CCCC(C)N(Cc4ccc(C)c([100NH:0][100C:0](=O)N5CCCC(n6nc(-c7ccc(Oc8ccc(F)cc8F)cc7)c(C(N)=O)c6N)C5)c4)C3)ccc2CC1C(=O)NC1CCCc2ccccc21)C(C)(C)C

> <Shape>
0.203

> <Color>
0.056

> <Negative vol penalty>
0.000

$$$$

  -OEChem-04042322043D

 96105  0     1  0  0  0  0  0999 V2000
  -26.3992  -24.3685   19.4078 C   0  0  0  0  0  0  0  0  0  0  0  0
  -26.9013  -24.6139   20.6818 C   0  0  0  0  0  0  0  0  0  0  0  0
  -23.3769   -9.8859   19.8111 C   0  0  0  0  0  0  0  0  0  0  0  0
  -24.1137   -9.7753   22.1093 C   0  0  0  0  0  0  0  0  0  0  0  0
  -25.9759  -25.4307   18.6100 C   0  0  0  0  0  0  0  0  0  0  0  0
  -26.9813  -25.9219   21.1584 C   0  0  0  0  0  0  0  0  0  0  0  0
  -25.3343  -26.3562   25.9275 C   0  0  0  0  0  0  0  0  0  0  0  0
  -33.4632  -13.9462   25.3081 C   0  0  0  0  0  0  0  0  0  0  0  0
  -32.5027  -12.9386   25.3953 C   0  0  0  0  0  0  0  0  0  0  0  0
  -22.7821   -8.6311   19.9413 C   0  0  0  0  0  0  0  0  0  0  0  0
  -23.5188   -8.5204   22.2396 C   0  0  0  0  0  0  0  0  0  0  0  0
  -26.1988  -25.9421   26.9398 C   0  0  0  0  0  0  0  0  0  0  0  0
  -20.4122   -7.2749   22.7070 C   0  0  0  0  0  0  0  0  0  0  0  0
  -19.6580   -7.0330   23.8552 C   0  0  0  0  0  0  0  0  0  0  0  0
  -26.8231  -28.2380   27.3376 C   0  0  0  0  0  0  0  0  0  0  0  0
  -32.9049  -23.3928   27.1183 C   0  0  0  0  0  0  0  0  0  0  0  0
  -30.9020  -22.2532   27.8439 C   0  0  0  0  0  0  0  0  0  0  0  0
  -32.6417  -14.5396   23.1149 C   0  0  0  0  0  0  0  0  0  0  0  0
  -21.1277   -5.2053   24.4355 C   0  0  0  0  0  0  0  0  0  0  0  0
  -24.0428  -10.4581   20.8950 C   0  0  0  0  0  0  0  0  0  0  0  0
  -32.2912  -21.2777   26.1248 C   0  0  0  0  0  0  0  0  0  0  0  0
  -24.0656  -13.0063   21.0113 C   0  0  0  0  0  0  0  0  0  0  0  0
  -26.0419  -26.7516   19.0808 C   0  0  0  0  0  0  0  0  0  0  0  0
  -25.2157  -27.7157   25.6047 C   0  0  0  0  0  0  0  0  0  0  0  0
  -26.5598  -27.0029   20.3657 C   0  0  0  0  0  0  0  0  0  0  0  0
  -25.9545  -28.6670   26.3225 C   0  0  0  0  0  0  0  0  0  0  0  0
  -33.5327  -14.7468   24.1679 C   0  0  0  0  0  0  0  0  0  0  0  0
  -31.6117  -12.7314   24.3422 C   0  0  0  0  0  0  0  0  0  0  0  0
  -31.7742  -23.3381   27.9332 C   0  0  0  0  0  0  0  0  0  0  0  0
  -33.1634  -22.3626   26.2140 C   0  0  0  0  0  0  0  0  0  0  0  0
  -31.1605  -21.2230   26.9397 C   0  0  0  0  0  0  0  0  0  0  0  0
  -31.6812  -13.5319   23.2020 C   0  0  0  0  0  0  0  0  0  0  0  0
  -22.8529   -7.9483   21.1556 C   0  0  0  0  0  0  0  0  0  0  0  0
  -26.9456  -26.8827   27.6432 C   0  0  0  0  0  0  0  0  0  0  0  0
  -21.5241   -6.4820   22.4231 C   0  0  0  0  0  0  0  0  0  0  0  0
  -20.0158   -5.9982   24.7194 C   0  0  0  0  0  0  0  0  0  0  0  0
  -21.8819   -5.4472   23.2873 C   0  0  0  0  0  0  0  0  0  0  0  0
  -24.6580  -11.7541   20.7609 C   0  0  0  0  0  0  0  0  0  0  0  0
  -25.0575  -13.9162   20.7380 C   0  0  0  0  0  0  0  0  0  0  0  0
  -32.5620  -20.1994   25.1785 C   0  0  0  0  0  0  0  0  0  0  0  0
  -33.2689  -19.0845   25.4561 C   0  0  0  0  0  0  0  0  0  0  0  0
  -22.7374  -13.3191   21.4516 C   0  0  0  0  0  0  0  0  0  0  0  0
  -33.4746  -18.0419   24.4105 C   0  0  0  0  0  0  0  0  0  0  0  0
  -25.7841  -29.4632   23.0111 C   0  0  0  0  0  0  0  0  0  0  0  0
  -24.4413  -31.8247   24.7838 C   0  0  0  0  0  0  0  0  0  0  0  0
  -23.6829  -33.0512   27.8770 C   0  0  0  0  0  0  0  0  0  0  0  0
  -31.0236  -13.5843   20.7707 C   0  0  0  0  0  0  0  0  0  0  0  0
  -25.6166  -27.8711   18.1640 C   0  0  0  0  0  0  0  0  0  0  0  0
  -24.2588  -28.1485   24.5280 C   0  0  0  0  0  0  0  0  0  0  0  0
  -25.8482  -30.1403   26.0283 C   0  0  0  0  0  0  0  0  0  0  0  0
  -25.3856  -29.1957   18.8866 C   0  0  0  0  0  0  0  0  0  0  0  0
  -28.9570  -14.5017   18.0203 C   0  0  0  0  0  0  0  0  0  0  0  0
  -26.5350  -29.4879   19.8460 C   0  0  0  0  0  0  0  0  0  0  0  0
  -27.5650  -14.0206   18.4364 C   0  0  0  0  0  0  0  0  0  0  0  0
  -30.0510  -13.5418   18.4844 C   0  0  0  0  0  0  0  0  0  0  0  0
  -28.6348  -12.7374   20.3327 C   0  0  0  0  0  0  0  0  0  0  0  0
  -26.6394  -28.4058   20.9275 C   0  0  1  0  0  0  0  0  0  0  0  0
  -24.6016  -29.5125   23.9369 C   0  0  1  0  0  0  0  0  0  0  0  0
  -27.5051  -13.7050   19.9439 C   0  0  2  0  0  0  0  0  0  0  0  0
  -30.5937  -11.6441   24.4627 C   0  0  0  0  0  0  0  0  0  0  0  0
  -34.3862  -22.4580   25.3582 C   0  0  0  0  0  0  0  0  0  0  0  0
  -30.2008  -20.0779   26.8734 C   0  0  0  0  0  0  0  0  0  0  0  0
  -22.6171  -35.0216   29.0078 C   0  0  0  0  0  0  0  0  0  0  0  0
  -26.9347  -33.4918   24.2235 C   0  0  0  0  0  0  0  0  0  0  0  0
  -26.2598  -35.0050   26.1005 C   0  0  0  0  0  0  0  0  0  0  0  0
  -24.7829  -34.7608   24.1050 C   0  0  0  0  0  0  0  0  0  0  0  0
  -21.5981  -31.3576   29.1196 C   0  0  0  0  0  0  0  0  0  0  0  0
  -34.5668  -15.8313   24.0750 C   0  0  0  0  0  0  0  0  0  0  0  0
  -31.4958  -24.4464   28.9053 C   0  0  0  0  0  0  0  0  0  0  0  0
  -30.0566  -26.4183   29.4337 C   0  0  0  0  0  0  0  0  0  0  0  0
  -28.9504  -27.2808   28.8589 C   0  0  0  0  0  0  0  0  0  1  0  0
  -24.9580  -32.8558   25.7579 C   0  0  1  0  0  0  0  0  0  0  0  0
  -22.3979  -33.6257   28.4454 C   0  0  2  0  0  0  0  0  0  0  0  0
  -25.7375  -34.0005   25.0512 C   0  0  0  0  0  0  0  0  0  0  0  0
  -25.9278  -11.8554   20.3593 N   0  0  0  0  0  0  0  0  0  0  0  0
  -26.1414  -13.1823   20.3551 N   0  0  0  0  0  0  0  0  0  0  0  0
  -24.9037  -30.5132   24.9624 N   0  0  0  0  0  0  0  0  0  0  0  0
  -29.9341  -13.2928   19.9229 N   0  0  0  0  0  0  0  0  0  0  0  0
  -25.0995  -15.2645   20.7902 N   0  0  0  0  0  0  0  0  0  0  0  0
  -21.8454  -12.2638   21.6860 N   0  0  0  0  0  0  0  0  0  0  0  0
  -30.7845  -13.3374   22.1222 N   0  0  0  0  0  0  0  0  0  0  0  0
  -34.2226  -16.9780   24.8857 N   0  0  0  0  0  0  0  0  0  0  0  0
  -25.6250  -28.6041   21.9405 N   0  0  0  0  0  0  0  0  0  0  0  0
  -23.8029  -33.3057   26.5271 N   0  0  0  0  0  0  0  0  0  0  0  0
  -21.8800  -32.7548   29.5382 N   0  3  0  0  0  0  0  0  0  0  0  0
  -30.3960  -25.3463   28.4642 N   0  3  0  0  0  0  0  0  0  0  0  0
  -22.3481  -14.5001   21.6161 O   0  0  0  0  0  0  0  0  0  0  0  0
  -33.0207  -18.1472   23.2758 O   0  0  0  0  0  0  0  0  0  0  0  0
  -26.7673  -30.1546   23.2496 O   0  0  0  0  0  0  0  0  0  0  0  0
  -23.6509  -32.1689   23.9016 O   0  0  0  0  0  0  0  0  0  0  0  0
  -24.5004  -32.4411   28.5626 O   0  0  0  0  0  0  0  0  0  0  0  0
  -32.0806  -14.0465   20.3336 O   0  0  0  0  0  0  0  0  0  0  0  0
  -22.2724   -6.7239   21.2832 O   0  0  0  0  0  0  0  0  0  0  0  0
  -27.7906  -26.4811   28.6313 O   0  0  0  0  0  0  0  0  0  1  0  0
  -19.2923   -5.7670   25.8228 F   0  0  0  0  0  0  0  0  0  0  0  0
  -22.9498   -4.6829   23.0204 F   0  0  0  0  0  0  0  0  0  0  0  0
  1  2  1  0  0  0  0
  1  5  2  0  0  0  0
  2  6  2  0  0  0  0
  3 10  2  0  0  0  0
  3 20  1  0  0  0  0
  4 11  1  0  0  0  0
  4 20  2  0  0  0  0
  5 23  1  0  0  0  0
  6 25  1  0  0  0  0
  7 12  2  0  0  0  0
  7 24  1  0  0  0  0
  8  9  2  0  0  0  0
  8 27  1  0  0  0  0
  9 28  1  0  0  0  0
 10 33  1  0  0  0  0
 11 33  2  0  0  0  0
 12 34  1  0  0  0  0
 13 14  2  0  0  0  0
 13 35  1  0  0  0  0
 14 36  1  0  0  0  0
 15 26  1  0  0  0  0
 15 34  2  0  0  0  0
 16 29  1  0  0  0  0
 16 30  2  0  0  0  0
 17 29  2  0  0  0  0
 17 31  1  0  0  0  0
 18 27  2  0  0  0  0
 18 32  1  0  0  0  0
 19 36  2  0  0  0  0
 19 37  1  0  0  0  0
 20 38  1  0  0  0  0
 21 30  1  0  0  0  0
 21 31  2  0  0  0  0
 21 40  1  0  0  0  0
 22 38  1  0  0  0  0
 22 39  2  0  0  0  0
 22 42  1  0  0  0  0
 23 25  2  0  0  0  0
 23 48  1  0  0  0  0
 24 26  2  0  0  0  0
 24 49  1  0  0  0  0
 25 57  1  0  0  0  0
 26 50  1  0  0  0  0
 27 68  1  0  0  0  0
 28 32  2  0  0  0  0
 28 60  1  0  0  0  0
 29 69  1  0  0  0  0
 30 61  1  0  0  0  0
 31 62  1  0  0  0  0
 32 81  1  0  0  0  0
 33 93  1  0  0  0  0
 34 94  1  0  0  0  0
 35 37  2  0  0  0  0
 35 93  1  0  0  0  0
 36 95  1  0  0  0  0
 37 96  1  0  0  0  0
 38 75  2  0  0  0  0
 39 76  1  0  0  0  0
 39 79  1  0  0  0  0
 40 41  2  0  0  0  0
 41 43  1  0  0  0  0
 42 80  1  0  0  0  0
 42 87  2  0  0  0  0
 43 82  1  0  0  0  0
 43 88  2  0  0  0  0
 44 58  1  0  0  0  0
 44 83  1  0  0  0  0
 44 89  2  0  0  0  0
 45 72  1  0  0  0  0
 45 77  1  0  0  0  0
 45 90  2  0  0  0  0
 46 73  1  0  0  0  0
 46 84  1  0  0  0  0
 46 91  2  0  0  0  0
 47 78  1  0  0  0  0
 47 81  1  0  0  0  0
 47 92  2  0  0  0  0
 48 51  1  0  0  0  0
 49 58  1  0  0  0  0
 50 77  1  0  0  0  0
 51 53  1  0  0  0  0
 52 54  1  0  0  0  0
 52 55  1  0  0  0  0
 53 57  1  0  0  0  0
 54 59  1  0  0  0  0
 55 78  1  0  0  0  0
 56 59  1  0  0  0  0
 56 78  1  0  0  0  0
 57 83  1  0  0  0  0
 58 77  1  0  0  0  0
 59 76  1  0  0  0  0
 63 73  1  0  0  0  0
 64 74  1  0  0  0  0
 65 74  1  0  0  0  0
 66 74  1  0  0  0  0
 67 85  1  0  0  0  0
 68 82  1  0  0  0  0
 69 86  1  0  0  0  0
 70 71  1  0  0  0  0
 70 86  1  0  0  0  0
 71 94  1  0  0  0  0
 72 74  1  0  0  0  0
 72 84  1  0  0  0  0
 73 85  1  0  0  0  0
 75 76  1  0  0  0  0
M  CHG  2  85   1  86   1
M  ISO  4  47 100  71 101  81 100  94 101
M  END
> <Batch ID>
0039

> <Smiles>
CNC(C)C(=O)NC(C(=O)N1Cc2cc([101O:1][101CH2:1]CNCc3cc(C)c(C=CC(=O)NCc4ccc(C)c([100NH:0][100C:0](=O)N5CCCC(n6nc(-c7ccc(Oc8ccc(F)cc8F)cc7)c(C(N)=O)c6N)C5)c4)c(C)c3)ccc2CC1C(=O)NC1CCCc2ccccc21)C(C)(C)C

> <Shape>
0.235

> <Color>
0.176

> <Negative vol penalty>
0.000

$$$$

  -OEChem-04042322043D

 89 98  0     1  0  0  0  0  0999 V2000
  -22.1117   -7.7325   24.6395 C   0  0  0  0  0  0  0  0  0  0  0  0
  -23.3886   -8.2432   24.8496 C   0  0  0  0  0  0  0  0  0  0  0  0
  -25.8853  -30.9232   21.4680 C   0  0  0  0  0  0  0  0  0  0  0  0
  -24.9482  -28.7700   20.9002 C   0  0  0  0  0  0  0  0  0  0  0  0
  -21.5075   -7.8616   23.3896 C   0  0  0  0  0  0  0  0  0  0  0  0
  -24.0625   -8.8823   23.8095 C   0  0  0  0  0  0  0  0  0  0  0  0
  -28.7339  -14.1781   22.6058 C   0  0  0  0  0  0  0  0  0  0  0  0
  -24.6999  -31.5433   21.0730 C   0  0  0  0  0  0  0  0  0  0  0  0
  -23.7628  -29.3900   20.5052 C   0  0  0  0  0  0  0  0  0  0  0  0
  -29.9446  -14.4199   21.9581 C   0  0  0  0  0  0  0  0  0  0  0  0
  -23.2101  -32.4537   18.1789 C   0  0  0  0  0  0  0  0  0  0  0  0
  -23.3106  -33.5981   17.3877 C   0  0  0  0  0  0  0  0  0  0  0  0
  -28.7706  -14.6545   19.8639 C   0  0  0  0  0  0  0  0  0  0  0  0
  -30.6289  -21.1167   20.5604 C   0  0  0  0  0  0  0  0  0  0  0  0
  -28.3371  -20.1109   21.7928 C   0  0  0  0  0  0  0  0  0  0  0  0
  -22.1511  -34.8714   19.0822 C   0  0  0  0  0  0  0  0  0  0  0  0
  -26.0095  -29.5366   21.3815 C   0  0  0  0  0  0  0  0  0  0  0  0
  -27.8278  -28.9299   23.0648 C   0  0  0  0  0  0  0  0  0  0  0  0
  -22.1705   -8.5111   22.3364 C   0  0  0  0  0  0  0  0  0  0  0  0
  -27.5315  -14.1619   21.8843 C   0  0  0  0  0  0  0  0  0  0  0  0
  -23.4672   -9.0190   22.5440 C   0  0  0  0  0  0  0  0  0  0  0  0
  -27.5457  -14.4149   20.5052 C   0  0  0  0  0  0  0  0  0  0  0  0
  -30.6660  -19.8750   21.1947 C   0  0  0  0  0  0  0  0  0  0  0  0
  -29.5201  -19.3720   21.8108 C   0  0  0  0  0  0  0  0  0  0  0  0
  -29.4459  -21.8556   20.5424 C   0  0  0  0  0  0  0  0  0  0  0  0
  -23.6387  -30.7767   20.5916 C   0  0  0  0  0  0  0  0  0  0  0  0
  -29.9634  -14.6552   20.5865 C   0  0  0  0  0  0  0  0  0  0  0  0
  -22.5800  -32.5182   19.4217 C   0  0  0  0  0  0  0  0  0  0  0  0
  -22.7811  -34.8069   17.8393 C   0  0  0  0  0  0  0  0  0  0  0  0
  -22.0505  -33.7270   19.8733 C   0  0  0  0  0  0  0  0  0  0  0  0
  -28.3000  -21.3526   21.1585 C   0  0  0  0  0  0  0  0  0  0  0  0
  -27.2339  -28.8955   21.7889 C   0  0  0  0  0  0  0  0  0  0  0  0
  -28.9654  -28.1713   22.9346 C   0  0  0  0  0  0  0  0  0  0  0  0
  -33.6740  -18.1737   19.7730 C   0  0  0  0  0  0  0  0  0  0  0  0
  -34.6418  -20.9421   17.5629 C   0  0  0  0  0  0  0  0  0  0  0  0
  -34.4231  -18.9828   19.0088 C   0  0  0  0  0  0  0  0  0  0  0  0
  -33.8943  -20.1356   18.3248 C   0  0  0  0  0  0  0  0  0  0  0  0
  -27.3902  -29.5886   24.2608 C   0  0  0  0  0  0  0  0  0  0  0  0
  -25.2947  -11.9802   21.3012 C   0  0  0  0  0  0  0  0  0  0  0  0
  -23.7678  -14.4825   19.9122 C   0  0  0  0  0  0  0  0  0  0  0  0
  -24.6593  -17.2654   17.7960 C   0  0  0  0  0  0  0  0  0  0  0  0
  -30.5121  -23.7332   19.2446 C   0  0  0  0  0  0  0  0  0  0  0  0
  -21.4959   -8.5846   20.9895 C   0  0  0  0  0  0  0  0  0  0  0  0
  -26.2310  -13.9261   22.6022 C   0  0  0  0  0  0  0  0  0  0  0  0
  -26.2803  -14.4285   19.6885 C   0  0  0  0  0  0  0  0  0  0  0  0
  -34.2308  -16.9711   20.4853 C   0  0  0  0  0  0  0  0  0  0  0  0
  -22.1273   -9.6061   20.0470 C   0  0  0  0  0  0  0  0  0  0  0  0
  -33.3875  -15.7383   20.1831 C   0  0  0  0  0  0  0  0  0  0  0  0
  -32.2184  -26.8267   19.6874 C   0  0  0  0  0  0  0  0  0  0  0  0
  -23.6465   -9.4693   20.0518 C   0  0  0  0  0  0  0  0  0  0  0  0
  -31.1899  -27.7095   20.3981 C   0  0  0  0  0  0  0  0  0  0  0  0
  -31.5624  -25.9077   18.6584 C   0  0  0  0  0  0  0  0  0  0  0  0
  -29.4253  -25.9755   19.8821 C   0  0  0  0  0  0  0  0  0  0  0  0
  -31.4482  -17.2317   19.5718 C   0  0  0  0  0  0  0  0  0  0  0  0
  -24.2205   -9.7407   21.4477 C   0  0  1  0  0  0  0  0  0  0  0  0
  -25.1230  -13.4236   21.6818 C   0  0  1  0  0  0  0  0  0  0  0  0
  -30.0309  -26.8725   20.9740 C   0  0  2  0  0  0  0  0  0  0  0  0
  -31.8985  -16.0199   20.3836 C   0  0  1  0  0  0  0  0  0  1  0  0
  -29.5360  -18.0452   22.4963 C   0  0  0  0  0  0  0  0  0  0  0  0
  -23.5940  -19.5223   17.5336 C   0  0  0  0  0  0  0  0  0  0  0  0
  -22.2545  -13.1791   17.6055 C   0  0  0  0  0  0  0  0  0  0  0  0
  -22.4902  -15.3217   16.3319 C   0  0  0  0  0  0  0  0  0  0  0  0
  -21.2181  -15.2815   18.4773 C   0  0  0  0  0  0  0  0  0  0  0  0
  -27.2006  -18.6622   18.3874 C   0  0  0  0  0  0  0  0  0  0  0  0
  -31.9509  -19.1004   21.2041 C   0  0  0  0  0  0  0  0  0  0  0  0
  -23.7379  -15.0810   18.5266 C   0  0  1  0  0  0  0  0  0  0  0  0
  -24.7113  -18.7295   18.1939 C   0  0  2  0  0  0  0  0  0  0  0  0
  -22.4481  -14.7023   17.7452 C   0  0  0  0  0  0  0  0  0  0  0  0
  -27.9362  -28.1725   20.9125 N   0  0  0  0  0  0  0  0  0  0  0  0
  -28.9832  -27.7456   21.6390 N   0  0  0  0  0  0  0  0  0  0  0  0
  -25.0346  -14.1863   20.4350 N   0  0  0  0  0  0  0  0  0  0  0  0
  -30.4767  -25.1433   19.2765 N   0  0  0  0  0  0  0  0  0  0  0  0
  -29.9422  -27.8337   23.8030 N   0  0  0  0  0  0  0  0  0  0  0  0
  -26.5524  -28.8894   25.1403 N   0  0  0  0  0  0  0  0  0  0  0  0
  -29.4434  -23.1148   19.8926 N   0  0  0  0  0  0  0  0  0  0  0  0
  -24.2582  -11.1633   21.7108 N   0  0  0  0  0  0  0  0  0  0  0  0
  -23.9330  -16.5166   18.6977 N   0  0  0  0  0  0  0  0  0  0  0  0
  -32.2646  -18.4634   19.8786 N   0  3  1  0  0  0  0  0  0  0  0  0
  -26.0147  -19.3296   17.7915 N   0  3  0  0  0  0  0  0  0  0  0  0
  -27.7188  -30.7681   24.5332 O   0  0  0  0  0  0  0  0  0  0  0  0
  -26.2928  -11.6336   20.6806 O   0  0  0  0  0  0  0  0  0  0  0  0
  -22.7067  -14.2917   20.5115 O   0  0  0  0  0  0  0  0  0  0  0  0
  -25.2051  -16.8303   16.7844 O   0  0  0  0  0  0  0  0  0  0  0  0
  -31.4376  -23.1192   18.7074 O   0  0  0  0  0  0  0  0  0  0  0  0
  -22.4817  -31.3813   20.2063 O   0  0  0  0  0  0  0  0  0  0  0  0
  -31.1439  -14.8908   19.9518 O   0  0  0  0  0  0  0  0  0  1  0  0
  -22.8791  -35.9061   17.0802 F   0  0  0  0  0  0  0  0  0  0  0  0
  -21.4451  -33.7954   21.0669 F   0  0  0  0  0  0  0  0  0  0  0  0
  -26.8140  -22.2343   21.1592 Cl  0  0  0  0  0  0  0  0  0  0  0  0
  1  2  1  0  0  0  0
  1  5  2  0  0  0  0
  2  6  2  0  0  0  0
  3  8  2  0  0  0  0
  3 17  1  0  0  0  0
  4  9  1  0  0  0  0
  4 17  2  0  0  0  0
  5 19  1  0  0  0  0
  6 21  1  0  0  0  0
  7 10  2  0  0  0  0
  7 20  1  0  0  0  0
  8 26  1  0  0  0  0
  9 26  2  0  0  0  0
 10 27  1  0  0  0  0
 11 12  2  0  0  0  0
 11 28  1  0  0  0  0
 12 29  1  0  0  0  0
 13 22  1  0  0  0  0
 13 27  2  0  0  0  0
 14 23  1  0  0  0  0
 14 25  2  0  0  0  0
 15 24  1  0  0  0  0
 15 31  2  0  0  0  0
 16 29  2  0  0  0  0
 16 30  1  0  0  0  0
 17 32  1  0  0  0  0
 18 32  1  0  0  0  0
 18 33  2  0  0  0  0
 18 38  1  0  0  0  0
 19 21  2  0  0  0  0
 19 43  1  0  0  0  0
 20 22  2  0  0  0  0
 20 44  1  0  0  0  0
 21 55  1  0  0  0  0
 22 45  1  0  0  0  0
 23 24  2  0  0  0  0
 23 65  1  0  0  0  0
 24 59  1  0  0  0  0
 25 31  1  0  0  0  0
 25 75  1  0  0  0  0
 26 85  1  0  0  0  0
 27 86  1  0  0  0  0
 28 30  2  0  0  0  0
 28 85  1  0  0  0  0
 29 87  1  0  0  0  0
 30 88  1  0  0  0  0
 31 89  1  0  0  0  0
 32 69  2  0  0  0  0
 33 70  1  0  0  0  0
 33 73  1  0  0  0  0
 34 36  2  0  0  0  0
 34 46  1  0  0  0  0
 34 78  1  0  0  0  0
 35 37  2  0  0  0  0
 36 37  1  0  0  0  0
 38 74  1  0  0  0  0
 38 80  2  0  0  0  0
 39 56  1  0  0  0  0
 39 76  1  0  0  0  0
 39 81  2  0  0  0  0
 40 66  1  0  0  0  0
 40 71  1  0  0  0  0
 40 82  2  0  0  0  0
 41 67  1  0  0  0  0
 41 77  1  0  0  0  0
 41 83  2  0  0  0  0
 42 72  1  0  0  0  0
 42 75  1  0  0  0  0
 42 84  2  0  0  0  0
 43 47  1  0  0  0  0
 44 56  1  0  0  0  0
 45 71  1  0  0  0  0
 46 48  1  0  0  0  0
 47 50  1  0  0  0  0
 48 58  1  0  0  0  0
 49 51  1  0  0  0  0
 49 52  1  0  0  0  0
 50 55  1  0  0  0  0
 51 57  1  0  0  0  0
 52 72  1  0  0  0  0
 53 57  1  0  0  0  0
 53 72  1  0  0  0  0
 54 58  1  0  0  0  0
 54 78  1  0  0  0  0
 55 76  1  0  0  0  0
 56 71  1  0  0  0  0
 57 70  1  0  0  0  0
 58 86  1  0  0  0  0
 60 67  1  0  0  0  0
 61 68  1  0  0  0  0
 62 68  1  0  0  0  0
 63 68  1  0  0  0  0
 64 79  1  0  0  0  0
 65 78  1  0  0  0  0
 66 68  1  0  0  0  0
 66 77  1  0  0  0  0
 67 79  1  0  0  0  0
 69 70  1  0  0  0  0
M  CHG  2  78   1  79   1
M  ISO  4  42 100  58 101  75 100  86 101
M  END
> <Batch ID>
0039

> <Smiles>
C=CC=C1CC[101CH:1]([101O:1]c2ccc3c(c2)CN(C(=O)C(NC(=O)C(C)NC)C(C)(C)C)C(C(=O)NC2CCCc4ccccc42)C3)CN1Cc1cc([100NH:0][100C:0](=O)N2CCCC(n3nc(-c4ccc(Oc5ccc(F)cc5F)cc4)c(C(N)=O)c3N)C2)c(Cl)cc1C

> <Shape>
0.261

> <Color>
0.080

> <Negative vol penalty>
0.000

$$$$

  -OEChem-04042322043D

 89 98  0     1  0  0  0  0  0999 V2000
  -28.2396  -22.6688   21.6216 C   0  0  0  0  0  0  0  0  0  0  0  0
  -27.0240  -23.3432   21.6776 C   0  0  0  0  0  0  0  0  0  0  0  0
  -27.4852  -12.8028   18.7689 C   0  0  0  0  0  0  0  0  0  0  0  0
  -28.2888  -13.6156   20.8975 C   0  0  0  0  0  0  0  0  0  0  0  0
  -29.2982  -23.0740   22.4333 C   0  0  0  0  0  0  0  0  0  0  0  0
  -26.8661  -24.4225   22.5462 C   0  0  0  0  0  0  0  0  0  0  0  0
  -24.5398  -28.3528   20.3585 C   0  0  0  0  0  0  0  0  0  0  0  0
  -28.7143  -12.1839   18.5412 C   0  0  0  0  0  0  0  0  0  0  0  0
  -29.5179  -12.9966   20.6698 C   0  0  0  0  0  0  0  0  0  0  0  0
  -23.1551  -28.2742   20.2159 C   0  0  0  0  0  0  0  0  0  0  0  0
  -31.8104  -13.0906   17.5330 C   0  0  0  0  0  0  0  0  0  0  0  0
  -32.3842  -13.2359   16.2700 C   0  0  0  0  0  0  0  0  0  0  0  0
  -22.8814  -29.6711   22.1635 C   0  0  0  0  0  0  0  0  0  0  0  0
  -23.3163  -24.2190   24.3204 C   0  0  0  0  0  0  0  0  0  0  0  0
  -32.3381  -10.8386   15.9732 C   0  0  0  0  0  0  0  0  0  0  0  0
  -27.2725  -13.5187   19.9470 C   0  0  0  0  0  0  0  0  0  0  0  0
  -24.7406  -13.5409   20.2586 C   0  0  0  0  0  0  0  0  0  0  0  0
  -29.1563  -24.1649   23.3053 C   0  0  0  0  0  0  0  0  0  0  0  0
  -25.1064  -29.0833   21.4128 C   0  0  0  0  0  0  0  0  0  0  0  0
  -27.9235  -24.8418   23.3714 C   0  0  0  0  0  0  0  0  0  0  0  0
  -24.2736  -29.7594   22.3158 C   0  0  0  0  0  0  0  0  0  0  0  0
  -22.3490  -25.2230   24.2789 C   0  0  0  0  0  0  0  0  0  0  0  0
  -22.9298  -22.8794   24.3636 C   0  0  0  0  0  0  0  0  0  0  0  0
  -21.5759  -22.5439   24.3654 C   0  0  0  0  0  0  0  0  0  0  0  0
  -20.6085  -23.5479   24.3239 C   0  0  0  0  0  0  0  0  0  0  0  0
  -20.9950  -24.8875   24.2807 C   0  0  0  0  0  0  0  0  0  0  0  0
  -29.7306  -12.2807   19.4916 C   0  0  0  0  0  0  0  0  0  0  0  0
  -22.3257  -28.9310   21.1202 C   0  0  0  0  0  0  0  0  0  0  0  0
  -31.5004  -11.8192   18.0161 C   0  0  0  0  0  0  0  0  0  0  0  0
  -32.6481  -12.1100   15.4901 C   0  0  0  0  0  0  0  0  0  0  0  0
  -31.7642  -10.6933   17.2362 C   0  0  0  0  0  0  0  0  0  0  0  0
  -26.0032  -14.1588   20.1825 C   0  0  0  0  0  0  0  0  0  0  0  0
  -23.8667  -14.5736   20.4956 C   0  0  0  0  0  0  0  0  0  0  0  0
  -18.0213  -26.7583   23.0075 C   0  0  0  0  0  0  0  0  0  0  0  0
  -16.9179  -25.9995   22.9279 C   0  0  0  0  0  0  0  0  0  0  0  0
  -24.3893  -12.1571   20.1269 C   0  0  0  0  0  0  0  0  0  0  0  0
  -26.9552  -28.3686   23.8978 C   0  0  0  0  0  0  0  0  0  0  0  0
  -26.9789  -31.5862   24.3089 C   0  0  0  0  0  0  0  0  0  0  0  0
  -24.5910  -34.2837   24.1120 C   0  0  0  0  0  0  0  0  0  0  0  0
  -24.6092  -19.8499   23.0380 C   0  0  0  0  0  0  0  0  0  0  0  0
  -30.3140  -24.5364   24.1977 C   0  0  0  0  0  0  0  0  0  0  0  0
  -26.6023  -29.1802   21.5371 C   0  0  0  0  0  0  0  0  0  0  0  0
  -24.8324  -30.5736   23.4530 C   0  0  0  0  0  0  0  0  0  0  0  0
  -17.9787  -28.2528   23.1762 C   0  0  0  0  0  0  0  0  0  0  0  0
  -30.1833  -25.9247   24.8188 C   0  0  0  0  0  0  0  0  0  0  0  0
  -18.8557  -28.9298   22.1299 C   0  0  0  0  0  0  0  0  0  0  0  0
  -23.3092  -19.2622   19.7121 C   0  0  0  0  0  0  0  0  0  0  0  0
  -28.7818  -26.1259   25.3863 C   0  0  0  0  0  0  0  0  0  0  0  0
  -23.7400  -17.8147   19.4686 C   0  0  0  0  0  0  0  0  0  0  0  0
  -24.3736  -20.0326   20.4878 C   0  0  0  0  0  0  0  0  0  0  0  0
  -25.1948  -17.9622   21.5426 C   0  0  0  0  0  0  0  0  0  0  0  0
  -20.1504  -26.7831   21.8463 C   0  0  0  0  0  0  0  0  0  0  0  0
  -27.7211  -26.0328   24.2828 C   0  0  1  0  0  0  0  0  0  0  0  0
  -27.0632  -29.5287   22.9490 C   0  0  1  0  0  0  0  0  0  0  0  0
  -24.1512  -17.1238   20.7823 C   0  0  2  0  0  0  0  0  0  0  0  0
  -20.2429  -28.2905   22.0688 C   0  0  1  0  0  0  0  0  0  1  0  0
  -22.7896  -26.6496   24.2337 C   0  0  0  0  0  0  0  0  0  0  0  0
  -21.1642  -21.1064   24.4125 C   0  0  0  0  0  0  0  0  0  0  0  0
  -19.1561  -23.1880   24.3252 C   0  0  0  0  0  0  0  0  0  0  0  0
  -24.9195  -36.7198   23.6072 C   0  0  0  0  0  0  0  0  0  0  0  0
  -27.1209  -31.8980   27.3408 C   0  0  0  0  0  0  0  0  0  0  0  0
  -25.8472  -34.0411   27.1102 C   0  0  0  0  0  0  0  0  0  0  0  0
  -28.0926  -33.8064   26.0492 C   0  0  0  0  0  0  0  0  0  0  0  0
  -22.6345  -34.2067   21.8927 C   0  0  0  0  0  0  0  0  0  0  0  0
  -23.9855  -21.8235   24.4066 C   0  0  0  0  0  0  0  0  0  0  0  0
  -19.9566  -25.9694   24.2358 C   0  0  0  0  0  0  0  0  0  0  0  0
  -26.1191  -32.5744   25.0594 C   0  0  1  0  0  0  0  0  0  0  0  0
  -24.5246  -35.3626   23.0461 C   0  0  2  0  0  0  0  0  0  0  0  0
  -26.7842  -33.0556   26.3798 C   0  0  0  0  0  0  0  0  0  0  0  0
  -25.9412  -15.4816   20.3569 N   0  0  0  0  0  0  0  0  0  0  0  0
  -24.6291  -15.7033   20.5448 N   0  0  0  0  0  0  0  0  0  0  0  0
  -26.3011  -30.6327   23.5360 N   0  0  0  0  0  0  0  0  0  0  0  0
  -24.7063  -19.3316   21.7360 N   0  0  0  0  0  0  0  0  0  0  0  0
  -22.5280  -14.6164   20.6645 N   0  0  0  0  0  0  0  0  0  0  0  0
  -24.3735  -11.3592   21.2790 N   0  0  0  0  0  0  0  0  0  0  0  0
  -27.6828  -27.2583   23.5140 N   0  0  0  0  0  0  0  0  0  0  0  0
  -25.8140  -33.6469   24.1186 N   0  0  0  0  0  0  0  0  0  0  0  0
  -24.1448  -21.1560   23.1338 N   0  0  0  0  0  0  0  0  0  0  0  0
  -19.2999  -26.1003   22.8894 N   0  3  1  0  0  0  0  0  0  0  0  0
  -23.1425  -35.4647   22.4979 N   0  3  0  0  0  0  0  0  0  0  0  0
  -24.1138  -11.6396   19.0179 O   0  0  0  0  0  0  0  0  0  0  0  0
  -26.2642  -28.4736   24.9043 O   0  0  0  0  0  0  0  0  0  0  0  0
  -28.2068  -31.6620   24.3993 O   0  0  0  0  0  0  0  0  0  0  0  0
  -23.6531  -34.0335   24.8659 O   0  0  0  0  0  0  0  0  0  0  0  0
  -24.9093  -19.1951   24.0421 O   0  0  0  0  0  0  0  0  0  0  0  0
  -30.9300  -11.6766   19.2699 O   0  0  0  0  0  0  0  0  0  0  0  0
  -20.9738  -28.8555   20.9837 O   0  0  0  0  0  0  0  0  0  1  0  0
  -33.1977  -12.2498   14.2766 F   0  0  0  0  0  0  0  0  0  0  0  0
  -31.4675   -9.4695   17.6945 F   0  0  0  0  0  0  0  0  0  0  0  0
  1  2  1  0  0  0  0
  1  5  2  0  0  0  0
  2  6  2  0  0  0  0
  3  8  2  0  0  0  0
  3 16  1  0  0  0  0
  4  9  1  0  0  0  0
  4 16  2  0  0  0  0
  5 18  1  0  0  0  0
  6 20  1  0  0  0  0
  7 10  2  0  0  0  0
  7 19  1  0  0  0  0
  8 27  1  0  0  0  0
  9 27  2  0  0  0  0
 10 28  1  0  0  0  0
 11 12  2  0  0  0  0
 11 29  1  0  0  0  0
 12 30  1  0  0  0  0
 13 21  1  0  0  0  0
 13 28  2  0  0  0  0
 14 22  2  0  0  0  0
 14 23  1  0  0  0  0
 15 30  2  0  0  0  0
 15 31  1  0  0  0  0
 16 32  1  0  0  0  0
 17 32  1  0  0  0  0
 17 33  2  0  0  0  0
 17 36  1  0  0  0  0
 18 20  2  0  0  0  0
 18 41  1  0  0  0  0
 19 21  2  0  0  0  0
 19 42  1  0  0  0  0
 20 53  1  0  0  0  0
 21 43  1  0  0  0  0
 22 26  1  0  0  0  0
 22 57  1  0  0  0  0
 23 24  2  0  0  0  0
 23 65  1  0  0  0  0
 24 25  1  0  0  0  0
 24 58  1  0  0  0  0
 25 26  2  0  0  0  0
 25 59  1  0  0  0  0
 26 66  1  0  0  0  0
 27 86  1  0  0  0  0
 28 87  1  0  0  0  0
 29 31  2  0  0  0  0
 29 86  1  0  0  0  0
 30 88  1  0  0  0  0
 31 89  1  0  0  0  0
 32 70  2  0  0  0  0
 33 71  1  0  0  0  0
 33 74  1  0  0  0  0
 34 35  2  0  0  0  0
 34 44  1  0  0  0  0
 34 79  1  0  0  0  0
 36 75  1  0  0  0  0
 36 81  2  0  0  0  0
 37 54  1  0  0  0  0
 37 76  1  0  0  0  0
 37 82  2  0  0  0  0
 38 67  1  0  0  0  0
 38 72  1  0  0  0  0
 38 83  2  0  0  0  0
 39 68  1  0  0  0  0
 39 77  1  0  0  0  0
 39 84  2  0  0  0  0
 40 73  1  0  0  0  0
 40 78  1  0  0  0  0
 40 85  2  0  0  0  0
 41 45  1  0  0  0  0
 42 54  1  0  0  0  0
 43 72  1  0  0  0  0
 44 46  1  0  0  0  0
 45 48  1  0  0  0  0
 46 56  1  0  0  0  0
 47 49  1  0  0  0  0
 47 50  1  0  0  0  0
 48 53  1  0  0  0  0
 49 55  1  0  0  0  0
 50 73  1  0  0  0  0
 51 55  1  0  0  0  0
 51 73  1  0  0  0  0
 52 56  1  0  0  0  0
 52 79  1  0  0  0  0
 53 76  1  0  0  0  0
 54 72  1  0  0  0  0
 55 71  1  0  0  0  0
 56 87  1  0  0  0  0
 60 68  1  0  0  0  0
 61 69  1  0  0  0  0
 62 69  1  0  0  0  0
 63 69  1  0  0  0  0
 64 80  1  0  0  0  0
 65 78  1  0  0  0  0
 66 79  1  0  0  0  0
 67 69  1  0  0  0  0
 67 77  1  0  0  0  0
 68 80  1  0  0  0  0
 70 71  1  0  0  0  0
M  CHG  2  79   1  80   1
M  ISO  4  40 100  56 101  78 100  87 101
M  END
> <Batch ID>
0039

> <Smiles>
C=C1CC[101CH:1]([101O:1]c2ccc3c(c2)CN(C(=O)C(NC(=O)C(C)NC)C(C)(C)C)C(C(=O)NC2CCCc4ccccc42)C3)CN1Cc1c(C)cc(C[100NH:0][100C:0](=O)N2CCCC(n3nc(-c4ccc(Oc5ccc(F)cc5F)cc4)c(C(N)=O)c3N)C2)c(C)c1C

> <Shape>
0.256

> <Color>
0.083

> <Negative vol penalty>
0.000

$$$$

  -OEChem-04042322043D

 87 96  0     1  0  0  0  0  0999 V2000
  -25.2185  -33.9738   20.2309 C   0  0  0  0  0  0  0  0  0  0  0  0
  -25.7590  -33.0922   19.3017 C   0  0  0  0  0  0  0  0  0  0  0  0
  -23.3085  -10.2146   22.2377 C   0  0  0  0  0  0  0  0  0  0  0  0
  -23.6032   -9.5275   19.9403 C   0  0  0  0  0  0  0  0  0  0  0  0
  -25.6232  -33.9115   21.5626 C   0  0  0  0  0  0  0  0  0  0  0  0
  -26.6955  -32.1402   19.7061 C   0  0  0  0  0  0  0  0  0  0  0  0
  -31.4794  -25.4024   20.7639 C   0  0  0  0  0  0  0  0  0  0  0  0
  -22.5642   -9.0616   22.4871 C   0  0  0  0  0  0  0  0  0  0  0  0
  -22.8589   -8.3744   20.1897 C   0  0  0  0  0  0  0  0  0  0  0  0
  -32.0194  -24.7468   21.8695 C   0  0  0  0  0  0  0  0  0  0  0  0
  -19.4141   -7.9643   21.9416 C   0  0  0  0  0  0  0  0  0  0  0  0
  -18.2305   -8.1021   22.6666 C   0  0  0  0  0  0  0  0  0  0  0  0
  -29.9654  -25.1108   23.0809 C   0  0  0  0  0  0  0  0  0  0  0  0
  -32.0590  -16.5925   22.5290 C   0  0  0  0  0  0  0  0  0  0  0  0
  -30.5169  -18.3561   24.0437 C   0  0  0  0  0  0  0  0  0  0  0  0
  -19.0957   -6.6140   24.3619 C   0  0  0  0  0  0  0  0  0  0  0  0
  -23.8279  -10.4476   20.9642 C   0  0  0  0  0  0  0  0  0  0  0  0
  -24.1679  -12.9729   20.8413 C   0  0  0  0  0  0  0  0  0  0  0  0
  -26.5744  -32.9662   21.9803 C   0  0  0  0  0  0  0  0  0  0  0  0
  -30.1801  -25.9276   20.8123 C   0  0  0  0  0  0  0  0  0  0  0  0
  -27.0990  -32.0457   21.0503 C   0  0  0  0  0  0  0  0  0  0  0  0
  -29.4103  -25.7704   21.9737 C   0  0  0  0  0  0  0  0  0  0  0  0
  -32.6762  -17.4684   23.4220 C   0  0  0  0  0  0  0  0  0  0  0  0
  -31.9052  -18.3502   24.1794 C   0  0  0  0  0  0  0  0  0  0  0  0
  -30.6708  -16.5985   22.3932 C   0  0  0  0  0  0  0  0  0  0  0  0
  -22.3394   -8.1415   21.4631 C   0  0  0  0  0  0  0  0  0  0  0  0
  -31.2634  -24.6035   23.0292 C   0  0  0  0  0  0  0  0  0  0  0  0
  -20.4386   -7.1513   22.4267 C   0  0  0  0  0  0  0  0  0  0  0  0
  -18.0713   -7.4270   23.8767 C   0  0  0  0  0  0  0  0  0  0  0  0
  -20.2793   -6.4762   23.6369 C   0  0  0  0  0  0  0  0  0  0  0  0
  -29.8997  -17.4803   23.1506 C   0  0  0  0  0  0  0  0  0  0  0  0
  -24.5964  -11.6387   20.7058 C   0  0  0  0  0  0  0  0  0  0  0  0
  -25.2599  -13.7227   20.4783 C   0  0  0  0  0  0  0  0  0  0  0  0
  -32.0237  -21.5975   24.4187 C   0  0  0  0  0  0  0  0  0  0  0  0
  -22.8965  -13.4882   21.2580 C   0  0  0  0  0  0  0  0  0  0  0  0
  -28.9264  -28.8381   20.5655 C   0  0  0  0  0  0  0  0  0  0  0  0
  -26.1203  -27.2135   20.6614 C   0  0  0  0  0  0  0  0  0  0  0  0
  -24.7495  -24.4322   22.5061 C   0  0  0  0  0  0  0  0  0  0  0  0
  -30.7250  -14.7729   20.6581 C   0  0  0  0  0  0  0  0  0  0  0  0
  -26.9708  -32.9376   23.4354 C   0  0  0  0  0  0  0  0  0  0  0  0
  -29.6024  -26.6086   19.6020 C   0  0  0  0  0  0  0  0  0  0  0  0
  -28.0029  -26.2983   22.0698 C   0  0  0  0  0  0  0  0  0  0  0  0
  -28.2832  -32.1998   23.6797 C   0  0  0  0  0  0  0  0  0  0  0  0
  -29.9894  -21.7931   26.5189 C   0  0  0  0  0  0  0  0  0  0  0  0
  -29.6154  -12.3550   18.2917 C   0  0  0  0  0  0  0  0  0  0  0  0
  -28.2577  -30.8487   22.9809 C   0  0  0  0  0  0  0  0  0  0  0  0
  -30.6514  -23.0494   25.9927 C   0  0  0  0  0  0  0  0  0  0  0  0
  -28.1754  -12.0629   18.7200 C   0  0  0  0  0  0  0  0  0  0  0  0
  -30.9879  -20.6495   26.5140 C   0  0  0  0  0  0  0  0  0  0  0  0
  -30.5289  -12.5862   19.4942 C   0  0  0  0  0  0  0  0  0  0  0  0
  -28.6197  -13.3110   20.8722 C   0  0  0  0  0  0  0  0  0  0  0  0
  -28.1418  -31.0219   21.4612 C   0  0  1  0  0  0  0  0  0  0  0  0
  -31.1094  -22.8069   24.5680 C   0  0  1  0  0  0  0  0  0  1  0  0
  -28.4552  -27.5558   19.9399 C   0  0  1  0  0  0  0  0  0  0  0  0
  -27.6484  -13.1354   19.6934 C   0  0  2  0  0  0  0  0  0  0  0  0
  -34.1643  -17.4461   23.5475 C   0  0  0  0  0  0  0  0  0  0  0  0
  -22.9584  -22.7876   21.8863 C   0  0  0  0  0  0  0  0  0  0  0  0
  -24.2543  -29.1359   22.1218 C   0  0  0  0  0  0  0  0  0  0  0  0
  -23.0224  -27.1491   23.0180 C   0  0  0  0  0  0  0  0  0  0  0  0
  -23.1086  -27.5556   20.5583 C   0  0  0  0  0  0  0  0  0  0  0  0
  -26.5328  -22.1243   23.0084 C   0  0  0  0  0  0  0  0  0  0  0  0
  -32.5472  -19.3022   25.1467 C   0  0  0  0  0  0  0  0  0  0  0  0
  -25.1867  -26.7562   21.7560 C   0  0  1  0  0  0  0  0  0  0  0  0
  -24.4552  -23.0428   21.9699 C   0  0  2  0  0  0  0  0  0  0  0  0
  -23.9209  -27.6522   21.8681 C   0  0  0  0  0  0  0  0  0  0  0  0
  -25.8618  -11.5434   20.2892 N   0  0  0  0  0  0  0  0  0  0  0  0
  -26.2378  -12.8271   20.1596 N   0  0  0  0  0  0  0  0  0  0  0  0
  -31.7814  -20.5333   25.2894 N   0  0  0  0  0  0  0  0  0  0  0  0
  -27.4850  -26.9621   20.8621 N   0  0  0  0  0  0  0  0  0  0  0  0
  -29.9680  -13.6177   20.3695 N   0  0  0  0  0  0  0  0  0  0  0  0
  -25.4693  -15.0543   20.4038 N   0  0  0  0  0  0  0  0  0  0  0  0
  -21.8849  -12.5787   21.5953 N   0  0  0  0  0  0  0  0  0  0  0  0
  -30.0760  -15.6985   21.4745 N   0  0  0  0  0  0  0  0  0  0  0  0
  -27.9108  -29.7293   20.8549 N   0  0  0  0  0  0  0  0  0  0  0  0
  -24.9020  -25.3505   21.4888 N   0  0  0  0  0  0  0  0  0  0  0  0
  -25.0598  -22.0073   22.8548 N   0  3  0  0  0  0  0  0  0  0  0  0
  -32.8717  -21.5751   23.5229 O   0  0  0  0  0  0  0  0  0  0  0  0
  -22.6592  -14.7187   21.3134 O   0  0  0  0  0  0  0  0  0  0  0  0
  -30.1226  -29.0059   20.7717 O   0  0  0  0  0  0  0  0  0  0  0  0
  -25.6552  -27.7669   19.6619 O   0  0  0  0  0  0  0  0  0  0  0  0
  -24.8320  -24.6790   23.7072 O   0  0  0  0  0  0  0  0  0  0  0  0
  -31.8546  -14.9419   20.1916 O   0  0  0  0  0  0  0  0  0  0  0  0
  -21.6134   -7.0162   21.7062 O   0  0  0  0  0  0  0  0  0  0  0  0
  -31.7883  -23.9646   24.1100 O   0  0  0  0  0  0  0  0  0  1  0  0
  -16.9352   -7.5606   24.5736 F   0  0  0  0  0  0  0  0  0  0  0  0
  -21.2604   -5.6947   24.1086 F   0  0  0  0  0  0  0  0  0  0  0  0
  -28.1777  -17.5204   23.0141 Cl  0  0  0  0  0  0  0  0  0  0  0  0
  1  2  1  0  0  0  0
  1  5  2  0  0  0  0
  2  6  2  0  0  0  0
  3  8  2  0  0  0  0
  3 17  1  0  0  0  0
  4  9  1  0  0  0  0
  4 17  2  0  0  0  0
  5 19  1  0  0  0  0
  6 21  1  0  0  0  0
  7 10  2  0  0  0  0
  7 20  1  0  0  0  0
  8 26  1  0  0  0  0
  9 26  2  0  0  0  0
 10 27  1  0  0  0  0
 11 12  2  0  0  0  0
 11 28  1  0  0  0  0
 12 29  1  0  0  0  0
 13 22  1  0  0  0  0
 13 27  2  0  0  0  0
 14 23  1  0  0  0  0
 14 25  2  0  0  0  0
 15 24  1  0  0  0  0
 15 31  2  0  0  0  0
 16 29  2  0  0  0  0
 16 30  1  0  0  0  0
 17 32  1  0  0  0  0
 18 32  1  0  0  0  0
 18 33  2  0  0  0  0
 18 35  1  0  0  0  0
 19 21  2  0  0  0  0
 19 40  1  0  0  0  0
 20 22  2  0  0  0  0
 20 41  1  0  0  0  0
 21 52  1  0  0  0  0
 22 42  1  0  0  0  0
 23 24  2  0  0  0  0
 23 56  1  0  0  0  0
 24 62  1  0  0  0  0
 25 31  1  0  0  0  0
 25 73  1  0  0  0  0
 26 83  1  0  0  0  0
 27 84  1  0  0  0  0
 28 30  2  0  0  0  0
 28 83  1  0  0  0  0
 29 85  1  0  0  0  0
 30 86  1  0  0  0  0
 31 87  1  0  0  0  0
 32 66  2  0  0  0  0
 33 67  1  0  0  0  0
 33 71  1  0  0  0  0
 34 53  1  0  0  0  0
 34 68  1  0  0  0  0
 34 77  2  0  0  0  0
 35 72  1  0  0  0  0
 35 78  2  0  0  0  0
 36 54  1  0  0  0  0
 36 74  1  0  0  0  0
 36 79  2  0  0  0  0
 37 63  1  0  0  0  0
 37 69  1  0  0  0  0
 37 80  2  0  0  0  0
 38 64  1  0  0  0  0
 38 75  1  0  0  0  0
 38 81  2  0  0  0  0
 39 70  1  0  0  0  0
 39 73  1  0  0  0  0
 39 82  2  0  0  0  0
 40 43  1  0  0  0  0
 41 54  1  0  0  0  0
 42 69  1  0  0  0  0
 43 46  1  0  0  0  0
 44 47  1  0  0  0  0
 44 49  1  0  0  0  0
 45 48  1  0  0  0  0
 45 50  1  0  0  0  0
 46 52  1  0  0  0  0
 47 53  1  0  0  0  0
 48 55  1  0  0  0  0
 49 68  1  0  0  0  0
 50 70  1  0  0  0  0
 51 55  1  0  0  0  0
 51 70  1  0  0  0  0
 52 74  1  0  0  0  0
 53 84  1  0  0  0  0
 54 69  1  0  0  0  0
 55 67  1  0  0  0  0
 57 64  1  0  0  0  0
 58 65  1  0  0  0  0
 59 65  1  0  0  0  0
 60 65  1  0  0  0  0
 61 76  1  0  0  0  0
 62 68  1  0  0  0  0
 63 65  1  0  0  0  0
 63 75  1  0  0  0  0
 64 76  1  0  0  0  0
 66 67  1  0  0  0  0
M  CHG  1  76   1
M  ISO  4  39 100  53 101  73 100  84 101
M  END
> <Batch ID>
0039

> <Smiles>
CNC(C)C(=O)NC(C(=O)N1Cc2cc([101O:1][101CH:1]3CCCN(Cc4cc(Cl)c([100NH:0][100C:0](=O)N5CCCC(n6nc(-c7ccc(Oc8ccc(F)cc8F)cc7)c(C(N)=O)c6N)C5)cc4C)C3=O)ccc2CC1C(=O)NC1CCCc2ccccc21)C(C)(C)C

> <Shape>
0.247

> <Color>
0.191

> <Negative vol penalty>
0.000

$$$$

  -OEChem-04042322043D

 86 94  0     1  0  0  0  0  0999 V2000
  -27.7279  -32.7856   21.9368 C   0  0  0  0  0  0  0  0  0  0  0  0
  -28.0875  -31.6771   22.6966 C   0  0  0  0  0  0  0  0  0  0  0  0
  -23.2615   -9.7836   19.8937 C   0  0  0  0  0  0  0  0  0  0  0  0
  -24.0463   -9.7781   22.1787 C   0  0  0  0  0  0  0  0  0  0  0  0
  -26.6390  -32.7112   21.0692 C   0  0  0  0  0  0  0  0  0  0  0  0
  -27.3575  -30.4937   22.5901 C   0  0  0  0  0  0  0  0  0  0  0  0
  -30.3252  -26.4031   22.2663 C   0  0  0  0  0  0  0  0  0  0  0  0
  -22.6292   -8.5589   20.1079 C   0  0  0  0  0  0  0  0  0  0  0  0
  -23.4139   -8.5535   22.3929 C   0  0  0  0  0  0  0  0  0  0  0  0
  -30.8965  -25.9358   23.4491 C   0  0  0  0  0  0  0  0  0  0  0  0
  -21.7039   -5.5999   23.6461 C   0  0  0  0  0  0  0  0  0  0  0  0
  -20.9695   -5.4453   24.8218 C   0  0  0  0  0  0  0  0  0  0  0  0
  -29.1937  -24.2330   23.5918 C   0  0  0  0  0  0  0  0  0  0  0  0
  -31.5562  -16.8546   22.1845 C   0  0  0  0  0  0  0  0  0  0  0  0
  -30.1723  -16.1921   24.0506 C   0  0  0  0  0  0  0  0  0  0  0  0
  -19.5442   -7.2853   24.1735 C   0  0  0  0  0  0  0  0  0  0  0  0
  -23.9701  -10.3932   20.9290 C   0  0  0  0  0  0  0  0  0  0  0  0
  -31.3317  -18.3111   24.0989 C   0  0  0  0  0  0  0  0  0  0  0  0
  -24.0786  -12.9417   20.8988 C   0  0  0  0  0  0  0  0  0  0  0  0
  -25.9013  -31.5233   20.9449 C   0  0  0  0  0  0  0  0  0  0  0  0
  -29.1755  -25.7948   21.7423 C   0  0  0  0  0  0  0  0  0  0  0  0
  -26.2569  -30.4038   21.7211 C   0  0  0  0  0  0  0  0  0  0  0  0
  -28.6112  -24.6929   22.4009 C   0  0  0  0  0  0  0  0  0  0  0  0
  -30.7085  -15.9274   22.7905 C   0  0  0  0  0  0  0  0  0  0  0  0
  -22.7053   -7.9439   21.3575 C   0  0  0  0  0  0  0  0  0  0  0  0
  -30.3292  -24.8524   24.1135 C   0  0  0  0  0  0  0  0  0  0  0  0
  -21.3585   -6.5972   22.7341 C   0  0  0  0  0  0  0  0  0  0  0  0
  -19.8896   -6.2880   25.0855 C   0  0  0  0  0  0  0  0  0  0  0  0
  -20.2787   -7.4399   22.9978 C   0  0  0  0  0  0  0  0  0  0  0  0
  -31.8679  -18.0464   22.8388 C   0  0  0  0  0  0  0  0  0  0  0  0
  -30.4839  -17.3839   24.7049 C   0  0  0  0  0  0  0  0  0  0  0  0
  -24.6241  -11.6580   20.7082 C   0  0  0  0  0  0  0  0  0  0  0  0
  -25.0932  -13.8006   20.5533 C   0  0  0  0  0  0  0  0  0  0  0  0
  -31.6608  -19.5701   24.7899 C   0  0  0  0  0  0  0  0  0  0  0  0
  -32.7170  -19.7418   25.5972 C   0  0  0  0  0  0  0  0  0  0  0  0
  -22.7717  -13.3236   21.3481 C   0  0  0  0  0  0  0  0  0  0  0  0
  -32.9701  -21.0739   26.2213 C   0  0  0  0  0  0  0  0  0  0  0  0
  -26.2059  -26.7551   21.1399 C   0  0  0  0  0  0  0  0  0  0  0  0
  -25.9371  -23.8069   19.8139 C   0  0  0  0  0  0  0  0  0  0  0  0
  -27.0495  -20.5839   19.6668 C   0  0  0  0  0  0  0  0  0  0  0  0
  -30.8386  -14.2991   20.8726 C   0  0  0  0  0  0  0  0  0  0  0  0
  -24.7031  -31.5054   20.0290 C   0  0  0  0  0  0  0  0  0  0  0  0
  -28.5869  -26.2940   20.4513 C   0  0  0  0  0  0  0  0  0  0  0  0
  -27.3889  -23.9919   21.8690 C   0  0  0  0  0  0  0  0  0  0  0  0
  -24.2115  -30.0989   19.6967 C   0  0  0  0  0  0  0  0  0  0  0  0
  -29.2082  -13.4181   17.8324 C   0  0  0  0  0  0  0  0  0  0  0  0
  -24.1265  -29.2504   20.9614 C   0  0  0  0  0  0  0  0  0  0  0  0
  -27.8061  -12.9997   18.2810 C   0  0  0  0  0  0  0  0  0  0  0  0
  -30.2765  -12.9896   18.8368 C   0  0  0  0  0  0  0  0  0  0  0  0
  -28.6306  -12.9955   20.6699 C   0  0  0  0  0  0  0  0  0  0  0  0
  -25.5050  -29.0947   21.6150 C   0  0  1  0  0  0  0  0  0  0  0  0
  -27.1168  -25.9232   20.2820 C   0  0  1  0  0  0  0  0  0  0  0  0
  -27.5139  -13.4623   19.7219 C   0  0  2  0  0  0  0  0  0  0  0  0
  -33.6593  -21.0445   27.5681 C   0  0  0  0  0  0  0  0  0  0  0  0
  -26.6083  -18.3984   18.5153 C   0  0  0  0  0  0  0  0  0  0  0  0
  -23.4896  -23.3715   21.5832 C   0  0  0  0  0  0  0  0  0  0  0  0
  -23.6706  -20.9196   21.1104 C   0  0  0  0  0  0  0  0  0  0  0  0
  -23.2505  -22.5202   19.2439 C   0  0  0  0  0  0  0  0  0  0  0  0
  -29.7567  -20.5342   18.4721 C   0  0  0  0  0  0  0  0  0  0  0  0
  -32.8380  -23.4347   26.2875 C   0  0  0  0  0  0  0  0  0  0  0  0
  -32.2944  -24.5547   25.4193 C   0  0  0  0  0  0  0  0  0  1  0  0
  -25.5382  -22.4407   20.3172 C   0  0  1  0  0  0  0  0  0  0  0  0
  -27.4047  -19.6937   18.4896 C   0  0  2  0  0  0  0  0  0  0  0  0
  -24.0091  -22.3272   20.5750 C   0  0  0  0  0  0  0  0  0  0  0  0
  -25.8870  -11.6935   20.2751 N   0  0  0  0  0  0  0  0  0  0  0  0
  -32.5841  -22.1502   25.6296 N   0  0  0  0  0  0  0  0  0  0  0  0
  -26.1436  -13.0100   20.1906 N   0  0  0  0  0  0  0  0  0  0  0  0
  -26.8465  -24.5212   20.6068 N   0  0  0  0  0  0  0  0  0  0  0  0
  -29.9350  -13.4667   20.1787 N   0  0  0  0  0  0  0  0  0  0  0  0
  -25.1803  -15.1475   20.5274 N   0  0  0  0  0  0  0  0  0  0  0  0
  -21.8512  -12.3140   21.6610 N   0  0  0  0  0  0  0  0  0  0  0  0
  -30.3918  -14.7167   22.1259 N   0  0  0  0  0  0  0  0  0  0  0  0
  -26.2944  -28.1134   20.9020 N   0  0  0  0  0  0  0  0  0  0  0  0
  -26.0532  -21.4816   19.3459 N   0  0  0  0  0  0  0  0  0  0  0  0
  -28.8555  -19.3540   18.5164 N   0  3  0  0  0  0  0  0  0  0  0  0
  -22.4248  -14.5245   21.4528 O   0  0  0  0  0  0  0  0  0  0  0  0
  -25.4757  -26.2053   21.9561 O   0  0  0  0  0  0  0  0  0  0  0  0
  -25.4648  -24.2221   18.7527 O   0  0  0  0  0  0  0  0  0  0  0  0
  -27.5981  -20.4898   20.7626 O   0  0  0  0  0  0  0  0  0  0  0  0
  -31.9166  -14.6402   20.3792 O   0  0  0  0  0  0  0  0  0  0  0  0
  -22.0882   -6.7489   21.5669 O   0  0  0  0  0  0  0  0  0  0  0  0
  -30.8844  -24.3946   25.2685 O   0  0  0  0  0  0  0  0  0  1  0  0
  -19.1835   -6.1384   26.2139 F   0  0  0  0  0  0  0  0  0  0  0  0
  -19.9414   -8.3991   22.1248 F   0  0  0  0  0  0  0  0  0  0  0  0
  -32.9257  -19.1551   22.0338 Cl  0  0  0  0  0  0  0  0  0  0  0  0
  -29.7866  -17.6528   26.2661 Cl  0  0  0  0  0  0  0  0  0  0  0  0
  1  2  1  0  0  0  0
  1  5  2  0  0  0  0
  2  6  2  0  0  0  0
  3  8  2  0  0  0  0
  3 17  1  0  0  0  0
  4  9  1  0  0  0  0
  4 17  2  0  0  0  0
  5 20  1  0  0  0  0
  6 22  1  0  0  0  0
  7 10  2  0  0  0  0
  7 21  1  0  0  0  0
  8 25  1  0  0  0  0
  9 25  2  0  0  0  0
 10 26  1  0  0  0  0
 11 12  2  0  0  0  0
 11 27  1  0  0  0  0
 12 28  1  0  0  0  0
 13 23  1  0  0  0  0
 13 26  2  0  0  0  0
 14 24  1  0  0  0  0
 14 30  2  0  0  0  0
 15 24  2  0  0  0  0
 15 31  1  0  0  0  0
 16 28  2  0  0  0  0
 16 29  1  0  0  0  0
 17 32  1  0  0  0  0
 18 30  1  0  0  0  0
 18 31  2  0  0  0  0
 18 34  1  0  0  0  0
 19 32  1  0  0  0  0
 19 33  2  0  0  0  0
 19 36  1  0  0  0  0
 20 22  2  0  0  0  0
 20 42  1  0  0  0  0
 21 23  2  0  0  0  0
 21 43  1  0  0  0  0
 22 51  1  0  0  0  0
 23 44  1  0  0  0  0
 24 72  1  0  0  0  0
 25 81  1  0  0  0  0
 26 82  1  0  0  0  0
 27 29  2  0  0  0  0
 27 81  1  0  0  0  0
 28 83  1  0  0  0  0
 29 84  1  0  0  0  0
 30 85  1  0  0  0  0
 31 86  1  0  0  0  0
 32 65  2  0  0  0  0
 33 67  1  0  0  0  0
 33 70  1  0  0  0  0
 34 35  2  0  0  0  0
 35 37  1  0  0  0  0
 36 71  1  0  0  0  0
 36 76  2  0  0  0  0
 37 54  1  0  0  0  0
 37 66  2  0  0  0  0
 38 52  1  0  0  0  0
 38 73  1  0  0  0  0
 38 77  2  0  0  0  0
 39 62  1  0  0  0  0
 39 68  1  0  0  0  0
 39 78  2  0  0  0  0
 40 63  1  0  0  0  0
 40 74  1  0  0  0  0
 40 79  2  0  0  0  0
 41 69  1  0  0  0  0
 41 72  1  0  0  0  0
 41 80  2  0  0  0  0
 42 45  1  0  0  0  0
 43 52  1  0  0  0  0
 44 68  1  0  0  0  0
 45 47  1  0  0  0  0
 46 48  1  0  0  0  0
 46 49  1  0  0  0  0
 47 51  1  0  0  0  0
 48 53  1  0  0  0  0
 49 69  1  0  0  0  0
 50 53  1  0  0  0  0
 50 69  1  0  0  0  0
 51 73  1  0  0  0  0
 52 68  1  0  0  0  0
 53 67  1  0  0  0  0
 55 63  1  0  0  0  0
 56 64  1  0  0  0  0
 57 64  1  0  0  0  0
 58 64  1  0  0  0  0
 59 75  1  0  0  0  0
 60 61  1  0  0  0  0
 60 66  1  0  0  0  0
 61 82  1  0  0  0  0
 62 64  1  0  0  0  0
 62 74  1  0  0  0  0
 63 75  1  0  0  0  0
 65 67  1  0  0  0  0
M  CHG  1  75   1
M  ISO  4  41 100  61 101  72 100  82 101
M  END
> <Batch ID>
0039

> <Smiles>
CNC(C)C(=O)NC(C(=O)N1Cc2cc([101O:1][101CH2:1]CN=C(C)C=Cc3c(Cl)cc([100NH:0][100C:0](=O)N4CCCC(n5nc(-c6ccc(Oc7ccc(F)cc7F)cc6)c(C(N)=O)c5N)C4)cc3Cl)ccc2CC1C(=O)NC1CCCc2ccccc21)C(C)(C)C

> <Shape>
0.265

> <Color>
0.201

> <Negative vol penalty>
0.000

$$$$

  -OEChem-04042322043D

 87 96  0     1  0  0  0  0  0999 V2000
  -16.4351  -29.2812   23.9001 C   0  0  0  0  0  0  0  0  0  0  0  0
  -17.1931  -28.4658   23.0657 C   0  0  0  0  0  0  0  0  0  0  0  0
  -22.9671   -9.8860   21.4535 C   0  0  0  0  0  0  0  0  0  0  0  0
  -24.2698  -10.5463   23.3781 C   0  0  0  0  0  0  0  0  0  0  0  0
  -17.0488  -30.3116   24.6110 C   0  0  0  0  0  0  0  0  0  0  0  0
  -18.5651  -28.6812   22.9410 C   0  0  0  0  0  0  0  0  0  0  0  0
  -22.9013  -24.4308   22.1423 C   0  0  0  0  0  0  0  0  0  0  0  0
  -22.2569   -8.9827   22.2442 C   0  0  0  0  0  0  0  0  0  0  0  0
  -23.5596   -9.6430   24.1688 C   0  0  0  0  0  0  0  0  0  0  0  0
  -23.5681  -23.9730   21.0068 C   0  0  0  0  0  0  0  0  0  0  0  0
  -22.7331   -5.8978   23.5409 C   0  0  0  0  0  0  0  0  0  0  0  0
  -22.5194   -4.6181   23.0288 C   0  0  0  0  0  0  0  0  0  0  0  0
  -25.3902  -25.4828   21.4755 C   0  0  0  0  0  0  0  0  0  0  0  0
  -30.8330  -20.1290   20.9049 C   0  0  0  0  0  0  0  0  0  0  0  0
  -31.4100  -17.7989   20.6311 C   0  0  0  0  0  0  0  0  0  0  0  0
  -20.1319   -4.9616   23.1671 C   0  0  0  0  0  0  0  0  0  0  0  0
  -23.9737  -10.6678   22.0205 C   0  0  0  0  0  0  0  0  0  0  0  0
  -24.1872  -12.6893   20.4791 C   0  0  0  0  0  0  0  0  0  0  0  0
  -18.4307  -30.5336   24.5024 C   0  0  0  0  0  0  0  0  0  0  0  0
  -23.4699  -25.4275   22.9483 C   0  0  0  0  0  0  0  0  0  0  0  0
  -19.1976  -29.7165   23.6502 C   0  0  0  0  0  0  0  0  0  0  0  0
  -24.7297  -25.9497   22.6222 C   0  0  0  0  0  0  0  0  0  0  0  0
  -29.4986  -19.8310   20.6287 C   0  0  0  0  0  0  0  0  0  0  0  0
  -29.1200  -18.5170   20.3537 C   0  0  0  0  0  0  0  0  0  0  0  0
  -30.0756  -17.5009   20.3549 C   0  0  0  0  0  0  0  0  0  0  0  0
  -22.5531   -8.8612   23.6018 C   0  0  0  0  0  0  0  0  0  0  0  0
  -24.8115  -24.5011   20.6716 C   0  0  0  0  0  0  0  0  0  0  0  0
  -21.6463   -6.7094   23.8661 C   0  0  0  0  0  0  0  0  0  0  0  0
  -21.2188   -4.1500   22.8419 C   0  0  0  0  0  0  0  0  0  0  0  0
  -20.3457   -6.2413   23.6792 C   0  0  0  0  0  0  0  0  0  0  0  0
  -31.7887  -19.1129   20.9061 C   0  0  0  0  0  0  0  0  0  0  0  0
  -24.7081  -11.6007   21.2041 C   0  0  0  0  0  0  0  0  0  0  0  0
  -25.2833  -13.2561   19.8760 C   0  0  0  0  0  0  0  0  0  0  0  0
  -26.7800  -22.0273   19.2945 C   0  0  0  0  0  0  0  0  0  0  0  0
  -25.7103  -21.3225   18.8904 C   0  0  0  0  0  0  0  0  0  0  0  0
  -22.8337  -13.1472   20.3614 C   0  0  0  0  0  0  0  0  0  0  0  0
  -22.6392  -28.3787   23.7876 C   0  0  0  0  0  0  0  0  0  0  0  0
  -25.2400  -28.1453   25.7120 C   0  0  0  0  0  0  0  0  0  0  0  0
  -28.5970  -26.8479   25.4566 C   0  0  0  0  0  0  0  0  0  0  0  0
  -30.5528  -15.0470   20.0433 C   0  0  0  0  0  0  0  0  0  0  0  0
  -19.0414  -31.6897   25.2541 C   0  0  0  0  0  0  0  0  0  0  0  0
  -22.7499  -25.8915   24.1847 C   0  0  0  0  0  0  0  0  0  0  0  0
  -25.3925  -27.0069   23.4657 C   0  0  0  0  0  0  0  0  0  0  0  0
  -20.5628  -31.6148   25.3552 C   0  0  0  0  0  0  0  0  0  0  0  0
  -30.0382  -11.5764   19.4376 C   0  0  0  0  0  0  0  0  0  0  0  0
  -29.1545  -23.6114   19.0262 C   0  0  0  0  0  0  0  0  0  0  0  0
  -21.1718  -31.2743   23.9988 C   0  0  0  0  0  0  0  0  0  0  0  0
  -27.7891  -24.2895   19.0059 C   0  0  0  0  0  0  0  0  0  0  0  0
  -28.5627  -11.3629   19.7835 C   0  0  0  0  0  0  0  0  0  0  0  0
  -30.6991  -12.5882   20.3720 C   0  0  0  0  0  0  0  0  0  0  0  0
  -28.5302  -13.6646   20.8266 C   0  0  0  0  0  0  0  0  0  0  0  0
  -29.0744  -22.1819   18.5006 C   0  0  0  0  0  0  0  0  0  0  0  0
  -20.6926  -29.9029   23.5076 C   0  0  1  0  0  0  0  0  0  0  0  0
  -26.7453  -23.4661   19.7589 C   0  0  1  0  0  0  0  0  0  1  0  0
  -23.1899  -27.2768   24.6480 C   0  0  1  0  0  0  0  0  0  0  0  0
  -27.8051  -12.7022   19.8719 C   0  0  2  0  0  0  0  0  0  0  0  0
  -27.6871  -18.2020   20.0580 C   0  0  0  0  0  0  0  0  0  0  0  0
  -30.1465  -25.9718   27.2254 C   0  0  0  0  0  0  0  0  0  0  0  0
  -26.3191  -30.9988   25.7707 C   0  0  0  0  0  0  0  0  0  0  0  0
  -28.6166  -30.0497   26.0687 C   0  0  0  0  0  0  0  0  0  0  0  0
  -26.8643  -29.6355   27.7952 C   0  0  0  0  0  0  0  0  0  0  0  0
  -28.9554  -24.2777   24.0336 C   0  0  0  0  0  0  0  0  0  0  0  0
  -28.4907  -20.9423   20.6337 C   0  0  0  0  0  0  0  0  0  0  0  0
  -26.7102  -28.4550   25.5648 C   0  0  1  0  0  0  0  0  0  0  0  0
  -29.1465  -25.6082   26.1389 C   0  0  2  0  0  0  0  0  0  0  0  0
  -27.1116  -29.7773   26.2775 C   0  0  0  0  0  0  0  0  0  0  0  0
  -26.0320  -11.4811   21.0746 N   0  0  0  0  0  0  0  0  0  0  0  0
  -26.3524  -12.5017   20.2611 N   0  0  0  0  0  0  0  0  0  0  0  0
  -24.6459  -27.4324   24.6611 N   0  0  0  0  0  0  0  0  0  0  0  0
  -29.9287  -13.8334   20.4018 N   0  0  0  0  0  0  0  0  0  0  0  0
  -25.4274  -14.3211   19.0590 N   0  0  0  0  0  0  0  0  0  0  0  0
  -22.3646  -14.0903   21.2860 N   0  0  0  0  0  0  0  0  0  0  0  0
  -29.7128  -16.1595   20.0778 N   0  0  0  0  0  0  0  0  0  0  0  0
  -21.4028  -28.8442   24.1926 N   0  0  0  0  0  0  0  0  0  0  0  0
  -27.4255  -27.2771   26.0437 N   0  0  0  0  0  0  0  0  0  0  0  0
  -28.0591  -21.3527   19.2527 N   0  3  1  0  0  0  0  0  0  0  0  0
  -29.8290  -24.7303   25.1467 N   0  3  0  0  0  0  0  0  0  0  0  0
  -22.0579  -12.7201   19.4730 O   0  0  0  0  0  0  0  0  0  0  0  0
  -23.2887  -28.7780   22.8282 O   0  0  0  0  0  0  0  0  0  0  0  0
  -24.6426  -28.5158   26.7256 O   0  0  0  0  0  0  0  0  0  0  0  0
  -29.1534  -27.3842   24.5009 O   0  0  0  0  0  0  0  0  0  0  0  0
  -31.7377  -15.0916   19.7027 O   0  0  0  0  0  0  0  0  0  0  0  0
  -21.8601   -7.9800   24.3737 O   0  0  0  0  0  0  0  0  0  0  0  0
  -25.4642  -24.0565   19.5634 O   0  0  0  0  0  0  0  0  0  1  0  0
  -21.0137   -2.9217   22.3487 F   0  0  0  0  0  0  0  0  0  0  0  0
  -19.2975   -7.0168   23.9887 F   0  0  0  0  0  0  0  0  0  0  0  0
  -33.4351  -19.4810   21.2458 Cl  0  0  0  0  0  0  0  0  0  0  0  0
  1  2  1  0  0  0  0
  1  5  2  0  0  0  0
  2  6  2  0  0  0  0
  3  8  2  0  0  0  0
  3 17  1  0  0  0  0
  4  9  1  0  0  0  0
  4 17  2  0  0  0  0
  5 19  1  0  0  0  0
  6 21  1  0  0  0  0
  7 10  2  0  0  0  0
  7 20  1  0  0  0  0
  8 26  1  0  0  0  0
  9 26  2  0  0  0  0
 10 27  1  0  0  0  0
 11 12  2  0  0  0  0
 11 28  1  0  0  0  0
 12 29  1  0  0  0  0
 13 22  1  0  0  0  0
 13 27  2  0  0  0  0
 14 23  1  0  0  0  0
 14 31  2  0  0  0  0
 15 25  2  0  0  0  0
 15 31  1  0  0  0  0
 16 29  2  0  0  0  0
 16 30  1  0  0  0  0
 17 32  1  0  0  0  0
 18 32  1  0  0  0  0
 18 33  2  0  0  0  0
 18 36  1  0  0  0  0
 19 21  2  0  0  0  0
 19 41  1  0  0  0  0
 20 22  2  0  0  0  0
 20 42  1  0  0  0  0
 21 53  1  0  0  0  0
 22 43  1  0  0  0  0
 23 24  2  0  0  0  0
 23 63  1  0  0  0  0
 24 25  1  0  0  0  0
 24 57  1  0  0  0  0
 25 73  1  0  0  0  0
 26 83  1  0  0  0  0
 27 84  1  0  0  0  0
 28 30  2  0  0  0  0
 28 83  1  0  0  0  0
 29 85  1  0  0  0  0
 30 86  1  0  0  0  0
 31 87  1  0  0  0  0
 32 67  2  0  0  0  0
 33 68  1  0  0  0  0
 33 71  1  0  0  0  0
 34 35  2  0  0  0  0
 34 54  1  0  0  0  0
 34 76  1  0  0  0  0
 36 72  1  0  0  0  0
 36 78  2  0  0  0  0
 37 55  1  0  0  0  0
 37 74  1  0  0  0  0
 37 79  2  0  0  0  0
 38 64  1  0  0  0  0
 38 69  1  0  0  0  0
 38 80  2  0  0  0  0
 39 65  1  0  0  0  0
 39 75  1  0  0  0  0
 39 81  2  0  0  0  0
 40 70  1  0  0  0  0
 40 73  1  0  0  0  0
 40 82  2  0  0  0  0
 41 44  1  0  0  0  0
 42 55  1  0  0  0  0
 43 69  1  0  0  0  0
 44 47  1  0  0  0  0
 45 49  1  0  0  0  0
 45 50  1  0  0  0  0
 46 48  1  0  0  0  0
 46 52  1  0  0  0  0
 47 53  1  0  0  0  0
 48 54  1  0  0  0  0
 49 56  1  0  0  0  0
 50 70  1  0  0  0  0
 51 56  1  0  0  0  0
 51 70  1  0  0  0  0
 52 76  1  0  0  0  0
 53 74  1  0  0  0  0
 54 84  1  0  0  0  0
 55 69  1  0  0  0  0
 56 68  1  0  0  0  0
 58 65  1  0  0  0  0
 59 66  1  0  0  0  0
 60 66  1  0  0  0  0
 61 66  1  0  0  0  0
 62 77  1  0  0  0  0
 63 76  1  0  0  0  0
 64 66  1  0  0  0  0
 64 75  1  0  0  0  0
 65 77  1  0  0  0  0
 67 68  1  0  0  0  0
M  CHG  2  76   1  77   1
M  ISO  4  40 100  54 101  73 100  84 101
M  END
> <Batch ID>
0039

> <Smiles>
C=C1N(Cc2cc(Cl)cc([100NH:0][100C:0](=O)N3CCCC(n4nc(-c5ccc(Oc6ccc(F)cc6F)cc5)c(C(N)=O)c4N)C3)c2C)CCC[101CH:1]1[101O:1]c1ccc2c(c1)CN(C(=O)C(NC(=O)C(C)NC)C(C)(C)C)C(C(=O)NC1CCCc3ccccc31)C2

> <Shape>
0.261

> <Color>
0.118

> <Negative vol penalty>
0.000

$$$$

  -OEChem-04042322043D

 90 99  0     1  0  0  0  0  0999 V2000
  -24.0762  -35.1089   21.7698 C   0  0  0  0  0  0  0  0  0  0  0  0
  -24.9465  -34.0236   21.7811 C   0  0  0  0  0  0  0  0  0  0  0  0
  -24.5522   -9.7666   21.5380 C   0  0  0  0  0  0  0  0  0  0  0  0
  -24.8610  -10.9070   23.6454 C   0  0  0  0  0  0  0  0  0  0  0  0
  -22.7741  -34.9618   22.2461 C   0  0  0  0  0  0  0  0  0  0  0  0
  -24.5155  -32.7908   22.2698 C   0  0  0  0  0  0  0  0  0  0  0  0
  -25.8956  -28.9318   19.2952 C   0  0  0  0  0  0  0  0  0  0  0  0
  -27.2683  -20.0975   21.5074 C   0  0  0  0  0  0  0  0  0  0  0  0
  -24.2811   -8.5803   22.2196 C   0  0  0  0  0  0  0  0  0  0  0  0
  -24.5899   -9.7206   24.3271 C   0  0  0  0  0  0  0  0  0  0  0  0
  -27.2174  -28.4980   19.3873 C   0  0  0  0  0  0  0  0  0  0  0  0
  -21.6736   -7.1933   23.8658 C   0  0  0  0  0  0  0  0  0  0  0  0
  -20.5854   -6.4334   23.4370 C   0  0  0  0  0  0  0  0  0  0  0  0
  -27.3104  -21.4038   21.9944 C   0  0  0  0  0  0  0  0  0  0  0  0
  -26.5141  -26.6738   20.8003 C   0  0  0  0  0  0  0  0  0  0  0  0
  -29.6753  -20.0971   21.3000 C   0  0  0  0  0  0  0  0  0  0  0  0
  -22.0617   -4.5757   22.9824 C   0  0  0  0  0  0  0  0  0  0  0  0
  -24.8422  -10.9300   22.2509 C   0  0  0  0  0  0  0  0  0  0  0  0
  -24.1972  -13.1394   21.1508 C   0  0  0  0  0  0  0  0  0  0  0  0
  -22.3240  -33.7241   22.7320 C   0  0  0  0  0  0  0  0  0  0  0  0
  -24.8729  -28.2450   19.9651 C   0  0  0  0  0  0  0  0  0  0  0  0
  -23.2066  -32.6274   22.7543 C   0  0  0  0  0  0  0  0  0  0  0  0
  -25.1798  -27.0994   20.7131 C   0  0  0  0  0  0  0  0  0  0  0  0
  -29.7175  -21.4035   21.7870 C   0  0  0  0  0  0  0  0  0  0  0  0
  -28.4507  -19.4440   21.1602 C   0  0  0  0  0  0  0  0  0  0  0  0
  -24.2999   -8.5573   23.6142 C   0  0  0  0  0  0  0  0  0  0  0  0
  -27.5273  -27.3706   20.1422 C   0  0  0  0  0  0  0  0  0  0  0  0
  -22.9559   -6.6444   23.8529 C   0  0  0  0  0  0  0  0  0  0  0  0
  -20.7794   -5.1246   22.9953 C   0  0  0  0  0  0  0  0  0  0  0  0
  -23.1500   -5.3357   23.4112 C   0  0  0  0  0  0  0  0  0  0  0  0
  -28.5350  -22.0569   22.1342 C   0  0  0  0  0  0  0  0  0  0  0  0
  -25.1229  -12.1557   21.5473 C   0  0  0  0  0  0  0  0  0  0  0  0
  -24.9589  -14.0947   20.5233 C   0  0  0  0  0  0  0  0  0  0  0  0
  -22.7759  -13.1857   21.3336 C   0  0  0  0  0  0  0  0  0  0  0  0
  -22.7958  -28.9897   22.2531 C   0  0  0  0  0  0  0  0  0  0  0  0
  -21.6132  -26.0406   21.5999 C   0  0  0  0  0  0  0  0  0  0  0  0
  -22.9497  -22.7646   20.8936 C   0  0  0  0  0  0  0  0  0  0  0  0
  -29.4874  -17.3250   20.2764 C   0  0  0  0  0  0  0  0  0  0  0  0
  -20.9224  -33.6258   23.2803 C   0  0  0  0  0  0  0  0  0  0  0  0
  -23.4485  -28.7101   19.8340 C   0  0  0  0  0  0  0  0  0  0  0  0
  -24.1157  -26.3149   21.4348 C   0  0  0  0  0  0  0  0  0  0  0  0
  -20.4279  -32.1898   23.4340 C   0  0  0  0  0  0  0  0  0  0  0  0
  -29.7985  -13.9993   19.0432 C   0  0  0  0  0  0  0  0  0  0  0  0
  -32.7590  -25.1470   20.3566 C   0  0  0  0  0  0  0  0  0  0  0  0
  -21.4932  -31.3270   24.1030 C   0  0  0  0  0  0  0  0  0  0  0  0
  -31.5385  -26.0716   20.3599 C   0  0  0  0  0  0  0  0  0  0  0  0
  -30.0025  -24.7549   18.7104 C   0  0  0  0  0  0  0  0  0  0  0  0
  -28.5337  -13.3042   19.5522 C   0  0  0  0  0  0  0  0  0  0  0  0
  -30.9375  -23.5932   18.3626 C   0  0  0  0  0  0  0  0  0  0  0  0
  -30.3426  -15.0019   20.0594 C   0  0  0  0  0  0  0  0  0  0  0  0
  -28.1044  -15.2973   21.0455 C   0  0  0  0  0  0  0  0  0  0  0  0
  -32.5948  -23.8478   21.1369 C   0  0  0  0  0  0  0  0  0  0  0  0
  -22.7685  -31.2676   23.2536 C   0  0  1  0  0  0  0  0  0  0  0  0
  -22.5569  -28.2339   20.9766 C   0  0  1  0  0  0  0  0  0  0  0  0
  -30.7182  -26.0761   19.0553 C   0  0  1  0  0  0  0  0  0  0  0  0
  -27.4826  -14.3254   20.0294 C   0  0  2  0  0  0  0  0  0  0  0  0
  -31.1300  -22.5243   19.4505 C   0  0  1  0  0  0  0  0  0  0  0  0
  -32.0133  -20.9090   17.7596 C   0  0  0  0  0  0  0  0  0  0  0  0
  -21.9785  -20.8525   19.5905 C   0  0  0  0  0  0  0  0  0  0  0  0
  -20.6133  -25.0759   24.3165 C   0  0  0  0  0  0  0  0  0  0  0  0
  -21.1266  -22.7339   23.5958 C   0  0  0  0  0  0  0  0  0  0  0  0
  -19.4295  -24.0754   22.3538 C   0  0  0  0  0  0  0  0  0  0  0  0
  -25.3176  -22.6160   19.1244 C   0  0  0  0  0  0  0  0  0  0  0  0
  -31.0543  -22.0711   21.9227 C   0  0  0  0  0  0  0  0  0  0  0  0
  -29.6736  -27.1997   19.1322 C   0  0  0  0  0  0  0  0  0  1  0  0
  -32.2582  -21.5625   19.0796 C   0  0  0  0  0  0  0  0  0  0  0  0
  -21.8807  -24.6447   22.1088 C   0  0  1  0  0  0  0  0  0  0  0  0
  -22.9259  -22.0418   19.5589 C   0  0  2  0  0  0  0  0  0  0  0  0
  -20.7828  -24.1524   23.0936 C   0  0  0  0  0  0  0  0  0  0  0  0
  -26.3768  -12.4580   21.2005 N   0  0  0  0  0  0  0  0  0  0  0  0
  -26.2444  -13.6425   20.5795 N   0  0  0  0  0  0  0  0  0  0  0  0
  -22.7389  -26.8132   21.2812 N   0  0  0  0  0  0  0  0  0  0  0  0
  -29.2926  -15.9400   20.4623 N   0  0  0  0  0  0  0  0  0  0  0  0
  -24.6478  -15.2689   19.9343 N   0  0  0  0  0  0  0  0  0  0  0  0
  -22.1529  -12.1216   21.9998 N   0  0  0  0  0  0  0  0  0  0  0  0
  -28.4077  -18.1166   20.6664 N   0  0  0  0  0  0  0  0  0  0  0  0
  -22.5957  -30.3527   22.1457 N   0  0  0  0  0  0  0  0  0  0  0  0
  -22.0444  -23.8041   20.9278 N   0  0  0  0  0  0  0  0  0  0  0  0
  -31.3141  -23.1060   20.8441 N   0  3  1  0  0  0  0  0  0  0  0  0
  -24.2887  -21.5480   19.2129 N   0  3  0  0  0  0  0  0  0  0  0  0
  -22.0768  -14.1345   20.9039 O   0  0  0  0  0  0  0  0  0  0  0  0
  -23.1350  -28.3811   23.2612 O   0  0  0  0  0  0  0  0  0  0  0  0
  -20.4481  -26.4286   21.4826 O   0  0  0  0  0  0  0  0  0  0  0  0
  -23.6942  -22.4373   21.8152 O   0  0  0  0  0  0  0  0  0  0  0  0
  -30.5241  -17.7737   19.7805 O   0  0  0  0  0  0  0  0  0  0  0  0
  -24.0352   -7.3999   24.2797 O   0  0  0  0  0  0  0  0  0  0  0  0
  -28.8298  -26.9411   20.2352 O   0  0  0  0  0  0  0  0  0  1  0  0
  -19.7340   -4.3945   22.5850 F   0  0  0  0  0  0  0  0  0  0  0  0
  -24.3793   -4.8025   23.3976 F   0  0  0  0  0  0  0  0  0  0  0  0
  -28.5475  -23.6727   22.7408 Cl  0  0  0  0  0  0  0  0  0  0  0  0
  1  2  1  0  0  0  0
  1  5  2  0  0  0  0
  2  6  2  0  0  0  0
  3  9  2  0  0  0  0
  3 18  1  0  0  0  0
  4 10  1  0  0  0  0
  4 18  2  0  0  0  0
  5 20  1  0  0  0  0
  6 22  1  0  0  0  0
  7 11  2  0  0  0  0
  7 21  1  0  0  0  0
  8 14  2  0  0  0  0
  8 25  1  0  0  0  0
  9 26  1  0  0  0  0
 10 26  2  0  0  0  0
 11 27  1  0  0  0  0
 12 13  2  0  0  0  0
 12 28  1  0  0  0  0
 13 29  1  0  0  0  0
 14 31  1  0  0  0  0
 15 23  1  0  0  0  0
 15 27  2  0  0  0  0
 16 24  1  0  0  0  0
 16 25  2  0  0  0  0
 17 29  2  0  0  0  0
 17 30  1  0  0  0  0
 18 32  1  0  0  0  0
 19 32  1  0  0  0  0
 19 33  2  0  0  0  0
 19 34  1  0  0  0  0
 20 22  2  0  0  0  0
 20 39  1  0  0  0  0
 21 23  2  0  0  0  0
 21 40  1  0  0  0  0
 22 53  1  0  0  0  0
 23 41  1  0  0  0  0
 24 31  2  0  0  0  0
 24 64  1  0  0  0  0
 25 76  1  0  0  0  0
 26 86  1  0  0  0  0
 27 87  1  0  0  0  0
 28 30  2  0  0  0  0
 28 86  1  0  0  0  0
 29 88  1  0  0  0  0
 30 89  1  0  0  0  0
 31 90  1  0  0  0  0
 32 70  2  0  0  0  0
 33 71  1  0  0  0  0
 33 74  1  0  0  0  0
 34 75  1  0  0  0  0
 34 81  2  0  0  0  0
 35 54  1  0  0  0  0
 35 77  1  0  0  0  0
 35 82  2  0  0  0  0
 36 67  1  0  0  0  0
 36 72  1  0  0  0  0
 36 83  2  0  0  0  0
 37 68  1  0  0  0  0
 37 78  1  0  0  0  0
 37 84  2  0  0  0  0
 38 73  1  0  0  0  0
 38 76  1  0  0  0  0
 38 85  2  0  0  0  0
 39 42  1  0  0  0  0
 40 54  1  0  0  0  0
 41 72  1  0  0  0  0
 42 45  1  0  0  0  0
 43 48  1  0  0  0  0
 43 50  1  0  0  0  0
 44 46  1  0  0  0  0
 44 52  1  0  0  0  0
 45 53  1  0  0  0  0
 46 55  1  0  0  0  0
 47 49  1  0  0  0  0
 47 55  1  0  0  0  0
 48 56  1  0  0  0  0
 49 57  1  0  0  0  0
 50 73  1  0  0  0  0
 51 56  1  0  0  0  0
 51 73  1  0  0  0  0
 52 79  1  0  0  0  0
 53 77  1  0  0  0  0
 54 72  1  0  0  0  0
 55 65  1  0  0  0  0
 56 71  1  0  0  0  0
 57 66  1  0  0  0  0
 57 79  1  0  0  0  0
 58 66  1  0  0  0  0
 59 68  1  0  0  0  0
 60 69  1  0  0  0  0
 61 69  1  0  0  0  0
 62 69  1  0  0  0  0
 63 80  1  0  0  0  0
 64 79  1  0  0  0  0
 65 87  1  0  0  0  0
 67 69  1  0  0  0  0
 67 78  1  0  0  0  0
 68 80  1  0  0  0  0
 70 71  1  0  0  0  0
M  CHG  2  79   1  80   1
M  ISO  4  38 100  65 101  76 100  87 101
M  END
> <Batch ID>
0039

> <Smiles>
CCC1CCC([101CH2:1][101O:1]c2ccc3c(c2)CN(C(=O)C(NC(=O)C(C)NC)C(C)(C)C)C(C(=O)NC2CCCc4ccccc42)C3)CCCN1Cc1cc([100NH:0][100C:0](=O)N2CCCC(n3nc(-c4ccc(Oc5ccc(F)cc5F)cc4)c(C(N)=O)c3N)C2)ccc1Cl

> <Shape>
0.281

> <Color>
0.144

> <Negative vol penalty>
0.000

$$$$

  -OEChem-04042322043D

 83 91  0     1  0  0  0  0  0999 V2000
  -28.9457  -34.3362   19.9299 C   0  0  0  0  0  0  0  0  0  0  0  0
  -29.9294  -33.6315   20.6162 C   0  0  0  0  0  0  0  0  0  0  0  0
  -23.0649   -9.9318   19.9277 C   0  0  0  0  0  0  0  0  0  0  0  0
  -23.8390   -9.9029   22.2161 C   0  0  0  0  0  0  0  0  0  0  0  0
  -27.6791  -33.7782   19.7617 C   0  0  0  0  0  0  0  0  0  0  0  0
  -29.6468  -32.3687   21.1357 C   0  0  0  0  0  0  0  0  0  0  0  0
  -32.7556  -26.0515   22.4563 C   0  0  0  0  0  0  0  0  0  0  0  0
  -32.7772  -17.3726   23.4457 C   0  0  0  0  0  0  0  0  0  0  0  0
  -32.1525  -16.5148   22.5404 C   0  0  0  0  0  0  0  0  0  0  0  0
  -22.3083   -8.7852   20.1691 C   0  0  0  0  0  0  0  0  0  0  0  0
  -23.0824   -8.7562   22.4576 C   0  0  0  0  0  0  0  0  0  0  0  0
  -32.9356  -25.1351   23.4915 C   0  0  0  0  0  0  0  0  0  0  0  0
  -19.8484   -7.9914   23.0713 C   0  0  0  0  0  0  0  0  0  0  0  0
  -19.0983   -7.9473   24.2465 C   0  0  0  0  0  0  0  0  0  0  0  0
  -30.7364  -24.2374   23.0713 C   0  0  0  0  0  0  0  0  0  0  0  0
  -20.3201   -5.9863   24.9527 C   0  0  0  0  0  0  0  0  0  0  0  0
  -23.8303  -10.4907   20.9512 C   0  0  0  0  0  0  0  0  0  0  0  0
  -24.2027  -13.0127   20.8580 C   0  0  0  0  0  0  0  0  0  0  0  0
  -27.3837  -32.5039   20.2710 C   0  0  0  0  0  0  0  0  0  0  0  0
  -31.5583  -26.0749   21.7267 C   0  0  0  0  0  0  0  0  0  0  0  0
  -28.3746  -31.7937   20.9753 C   0  0  0  0  0  0  0  0  0  0  0  0
  -30.5447  -25.1534   22.0256 C   0  0  0  0  0  0  0  0  0  0  0  0
  -32.0135  -18.2480   24.2178 C   0  0  0  0  0  0  0  0  0  0  0  0
  -30.6251  -18.2656   24.0846 C   0  0  0  0  0  0  0  0  0  0  0  0
  -30.0004  -17.4078   23.1793 C   0  0  0  0  0  0  0  0  0  0  0  0
  -30.7641  -16.5324   22.4072 C   0  0  0  0  0  0  0  0  0  0  0  0
  -22.3171   -8.1974   21.4340 C   0  0  0  0  0  0  0  0  0  0  0  0
  -31.9248  -24.2299   23.8011 C   0  0  0  0  0  0  0  0  0  0  0  0
  -20.8343   -7.0329   22.8368 C   0  0  0  0  0  0  0  0  0  0  0  0
  -19.3341   -6.9447   25.1872 C   0  0  0  0  0  0  0  0  0  0  0  0
  -21.0702   -6.0304   23.7775 C   0  0  0  0  0  0  0  0  0  0  0  0
  -24.6125  -11.6749   20.7023 C   0  0  0  0  0  0  0  0  0  0  0  0
  -25.3018  -13.7528   20.4964 C   0  0  0  0  0  0  0  0  0  0  0  0
  -22.9413  -13.5393   21.2909 C   0  0  0  0  0  0  0  0  0  0  0  0
  -29.2561  -28.2169   21.2623 C   0  0  0  0  0  0  0  0  0  0  0  0
  -28.1564  -26.0032   19.1617 C   0  0  0  0  0  0  0  0  0  0  0  0
  -28.0524  -22.7342   18.1871 C   0  0  0  0  0  0  0  0  0  0  0  0
  -30.7815  -14.7288   20.6485 C   0  0  0  0  0  0  0  0  0  0  0  0
  -25.9860  -31.9619   20.1053 C   0  0  0  0  0  0  0  0  0  0  0  0
  -31.3902  -27.0519   20.5955 C   0  0  0  0  0  0  0  0  0  0  0  0
  -29.2484  -25.1239   21.2592 C   0  0  0  0  0  0  0  0  0  0  0  0
  -25.8804  -30.4608   20.3615 C   0  0  0  0  0  0  0  0  0  0  0  0
  -29.6226  -12.3564   18.2598 C   0  0  0  0  0  0  0  0  0  0  0  0
  -26.6197  -30.0843   21.6415 C   0  0  0  0  0  0  0  0  0  0  0  0
  -28.1821  -12.0777   18.6951 C   0  0  0  0  0  0  0  0  0  0  0  0
  -30.5479  -12.5600   19.4581 C   0  0  0  0  0  0  0  0  0  0  0  0
  -28.6587  -13.2919   20.8597 C   0  0  0  0  0  0  0  0  0  0  0  0
  -28.1139  -30.4109   21.5320 C   0  0  1  0  0  0  0  0  0  0  0  0
  -29.9286  -27.3268   20.2557 C   0  0  1  0  0  0  0  0  0  0  0  0
  -27.6765  -13.1443   19.6861 C   0  0  2  0  0  0  0  0  0  0  0  0
  -29.8087  -19.2056   24.9141 C   0  0  0  0  0  0  0  0  0  0  0  0
  -28.5103  -17.4284   23.0380 C   0  0  0  0  0  0  0  0  0  0  0  0
  -27.0399  -21.2261   16.4557 C   0  0  0  0  0  0  0  0  0  0  0  0
  -25.4767  -26.1384   20.6146 C   0  0  0  0  0  0  0  0  0  0  0  0
  -24.8393  -23.9928   19.4929 C   0  0  0  0  0  0  0  0  0  0  0  0
  -25.3073  -26.0237   18.1221 C   0  0  0  0  0  0  0  0  0  0  0  0
  -30.7110  -21.9304   17.1649 C   0  0  0  0  0  0  0  0  0  0  0  0
  -32.7106  -19.1600   25.1839 C   0  0  0  0  0  0  0  0  0  0  0  0
  -33.4023  -21.5090   25.6758 C   0  0  0  0  0  0  0  0  0  0  0  0
  -33.4314  -22.8994   25.0723 C   0  0  0  0  0  0  0  0  0  1  0  0
  -27.2243  -24.8187   19.2470 C   0  0  1  0  0  0  0  0  0  0  0  0
  -28.2405  -22.0814   16.8295 C   0  0  2  0  0  0  0  0  0  0  0  0
  -25.7354  -25.2450   19.3851 C   0  0  0  0  0  0  0  0  0  0  0  0
  -25.8734  -11.5683   20.2749 N   0  0  0  0  0  0  0  0  0  0  0  0
  -26.2654  -12.8486   20.1589 N   0  0  0  0  0  0  0  0  0  0  0  0
  -29.1292  -26.1032   20.1663 N   0  0  0  0  0  0  0  0  0  0  0  0
  -30.0072  -13.5875   20.3508 N   0  0  0  0  0  0  0  0  0  0  0  0
  -25.5282  -15.0823   20.4374 N   0  0  0  0  0  0  0  0  0  0  0  0
  -21.9203  -12.6388   21.6241 N   0  0  0  0  0  0  0  0  0  0  0  0
  -30.1507  -15.6522   21.4815 N   0  0  0  0  0  0  0  0  0  0  0  0
  -28.7934  -29.4091   20.7388 N   0  0  0  0  0  0  0  0  0  0  0  0
  -27.5037  -23.9943   18.0762 N   0  0  0  0  0  0  0  0  0  0  0  0
  -29.4521  -21.2137   16.8354 N   0  3  0  0  0  0  0  0  0  0  0  0
  -32.7709  -20.5705   24.7142 N   0  3  0  0  0  0  0  0  0  0  0  0
  -22.7207  -14.7719   21.3638 O   0  0  0  0  0  0  0  0  0  0  0  0
  -29.1626  -27.8486   22.4273 O   0  0  0  0  0  0  0  0  0  0  0  0
  -28.0306  -26.8061   18.2337 O   0  0  0  0  0  0  0  0  0  0  0  0
  -28.3581  -22.1802   19.2407 O   0  0  0  0  0  0  0  0  0  0  0  0
  -31.9097  -14.8890   20.1757 O   0  0  0  0  0  0  0  0  0  0  0  0
  -21.5787   -7.0785   21.6700 O   0  0  0  0  0  0  0  0  0  0  0  0
  -32.0977  -23.3348   24.8115 O   0  0  0  0  0  0  0  0  0  1  0  0
  -18.6148   -6.9034   26.3163 F   0  0  0  0  0  0  0  0  0  0  0  0
  -22.0168   -5.1075   23.5584 F   0  0  0  0  0  0  0  0  0  0  0  0
  1  2  1  0  0  0  0
  1  5  2  0  0  0  0
  2  6  2  0  0  0  0
  3 10  2  0  0  0  0
  3 17  1  0  0  0  0
  4 11  1  0  0  0  0
  4 17  2  0  0  0  0
  5 19  1  0  0  0  0
  6 21  1  0  0  0  0
  7 12  2  0  0  0  0
  7 20  1  0  0  0  0
  8  9  2  0  0  0  0
  8 23  1  0  0  0  0
  9 26  1  0  0  0  0
 10 27  1  0  0  0  0
 11 27  2  0  0  0  0
 12 28  1  0  0  0  0
 13 14  2  0  0  0  0
 13 29  1  0  0  0  0
 14 30  1  0  0  0  0
 15 22  1  0  0  0  0
 15 28  2  0  0  0  0
 16 30  2  0  0  0  0
 16 31  1  0  0  0  0
 17 32  1  0  0  0  0
 18 32  1  0  0  0  0
 18 33  2  0  0  0  0
 18 34  1  0  0  0  0
 19 21  2  0  0  0  0
 19 39  1  0  0  0  0
 20 22  2  0  0  0  0
 20 40  1  0  0  0  0
 21 48  1  0  0  0  0
 22 41  1  0  0  0  0
 23 24  2  0  0  0  0
 23 58  1  0  0  0  0
 24 25  1  0  0  0  0
 24 51  1  0  0  0  0
 25 26  2  0  0  0  0
 25 52  1  0  0  0  0
 26 70  1  0  0  0  0
 27 80  1  0  0  0  0
 28 81  1  0  0  0  0
 29 31  2  0  0  0  0
 29 80  1  0  0  0  0
 30 82  1  0  0  0  0
 31 83  1  0  0  0  0
 32 64  2  0  0  0  0
 33 65  1  0  0  0  0
 33 68  1  0  0  0  0
 34 69  1  0  0  0  0
 34 75  2  0  0  0  0
 35 49  1  0  0  0  0
 35 71  1  0  0  0  0
 35 76  2  0  0  0  0
 36 61  1  0  0  0  0
 36 66  1  0  0  0  0
 36 77  2  0  0  0  0
 37 62  1  0  0  0  0
 37 72  1  0  0  0  0
 37 78  2  0  0  0  0
 38 67  1  0  0  0  0
 38 70  1  0  0  0  0
 38 79  2  0  0  0  0
 39 42  1  0  0  0  0
 40 49  1  0  0  0  0
 41 66  1  0  0  0  0
 42 44  1  0  0  0  0
 43 45  1  0  0  0  0
 43 46  1  0  0  0  0
 44 48  1  0  0  0  0
 45 50  1  0  0  0  0
 46 67  1  0  0  0  0
 47 50  1  0  0  0  0
 47 67  1  0  0  0  0
 48 71  1  0  0  0  0
 49 66  1  0  0  0  0
 50 65  1  0  0  0  0
 53 62  1  0  0  0  0
 54 63  1  0  0  0  0
 55 63  1  0  0  0  0
 56 63  1  0  0  0  0
 57 73  1  0  0  0  0
 58 74  1  0  0  0  0
 59 60  1  0  0  0  0
 59 74  1  0  0  0  0
 60 81  1  0  0  0  0
 61 63  1  0  0  0  0
 61 72  1  0  0  0  0
 62 73  1  0  0  0  0
 64 65  1  0  0  0  0
M  CHG  2  73   1  74   1
M  ISO  4  38 100  60 101  70 100  81 101
M  END
> <Batch ID>
0039

> <Smiles>
CNC(C)C(=O)NC(C(=O)N1Cc2cc([101O:1][101CH2:1]CNCc3ccc([100NH:0][100C:0](=O)N4CCCC(n5nc(-c6ccc(Oc7ccc(F)cc7F)cc6)c(C(N)=O)c5N)C4)c(C)c3C)ccc2CC1C(=O)NC1CCCc2ccccc21)C(C)(C)C

> <Shape>
0.260

> <Color>
0.200

> <Negative vol penalty>
0.000

$$$$

  -OEChem-04042322043D

 93102  0     1  0  0  0  0  0999 V2000
  -30.4128  -33.4918   21.2982 C   0  0  0  0  0  0  0  0  0  0  0  0
  -30.3308  -32.3798   22.1302 C   0  0  0  0  0  0  0  0  0  0  0  0
  -23.0785   -9.8155   20.0084 C   0  0  0  0  0  0  0  0  0  0  0  0
  -23.8005   -9.9292   22.3111 C   0  0  0  0  0  0  0  0  0  0  0  0
  -29.8954  -33.4331   20.0049 C   0  0  0  0  0  0  0  0  0  0  0  0
  -29.7303  -31.2086   21.6695 C   0  0  0  0  0  0  0  0  0  0  0  0
  -33.3977  -25.0138   21.4544 C   0  0  0  0  0  0  0  0  0  0  0  0
  -22.3270   -8.6772   20.3001 C   0  0  0  0  0  0  0  0  0  0  0  0
  -23.0490   -8.7909   22.6030 C   0  0  0  0  0  0  0  0  0  0  0  0
  -33.9668  -23.7464   21.5797 C   0  0  0  0  0  0  0  0  0  0  0  0
  -19.8089   -8.0300   23.1888 C   0  0  0  0  0  0  0  0  0  0  0  0
  -19.0326   -8.0473   24.3476 C   0  0  0  0  0  0  0  0  0  0  0  0
  -32.0048  -22.7541   20.5728 C   0  0  0  0  0  0  0  0  0  0  0  0
  -32.4214  -17.2329   23.8033 C   0  0  0  0  0  0  0  0  0  0  0  0
  -20.2557   -6.1439   25.1953 C   0  0  0  0  0  0  0  0  0  0  0  0
  -23.8153  -10.4415   21.0139 C   0  0  0  0  0  0  0  0  0  0  0  0
  -24.1669  -12.9573   20.7803 C   0  0  0  0  0  0  0  0  0  0  0  0
  -29.2970  -32.2575   19.5248 C   0  0  0  0  0  0  0  0  0  0  0  0
  -32.1349  -25.1579   20.8731 C   0  0  0  0  0  0  0  0  0  0  0  0
  -29.2033  -31.1345   20.3689 C   0  0  0  0  0  0  0  0  0  0  0  0
  -31.4349  -24.0224   20.4333 C   0  0  0  0  0  0  0  0  0  0  0  0
  -31.8164  -18.4725   24.0104 C   0  0  0  0  0  0  0  0  0  0  0  0
  -30.6328  -18.7908   23.3445 C   0  0  0  0  0  0  0  0  0  0  0  0
  -30.6592  -16.6299   22.2644 C   0  0  0  0  0  0  0  0  0  0  0  0
  -22.3122   -8.1649   21.5974 C   0  0  0  0  0  0  0  0  0  0  0  0
  -33.2720  -22.6193   21.1402 C   0  0  0  0  0  0  0  0  0  0  0  0
  -20.8085   -7.0697   23.0332 C   0  0  0  0  0  0  0  0  0  0  0  0
  -19.2560   -7.1043   25.3508 C   0  0  0  0  0  0  0  0  0  0  0  0
  -21.0319   -6.1267   24.0365 C   0  0  0  0  0  0  0  0  0  0  0  0
  -31.8429  -16.3116   22.9303 C   0  0  0  0  0  0  0  0  0  0  0  0
  -30.0542  -17.8695   22.4715 C   0  0  0  0  0  0  0  0  0  0  0  0
  -24.5922  -11.6171   20.7129 C   0  0  0  0  0  0  0  0  0  0  0  0
  -25.2672  -13.6863   20.4002 C   0  0  0  0  0  0  0  0  0  0  0  0
  -35.0764  -21.3270   25.7054 C   0  0  0  0  0  0  0  0  0  0  0  0
  -36.0009  -22.3008   25.7087 C   0  0  0  0  0  0  0  0  0  0  0  0
  -33.7134  -21.5025   25.2330 C   0  0  0  0  0  0  0  0  0  0  0  0
  -32.9118  -22.4934   25.6586 C   0  0  0  0  0  0  0  0  0  0  0  0
  -22.8913  -13.4953   21.1532 C   0  0  0  0  0  0  0  0  0  0  0  0
  -29.3955  -27.4902   19.8090 C   0  0  0  0  0  0  0  0  0  0  0  0
  -29.6603  -25.3655   17.6122 C   0  0  0  0  0  0  0  0  0  0  0  0
  -30.5538  -23.0929   15.2301 C   0  0  0  0  0  0  0  0  0  0  0  0
  -30.7330  -14.7263   20.6160 C   0  0  0  0  0  0  0  0  0  0  0  0
  -28.7096  -32.2569   18.1357 C   0  0  0  0  0  0  0  0  0  0  0  0
  -31.4571  -26.4976   20.7739 C   0  0  0  0  0  0  0  0  0  0  0  0
  -30.0645  -24.2219   19.8458 C   0  0  0  0  0  0  0  0  0  0  0  0
  -37.4700  -22.0134   25.8342 C   0  0  0  0  0  0  0  0  0  0  0  0
  -28.4244  -30.8579   17.5956 C   0  0  0  0  0  0  0  0  0  0  0  0
  -38.2857  -22.5079   24.6229 C   0  0  0  0  0  0  0  0  0  0  0  0
  -37.6199  -22.3756   23.2425 C   0  0  0  0  0  0  0  0  0  0  0  0
  -37.2719  -20.9396   22.8300 C   0  0  0  0  0  0  0  0  0  0  0  0
  -29.6503  -12.2057   18.3463 C   0  0  0  0  0  0  0  0  0  0  0  0
  -27.7104  -30.0149   18.6474 C   0  0  0  0  0  0  0  0  0  0  0  0
  -28.2028  -11.9381   18.7652 C   0  0  0  0  0  0  0  0  0  0  0  0
  -36.1374  -20.8785   21.7925 C   0  0  0  0  0  0  0  0  0  0  0  0
  -30.5462  -12.4890   19.5509 C   0  0  0  0  0  0  0  0  0  0  0  0
  -28.6190  -13.2824   20.8645 C   0  0  0  0  0  0  0  0  0  0  0  0
  -34.1951  -20.0638   23.2444 C   0  0  0  0  0  0  0  0  0  0  0  0
  -28.5815  -29.8380   19.8970 C   0  0  1  0  0  0  0  0  0  0  0  0
  -30.5990  -26.6473   19.5049 C   0  0  1  0  0  0  0  0  0  0  0  0
  -27.6651  -13.0559   19.6802 C   0  0  2  0  0  0  0  0  0  0  0  0
  -34.7379  -21.1953   22.3582 C   0  0  2  0  0  0  0  0  0  1  0  0
  -30.0022  -20.1284   23.5820 C   0  0  0  0  0  0  0  0  0  0  0  0
  -29.9406  -22.3100   12.9261 C   0  0  0  0  0  0  0  0  0  0  0  0
  -27.2349  -23.9117   18.7558 C   0  0  0  0  0  0  0  0  0  0  0  0
  -27.2416  -22.4500   16.7232 C   0  0  0  0  0  0  0  0  0  0  0  0
  -26.8817  -24.9073   16.4889 C   0  0  0  0  0  0  0  0  0  0  0  0
  -33.2212  -23.7934   14.1562 C   0  0  0  0  0  0  0  0  0  0  0  0
  -32.4612  -19.4444   24.9541 C   0  0  0  0  0  0  0  0  0  0  0  0
  -29.1853  -24.0417   17.0690 C   0  0  1  0  0  0  0  0  0  0  0  0
  -30.8200  -23.2437   13.7432 C   0  0  2  0  0  0  0  0  0  0  0  0
  -27.6589  -23.8295   17.2758 C   0  0  0  0  0  0  0  0  0  0  0  0
  -25.8635  -11.4986   20.3207 N   0  0  0  0  0  0  0  0  0  0  0  0
  -26.2464  -12.7738   20.1381 N   0  0  0  0  0  0  0  0  0  0  0  0
  -30.0664  -25.3905   18.9519 N   0  0  0  0  0  0  0  0  0  0  0  0
  -29.9760  -13.5614   20.3691 N   0  0  0  0  0  0  0  0  0  0  0  0
  -25.4829  -15.0123   20.2678 N   0  0  0  0  0  0  0  0  0  0  0  0
  -21.8711  -12.6055   21.5162 N   0  0  0  0  0  0  0  0  0  0  0  0
  -30.0751  -15.6905   21.3789 N   0  0  0  0  0  0  0  0  0  0  0  0
  -29.6065  -28.8475   19.6577 N   0  0  0  0  0  0  0  0  0  0  0  0
  -29.6114  -23.9961   15.6744 N   0  0  0  0  0  0  0  0  0  0  0  0
  -33.1613  -20.5801   24.2468 N   0  3  1  0  0  0  0  0  0  0  0  0
  -32.2454  -22.9337   13.4381 N   0  3  0  0  0  0  0  0  0  0  0  0
  -22.6579  -14.7278   21.1484 O   0  0  0  0  0  0  0  0  0  0  0  0
  -28.3511  -26.9501   20.1541 O   0  0  0  0  0  0  0  0  0  0  0  0
  -29.6668  -26.3536   16.8726 O   0  0  0  0  0  0  0  0  0  0  0  0
  -31.1222  -22.2551   15.9270 O   0  0  0  0  0  0  0  0  0  0  0  0
  -31.8701  -14.8700   20.1598 O   0  0  0  0  0  0  0  0  0  0  0  0
  -21.5789   -7.0543   21.8826 O   0  0  0  0  0  0  0  0  0  0  0  0
  -33.8377  -21.3802   21.2619 O   0  0  0  0  0  0  0  0  0  1  0  0
  -18.5115   -7.1219   26.4642 F   0  0  0  0  0  0  0  0  0  0  0  0
  -21.9916   -5.2024   23.8932 F   0  0  0  0  0  0  0  0  0  0  0  0
  -32.6308  -14.7893   22.7074 Cl  0  0  0  0  0  0  0  0  0  0  0  0
  -28.5816  -18.2737   21.6468 Cl  0  0  0  0  0  0  0  0  0  0  0  0
  1  2  1  0  0  0  0
  1  5  2  0  0  0  0
  2  6  2  0  0  0  0
  3  8  2  0  0  0  0
  3 16  1  0  0  0  0
  4  9  1  0  0  0  0
  4 16  2  0  0  0  0
  5 18  1  0  0  0  0
  6 20  1  0  0  0  0
  7 10  2  0  0  0  0
  7 19  1  0  0  0  0
  8 25  1  0  0  0  0
  9 25  2  0  0  0  0
 10 26  1  0  0  0  0
 11 12  2  0  0  0  0
 11 27  1  0  0  0  0
 12 28  1  0  0  0  0
 13 21  1  0  0  0  0
 13 26  2  0  0  0  0
 14 22  1  0  0  0  0
 14 30  2  0  0  0  0
 15 28  2  0  0  0  0
 15 29  1  0  0  0  0
 16 32  1  0  0  0  0
 17 32  1  0  0  0  0
 17 33  2  0  0  0  0
 17 38  1  0  0  0  0
 18 20  2  0  0  0  0
 18 43  1  0  0  0  0
 19 21  2  0  0  0  0
 19 44  1  0  0  0  0
 20 58  1  0  0  0  0
 21 45  1  0  0  0  0
 22 23  2  0  0  0  0
 22 68  1  0  0  0  0
 23 31  1  0  0  0  0
 23 62  1  0  0  0  0
 24 30  1  0  0  0  0
 24 31  2  0  0  0  0
 24 78  1  0  0  0  0
 25 88  1  0  0  0  0
 26 89  1  0  0  0  0
 27 29  2  0  0  0  0
 27 88  1  0  0  0  0
 28 90  1  0  0  0  0
 29 91  1  0  0  0  0
 30 92  1  0  0  0  0
 31 93  1  0  0  0  0
 32 72  2  0  0  0  0
 33 73  1  0  0  0  0
 33 76  1  0  0  0  0
 34 35  2  0  0  0  0
 34 36  1  0  0  0  0
 35 46  1  0  0  0  0
 36 37  2  0  0  0  0
 36 81  1  0  0  0  0
 38 77  1  0  0  0  0
 38 83  2  0  0  0  0
 39 59  1  0  0  0  0
 39 79  1  0  0  0  0
 39 84  2  0  0  0  0
 40 69  1  0  0  0  0
 40 74  1  0  0  0  0
 40 85  2  0  0  0  0
 41 70  1  0  0  0  0
 41 80  1  0  0  0  0
 41 86  2  0  0  0  0
 42 75  1  0  0  0  0
 42 78  1  0  0  0  0
 42 87  2  0  0  0  0
 43 47  1  0  0  0  0
 44 59  1  0  0  0  0
 45 74  1  0  0  0  0
 46 48  1  0  0  0  0
 47 52  1  0  0  0  0
 48 49  1  0  0  0  0
 49 50  1  0  0  0  0
 50 54  1  0  0  0  0
 51 53  1  0  0  0  0
 51 55  1  0  0  0  0
 52 58  1  0  0  0  0
 53 60  1  0  0  0  0
 54 61  1  0  0  0  0
 55 75  1  0  0  0  0
 56 60  1  0  0  0  0
 56 75  1  0  0  0  0
 57 61  1  0  0  0  0
 57 81  1  0  0  0  0
 58 79  1  0  0  0  0
 59 74  1  0  0  0  0
 60 73  1  0  0  0  0
 61 89  1  0  0  0  0
 63 70  1  0  0  0  0
 64 71  1  0  0  0  0
 65 71  1  0  0  0  0
 66 71  1  0  0  0  0
 67 82  1  0  0  0  0
 68 81  1  0  0  0  0
 69 71  1  0  0  0  0
 69 80  1  0  0  0  0
 70 82  1  0  0  0  0
 72 73  1  0  0  0  0
M  CHG  2  81   1  82   1
M  ISO  4  42 100  61 101  78 100  89 101
M  END
> <Batch ID>
0039

> <Smiles>
C=C1C=CCCCCC[101CH:1]([101O:1]c2ccc3c(c2)CN(C(=O)C(NC(=O)C(C)NC)C(C)(C)C)C(C(=O)NC2CCCc4ccccc42)C3)CN1Cc1cc(Cl)c([100NH:0][100C:0](=O)N2CCCC(n3nc(-c4ccc(Oc5ccc(F)cc5F)cc4)c(C(N)=O)c3N)C2)c(Cl)c1C

> <Shape>
0.234

> <Color>
0.213

> <Negative vol penalty>
0.000

$$$$

  -OEChem-04042322043D

 90 99  0     1  0  0  0  0  0999 V2000
  -29.2540  -33.2193   27.4364 C   0  0  0  0  0  0  0  0  0  0  0  0
  -28.7357  -32.1229   26.7548 C   0  0  0  0  0  0  0  0  0  0  0  0
  -23.5904   -8.4928   19.1239 C   0  0  0  0  0  0  0  0  0  0  0  0
  -24.8309   -8.4283   21.1961 C   0  0  0  0  0  0  0  0  0  0  0  0
  -28.4969  -34.3835   27.5599 C   0  0  0  0  0  0  0  0  0  0  0  0
  -27.4594  -32.1897   26.1971 C   0  0  0  0  0  0  0  0  0  0  0  0
  -27.2908  -30.3052   21.4997 C   0  0  0  0  0  0  0  0  0  0  0  0
  -22.4578   -8.0205   19.7872 C   0  0  0  0  0  0  0  0  0  0  0  0
  -23.6983   -7.9561   21.8594 C   0  0  0  0  0  0  0  0  0  0  0  0
  -27.2664  -28.9172   21.3710 C   0  0  0  0  0  0  0  0  0  0  0  0
  -22.0684   -5.0162   22.2224 C   0  0  0  0  0  0  0  0  0  0  0  0
  -22.2329   -3.9509   23.1076 C   0  0  0  0  0  0  0  0  0  0  0  0
  -24.8801  -28.9969   21.0275 C   0  0  0  0  0  0  0  0  0  0  0  0
  -27.3788  -18.1756   19.1646 C   0  0  0  0  0  0  0  0  0  0  0  0
  -29.4316  -20.0574   19.3303 C   0  0  0  0  0  0  0  0  0  0  0  0
  -21.4009   -5.3232   24.9136 C   0  0  0  0  0  0  0  0  0  0  0  0
  -24.7769   -8.6966   19.8284 C   0  0  0  0  0  0  0  0  0  0  0  0
  -26.6197   -8.5722   18.0687 C   0  0  0  0  0  0  0  0  0  0  0  0
  -27.2145  -34.4680   26.9951 C   0  0  0  0  0  0  0  0  0  0  0  0
  -26.1063  -31.0497   21.4040 C   0  0  0  0  0  0  0  0  0  0  0  0
  -26.6838  -33.3557   26.3142 C   0  0  0  0  0  0  0  0  0  0  0  0
  -24.8924  -30.3944   21.1528 C   0  0  0  0  0  0  0  0  0  0  0  0
  -27.0753  -19.5241   19.3511 C   0  0  0  0  0  0  0  0  0  0  0  0
  -28.1016  -20.4651   19.4340 C   0  0  0  0  0  0  0  0  0  0  0  0
  -28.7088  -17.7679   19.0610 C   0  0  0  0  0  0  0  0  0  0  0  0
  -22.5118   -7.7522   21.1549 C   0  0  0  0  0  0  0  0  0  0  0  0
  -26.0606  -28.2625   21.1378 C   0  0  0  0  0  0  0  0  0  0  0  0
  -21.5702   -6.2351   22.6827 C   0  0  0  0  0  0  0  0  0  0  0  0
  -21.8991   -4.1044   24.4532 C   0  0  0  0  0  0  0  0  0  0  0  0
  -21.2365   -6.3886   24.0284 C   0  0  0  0  0  0  0  0  0  0  0  0
  -29.7352  -18.7088   19.1438 C   0  0  0  0  0  0  0  0  0  0  0  0
  -25.9473   -9.1839   19.1437 C   0  0  0  0  0  0  0  0  0  0  0  0
  -27.6576   -9.4251   17.7829 C   0  0  0  0  0  0  0  0  0  0  0  0
  -28.2674  -23.8301   21.0669 C   0  0  0  0  0  0  0  0  0  0  0  0
  -31.9238  -23.8057   21.4064 C   0  0  0  0  0  0  0  0  0  0  0  0
  -29.5331  -24.2623   21.1966 C   0  0  0  0  0  0  0  0  0  0  0  0
  -30.6639  -23.3748   21.2773 C   0  0  0  0  0  0  0  0  0  0  0  0
  -26.3316   -7.3430   17.3892 C   0  0  0  0  0  0  0  0  0  0  0  0
  -24.4895  -32.9550   23.3685 C   0  0  0  0  0  0  0  0  0  0  0  0
  -22.6699  -33.4790   20.7347 C   0  0  0  0  0  0  0  0  0  0  0  0
  -21.5719  -32.3616   17.7028 C   0  0  0  0  0  0  0  0  0  0  0  0
  -28.0641  -15.3412   18.7783 C   0  0  0  0  0  0  0  0  0  0  0  0
  -26.4149  -35.7311   27.1953 C   0  0  0  0  0  0  0  0  0  0  0  0
  -26.1533  -32.5488   21.5185 C   0  0  0  0  0  0  0  0  0  0  0  0
  -23.5959  -31.1496   21.0215 C   0  0  0  0  0  0  0  0  0  0  0  0
  -25.2201  -35.8514   26.2528 C   0  0  0  0  0  0  0  0  0  0  0  0
  -30.0590  -12.5845   20.5517 C   0  0  0  0  0  0  0  0  0  0  0  0
  -25.7598  -22.7485   21.9362 C   0  0  0  0  0  0  0  0  0  0  0  0
  -24.4410  -34.5407   26.2085 C   0  0  0  0  0  0  0  0  0  0  0  0
  -26.0022  -24.2536   22.0168 C   0  0  0  0  0  0  0  0  0  0  0  0
  -29.6741  -11.3919   19.6794 C   0  0  0  0  0  0  0  0  0  0  0  0
  -29.9001  -13.9109   19.8194 C   0  0  0  0  0  0  0  0  0  0  0  0
  -27.6807  -12.9241   19.2224 C   0  0  0  0  0  0  0  0  0  0  0  0
  -27.0607  -21.9650   22.0598 C   0  0  0  0  0  0  0  0  0  0  0  0
  -25.3132  -33.3982   25.6741 C   0  0  1  0  0  0  0  0  0  0  0  0
  -27.0339  -24.7152   20.9765 C   0  0  1  0  0  0  0  0  0  0  0  0
  -24.8131  -33.1600   21.9156 C   0  0  1  0  0  0  0  0  0  0  0  0
  -28.4518  -11.6700   18.7822 C   0  0  2  0  0  0  0  0  0  0  0  0
  -25.6440  -19.9361   19.4629 C   0  0  0  0  0  0  0  0  0  0  0  0
  -20.0614  -32.9914   15.8004 C   0  0  0  0  0  0  0  0  0  0  0  0
  -20.2397  -32.7188   22.4159 C   0  0  0  0  0  0  0  0  0  0  0  0
  -18.9441  -32.4413   20.2916 C   0  0  0  0  0  0  0  0  0  0  0  0
  -19.8858  -34.6714   20.8938 C   0  0  0  0  0  0  0  0  0  0  0  0
  -23.8179  -32.3878   15.7756 C   0  0  0  0  0  0  0  0  0  0  0  0
  -27.7994  -21.9209   19.6347 C   0  0  0  0  0  0  0  0  0  0  0  0
  -27.2786  -26.2199   21.1308 C   0  0  0  0  0  0  0  0  0  1  0  0
  -21.4450  -32.8313   20.1354 C   0  0  1  0  0  0  0  0  0  0  0  0
  -21.4780  -33.0457   16.3509 C   0  0  2  0  0  0  0  0  0  0  0  0
  -20.1527  -33.1510   20.9385 C   0  0  0  0  0  0  0  0  0  0  0  0
  -26.5109  -10.3363   19.5157 N   0  0  0  0  0  0  0  0  0  0  0  0
  -27.5484  -10.4555   18.6698 N   0  0  0  0  0  0  0  0  0  0  0  0
  -23.6927  -32.6133   21.1474 N   0  0  0  0  0  0  0  0  0  0  0  0
  -28.5561  -14.1015   19.2550 N   0  0  0  0  0  0  0  0  0  0  0  0
  -28.6441   -9.3866   16.8621 N   0  0  0  0  0  0  0  0  0  0  0  0
  -26.9158   -6.1623   17.8677 N   0  0  0  0  0  0  0  0  0  0  0  0
  -28.9827  -16.3897   18.8754 N   0  0  0  0  0  0  0  0  0  0  0  0
  -25.4291  -33.4819   24.2340 N   0  0  0  0  0  0  0  0  0  0  0  0
  -21.4012  -33.2542   18.7398 N   0  0  0  0  0  0  0  0  0  0  0  0
  -28.0819  -22.3938   21.0341 N   0  3  1  0  0  0  0  0  0  0  0  0
  -22.3881  -32.3862   15.3723 N   0  3  0  0  0  0  0  0  0  0  0  0
  -25.5917   -7.2956   16.3774 O   0  0  0  0  0  0  0  0  0  0  0  0
  -23.4626  -32.3639   23.6813 O   0  0  0  0  0  0  0  0  0  0  0  0
  -22.7204  -34.7080   20.8266 O   0  0  0  0  0  0  0  0  0  0  0  0
  -21.7726  -31.1554   17.8264 O   0  0  0  0  0  0  0  0  0  0  0  0
  -26.9278  -15.4515   18.3129 O   0  0  0  0  0  0  0  0  0  0  0  0
  -21.4068   -7.2916   21.8025 O   0  0  0  0  0  0  0  0  0  0  0  0
  -26.0339  -26.9077   21.0124 O   0  0  0  0  0  0  0  0  0  1  0  0
  -22.0557   -3.0808   25.3029 F   0  0  0  0  0  0  0  0  0  0  0  0
  -20.7563   -7.5568   24.4763 F   0  0  0  0  0  0  0  0  0  0  0  0
  -31.3957  -18.2474   19.0200 Cl  0  0  0  0  0  0  0  0  0  0  0  0
  1  2  1  0  0  0  0
  1  5  2  0  0  0  0
  2  6  2  0  0  0  0
  3  8  2  0  0  0  0
  3 17  1  0  0  0  0
  4  9  1  0  0  0  0
  4 17  2  0  0  0  0
  5 19  1  0  0  0  0
  6 21  1  0  0  0  0
  7 10  2  0  0  0  0
  7 20  1  0  0  0  0
  8 26  1  0  0  0  0
  9 26  2  0  0  0  0
 10 27  1  0  0  0  0
 11 12  2  0  0  0  0
 11 28  1  0  0  0  0
 12 29  1  0  0  0  0
 13 22  1  0  0  0  0
 13 27  2  0  0  0  0
 14 23  1  0  0  0  0
 14 25  2  0  0  0  0
 15 24  1  0  0  0  0
 15 31  2  0  0  0  0
 16 29  2  0  0  0  0
 16 30  1  0  0  0  0
 17 32  1  0  0  0  0
 18 32  1  0  0  0  0
 18 33  2  0  0  0  0
 18 38  1  0  0  0  0
 19 21  2  0  0  0  0
 19 43  1  0  0  0  0
 20 22  2  0  0  0  0
 20 44  1  0  0  0  0
 21 55  1  0  0  0  0
 22 45  1  0  0  0  0
 23 24  2  0  0  0  0
 23 59  1  0  0  0  0
 24 65  1  0  0  0  0
 25 31  1  0  0  0  0
 25 76  1  0  0  0  0
 26 86  1  0  0  0  0
 27 87  1  0  0  0  0
 28 30  2  0  0  0  0
 28 86  1  0  0  0  0
 29 88  1  0  0  0  0
 30 89  1  0  0  0  0
 31 90  1  0  0  0  0
 32 70  2  0  0  0  0
 33 71  1  0  0  0  0
 33 74  1  0  0  0  0
 34 36  2  0  0  0  0
 34 56  1  0  0  0  0
 34 79  1  0  0  0  0
 35 37  2  0  0  0  0
 36 37  1  0  0  0  0
 38 75  1  0  0  0  0
 38 81  2  0  0  0  0
 39 57  1  0  0  0  0
 39 77  1  0  0  0  0
 39 82  2  0  0  0  0
 40 67  1  0  0  0  0
 40 72  1  0  0  0  0
 40 83  2  0  0  0  0
 41 68  1  0  0  0  0
 41 78  1  0  0  0  0
 41 84  2  0  0  0  0
 42 73  1  0  0  0  0
 42 76  1  0  0  0  0
 42 85  2  0  0  0  0
 43 46  1  0  0  0  0
 44 57  1  0  0  0  0
 45 72  1  0  0  0  0
 46 49  1  0  0  0  0
 47 51  1  0  0  0  0
 47 52  1  0  0  0  0
 48 50  1  0  0  0  0
 48 54  1  0  0  0  0
 49 55  1  0  0  0  0
 50 56  1  0  0  0  0
 51 58  1  0  0  0  0
 52 73  1  0  0  0  0
 53 58  1  0  0  0  0
 53 73  1  0  0  0  0
 54 79  1  0  0  0  0
 55 77  1  0  0  0  0
 56 66  1  0  0  0  0
 57 72  1  0  0  0  0
 58 71  1  0  0  0  0
 60 68  1  0  0  0  0
 61 69  1  0  0  0  0
 62 69  1  0  0  0  0
 63 69  1  0  0  0  0
 64 80  1  0  0  0  0
 65 79  1  0  0  0  0
 66 87  1  0  0  0  0
 67 69  1  0  0  0  0
 67 78  1  0  0  0  0
 68 80  1  0  0  0  0
 70 71  1  0  0  0  0
M  CHG  2  79   1  80   1
M  ISO  4  42 100  66 101  76 100  87 101
M  END
> <Batch ID>
0039

> <Smiles>
C=CC=C1C([101CH2:1][101O:1]c2ccc3c(c2)CN(C(=O)C(NC(=O)C(C)NC)C(C)(C)C)C(C(=O)NC2CCCc4ccccc42)C3)CCCN1Cc1cc(Cl)c([100NH:0][100C:0](=O)N2CCCC(n3nc(-c4ccc(Oc5ccc(F)cc5F)cc4)c(C(N)=O)c3N)C2)cc1C

> <Shape>
0.251

> <Color>
0.092

> <Negative vol penalty>
0.000

$$$$

  -OEChem-04042322043D

 90 99  0     1  0  0  0  0  0999 V2000
  -29.8173  -22.6322   17.3803 C   0  0  0  0  0  0  0  0  0  0  0  0
  -28.5326  -23.1410   17.5419 C   0  0  0  0  0  0  0  0  0  0  0  0
  -24.5456  -12.5530   22.6144 C   0  0  0  0  0  0  0  0  0  0  0  0
  -25.8801  -12.2727   20.6200 C   0  0  0  0  0  0  0  0  0  0  0  0
  -30.7710  -22.8199   18.3797 C   0  0  0  0  0  0  0  0  0  0  0  0
  -28.2007  -23.8371   18.7037 C   0  0  0  0  0  0  0  0  0  0  0  0
  -24.3687  -28.5906   19.1796 C   0  0  0  0  0  0  0  0  0  0  0  0
  -25.0506  -11.3554   23.1207 C   0  0  0  0  0  0  0  0  0  0  0  0
  -26.3852  -11.0751   21.1263 C   0  0  0  0  0  0  0  0  0  0  0  0
  -23.0326  -28.6832   19.5669 C   0  0  0  0  0  0  0  0  0  0  0  0
  -25.7168   -8.1894   24.7808 C   0  0  0  0  0  0  0  0  0  0  0  0
  -24.8151   -7.2972   25.3609 C   0  0  0  0  0  0  0  0  0  0  0  0
  -23.7274  -29.2524   21.8058 C   0  0  0  0  0  0  0  0  0  0  0  0
  -20.9957  -22.9858   22.5962 C   0  0  0  0  0  0  0  0  0  0  0  0
  -23.6273  -23.3100   21.7289 C   0  0  0  0  0  0  0  0  0  0  0  0
  -23.6140   -7.1515   23.2696 C   0  0  0  0  0  0  0  0  0  0  0  0
  -24.9603  -13.0116   21.3640 C   0  0  0  0  0  0  0  0  0  0  0  0
  -23.0911  -14.5576   20.5742 C   0  0  0  0  0  0  0  0  0  0  0  0
  -30.4534  -23.5269   19.5501 C   0  0  0  0  0  0  0  0  0  0  0  0
  -25.3960  -28.8179   20.1067 C   0  0  0  0  0  0  0  0  0  0  0  0
  -29.1507  -24.0333   19.7203 C   0  0  0  0  0  0  0  0  0  0  0  0
  -25.0757  -29.1646   21.4271 C   0  0  0  0  0  0  0  0  0  0  0  0
  -21.6609  -24.1908   22.8219 C   0  0  0  0  0  0  0  0  0  0  0  0
  -22.9621  -22.1049   21.5032 C   0  0  0  0  0  0  0  0  0  0  0  0
  -25.9704  -10.6165   22.3767 C   0  0  0  0  0  0  0  0  0  0  0  0
  -22.7118  -29.0113   20.8809 C   0  0  0  0  0  0  0  0  0  0  0  0
  -25.5671   -8.5627   23.4451 C   0  0  0  0  0  0  0  0  0  0  0  0
  -23.7637   -6.7783   24.6053 C   0  0  0  0  0  0  0  0  0  0  0  0
  -24.5157   -8.0438   22.6896 C   0  0  0  0  0  0  0  0  0  0  0  0
  -21.6463  -21.9428   21.9369 C   0  0  0  0  0  0  0  0  0  0  0  0
  -22.9767  -24.3529   22.3883 C   0  0  0  0  0  0  0  0  0  0  0  0
  -24.4385  -14.2484   20.8403 C   0  0  0  0  0  0  0  0  0  0  0  0
  -23.1226  -15.8438   20.0933 C   0  0  0  0  0  0  0  0  0  0  0  0
  -18.9124  -26.6365   23.4761 C   0  0  0  0  0  0  0  0  0  0  0  0
  -17.7084  -26.0558   23.5896 C   0  0  0  0  0  0  0  0  0  0  0  0
  -21.9162  -13.7542   20.7463 C   0  0  0  0  0  0  0  0  0  0  0  0
  -27.7618  -27.0673   21.3075 C   0  0  0  0  0  0  0  0  0  0  0  0
  -28.6150  -29.8743   22.6912 C   0  0  0  0  0  0  0  0  0  0  0  0
  -26.9394  -32.6262   24.3150 C   0  0  0  0  0  0  0  0  0  0  0  0
  -24.9582  -21.0946   20.3452 C   0  0  0  0  0  0  0  0  0  0  0  0
  -31.5042  -23.6637   20.6234 C   0  0  0  0  0  0  0  0  0  0  0  0
  -26.8322  -28.7403   19.6665 C   0  0  0  0  0  0  0  0  0  0  0  0
  -26.1412  -29.4382   22.4558 C   0  0  0  0  0  0  0  0  0  0  0  0
  -19.2521  -27.9531   24.1203 C   0  0  0  0  0  0  0  0  0  0  0  0
  -31.1800  -24.7363   21.6601 C   0  0  0  0  0  0  0  0  0  0  0  0
  -19.8580  -28.9043   23.0954 C   0  0  0  0  0  0  0  0  0  0  0  0
  -27.0266  -18.7324   18.6662 C   0  0  0  0  0  0  0  0  0  0  0  0
  -29.7321  -24.6107   22.1233 C   0  0  0  0  0  0  0  0  0  0  0  0
  -26.4268  -17.3807   19.0602 C   0  0  0  0  0  0  0  0  0  0  0  0
  -26.9702  -19.7351   19.8173 C   0  0  0  0  0  0  0  0  0  0  0  0
  -25.0424  -18.5664   20.8108 C   0  0  0  0  0  0  0  0  0  0  0  0
  -20.4895  -26.9301   21.6572 C   0  0  0  0  0  0  0  0  0  0  0  0
  -28.7595  -24.8153   20.9555 C   0  0  1  0  0  0  0  0  0  0  0  0
  -27.7979  -28.4882   20.8202 C   0  0  1  0  0  0  0  0  0  0  0  0
  -25.0178  -17.5436   19.6632 C   0  0  2  0  0  0  0  0  0  0  0  0
  -20.9739  -28.2273   22.2997 C   0  0  1  0  0  0  0  0  0  1  0  0
  -16.3345  -23.6259   20.9407 C   0  0  0  0  0  0  0  0  0  0  0  0
  -27.6007  -35.0367   24.5375 C   0  0  0  0  0  0  0  0  0  0  0  0
  -29.8158  -28.9985   25.3559 C   0  0  0  0  0  0  0  0  0  0  0  0
  -29.0327  -31.1630   26.3407 C   0  0  0  0  0  0  0  0  0  0  0  0
  -30.6937  -31.1701   24.4796 C   0  0  0  0  0  0  0  0  0  0  0  0
  -24.3914  -33.5550   23.1301 C   0  0  0  0  0  0  0  0  0  0  0  0
  -20.9260  -25.2880   23.5339 C   0  0  0  0  0  0  0  0  0  0  0  0
  -17.3500  -24.7463   22.9567 C   0  0  0  0  0  0  0  0  0  0  0  0
  -16.7251  -24.9512   21.5764 C   0  0  0  0  0  0  0  0  0  0  0  0
  -28.2871  -30.5688   23.9909 C   0  0  1  0  0  0  0  0  0  0  0  0
  -26.7590  -34.0307   23.7679 C   0  0  2  0  0  0  0  0  0  0  0  0
  -29.4389  -30.4574   25.0293 C   0  0  0  0  0  0  0  0  0  0  0  0
  -25.2656  -15.2568   20.5522 N   0  0  0  0  0  0  0  0  0  0  0  0
  -24.4357  -16.2123   20.1000 N   0  0  0  0  0  0  0  0  0  0  0  0
  -27.5306  -29.3436   21.9783 N   0  0  0  0  0  0  0  0  0  0  0  0
  -25.6043  -19.8403   20.3352 N   0  0  0  0  0  0  0  0  0  0  0  0
  -22.1548  -16.6842   19.6696 N   0  0  0  0  0  0  0  0  0  0  0  0
  -22.0632  -12.4553   21.2519 N   0  0  0  0  0  0  0  0  0  0  0  0
  -23.6509  -21.0658   20.8297 N   0  0  0  0  0  0  0  0  0  0  0  0
  -28.6320  -26.2229   20.6446 N   0  0  0  0  0  0  0  0  0  0  0  0
  -27.9274  -31.9390   23.6422 N   0  0  0  0  0  0  0  0  0  0  0  0
  -19.9057  -25.9726   22.6671 N   0  3  1  0  0  0  0  0  0  0  0  0
  -25.3302  -34.4437   23.8621 N   0  3  0  0  0  0  0  0  0  0  0  0
  -20.7717  -14.1698   20.4449 O   0  0  0  0  0  0  0  0  0  0  0  0
  -27.0019  -26.7600   22.2184 O   0  0  0  0  0  0  0  0  0  0  0  0
  -29.7893  -29.8116   22.3185 O   0  0  0  0  0  0  0  0  0  0  0  0
  -26.2732  -32.1843   25.2486 O   0  0  0  0  0  0  0  0  0  0  0  0
  -25.5134  -22.1140   19.9274 O   0  0  0  0  0  0  0  0  0  0  0  0
  -26.4636   -9.4480   22.8705 O   0  0  0  0  0  0  0  0  0  0  0  0
  -21.4085  -29.1017   21.2617 O   0  0  0  0  0  0  0  0  0  1  0  0
  -22.8988   -5.9203   25.1620 F   0  0  0  0  0  0  0  0  0  0  0  0
  -24.3675   -8.3978   21.4056 F   0  0  0  0  0  0  0  0  0  0  0  0
  -20.7861  -20.4671   21.6784 Cl  0  0  0  0  0  0  0  0  0  0  0  0
  -23.8312  -25.8295   22.6514 Cl  0  0  0  0  0  0  0  0  0  0  0  0
  1  2  1  0  0  0  0
  1  5  2  0  0  0  0
  2  6  2  0  0  0  0
  3  8  2  0  0  0  0
  3 17  1  0  0  0  0
  4  9  1  0  0  0  0
  4 17  2  0  0  0  0
  5 19  1  0  0  0  0
  6 21  1  0  0  0  0
  7 10  2  0  0  0  0
  7 20  1  0  0  0  0
  8 25  1  0  0  0  0
  9 25  2  0  0  0  0
 10 26  1  0  0  0  0
 11 12  2  0  0  0  0
 11 27  1  0  0  0  0
 12 28  1  0  0  0  0
 13 22  1  0  0  0  0
 13 26  2  0  0  0  0
 14 23  1  0  0  0  0
 14 30  2  0  0  0  0
 15 24  2  0  0  0  0
 15 31  1  0  0  0  0
 16 28  2  0  0  0  0
 16 29  1  0  0  0  0
 17 32  1  0  0  0  0
 18 32  1  0  0  0  0
 18 33  2  0  0  0  0
 18 36  1  0  0  0  0
 19 21  2  0  0  0  0
 19 41  1  0  0  0  0
 20 22  2  0  0  0  0
 20 42  1  0  0  0  0
 21 53  1  0  0  0  0
 22 43  1  0  0  0  0
 23 31  2  0  0  0  0
 23 63  1  0  0  0  0
 24 30  1  0  0  0  0
 24 75  1  0  0  0  0
 25 85  1  0  0  0  0
 26 86  1  0  0  0  0
 27 29  2  0  0  0  0
 27 85  1  0  0  0  0
 28 87  1  0  0  0  0
 29 88  1  0  0  0  0
 30 89  1  0  0  0  0
 31 90  1  0  0  0  0
 32 69  2  0  0  0  0
 33 70  1  0  0  0  0
 33 73  1  0  0  0  0
 34 35  2  0  0  0  0
 34 44  1  0  0  0  0
 34 78  1  0  0  0  0
 35 64  1  0  0  0  0
 36 74  1  0  0  0  0
 36 80  2  0  0  0  0
 37 54  1  0  0  0  0
 37 76  1  0  0  0  0
 37 81  2  0  0  0  0
 38 66  1  0  0  0  0
 38 71  1  0  0  0  0
 38 82  2  0  0  0  0
 39 67  1  0  0  0  0
 39 77  1  0  0  0  0
 39 83  2  0  0  0  0
 40 72  1  0  0  0  0
 40 75  1  0  0  0  0
 40 84  2  0  0  0  0
 41 45  1  0  0  0  0
 42 54  1  0  0  0  0
 43 71  1  0  0  0  0
 44 46  1  0  0  0  0
 45 48  1  0  0  0  0
 46 56  1  0  0  0  0
 47 49  1  0  0  0  0
 47 50  1  0  0  0  0
 48 53  1  0  0  0  0
 49 55  1  0  0  0  0
 50 72  1  0  0  0  0
 51 55  1  0  0  0  0
 51 72  1  0  0  0  0
 52 56  1  0  0  0  0
 52 78  1  0  0  0  0
 53 76  1  0  0  0  0
 54 71  1  0  0  0  0
 55 70  1  0  0  0  0
 56 86  1  0  0  0  0
 57 65  1  0  0  0  0
 58 67  1  0  0  0  0
 59 68  1  0  0  0  0
 60 68  1  0  0  0  0
 61 68  1  0  0  0  0
 62 79  1  0  0  0  0
 63 78  1  0  0  0  0
 64 65  1  0  0  0  0
 66 68  1  0  0  0  0
 66 77  1  0  0  0  0
 67 79  1  0  0  0  0
 69 70  1  0  0  0  0
M  CHG  2  78   1  79   1
M  ISO  4  40 100  56 101  75 100  86 101
M  END
> <Batch ID>
0039

> <Smiles>
CCCC=C1CC[101CH:1]([101O:1]c2ccc3c(c2)CN(C(=O)C(NC(=O)C(C)NC)C(C)(C)C)C(C(=O)NC2CCCc4ccccc42)C3)CN1Cc1cc(Cl)c([100NH:0][100C:0](=O)N2CCCC(n3nc(-c4ccc(Oc5ccc(F)cc5F)cc4)c(C(N)=O)c3N)C2)cc1Cl

> <Shape>
0.256

> <Color>
0.059

> <Negative vol penalty>
0.000

$$$$

  -OEChem-04042322043D

 91100  0     1  0  0  0  0  0999 V2000
  -31.5051  -27.2713   16.7819 C   0  0  0  0  0  0  0  0  0  0  0  0
  -30.1466  -26.9804   16.8546 C   0  0  0  0  0  0  0  0  0  0  0  0
  -30.9367  -17.7672   17.7080 C   0  0  0  0  0  0  0  0  0  0  0  0
  -32.6517  -19.1670   18.6756 C   0  0  0  0  0  0  0  0  0  0  0  0
  -32.1685  -27.7800   17.8977 C   0  0  0  0  0  0  0  0  0  0  0  0
  -29.4509  -27.1969   18.0435 C   0  0  0  0  0  0  0  0  0  0  0  0
  -23.6318  -29.0149   18.6253 C   0  0  0  0  0  0  0  0  0  0  0  0
  -23.0416  -27.4129   25.1559 C   0  0  0  0  0  0  0  0  0  0  0  0
  -24.3464  -26.9215   25.1186 C   0  0  0  0  0  0  0  0  0  0  0  0
  -31.7794  -17.4761   16.6353 C   0  0  0  0  0  0  0  0  0  0  0  0
  -33.4945  -18.8759   17.6029 C   0  0  0  0  0  0  0  0  0  0  0  0
  -22.4503  -28.3154   18.8672 C   0  0  0  0  0  0  0  0  0  0  0  0
  -32.7896  -18.9810   13.7824 C   0  0  0  0  0  0  0  0  0  0  0  0
  -32.2445  -19.0291   12.4994 C   0  0  0  0  0  0  0  0  0  0  0  0
  -22.6484  -28.8064   21.2206 C   0  0  0  0  0  0  0  0  0  0  0  0
  -32.8016  -16.7006   12.1755 C   0  0  0  0  0  0  0  0  0  0  0  0
  -31.3728  -18.6127   18.7281 C   0  0  0  0  0  0  0  0  0  0  0  0
  -30.3949  -18.2080   21.0493 C   0  0  0  0  0  0  0  0  0  0  0  0
  -31.4785  -28.0120   19.0980 C   0  0  0  0  0  0  0  0  0  0  0  0
  -24.3374  -29.6071   19.6825 C   0  0  0  0  0  0  0  0  0  0  0  0
  -30.1060  -27.7079   19.1768 C   0  0  0  0  0  0  0  0  0  0  0  0
  -23.8372  -29.5151   20.9892 C   0  0  0  0  0  0  0  0  0  0  0  0
  -21.9641  -26.5282   25.2015 C   0  0  0  0  0  0  0  0  0  0  0  0
  -24.5739  -25.5453   25.1268 C   0  0  0  0  0  0  0  0  0  0  0  0
  -22.1915  -25.1520   25.2097 C   0  0  0  0  0  0  0  0  0  0  0  0
  -33.0583  -18.0304   16.5827 C   0  0  0  0  0  0  0  0  0  0  0  0
  -21.9599  -28.2086   20.1653 C   0  0  0  0  0  0  0  0  0  0  0  0
  -33.3408  -17.7928   14.2620 C   0  0  0  0  0  0  0  0  0  0  0  0
  -32.2505  -17.8889   11.6959 C   0  0  0  0  0  0  0  0  0  0  0  0
  -33.3468  -16.6526   13.4585 C   0  0  0  0  0  0  0  0  0  0  0  0
  -23.4964  -24.6605   25.1723 C   0  0  0  0  0  0  0  0  0  0  0  0
  -30.5026  -18.9142   19.8362 C   0  0  0  0  0  0  0  0  0  0  0  0
  -29.4381  -18.8903   21.7601 C   0  0  0  0  0  0  0  0  0  0  0  0
  -18.9095  -28.4766   24.1731 C   0  0  0  0  0  0  0  0  0  0  0  0
  -18.7878  -29.6211   24.8678 C   0  0  0  0  0  0  0  0  0  0  0  0
  -31.0971  -17.0396   21.4938 C   0  0  0  0  0  0  0  0  0  0  0  0
  -27.2350  -29.2315   20.9343 C   0  0  0  0  0  0  0  0  0  0  0  0
  -26.3712  -31.7992   22.7184 C   0  0  0  0  0  0  0  0  0  0  0  0
  -23.8613  -33.6871   24.0538 C   0  0  0  0  0  0  0  0  0  0  0  0
  -27.3411  -23.5927   23.6141 C   0  0  0  0  0  0  0  0  0  0  0  0
  -32.2486  -28.5186   20.2918 C   0  0  0  0  0  0  0  0  0  0  0  0
  -25.5962  -30.3810   19.4016 C   0  0  0  0  0  0  0  0  0  0  0  0
  -24.5463  -30.1502   22.1564 C   0  0  0  0  0  0  0  0  0  0  0  0
  -17.7132  -27.7972   23.5647 C   0  0  0  0  0  0  0  0  0  0  0  0
  -31.3578  -29.0715   21.4013 C   0  0  0  0  0  0  0  0  0  0  0  0
  -17.5090  -28.2196   22.1110 C   0  0  0  0  0  0  0  0  0  0  0  0
  -26.2509  -22.5474   20.3252 C   0  0  0  0  0  0  0  0  0  0  0  0
  -30.1994  -28.1192   21.6804 C   0  0  0  0  0  0  0  0  0  0  0  0
  -27.2605  -21.4431   20.0069 C   0  0  0  0  0  0  0  0  0  0  0  0
  -18.5540  -27.6768   21.1404 C   0  0  0  0  0  0  0  0  0  0  0  0
  -26.9087  -23.6955   21.0852 C   0  0  0  0  0  0  0  0  0  0  0  0
  -28.6139  -22.1828   22.0221 C   0  0  0  0  0  0  0  0  0  0  0  0
  -20.4689  -27.1806   22.7500 C   0  0  0  0  0  0  0  0  0  0  0  0
  -29.3115  -27.9525   20.4413 C   0  0  1  0  0  0  0  0  0  0  0  0
  -26.5049  -30.5068   20.6205 C   0  0  1  0  0  0  0  0  0  0  0  0
  -28.0055  -20.9827   21.2739 C   0  0  2  0  0  0  0  0  0  0  0  0
  -20.0118  -27.9578   21.5143 C   0  0  1  0  0  0  0  0  0  1  0  0
  -19.9336  -30.3370   25.4911 C   0  0  0  0  0  0  0  0  0  0  0  0
  -20.4161  -24.1271   26.6533 C   0  0  0  0  0  0  0  0  0  0  0  0
  -23.4659  -35.7012   25.4975 C   0  0  0  0  0  0  0  0  0  0  0  0
  -27.0863  -30.1632   25.1926 C   0  0  0  0  0  0  0  0  0  0  0  0
  -25.8058  -31.8158   26.5700 C   0  0  0  0  0  0  0  0  0  0  0  0
  -27.8083  -32.5560   25.2797 C   0  0  0  0  0  0  0  0  0  0  0  0
  -22.4416  -35.1096   21.8813 C   0  0  0  0  0  0  0  0  0  0  0  0
  -21.0202  -24.2205   25.2570 C   0  0  0  0  0  0  0  0  0  0  0  0
  -25.9892  -25.0649   25.0845 C   0  0  0  0  0  0  0  0  0  0  0  0
  -20.5715  -27.0850   25.2405 C   0  0  0  0  0  0  0  0  0  0  0  0
  -25.6753  -31.9948   24.0437 C   0  0  1  0  0  0  0  0  0  0  0  0
  -23.6320  -35.1875   24.0758 C   0  0  2  0  0  0  0  0  0  0  0  0
  -26.5814  -31.6187   25.2500 C   0  0  0  0  0  0  0  0  0  0  0  0
  -29.6797  -19.9646   19.7764 N   0  0  0  0  0  0  0  0  0  0  0  0
  -29.0458  -19.9234   20.9607 N   0  0  0  0  0  0  0  0  0  0  0  0
  -25.7765  -30.8908   21.8313 N   0  0  0  0  0  0  0  0  0  0  0  0
  -27.5843  -23.1925   22.2897 N   0  0  0  0  0  0  0  0  0  0  0  0
  -28.9024  -18.7014   22.9848 N   0  0  0  0  0  0  0  0  0  0  0  0
  -32.0473  -16.4654   20.6384 N   0  0  0  0  0  0  0  0  0  0  0  0
  -28.4460  -29.1013   20.2816 N   0  0  0  0  0  0  0  0  0  0  0  0
  -25.2045  -33.3756   24.0577 N   0  0  0  0  0  0  0  0  0  0  0  0
  -26.3554  -24.5578   23.7808 N   0  0  0  0  0  0  0  0  0  0  0  0
  -20.2405  -27.9349   24.0380 N   0  3  2  0  0  0  0  0  0  0  0  0
  -22.4054  -35.5354   23.3041 N   0  3  0  0  0  0  0  0  0  0  0  0
  -30.8764  -16.5107   22.6096 O   0  0  0  0  0  0  0  0  0  0  0  0
  -26.7372  -28.4261   21.7121 O   0  0  0  0  0  0  0  0  0  0  0  0
  -27.4004  -32.4346   22.4762 O   0  0  0  0  0  0  0  0  0  0  0  0
  -22.9409  -32.8727   24.0388 O   0  0  0  0  0  0  0  0  0  0  0  0
  -27.9535  -23.1207   24.5781 O   0  0  0  0  0  0  0  0  0  0  0  0
  -33.8809  -17.7465   15.5362 O   0  0  0  0  0  0  0  0  0  0  0  0
  -20.8072  -27.5258   20.4042 O   0  0  0  0  0  0  0  0  0  1  0  0
  -31.7256  -17.9347   10.4645 F   0  0  0  0  0  0  0  0  0  0  0  0
  -33.8738  -15.5078   13.9142 F   0  0  0  0  0  0  0  0  0  0  0  0
  -23.7827  -22.9520   25.1781 Cl  0  0  0  0  0  0  0  0  0  0  0  0
  1  2  1  0  0  0  0
  1  5  2  0  0  0  0
  2  6  2  0  0  0  0
  3 10  2  0  0  0  0
  3 17  1  0  0  0  0
  4 11  1  0  0  0  0
  4 17  2  0  0  0  0
  5 19  1  0  0  0  0
  6 21  1  0  0  0  0
  7 12  2  0  0  0  0
  7 20  1  0  0  0  0
  8  9  2  0  0  0  0
  8 23  1  0  0  0  0
  9 24  1  0  0  0  0
 10 26  1  0  0  0  0
 11 26  2  0  0  0  0
 12 27  1  0  0  0  0
 13 14  2  0  0  0  0
 13 28  1  0  0  0  0
 14 29  1  0  0  0  0
 15 22  1  0  0  0  0
 15 27  2  0  0  0  0
 16 29  2  0  0  0  0
 16 30  1  0  0  0  0
 17 32  1  0  0  0  0
 18 32  1  0  0  0  0
 18 33  2  0  0  0  0
 18 36  1  0  0  0  0
 19 21  2  0  0  0  0
 19 41  1  0  0  0  0
 20 22  2  0  0  0  0
 20 42  1  0  0  0  0
 21 54  1  0  0  0  0
 22 43  1  0  0  0  0
 23 25  2  0  0  0  0
 23 67  1  0  0  0  0
 24 31  2  0  0  0  0
 24 66  1  0  0  0  0
 25 31  1  0  0  0  0
 25 65  1  0  0  0  0
 26 87  1  0  0  0  0
 27 88  1  0  0  0  0
 28 30  2  0  0  0  0
 28 87  1  0  0  0  0
 29 89  1  0  0  0  0
 30 90  1  0  0  0  0
 31 91  1  0  0  0  0
 32 71  2  0  0  0  0
 33 72  1  0  0  0  0
 33 75  1  0  0  0  0
 34 35  2  0  0  0  0
 34 44  1  0  0  0  0
 34 80  1  0  0  0  0
 35 58  1  0  0  0  0
 36 76  1  0  0  0  0
 36 82  2  0  0  0  0
 37 55  1  0  0  0  0
 37 77  1  0  0  0  0
 37 83  2  0  0  0  0
 38 68  1  0  0  0  0
 38 73  1  0  0  0  0
 38 84  2  0  0  0  0
 39 69  1  0  0  0  0
 39 78  1  0  0  0  0
 39 85  2  0  0  0  0
 40 74  1  0  0  0  0
 40 79  1  0  0  0  0
 40 86  2  0  0  0  0
 41 45  1  0  0  0  0
 42 55  1  0  0  0  0
 43 73  1  0  0  0  0
 44 46  1  0  0  0  0
 45 48  1  0  0  0  0
 46 50  1  0  0  0  0
 47 49  1  0  0  0  0
 47 51  1  0  0  0  0
 48 54  1  0  0  0  0
 49 56  1  0  0  0  0
 50 57  1  0  0  0  0
 51 74  1  0  0  0  0
 52 56  1  0  0  0  0
 52 74  1  0  0  0  0
 53 57  1  0  0  0  0
 53 80  1  0  0  0  0
 54 77  1  0  0  0  0
 55 73  1  0  0  0  0
 56 72  1  0  0  0  0
 57 88  1  0  0  0  0
 59 65  1  0  0  0  0
 60 69  1  0  0  0  0
 61 70  1  0  0  0  0
 62 70  1  0  0  0  0
 63 70  1  0  0  0  0
 64 81  1  0  0  0  0
 66 79  1  0  0  0  0
 67 80  1  0  0  0  0
 68 70  1  0  0  0  0
 68 78  1  0  0  0  0
 69 81  1  0  0  0  0
 71 72  1  0  0  0  0
M  CHG  2  80   1  81   1
M  ISO  4  40 100  57 101  79 100  88 101
M  END
> <Batch ID>
0039

> <Smiles>
CC=C1CCC[101CH:1]([101O:1]c2ccc3c(c2)CN(C(=O)C(NC(=O)C(C)NC)C(C)(C)C)C(C(=O)NC2CCCc4ccccc42)C3)CN1Cc1ccc(C[100NH:0][100C:0](=O)N2CCCC(n3nc(-c4ccc(Oc5ccc(F)cc5F)cc4)c(C(N)=O)c3N)C2)c(Cl)c1CC

> <Shape>
0.242

> <Color>
0.080

> <Negative vol penalty>
0.000

$$$$

  -OEChem-04042322043D

 84 92  0     1  0  0  0  0  0999 V2000
  -22.9048  -24.3673   19.2601 C   0  0  0  0  0  0  0  0  0  0  0  0
  -23.6681  -23.3249   18.7442 C   0  0  0  0  0  0  0  0  0  0  0  0
  -26.2012  -27.8911   18.8976 C   0  0  0  0  0  0  0  0  0  0  0  0
  -26.3045  -27.4846   21.2770 C   0  0  0  0  0  0  0  0  0  0  0  0
  -22.2866  -24.2288   20.5021 C   0  0  0  0  0  0  0  0  0  0  0  0
  -23.8145  -22.1437   19.4706 C   0  0  0  0  0  0  0  0  0  0  0  0
  -24.5711  -15.0801   18.5486 C   0  0  0  0  0  0  0  0  0  0  0  0
  -25.1807  -28.8200   19.1006 C   0  0  0  0  0  0  0  0  0  0  0  0
  -25.2840  -28.4136   21.4800 C   0  0  0  0  0  0  0  0  0  0  0  0
  -25.4000  -14.0266   18.9316 C   0  0  0  0  0  0  0  0  0  0  0  0
  -21.9171  -28.5191   21.1901 C   0  0  0  0  0  0  0  0  0  0  0  0
  -20.8852  -28.1684   22.0606 C   0  0  0  0  0  0  0  0  0  0  0  0
  -24.2211  -13.8700   21.0304 C   0  0  0  0  0  0  0  0  0  0  0  0
  -31.2038  -15.2350   20.1478 C   0  0  0  0  0  0  0  0  0  0  0  0
  -29.7537  -16.0431   21.9032 C   0  0  0  0  0  0  0  0  0  0  0  0
  -21.4246  -30.0607   23.4624 C   0  0  0  0  0  0  0  0  0  0  0  0
  -26.7631  -27.2233   19.9858 C   0  0  0  0  0  0  0  0  0  0  0  0
  -29.8087  -13.6872   21.3706 C   0  0  0  0  0  0  0  0  0  0  0  0
  -29.2024  -26.5119   19.7593 C   0  0  0  0  0  0  0  0  0  0  0  0
  -22.4176  -23.0417   21.2397 C   0  0  0  0  0  0  0  0  0  0  0  0
  -23.5663  -15.5444   19.4095 C   0  0  0  0  0  0  0  0  0  0  0  0
  -23.1986  -21.9896   20.7242 C   0  0  0  0  0  0  0  0  0  0  0  0
  -23.3791  -14.9279   20.6549 C   0  0  0  0  0  0  0  0  0  0  0  0
  -30.7021  -16.2897   20.9104 C   0  0  0  0  0  0  0  0  0  0  0  0
  -30.7571  -13.9337   20.3779 C   0  0  0  0  0  0  0  0  0  0  0  0
  -29.3070  -14.7418   22.1332 C   0  0  0  0  0  0  0  0  0  0  0  0
  -24.7221  -29.0813   20.3917 C   0  0  0  0  0  0  0  0  0  0  0  0
  -25.2270  -13.4233   20.1739 C   0  0  0  0  0  0  0  0  0  0  0  0
  -22.7029  -29.6406   21.4558 C   0  0  0  0  0  0  0  0  0  0  0  0
  -20.6389  -28.9392   23.1967 C   0  0  0  0  0  0  0  0  0  0  0  0
  -22.4566  -30.4114   22.5920 C   0  0  0  0  0  0  0  0  0  0  0  0
  -27.8169  -26.2632   19.7767 C   0  0  0  0  0  0  0  0  0  0  0  0
  -29.7690  -25.2828   19.5255 C   0  0  0  0  0  0  0  0  0  0  0  0
  -29.3393  -12.3189   21.6126 C   0  0  0  0  0  0  0  0  0  0  0  0
  -29.9136  -27.7439   19.9384 C   0  0  0  0  0  0  0  0  0  0  0  0
  -28.2848  -11.7256   21.0202 C   0  0  0  0  0  0  0  0  0  0  0  0
  -22.9560  -18.3052   20.8619 C   0  0  0  0  0  0  0  0  0  0  0  0
  -20.2201  -16.7955   21.7323 C   0  0  0  0  0  0  0  0  0  0  0  0
  -18.5901  -13.8513   22.2994 C   0  0  0  0  0  0  0  0  0  0  0  0
  -30.1327  -19.9301   20.6042 C   0  0  0  0  0  0  0  0  0  0  0  0
  -21.7696  -22.9563   22.5989 C   0  0  0  0  0  0  0  0  0  0  0  0
  -22.6631  -16.6642   18.9705 C   0  0  0  0  0  0  0  0  0  0  0  0
  -22.3018  -15.3756   21.6075 C   0  0  0  0  0  0  0  0  0  0  0  0
  -21.6665  -21.5312   23.1361 C   0  0  0  0  0  0  0  0  0  0  0  0
  -27.6663  -20.8958   18.1381 C   0  0  0  0  0  0  0  0  0  0  0  0
  -22.9903  -20.7953   22.9549 C   0  0  0  0  0  0  0  0  0  0  0  0
  -27.6029  -22.4098   18.3481 C   0  0  0  0  0  0  0  0  0  0  0  0
  -27.8440  -20.1609   19.4635 C   0  0  0  0  0  0  0  0  0  0  0  0
  -28.9652  -22.1121   20.4683 C   0  0  0  0  0  0  0  0  0  0  0  0
  -23.3607  -20.6834   21.4710 C   0  0  1  0  0  0  0  0  0  0  0  0
  -22.0057  -17.3941   20.1377 C   0  0  1  0  0  0  0  0  0  0  0  0
  -28.8088  -22.9135   19.1631 C   0  0  2  0  0  0  0  0  0  0  0  0
  -31.3194  -12.8304   19.5394 C   0  0  0  0  0  0  0  0  0  0  0  0
  -28.2889  -14.5189   23.2058 C   0  0  0  0  0  0  0  0  0  0  0  0
  -27.9306  -10.3019   21.3643 C   0  0  0  0  0  0  0  0  0  0  0  0
  -16.3727  -12.9378   23.0385 C   0  0  0  0  0  0  0  0  0  0  0  0
  -20.8876  -17.5186   24.6205 C   0  0  0  0  0  0  0  0  0  0  0  0
  -19.2108  -15.8137   25.3616 C   0  0  0  0  0  0  0  0  0  0  0  0
  -18.4761  -17.7779   24.0109 C   0  0  0  0  0  0  0  0  0  0  0  0
  -18.1811  -12.4453   19.7274 C   0  0  0  0  0  0  0  0  0  0  0  0
  -31.1792  -17.6810   20.6642 C   0  0  0  0  0  0  0  0  0  0  0  0
  -27.3637  -12.3890   20.0297 C   0  0  0  0  0  0  0  0  0  1  0  0
  -19.7991  -15.9333   22.8978 C   0  0  1  0  0  0  0  0  0  0  0  0
  -17.2286  -13.3511   21.8513 C   0  0  2  0  0  0  0  0  0  0  0  0
  -19.6150  -16.7535   24.2058 C   0  0  0  0  0  0  0  0  0  0  0  0
  -27.5213  -24.9771   19.5704 N   0  0  0  0  0  0  0  0  0  0  0  0
  -28.7289  -24.4067   19.4209 N   0  0  0  0  0  0  0  0  0  0  0  0
  -21.4484  -16.4784   21.1352 N   0  0  0  0  0  0  0  0  0  0  0  0
  -29.0193  -20.6748   20.1810 N   0  0  0  0  0  0  0  0  0  0  0  0
  -31.0504  -24.8767   19.4012 N   0  0  0  0  0  0  0  0  0  0  0  0
  -29.1766  -28.9134   20.1694 N   0  0  0  0  0  0  0  0  0  0  0  0
  -22.5892  -19.6372   20.8350 N   0  0  0  0  0  0  0  0  0  0  0  0
  -18.6018  -15.2199   22.4663 N   0  0  0  0  0  0  0  0  0  0  0  0
  -30.1028  -18.5749   20.2990 N   0  0  0  0  0  0  0  0  0  0  0  0
  -17.3801  -12.1748   20.9490 N   0  3  0  0  0  0  0  0  0  0  0  0
  -31.1649  -27.8086   19.8785 O   0  0  0  0  0  0  0  0  0  0  0  0
  -23.9479  -17.8344   21.4062 O   0  0  0  0  0  0  0  0  0  0  0  0
  -19.4828  -17.7120   21.3607 O   0  0  0  0  0  0  0  0  0  0  0  0
  -19.5464  -13.1023   22.4864 O   0  0  0  0  0  0  0  0  0  0  0  0
  -31.0863  -20.4367   21.2051 O   0  0  0  0  0  0  0  0  0  0  0  0
  -23.7265  -29.9879   20.5902 O   0  0  0  0  0  0  0  0  0  0  0  0
  -26.0351  -12.3952   20.5505 O   0  0  0  0  0  0  0  0  0  1  0  0
  -19.6470  -28.6032   24.0318 F   0  0  0  0  0  0  0  0  0  0  0  0
  -23.2073  -31.4906   22.8519 F   0  0  0  0  0  0  0  0  0  0  0  0
  1  2  1  0  0  0  0
  1  5  2  0  0  0  0
  2  6  2  0  0  0  0
  3  8  2  0  0  0  0
  3 17  1  0  0  0  0
  4  9  1  0  0  0  0
  4 17  2  0  0  0  0
  5 20  1  0  0  0  0
  6 22  1  0  0  0  0
  7 10  2  0  0  0  0
  7 21  1  0  0  0  0
  8 27  1  0  0  0  0
  9 27  2  0  0  0  0
 10 28  1  0  0  0  0
 11 12  2  0  0  0  0
 11 29  1  0  0  0  0
 12 30  1  0  0  0  0
 13 23  1  0  0  0  0
 13 28  2  0  0  0  0
 14 24  1  0  0  0  0
 14 25  2  0  0  0  0
 15 24  2  0  0  0  0
 15 26  1  0  0  0  0
 16 30  2  0  0  0  0
 16 31  1  0  0  0  0
 17 32  1  0  0  0  0
 18 25  1  0  0  0  0
 18 26  2  0  0  0  0
 18 34  1  0  0  0  0
 19 32  1  0  0  0  0
 19 33  2  0  0  0  0
 19 35  1  0  0  0  0
 20 22  2  0  0  0  0
 20 41  1  0  0  0  0
 21 23  2  0  0  0  0
 21 42  1  0  0  0  0
 22 50  1  0  0  0  0
 23 43  1  0  0  0  0
 24 61  1  0  0  0  0
 25 53  1  0  0  0  0
 26 54  1  0  0  0  0
 27 81  1  0  0  0  0
 28 82  1  0  0  0  0
 29 31  2  0  0  0  0
 29 81  1  0  0  0  0
 30 83  1  0  0  0  0
 31 84  1  0  0  0  0
 32 66  2  0  0  0  0
 33 67  1  0  0  0  0
 33 70  1  0  0  0  0
 34 36  2  0  0  0  0
 35 71  1  0  0  0  0
 35 76  2  0  0  0  0
 36 55  1  0  0  0  0
 36 62  1  0  0  0  0
 37 51  1  0  0  0  0
 37 72  1  0  0  0  0
 37 77  2  0  0  0  0
 38 63  1  0  0  0  0
 38 68  1  0  0  0  0
 38 78  2  0  0  0  0
 39 64  1  0  0  0  0
 39 73  1  0  0  0  0
 39 79  2  0  0  0  0
 40 69  1  0  0  0  0
 40 74  1  0  0  0  0
 40 80  2  0  0  0  0
 41 44  1  0  0  0  0
 42 51  1  0  0  0  0
 43 68  1  0  0  0  0
 44 46  1  0  0  0  0
 45 47  1  0  0  0  0
 45 48  1  0  0  0  0
 46 50  1  0  0  0  0
 47 52  1  0  0  0  0
 48 69  1  0  0  0  0
 49 52  1  0  0  0  0
 49 69  1  0  0  0  0
 50 72  1  0  0  0  0
 51 68  1  0  0  0  0
 52 67  1  0  0  0  0
 56 64  1  0  0  0  0
 57 65  1  0  0  0  0
 58 65  1  0  0  0  0
 59 65  1  0  0  0  0
 60 75  1  0  0  0  0
 61 74  1  0  0  0  0
 62 82  1  0  0  0  0
 63 65  1  0  0  0  0
 63 73  1  0  0  0  0
 64 75  1  0  0  0  0
 66 67  1  0  0  0  0
M  CHG  1  75   1
M  ISO  4  40 100  62 101  74 100  82 101
M  END
> <Batch ID>
0039

> <Smiles>
CNC(C)C(=O)NC(C(=O)N1Cc2cc([101O:1][101CH2:1]C(C)=Cc3c(C)cc(C[100NH:0][100C:0](=O)N4CCCC(n5nc(-c6ccc(Oc7ccc(F)cc7F)cc6)c(C(N)=O)c5N)C4)cc3C)ccc2CC1C(=O)NC1CCCc2ccccc21)C(C)(C)C

> <Shape>
0.237

> <Color>
0.043

> <Negative vol penalty>
0.000

$$$$

  -OEChem-04042322043D

 88 97  0     1  0  0  0  0  0999 V2000
  -19.6508  -23.7967   22.7638 C   0  0  0  0  0  0  0  0  0  0  0  0
  -20.8248  -24.0984   22.0810 C   0  0  0  0  0  0  0  0  0  0  0  0
  -22.0324  -11.7676   21.7336 C   0  0  0  0  0  0  0  0  0  0  0  0
  -22.5619  -12.2721   19.4309 C   0  0  0  0  0  0  0  0  0  0  0  0
  -18.7759  -24.8190   23.1292 C   0  0  0  0  0  0  0  0  0  0  0  0
  -21.1241  -25.4225   21.7623 C   0  0  0  0  0  0  0  0  0  0  0  0
  -25.9482  -26.6132   22.7394 C   0  0  0  0  0  0  0  0  0  0  0  0
  -21.5789  -10.5047   21.3526 C   0  0  0  0  0  0  0  0  0  0  0  0
  -22.1085  -11.0092   19.0500 C   0  0  0  0  0  0  0  0  0  0  0  0
  -26.9081  -26.1835   21.8240 C   0  0  0  0  0  0  0  0  0  0  0  0
  -22.9299   -7.5141   20.5380 C   0  0  0  0  0  0  0  0  0  0  0  0
  -23.3329   -6.4217   21.3061 C   0  0  0  0  0  0  0  0  0  0  0  0
  -26.9498  -28.3867   20.8427 C   0  0  0  0  0  0  0  0  0  0  0  0
  -26.3670  -22.0617   18.6313 C   0  0  0  0  0  0  0  0  0  0  0  0
  -21.0226   -5.9186   21.8027 C   0  0  0  0  0  0  0  0  0  0  0  0
  -22.5239  -12.6513   20.7727 C   0  0  0  0  0  0  0  0  0  0  0  0
  -24.0392  -14.2502   22.0592 C   0  0  0  0  0  0  0  0  0  0  0  0
  -19.0693  -26.1573   22.8234 C   0  0  0  0  0  0  0  0  0  0  0  0
  -25.4732  -27.9321   22.7062 C   0  0  0  0  0  0  0  0  0  0  0  0
  -20.2517  -26.4635   22.1228 C   0  0  0  0  0  0  0  0  0  0  0  0
  -25.9858  -28.8314   21.7603 C   0  0  0  0  0  0  0  0  0  0  0  0
  -27.4966  -22.7655   18.2138 C   0  0  0  0  0  0  0  0  0  0  0  0
  -28.7619  -22.3791   18.6556 C   0  0  0  0  0  0  0  0  0  0  0  0
  -28.8977  -21.2888   19.5151 C   0  0  0  0  0  0  0  0  0  0  0  0
  -26.5028  -20.9714   19.4907 C   0  0  0  0  0  0  0  0  0  0  0  0
  -21.6170  -10.1255   20.0109 C   0  0  0  0  0  0  0  0  0  0  0  0
  -27.4069  -27.0695   20.8736 C   0  0  0  0  0  0  0  0  0  0  0  0
  -21.5733   -7.8088   20.4024 C   0  0  0  0  0  0  0  0  0  0  0  0
  -22.3793   -5.6240   21.9384 C   0  0  0  0  0  0  0  0  0  0  0  0
  -20.6196   -7.0111   21.0347 C   0  0  0  0  0  0  0  0  0  0  0  0
  -27.7681  -20.5850   19.9326 C   0  0  0  0  0  0  0  0  0  0  0  0
  -22.9919  -13.9562   21.1655 C   0  0  0  0  0  0  0  0  0  0  0  0
  -24.0872  -15.6225   22.0923 C   0  0  0  0  0  0  0  0  0  0  0  0
  -24.8923  -13.3623   22.7936 C   0  0  0  0  0  0  0  0  0  0  0  0
  -22.6374  -29.2834   22.2206 C   0  0  0  0  0  0  0  0  0  0  0  0
  -24.2337  -31.9988   22.9957 C   0  0  0  0  0  0  0  0  0  0  0  0
  -27.4578  -33.4528   22.2825 C   0  0  0  0  0  0  0  0  0  0  0  0
  -24.0173  -20.5622   19.5237 C   0  0  0  0  0  0  0  0  0  0  0  0
  -18.0701  -27.2233   23.1973 C   0  0  0  0  0  0  0  0  0  0  0  0
  -24.4573  -28.3874   23.7177 C   0  0  0  0  0  0  0  0  0  0  0  0
  -25.5236  -30.2634   21.6957 C   0  0  0  0  0  0  0  0  0  0  0  0
  -18.6427  -28.6376   23.1520 C   0  0  0  0  0  0  0  0  0  0  0  0
  -20.8682  -19.0761   20.2667 C   0  0  0  0  0  0  0  0  0  0  0  0
  -19.4327  -28.8527   21.8649 C   0  0  0  0  0  0  0  0  0  0  0  0
  -21.2261  -17.6358   20.6403 C   0  0  0  0  0  0  0  0  0  0  0  0
  -30.7349  -27.0306   20.0137 C   0  0  0  0  0  0  0  0  0  0  0  0
  -30.9569  -26.8640   18.5148 C   0  0  0  0  0  0  0  0  0  0  0  0
  -21.7550  -19.6074   19.1420 C   0  0  0  0  0  0  0  0  0  0  0  0
  -23.5569  -18.0419   19.7517 C   0  0  0  0  0  0  0  0  0  0  0  0
  -29.7447  -24.7133   20.1077 C   0  0  0  0  0  0  0  0  0  0  0  0
  -20.6234  -27.8901   21.7810 C   0  0  1  0  0  0  0  0  0  0  0  0
  -23.6686  -29.6116   23.2630 C   0  0  1  0  0  0  0  0  0  0  0  0
  -22.7335  -17.4853   20.9247 C   0  0  2  0  0  0  0  0  0  0  0  0
  -29.5773  -26.1717   20.5069 C   0  0  2  0  0  0  0  0  0  1  0  0
  -31.1433  -25.3957   18.1143 C   0  0  2  0  0  0  0  0  0  0  0  0
  -27.3236  -23.9299   17.2938 C   0  0  0  0  0  0  0  0  0  0  0  0
  -30.2649  -20.8912   19.9794 C   0  0  0  0  0  0  0  0  0  0  0  0
  -31.2816  -25.2883   16.5969 C   0  0  0  0  0  0  0  0  0  0  0  0
  -28.8454  -35.0727   23.6045 C   0  0  0  0  0  0  0  0  0  0  0  0
  -22.8678  -34.1210   21.2810 C   0  0  0  0  0  0  0  0  0  0  0  0
  -25.0431  -35.3580   21.2026 C   0  0  0  0  0  0  0  0  0  0  0  0
  -23.8991  -34.9875   23.3882 C   0  0  0  0  0  0  0  0  0  0  0  0
  -29.7949  -31.6370   22.2737 C   0  0  0  0  0  0  0  0  0  0  0  0
  -29.9738  -23.1407   18.2060 C   0  0  0  0  0  0  0  0  0  0  0  0
  -25.0126  -33.0378   22.2258 C   0  0  1  0  0  0  0  0  0  0  0  0
  -28.6170  -33.6116   23.2496 C   0  0  2  0  0  0  0  0  0  0  0  0
  -24.2040  -34.3491   22.0155 C   0  0  0  0  0  0  0  0  0  0  0  0
  -22.4161  -15.0534   20.6670 N   0  0  0  0  0  0  0  0  0  0  0  0
  -23.1039  -16.0503   21.2495 N   0  0  0  0  0  0  0  0  0  0  0  0
  -24.5244  -30.6590   22.7020 N   0  0  0  0  0  0  0  0  0  0  0  0
  -23.1688  -19.4355   19.4833 N   0  0  0  0  0  0  0  0  0  0  0  0
  -24.8741  -16.4928   22.7598 N   0  0  0  0  0  0  0  0  0  0  0  0
  -26.0905  -12.9432   22.1995 N   0  0  0  0  0  0  0  0  0  0  0  0
  -25.3325  -20.2806   19.8919 N   0  0  0  0  0  0  0  0  0  0  0  0
  -21.7045  -28.3485   22.6269 N   0  0  0  0  0  0  0  0  0  0  0  0
  -26.2700  -33.2197   22.9429 N   0  0  0  0  0  0  0  0  0  0  0  0
  -29.9393  -24.5967   18.6049 N   0  3  1  0  0  0  0  0  0  0  0  0
  -29.8700  -33.0724   22.6494 N   0  3  0  0  0  0  0  0  0  0  0  0
  -24.5929  -12.9397   23.9361 O   0  0  0  0  0  0  0  0  0  0  0  0
  -22.6837  -29.8385   21.1291 O   0  0  0  0  0  0  0  0  0  0  0  0
  -23.4032  -32.3625   23.8322 O   0  0  0  0  0  0  0  0  0  0  0  0
  -27.5918  -33.5316   21.0633 O   0  0  0  0  0  0  0  0  0  0  0  0
  -23.6009  -21.6972   19.2782 O   0  0  0  0  0  0  0  0  0  0  0  0
  -21.1748   -8.8932   19.6388 O   0  0  0  0  0  0  0  0  0  0  0  0
  -28.3433  -26.6525   19.9786 O   0  0  0  0  0  0  0  0  0  1  0  0
  -22.7663   -4.5741   22.6747 F   0  0  0  0  0  0  0  0  0  0  0  0
  -19.3148   -7.2885   20.9070 F   0  0  0  0  0  0  0  0  0  0  0  0
  -27.9389  -19.2288   21.0002 Cl  0  0  0  0  0  0  0  0  0  0  0  0
  1  2  1  0  0  0  0
  1  5  2  0  0  0  0
  2  6  2  0  0  0  0
  3  8  2  0  0  0  0
  3 16  1  0  0  0  0
  4  9  1  0  0  0  0
  4 16  2  0  0  0  0
  5 18  1  0  0  0  0
  6 20  1  0  0  0  0
  7 10  2  0  0  0  0
  7 19  1  0  0  0  0
  8 26  1  0  0  0  0
  9 26  2  0  0  0  0
 10 27  1  0  0  0  0
 11 12  2  0  0  0  0
 11 28  1  0  0  0  0
 12 29  1  0  0  0  0
 13 21  1  0  0  0  0
 13 27  2  0  0  0  0
 14 22  2  0  0  0  0
 14 25  1  0  0  0  0
 15 29  2  0  0  0  0
 15 30  1  0  0  0  0
 16 32  1  0  0  0  0
 17 32  1  0  0  0  0
 17 33  2  0  0  0  0
 17 34  1  0  0  0  0
 18 20  2  0  0  0  0
 18 39  1  0  0  0  0
 19 21  2  0  0  0  0
 19 40  1  0  0  0  0
 20 51  1  0  0  0  0
 21 41  1  0  0  0  0
 22 23  1  0  0  0  0
 22 56  1  0  0  0  0
 23 24  2  0  0  0  0
 23 64  1  0  0  0  0
 24 31  1  0  0  0  0
 24 57  1  0  0  0  0
 25 31  2  0  0  0  0
 25 74  1  0  0  0  0
 26 84  1  0  0  0  0
 27 85  1  0  0  0  0
 28 30  2  0  0  0  0
 28 84  1  0  0  0  0
 29 86  1  0  0  0  0
 30 87  1  0  0  0  0
 31 88  1  0  0  0  0
 32 68  2  0  0  0  0
 33 69  1  0  0  0  0
 33 72  1  0  0  0  0
 34 73  1  0  0  0  0
 34 79  2  0  0  0  0
 35 52  1  0  0  0  0
 35 75  1  0  0  0  0
 35 80  2  0  0  0  0
 36 65  1  0  0  0  0
 36 70  1  0  0  0  0
 36 81  2  0  0  0  0
 37 66  1  0  0  0  0
 37 76  1  0  0  0  0
 37 82  2  0  0  0  0
 38 71  1  0  0  0  0
 38 74  1  0  0  0  0
 38 83  2  0  0  0  0
 39 42  1  0  0  0  0
 40 52  1  0  0  0  0
 41 70  1  0  0  0  0
 42 44  1  0  0  0  0
 43 45  1  0  0  0  0
 43 48  1  0  0  0  0
 44 51  1  0  0  0  0
 45 53  1  0  0  0  0
 46 47  1  0  0  0  0
 46 54  1  0  0  0  0
 47 55  1  0  0  0  0
 48 71  1  0  0  0  0
 49 53  1  0  0  0  0
 49 71  1  0  0  0  0
 50 54  1  0  0  0  0
 50 77  1  0  0  0  0
 51 75  1  0  0  0  0
 52 70  1  0  0  0  0
 53 69  1  0  0  0  0
 54 85  1  0  0  0  0
 55 58  1  0  0  0  0
 55 77  1  0  0  0  0
 59 66  1  0  0  0  0
 60 67  1  0  0  0  0
 61 67  1  0  0  0  0
 62 67  1  0  0  0  0
 63 78  1  0  0  0  0
 64 77  1  0  0  0  0
 65 67  1  0  0  0  0
 65 76  1  0  0  0  0
 66 78  1  0  0  0  0
 68 69  1  0  0  0  0
M  CHG  2  77   1  78   1
M  ISO  4  38 100  54 101  74 100  85 101
M  END
> <Batch ID>
0039

> <Smiles>
CNC(C)C(=O)NC(C(=O)N1Cc2cc([101O:1][101CH:1]3CCC(C)N(Cc4c(C)cc([100NH:0][100C:0](=O)N5CCCC(n6nc(-c7ccc(Oc8ccc(F)cc8F)cc7)c(C(N)=O)c6N)C5)c(Cl)c4C)C3)ccc2CC1C(=O)NC1CCCc2ccccc21)C(C)(C)C

> <Shape>
0.263

> <Color>
0.079

> <Negative vol penalty>
0.000

$$$$

  -OEChem-04042322043D

 86 94  0     1  0  0  0  0  0999 V2000
  -17.3172  -29.9850   19.9028 C   0  0  0  0  0  0  0  0  0  0  0  0
  -18.5516  -30.0932   19.2704 C   0  0  0  0  0  0  0  0  0  0  0  0
  -24.9856  -12.7252   21.4572 C   0  0  0  0  0  0  0  0  0  0  0  0
  -24.9608  -13.0672   19.0656 C   0  0  0  0  0  0  0  0  0  0  0  0
  -17.2094  -30.2466   21.2680 C   0  0  0  0  0  0  0  0  0  0  0  0
  -19.6788  -30.4640   20.0027 C   0  0  0  0  0  0  0  0  0  0  0  0
  -25.4556  -26.1741   20.3448 C   0  0  0  0  0  0  0  0  0  0  0  0
  -23.9312  -11.8199   21.3387 C   0  0  0  0  0  0  0  0  0  0  0  0
  -23.9064  -12.1618   18.9471 C   0  0  0  0  0  0  0  0  0  0  0  0
  -26.6785  -25.5054   20.2866 C   0  0  0  0  0  0  0  0  0  0  0  0
  -23.5110   -8.5906   20.4286 C   0  0  0  0  0  0  0  0  0  0  0  0
  -23.6026   -7.3925   21.1370 C   0  0  0  0  0  0  0  0  0  0  0  0
  -30.7170  -21.8400   17.3257 C   0  0  0  0  0  0  0  0  0  0  0  0
  -27.6494  -27.1276   21.7944 C   0  0  0  0  0  0  0  0  0  0  0  0
  -32.6571  -20.2225   16.1414 C   0  0  0  0  0  0  0  0  0  0  0  0
  -21.5772   -7.9449   22.3328 C   0  0  0  0  0  0  0  0  0  0  0  0
  -25.5004  -13.3489   20.3207 C   0  0  0  0  0  0  0  0  0  0  0  0
  -31.5491  -22.3608   16.3347 C   0  0  0  0  0  0  0  0  0  0  0  0
  -27.9665  -13.9983   20.3871 C   0  0  0  0  0  0  0  0  0  0  0  0
  -18.3377  -30.6115   22.0194 C   0  0  0  0  0  0  0  0  0  0  0  0
  -25.3205  -27.3147   21.1411 C   0  0  0  0  0  0  0  0  0  0  0  0
  -19.5858  -30.7321   21.3790 C   0  0  0  0  0  0  0  0  0  0  0  0
  -26.4235  -27.7944   21.8665 C   0  0  0  0  0  0  0  0  0  0  0  0
  -32.5190  -21.5520   15.7425 C   0  0  0  0  0  0  0  0  0  0  0  0
  -30.8551  -20.5105   17.7247 C   0  0  0  0  0  0  0  0  0  0  0  0
  -23.3915  -11.5381   20.0836 C   0  0  0  0  0  0  0  0  0  0  0  0
  -27.7728  -25.9811   21.0094 C   0  0  0  0  0  0  0  0  0  0  0  0
  -22.4527   -9.4659   20.6723 C   0  0  0  0  0  0  0  0  0  0  0  0
  -22.6357   -7.0697   22.0891 C   0  0  0  0  0  0  0  0  0  0  0  0
  -31.8251  -19.7018   17.1325 C   0  0  0  0  0  0  0  0  0  0  0  0
  -21.4857   -9.1430   21.6244 C   0  0  0  0  0  0  0  0  0  0  0  0
  -26.5893  -14.2847   20.4425 C   0  0  0  0  0  0  0  0  0  0  0  0
  -28.5776  -15.2170   20.5542 C   0  0  0  0  0  0  0  0  0  0  0  0
  -31.3827  -23.7331   15.9448 C   0  0  0  0  0  0  0  0  0  0  0  0
  -28.6337  -12.7430   20.2011 C   0  0  0  0  0  0  0  0  0  0  0  0
  -31.5172  -24.8340   16.7127 C   0  0  0  0  0  0  0  0  0  0  0  0
  -23.0707  -30.0426   22.3952 C   0  0  0  0  0  0  0  0  0  0  0  0
  -24.7942  -29.1470   24.7696 C   0  0  0  0  0  0  0  0  0  0  0  0
  -26.5849  -27.5869   27.2185 C   0  0  0  0  0  0  0  0  0  0  0  0
  -28.9968  -20.6521   19.4197 C   0  0  0  0  0  0  0  0  0  0  0  0
  -18.1630  -30.9304   23.4831 C   0  0  0  0  0  0  0  0  0  0  0  0
  -24.0392  -28.1021   21.1856 C   0  0  0  0  0  0  0  0  0  0  0  0
  -26.2413  -29.0450   22.6825 C   0  0  0  0  0  0  0  0  0  0  0  0
  -19.4755  -30.9534   24.2623 C   0  0  0  0  0  0  0  0  0  0  0  0
  -26.6698  -19.6962   21.9393 C   0  0  0  0  0  0  0  0  0  0  0  0
  -20.5328  -31.7492   23.5037 C   0  0  0  0  0  0  0  0  0  0  0  0
  -26.5547  -18.1795   21.7699 C   0  0  0  0  0  0  0  0  0  0  0  0
  -26.8214  -20.4070   20.5956 C   0  0  0  0  0  0  0  0  0  0  0  0
  -27.7916  -18.3852   19.5757 C   0  0  0  0  0  0  0  0  0  0  0  0
  -20.8361  -31.1077   22.1443 C   0  0  1  0  0  0  0  0  0  0  0  0
  -23.7583  -28.7201   22.5671 C   0  0  1  0  0  0  0  0  0  0  0  0
  -27.7022  -17.6203   20.9063 C   0  0  2  0  0  0  0  0  0  0  0  0
  -33.4280  -22.0761   14.6776 C   0  0  0  0  0  0  0  0  0  0  0  0
  -31.2841  -26.2010   16.1208 C   0  0  0  0  0  0  0  0  0  0  0  0
  -27.0393  -27.6729   29.6849 C   0  0  0  0  0  0  0  0  0  0  0  0
  -26.5956  -31.5723   24.3493 C   0  0  0  0  0  0  0  0  0  0  0  0
  -27.7126  -31.0305   26.5235 C   0  0  0  0  0  0  0  0  0  0  0  0
  -25.2849  -31.6024   26.4790 C   0  0  0  0  0  0  0  0  0  0  0  0
  -25.5172  -24.8572   27.6281 C   0  0  0  0  0  0  0  0  0  0  0  0
  -31.9400  -24.8372   18.1589 C   0  0  0  0  0  0  0  0  0  0  0  0
  -30.1460  -26.1019   21.1117 C   0  0  0  0  0  0  0  0  0  1  0  0
  -31.2724  -25.4612   20.3240 C   0  0  0  0  0  0  0  0  0  0  0  0
  -26.0486  -29.3676   25.5765 C   0  0  1  0  0  0  0  0  0  0  0  0
  -26.1806  -27.0665   28.5860 C   0  0  2  0  0  0  0  0  0  0  0  0
  -26.4094  -30.8740   25.7112 C   0  0  0  0  0  0  0  0  0  0  0  0
  -26.3398  -15.5833   20.6303 N   0  0  0  0  0  0  0  0  0  0  0  0
  -27.5686  -16.1238   20.6944 N   0  0  0  0  0  0  0  0  0  0  0  0
  -24.9496  -29.0023   23.3856 N   0  0  0  0  0  0  0  0  0  0  0  0
  -27.9300  -19.8270   19.8344 N   0  0  0  0  0  0  0  0  0  0  0  0
  -29.8742  -15.5906   20.5934 N   0  0  0  0  0  0  0  0  0  0  0  0
  -27.8543  -11.5887   20.0448 N   0  0  0  0  0  0  0  0  0  0  0  0
  -30.0090  -19.9836   18.7318 N   0  0  0  0  0  0  0  0  0  0  0  0
  -21.6944  -29.9543   22.3099 N   0  0  0  0  0  0  0  0  0  0  0  0
  -25.8398  -28.6870   26.8500 N   0  0  0  0  0  0  0  0  0  0  0  0
  -26.3261  -25.5843   28.6400 N   0  3  0  0  0  0  0  0  0  0  0  0
  -29.8843  -12.6453   20.1906 O   0  0  0  0  0  0  0  0  0  0  0  0
  -23.7386  -31.0688   22.3450 O   0  0  0  0  0  0  0  0  0  0  0  0
  -23.7042  -29.1092   25.3474 O   0  0  0  0  0  0  0  0  0  0  0  0
  -27.4752  -27.0715   26.5461 O   0  0  0  0  0  0  0  0  0  0  0  0
  -29.0243  -21.8575   19.6809 O   0  0  0  0  0  0  0  0  0  0  0  0
  -22.3628  -10.6546   19.9676 O   0  0  0  0  0  0  0  0  0  0  0  0
  -28.9625  -25.3209   20.9517 O   0  0  0  0  0  0  0  0  0  1  0  0
  -30.9193  -25.4345   18.9464 O   0  0  0  0  0  0  0  0  0  0  0  0
  -22.7228   -5.9185   22.7683 F   0  0  0  0  0  0  0  0  0  0  0  0
  -31.9668  -18.4226   17.5081 F   0  0  0  0  0  0  0  0  0  0  0  0
  -20.4660   -9.9794   21.8621 F   0  0  0  0  0  0  0  0  0  0  0  0
  1  2  1  0  0  0  0
  1  5  2  0  0  0  0
  2  6  2  0  0  0  0
  3  8  2  0  0  0  0
  3 17  1  0  0  0  0
  4  9  1  0  0  0  0
  4 17  2  0  0  0  0
  5 20  1  0  0  0  0
  6 22  1  0  0  0  0
  7 10  2  0  0  0  0
  7 21  1  0  0  0  0
  8 26  1  0  0  0  0
  9 26  2  0  0  0  0
 10 27  1  0  0  0  0
 11 12  2  0  0  0  0
 11 28  1  0  0  0  0
 12 29  1  0  0  0  0
 13 18  1  0  0  0  0
 13 25  2  0  0  0  0
 14 23  1  0  0  0  0
 14 27  2  0  0  0  0
 15 24  1  0  0  0  0
 15 30  2  0  0  0  0
 16 29  2  0  0  0  0
 16 31  1  0  0  0  0
 17 32  1  0  0  0  0
 18 24  2  0  0  0  0
 18 34  1  0  0  0  0
 19 32  1  0  0  0  0
 19 33  2  0  0  0  0
 19 35  1  0  0  0  0
 20 22  2  0  0  0  0
 20 41  1  0  0  0  0
 21 23  2  0  0  0  0
 21 42  1  0  0  0  0
 22 50  1  0  0  0  0
 23 43  1  0  0  0  0
 24 53  1  0  0  0  0
 25 30  1  0  0  0  0
 25 72  1  0  0  0  0
 26 81  1  0  0  0  0
 27 82  1  0  0  0  0
 28 31  2  0  0  0  0
 28 81  1  0  0  0  0
 29 84  1  0  0  0  0
 30 85  1  0  0  0  0
 31 86  1  0  0  0  0
 32 66  2  0  0  0  0
 33 67  1  0  0  0  0
 33 70  1  0  0  0  0
 34 36  2  0  0  0  0
 35 71  1  0  0  0  0
 35 76  2  0  0  0  0
 36 54  1  0  0  0  0
 36 60  1  0  0  0  0
 37 51  1  0  0  0  0
 37 73  1  0  0  0  0
 37 77  2  0  0  0  0
 38 63  1  0  0  0  0
 38 68  1  0  0  0  0
 38 78  2  0  0  0  0
 39 64  1  0  0  0  0
 39 74  1  0  0  0  0
 39 79  2  0  0  0  0
 40 69  1  0  0  0  0
 40 72  1  0  0  0  0
 40 80  2  0  0  0  0
 41 44  1  0  0  0  0
 42 51  1  0  0  0  0
 43 68  1  0  0  0  0
 44 46  1  0  0  0  0
 45 47  1  0  0  0  0
 45 48  1  0  0  0  0
 46 50  1  0  0  0  0
 47 52  1  0  0  0  0
 48 69  1  0  0  0  0
 49 52  1  0  0  0  0
 49 69  1  0  0  0  0
 50 73  1  0  0  0  0
 51 68  1  0  0  0  0
 52 67  1  0  0  0  0
 55 64  1  0  0  0  0
 56 65  1  0  0  0  0
 57 65  1  0  0  0  0
 58 65  1  0  0  0  0
 59 75  1  0  0  0  0
 60 83  1  0  0  0  0
 61 62  1  0  0  0  0
 61 82  1  0  0  0  0
 62 83  1  0  0  0  0
 63 65  1  0  0  0  0
 63 74  1  0  0  0  0
 64 75  1  0  0  0  0
 66 67  1  0  0  0  0
M  CHG  1  75   1
M  ISO  4  40 100  61 101  72 100  82 101
M  END
> <Batch ID>
0039

> <Smiles>
CNC(C)C(=O)NC(C(=O)N1Cc2cc([101O:1][101CH2:1]COCC(C)=Cc3cc([100NH:0][100C:0](=O)N4CCCC(n5nc(-c6ccc(Oc7ccc(F)cc7F)cc6)c(C(N)=O)c5N)C4)c(F)cc3C)ccc2CC1C(=O)NC1CCCc2ccccc21)C(C)(C)C

> <Shape>
0.261

> <Color>
0.069

> <Negative vol penalty>
0.000

$$$$

  -OEChem-04042322043D

 85 93  0     1  0  0  0  0  0999 V2000
  -25.7403  -29.3777   19.7219 C   0  0  0  0  0  0  0  0  0  0  0  0
  -25.2594  -28.1711   19.2236 C   0  0  0  0  0  0  0  0  0  0  0  0
  -19.6259  -22.4035   21.8647 C   0  0  0  0  0  0  0  0  0  0  0  0
  -21.9000  -22.1629   22.6444 C   0  0  0  0  0  0  0  0  0  0  0  0
  -27.0744  -29.4873   20.1120 C   0  0  0  0  0  0  0  0  0  0  0  0
  -26.1126  -27.0737   19.1141 C   0  0  0  0  0  0  0  0  0  0  0  0
  -26.0962  -19.9236   19.5527 C   0  0  0  0  0  0  0  0  0  0  0  0
  -19.5141  -23.6064   22.5618 C   0  0  0  0  0  0  0  0  0  0  0  0
  -21.7882  -23.3659   23.3415 C   0  0  0  0  0  0  0  0  0  0  0  0
  -26.4832  -18.7990   18.8252 C   0  0  0  0  0  0  0  0  0  0  0  0
  -18.7497  -26.9214   23.8430 C   0  0  0  0  0  0  0  0  0  0  0  0
  -18.1609  -28.0006   23.1840 C   0  0  0  0  0  0  0  0  0  0  0  0
  -28.7487  -19.0823   19.6039 C   0  0  0  0  0  0  0  0  0  0  0  0
  -24.0023  -12.2177   20.9185 C   0  0  0  0  0  0  0  0  0  0  0  0
  -19.8801  -27.9037   21.4893 C   0  0  0  0  0  0  0  0  0  0  0  0
  -20.8188  -21.6817   21.9060 C   0  0  0  0  0  0  0  0  0  0  0  0
  -26.5066  -13.2538   20.2570 C   0  0  0  0  0  0  0  0  0  0  0  0
  -21.3710  -20.2618   19.8599 C   0  0  0  0  0  0  0  0  0  0  0  0
  -27.9420  -28.3879   20.0163 C   0  0  0  0  0  0  0  0  0  0  0  0
  -27.0363  -20.6436   20.3038 C   0  0  0  0  0  0  0  0  0  0  0  0
  -27.4599  -27.1691   19.5020 C   0  0  0  0  0  0  0  0  0  0  0  0
  -28.3706  -20.2141   20.3421 C   0  0  0  0  0  0  0  0  0  0  0  0
  -25.5962  -14.0324   20.9717 C   0  0  0  0  0  0  0  0  0  0  0  0
  -24.3441  -13.5143   21.3024 C   0  0  0  0  0  0  0  0  0  0  0  0
  -20.5953  -24.0877   23.3002 C   0  0  0  0  0  0  0  0  0  0  0  0
  -27.8101  -18.3798   18.8484 C   0  0  0  0  0  0  0  0  0  0  0  0
  -19.9038  -26.3334   23.3253 C   0  0  0  0  0  0  0  0  0  0  0  0
  -18.7261  -28.4917   22.0071 C   0  0  0  0  0  0  0  0  0  0  0  0
  -20.4690  -26.8246   22.1484 C   0  0  0  0  0  0  0  0  0  0  0  0
  -24.9126  -11.4390   20.2039 C   0  0  0  0  0  0  0  0  0  0  0  0
  -26.1648  -11.9571   19.8732 C   0  0  0  0  0  0  0  0  0  0  0  0
  -20.9347  -20.4386   21.1866 C   0  0  0  0  0  0  0  0  0  0  0  0
  -21.2995  -18.9059   19.6528 C   0  0  0  0  0  0  0  0  0  0  0  0
  -27.8329  -13.8300   19.9167 C   0  0  0  0  0  0  0  0  0  0  0  0
  -21.8025  -21.2360   18.9006 C   0  0  0  0  0  0  0  0  0  0  0  0
  -28.1604  -23.6160   20.2354 C   0  0  0  0  0  0  0  0  0  0  0  0
  -29.6782  -22.6892   22.9483 C   0  0  0  0  0  0  0  0  0  0  0  0
  -30.9217  -20.1398   24.8459 C   0  0  0  0  0  0  0  0  0  0  0  0
  -22.1226  -13.9056   22.4242 C   0  0  0  0  0  0  0  0  0  0  0  0
  -29.3878  -28.5680   20.4060 C   0  0  0  0  0  0  0  0  0  0  0  0
  -26.5976  -21.8389   21.1045 C   0  0  0  0  0  0  0  0  0  0  0  0
  -29.4146  -20.9404   21.1491 C   0  0  0  0  0  0  0  0  0  0  0  0
  -30.1325  -27.2510   20.6089 C   0  0  0  0  0  0  0  0  0  0  0  0
  -18.8560  -15.1768   21.7993 C   0  0  0  0  0  0  0  0  0  0  0  0
  -29.8416  -26.2908   19.4599 C   0  0  0  0  0  0  0  0  0  0  0  0
  -19.0999  -16.6462   21.4476 C   0  0  0  0  0  0  0  0  0  0  0  0
  -19.8101  -14.6883   22.8877 C   0  0  0  0  0  0  0  0  0  0  0  0
  -21.4781  -16.3905   22.2636 C   0  0  0  0  0  0  0  0  0  0  0  0
  -28.3483  -25.9490   19.3912 C   0  0  1  0  0  0  0  0  0  0  0  0
  -27.7412  -22.7970   21.4233 C   0  0  1  0  0  0  0  0  0  0  0  0
  -20.5840  -16.9097   21.1258 C   0  0  2  0  0  0  0  0  0  0  0  0
  -25.9577  -15.4261   21.3852 C   0  0  0  0  0  0  0  0  0  0  0  0
  -32.1404  -19.6963   26.9943 C   0  0  0  0  0  0  0  0  0  0  0  0
  -32.2828  -23.6204   21.6602 C   0  0  0  0  0  0  0  0  0  0  0  0
  -33.5270  -22.3126   23.3951 C   0  0  0  0  0  0  0  0  0  0  0  0
  -32.0501  -24.2022   24.0814 C   0  0  0  0  0  0  0  0  0  0  0  0
  -28.6804  -18.5336   25.9208 C   0  0  0  0  0  0  0  0  0  0  0  0
  -29.1399  -15.0752   18.2146 C   0  0  0  0  0  0  0  0  0  0  0  0
  -29.2812  -16.5212   18.6553 C   0  0  0  0  0  0  0  0  0  1  0  0
  -31.0083  -22.0485   23.2637 C   0  0  1  0  0  0  0  0  0  0  0  0
  -30.7813  -19.8230   26.3239 C   0  0  2  0  0  0  0  0  0  0  0  0
  -32.1980  -23.0332   23.0832 C   0  0  0  0  0  0  0  0  0  0  0  0
  -20.6098  -19.2872   21.7804 N   0  0  0  0  0  0  0  0  0  0  0  0
  -20.8421  -18.3738   20.8224 N   0  0  0  0  0  0  0  0  0  0  0  0
  -28.9375  -22.1070   21.9100 N   0  0  0  0  0  0  0  0  0  0  0  0
  -21.1978  -14.9676   22.5121 N   0  0  0  0  0  0  0  0  0  0  0  0
  -21.5837  -18.1288   18.5862 N   0  0  0  0  0  0  0  0  0  0  0  0
  -21.8150  -22.5856   19.2782 N   0  0  0  0  0  0  0  0  0  0  0  0
  -23.4035  -14.2879   22.0267 N   0  0  0  0  0  0  0  0  0  0  0  0
  -27.9182  -14.4864   18.6953 N   0  0  0  0  0  0  0  0  0  0  0  0
  -28.0047  -24.9782   20.4080 N   0  0  0  0  0  0  0  0  0  0  0  0
  -30.8873  -21.4977   24.6091 N   0  0  0  0  0  0  0  0  0  0  0  0
  -30.0436  -18.5416   26.5111 N   0  3  0  0  0  0  0  0  0  0  0  0
  -28.7687  -13.6851   20.6990 O   0  0  0  0  0  0  0  0  0  0  0  0
  -22.1506  -20.9207   17.7374 O   0  0  0  0  0  0  0  0  0  0  0  0
  -28.5946  -23.0539   19.2368 O   0  0  0  0  0  0  0  0  0  0  0  0
  -29.3068  -23.6658   23.6041 O   0  0  0  0  0  0  0  0  0  0  0  0
  -31.0529  -19.2698   23.9877 O   0  0  0  0  0  0  0  0  0  0  0  0
  -21.7951  -12.7390   22.6561 O   0  0  0  0  0  0  0  0  0  0  0  0
  -20.4867  -25.2616   23.9803 O   0  0  0  0  0  0  0  0  0  0  0  0
  -28.1907  -17.2829   18.1387 O   0  0  0  0  0  0  0  0  0  1  0  0
  -18.1596  -29.5270   21.3735 F   0  0  0  0  0  0  0  0  0  0  0  0
  -21.5770  -26.2631   21.6456 F   0  0  0  0  0  0  0  0  0  0  0  0
  -24.4220   -9.8404   19.7606 Cl  0  0  0  0  0  0  0  0  0  0  0  0
  -27.3103  -10.9997   18.9848 Cl  0  0  0  0  0  0  0  0  0  0  0  0
  1  2  1  0  0  0  0
  1  5  2  0  0  0  0
  2  6  2  0  0  0  0
  3  8  2  0  0  0  0
  3 16  1  0  0  0  0
  4  9  1  0  0  0  0
  4 16  2  0  0  0  0
  5 19  1  0  0  0  0
  6 21  1  0  0  0  0
  7 10  2  0  0  0  0
  7 20  1  0  0  0  0
  8 25  1  0  0  0  0
  9 25  2  0  0  0  0
 10 26  1  0  0  0  0
 11 12  2  0  0  0  0
 11 27  1  0  0  0  0
 12 28  1  0  0  0  0
 13 22  1  0  0  0  0
 13 26  2  0  0  0  0
 14 24  1  0  0  0  0
 14 30  2  0  0  0  0
 15 28  2  0  0  0  0
 15 29  1  0  0  0  0
 16 32  1  0  0  0  0
 17 23  1  0  0  0  0
 17 31  2  0  0  0  0
 17 34  1  0  0  0  0
 18 32  1  0  0  0  0
 18 33  2  0  0  0  0
 18 35  1  0  0  0  0
 19 21  2  0  0  0  0
 19 40  1  0  0  0  0
 20 22  2  0  0  0  0
 20 41  1  0  0  0  0
 21 49  1  0  0  0  0
 22 42  1  0  0  0  0
 23 24  2  0  0  0  0
 23 52  1  0  0  0  0
 24 69  1  0  0  0  0
 25 80  1  0  0  0  0
 26 81  1  0  0  0  0
 27 29  2  0  0  0  0
 27 80  1  0  0  0  0
 28 82  1  0  0  0  0
 29 83  1  0  0  0  0
 30 31  1  0  0  0  0
 30 84  1  0  0  0  0
 31 85  1  0  0  0  0
 32 63  2  0  0  0  0
 33 64  1  0  0  0  0
 33 67  1  0  0  0  0
 34 70  1  0  0  0  0
 34 74  2  0  0  0  0
 35 68  1  0  0  0  0
 35 75  2  0  0  0  0
 36 50  1  0  0  0  0
 36 71  1  0  0  0  0
 36 76  2  0  0  0  0
 37 60  1  0  0  0  0
 37 65  1  0  0  0  0
 37 77  2  0  0  0  0
 38 61  1  0  0  0  0
 38 72  1  0  0  0  0
 38 78  2  0  0  0  0
 39 66  1  0  0  0  0
 39 69  1  0  0  0  0
 39 79  2  0  0  0  0
 40 43  1  0  0  0  0
 41 50  1  0  0  0  0
 42 65  1  0  0  0  0
 43 45  1  0  0  0  0
 44 46  1  0  0  0  0
 44 47  1  0  0  0  0
 45 49  1  0  0  0  0
 46 51  1  0  0  0  0
 47 66  1  0  0  0  0
 48 51  1  0  0  0  0
 48 66  1  0  0  0  0
 49 71  1  0  0  0  0
 50 65  1  0  0  0  0
 51 64  1  0  0  0  0
 53 61  1  0  0  0  0
 54 62  1  0  0  0  0
 55 62  1  0  0  0  0
 56 62  1  0  0  0  0
 57 73  1  0  0  0  0
 58 59  1  0  0  0  0
 58 70  1  0  0  0  0
 59 81  1  0  0  0  0
 60 62  1  0  0  0  0
 60 72  1  0  0  0  0
 61 73  1  0  0  0  0
 63 64  1  0  0  0  0
M  CHG  1  73   1
M  ISO  4  39 100  59 101  69 100  81 101
M  END
> <Batch ID>
0039

> <Smiles>
CNC(C)C(=O)NC(C(=O)N1Cc2cc([101O:1][101CH2:1]CNC(=O)c3c(C)c([100NH:0][100C:0](=O)N4CCCC(n5nc(-c6ccc(Oc7ccc(F)cc7F)cc6)c(C(N)=O)c5N)C4)cc(Cl)c3Cl)ccc2CC1C(=O)NC1CCCc2ccccc21)C(C)(C)C

> <Shape>
0.211

> <Color>
0.062

> <Negative vol penalty>
0.000

$$$$

  -OEChem-04042322042D

  0  0  0     0  0  0  0  0  0999 V2000
M  END
$$$$

  -OEChem-04042322043D

 89 98  0     1  0  0  0  0  0999 V2000
  -16.4990  -31.2739   22.8212 C   0  0  0  0  0  0  0  0  0  0  0  0
  -17.2639  -31.5437   21.6909 C   0  0  0  0  0  0  0  0  0  0  0  0
  -27.7711  -15.0933   21.2593 C   0  0  0  0  0  0  0  0  0  0  0  0
  -25.9924  -15.5068   19.6774 C   0  0  0  0  0  0  0  0  0  0  0  0
  -17.0782  -31.3478   24.0873 C   0  0  0  0  0  0  0  0  0  0  0  0
  -18.6082  -31.8886   21.8261 C   0  0  0  0  0  0  0  0  0  0  0  0
  -24.9576  -28.5941   18.6863 C   0  0  0  0  0  0  0  0  0  0  0  0
  -27.3589  -13.7659   21.3757 C   0  0  0  0  0  0  0  0  0  0  0  0
  -25.5803  -14.1793   19.7938 C   0  0  0  0  0  0  0  0  0  0  0  0
  -26.1654  -28.0018   18.3169 C   0  0  0  0  0  0  0  0  0  0  0  0
  -23.8086  -12.3032   21.9783 C   0  0  0  0  0  0  0  0  0  0  0  0
  -22.4426  -12.0586   22.1184 C   0  0  0  0  0  0  0  0  0  0  0  0
  -27.2324  -28.9293   20.2789 C   0  0  0  0  0  0  0  0  0  0  0  0
  -25.4391  -23.6732   16.4791 C   0  0  0  0  0  0  0  0  0  0  0  0
  -25.8388  -25.6831   15.1995 C   0  0  0  0  0  0  0  0  0  0  0  0
  -22.4690  -10.7484   20.0886 C   0  0  0  0  0  0  0  0  0  0  0  0
  -27.0877  -15.9639   20.4101 C   0  0  0  0  0  0  0  0  0  0  0  0
  -28.7683  -17.8015   19.8564 C   0  0  0  0  0  0  0  0  0  0  0  0
  -18.4327  -31.6843   24.2376 C   0  0  0  0  0  0  0  0  0  0  0  0
  -24.8787  -29.3443   19.8629 C   0  0  0  0  0  0  0  0  0  0  0  0
  -19.2057  -31.9684   23.0955 C   0  0  0  0  0  0  0  0  0  0  0  0
  -26.0222  -29.5145   20.6605 C   0  0  0  0  0  0  0  0  0  0  0  0
  -26.3119  -24.5055   15.7783 C   0  0  0  0  0  0  0  0  0  0  0  0
  -24.0931  -24.0184   16.6009 C   0  0  0  0  0  0  0  0  0  0  0  0
  -23.6200  -25.1960   16.0221 C   0  0  0  0  0  0  0  0  0  0  0  0
  -26.2636  -13.3089   20.6429 C   0  0  0  0  0  0  0  0  0  0  0  0
  -27.3001  -28.1692   19.1112 C   0  0  0  0  0  0  0  0  0  0  0  0
  -24.5049  -11.7704   20.8934 C   0  0  0  0  0  0  0  0  0  0  0  0
  -21.7728  -11.2812   21.1736 C   0  0  0  0  0  0  0  0  0  0  0  0
  -23.8351  -10.9931   19.9485 C   0  0  0  0  0  0  0  0  0  0  0  0
  -24.4928  -26.0284   15.3214 C   0  0  0  0  0  0  0  0  0  0  0  0
  -27.5126  -17.3354   20.2899 C   0  0  0  0  0  0  0  0  0  0  0  0
  -28.6678  -19.1697   19.9215 C   0  0  0  0  0  0  0  0  0  0  0  0
  -29.9223  -17.0636   19.4327 C   0  0  0  0  0  0  0  0  0  0  0  0
  -22.7348  -31.3809   22.1720 C   0  0  0  0  0  0  0  0  0  0  0  0
  -24.5536  -29.6526   23.9371 C   0  0  0  0  0  0  0  0  0  0  0  0
  -25.9106  -27.1322   25.2444 C   0  0  0  0  0  0  0  0  0  0  0  0
  -24.0162  -22.9324   19.6863 C   0  0  0  0  0  0  0  0  0  0  0  0
  -19.0025  -31.7977   25.6294 C   0  0  0  0  0  0  0  0  0  0  0  0
  -23.6137  -30.0513   20.2677 C   0  0  0  0  0  0  0  0  0  0  0  0
  -25.8989  -30.3587   21.8995 C   0  0  0  0  0  0  0  0  0  0  0  0
  -20.5286  -31.8044   25.6641 C   0  0  0  0  0  0  0  0  0  0  0  0
  -29.7434  -24.1030   19.5726 C   0  0  0  0  0  0  0  0  0  0  0  0
  -26.4103  -22.6493   22.3063 C   0  0  0  0  0  0  0  0  0  0  0  0
  -21.0823  -32.7595   24.6115 C   0  0  0  0  0  0  0  0  0  0  0  0
  -27.0776  -21.2973   22.0475 C   0  0  0  0  0  0  0  0  0  0  0  0
  -29.4735  -25.6037   19.6568 C   0  0  0  0  0  0  0  0  0  0  0  0
  -30.5560  -23.7253   18.3352 C   0  0  0  0  0  0  0  0  0  0  0  0
  -24.9209  -22.6170   21.9706 C   0  0  0  0  0  0  0  0  0  0  0  0
  -25.2701  -20.7920   20.3516 C   0  0  0  0  0  0  0  0  0  0  0  0
  -28.7971  -25.8232   17.1785 C   0  0  0  0  0  0  0  0  0  0  0  0
  -20.6735  -32.3217   23.1998 C   0  0  1  0  0  0  0  0  0  0  0  0
  -23.4083  -30.0949   21.7925 C   0  0  1  0  0  0  0  0  0  0  0  0
  -26.7843  -20.7909   20.6225 C   0  0  2  0  0  0  0  0  0  0  0  0
  -28.4836  -26.1585   18.6333 C   0  0  2  0  0  0  0  0  0  1  0  0
  -29.7481  -23.4406   17.0597 C   0  0  2  0  0  0  0  0  0  0  0  0
  -22.1725  -25.5516   16.1618 C   0  0  0  0  0  0  0  0  0  0  0  0
  -30.6533  -23.4959   15.8280 C   0  0  0  0  0  0  0  0  0  0  0  0
  -26.9768  -25.8712   27.1340 C   0  0  0  0  0  0  0  0  0  0  0  0
  -26.3721  -32.0603   24.3838 C   0  0  0  0  0  0  0  0  0  0  0  0
  -27.5815  -30.7337   26.1290 C   0  0  0  0  0  0  0  0  0  0  0  0
  -25.1639  -31.2719   26.4266 C   0  0  0  0  0  0  0  0  0  0  0  0
  -23.8546  -25.0060   25.1393 C   0  0  0  0  0  0  0  0  0  0  0  0
  -23.1809  -23.1074   17.3559 C   0  0  0  0  0  0  0  0  0  0  0  0
  -27.7597  -24.1340   15.6485 C   0  0  0  0  0  0  0  0  0  0  0  0
  -25.8480  -29.5526   24.7038 C   0  0  1  0  0  0  0  0  0  0  0  0
  -25.6832  -26.1609   26.3887 C   0  0  2  0  0  0  0  0  0  0  0  0
  -26.2390  -30.8948   25.3842 C   0  0  0  0  0  0  0  0  0  0  0  0
  -26.6760  -18.3271   20.6071 N   0  0  0  0  0  0  0  0  0  0  0  0
  -27.4073  -19.4299   20.3728 N   0  0  0  0  0  0  0  0  0  0  0  0
  -24.6413  -30.0472   22.5966 N   0  0  0  0  0  0  0  0  0  0  0  0
  -24.7114  -22.1292   20.6053 N   0  0  0  0  0  0  0  0  0  0  0  0
  -29.5357  -20.1637   19.6362 N   0  0  0  0  0  0  0  0  0  0  0  0
  -30.0497  -16.7449   18.0738 N   0  0  0  0  0  0  0  0  0  0  0  0
  -21.4937  -31.2149   22.7564 N   0  0  0  0  0  0  0  0  0  0  0  0
  -25.6884  -28.4371   25.6305 N   0  0  0  0  0  0  0  0  0  0  0  0
  -23.8672  -22.3978   18.4124 N   0  0  0  0  0  0  0  0  0  0  0  0
  -28.5435  -24.3554   16.9199 N   0  3  2  0  0  0  0  0  0  0  0  0
  -25.1388  -24.8725   25.8741 N   0  3  0  0  0  0  0  0  0  0  0  0
  -30.8058  -16.6834   20.2379 O   0  0  0  0  0  0  0  0  0  0  0  0
  -23.2994  -32.4462   21.9527 O   0  0  0  0  0  0  0  0  0  0  0  0
  -23.4916  -29.3940   24.5103 O   0  0  0  0  0  0  0  0  0  0  0  0
  -26.2547  -26.7699   24.1215 O   0  0  0  0  0  0  0  0  0  0  0  0
  -23.5666  -24.0459   19.9778 O   0  0  0  0  0  0  0  0  0  0  0  0
  -25.8613  -12.0135   20.7561 O   0  0  0  0  0  0  0  0  0  0  0  0
  -28.4750  -27.5845   18.7471 O   0  0  0  0  0  0  0  0  0  1  0  0
  -20.4612  -11.0452   21.3090 F   0  0  0  0  0  0  0  0  0  0  0  0
  -24.4989  -10.4776   18.9048 F   0  0  0  0  0  0  0  0  0  0  0  0
  -23.9463  -27.4951   14.5922 Cl  0  0  0  0  0  0  0  0  0  0  0  0
  1  2  1  0  0  0  0
  1  5  2  0  0  0  0
  2  6  2  0  0  0  0
  3  8  2  0  0  0  0
  3 17  1  0  0  0  0
  4  9  1  0  0  0  0
  4 17  2  0  0  0  0
  5 19  1  0  0  0  0
  6 21  1  0  0  0  0
  7 10  2  0  0  0  0
  7 20  1  0  0  0  0
  8 26  1  0  0  0  0
  9 26  2  0  0  0  0
 10 27  1  0  0  0  0
 11 12  2  0  0  0  0
 11 28  1  0  0  0  0
 12 29  1  0  0  0  0
 13 22  1  0  0  0  0
 13 27  2  0  0  0  0
 14 23  2  0  0  0  0
 14 24  1  0  0  0  0
 15 23  1  0  0  0  0
 15 31  2  0  0  0  0
 16 29  2  0  0  0  0
 16 30  1  0  0  0  0
 17 32  1  0  0  0  0
 18 32  1  0  0  0  0
 18 33  2  0  0  0  0
 18 34  1  0  0  0  0
 19 21  2  0  0  0  0
 19 39  1  0  0  0  0
 20 22  2  0  0  0  0
 20 40  1  0  0  0  0
 21 52  1  0  0  0  0
 22 41  1  0  0  0  0
 23 65  1  0  0  0  0
 24 25  2  0  0  0  0
 24 64  1  0  0  0  0
 25 31  1  0  0  0  0
 25 57  1  0  0  0  0
 26 85  1  0  0  0  0
 27 86  1  0  0  0  0
 28 30  2  0  0  0  0
 28 85  1  0  0  0  0
 29 87  1  0  0  0  0
 30 88  1  0  0  0  0
 31 89  1  0  0  0  0
 32 69  2  0  0  0  0
 33 70  1  0  0  0  0
 33 73  1  0  0  0  0
 34 74  1  0  0  0  0
 34 80  2  0  0  0  0
 35 53  1  0  0  0  0
 35 75  1  0  0  0  0
 35 81  2  0  0  0  0
 36 66  1  0  0  0  0
 36 71  1  0  0  0  0
 36 82  2  0  0  0  0
 37 67  1  0  0  0  0
 37 76  1  0  0  0  0
 37 83  2  0  0  0  0
 38 72  1  0  0  0  0
 38 77  1  0  0  0  0
 38 84  2  0  0  0  0
 39 42  1  0  0  0  0
 40 53  1  0  0  0  0
 41 71  1  0  0  0  0
 42 45  1  0  0  0  0
 43 47  1  0  0  0  0
 43 48  1  0  0  0  0
 44 46  1  0  0  0  0
 44 49  1  0  0  0  0
 45 52  1  0  0  0  0
 46 54  1  0  0  0  0
 47 55  1  0  0  0  0
 48 56  1  0  0  0  0
 49 72  1  0  0  0  0
 50 54  1  0  0  0  0
 50 72  1  0  0  0  0
 51 55  1  0  0  0  0
 51 78  1  0  0  0  0
 52 75  1  0  0  0  0
 53 71  1  0  0  0  0
 54 70  1  0  0  0  0
 55 86  1  0  0  0  0
 56 58  1  0  0  0  0
 56 78  1  0  0  0  0
 59 67  1  0  0  0  0
 60 68  1  0  0  0  0
 61 68  1  0  0  0  0
 62 68  1  0  0  0  0
 63 79  1  0  0  0  0
 64 77  1  0  0  0  0
 65 78  1  0  0  0  0
 66 68  1  0  0  0  0
 66 76  1  0  0  0  0
 67 79  1  0  0  0  0
 69 70  1  0  0  0  0
M  CHG  2  78   1  79   1
M  ISO  4  38 100  55 101  77 100  86 101
M  END
> <Batch ID>
0039

> <Smiles>
CNC(C)C(=O)NC(C(=O)N1Cc2cc([101O:1][101CH:1]3CCCC(C)N(Cc4cc(Cl)c(C)c(C[100NH:0][100C:0](=O)N5CCCC(n6nc(-c7ccc(Oc8ccc(F)cc8F)cc7)c(C(N)=O)c6N)C5)c4)C3)ccc2CC1C(=O)NC1CCCc2ccccc21)C(C)(C)C

> <Shape>
0.246

> <Color>
0.088

> <Negative vol penalty>
0.000

$$$$

  -OEChem-04042322043D

 88 97  0     1  0  0  0  0  0999 V2000
  -28.6560  -21.2022   19.7153 C   0  0  0  0  0  0  0  0  0  0  0  0
  -27.7200  -22.1816   19.4026 C   0  0  0  0  0  0  0  0  0  0  0  0
  -26.0831  -13.7942   20.0742 C   0  0  0  0  0  0  0  0  0  0  0  0
  -24.0888  -13.6642   21.4319 C   0  0  0  0  0  0  0  0  0  0  0  0
  -29.3769  -21.2869   20.9046 C   0  0  0  0  0  0  0  0  0  0  0  0
  -27.5132  -23.2521   20.2732 C   0  0  0  0  0  0  0  0  0  0  0  0
  -24.5472  -26.8562   18.7187 C   0  0  0  0  0  0  0  0  0  0  0  0
  -26.2702  -12.4194   20.2174 C   0  0  0  0  0  0  0  0  0  0  0  0
  -24.2759  -12.2893   21.5750 C   0  0  0  0  0  0  0  0  0  0  0  0
  -23.1656  -26.7022   18.6124 C   0  0  0  0  0  0  0  0  0  0  0  0
  -23.7484   -9.5011   19.7399 C   0  0  0  0  0  0  0  0  0  0  0  0
  -22.6347   -8.6768   19.5791 C   0  0  0  0  0  0  0  0  0  0  0  0
  -22.8739  -27.9734   20.6418 C   0  0  0  0  0  0  0  0  0  0  0  0
  -18.3843  -21.8951   22.2055 C   0  0  0  0  0  0  0  0  0  0  0  0
  -19.6102  -22.5806   24.6159 C   0  0  0  0  0  0  0  0  0  0  0  0
  -22.9117   -7.8622   21.8367 C   0  0  0  0  0  0  0  0  0  0  0  0
  -24.9924  -14.4166   20.6816 C   0  0  0  0  0  0  0  0  0  0  0  0
  -24.6150  -16.5501   19.3348 C   0  0  0  0  0  0  0  0  0  0  0  0
  -29.1692  -22.3527   21.7956 C   0  0  0  0  0  0  0  0  0  0  0  0
  -25.1040  -27.5619   19.7950 C   0  0  0  0  0  0  0  0  0  0  0  0
  -28.2481  -23.3680   21.4670 C   0  0  0  0  0  0  0  0  0  0  0  0
  -24.2627  -28.1371   20.7580 C   0  0  0  0  0  0  0  0  0  0  0  0
  -18.9676  -20.9060   22.9973 C   0  0  0  0  0  0  0  0  0  0  0  0
  -18.4141  -23.2270   22.6188 C   0  0  0  0  0  0  0  0  0  0  0  0
  -19.5805  -21.2487   24.2025 C   0  0  0  0  0  0  0  0  0  0  0  0
  -25.3666  -11.6670   20.9677 C   0  0  0  0  0  0  0  0  0  0  0  0
  -22.3289  -27.2584   19.5756 C   0  0  0  0  0  0  0  0  0  0  0  0
  -24.4438   -9.5059   20.9491 C   0  0  0  0  0  0  0  0  0  0  0  0
  -22.2164   -7.8574   20.6275 C   0  0  0  0  0  0  0  0  0  0  0  0
  -19.0270  -23.5698   23.8240 C   0  0  0  0  0  0  0  0  0  0  0  0
  -24.0254   -8.6865   21.9975 C   0  0  0  0  0  0  0  0  0  0  0  0
  -24.7989  -15.8368   20.5345 C   0  0  0  0  0  0  0  0  0  0  0  0
  -24.4775  -17.8581   19.7306 C   0  0  0  0  0  0  0  0  0  0  0  0
  -19.5963  -25.5858   20.7070 C   0  0  0  0  0  0  0  0  0  0  0  0
  -24.5723  -16.0729   17.9835 C   0  0  0  0  0  0  0  0  0  0  0  0
  -27.0710  -26.8273   22.1815 C   0  0  0  0  0  0  0  0  0  0  0  0
  -26.9196  -30.0138   22.7698 C   0  0  0  0  0  0  0  0  0  0  0  0
  -24.3729  -32.5693   22.7927 C   0  0  0  0  0  0  0  0  0  0  0  0
  -22.6755  -20.4036   24.8418 C   0  0  0  0  0  0  0  0  0  0  0  0
  -29.9825  -22.3992   23.0651 C   0  0  0  0  0  0  0  0  0  0  0  0
  -26.5949  -27.7419   19.8808 C   0  0  0  0  0  0  0  0  0  0  0  0
  -24.8094  -28.9213   21.9219 C   0  0  0  0  0  0  0  0  0  0  0  0
  -29.3817  -23.3194   24.1226 C   0  0  0  0  0  0  0  0  0  0  0  0
  -19.1447  -24.1531   18.1909 C   0  0  0  0  0  0  0  0  0  0  0  0
  -25.7973  -20.8797   23.1974 C   0  0  0  0  0  0  0  0  0  0  0  0
  -29.0493  -24.6706   23.5076 C   0  0  0  0  0  0  0  0  0  0  0  0
  -19.7519  -25.5403   18.1688 C   0  0  0  0  0  0  0  0  0  0  0  0
  -25.8789  -19.7056   22.2202 C   0  0  0  0  0  0  0  0  0  0  0  0
  -18.1444  -24.0517   19.3285 C   0  0  0  0  0  0  0  0  0  0  0  0
  -25.1293  -20.4762   24.5100 C   0  0  0  0  0  0  0  0  0  0  0  0
  -23.8867  -18.6695   23.3849 C   0  0  0  0  0  0  0  0  0  0  0  0
  -27.9843  -24.5254   22.4132 C   0  0  1  0  0  0  0  0  0  0  0  0
  -20.4753  -25.7839   19.4786 C   0  0  1  0  0  0  0  0  0  1  0  0
  -27.0801  -28.0411   21.2959 C   0  0  1  0  0  0  0  0  0  0  0  0
  -24.5024  -19.0417   22.0253 C   0  0  2  0  0  0  0  0  0  0  0  0
  -18.9222  -19.4867   22.5345 C   0  0  0  0  0  0  0  0  0  0  0  0
  -24.5417  -35.0444   22.4146 C   0  0  0  0  0  0  0  0  0  0  0  0
  -27.1413  -30.1703   25.8089 C   0  0  0  0  0  0  0  0  0  0  0  0
  -25.7376  -32.2421   25.7350 C   0  0  0  0  0  0  0  0  0  0  0  0
  -27.9573  -32.2003   24.5975 C   0  0  0  0  0  0  0  0  0  0  0  0
  -22.3533  -32.4940   20.6306 C   0  0  0  0  0  0  0  0  0  0  0  0
  -17.7865  -24.2898   21.7639 C   0  0  0  0  0  0  0  0  0  0  0  0
  -20.2118  -20.2076   25.0671 C   0  0  0  0  0  0  0  0  0  0  0  0
  -26.0283  -30.9067   23.5988 C   0  0  1  0  0  0  0  0  0  0  0  0
  -24.2089  -33.6979   21.7908 C   0  0  2  0  0  0  0  0  0  0  0  0
  -26.7066  -31.3555   24.9239 C   0  0  0  0  0  0  0  0  0  0  0  0
  -24.7805  -16.6263   21.6118 N   0  0  0  0  0  0  0  0  0  0  0  0
  -24.5835  -17.8492   21.0903 N   0  0  0  0  0  0  0  0  0  0  0  0
  -18.6049  -24.6084   20.6016 N   0  0  0  0  0  0  0  0  0  0  0  0
  -26.2741  -29.0641   21.9652 N   0  0  0  0  0  0  0  0  0  0  0  0
  -23.8276  -19.8544   24.2552 N   0  0  0  0  0  0  0  0  0  0  0  0
  -24.2775  -19.0035   19.0447 N   0  0  0  0  0  0  0  0  0  0  0  0
  -24.7310  -14.6993   17.7546 N   0  0  0  0  0  0  0  0  0  0  0  0
  -27.8495  -25.7851   21.7155 N   0  0  0  0  0  0  0  0  0  0  0  0
  -25.6306  -32.0079   22.7283 N   0  0  0  0  0  0  0  0  0  0  0  0
  -21.4822  -19.7571   24.5437 N   0  0  0  0  0  0  0  0  0  0  0  0
  -22.8062  -33.7460   21.2897 N   0  3  0  0  0  0  0  0  0  0  0  0
  -19.8254  -26.2261   21.7364 O   0  0  0  0  0  0  0  0  0  0  0  0
  -24.4150  -16.8438   17.0066 O   0  0  0  0  0  0  0  0  0  0  0  0
  -26.4080  -26.8363   23.2120 O   0  0  0  0  0  0  0  0  0  0  0  0
  -28.1433  -30.1584   22.8284 O   0  0  0  0  0  0  0  0  0  0  0  0
  -23.4762  -32.2230   23.5586 O   0  0  0  0  0  0  0  0  0  0  0  0
  -22.7073  -21.3996   25.5724 O   0  0  0  0  0  0  0  0  0  0  0  0
  -25.5488  -10.3254   21.1074 O   0  0  0  0  0  0  0  0  0  0  0  0
  -20.9800  -27.1090   19.4746 O   0  0  0  0  0  0  0  0  0  1  0  0
  -21.1459   -7.0670   20.4735 F   0  0  0  0  0  0  0  0  0  0  0  0
  -19.0606  -24.8470   24.2294 F   0  0  0  0  0  0  0  0  0  0  0  0
  -24.6887   -8.6877   23.1619 F   0  0  0  0  0  0  0  0  0  0  0  0
  1  2  1  0  0  0  0
  1  5  2  0  0  0  0
  2  6  2  0  0  0  0
  3  8  2  0  0  0  0
  3 17  1  0  0  0  0
  4  9  1  0  0  0  0
  4 17  2  0  0  0  0
  5 19  1  0  0  0  0
  6 21  1  0  0  0  0
  7 10  2  0  0  0  0
  7 20  1  0  0  0  0
  8 26  1  0  0  0  0
  9 26  2  0  0  0  0
 10 27  1  0  0  0  0
 11 12  2  0  0  0  0
 11 28  1  0  0  0  0
 12 29  1  0  0  0  0
 13 22  1  0  0  0  0
 13 27  2  0  0  0  0
 14 23  2  0  0  0  0
 14 24  1  0  0  0  0
 15 25  2  0  0  0  0
 15 30  1  0  0  0  0
 16 29  2  0  0  0  0
 16 31  1  0  0  0  0
 17 32  1  0  0  0  0
 18 32  1  0  0  0  0
 18 33  2  0  0  0  0
 18 35  1  0  0  0  0
 19 21  2  0  0  0  0
 19 40  1  0  0  0  0
 20 22  2  0  0  0  0
 20 41  1  0  0  0  0
 21 52  1  0  0  0  0
 22 42  1  0  0  0  0
 23 25  1  0  0  0  0
 23 56  1  0  0  0  0
 24 30  2  0  0  0  0
 24 62  1  0  0  0  0
 25 63  1  0  0  0  0
 26 84  1  0  0  0  0
 27 85  1  0  0  0  0
 28 31  2  0  0  0  0
 28 84  1  0  0  0  0
 29 86  1  0  0  0  0
 30 87  1  0  0  0  0
 31 88  1  0  0  0  0
 32 67  2  0  0  0  0
 33 68  1  0  0  0  0
 33 72  1  0  0  0  0
 34 53  1  0  0  0  0
 34 69  1  0  0  0  0
 34 78  2  0  0  0  0
 35 73  1  0  0  0  0
 35 79  2  0  0  0  0
 36 54  1  0  0  0  0
 36 74  1  0  0  0  0
 36 80  2  0  0  0  0
 37 64  1  0  0  0  0
 37 70  1  0  0  0  0
 37 81  2  0  0  0  0
 38 65  1  0  0  0  0
 38 75  1  0  0  0  0
 38 82  2  0  0  0  0
 39 71  1  0  0  0  0
 39 76  1  0  0  0  0
 39 83  2  0  0  0  0
 40 43  1  0  0  0  0
 41 54  1  0  0  0  0
 42 70  1  0  0  0  0
 43 46  1  0  0  0  0
 44 47  1  0  0  0  0
 44 49  1  0  0  0  0
 45 48  1  0  0  0  0
 45 50  1  0  0  0  0
 46 52  1  0  0  0  0
 47 53  1  0  0  0  0
 48 55  1  0  0  0  0
 49 69  1  0  0  0  0
 50 71  1  0  0  0  0
 51 55  1  0  0  0  0
 51 71  1  0  0  0  0
 52 74  1  0  0  0  0
 53 85  1  0  0  0  0
 54 70  1  0  0  0  0
 55 68  1  0  0  0  0
 57 65  1  0  0  0  0
 58 66  1  0  0  0  0
 59 66  1  0  0  0  0
 60 66  1  0  0  0  0
 61 77  1  0  0  0  0
 62 69  1  0  0  0  0
 63 76  1  0  0  0  0
 64 66  1  0  0  0  0
 64 75  1  0  0  0  0
 65 77  1  0  0  0  0
 67 68  1  0  0  0  0
M  CHG  1  77   1
M  ISO  4  39 100  53 101  76 100  85 101
M  END
> <Batch ID>
0039

> <Smiles>
CNC(C)C(=O)NC(C(=O)N1Cc2cc([101O:1][101CH:1]3CCCN(Cc4cc(C)c(C[100NH:0][100C:0](=O)N5CCCC(n6nc(-c7ccc(Oc8ccc(F)cc8F)cc7)c(C(N)=O)c6N)C5)cc4F)C3=O)ccc2CC1C(=O)NC1CCCc2ccccc21)C(C)(C)C

> <Shape>
0.210

> <Color>
0.075

> <Negative vol penalty>
0.000

$$$$

  -OEChem-04042322043D

 88 97  0     1  0  0  0  0  0999 V2000
  -25.6839  -36.0136   23.8699 C   0  0  0  0  0  0  0  0  0  0  0  0
  -26.8258  -35.2682   23.5944 C   0  0  0  0  0  0  0  0  0  0  0  0
  -28.5231  -13.1373   20.9591 C   0  0  0  0  0  0  0  0  0  0  0  0
  -28.0330  -12.0413   18.8625 C   0  0  0  0  0  0  0  0  0  0  0  0
  -24.6215  -35.4302   24.5590 C   0  0  0  0  0  0  0  0  0  0  0  0
  -26.9064  -33.9393   24.0090 C   0  0  0  0  0  0  0  0  0  0  0  0
  -28.2625  -27.4731   19.8405 C   0  0  0  0  0  0  0  0  0  0  0  0
  -29.8882  -13.0463   20.6876 C   0  0  0  0  0  0  0  0  0  0  0  0
  -29.3982  -11.9504   18.5909 C   0  0  0  0  0  0  0  0  0  0  0  0
  -28.3366  -26.2430   19.1866 C   0  0  0  0  0  0  0  0  0  0  0  0
  -32.1641  -14.6735   18.7888 C   0  0  0  0  0  0  0  0  0  0  0  0
  -32.9476  -15.8043   19.0192 C   0  0  0  0  0  0  0  0  0  0  0  0
  -27.0820  -25.2049   20.9744 C   0  0  0  0  0  0  0  0  0  0  0  0
  -22.2611  -19.8729   21.9267 C   0  0  0  0  0  0  0  0  0  0  0  0
  -24.3261  -20.8962   22.6520 C   0  0  0  0  0  0  0  0  0  0  0  0
  -34.2752  -14.5605   20.6090 C   0  0  0  0  0  0  0  0  0  0  0  0
  -27.5954  -12.6347   20.0465 C   0  0  0  0  0  0  0  0  0  0  0  0
  -25.4978  -12.1734   21.4230 C   0  0  0  0  0  0  0  0  0  0  0  0
  -24.6852  -34.0906   24.9738 C   0  0  0  0  0  0  0  0  0  0  0  0
  -27.5838  -27.5770   21.0579 C   0  0  0  0  0  0  0  0  0  0  0  0
  -25.8444  -33.3379   24.7055 C   0  0  0  0  0  0  0  0  0  0  0  0
  -26.9938  -26.4369   21.6279 C   0  0  0  0  0  0  0  0  0  0  0  0
  -22.7600  -19.7873   20.6269 C   0  0  0  0  0  0  0  0  0  0  0  0
  -24.0420  -20.2561   20.3397 C   0  0  0  0  0  0  0  0  0  0  0  0
  -24.8250  -20.8105   21.3522 C   0  0  0  0  0  0  0  0  0  0  0  0
  -30.3258  -12.4529   19.5035 C   0  0  0  0  0  0  0  0  0  0  0  0
  -27.7480  -25.1118   19.7523 C   0  0  0  0  0  0  0  0  0  0  0  0
  -32.4361  -13.4862   19.4685 C   0  0  0  0  0  0  0  0  0  0  0  0
  -34.0031  -15.7478   19.9293 C   0  0  0  0  0  0  0  0  0  0  0  0
  -33.4916  -13.4297   20.3786 C   0  0  0  0  0  0  0  0  0  0  0  0
  -23.0441  -20.4274   22.9392 C   0  0  0  0  0  0  0  0  0  0  0  0
  -26.1851  -12.7279   20.3267 C   0  0  0  0  0  0  0  0  0  0  0  0
  -24.1891  -12.5429   21.2303 C   0  0  0  0  0  0  0  0  0  0  0  0
  -26.3703  -22.3380   20.1458 C   0  0  0  0  0  0  0  0  0  0  0  0
  -25.9977  -11.3941   22.5178 C   0  0  0  0  0  0  0  0  0  0  0  0
  -26.4684  -29.7925   23.8728 C   0  0  0  0  0  0  0  0  0  0  0  0
  -24.1415  -27.8896   23.2608 C   0  0  0  0  0  0  0  0  0  0  0  0
  -21.6751  -25.9002   21.9971 C   0  0  0  0  0  0  0  0  0  0  0  0
  -21.6252  -17.0804   18.2825 C   0  0  0  0  0  0  0  0  0  0  0  0
  -23.5308  -33.5176   25.7573 C   0  0  0  0  0  0  0  0  0  0  0  0
  -27.5317  -28.8688   21.8275 C   0  0  0  0  0  0  0  0  0  0  0  0
  -26.3038  -26.5889   22.9560 C   0  0  0  0  0  0  0  0  0  0  0  0
  -23.5434  -31.9930   25.8333 C   0  0  0  0  0  0  0  0  0  0  0  0
  -29.1747  -20.5684   20.0895 C   0  0  0  0  0  0  0  0  0  0  0  0
  -28.1254  -19.7838   20.8704 C   0  0  0  0  0  0  0  0  0  0  0  0
  -21.0694  -13.6025   17.7610 C   0  0  0  0  0  0  0  0  0  0  0  0
  -24.9380  -31.4878   26.1892 C   0  0  0  0  0  0  0  0  0  0  0  0
  -28.6101  -21.6530   19.1780 C   0  0  0  0  0  0  0  0  0  0  0  0
  -22.2555  -12.9339   18.4583 C   0  0  0  0  0  0  0  0  0  0  0  0
  -27.2794  -20.6630   21.7858 C   0  0  0  0  0  0  0  0  0  0  0  0
  -21.4745  -14.9137   17.0912 C   0  0  0  0  0  0  0  0  0  0  0  0
  -23.3401  -15.2089   18.6743 C   0  0  0  0  0  0  0  0  0  0  0  0
  -25.9594  -31.8861   25.1171 C   0  0  1  0  0  0  0  0  0  0  0  0
  -27.8286  -22.7400   19.9165 C   0  0  1  0  0  0  0  0  0  1  0  0
  -26.2070  -29.0664   22.5860 C   0  0  1  0  0  0  0  0  0  0  0  0
  -22.9688  -13.9111   19.4120 C   0  0  2  0  0  0  0  0  0  0  0  0
  -24.5732  -20.1620   18.9437 C   0  0  0  0  0  0  0  0  0  0  0  0
  -19.2703  -25.2777   22.3532 C   0  0  0  0  0  0  0  0  0  0  0  0
  -24.9435  -26.1742   25.6521 C   0  0  0  0  0  0  0  0  0  0  0  0
  -22.8094  -24.8976   25.3619 C   0  0  0  0  0  0  0  0  0  0  0  0
  -22.7409  -27.3343   25.8918 C   0  0  0  0  0  0  0  0  0  0  0  0
  -20.9038  -26.8781   19.3124 C   0  0  0  0  0  0  0  0  0  0  0  0
  -21.9013  -19.1893   19.5612 C   0  0  0  0  0  0  0  0  0  0  0  0
  -23.4539  -26.5872   23.5841 C   0  0  1  0  0  0  0  0  0  0  0  0
  -20.2348  -26.1973   21.6206 C   0  0  2  0  0  0  0  0  0  0  0  0
  -23.5056  -26.2504   25.1011 C   0  0  0  0  0  0  0  0  0  0  0  0
  -25.3797  -13.3985   19.4988 N   0  0  0  0  0  0  0  0  0  0  0  0
  -24.1727  -13.2677   20.0751 N   0  0  0  0  0  0  0  0  0  0  0  0
  -26.1563  -21.3030   21.0767 N   0  0  0  0  0  0  0  0  0  0  0  0
  -25.5099  -27.8274   22.9709 N   0  0  0  0  0  0  0  0  0  0  0  0
  -22.1442  -15.7960   18.0498 N   0  0  0  0  0  0  0  0  0  0  0  0
  -23.0622  -12.3153   21.9380 N   0  0  0  0  0  0  0  0  0  0  0  0
  -26.0344   -9.9995   22.3834 N   0  0  0  0  0  0  0  0  0  0  0  0
  -25.8433  -31.0215   23.9623 N   0  0  0  0  0  0  0  0  0  0  0  0
  -22.1039  -26.6925   23.0410 N   0  0  0  0  0  0  0  0  0  0  0  0
  -22.3165  -17.8494   19.2106 N   0  0  0  0  0  0  0  0  0  0  0  0
  -20.0348  -26.0167   20.1549 N   0  3  0  0  0  0  0  0  0  0  0  0
  -25.4868  -22.8898   19.4842 O   0  0  0  0  0  0  0  0  0  0  0  0
  -26.3845  -11.9179   23.5900 O   0  0  0  0  0  0  0  0  0  0  0  0
  -27.1834  -29.2759   24.7235 O   0  0  0  0  0  0  0  0  0  0  0  0
  -23.4867  -28.9358   23.2699 O   0  0  0  0  0  0  0  0  0  0  0  0
  -22.3508  -25.0478   21.4251 O   0  0  0  0  0  0  0  0  0  0  0  0
  -20.6171  -17.5079   17.7099 O   0  0  0  0  0  0  0  0  0  0  0  0
  -31.6578  -12.3642   19.2381 O   0  0  0  0  0  0  0  0  0  0  0  0
  -27.8202  -23.9150   19.1063 O   0  0  0  0  0  0  0  0  0  1  0  0
  -34.7564  -16.8333   20.1493 F   0  0  0  0  0  0  0  0  0  0  0  0
  -33.7585  -12.2916   21.0338 F   0  0  0  0  0  0  0  0  0  0  0  0
  -22.4278  -20.5341   24.5424 Cl  0  0  0  0  0  0  0  0  0  0  0  0
  1  2  1  0  0  0  0
  1  5  2  0  0  0  0
  2  6  2  0  0  0  0
  3  8  2  0  0  0  0
  3 17  1  0  0  0  0
  4  9  1  0  0  0  0
  4 17  2  0  0  0  0
  5 19  1  0  0  0  0
  6 21  1  0  0  0  0
  7 10  2  0  0  0  0
  7 20  1  0  0  0  0
  8 26  1  0  0  0  0
  9 26  2  0  0  0  0
 10 27  1  0  0  0  0
 11 12  2  0  0  0  0
 11 28  1  0  0  0  0
 12 29  1  0  0  0  0
 13 22  1  0  0  0  0
 13 27  2  0  0  0  0
 14 23  2  0  0  0  0
 14 31  1  0  0  0  0
 15 25  1  0  0  0  0
 15 31  2  0  0  0  0
 16 29  2  0  0  0  0
 16 30  1  0  0  0  0
 17 32  1  0  0  0  0
 18 32  1  0  0  0  0
 18 33  2  0  0  0  0
 18 35  1  0  0  0  0
 19 21  2  0  0  0  0
 19 40  1  0  0  0  0
 20 22  2  0  0  0  0
 20 41  1  0  0  0  0
 21 53  1  0  0  0  0
 22 42  1  0  0  0  0
 23 24  1  0  0  0  0
 23 63  1  0  0  0  0
 24 25  2  0  0  0  0
 24 57  1  0  0  0  0
 25 69  1  0  0  0  0
 26 84  1  0  0  0  0
 27 85  1  0  0  0  0
 28 30  2  0  0  0  0
 28 84  1  0  0  0  0
 29 86  1  0  0  0  0
 30 87  1  0  0  0  0
 31 88  1  0  0  0  0
 32 67  2  0  0  0  0
 33 68  1  0  0  0  0
 33 72  1  0  0  0  0
 34 54  1  0  0  0  0
 34 69  1  0  0  0  0
 34 78  2  0  0  0  0
 35 73  1  0  0  0  0
 35 79  2  0  0  0  0
 36 55  1  0  0  0  0
 36 74  1  0  0  0  0
 36 80  2  0  0  0  0
 37 64  1  0  0  0  0
 37 70  1  0  0  0  0
 37 81  2  0  0  0  0
 38 65  1  0  0  0  0
 38 75  1  0  0  0  0
 38 82  2  0  0  0  0
 39 71  1  0  0  0  0
 39 76  1  0  0  0  0
 39 83  2  0  0  0  0
 40 43  1  0  0  0  0
 41 55  1  0  0  0  0
 42 70  1  0  0  0  0
 43 47  1  0  0  0  0
 44 45  1  0  0  0  0
 44 48  1  0  0  0  0
 45 50  1  0  0  0  0
 46 49  1  0  0  0  0
 46 51  1  0  0  0  0
 47 53  1  0  0  0  0
 48 54  1  0  0  0  0
 49 56  1  0  0  0  0
 50 69  1  0  0  0  0
 51 71  1  0  0  0  0
 52 56  1  0  0  0  0
 52 71  1  0  0  0  0
 53 74  1  0  0  0  0
 54 85  1  0  0  0  0
 55 70  1  0  0  0  0
 56 68  1  0  0  0  0
 58 65  1  0  0  0  0
 59 66  1  0  0  0  0
 60 66  1  0  0  0  0
 61 66  1  0  0  0  0
 62 77  1  0  0  0  0
 63 76  1  0  0  0  0
 64 66  1  0  0  0  0
 64 75  1  0  0  0  0
 65 77  1  0  0  0  0
 67 68  1  0  0  0  0
M  CHG  1  77   1
M  ISO  4  39 100  54 101  76 100  85 101
M  END
> <Batch ID>
0039

> <Smiles>
CNC(C)C(=O)NC(C(=O)N1Cc2cc([101O:1][101CH:1]3CCCCN(c4cc(Cl)cc(C[100NH:0][100C:0](=O)N5CCCC(n6nc(-c7ccc(Oc8ccc(F)cc8F)cc7)c(C(N)=O)c6N)C5)c4C)C3=O)ccc2CC1C(=O)NC1CCCc2ccccc21)C(C)(C)C

> <Shape>
0.229

> <Color>
0.062

> <Negative vol penalty>
0.000

$$$$

  -OEChem-04042322043D

 90 99  0     1  0  0  0  0  0999 V2000
  -29.5720  -32.3594   27.6492 C   0  0  0  0  0  0  0  0  0  0  0  0
  -29.2958  -32.3490   26.2857 C   0  0  0  0  0  0  0  0  0  0  0  0
  -26.7471  -12.4268   21.7116 C   0  0  0  0  0  0  0  0  0  0  0  0
  -25.9033  -14.0246   20.1078 C   0  0  0  0  0  0  0  0  0  0  0  0
  -29.8455  -31.1643   28.3131 C   0  0  0  0  0  0  0  0  0  0  0  0
  -29.2941  -31.1434   25.5851 C   0  0  0  0  0  0  0  0  0  0  0  0
  -25.6695  -29.6191   20.8899 C   0  0  0  0  0  0  0  0  0  0  0  0
  -25.4839  -11.8409   21.7925 C   0  0  0  0  0  0  0  0  0  0  0  0
  -24.6400  -13.4387   20.1887 C   0  0  0  0  0  0  0  0  0  0  0  0
  -25.8691  -29.6262   19.5101 C   0  0  0  0  0  0  0  0  0  0  0  0
  -23.6107   -9.6975   19.9676 C   0  0  0  0  0  0  0  0  0  0  0  0
  -23.5385   -8.3050   19.9316 C   0  0  0  0  0  0  0  0  0  0  0  0
  -26.4468  -27.2854   19.5878 C   0  0  0  0  0  0  0  0  0  0  0  0
  -30.0873  -25.2672   18.2369 C   0  0  0  0  0  0  0  0  0  0  0  0
  -29.4673  -22.9481   18.5096 C   0  0  0  0  0  0  0  0  0  0  0  0
  -22.4967   -8.3026   22.1115 C   0  0  0  0  0  0  0  0  0  0  0  0
  -26.9568  -13.5187   20.8693 C   0  0  0  0  0  0  0  0  0  0  0  0
  -29.4613  -13.5076   20.3843 C   0  0  0  0  0  0  0  0  0  0  0  0
  -29.8376  -29.9423   27.6221 C   0  0  0  0  0  0  0  0  0  0  0  0
  -25.8680  -28.4459   21.6318 C   0  0  0  0  0  0  0  0  0  0  0  0
  -29.5691  -29.9309   26.2400 C   0  0  0  0  0  0  0  0  0  0  0  0
  -26.2466  -27.2654   20.9765 C   0  0  0  0  0  0  0  0  0  0  0  0
  -29.4006  -24.1395   17.7872 C   0  0  0  0  0  0  0  0  0  0  0  0
  -30.8408  -25.2036   19.4091 C   0  0  0  0  0  0  0  0  0  0  0  0
  -30.2208  -22.8845   19.6818 C   0  0  0  0  0  0  0  0  0  0  0  0
  -24.4304  -12.3468   21.0310 C   0  0  0  0  0  0  0  0  0  0  0  0
  -26.2606  -28.4599   18.8592 C   0  0  0  0  0  0  0  0  0  0  0  0
  -23.1260  -10.3926   21.0756 C   0  0  0  0  0  0  0  0  0  0  0  0
  -22.9815   -7.6075   21.0035 C   0  0  0  0  0  0  0  0  0  0  0  0
  -22.5690   -9.6951   22.1475 C   0  0  0  0  0  0  0  0  0  0  0  0
  -30.9075  -24.0122   20.1315 C   0  0  0  0  0  0  0  0  0  0  0  0
  -28.2613  -14.1248   20.7857 C   0  0  0  0  0  0  0  0  0  0  0  0
  -30.4057  -14.5006   20.4768 C   0  0  0  0  0  0  0  0  0  0  0  0
  -26.3553  -24.5501   15.6744 C   0  0  0  0  0  0  0  0  0  0  0  0
  -25.0077  -21.5840   17.3690 C   0  0  0  0  0  0  0  0  0  0  0  0
  -25.6229  -23.4491   15.9171 C   0  0  0  0  0  0  0  0  0  0  0  0
  -25.7368  -22.6795   17.1281 C   0  0  0  0  0  0  0  0  0  0  0  0
  -29.7008  -12.1575   19.9654 C   0  0  0  0  0  0  0  0  0  0  0  0
  -27.8262  -27.5822   23.9819 C   0  0  0  0  0  0  0  0  0  0  0  0
  -26.0326  -24.8795   23.9581 C   0  0  0  0  0  0  0  0  0  0  0  0
  -23.9697  -22.7866   22.2229 C   0  0  0  0  0  0  0  0  0  0  0  0
  -29.6672  -20.4569   20.1117 C   0  0  0  0  0  0  0  0  0  0  0  0
  -30.1857  -28.6815   28.3731 C   0  0  0  0  0  0  0  0  0  0  0  0
  -25.6226  -28.4482   23.1158 C   0  0  0  0  0  0  0  0  0  0  0  0
  -26.4532  -25.9745   21.7244 C   0  0  0  0  0  0  0  0  0  0  0  0
  -26.2048  -25.3258   14.3944 C   0  0  0  0  0  0  0  0  0  0  0  0
  -29.7955  -27.4045   27.6332 C   0  0  0  0  0  0  0  0  0  0  0  0
  -25.2122  -26.4763   14.5507 C   0  0  0  0  0  0  0  0  0  0  0  0
  -30.6241  -18.4621   23.2469 C   0  0  0  0  0  0  0  0  0  0  0  0
  -30.2288  -27.4802   26.1726 C   0  0  0  0  0  0  0  0  0  0  0  0
  -30.8839  -17.0987   22.6104 C   0  0  0  0  0  0  0  0  0  0  0  0
  -25.7094  -27.6291   15.4183 C   0  0  0  0  0  0  0  0  0  0  0  0
  -30.7674  -19.6028   22.2473 C   0  0  0  0  0  0  0  0  0  0  0  0
  -29.3263  -18.1074   20.8534 C   0  0  0  0  0  0  0  0  0  0  0  0
  -27.5107  -26.4425   16.7789 C   0  0  0  0  0  0  0  0  0  0  0  0
  -29.5335  -28.6405   25.4503 C   0  0  1  0  0  0  0  0  0  0  0  0
  -26.3525  -27.3237   23.8439 C   0  0  1  0  0  0  0  0  0  0  0  0
  -30.3234  -16.9843   21.1789 C   0  0  2  0  0  0  0  0  0  0  0  0
  -26.2055  -27.2396   16.8133 C   0  0  1  0  0  0  0  0  0  1  0  0
  -31.5739  -26.4114   19.8868 C   0  0  0  0  0  0  0  0  0  0  0  0
  -22.6932  -20.6387   22.4568 C   0  0  0  0  0  0  0  0  0  0  0  0
  -28.6319  -23.3067   23.6754 C   0  0  0  0  0  0  0  0  0  0  0  0
  -27.2745  -21.3251   22.9688 C   0  0  0  0  0  0  0  0  0  0  0  0
  -26.9674  -22.2974   25.2454 C   0  0  0  0  0  0  0  0  0  0  0  0
  -21.3810  -24.1377   21.7416 C   0  0  0  0  0  0  0  0  0  0  0  0
  -28.5902  -24.2080   16.5265 C   0  0  0  0  0  0  0  0  0  0  0  0
  -26.1007  -23.5576   23.2323 C   0  0  1  0  0  0  0  0  0  0  0  0
  -22.6394  -22.1529   22.5877 C   0  0  2  0  0  0  0  0  0  0  0  0
  -27.2417  -22.6463   23.7664 C   0  0  0  0  0  0  0  0  0  0  0  0
  -28.4257  -15.4102   21.1092 N   0  0  0  0  0  0  0  0  0  0  0  0
  -29.7401  -15.6089   20.9113 N   0  0  0  0  0  0  0  0  0  0  0  0
  -26.2070  -26.0293   23.1749 N   0  0  0  0  0  0  0  0  0  0  0  0
  -29.9329  -19.4292   21.0496 N   0  0  0  0  0  0  0  0  0  0  0  0
  -31.7323  -14.5251   20.2280 N   0  0  0  0  0  0  0  0  0  0  0  0
  -29.5877  -11.8509   18.6025 N   0  0  0  0  0  0  0  0  0  0  0  0
  -30.2867  -21.6725   20.4138 N   0  0  0  0  0  0  0  0  0  0  0  0
  -28.1697  -28.2859   25.1205 N   0  0  0  0  0  0  0  0  0  0  0  0
  -24.7697  -22.9685   23.3312 N   0  0  0  0  0  0  0  0  0  0  0  0
  -27.2881  -24.9512   16.7001 N   0  3  2  0  0  0  0  0  0  0  0  0
  -21.5604  -22.6637   21.6955 N   0  3  0  0  0  0  0  0  0  0  0  0
  -29.9899  -11.2464   20.7777 O   0  0  0  0  0  0  0  0  0  0  0  0
  -28.5949  -27.1723   23.1201 O   0  0  0  0  0  0  0  0  0  0  0  0
  -25.8250  -24.8918   25.1740 O   0  0  0  0  0  0  0  0  0  0  0  0
  -24.2708  -23.0864   21.0697 O   0  0  0  0  0  0  0  0  0  0  0  0
  -28.9600  -20.2627   19.1208 O   0  0  0  0  0  0  0  0  0  0  0  0
  -23.1976  -11.7751   21.1095 O   0  0  0  0  0  0  0  0  0  0  0  0
  -26.4567  -28.4642   17.5126 O   0  0  0  0  0  0  0  0  0  1  0  0
  -22.9108   -6.2704   20.9681 F   0  0  0  0  0  0  0  0  0  0  0  0
  -22.1005  -10.3575   23.2141 F   0  0  0  0  0  0  0  0  0  0  0  0
  -31.6328  -23.9530   21.2587 F   0  0  0  0  0  0  0  0  0  0  0  0
  1  2  1  0  0  0  0
  1  5  2  0  0  0  0
  2  6  2  0  0  0  0
  3  8  2  0  0  0  0
  3 17  1  0  0  0  0
  4  9  1  0  0  0  0
  4 17  2  0  0  0  0
  5 19  1  0  0  0  0
  6 21  1  0  0  0  0
  7 10  2  0  0  0  0
  7 20  1  0  0  0  0
  8 26  1  0  0  0  0
  9 26  2  0  0  0  0
 10 27  1  0  0  0  0
 11 12  2  0  0  0  0
 11 28  1  0  0  0  0
 12 29  1  0  0  0  0
 13 22  1  0  0  0  0
 13 27  2  0  0  0  0
 14 23  1  0  0  0  0
 14 24  2  0  0  0  0
 15 23  2  0  0  0  0
 15 25  1  0  0  0  0
 16 29  2  0  0  0  0
 16 30  1  0  0  0  0
 17 32  1  0  0  0  0
 18 32  1  0  0  0  0
 18 33  2  0  0  0  0
 18 38  1  0  0  0  0
 19 21  2  0  0  0  0
 19 43  1  0  0  0  0
 20 22  2  0  0  0  0
 20 44  1  0  0  0  0
 21 56  1  0  0  0  0
 22 45  1  0  0  0  0
 23 66  1  0  0  0  0
 24 31  1  0  0  0  0
 24 60  1  0  0  0  0
 25 31  2  0  0  0  0
 25 76  1  0  0  0  0
 26 86  1  0  0  0  0
 27 87  1  0  0  0  0
 28 30  2  0  0  0  0
 28 86  1  0  0  0  0
 29 88  1  0  0  0  0
 30 89  1  0  0  0  0
 31 90  1  0  0  0  0
 32 70  2  0  0  0  0
 33 71  1  0  0  0  0
 33 74  1  0  0  0  0
 34 36  2  0  0  0  0
 34 46  1  0  0  0  0
 34 79  1  0  0  0  0
 35 37  2  0  0  0  0
 36 37  1  0  0  0  0
 38 75  1  0  0  0  0
 38 81  2  0  0  0  0
 39 57  1  0  0  0  0
 39 77  1  0  0  0  0
 39 82  2  0  0  0  0
 40 67  1  0  0  0  0
 40 72  1  0  0  0  0
 40 83  2  0  0  0  0
 41 68  1  0  0  0  0
 41 78  1  0  0  0  0
 41 84  2  0  0  0  0
 42 73  1  0  0  0  0
 42 76  1  0  0  0  0
 42 85  2  0  0  0  0
 43 47  1  0  0  0  0
 44 57  1  0  0  0  0
 45 72  1  0  0  0  0
 46 48  1  0  0  0  0
 47 50  1  0  0  0  0
 48 52  1  0  0  0  0
 49 51  1  0  0  0  0
 49 53  1  0  0  0  0
 50 56  1  0  0  0  0
 51 58  1  0  0  0  0
 52 59  1  0  0  0  0
 53 73  1  0  0  0  0
 54 58  1  0  0  0  0
 54 73  1  0  0  0  0
 55 59  1  0  0  0  0
 55 79  1  0  0  0  0
 56 77  1  0  0  0  0
 57 72  1  0  0  0  0
 58 71  1  0  0  0  0
 59 87  1  0  0  0  0
 61 68  1  0  0  0  0
 62 69  1  0  0  0  0
 63 69  1  0  0  0  0
 64 69  1  0  0  0  0
 65 80  1  0  0  0  0
 66 79  1  0  0  0  0
 67 69  1  0  0  0  0
 67 78  1  0  0  0  0
 68 80  1  0  0  0  0
 70 71  1  0  0  0  0
M  CHG  2  79   1  80   1
M  ISO  4  42 100  59 101  76 100  87 101
M  END
> <Batch ID>
0039

> <Smiles>
C=CC=C1CCC[101CH:1]([101O:1]c2ccc3c(c2)CN(C(=O)C(NC(=O)C(C)NC)C(C)(C)C)C(C(=O)NC2CCCc4ccccc42)C3)CN1Cc1cc(C)c(F)c([100NH:0][100C:0](=O)N2CCCC(n3nc(-c4ccc(Oc5ccc(F)cc5F)cc4)c(C(N)=O)c3N)C2)c1

> <Shape>
0.222

> <Color>
0.073

> <Negative vol penalty>
0.000

$$$$

  -OEChem-04042322043D

 85 93  0     1  0  0  0  0  0999 V2000
  -28.1142  -37.3091   18.9494 C   0  0  0  0  0  0  0  0  0  0  0  0
  -28.4105  -35.9787   18.6709 C   0  0  0  0  0  0  0  0  0  0  0  0
  -24.9493  -13.1305   19.5495 C   0  0  0  0  0  0  0  0  0  0  0  0
  -25.0570  -13.4942   21.9355 C   0  0  0  0  0  0  0  0  0  0  0  0
  -27.6488  -37.6686   20.2136 C   0  0  0  0  0  0  0  0  0  0  0  0
  -28.2425  -35.0070   19.6569 C   0  0  0  0  0  0  0  0  0  0  0  0
  -26.4604  -29.2048   18.8418 C   0  0  0  0  0  0  0  0  0  0  0  0
  -26.3423  -13.1574   19.4825 C   0  0  0  0  0  0  0  0  0  0  0  0
  -26.4500  -13.5211   21.8685 C   0  0  0  0  0  0  0  0  0  0  0  0
  -27.1713  -28.0086   18.7557 C   0  0  0  0  0  0  0  0  0  0  0  0
  -30.0238  -14.0450   22.2730 C   0  0  0  0  0  0  0  0  0  0  0  0
  -30.6873  -15.0509   22.9754 C   0  0  0  0  0  0  0  0  0  0  0  0
  -26.7733  -27.6101   21.1013 C   0  0  0  0  0  0  0  0  0  0  0  0
  -26.3105  -19.2146   20.8144 C   0  0  0  0  0  0  0  0  0  0  0  0
  -25.4825  -20.9039   19.2987 C   0  0  0  0  0  0  0  0  0  0  0  0
  -29.5242  -16.7243   21.6776 C   0  0  0  0  0  0  0  0  0  0  0  0
  -24.3066  -13.2989   20.7760 C   0  0  0  0  0  0  0  0  0  0  0  0
  -22.0478  -12.1466   21.0545 C   0  0  0  0  0  0  0  0  0  0  0  0
  -27.4658  -36.6995   21.2125 C   0  0  0  0  0  0  0  0  0  0  0  0
  -25.9090  -29.6187   20.0629 C   0  0  0  0  0  0  0  0  0  0  0  0
  -27.7754  -35.3541   20.9360 C   0  0  0  0  0  0  0  0  0  0  0  0
  -26.0537  -28.8108   21.1997 C   0  0  0  0  0  0  0  0  0  0  0  0
  -26.4962  -20.4097   20.1195 C   0  0  0  0  0  0  0  0  0  0  0  0
  -25.1110  -18.5137   20.6885 C   0  0  0  0  0  0  0  0  0  0  0  0
  -24.2830  -20.2031   19.1727 C   0  0  0  0  0  0  0  0  0  0  0  0
  -24.0973  -19.0080   19.8677 C   0  0  0  0  0  0  0  0  0  0  0  0
  -27.0926  -13.3527   20.6420 C   0  0  0  0  0  0  0  0  0  0  0  0
  -27.3303  -27.2124   19.8861 C   0  0  0  0  0  0  0  0  0  0  0  0
  -29.1105  -14.3786   21.2729 C   0  0  0  0  0  0  0  0  0  0  0  0
  -30.4375  -16.3906   22.6777 C   0  0  0  0  0  0  0  0  0  0  0  0
  -28.8607  -15.7183   20.9752 C   0  0  0  0  0  0  0  0  0  0  0  0
  -22.8677  -13.2718   20.8458 C   0  0  0  0  0  0  0  0  0  0  0  0
  -20.7685  -12.6460   21.0370 C   0  0  0  0  0  0  0  0  0  0  0  0
  -22.4103  -10.7728   21.2471 C   0  0  0  0  0  0  0  0  0  0  0  0
  -26.3281  -32.1188   21.9807 C   0  0  0  0  0  0  0  0  0  0  0  0
  -23.8347  -30.8089   23.5898 C   0  0  0  0  0  0  0  0  0  0  0  0
  -27.9108  -23.6553   20.0478 C   0  0  0  0  0  0  0  0  0  0  0  0
  -22.0061  -28.0240   24.3296 C   0  0  0  0  0  0  0  0  0  0  0  0
  -21.9795  -17.9732   20.7551 C   0  0  0  0  0  0  0  0  0  0  0  0
  -27.0053  -37.1429   22.5785 C   0  0  0  0  0  0  0  0  0  0  0  0
  -25.1222  -30.8987   20.1332 C   0  0  0  0  0  0  0  0  0  0  0  0
  -25.4639  -29.2003   22.5297 C   0  0  0  0  0  0  0  0  0  0  0  0
  -26.4984  -35.9981   23.4518 C   0  0  0  0  0  0  0  0  0  0  0  0
  -19.9887  -16.0125   18.3703 C   0  0  0  0  0  0  0  0  0  0  0  0
  -27.4633  -34.8179   23.3979 C   0  0  0  0  0  0  0  0  0  0  0  0
  -19.1976  -15.0897   19.2960 C   0  0  0  0  0  0  0  0  0  0  0  0
  -20.1977  -17.3799   19.0076 C   0  0  0  0  0  0  0  0  0  0  0  0
  -20.1261  -16.4075   21.2802 C   0  0  0  0  0  0  0  0  0  0  0  0
  -27.5826  -34.2675   21.9716 C   0  0  1  0  0  0  0  0  0  0  0  0
  -25.0429  -31.4747   21.5437 C   0  0  1  0  0  0  0  0  0  0  0  0
  -19.7741  -15.0134   20.7217 C   0  0  2  0  0  0  0  0  0  0  0  0
  -24.9419  -17.2360   21.4453 C   0  0  0  0  0  0  0  0  0  0  0  0
  -23.2153  -20.7581   18.2861 C   0  0  0  0  0  0  0  0  0  0  0  0
  -20.0514  -27.2588   25.7047 C   0  0  0  0  0  0  0  0  0  0  0  0
  -25.5660  -30.9062   26.1004 C   0  0  0  0  0  0  0  0  0  0  0  0
  -23.9716  -29.3043   27.1776 C   0  0  0  0  0  0  0  0  0  0  0  0
  -23.1770  -31.5557   26.4547 C   0  0  0  0  0  0  0  0  0  0  0  0
  -27.0042  -22.5775   22.1139 C   0  0  0  0  0  0  0  0  0  0  0  0
  -20.5016  -27.1717   21.9277 C   0  0  0  0  0  0  0  0  0  0  0  0
  -27.7874  -21.1639   20.2547 C   0  0  0  0  0  0  0  0  0  0  0  0
  -27.6395  -24.9973   20.6945 C   0  0  0  0  0  0  0  0  0  1  0  0
  -23.6930  -29.8034   24.7069 C   0  0  1  0  0  0  0  0  0  0  0  0
  -20.5082  -27.7787   24.3505 C   0  0  2  0  0  0  0  0  0  0  0  0
  -24.1148  -30.3857   26.0854 C   0  0  0  0  0  0  0  0  0  0  0  0
  -22.1680  -14.4008   20.7058 N   0  0  0  0  0  0  0  0  0  0  0  0
  -20.8949  -13.9876   20.8267 N   0  0  0  0  0  0  0  0  0  0  0  0
  -24.7085  -30.4638   22.5490 N   0  0  0  0  0  0  0  0  0  0  0  0
  -20.8436  -17.2525   20.3209 N   0  0  0  0  0  0  0  0  0  0  0  0
  -19.5590  -12.0640   21.1810 N   0  0  0  0  0  0  0  0  0  0  0  0
  -23.7699  -10.4328   21.2368 N   0  0  0  0  0  0  0  0  0  0  0  0
  -22.8788  -18.2964   19.7397 N   0  0  0  0  0  0  0  0  0  0  0  0
  -26.4301  -33.4554   21.6451 N   0  0  0  0  0  0  0  0  0  0  0  0
  -22.3148  -29.3277   24.6555 N   0  0  0  0  0  0  0  0  0  0  0  0
  -27.5806  -22.5123   20.7766 N   0  0  0  0  0  0  0  0  0  0  0  0
  -20.1325  -26.7783   23.3119 N   0  3  0  0  0  0  0  0  0  0  0  0
  -21.5531   -9.8710   21.4068 O   0  0  0  0  0  0  0  0  0  0  0  0
  -27.1647  -31.4529   22.5793 O   0  0  0  0  0  0  0  0  0  0  0  0
  -23.1883  -31.8585   23.6353 O   0  0  0  0  0  0  0  0  0  0  0  0
  -28.3998  -23.6313   18.9142 O   0  0  0  0  0  0  0  0  0  0  0  0
  -22.8211  -27.1458   24.0554 O   0  0  0  0  0  0  0  0  0  0  0  0
  -22.1570  -18.2512   21.9439 O   0  0  0  0  0  0  0  0  0  0  0  0
  -28.4519  -13.3788   20.5770 O   0  0  0  0  0  0  0  0  0  0  0  0
  -28.0242  -26.0446   19.8049 O   0  0  0  0  0  0  0  0  0  1  0  0
  -31.0737  -17.3565   23.3533 F   0  0  0  0  0  0  0  0  0  0  0  0
  -27.9834  -16.0450   20.0163 F   0  0  0  0  0  0  0  0  0  0  0  0
  1  2  1  0  0  0  0
  1  5  2  0  0  0  0
  2  6  2  0  0  0  0
  3  8  2  0  0  0  0
  3 17  1  0  0  0  0
  4  9  1  0  0  0  0
  4 17  2  0  0  0  0
  5 19  1  0  0  0  0
  6 21  1  0  0  0  0
  7 10  2  0  0  0  0
  7 20  1  0  0  0  0
  8 27  1  0  0  0  0
  9 27  2  0  0  0  0
 10 28  1  0  0  0  0
 11 12  2  0  0  0  0
 11 29  1  0  0  0  0
 12 30  1  0  0  0  0
 13 22  1  0  0  0  0
 13 28  2  0  0  0  0
 14 23  1  0  0  0  0
 14 24  2  0  0  0  0
 15 23  2  0  0  0  0
 15 25  1  0  0  0  0
 16 30  2  0  0  0  0
 16 31  1  0  0  0  0
 17 32  1  0  0  0  0
 18 32  1  0  0  0  0
 18 33  2  0  0  0  0
 18 34  1  0  0  0  0
 19 21  2  0  0  0  0
 19 40  1  0  0  0  0
 20 22  2  0  0  0  0
 20 41  1  0  0  0  0
 21 49  1  0  0  0  0
 22 42  1  0  0  0  0
 23 60  1  0  0  0  0
 24 26  1  0  0  0  0
 24 52  1  0  0  0  0
 25 26  2  0  0  0  0
 25 53  1  0  0  0  0
 26 71  1  0  0  0  0
 27 82  1  0  0  0  0
 28 83  1  0  0  0  0
 29 31  2  0  0  0  0
 29 82  1  0  0  0  0
 30 84  1  0  0  0  0
 31 85  1  0  0  0  0
 32 65  2  0  0  0  0
 33 66  1  0  0  0  0
 33 69  1  0  0  0  0
 34 70  1  0  0  0  0
 34 76  2  0  0  0  0
 35 50  1  0  0  0  0
 35 72  1  0  0  0  0
 35 77  2  0  0  0  0
 36 62  1  0  0  0  0
 36 67  1  0  0  0  0
 36 78  2  0  0  0  0
 37 61  1  0  0  0  0
 37 74  1  0  0  0  0
 37 79  2  0  0  0  0
 38 63  1  0  0  0  0
 38 73  1  0  0  0  0
 38 80  2  0  0  0  0
 39 68  1  0  0  0  0
 39 71  1  0  0  0  0
 39 81  2  0  0  0  0
 40 43  1  0  0  0  0
 41 50  1  0  0  0  0
 42 67  1  0  0  0  0
 43 45  1  0  0  0  0
 44 46  1  0  0  0  0
 44 47  1  0  0  0  0
 45 49  1  0  0  0  0
 46 51  1  0  0  0  0
 47 68  1  0  0  0  0
 48 51  1  0  0  0  0
 48 68  1  0  0  0  0
 49 72  1  0  0  0  0
 50 67  1  0  0  0  0
 51 66  1  0  0  0  0
 54 63  1  0  0  0  0
 55 64  1  0  0  0  0
 56 64  1  0  0  0  0
 57 64  1  0  0  0  0
 58 74  1  0  0  0  0
 59 75  1  0  0  0  0
 60 74  1  0  0  0  0
 61 83  1  0  0  0  0
 62 64  1  0  0  0  0
 62 73  1  0  0  0  0
 63 75  1  0  0  0  0
 65 66  1  0  0  0  0
M  CHG  1  75   1
M  ISO  4  39 100  61 101  71 100  83 101
M  END
> <Batch ID>
0039

> <Smiles>
CNC(C)C(=O)NC(C(=O)N1Cc2cc([101O:1][101CH2:1]C(=O)N(C)Cc3cc(C)c([100NH:0][100C:0](=O)N4CCCC(n5nc(-c6ccc(Oc7ccc(F)cc7F)cc6)c(C(N)=O)c5N)C4)c(C)c3)ccc2CC1C(=O)NC1CCCc2ccccc21)C(C)(C)C

> <Shape>
0.238

> <Color>
0.090

> <Negative vol penalty>
0.000

$$$$

  -OEChem-04042322043D

 91100  0     1  0  0  0  0  0999 V2000
  -27.0033  -39.0822   25.3195 C   0  0  0  0  0  0  0  0  0  0  0  0
  -27.2747  -37.9798   26.1235 C   0  0  0  0  0  0  0  0  0  0  0  0
  -24.0127   -8.2240   20.1258 C   0  0  0  0  0  0  0  0  0  0  0  0
  -23.1664  -10.2861   21.0576 C   0  0  0  0  0  0  0  0  0  0  0  0
  -25.9912  -39.0136   24.3630 C   0  0  0  0  0  0  0  0  0  0  0  0
  -26.5335  -36.8084   25.9722 C   0  0  0  0  0  0  0  0  0  0  0  0
  -29.7485  -30.5685   24.3540 C   0  0  0  0  0  0  0  0  0  0  0  0
  -23.0130   -7.5135   20.7901 C   0  0  0  0  0  0  0  0  0  0  0  0
  -22.1667   -9.5756   21.7220 C   0  0  0  0  0  0  0  0  0  0  0  0
  -30.3119  -29.2963   24.2528 C   0  0  0  0  0  0  0  0  0  0  0  0
  -22.4232   -6.3805   23.9195 C   0  0  0  0  0  0  0  0  0  0  0  0
  -22.7923   -5.2099   24.5821 C   0  0  0  0  0  0  0  0  0  0  0  0
  -28.1040  -28.3132   24.1731 C   0  0  0  0  0  0  0  0  0  0  0  0
  -28.8193  -20.4037   20.2458 C   0  0  0  0  0  0  0  0  0  0  0  0
  -21.2732   -3.9449   23.1931 C   0  0  0  0  0  0  0  0  0  0  0  0
  -24.0895   -9.6103   20.2596 C   0  0  0  0  0  0  0  0  0  0  0  0
  -25.3427  -10.4058   18.1849 C   0  0  0  0  0  0  0  0  0  0  0  0
  -25.2436  -37.8376   24.1933 C   0  0  0  0  0  0  0  0  0  0  0  0
  -28.3591  -30.7193   24.3496 C   0  0  0  0  0  0  0  0  0  0  0  0
  -25.5096  -36.7245   25.0134 C   0  0  0  0  0  0  0  0  0  0  0  0
  -27.5340  -29.5860   24.2616 C   0  0  0  0  0  0  0  0  0  0  0  0
  -30.0194  -20.9917   20.6452 C   0  0  0  0  0  0  0  0  0  0  0  0
  -31.0604  -20.1962   21.1241 C   0  0  0  0  0  0  0  0  0  0  0  0
  -29.7009  -18.2247   20.8043 C   0  0  0  0  0  0  0  0  0  0  0  0
  -22.0900   -8.1893   21.5882 C   0  0  0  0  0  0  0  0  0  0  0  0
  -29.4917  -28.1714   24.1629 C   0  0  0  0  0  0  0  0  0  0  0  0
  -21.4790   -6.3334   22.8938 C   0  0  0  0  0  0  0  0  0  0  0  0
  -22.2173   -3.9921   24.2189 C   0  0  0  0  0  0  0  0  0  0  0  0
  -20.9040   -5.1155   22.5306 C   0  0  0  0  0  0  0  0  0  0  0  0
  -28.6600  -19.0202   20.3255 C   0  0  0  0  0  0  0  0  0  0  0  0
  -30.9011  -18.8127   21.2037 C   0  0  0  0  0  0  0  0  0  0  0  0
  -25.1223  -10.3448   19.5740 C   0  0  0  0  0  0  0  0  0  0  0  0
  -26.4345  -11.2276   18.0464 C   0  0  0  0  0  0  0  0  0  0  0  0
  -29.3119  -24.6502   21.1940 C   0  0  0  0  0  0  0  0  0  0  0  0
  -27.2800  -24.9897   18.1539 C   0  0  0  0  0  0  0  0  0  0  0  0
  -28.6914  -25.2009   20.1360 C   0  0  0  0  0  0  0  0  0  0  0  0
  -27.8972  -24.4412   19.2064 C   0  0  0  0  0  0  0  0  0  0  0  0
  -24.6247   -9.7762   17.1155 C   0  0  0  0  0  0  0  0  0  0  0  0
  -25.4368  -33.0684   24.4835 C   0  0  0  0  0  0  0  0  0  0  0  0
  -24.7511  -30.9103   22.4140 C   0  0  0  0  0  0  0  0  0  0  0  0
  -24.5589  -28.5944   19.9166 C   0  0  0  0  0  0  0  0  0  0  0  0
  -28.4091  -16.0708   20.5281 C   0  0  0  0  0  0  0  0  0  0  0  0
  -24.1280  -37.8267   23.1784 C   0  0  0  0  0  0  0  0  0  0  0  0
  -27.7082  -32.0652   24.5184 C   0  0  0  0  0  0  0  0  0  0  0  0
  -26.0444  -29.7933   24.2955 C   0  0  0  0  0  0  0  0  0  0  0  0
  -30.1316  -25.4830   22.1394 C   0  0  0  0  0  0  0  0  0  0  0  0
  -23.6390  -36.4243   22.8258 C   0  0  0  0  0  0  0  0  0  0  0  0
  -29.5637  -12.6010   21.6906 C   0  0  0  0  0  0  0  0  0  0  0  0
  -28.2656  -23.6113   23.7215 C   0  0  0  0  0  0  0  0  0  0  0  0
  -23.4297  -35.5981   24.0909 C   0  0  0  0  0  0  0  0  0  0  0  0
  -28.9848  -11.7501   20.5627 C   0  0  0  0  0  0  0  0  0  0  0  0
  -28.9608  -24.8294   24.3284 C   0  0  0  0  0  0  0  0  0  0  0  0
  -29.7751  -14.0502   21.2707 C   0  0  0  0  0  0  0  0  0  0  0  0
  -27.4429  -13.7821   20.4077 C   0  0  0  0  0  0  0  0  0  0  0  0
  -29.1848  -22.7873   22.8236 C   0  0  0  0  0  0  0  0  0  0  0  0
  -24.7439  -35.4279   24.8624 C   0  0  1  0  0  0  0  0  0  0  0  0
  -26.3998  -32.2073   23.7202 C   0  0  1  0  0  0  0  0  0  0  0  0
  -27.9359  -12.5004   19.7181 C   0  0  2  0  0  0  0  0  0  0  0  0
  -29.3060  -25.9449   23.3424 C   0  0  1  0  0  0  0  0  0  1  0  0
  -32.3393  -20.8502   21.5481 C   0  0  0  0  0  0  0  0  0  0  0  0
  -23.0370  -27.7867   18.0921 C   0  0  0  0  0  0  0  0  0  0  0  0
  -23.0166  -29.5011   24.4899 C   0  0  0  0  0  0  0  0  0  0  0  0
  -22.1679  -28.0112   22.6655 C   0  0  0  0  0  0  0  0  0  0  0  0
  -21.7551  -30.4690   22.5595 C   0  0  0  0  0  0  0  0  0  0  0  0
  -26.5389  -29.2485   17.8164 C   0  0  0  0  0  0  0  0  0  0  0  0
  -30.1627  -22.4821   20.5497 C   0  0  0  0  0  0  0  0  0  0  0  0
  -24.0865  -29.5847   22.1416 C   0  0  1  0  0  0  0  0  0  0  0  0
  -24.1815  -28.7213   18.4517 C   0  0  2  0  0  0  0  0  0  0  0  0
  -22.7844  -29.3933   22.9695 C   0  0  0  0  0  0  0  0  0  0  0  0
  -26.0033  -11.0698   20.2683 N   0  0  0  0  0  0  0  0  0  0  0  0
  -26.7881  -11.5942   19.3116 N   0  0  0  0  0  0  0  0  0  0  0  0
  -25.6790  -30.9492   23.4618 N   0  0  0  0  0  0  0  0  0  0  0  0
  -28.5612  -14.6768   20.7274 N   0  0  0  0  0  0  0  0  0  0  0  0
  -27.1171  -11.6650   16.9669 N   0  0  0  0  0  0  0  0  0  0  0  0
  -23.5446  -10.4608   16.5418 N   0  0  0  0  0  0  0  0  0  0  0  0
  -29.5344  -16.8194   20.8829 N   0  0  0  0  0  0  0  0  0  0  0  0
  -25.5720  -34.4208   24.2342 N   0  0  0  0  0  0  0  0  0  0  0  0
  -23.8920  -29.5146   20.6974 N   0  0  0  0  0  0  0  0  0  0  0  0
  -29.1464  -23.2282   21.3792 N   0  3  2  0  0  0  0  0  0  0  0  0
  -25.3483  -28.3905   17.5857 N   0  3  0  0  0  0  0  0  0  0  0  0
  -24.9216   -8.6332   16.6925 O   0  0  0  0  0  0  0  0  0  0  0  0
  -24.6289  -32.5454   25.2420 O   0  0  0  0  0  0  0  0  0  0  0  0
  -24.4533  -31.8878   21.7218 O   0  0  0  0  0  0  0  0  0  0  0  0
  -25.3621  -27.7598   20.3277 O   0  0  0  0  0  0  0  0  0  0  0  0
  -27.3702  -16.5500   20.0688 O   0  0  0  0  0  0  0  0  0  0  0  0
  -21.1142   -7.4963   22.2365 O   0  0  0  0  0  0  0  0  0  0  0  0
  -30.0483  -26.9328   24.0599 O   0  0  0  0  0  0  0  0  0  1  0  0
  -22.5730   -2.8677   24.8541 F   0  0  0  0  0  0  0  0  0  0  0  0
  -19.9973   -5.0638   21.5452 F   0  0  0  0  0  0  0  0  0  0  0  0
  -27.1541  -18.3396   19.8187 Cl  0  0  0  0  0  0  0  0  0  0  0  0
  -32.2011  -17.8303   21.8010 Cl  0  0  0  0  0  0  0  0  0  0  0  0
  1  2  1  0  0  0  0
  1  5  2  0  0  0  0
  2  6  2  0  0  0  0
  3  8  2  0  0  0  0
  3 16  1  0  0  0  0
  4  9  1  0  0  0  0
  4 16  2  0  0  0  0
  5 18  1  0  0  0  0
  6 20  1  0  0  0  0
  7 10  2  0  0  0  0
  7 19  1  0  0  0  0
  8 25  1  0  0  0  0
  9 25  2  0  0  0  0
 10 26  1  0  0  0  0
 11 12  2  0  0  0  0
 11 27  1  0  0  0  0
 12 28  1  0  0  0  0
 13 21  1  0  0  0  0
 13 26  2  0  0  0  0
 14 22  1  0  0  0  0
 14 30  2  0  0  0  0
 15 28  2  0  0  0  0
 15 29  1  0  0  0  0
 16 32  1  0  0  0  0
 17 32  1  0  0  0  0
 17 33  2  0  0  0  0
 17 38  1  0  0  0  0
 18 20  2  0  0  0  0
 18 43  1  0  0  0  0
 19 21  2  0  0  0  0
 19 44  1  0  0  0  0
 20 56  1  0  0  0  0
 21 45  1  0  0  0  0
 22 23  2  0  0  0  0
 22 66  1  0  0  0  0
 23 31  1  0  0  0  0
 23 60  1  0  0  0  0
 24 30  1  0  0  0  0
 24 31  2  0  0  0  0
 24 76  1  0  0  0  0
 25 86  1  0  0  0  0
 26 87  1  0  0  0  0
 27 29  2  0  0  0  0
 27 86  1  0  0  0  0
 28 88  1  0  0  0  0
 29 89  1  0  0  0  0
 30 90  1  0  0  0  0
 31 91  1  0  0  0  0
 32 70  2  0  0  0  0
 33 71  1  0  0  0  0
 33 74  1  0  0  0  0
 34 36  2  0  0  0  0
 34 46  1  0  0  0  0
 34 79  1  0  0  0  0
 35 37  2  0  0  0  0
 36 37  1  0  0  0  0
 38 75  1  0  0  0  0
 38 81  2  0  0  0  0
 39 57  1  0  0  0  0
 39 77  1  0  0  0  0
 39 82  2  0  0  0  0
 40 67  1  0  0  0  0
 40 72  1  0  0  0  0
 40 83  2  0  0  0  0
 41 68  1  0  0  0  0
 41 78  1  0  0  0  0
 41 84  2  0  0  0  0
 42 73  1  0  0  0  0
 42 76  1  0  0  0  0
 42 85  2  0  0  0  0
 43 47  1  0  0  0  0
 44 57  1  0  0  0  0
 45 72  1  0  0  0  0
 46 59  1  0  0  0  0
 47 50  1  0  0  0  0
 48 51  1  0  0  0  0
 48 53  1  0  0  0  0
 49 52  1  0  0  0  0
 49 55  1  0  0  0  0
 50 56  1  0  0  0  0
 51 58  1  0  0  0  0
 52 59  1  0  0  0  0
 53 73  1  0  0  0  0
 54 58  1  0  0  0  0
 54 73  1  0  0  0  0
 55 79  1  0  0  0  0
 56 77  1  0  0  0  0
 57 72  1  0  0  0  0
 58 71  1  0  0  0  0
 59 87  1  0  0  0  0
 61 68  1  0  0  0  0
 62 69  1  0  0  0  0
 63 69  1  0  0  0  0
 64 69  1  0  0  0  0
 65 80  1  0  0  0  0
 66 79  1  0  0  0  0
 67 69  1  0  0  0  0
 67 78  1  0  0  0  0
 68 80  1  0  0  0  0
 70 71  1  0  0  0  0
M  CHG  2  79   1  80   1
M  ISO  4  42 100  59 101  76 100  87 101
M  END
> <Batch ID>
0039

> <Smiles>
C=CC=C1C[101CH:1]([101O:1]c2ccc3c(c2)CN(C(=O)C(NC(=O)C(C)NC)C(C)(C)C)C(C(=O)NC2CCCc4ccccc42)C3)CCCN1Cc1cc(Cl)c([100NH:0][100C:0](=O)N2CCCC(n3nc(-c4ccc(Oc5ccc(F)cc5F)cc4)c(C(N)=O)c3N)C2)c(Cl)c1C

> <Shape>
0.334

> <Color>
0.068

> <Negative vol penalty>
0.000

$$$$

  -OEChem-04042322043D

 91100  0     1  0  0  0  0  0999 V2000
  -34.4625  -29.3376   16.2485 C   0  0  0  0  0  0  0  0  0  0  0  0
  -33.9497  -29.2427   17.5382 C   0  0  0  0  0  0  0  0  0  0  0  0
  -23.1567  -10.2122   22.0902 C   0  0  0  0  0  0  0  0  0  0  0  0
  -23.8198   -9.5158   19.8738 C   0  0  0  0  0  0  0  0  0  0  0  0
  -34.0923  -28.4035   15.2819 C   0  0  0  0  0  0  0  0  0  0  0  0
  -33.0654  -28.2142   17.8617 C   0  0  0  0  0  0  0  0  0  0  0  0
  -34.5852  -23.5348   23.1234 C   0  0  0  0  0  0  0  0  0  0  0  0
  -34.3282  -14.8964   27.2420 C   0  0  0  0  0  0  0  0  0  0  0  0
  -33.8762  -13.6874   26.7133 C   0  0  0  0  0  0  0  0  0  0  0  0
  -22.4275   -9.0329   22.2425 C   0  0  0  0  0  0  0  0  0  0  0  0
  -23.0907   -8.3365   20.0261 C   0  0  0  0  0  0  0  0  0  0  0  0
  -34.7068  -22.7286   24.2554 C   0  0  0  0  0  0  0  0  0  0  0  0
  -23.0579   -5.7897   22.9617 C   0  0  0  0  0  0  0  0  0  0  0  0
  -23.1858   -5.0996   24.1671 C   0  0  0  0  0  0  0  0  0  0  0  0
  -32.6510  -21.5925   23.6802 C   0  0  0  0  0  0  0  0  0  0  0  0
  -35.6586  -15.2661   25.2595 C   0  0  0  0  0  0  0  0  0  0  0  0
  -20.8154   -5.3496   24.5617 C   0  0  0  0  0  0  0  0  0  0  0  0
  -23.8528  -10.4537   20.9058 C   0  0  0  0  0  0  0  0  0  0  0  0
  -24.1116  -12.9892   20.7968 C   0  0  0  0  0  0  0  0  0  0  0  0
  -33.2106  -27.3574   15.5963 C   0  0  0  0  0  0  0  0  0  0  0  0
  -33.5028  -23.3623   22.2562 C   0  0  0  0  0  0  0  0  0  0  0  0
  -32.6820  -27.2660   16.8980 C   0  0  0  0  0  0  0  0  0  0  0  0
  -32.5305  -22.3887   22.5381 C   0  0  0  0  0  0  0  0  0  0  0  0
  -35.2194  -15.6858   26.5151 C   0  0  0  0  0  0  0  0  0  0  0  0
  -35.2067  -14.0571   24.7308 C   0  0  0  0  0  0  0  0  0  0  0  0
  -34.3154  -13.2677   25.4577 C   0  0  0  0  0  0  0  0  0  0  0  0
  -22.3945   -8.0951   21.2105 C   0  0  0  0  0  0  0  0  0  0  0  0
  -33.7419  -21.7601   24.5332 C   0  0  0  0  0  0  0  0  0  0  0  0
  -21.8088   -6.2599   22.5563 C   0  0  0  0  0  0  0  0  0  0  0  0
  -22.0645   -4.8795   24.9671 C   0  0  0  0  0  0  0  0  0  0  0  0
  -20.6875   -6.0398   23.3563 C   0  0  0  0  0  0  0  0  0  0  0  0
  -24.6058  -11.6719   20.7476 C   0  0  0  0  0  0  0  0  0  0  0  0
  -25.2166  -13.7784   20.5905 C   0  0  0  0  0  0  0  0  0  0  0  0
  -33.6817  -19.6831   28.6283 C   0  0  0  0  0  0  0  0  0  0  0  0
  -32.4900  -19.8011   28.0226 C   0  0  0  0  0  0  0  0  0  0  0  0
  -34.8684  -19.1308   28.0024 C   0  0  0  0  0  0  0  0  0  0  0  0
  -36.0939  -19.5720   28.3277 C   0  0  0  0  0  0  0  0  0  0  0  0
  -31.8774  -12.8804   23.7767 C   0  0  0  0  0  0  0  0  0  0  0  0
  -32.7153  -11.9114   24.1672 C   0  0  0  0  0  0  0  0  0  0  0  0
  -22.7734  -13.4575   21.0100 C   0  0  0  0  0  0  0  0  0  0  0  0
  -31.7735  -24.4482   19.1088 C   0  0  0  0  0  0  0  0  0  0  0  0
  -31.0752  -12.7960   21.4986 C   0  0  0  0  0  0  0  0  0  0  0  0
  -31.5849  -21.3884   19.2188 C   0  0  0  0  0  0  0  0  0  0  0  0
  -32.4206  -18.3558   19.3094 C   0  0  0  0  0  0  0  0  0  0  0  0
  -32.8027  -26.3992   14.5053 C   0  0  0  0  0  0  0  0  0  0  0  0
  -33.2990  -24.2494   21.0582 C   0  0  0  0  0  0  0  0  0  0  0  0
  -31.3649  -22.2620   21.5956 C   0  0  0  0  0  0  0  0  0  0  0  0
  -32.1697  -19.5107   26.5766 C   0  0  0  0  0  0  0  0  0  0  0  0
  -32.1531  -25.1209   15.0289 C   0  0  0  0  0  0  0  0  0  0  0  0
  -29.4826  -13.7737   18.4412 C   0  0  0  0  0  0  0  0  0  0  0  0
  -31.1045  -25.4496   16.0869 C   0  0  0  0  0  0  0  0  0  0  0  0
  -28.0109  -13.4388   18.6800 C   0  0  0  0  0  0  0  0  0  0  0  0
  -30.4023  -12.7632   19.1194 C   0  0  0  0  0  0  0  0  0  0  0  0
  -28.6802  -12.2654   20.8247 C   0  0  0  0  0  0  0  0  0  0  0  0
  -34.4653  -18.6365   25.6462 C   0  0  0  0  0  0  0  0  0  0  0  0
  -31.7396  -26.1502   17.2941 C   0  0  1  0  0  0  0  0  0  0  0  0
  -32.6733  -23.5121   19.8607 C   0  0  1  0  0  0  0  0  0  0  0  0
  -27.7170  -13.2791   20.1821 C   0  0  2  0  0  0  0  0  0  0  0  0
  -33.3199  -19.6550   25.5632 C   0  0  2  0  0  0  0  0  0  1  0  0
  -35.6933  -13.6317   23.3836 C   0  0  0  0  0  0  0  0  0  0  0  0
  -32.7980  -15.8858   19.0771 C   0  0  0  0  0  0  0  0  0  0  0  0
  -28.7164  -21.6229   20.2289 C   0  0  0  0  0  0  0  0  0  0  0  0
  -28.4770  -19.1513   19.9094 C   0  0  0  0  0  0  0  0  0  0  0  0
  -28.9411  -20.6214   17.9483 C   0  0  0  0  0  0  0  0  0  0  0  0
  -34.6018  -10.8294   25.2974 C   0  0  0  0  0  0  0  0  0  0  0  0
  -34.2303  -18.7323   16.9981 C   0  0  0  0  0  0  0  0  0  0  0  0
  -35.7053  -16.9862   27.0843 C   0  0  0  0  0  0  0  0  0  0  0  0
  -30.6625  -12.6404   22.9406 C   0  0  0  0  0  0  0  0  0  0  0  0
  -30.7760  -20.1849   19.6320 C   0  0  1  0  0  0  0  0  0  0  0  0
  -32.7749  -17.2263   18.3591 C   0  0  2  0  0  0  0  0  0  0  0  0
  -29.2482  -20.4056   19.4463 C   0  0  0  0  0  0  0  0  0  0  0  0
  -25.9222  -11.6230   20.5271 N   0  0  0  0  0  0  0  0  0  0  0  0
  -26.2646  -12.9193   20.4359 N   0  0  0  0  0  0  0  0  0  0  0  0
  -31.8324  -22.3526   20.2035 N   0  0  0  0  0  0  0  0  0  0  0  0
  -30.0766  -12.6237   20.5398 N   0  0  0  0  0  0  0  0  0  0  0  0
  -25.3844  -15.1164   20.5280 N   0  0  0  0  0  0  0  0  0  0  0  0
  -21.7577  -12.5117   21.2054 N   0  0  0  0  0  0  0  0  0  0  0  0
  -32.4183  -25.1891   18.1368 N   0  0  0  0  0  0  0  0  0  0  0  0
  -31.3122  -19.0551   18.8808 N   0  0  0  0  0  0  0  0  0  0  0  0
  -33.8473  -12.0409   24.9382 N   0  0  0  0  0  0  0  0  0  0  0  0
  -34.6693  -18.0778   27.0302 N   0  3  1  0  0  0  0  0  0  0  0  0
  -34.1173  -17.4592   17.7553 N   0  3  0  0  0  0  0  0  0  0  0  0
  -22.4840  -14.6781   21.0105 O   0  0  0  0  0  0  0  0  0  0  0  0
  -30.5812  -24.4948   19.3880 O   0  0  0  0  0  0  0  0  0  0  0  0
  -32.2498  -13.0656   21.2343 O   0  0  0  0  0  0  0  0  0  0  0  0
  -31.9830  -21.4765   18.0539 O   0  0  0  0  0  0  0  0  0  0  0  0
  -33.0606  -18.5917   20.3317 O   0  0  0  0  0  0  0  0  0  0  0  0
  -21.6833   -6.9441   21.3590 O   0  0  0  0  0  0  0  0  0  0  0  0
  -33.8691  -20.9734   25.6376 O   0  0  0  0  0  0  0  0  0  1  0  0
  -22.1873   -4.2155   26.1239 F   0  0  0  0  0  0  0  0  0  0  0  0
  -19.4846   -6.4880   22.9716 F   0  0  0  0  0  0  0  0  0  0  0  0
  1  2  1  0  0  0  0
  1  5  2  0  0  0  0
  2  6  2  0  0  0  0
  3 10  2  0  0  0  0
  3 18  1  0  0  0  0
  4 11  1  0  0  0  0
  4 18  2  0  0  0  0
  5 20  1  0  0  0  0
  6 22  1  0  0  0  0
  7 12  2  0  0  0  0
  7 21  1  0  0  0  0
  8  9  2  0  0  0  0
  8 24  1  0  0  0  0
  9 26  1  0  0  0  0
 10 27  1  0  0  0  0
 11 27  2  0  0  0  0
 12 28  1  0  0  0  0
 13 14  2  0  0  0  0
 13 29  1  0  0  0  0
 14 30  1  0  0  0  0
 15 23  1  0  0  0  0
 15 28  2  0  0  0  0
 16 24  2  0  0  0  0
 16 25  1  0  0  0  0
 17 30  2  0  0  0  0
 17 31  1  0  0  0  0
 18 32  1  0  0  0  0
 19 32  1  0  0  0  0
 19 33  2  0  0  0  0
 19 40  1  0  0  0  0
 20 22  2  0  0  0  0
 20 45  1  0  0  0  0
 21 23  2  0  0  0  0
 21 46  1  0  0  0  0
 22 56  1  0  0  0  0
 23 47  1  0  0  0  0
 24 67  1  0  0  0  0
 25 26  2  0  0  0  0
 25 60  1  0  0  0  0
 26 80  1  0  0  0  0
 27 88  1  0  0  0  0
 28 89  1  0  0  0  0
 29 31  2  0  0  0  0
 29 88  1  0  0  0  0
 30 90  1  0  0  0  0
 31 91  1  0  0  0  0
 32 72  2  0  0  0  0
 33 73  1  0  0  0  0
 33 76  1  0  0  0  0
 34 35  2  0  0  0  0
 34 36  1  0  0  0  0
 35 48  1  0  0  0  0
 36 37  2  0  0  0  0
 36 81  1  0  0  0  0
 38 39  2  0  0  0  0
 38 68  1  0  0  0  0
 39 80  1  0  0  0  0
 40 77  1  0  0  0  0
 40 83  2  0  0  0  0
 41 57  1  0  0  0  0
 41 78  1  0  0  0  0
 41 84  2  0  0  0  0
 42 68  1  0  0  0  0
 42 75  1  0  0  0  0
 42 85  2  0  0  0  0
 43 69  1  0  0  0  0
 43 74  1  0  0  0  0
 43 86  2  0  0  0  0
 44 70  1  0  0  0  0
 44 79  1  0  0  0  0
 44 87  2  0  0  0  0
 45 49  1  0  0  0  0
 46 57  1  0  0  0  0
 47 74  1  0  0  0  0
 48 59  1  0  0  0  0
 49 51  1  0  0  0  0
 50 52  1  0  0  0  0
 50 53  1  0  0  0  0
 51 56  1  0  0  0  0
 52 58  1  0  0  0  0
 53 75  1  0  0  0  0
 54 58  1  0  0  0  0
 54 75  1  0  0  0  0
 55 59  1  0  0  0  0
 55 81  1  0  0  0  0
 56 78  1  0  0  0  0
 57 74  1  0  0  0  0
 58 73  1  0  0  0  0
 59 89  1  0  0  0  0
 61 70  1  0  0  0  0
 62 71  1  0  0  0  0
 63 71  1  0  0  0  0
 64 71  1  0  0  0  0
 65 80  1  0  0  0  0
 66 82  1  0  0  0  0
 67 81  1  0  0  0  0
 69 71  1  0  0  0  0
 69 79  1  0  0  0  0
 70 82  1  0  0  0  0
 72 73  1  0  0  0  0
M  CHG  2  81   1  82   1
M  ISO  4  42 100  59 101  68 100  89 101
M  END
> <Batch ID>
0039

> <Smiles>
C=C1C=CC[101CH:1]([101O:1]c2ccc3c(c2)CN(C(=O)C(NC(=O)C(C)NC)C(C)(C)C)C(C(=O)NC2CCCc4ccccc42)C3)CN1Cc1ccc(N(C)C=C[100CH2:0][100C:0](=O)N2CCCC(n3nc(-c4ccc(Oc5ccc(F)cc5F)cc4)c(C(N)=O)c3N)C2)c(C)c1

> <Shape>
0.179

> <Color>
0.203

> <Negative vol penalty>
0.000

$$$$

  -OEChem-04042322043D

 92100  0     1  0  0  0  0  0999 V2000
  -23.3198  -30.5948   22.2026 C   0  0  0  0  0  0  0  0  0  0  0  0
  -24.2433  -29.8198   22.8968 C   0  0  0  0  0  0  0  0  0  0  0  0
  -23.0706   -9.8109   20.1971 C   0  0  0  0  0  0  0  0  0  0  0  0
  -23.7481  -10.1043   22.4975 C   0  0  0  0  0  0  0  0  0  0  0  0
  -23.3183  -30.5933   20.8084 C   0  0  0  0  0  0  0  0  0  0  0  0
  -25.1652  -29.0420   22.1971 C   0  0  0  0  0  0  0  0  0  0  0  0
  -30.9378  -27.8130   23.8321 C   0  0  0  0  0  0  0  0  0  0  0  0
  -22.3085   -8.7015   20.5630 C   0  0  0  0  0  0  0  0  0  0  0  0
  -22.9860   -8.9949   22.8635 C   0  0  0  0  0  0  0  0  0  0  0  0
  -31.5216  -26.7116   24.4564 C   0  0  0  0  0  0  0  0  0  0  0  0
  -22.8418   -5.4441   21.2904 C   0  0  0  0  0  0  0  0  0  0  0  0
  -22.9334   -4.3040   20.4921 C   0  0  0  0  0  0  0  0  0  0  0  0
  -32.1351  -25.8218   22.2998 C   0  0  0  0  0  0  0  0  0  0  0  0
  -32.0197  -16.7586   22.2373 C   0  0  0  0  0  0  0  0  0  0  0  0
  -20.5644   -4.4335   20.0355 C   0  0  0  0  0  0  0  0  0  0  0  0
  -23.7905  -10.5123   21.1644 C   0  0  0  0  0  0  0  0  0  0  0  0
  -30.4536  -18.7058   23.4774 C   0  0  0  0  0  0  0  0  0  0  0  0
  -24.1579  -13.0008   20.7397 C   0  0  0  0  0  0  0  0  0  0  0  0
  -24.2469  -29.8226   20.0912 C   0  0  0  0  0  0  0  0  0  0  0  0
  -30.9387  -27.9219   22.4340 C   0  0  0  0  0  0  0  0  0  0  0  0
  -25.1752  -29.0292   20.7920 C   0  0  0  0  0  0  0  0  0  0  0  0
  -31.5529  -26.9269   21.6602 C   0  0  0  0  0  0  0  0  0  0  0  0
  -32.6199  -17.7306   23.0376 C   0  0  0  0  0  0  0  0  0  0  0  0
  -31.8368  -18.7043   23.6577 C   0  0  0  0  0  0  0  0  0  0  0  0
  -30.6365  -16.7601   22.0570 C   0  0  0  0  0  0  0  0  0  0  0  0
  -22.2662   -8.2935   21.8962 C   0  0  0  0  0  0  0  0  0  0  0  0
  -32.1178  -25.7144   23.6902 C   0  0  0  0  0  0  0  0  0  0  0  0
  -21.6115   -6.0788   21.4614 C   0  0  0  0  0  0  0  0  0  0  0  0
  -21.7947   -3.7987   19.8646 C   0  0  0  0  0  0  0  0  0  0  0  0
  -20.4729   -5.5735   20.8339 C   0  0  0  0  0  0  0  0  0  0  0  0
  -29.8535  -17.7337   22.6771 C   0  0  0  0  0  0  0  0  0  0  0  0
  -24.5784  -11.6581   20.7869 C   0  0  0  0  0  0  0  0  0  0  0  0
  -25.2686  -13.6941   20.3250 C   0  0  0  0  0  0  0  0  0  0  0  0
  -36.2555  -19.7458   19.3006 C   0  0  0  0  0  0  0  0  0  0  0  0
  -29.6553  -19.7382   24.1371 C   0  0  0  0  0  0  0  0  0  0  0  0
  -35.8117  -19.7463   20.5613 C   0  0  0  0  0  0  0  0  0  0  0  0
  -29.3606  -20.9494   23.6244 C   0  0  0  0  0  0  0  0  0  0  0  0
  -22.8777  -13.5703   21.0436 C   0  0  0  0  0  0  0  0  0  0  0  0
  -35.1521  -18.5396   21.1276 C   0  0  0  0  0  0  0  0  0  0  0  0
  -28.6884  -28.0536   20.1929 C   0  0  0  0  0  0  0  0  0  0  0  0
  -31.2176  -28.5972   18.2359 C   0  0  0  0  0  0  0  0  0  0  0  0
  -32.6031  -22.2304   24.5232 C   0  0  0  0  0  0  0  0  0  0  0  0
  -34.5665  -28.2644   17.6693 C   0  0  0  0  0  0  0  0  0  0  0  0
  -30.7338  -14.7319   20.5660 C   0  0  0  0  0  0  0  0  0  0  0  0
  -24.1759  -29.8167   18.5847 C   0  0  0  0  0  0  0  0  0  0  0  0
  -30.3283  -29.1294   21.7770 C   0  0  0  0  0  0  0  0  0  0  0  0
  -31.5985  -27.0066   20.1569 C   0  0  0  0  0  0  0  0  0  0  0  0
  -25.4290  -29.2550   17.9180 C   0  0  0  0  0  0  0  0  0  0  0  0
  -29.6842  -12.0428   18.4816 C   0  0  0  0  0  0  0  0  0  0  0  0
  -25.8570  -27.9564   18.5942 C   0  0  0  0  0  0  0  0  0  0  0  0
  -28.2277  -11.8135   18.8917 C   0  0  0  0  0  0  0  0  0  0  0  0
  -30.5577  -12.4179   19.6775 C   0  0  0  0  0  0  0  0  0  0  0  0
  -28.6089  -13.3184   20.8859 C   0  0  0  0  0  0  0  0  0  0  0  0
  -26.2072  -28.1914   20.0685 C   0  0  1  0  0  0  0  0  0  0  0  0
  -29.9339  -28.8838   20.3239 C   0  0  1  0  0  0  0  0  0  0  0  0
  -27.6773  -13.0017   19.7046 C   0  0  2  0  0  0  0  0  0  0  0  0
  -28.5471  -21.9786   24.3399 C   0  0  0  0  0  0  0  0  0  0  0  0
  -36.3363  -28.7742   15.9648 C   0  0  0  0  0  0  0  0  0  0  0  0
  -30.2248  -26.2808   16.5159 C   0  0  0  0  0  0  0  0  0  0  0  0
  -32.4739  -26.2238   15.4176 C   0  0  0  0  0  0  0  0  0  0  0  0
  -31.0460  -28.2602   15.2267 C   0  0  0  0  0  0  0  0  0  0  0  0
  -36.0571  -29.9844   19.5611 C   0  0  0  0  0  0  0  0  0  0  0  0
  -34.1032  -17.7051   23.2130 C   0  0  0  0  0  0  0  0  0  0  0  0
  -32.5026  -19.7454   24.5103 C   0  0  0  0  0  0  0  0  0  0  0  0
  -32.6837  -23.4073   23.5745 C   0  0  0  0  0  0  0  0  0  1  0  0
  -32.1560  -27.7272   17.4349 C   0  0  1  0  0  0  0  0  0  0  0  0
  -35.6147  -29.2624   17.2113 C   0  0  2  0  0  0  0  0  0  0  0  0
  -31.4728  -27.1203   16.1770 C   0  0  0  0  0  0  0  0  0  0  0  0
  -25.8565  -11.5053   20.4305 N   0  0  0  0  0  0  0  0  0  0  0  0
  -26.2487  -12.7609   20.1553 N   0  0  0  0  0  0  0  0  0  0  0  0
  -30.9825  -28.2036   19.5609 N   0  0  0  0  0  0  0  0  0  0  0  0
  -29.9765  -13.5534   20.3970 N   0  0  0  0  0  0  0  0  0  0  0  0
  -25.4928  -15.0049   20.0925 N   0  0  0  0  0  0  0  0  0  0  0  0
  -21.8466  -12.7150   21.4556 N   0  0  0  0  0  0  0  0  0  0  0  0
  -30.0655  -15.7554   21.2371 N   0  0  0  0  0  0  0  0  0  0  0  0
  -34.7609  -18.7301   22.4446 N   0  0  0  0  0  0  0  0  0  0  0  0
  -27.5193  -28.7903   20.1870 N   0  0  0  0  0  0  0  0  0  0  0  0
  -32.5789  -21.0237   23.8416 N   0  0  0  0  0  0  0  0  0  0  0  0
  -33.3249  -28.5495   17.1418 N   0  0  0  0  0  0  0  0  0  0  0  0
  -36.6256  -29.4810   18.2842 N   0  3  0  0  0  0  0  0  0  0  0  0
  -22.6500  -14.7993   20.9368 O   0  0  0  0  0  0  0  0  0  0  0  0
  -34.9908  -17.5102   20.4800 O   0  0  0  0  0  0  0  0  0  0  0  0
  -28.7812  -26.8351   20.1023 O   0  0  0  0  0  0  0  0  0  0  0  0
  -30.7175  -29.5935   17.7077 O   0  0  0  0  0  0  0  0  0  0  0  0
  -32.5641  -22.3622   25.7435 O   0  0  0  0  0  0  0  0  0  0  0  0
  -34.8243  -27.3237   18.4171 O   0  0  0  0  0  0  0  0  0  0  0  0
  -31.8803  -14.8358   20.1224 O   0  0  0  0  0  0  0  0  0  0  0  0
  -21.5224   -7.2111   22.2537 O   0  0  0  0  0  0  0  0  0  0  0  0
  -32.6878  -24.6379   24.2970 O   0  0  0  0  0  0  0  0  0  1  0  0
  -21.8831   -2.7047   19.0967 F   0  0  0  0  0  0  0  0  0  0  0  0
  -19.2884   -6.1797   20.9935 F   0  0  0  0  0  0  0  0  0  0  0  0
  -28.1304  -17.7190   22.4458 Cl  0  0  0  0  0  0  0  0  0  0  0  0
  1  2  1  0  0  0  0
  1  5  2  0  0  0  0
  2  6  2  0  0  0  0
  3  8  2  0  0  0  0
  3 16  1  0  0  0  0
  4  9  1  0  0  0  0
  4 16  2  0  0  0  0
  5 19  1  0  0  0  0
  6 21  1  0  0  0  0
  7 10  2  0  0  0  0
  7 20  1  0  0  0  0
  8 26  1  0  0  0  0
  9 26  2  0  0  0  0
 10 27  1  0  0  0  0
 11 12  2  0  0  0  0
 11 28  1  0  0  0  0
 12 29  1  0  0  0  0
 13 22  1  0  0  0  0
 13 27  2  0  0  0  0
 14 23  1  0  0  0  0
 14 25  2  0  0  0  0
 15 29  2  0  0  0  0
 15 30  1  0  0  0  0
 16 32  1  0  0  0  0
 17 24  1  0  0  0  0
 17 31  2  0  0  0  0
 17 35  1  0  0  0  0
 18 32  1  0  0  0  0
 18 33  2  0  0  0  0
 18 38  1  0  0  0  0
 19 21  2  0  0  0  0
 19 45  1  0  0  0  0
 20 22  2  0  0  0  0
 20 46  1  0  0  0  0
 21 54  1  0  0  0  0
 22 47  1  0  0  0  0
 23 24  2  0  0  0  0
 23 63  1  0  0  0  0
 24 64  1  0  0  0  0
 25 31  1  0  0  0  0
 25 75  1  0  0  0  0
 26 88  1  0  0  0  0
 27 89  1  0  0  0  0
 28 30  2  0  0  0  0
 28 88  1  0  0  0  0
 29 90  1  0  0  0  0
 30 91  1  0  0  0  0
 31 92  1  0  0  0  0
 32 69  2  0  0  0  0
 33 70  1  0  0  0  0
 33 73  1  0  0  0  0
 34 36  2  0  0  0  0
 35 37  2  0  0  0  0
 36 39  1  0  0  0  0
 37 57  1  0  0  0  0
 38 74  1  0  0  0  0
 38 81  2  0  0  0  0
 39 76  1  0  0  0  0
 39 82  2  0  0  0  0
 40 55  1  0  0  0  0
 40 77  1  0  0  0  0
 40 83  2  0  0  0  0
 41 66  1  0  0  0  0
 41 71  1  0  0  0  0
 41 84  2  0  0  0  0
 42 65  1  0  0  0  0
 42 78  1  0  0  0  0
 42 85  2  0  0  0  0
 43 67  1  0  0  0  0
 43 79  1  0  0  0  0
 43 86  2  0  0  0  0
 44 72  1  0  0  0  0
 44 75  1  0  0  0  0
 44 87  2  0  0  0  0
 45 48  1  0  0  0  0
 46 55  1  0  0  0  0
 47 71  1  0  0  0  0
 48 50  1  0  0  0  0
 49 51  1  0  0  0  0
 49 52  1  0  0  0  0
 50 54  1  0  0  0  0
 51 56  1  0  0  0  0
 52 72  1  0  0  0  0
 53 56  1  0  0  0  0
 53 72  1  0  0  0  0
 54 77  1  0  0  0  0
 55 71  1  0  0  0  0
 56 70  1  0  0  0  0
 58 67  1  0  0  0  0
 59 68  1  0  0  0  0
 60 68  1  0  0  0  0
 61 68  1  0  0  0  0
 62 80  1  0  0  0  0
 63 76  1  0  0  0  0
 64 78  1  0  0  0  0
 65 89  1  0  0  0  0
 66 68  1  0  0  0  0
 66 79  1  0  0  0  0
 67 80  1  0  0  0  0
 69 70  1  0  0  0  0
M  CHG  1  80   1
M  ISO  4  44 100  65 101  75 100  89 101
M  END
> <Batch ID>
0039

> <Smiles>
C=CC(=O)NCc1cc([100NH:0][100C:0](=O)N2CCCC(n3nc(-c4ccc(Oc5ccc(F)cc5F)cc4)c(C(N)=O)c3N)C2)c(Cl)c(C=CC)c1CNC(=O)[101CH2:1][101O:1]c1ccc2c(c1)CN(C(=O)C(NC(=O)C(C)NC)C(C)(C)C)C(C(=O)NC1CCCc3ccccc31)C2

> <Shape>
0.245

> <Color>
0.200

> <Negative vol penalty>
0.000

$$$$

  -OEChem-04042322043D

 87 95  0     1  0  0  0  0  0999 V2000
  -25.1657  -21.1364   20.5074 C   0  0  0  0  0  0  0  0  0  0  0  0
  -24.9504  -19.7693   20.3744 C   0  0  0  0  0  0  0  0  0  0  0  0
  -26.3119  -28.1383   18.8836 C   0  0  0  0  0  0  0  0  0  0  0  0
  -26.4597  -27.6387   21.2428 C   0  0  0  0  0  0  0  0  0  0  0  0
  -25.3107  -21.6952   21.7754 C   0  0  0  0  0  0  0  0  0  0  0  0
  -24.8681  -18.9625   21.5098 C   0  0  0  0  0  0  0  0  0  0  0  0
  -23.5827  -14.2635   20.8240 C   0  0  0  0  0  0  0  0  0  0  0  0
  -25.1981  -28.9429   19.1238 C   0  0  0  0  0  0  0  0  0  0  0  0
  -25.3460  -28.4433   21.4830 C   0  0  0  0  0  0  0  0  0  0  0  0
  -24.4360  -13.3255   20.2444 C   0  0  0  0  0  0  0  0  0  0  0  0
  -24.6737  -31.7430   21.7674 C   0  0  0  0  0  0  0  0  0  0  0  0
  -24.7347  -32.6265   22.8450 C   0  0  0  0  0  0  0  0  0  0  0  0
  -24.8860  -12.3965   22.4247 C   0  0  0  0  0  0  0  0  0  0  0  0
  -30.6335  -15.7857   20.2758 C   0  0  0  0  0  0  0  0  0  0  0  0
  -22.8227  -31.5392   23.8447 C   0  0  0  0  0  0  0  0  0  0  0  0
  -26.9427  -27.4861   19.9431 C   0  0  0  0  0  0  0  0  0  0  0  0
  -29.7725  -14.0293   18.8579 C   0  0  0  0  0  0  0  0  0  0  0  0
  -29.4439  -27.0502   19.6949 C   0  0  0  0  0  0  0  0  0  0  0  0
  -25.2424  -20.8922   22.9258 C   0  0  0  0  0  0  0  0  0  0  0  0
  -23.3828  -14.2819   22.2119 C   0  0  0  0  0  0  0  0  0  0  0  0
  -24.9879  -19.5114   22.7994 C   0  0  0  0  0  0  0  0  0  0  0  0
  -24.0277  -13.3340   23.0192 C   0  0  0  0  0  0  0  0  0  0  0  0
  -30.7959  -14.5498   19.6499 C   0  0  0  0  0  0  0  0  0  0  0  0
  -29.4476  -16.5011   20.1098 C   0  0  0  0  0  0  0  0  0  0  0  0
  -28.5866  -14.7447   18.6918 C   0  0  0  0  0  0  0  0  0  0  0  0
  -28.4242  -15.9806   19.3178 C   0  0  0  0  0  0  0  0  0  0  0  0
  -24.7151  -29.0954   20.4234 C   0  0  0  0  0  0  0  0  0  0  0  0
  -25.0901  -12.3937   21.0450 C   0  0  0  0  0  0  0  0  0  0  0  0
  -23.6872  -30.7576   21.7284 C   0  0  0  0  0  0  0  0  0  0  0  0
  -23.8092  -32.5246   23.8837 C   0  0  0  0  0  0  0  0  0  0  0  0
  -22.7617  -30.6557   22.7670 C   0  0  0  0  0  0  0  0  0  0  0  0
  -28.0929  -26.6544   19.6955 C   0  0  0  0  0  0  0  0  0  0  0  0
  -30.1384  -25.9003   19.4087 C   0  0  0  0  0  0  0  0  0  0  0  0
  -29.9496  -12.7096   18.1904 C   0  0  0  0  0  0  0  0  0  0  0  0
  -30.0195  -28.3418   19.9319 C   0  0  0  0  0  0  0  0  0  0  0  0
  -23.9242  -16.3902   24.5283 C   0  0  0  0  0  0  0  0  0  0  0  0
  -22.3583  -14.2082   26.3474 C   0  0  0  0  0  0  0  0  0  0  0  0
  -21.4046  -10.9628   26.8000 C   0  0  0  0  0  0  0  0  0  0  0  0
  -28.8431  -20.2052   20.2705 C   0  0  0  0  0  0  0  0  0  0  0  0
  -25.3984  -21.5504   24.2740 C   0  0  0  0  0  0  0  0  0  0  0  0
  -22.4384  -15.2830   22.8188 C   0  0  0  0  0  0  0  0  0  0  0  0
  -23.8312  -13.2986   24.5120 C   0  0  0  0  0  0  0  0  0  0  0  0
  -25.7386  -20.5603   25.3832 C   0  0  0  0  0  0  0  0  0  0  0  0
  -29.6910  -21.7315   17.1005 C   0  0  0  0  0  0  0  0  0  0  0  0
  -24.7805  -19.3794   25.3375 C   0  0  0  0  0  0  0  0  0  0  0  0
  -29.5020  -23.2161   17.4175 C   0  0  0  0  0  0  0  0  0  0  0  0
  -28.6379  -20.8782   17.8011 C   0  0  0  0  0  0  0  0  0  0  0  0
  -28.3888  -22.5468   19.5976 C   0  0  0  0  0  0  0  0  0  0  0  0
  -24.9252  -18.6094   24.0188 C   0  0  1  0  0  0  0  0  0  0  0  0
  -22.7081  -15.5382   24.2985 C   0  0  1  0  0  0  0  0  0  0  0  0
  -29.4367  -23.4607   18.9367 C   0  0  2  0  0  0  0  0  0  0  0  0
  -32.0773  -13.8070   19.8474 C   0  0  0  0  0  0  0  0  0  0  0  0
  -27.4861  -14.1893   17.8427 C   0  0  0  0  0  0  0  0  0  0  0  0
  -27.1532  -16.7500   19.1413 C   0  0  0  0  0  0  0  0  0  0  0  0
  -20.1652   -9.4786   28.3994 C   0  0  0  0  0  0  0  0  0  0  0  0
  -24.7499  -14.2562   28.2416 C   0  0  0  0  0  0  0  0  0  0  0  0
  -23.9043  -12.1271   29.2514 C   0  0  0  0  0  0  0  0  0  0  0  0
  -22.5218  -14.1997   29.3759 C   0  0  0  0  0  0  0  0  0  0  0  0
  -19.3971  -10.2354   24.7507 C   0  0  0  0  0  0  0  0  0  0  0  0
  -29.2988  -17.8222   20.7910 C   0  0  0  0  0  0  0  0  0  0  0  0
  -28.1770  -10.6481   20.3711 C   0  0  0  0  0  0  0  0  0  0  0  0
  -27.0169  -11.0191   21.2767 C   0  0  0  0  0  0  0  0  0  1  0  0
  -22.7669  -13.0043   27.1616 C   0  0  1  0  0  0  0  0  0  0  0  0
  -20.0633  -10.3473   27.1554 C   0  0  2  0  0  0  0  0  0  0  0  0
  -23.4912  -13.3985   28.4797 C   0  0  0  0  0  0  0  0  0  0  0  0
  -27.9363  -25.3546   19.4306 N   0  0  0  0  0  0  0  0  0  0  0  0
  -29.5596  -11.5776   18.8643 N   0  0  0  0  0  0  0  0  0  0  0  0
  -28.6078  -11.8370   19.6305 N   0  0  0  0  0  0  0  0  0  0  0  0
  -29.1979  -24.9238   19.2607 N   0  0  0  0  0  0  0  0  0  0  0  0
  -22.9029  -14.3020   25.0588 N   0  0  0  0  0  0  0  0  0  0  0  0
  -28.6403  -21.1451   19.2464 N   0  0  0  0  0  0  0  0  0  0  0  0
  -31.4558  -25.6394   19.2716 N   0  0  0  0  0  0  0  0  0  0  0  0
  -29.1619  -29.4143   20.2120 N   0  0  0  0  0  0  0  0  0  0  0  0
  -23.8639  -17.6315   23.9242 N   0  0  0  0  0  0  0  0  0  0  0  0
  -21.5562  -12.2145   27.3582 N   0  0  0  0  0  0  0  0  0  0  0  0
  -29.0677  -18.8988   19.8537 N   0  0  0  0  0  0  0  0  0  0  0  0
  -30.4907  -12.5909   17.0293 N   0  3  0  0  0  0  0  0  0  0  0  0
  -19.5668   -9.5031   26.0321 N   0  3  0  0  0  0  0  0  0  0  0  0
  -31.2567  -28.5424   19.8801 O   0  0  0  0  0  0  0  0  0  0  0  0
  -24.8482  -15.9542   25.2050 O   0  0  0  0  0  0  0  0  0  0  0  0
  -21.5789  -15.0311   26.8341 O   0  0  0  0  0  0  0  0  0  0  0  0
  -22.2365  -10.3889   26.1005 O   0  0  0  0  0  0  0  0  0  0  0  0
  -28.8305  -20.5086   21.4683 O   0  0  0  0  0  0  0  0  0  0  0  0
  -23.6285  -29.8807   20.6582 O   0  0  0  0  0  0  0  0  0  0  0  0
  -25.9240  -11.4776   20.4819 O   0  0  0  0  0  0  0  0  0  1  0  0
  -23.8688  -33.3721   24.9192 F   0  0  0  0  0  0  0  0  0  0  0  0
  -21.8124  -29.7103   22.7356 F   0  0  0  0  0  0  0  0  0  0  0  0
  1  2  1  0  0  0  0
  1  5  2  0  0  0  0
  2  6  2  0  0  0  0
  3  8  2  0  0  0  0
  3 16  1  0  0  0  0
  4  9  1  0  0  0  0
  4 16  2  0  0  0  0
  5 19  1  0  0  0  0
  6 21  1  0  0  0  0
  7 10  2  0  0  0  0
  7 20  1  0  0  0  0
  8 27  1  0  0  0  0
  9 27  2  0  0  0  0
 10 28  1  0  0  0  0
 11 12  2  0  0  0  0
 11 29  1  0  0  0  0
 12 30  1  0  0  0  0
 13 22  1  0  0  0  0
 13 28  2  0  0  0  0
 14 23  2  0  0  0  0
 14 24  1  0  0  0  0
 15 30  2  0  0  0  0
 15 31  1  0  0  0  0
 16 32  1  0  0  0  0
 17 23  1  0  0  0  0
 17 25  2  0  0  0  0
 17 34  1  0  0  0  0
 18 32  1  0  0  0  0
 18 33  2  0  0  0  0
 18 35  1  0  0  0  0
 19 21  2  0  0  0  0
 19 40  1  0  0  0  0
 20 22  2  0  0  0  0
 20 41  1  0  0  0  0
 21 49  1  0  0  0  0
 22 42  1  0  0  0  0
 23 52  1  0  0  0  0
 24 26  2  0  0  0  0
 24 60  1  0  0  0  0
 25 26  1  0  0  0  0
 25 53  1  0  0  0  0
 26 54  1  0  0  0  0
 27 84  1  0  0  0  0
 28 85  1  0  0  0  0
 29 31  2  0  0  0  0
 29 84  1  0  0  0  0
 30 86  1  0  0  0  0
 31 87  1  0  0  0  0
 32 66  2  0  0  0  0
 33 69  1  0  0  0  0
 33 72  1  0  0  0  0
 34 67  1  0  0  0  0
 34 77  2  0  0  0  0
 35 73  1  0  0  0  0
 35 79  2  0  0  0  0
 36 50  1  0  0  0  0
 36 74  1  0  0  0  0
 36 80  2  0  0  0  0
 37 63  1  0  0  0  0
 37 70  1  0  0  0  0
 37 81  2  0  0  0  0
 38 64  1  0  0  0  0
 38 75  1  0  0  0  0
 38 82  2  0  0  0  0
 39 71  1  0  0  0  0
 39 76  1  0  0  0  0
 39 83  2  0  0  0  0
 40 43  1  0  0  0  0
 41 50  1  0  0  0  0
 42 70  1  0  0  0  0
 43 45  1  0  0  0  0
 44 46  1  0  0  0  0
 44 47  1  0  0  0  0
 45 49  1  0  0  0  0
 46 51  1  0  0  0  0
 47 71  1  0  0  0  0
 48 51  1  0  0  0  0
 48 71  1  0  0  0  0
 49 74  1  0  0  0  0
 50 70  1  0  0  0  0
 51 69  1  0  0  0  0
 55 64  1  0  0  0  0
 56 65  1  0  0  0  0
 57 65  1  0  0  0  0
 58 65  1  0  0  0  0
 59 78  1  0  0  0  0
 60 76  1  0  0  0  0
 61 62  1  0  0  0  0
 61 68  1  0  0  0  0
 62 85  1  0  0  0  0
 63 65  1  0  0  0  0
 63 75  1  0  0  0  0
 64 78  1  0  0  0  0
 66 69  1  0  0  0  0
 67 68  2  0  0  0  0
M  CHG  2  77   1  78   1
M  ISO  4  39 100  62 101  76 100  85 101
M  END
> <Batch ID>
0039

> <Smiles>
CNC(C)C(=O)NC(C(=O)N1Cc2cc([101O:1][101CH2:1]CN=NC(=N)c3c(C)cc(C[100NH:0][100C:0](=O)N4CCCC(n5nc(-c6ccc(Oc7ccc(F)cc7F)cc6)c(C(N)=O)c5N)C4)c(C)c3C)ccc2CC1C(=O)NC1CCCc2ccccc21)C(C)(C)C

> <Shape>
0.237

> <Color>
0.051

> <Negative vol penalty>
0.000

$$$$

  -OEChem-04042322043D

 88 97  0     1  0  0  0  0  0999 V2000
  -28.1984  -32.7547   26.0978 C   0  0  0  0  0  0  0  0  0  0  0  0
  -28.3906  -31.4552   25.6399 C   0  0  0  0  0  0  0  0  0  0  0  0
  -23.0739   -9.6483   19.7508 C   0  0  0  0  0  0  0  0  0  0  0  0
  -24.6047   -9.0821   21.5322 C   0  0  0  0  0  0  0  0  0  0  0  0
  -26.9309  -33.3326   26.0402 C   0  0  0  0  0  0  0  0  0  0  0  0
  -27.3150  -30.7323   25.1251 C   0  0  0  0  0  0  0  0  0  0  0  0
  -28.4849  -28.2926   20.8444 C   0  0  0  0  0  0  0  0  0  0  0  0
  -25.0109  -18.8843   18.0846 C   0  0  0  0  0  0  0  0  0  0  0  0
  -25.6337  -17.6371   18.1327 C   0  0  0  0  0  0  0  0  0  0  0  0
  -22.0079   -9.1775   20.5172 C   0  0  0  0  0  0  0  0  0  0  0  0
  -23.5386   -8.6114   22.2987 C   0  0  0  0  0  0  0  0  0  0  0  0
  -29.2131  -27.1098   20.9643 C   0  0  0  0  0  0  0  0  0  0  0  0
  -21.2656   -6.9293   24.5821 C   0  0  0  0  0  0  0  0  0  0  0  0
  -21.4289   -5.7107   25.2407 C   0  0  0  0  0  0  0  0  0  0  0  0
  -27.1804  -25.8385   20.6975 C   0  0  0  0  0  0  0  0  0  0  0  0
  -27.4121  -18.5768   19.4711 C   0  0  0  0  0  0  0  0  0  0  0  0
  -21.7847   -4.6116   23.1187 C   0  0  0  0  0  0  0  0  0  0  0  0
  -24.3724   -9.6005   20.2582 C   0  0  0  0  0  0  0  0  0  0  0  0
  -25.8854   -9.6179   18.2044 C   0  0  0  0  0  0  0  0  0  0  0  0
  -25.8412  -32.6199   25.5155 C   0  0  0  0  0  0  0  0  0  0  0  0
  -27.0952  -28.2574   20.6607 C   0  0  0  0  0  0  0  0  0  0  0  0
  -26.0314  -31.3008   25.0616 C   0  0  0  0  0  0  0  0  0  0  0  0
  -26.4373  -27.0223   20.5729 C   0  0  0  0  0  0  0  0  0  0  0  0
  -25.5887  -19.9777   18.7297 C   0  0  0  0  0  0  0  0  0  0  0  0
  -26.7893  -19.8240   19.4230 C   0  0  0  0  0  0  0  0  0  0  0  0
  -26.8343  -17.4834   18.8260 C   0  0  0  0  0  0  0  0  0  0  0  0
  -22.2401   -8.6591   21.7911 C   0  0  0  0  0  0  0  0  0  0  0  0
  -28.5605  -25.8825   20.8937 C   0  0  0  0  0  0  0  0  0  0  0  0
  -21.3617   -6.9891   23.1918 C   0  0  0  0  0  0  0  0  0  0  0  0
  -21.6885   -4.5518   24.5090 C   0  0  0  0  0  0  0  0  0  0  0  0
  -21.6213   -5.8302   22.4601 C   0  0  0  0  0  0  0  0  0  0  0  0
  -25.4741  -10.0861   19.4668 C   0  0  0  0  0  0  0  0  0  0  0  0
  -26.9671  -10.4012   17.8834 C   0  0  0  0  0  0  0  0  0  0  0  0
  -29.3809  -22.3900   20.3713 C   0  0  0  0  0  0  0  0  0  0  0  0
  -30.0539  -22.0470   21.4853 C   0  0  0  0  0  0  0  0  0  0  0  0
  -25.3386   -8.5689   17.3944 C   0  0  0  0  0  0  0  0  0  0  0  0
  -24.5870  -29.2971   22.3135 C   0  0  0  0  0  0  0  0  0  0  0  0
  -22.9452  -28.3118   19.6952 C   0  0  0  0  0  0  0  0  0  0  0  0
  -23.0187  -25.4895   17.4488 C   0  0  0  0  0  0  0  0  0  0  0  0
  -28.6600  -15.8928   19.5210 C   0  0  0  0  0  0  0  0  0  0  0  0
  -24.4802  -33.2697   25.5174 C   0  0  0  0  0  0  0  0  0  0  0  0
  -26.3278  -29.5418   20.5064 C   0  0  0  0  0  0  0  0  0  0  0  0
  -24.9497  -26.9298   20.3564 C   0  0  0  0  0  0  0  0  0  0  0  0
  -23.4699  -32.5701   24.6118 C   0  0  0  0  0  0  0  0  0  0  0  0
  -30.2801  -23.5379   17.5759 C   0  0  0  0  0  0  0  0  0  0  0  0
  -30.5251  -12.8849   19.9098 C   0  0  0  0  0  0  0  0  0  0  0  0
  -30.1606  -22.0132   17.5929 C   0  0  0  0  0  0  0  0  0  0  0  0
  -23.5148  -31.0607   24.8279 C   0  0  0  0  0  0  0  0  0  0  0  0
  -30.3484  -24.2095   18.9455 C   0  0  0  0  0  0  0  0  0  0  0  0
  -29.4801  -11.7831   19.7194 C   0  0  0  0  0  0  0  0  0  0  0  0
  -29.9488  -14.0917   20.6481 C   0  0  0  0  0  0  0  0  0  0  0  0
  -27.6740  -13.5440   19.8768 C   0  0  0  0  0  0  0  0  0  0  0  0
  -28.8126  -21.5252   18.1187 C   0  0  0  0  0  0  0  0  0  0  0  0
  -24.8946  -30.4934   24.4734 C   0  0  1  0  0  0  0  0  0  0  0  0
  -29.2228  -23.8199   19.9061 C   0  0  2  0  0  0  0  0  0  1  0  0
  -24.8456  -29.3957   20.8367 C   0  0  1  0  0  0  0  0  0  0  0  0
  -28.1901  -12.3342   19.0807 C   0  0  2  0  0  0  0  0  0  0  0  0
  -24.9038  -21.3033   18.6635 C   0  0  0  0  0  0  0  0  0  0  0  0
  -30.2166  -20.6449   21.9536 C   0  0  0  0  0  0  0  0  0  0  0  0
  -22.3092  -25.2949   15.0496 C   0  0  0  0  0  0  0  0  0  0  0  0
  -20.2938  -27.3500   20.8591 C   0  0  0  0  0  0  0  0  0  0  0  0
  -20.1511  -25.6957   18.9853 C   0  0  0  0  0  0  0  0  0  0  0  0
  -20.1674  -28.1405   18.4899 C   0  0  0  0  0  0  0  0  0  0  0  0
  -25.6752  -24.4784   16.6243 C   0  0  0  0  0  0  0  0  0  0  0  0
  -27.4282  -20.9852   20.1260 C   0  0  0  0  0  0  0  0  0  0  0  0
  -22.2967  -27.0186   19.2640 C   0  0  1  0  0  0  0  0  0  0  0  0
  -23.4784  -25.4912   16.0020 C   0  0  2  0  0  0  0  0  0  0  0  0
  -20.7498  -27.0515   19.4169 C   0  0  0  0  0  0  0  0  0  0  0  0
  -26.2328  -11.0890   19.9170 N   0  0  0  0  0  0  0  0  0  0  0  0
  -27.1317  -11.2573   18.9323 N   0  0  0  0  0  0  0  0  0  0  0  0
  -24.2425  -28.2136   20.2178 N   0  0  0  0  0  0  0  0  0  0  0  0
  -28.7311  -14.5618   19.9838 N   0  0  0  0  0  0  0  0  0  0  0  0
  -27.7839  -10.4342   16.8091 N   0  0  0  0  0  0  0  0  0  0  0  0
  -25.8332   -7.2683   17.5622 N   0  0  0  0  0  0  0  0  0  0  0  0
  -27.4663  -16.2162   18.8768 N   0  0  0  0  0  0  0  0  0  0  0  0
  -25.0419  -30.3824   23.0380 N   0  0  0  0  0  0  0  0  0  0  0  0
  -22.7573  -26.7648   17.9032 N   0  0  0  0  0  0  0  0  0  0  0  0
  -28.8112  -21.2990   19.6123 N   0  3  2  0  0  0  0  0  0  0  0  0
  -24.4626  -24.3965   15.7699 N   0  3  0  0  0  0  0  0  0  0  0  0
  -24.4495   -8.7815   16.5354 O   0  0  0  0  0  0  0  0  0  0  0  0
  -24.0157  -28.3103   22.7623 O   0  0  0  0  0  0  0  0  0  0  0  0
  -22.3263  -29.3711   19.5662 O   0  0  0  0  0  0  0  0  0  0  0  0
  -22.8996  -24.4594   18.1086 O   0  0  0  0  0  0  0  0  0  0  0  0
  -29.6003  -16.6793   19.6599 O   0  0  0  0  0  0  0  0  0  0  0  0
  -21.2001   -8.1999   22.5394 O   0  0  0  0  0  0  0  0  0  0  0  0
  -29.2688  -24.7265   21.0111 O   0  0  0  0  0  0  0  0  0  1  0  0
  -21.8468   -3.3818   25.1418 F   0  0  0  0  0  0  0  0  0  0  0  0
  -21.7159   -5.8817   21.1244 F   0  0  0  0  0  0  0  0  0  0  0  0
  1  2  1  0  0  0  0
  1  5  2  0  0  0  0
  2  6  2  0  0  0  0
  3 10  2  0  0  0  0
  3 18  1  0  0  0  0
  4 11  1  0  0  0  0
  4 18  2  0  0  0  0
  5 20  1  0  0  0  0
  6 22  1  0  0  0  0
  7 12  2  0  0  0  0
  7 21  1  0  0  0  0
  8  9  2  0  0  0  0
  8 24  1  0  0  0  0
  9 26  1  0  0  0  0
 10 27  1  0  0  0  0
 11 27  2  0  0  0  0
 12 28  1  0  0  0  0
 13 14  2  0  0  0  0
 13 29  1  0  0  0  0
 14 30  1  0  0  0  0
 15 23  1  0  0  0  0
 15 28  2  0  0  0  0
 16 25  1  0  0  0  0
 16 26  2  0  0  0  0
 17 30  2  0  0  0  0
 17 31  1  0  0  0  0
 18 32  1  0  0  0  0
 19 32  1  0  0  0  0
 19 33  2  0  0  0  0
 19 36  1  0  0  0  0
 20 22  2  0  0  0  0
 20 41  1  0  0  0  0
 21 23  2  0  0  0  0
 21 42  1  0  0  0  0
 22 54  1  0  0  0  0
 23 43  1  0  0  0  0
 24 25  2  0  0  0  0
 24 58  1  0  0  0  0
 25 65  1  0  0  0  0
 26 75  1  0  0  0  0
 27 85  1  0  0  0  0
 28 86  1  0  0  0  0
 29 31  2  0  0  0  0
 29 85  1  0  0  0  0
 30 87  1  0  0  0  0
 31 88  1  0  0  0  0
 32 69  2  0  0  0  0
 33 70  1  0  0  0  0
 33 73  1  0  0  0  0
 34 35  2  0  0  0  0
 34 55  1  0  0  0  0
 34 78  1  0  0  0  0
 35 59  1  0  0  0  0
 36 74  1  0  0  0  0
 36 80  2  0  0  0  0
 37 56  1  0  0  0  0
 37 76  1  0  0  0  0
 37 81  2  0  0  0  0
 38 66  1  0  0  0  0
 38 71  1  0  0  0  0
 38 82  2  0  0  0  0
 39 67  1  0  0  0  0
 39 77  1  0  0  0  0
 39 83  2  0  0  0  0
 40 72  1  0  0  0  0
 40 75  1  0  0  0  0
 40 84  2  0  0  0  0
 41 44  1  0  0  0  0
 42 56  1  0  0  0  0
 43 71  1  0  0  0  0
 44 48  1  0  0  0  0
 45 47  1  0  0  0  0
 45 49  1  0  0  0  0
 46 50  1  0  0  0  0
 46 51  1  0  0  0  0
 47 53  1  0  0  0  0
 48 54  1  0  0  0  0
 49 55  1  0  0  0  0
 50 57  1  0  0  0  0
 51 72  1  0  0  0  0
 52 57  1  0  0  0  0
 52 72  1  0  0  0  0
 53 78  1  0  0  0  0
 54 76  1  0  0  0  0
 55 86  1  0  0  0  0
 56 71  1  0  0  0  0
 57 70  1  0  0  0  0
 60 67  1  0  0  0  0
 61 68  1  0  0  0  0
 62 68  1  0  0  0  0
 63 68  1  0  0  0  0
 64 79  1  0  0  0  0
 65 78  1  0  0  0  0
 66 68  1  0  0  0  0
 66 77  1  0  0  0  0
 67 79  1  0  0  0  0
 69 70  1  0  0  0  0
M  CHG  2  78   1  79   1
M  ISO  4  40 100  55 101  75 100  86 101
M  END
> <Batch ID>
0039

> <Smiles>
CC=C1N(Cc2cc([100NH:0][100C:0](=O)N3CCCC(n4nc(-c5ccc(Oc6ccc(F)cc6F)cc5)c(C(N)=O)c4N)C3)ccc2C)CCCC[101CH:1]1[101O:1]c1ccc2c(c1)CN(C(=O)C(NC(=O)C(C)NC)C(C)(C)C)C(C(=O)NC1CCCc3ccccc31)C2

> <Shape>
0.324

> <Color>
0.078

> <Negative vol penalty>
0.000

$$$$

  -OEChem-04042322043D

 85 93  0     1  0  0  0  0  0999 V2000
  -31.5181  -19.9742   20.3543 C   0  0  0  0  0  0  0  0  0  0  0  0
  -30.2493  -20.1173   20.9044 C   0  0  0  0  0  0  0  0  0  0  0  0
  -29.0524  -25.8593   17.9821 C   0  0  0  0  0  0  0  0  0  0  0  0
  -28.5675  -24.7316   20.0630 C   0  0  0  0  0  0  0  0  0  0  0  0
  -31.7874  -18.9059   19.5014 C   0  0  0  0  0  0  0  0  0  0  0  0
  -29.2529  -19.1856   20.6113 C   0  0  0  0  0  0  0  0  0  0  0  0
  -25.0144  -19.5967   23.0751 C   0  0  0  0  0  0  0  0  0  0  0  0
  -18.1169  -25.7407   22.1804 C   0  0  0  0  0  0  0  0  0  0  0  0
  -30.2976  -25.2327   17.9326 C   0  0  0  0  0  0  0  0  0  0  0  0
  -29.8127  -24.1050   20.0136 C   0  0  0  0  0  0  0  0  0  0  0  0
  -24.0992  -20.6206   22.8348 C   0  0  0  0  0  0  0  0  0  0  0  0
  -31.5268  -22.1966   17.0939 C   0  0  0  0  0  0  0  0  0  0  0  0
  -31.9275  -21.6458   15.8767 C   0  0  0  0  0  0  0  0  0  0  0  0
  -17.9284  -26.8346   21.3357 C   0  0  0  0  0  0  0  0  0  0  0  0
  -22.7011  -19.0771   21.6174 C   0  0  0  0  0  0  0  0  0  0  0  0
  -33.8575  -23.0991   15.8545 C   0  0  0  0  0  0  0  0  0  0  0  0
  -28.1873  -25.6088   19.0473 C   0  0  0  0  0  0  0  0  0  0  0  0
  -25.6892  -25.7836   18.5609 C   0  0  0  0  0  0  0  0  0  0  0  0
  -30.7897  -17.9681   19.1884 C   0  0  0  0  0  0  0  0  0  0  0  0
  -24.7848  -18.3056   22.5782 C   0  0  0  0  0  0  0  0  0  0  0  0
  -29.5118  -18.0871   19.7717 C   0  0  0  0  0  0  0  0  0  0  0  0
  -23.6137  -18.0379   21.8550 C   0  0  0  0  0  0  0  0  0  0  0  0
  -19.0113  -25.8293   23.2472 C   0  0  0  0  0  0  0  0  0  0  0  0
  -19.5288  -28.1055   22.6243 C   0  0  0  0  0  0  0  0  0  0  0  0
  -30.6777  -24.3556   18.9484 C   0  0  0  0  0  0  0  0  0  0  0  0
  -22.9438  -20.3616   22.1034 C   0  0  0  0  0  0  0  0  0  0  0  0
  -32.2914  -23.1986   17.6915 C   0  0  0  0  0  0  0  0  0  0  0  0
  -33.0929  -22.0971   15.2570 C   0  0  0  0  0  0  0  0  0  0  0  0
  -33.4567  -23.6498   17.0718 C   0  0  0  0  0  0  0  0  0  0  0  0
  -18.6343  -28.0170   21.5576 C   0  0  0  0  0  0  0  0  0  0  0  0
  -19.7173  -27.0117   23.4691 C   0  0  0  0  0  0  0  0  0  0  0  0
  -26.9011  -26.2562   19.0992 C   0  0  0  0  0  0  0  0  0  0  0  0
  -24.7716  -26.7561   18.8750 C   0  0  0  0  0  0  0  0  0  0  0  0
  -25.4172  -24.5736   17.8413 C   0  0  0  0  0  0  0  0  0  0  0  0
  -26.2920  -16.3842   20.5435 C   0  0  0  0  0  0  0  0  0  0  0  0
  -24.0363  -14.2541   21.4906 C   0  0  0  0  0  0  0  0  0  0  0  0
  -20.5442  -22.9430   22.9069 C   0  0  0  0  0  0  0  0  0  0  0  0
  -20.9342  -13.7119   22.8059 C   0  0  0  0  0  0  0  0  0  0  0  0
  -22.5426  -30.3499   22.5167 C   0  0  0  0  0  0  0  0  0  0  0  0
  -31.1379  -16.8267   18.2657 C   0  0  0  0  0  0  0  0  0  0  0  0
  -25.7687  -17.2058   22.8688 C   0  0  0  0  0  0  0  0  0  0  0  0
  -23.3105  -16.6642   21.3170 C   0  0  0  0  0  0  0  0  0  0  0  0
  -29.9090  -16.1504   17.6668 C   0  0  0  0  0  0  0  0  0  0  0  0
  -25.4198  -31.4231   20.7149 C   0  0  0  0  0  0  0  0  0  0  0  0
  -28.9086  -15.8231   18.7653 C   0  0  0  0  0  0  0  0  0  0  0  0
  -25.9648  -30.1351   20.0951 C   0  0  0  0  0  0  0  0  0  0  0  0
  -24.8407  -31.1787   22.1066 C   0  0  0  0  0  0  0  0  0  0  0  0
  -24.3709  -28.8228   21.5566 C   0  0  0  0  0  0  0  0  0  0  0  0
  -28.4036  -17.1032   19.4430 C   0  0  1  0  0  0  0  0  0  0  0  0
  -25.6838  -16.0504   21.8763 C   0  0  1  0  0  0  0  0  0  0  0  0
  -24.9149  -29.0083   20.1297 C   0  0  2  0  0  0  0  0  0  0  0  0
  -19.3526  -11.8648   23.4253 C   0  0  0  0  0  0  0  0  0  0  0  0
  -23.3675  -13.8414   18.5423 C   0  0  0  0  0  0  0  0  0  0  0  0
  -21.2218  -12.7639   19.2517 C   0  0  0  0  0  0  0  0  0  0  0  0
  -23.4028  -11.7461   19.9072 C   0  0  0  0  0  0  0  0  0  0  0  0
  -20.9207  -14.5212   25.6526 C   0  0  0  0  0  0  0  0  0  0  0  0
  -19.1812  -24.6263   24.1293 C   0  0  0  0  0  0  0  0  0  0  0  0
  -20.2847  -29.3783   22.8584 C   0  0  0  0  0  0  0  0  0  0  0  0
  -21.9525  -22.3912   22.8480 C   0  0  0  0  0  0  0  0  0  1  0  0
  -22.6491  -13.8866   21.0218 C   0  0  1  0  0  0  0  0  0  0  0  0
  -20.4567  -12.7898   23.9132 C   0  0  2  0  0  0  0  0  0  0  0  0
  -22.6667  -13.0860   19.6891 C   0  0  0  0  0  0  0  0  0  0  0  0
  -26.7687  -27.4372   19.7089 N   0  0  0  0  0  0  0  0  0  0  0  0
  -25.4628  -27.7149   19.5556 N   0  0  0  0  0  0  0  0  0  0  0  0
  -24.3063  -15.6237   21.6222 N   0  0  0  0  0  0  0  0  0  0  0  0
  -23.8506  -30.0997   22.0700 N   0  0  0  0  0  0  0  0  0  0  0  0
  -23.4490  -26.8761   18.6327 N   0  0  0  0  0  0  0  0  0  0  0  0
  -26.4747  -23.6847   17.6051 N   0  0  0  0  0  0  0  0  0  0  0  0
  -27.6244  -16.7448   20.6076 N   0  0  0  0  0  0  0  0  0  0  0  0
  -20.4223  -23.9348   23.8674 N   0  0  0  0  0  0  0  0  0  0  0  0
  -22.0156  -13.1843   22.1325 N   0  0  0  0  0  0  0  0  0  0  0  0
  -21.6655  -29.2748   22.4420 N   0  0  0  0  0  0  0  0  0  0  0  0
  -19.9317  -13.5848   25.0591 N   0  3  0  0  0  0  0  0  0  0  0  0
  -24.2738  -24.2970   17.4060 O   0  0  0  0  0  0  0  0  0  0  0  0
  -25.6038  -16.3180   19.5317 O   0  0  0  0  0  0  0  0  0  0  0  0
  -24.8480  -13.3589   21.7379 O   0  0  0  0  0  0  0  0  0  0  0  0
  -19.6412  -22.5387   22.1794 O   0  0  0  0  0  0  0  0  0  0  0  0
  -20.3989  -14.7907   22.5603 O   0  0  0  0  0  0  0  0  0  0  0  0
  -22.1817  -31.4514   22.9449 O   0  0  0  0  0  0  0  0  0  0  0  0
  -31.8926  -23.7438   18.9004 O   0  0  0  0  0  0  0  0  0  0  0  0
  -22.0491  -21.3594   21.8669 O   0  0  0  0  0  0  0  0  0  1  0  0
  -33.4784  -21.5670   14.0888 F   0  0  0  0  0  0  0  0  0  0  0  0
  -34.1960  -24.6114   17.6416 F   0  0  0  0  0  0  0  0  0  0  0  0
  -18.3697  -29.3459   20.4868 Cl  0  0  0  0  0  0  0  0  0  0  0  0
  -20.8270  -27.1150   24.7958 Cl  0  0  0  0  0  0  0  0  0  0  0  0
  1  2  1  0  0  0  0
  1  5  2  0  0  0  0
  2  6  2  0  0  0  0
  3  9  2  0  0  0  0
  3 17  1  0  0  0  0
  4 10  1  0  0  0  0
  4 17  2  0  0  0  0
  5 19  1  0  0  0  0
  6 21  1  0  0  0  0
  7 11  2  0  0  0  0
  7 20  1  0  0  0  0
  8 14  2  0  0  0  0
  8 23  1  0  0  0  0
  9 25  1  0  0  0  0
 10 25  2  0  0  0  0
 11 26  1  0  0  0  0
 12 13  2  0  0  0  0
 12 27  1  0  0  0  0
 13 28  1  0  0  0  0
 14 30  1  0  0  0  0
 15 22  1  0  0  0  0
 15 26  2  0  0  0  0
 16 28  2  0  0  0  0
 16 29  1  0  0  0  0
 17 32  1  0  0  0  0
 18 32  1  0  0  0  0
 18 33  2  0  0  0  0
 18 34  1  0  0  0  0
 19 21  2  0  0  0  0
 19 40  1  0  0  0  0
 20 22  2  0  0  0  0
 20 41  1  0  0  0  0
 21 49  1  0  0  0  0
 22 42  1  0  0  0  0
 23 31  2  0  0  0  0
 23 57  1  0  0  0  0
 24 30  2  0  0  0  0
 24 31  1  0  0  0  0
 24 58  1  0  0  0  0
 25 80  1  0  0  0  0
 26 81  1  0  0  0  0
 27 29  2  0  0  0  0
 27 80  1  0  0  0  0
 28 82  1  0  0  0  0
 29 83  1  0  0  0  0
 30 84  1  0  0  0  0
 31 85  1  0  0  0  0
 32 63  2  0  0  0  0
 33 64  1  0  0  0  0
 33 67  1  0  0  0  0
 34 68  1  0  0  0  0
 34 74  2  0  0  0  0
 35 50  1  0  0  0  0
 35 69  1  0  0  0  0
 35 75  2  0  0  0  0
 36 60  1  0  0  0  0
 36 65  1  0  0  0  0
 36 76  2  0  0  0  0
 37 59  1  0  0  0  0
 37 70  1  0  0  0  0
 37 77  2  0  0  0  0
 38 61  1  0  0  0  0
 38 71  1  0  0  0  0
 38 78  2  0  0  0  0
 39 66  1  0  0  0  0
 39 72  1  0  0  0  0
 39 79  2  0  0  0  0
 40 43  1  0  0  0  0
 41 50  1  0  0  0  0
 42 65  1  0  0  0  0
 43 45  1  0  0  0  0
 44 46  1  0  0  0  0
 44 47  1  0  0  0  0
 45 49  1  0  0  0  0
 46 51  1  0  0  0  0
 47 66  1  0  0  0  0
 48 51  1  0  0  0  0
 48 66  1  0  0  0  0
 49 69  1  0  0  0  0
 50 65  1  0  0  0  0
 51 64  1  0  0  0  0
 52 61  1  0  0  0  0
 53 62  1  0  0  0  0
 54 62  1  0  0  0  0
 55 62  1  0  0  0  0
 56 73  1  0  0  0  0
 57 70  1  0  0  0  0
 58 72  1  0  0  0  0
 59 81  1  0  0  0  0
 60 62  1  0  0  0  0
 60 71  1  0  0  0  0
 61 73  1  0  0  0  0
 63 64  1  0  0  0  0
M  CHG  1  73   1
M  ISO  4  39 100  59 101  72 100  81 101
M  END
> <Batch ID>
0039

> <Smiles>
CNC(C)C(=O)NC(C(=O)N1Cc2cc([101O:1][101CH2:1]C(=O)NCc3ccc(Cl)c(C[100NH:0][100C:0](=O)N4CCCC(n5nc(-c6ccc(Oc7ccc(F)cc7F)cc6)c(C(N)=O)c5N)C4)c3Cl)ccc2CC1C(=O)NC1CCCc2ccccc21)C(C)(C)C

> <Shape>
0.213

> <Color>
0.066

> <Negative vol penalty>
0.000

$$$$

  -OEChem-04042322043D

 93102  0     1  0  0  0  0  0999 V2000
  -21.4322  -30.4370   22.9075 C   0  0  0  0  0  0  0  0  0  0  0  0
  -21.2152  -29.2364   22.2390 C   0  0  0  0  0  0  0  0  0  0  0  0
  -18.6302  -17.4415   24.7253 C   0  0  0  0  0  0  0  0  0  0  0  0
  -20.7612  -18.4182   24.1406 C   0  0  0  0  0  0  0  0  0  0  0  0
  -22.5914  -31.1713   22.6608 C   0  0  0  0  0  0  0  0  0  0  0  0
  -22.1569  -28.7699   21.3225 C   0  0  0  0  0  0  0  0  0  0  0  0
  -25.3053  -22.3484   22.1840 C   0  0  0  0  0  0  0  0  0  0  0  0
  -18.4951  -18.3595   25.7667 C   0  0  0  0  0  0  0  0  0  0  0  0
  -20.6261  -19.3363   25.1820 C   0  0  0  0  0  0  0  0  0  0  0  0
  -25.7954  -21.0424   22.1654 C   0  0  0  0  0  0  0  0  0  0  0  0
  -18.9581  -22.2182   25.7590 C   0  0  0  0  0  0  0  0  0  0  0  0
  -19.2624  -23.5523   25.4884 C   0  0  0  0  0  0  0  0  0  0  0  0
  -27.1061  -21.5510   20.1978 C   0  0  0  0  0  0  0  0  0  0  0  0
  -28.0850  -13.8657   19.6531 C   0  0  0  0  0  0  0  0  0  0  0  0
  -20.9791  -23.5054   27.1878 C   0  0  0  0  0  0  0  0  0  0  0  0
  -19.7633  -17.4708   23.9123 C   0  0  0  0  0  0  0  0  0  0  0  0
  -19.0435  -16.3525   21.7353 C   0  0  0  0  0  0  0  0  0  0  0  0
  -23.5524  -30.7088   21.7480 C   0  0  0  0  0  0  0  0  0  0  0  0
  -25.7262  -23.2661   21.2175 C   0  0  0  0  0  0  0  0  0  0  0  0
  -23.3295  -29.4994   21.0624 C   0  0  0  0  0  0  0  0  0  0  0  0
  -26.6282  -22.8640   20.2188 C   0  0  0  0  0  0  0  0  0  0  0  0
  -29.3693  -13.9519   19.1157 C   0  0  0  0  0  0  0  0  0  0  0  0
  -30.0725  -12.7895   18.7996 C   0  0  0  0  0  0  0  0  0  0  0  0
  -29.4914  -11.5408   19.0208 C   0  0  0  0  0  0  0  0  0  0  0  0
  -28.2071  -11.4546   19.5582 C   0  0  0  0  0  0  0  0  0  0  0  0
  -27.5039  -12.6170   19.8743 C   0  0  0  0  0  0  0  0  0  0  0  0
  -19.4930  -19.3069   25.9951 C   0  0  0  0  0  0  0  0  0  0  0  0
  -26.6934  -20.6447   21.1745 C   0  0  0  0  0  0  0  0  0  0  0  0
  -19.6642  -21.5277   26.7441 C   0  0  0  0  0  0  0  0  0  0  0  0
  -20.2729  -24.1959   26.2028 C   0  0  0  0  0  0  0  0  0  0  0  0
  -20.6747  -22.1713   27.4584 C   0  0  0  0  0  0  0  0  0  0  0  0
  -19.9037  -16.5223   22.8367 C   0  0  0  0  0  0  0  0  0  0  0  0
  -19.6120  -15.3345   21.0094 C   0  0  0  0  0  0  0  0  0  0  0  0
  -29.9437  -17.4506   21.2778 C   0  0  0  0  0  0  0  0  0  0  0  0
  -30.4114  -16.0750   21.1499 C   0  0  0  0  0  0  0  0  0  0  0  0
  -28.7532  -17.7757   21.8059 C   0  0  0  0  0  0  0  0  0  0  0  0
  -30.3426  -15.1679   22.1384 C   0  0  0  0  0  0  0  0  0  0  0  0
  -17.8384  -17.0525   21.3985 C   0  0  0  0  0  0  0  0  0  0  0  0
  -28.3491  -19.1952   21.9016 C   0  0  0  0  0  0  0  0  0  1  0  0
  -25.5263  -26.7695   19.8901 C   0  0  0  0  0  0  0  0  0  0  0  0
  -28.4639  -25.9079   19.6925 C   0  0  0  0  0  0  0  0  0  0  0  0
  -31.3466  -24.9497   20.5137 C   0  0  0  0  0  0  0  0  0  0  0  0
  -25.3705  -13.6182   20.7857 C   0  0  0  0  0  0  0  0  0  0  0  0
  -24.7676  -31.5607   21.4793 C   0  0  0  0  0  0  0  0  0  0  0  0
  -25.1771  -24.6658   21.1627 C   0  0  0  0  0  0  0  0  0  0  0  0
  -27.0264  -23.8756   19.1790 C   0  0  0  0  0  0  0  0  0  0  0  0
  -30.8794  -18.4938   20.7268 C   0  0  0  0  0  0  0  0  0  0  0  0
  -25.8928  -30.8106   20.7712 C   0  0  0  0  0  0  0  0  0  0  0  0
  -31.4448  -18.0780   19.3708 C   0  0  0  0  0  0  0  0  0  0  0  0
  -22.4618  -11.6578   22.3417 C   0  0  0  0  0  0  0  0  0  0  0  0
  -25.3421  -30.0042   19.5994 C   0  0  0  0  0  0  0  0  0  0  0  0
  -21.2917  -12.5044   21.8462 C   0  0  0  0  0  0  0  0  0  0  0  0
  -23.7003  -11.8170   21.4688 C   0  0  0  0  0  0  0  0  0  0  0  0
  -23.1606  -14.2441   21.7402 C   0  0  0  0  0  0  0  0  0  0  0  0
  -32.0385  -16.6750   19.4272 C   0  0  0  0  0  0  0  0  0  0  0  0
  -24.3393  -28.9480   20.0794 C   0  0  1  0  0  0  0  0  0  0  0  0
  -26.2127  -25.7022   20.6908 C   0  0  1  0  0  0  0  0  0  0  0  0
  -21.7272  -13.8857   21.3180 C   0  0  2  0  0  0  0  0  0  0  0  0
  -31.4504  -12.8855   18.2245 C   0  0  0  0  0  0  0  0  0  0  0  0
  -30.2464  -10.2942   18.6815 C   0  0  0  0  0  0  0  0  0  0  0  0
  -30.8194  -13.7636   22.0094 C   0  0  0  0  0  0  0  0  0  0  0  0
  -27.6180   -9.7181   21.2682 C   0  0  0  0  0  0  0  0  0  0  0  0
  -33.7817  -24.4992   20.9195 C   0  0  0  0  0  0  0  0  0  0  0  0
  -28.0754  -25.3410   16.7207 C   0  0  0  0  0  0  0  0  0  0  0  0
  -30.5541  -25.0474   16.5253 C   0  0  0  0  0  0  0  0  0  0  0  0
  -29.6121  -27.2480   17.2272 C   0  0  0  0  0  0  0  0  0  0  0  0
  -31.5069  -27.0474   22.5953 C   0  0  0  0  0  0  0  0  0  0  0  0
  -27.5863  -10.1135   19.7962 C   0  0  0  0  0  0  0  0  0  0  0  0
  -29.9729  -15.3069   18.8911 C   0  0  0  0  0  0  0  0  0  0  0  0
  -29.5497  -25.3019   18.8399 C   0  0  1  0  0  0  0  0  0  0  0  0
  -32.6673  -25.5319   20.9841 C   0  0  2  0  0  0  0  0  0  0  0  0
  -29.4328  -25.7188   17.3466 C   0  0  0  0  0  0  0  0  0  0  0  0
  -20.9397  -15.6796   22.8165 N   0  0  0  0  0  0  0  0  0  0  0  0
  -20.7342  -14.9704   21.6937 N   0  0  0  0  0  0  0  0  0  0  0  0
  -27.2749  -25.1787   19.8152 N   0  0  0  0  0  0  0  0  0  0  0  0
  -24.1148  -13.2179   21.3046 N   0  0  0  0  0  0  0  0  0  0  0  0
  -19.2563  -14.7242   19.8590 N   0  0  0  0  0  0  0  0  0  0  0  0
  -16.6200  -16.5558   21.8813 N   0  0  0  0  0  0  0  0  0  0  0  0
  -26.1976  -12.5527   20.4204 N   0  0  0  0  0  0  0  0  0  0  0  0
  -25.0341  -27.8137   20.6495 N   0  0  0  0  0  0  0  0  0  0  0  0
  -30.8145  -25.6714   19.4662 N   0  0  0  0  0  0  0  0  0  0  0  0
  -31.0262  -15.6599   19.9085 N   0  3  2  0  0  0  0  0  0  0  0  0
  -32.5508  -26.0103   22.3907 N   0  3  0  0  0  0  0  0  0  0  0  0
  -17.8403  -18.0784   20.6767 O   0  0  0  0  0  0  0  0  0  0  0  0
  -28.9479  -20.0603   22.5218 O   0  0  0  0  0  0  0  0  0  0  0  0
  -25.4495  -26.6558   18.6723 O   0  0  0  0  0  0  0  0  0  0  0  0
  -28.6596  -27.0008   20.2317 O   0  0  0  0  0  0  0  0  0  0  0  0
  -30.8397  -23.9521   21.0220 O   0  0  0  0  0  0  0  0  0  0  0  0
  -25.6730  -14.8074   20.6668 O   0  0  0  0  0  0  0  0  0  0  0  0
  -19.3614  -20.2031   27.0110 O   0  0  0  0  0  0  0  0  0  0  0  0
  -27.1714  -19.3694   21.1648 O   0  0  0  0  0  0  0  0  0  1  0  0
  -20.5661  -25.4765   25.9417 F   0  0  0  0  0  0  0  0  0  0  0  0
  -21.3573  -21.5128   28.4051 F   0  0  0  0  0  0  0  0  0  0  0  0
  1  2  1  0  0  0  0
  1  5  2  0  0  0  0
  2  6  2  0  0  0  0
  3  8  2  0  0  0  0
  3 16  1  0  0  0  0
  4  9  1  0  0  0  0
  4 16  2  0  0  0  0
  5 18  1  0  0  0  0
  6 20  1  0  0  0  0
  7 10  2  0  0  0  0
  7 19  1  0  0  0  0
  8 27  1  0  0  0  0
  9 27  2  0  0  0  0
 10 28  1  0  0  0  0
 11 12  2  0  0  0  0
 11 29  1  0  0  0  0
 12 30  1  0  0  0  0
 13 21  1  0  0  0  0
 13 28  2  0  0  0  0
 14 22  1  0  0  0  0
 14 26  2  0  0  0  0
 15 30  2  0  0  0  0
 15 31  1  0  0  0  0
 16 32  1  0  0  0  0
 17 32  1  0  0  0  0
 17 33  2  0  0  0  0
 17 38  1  0  0  0  0
 18 20  2  0  0  0  0
 18 44  1  0  0  0  0
 19 21  2  0  0  0  0
 19 45  1  0  0  0  0
 20 56  1  0  0  0  0
 21 46  1  0  0  0  0
 22 23  2  0  0  0  0
 22 69  1  0  0  0  0
 23 24  1  0  0  0  0
 23 59  1  0  0  0  0
 24 25  2  0  0  0  0
 24 60  1  0  0  0  0
 25 26  1  0  0  0  0
 25 68  1  0  0  0  0
 26 79  1  0  0  0  0
 27 90  1  0  0  0  0
 28 91  1  0  0  0  0
 29 31  2  0  0  0  0
 29 90  1  0  0  0  0
 30 92  1  0  0  0  0
 31 93  1  0  0  0  0
 32 73  2  0  0  0  0
 33 74  1  0  0  0  0
 33 77  1  0  0  0  0
 34 35  1  0  0  0  0
 34 36  2  0  0  0  0
 34 47  1  0  0  0  0
 35 37  2  0  0  0  0
 35 82  1  0  0  0  0
 36 39  1  0  0  0  0
 37 61  1  0  0  0  0
 38 78  1  0  0  0  0
 38 84  2  0  0  0  0
 39 85  2  0  0  0  0
 39 91  1  0  0  0  0
 40 57  1  0  0  0  0
 40 80  1  0  0  0  0
 40 86  2  0  0  0  0
 41 70  1  0  0  0  0
 41 75  1  0  0  0  0
 41 87  2  0  0  0  0
 42 71  1  0  0  0  0
 42 81  1  0  0  0  0
 42 88  2  0  0  0  0
 43 76  1  0  0  0  0
 43 79  1  0  0  0  0
 43 89  2  0  0  0  0
 44 48  1  0  0  0  0
 45 57  1  0  0  0  0
 46 75  1  0  0  0  0
 47 49  1  0  0  0  0
 48 51  1  0  0  0  0
 49 55  1  0  0  0  0
 50 52  1  0  0  0  0
 50 53  1  0  0  0  0
 51 56  1  0  0  0  0
 52 58  1  0  0  0  0
 53 76  1  0  0  0  0
 54 58  1  0  0  0  0
 54 76  1  0  0  0  0
 55 82  1  0  0  0  0
 56 80  1  0  0  0  0
 57 75  1  0  0  0  0
 58 74  1  0  0  0  0
 62 68  1  0  0  0  0
 63 71  1  0  0  0  0
 64 72  1  0  0  0  0
 65 72  1  0  0  0  0
 66 72  1  0  0  0  0
 67 83  1  0  0  0  0
 69 82  1  0  0  0  0
 70 72  1  0  0  0  0
 70 81  1  0  0  0  0
 71 83  1  0  0  0  0
 73 74  1  0  0  0  0
M  CHG  2  82   1  83   1
M  ISO  4  39 101  43 100  79 100  91 101
M  END
> <Batch ID>
0039

> <Smiles>
CC=C1C(=C[101C:1](=O)[101O:1]c2ccc3c(c2)CN(C(=O)C(NC(=O)C(C)NC)C(C)(C)C)C(C(=O)NC2CCCc4ccccc42)C3)CCCN1Cc1cc([100NH:0][100C:0](=O)N2CCCC(n3nc(-c4ccc(Oc5ccc(F)cc5F)cc4)c(C(N)=O)c3N)C2)c(CC)c(C)c1C

> <Shape>
0.242

> <Color>
0.061

> <Negative vol penalty>
0.000

$$$$

  -OEChem-04042322043D

 90 99  0     1  0  0  0  0  0999 V2000
  -21.7921   -8.4634   21.1355 C   0  0  0  0  0  0  0  0  0  0  0  0
  -21.6389   -9.8152   21.4266 C   0  0  0  0  0  0  0  0  0  0  0  0
  -21.6142  -30.1367   21.4753 C   0  0  0  0  0  0  0  0  0  0  0  0
  -22.5049  -27.8922   21.4004 C   0  0  0  0  0  0  0  0  0  0  0  0
  -23.0685   -7.9070   21.0651 C   0  0  0  0  0  0  0  0  0  0  0  0
  -22.7621  -10.6111   21.6485 C   0  0  0  0  0  0  0  0  0  0  0  0
  -23.4560  -16.5042   20.1331 C   0  0  0  0  0  0  0  0  0  0  0  0
  -30.8867  -25.0919   21.5229 C   0  0  0  0  0  0  0  0  0  0  0  0
  -20.3184  -29.6216   21.5057 C   0  0  0  0  0  0  0  0  0  0  0  0
  -21.2091  -27.3769   21.4309 C   0  0  0  0  0  0  0  0  0  0  0  0
  -23.3287  -17.6826   20.8671 C   0  0  0  0  0  0  0  0  0  0  0  0
  -16.7876  -28.8899   21.9674 C   0  0  0  0  0  0  0  0  0  0  0  0
  -15.8905  -29.4446   22.8801 C   0  0  0  0  0  0  0  0  0  0  0  0
  -30.6652  -24.2711   22.6288 C   0  0  0  0  0  0  0  0  0  0  0  0
  -25.7095  -17.6905   21.2558 C   0  0  0  0  0  0  0  0  0  0  0  0
  -17.3410  -28.7959   24.7001 C   0  0  0  0  0  0  0  0  0  0  0  0
  -22.7075  -29.2721   21.4226 C   0  0  0  0  0  0  0  0  0  0  0  0
  -24.6608  -30.6188   22.3599 C   0  0  0  0  0  0  0  0  0  0  0  0
  -24.2084   -8.6986   21.2768 C   0  0  0  0  0  0  0  0  0  0  0  0
  -24.7116  -15.9031   19.9639 C   0  0  0  0  0  0  0  0  0  0  0  0
  -24.0550  -10.0645   21.5822 C   0  0  0  0  0  0  0  0  0  0  0  0
  -25.8503  -16.5058   20.5171 C   0  0  0  0  0  0  0  0  0  0  0  0
  -30.1185  -24.9309   20.3698 C   0  0  0  0  0  0  0  0  0  0  0  0
  -29.1289  -23.9490   20.3225 C   0  0  0  0  0  0  0  0  0  0  0  0
  -28.9073  -23.1282   21.4284 C   0  0  0  0  0  0  0  0  0  0  0  0
  -20.1158  -28.2417   21.4836 C   0  0  0  0  0  0  0  0  0  0  0  0
  -24.4552  -18.2745   21.4310 C   0  0  0  0  0  0  0  0  0  0  0  0
  -17.9614  -28.2881   22.4210 C   0  0  0  0  0  0  0  0  0  0  0  0
  -16.1672  -29.3976   24.2464 C   0  0  0  0  0  0  0  0  0  0  0  0
  -18.2381  -28.2411   23.7873 C   0  0  0  0  0  0  0  0  0  0  0  0
  -29.6755  -23.2893   22.5815 C   0  0  0  0  0  0  0  0  0  0  0  0
  -24.0464  -29.8037   21.3905 C   0  0  0  0  0  0  0  0  0  0  0  0
  -25.9212  -30.8497   21.8655 C   0  0  0  0  0  0  0  0  0  0  0  0
  -25.8432  -23.2863   22.0151 C   0  0  0  0  0  0  0  0  0  0  0  0
  -25.9450  -24.4813   22.6164 C   0  0  0  0  0  0  0  0  0  0  0  0
  -24.1389  -31.1222   23.5968 C   0  0  0  0  0  0  0  0  0  0  0  0
  -25.9888  -13.1086   20.7783 C   0  0  0  0  0  0  0  0  0  0  0  0
  -28.4938  -14.1826   19.0194 C   0  0  0  0  0  0  0  0  0  0  0  0
  -30.2527  -17.3009   18.5719 C   0  0  0  0  0  0  0  0  0  0  0  0
  -29.4314  -27.8239   18.0741 C   0  0  0  0  0  0  0  0  0  0  0  0
  -25.5657   -8.0422   21.2368 C   0  0  0  0  0  0  0  0  0  0  0  0
  -24.8357  -14.6463   19.1468 C   0  0  0  0  0  0  0  0  0  0  0  0
  -27.2238  -15.9114   20.3474 C   0  0  0  0  0  0  0  0  0  0  0  0
  -24.7896  -22.9721   20.9879 C   0  0  0  0  0  0  0  0  0  0  0  0
  -26.7190   -9.0349   21.1153 C   0  0  0  0  0  0  0  0  0  0  0  0
  -24.0644  -21.6816   21.3499 C   0  0  0  0  0  0  0  0  0  0  0  0
  -28.3211  -31.1903   17.7405 C   0  0  0  0  0  0  0  0  0  0  0  0
  -26.5377  -10.1868   22.0988 C   0  0  0  0  0  0  0  0  0  0  0  0
  -27.1551  -31.2902   18.7256 C   0  0  0  0  0  0  0  0  0  0  0  0
  -28.3724  -29.8224   17.0636 C   0  0  0  0  0  0  0  0  0  0  0  0
  -27.2212  -28.7737   18.9738 C   0  0  0  0  0  0  0  0  0  0  0  0
  -26.0341  -20.9880   22.7654 C   0  0  0  0  0  0  0  0  0  0  0  0
  -25.2500  -10.9658   21.8047 C   0  0  1  0  0  0  0  0  0  0  0  0
  -26.0918  -13.8439   19.4720 C   0  0  1  0  0  0  0  0  0  0  0  0
  -27.1613  -30.1160   19.7228 C   0  0  2  0  0  0  0  0  0  0  0  0
  -25.0518  -20.5616   21.6775 C   0  0  1  0  0  0  0  0  0  1  0  0
  -28.3068  -23.7796   19.0838 C   0  0  0  0  0  0  0  0  0  0  0  0
  -26.8393  -26.2452   24.1337 C   0  0  0  0  0  0  0  0  0  0  0  0
  -31.5487  -18.1759   16.6092 C   0  0  0  0  0  0  0  0  0  0  0  0
  -30.9103  -12.9951   20.4548 C   0  0  0  0  0  0  0  0  0  0  0  0
  -32.2400  -14.9824   19.7127 C   0  0  0  0  0  0  0  0  0  0  0  0
  -31.2580  -13.4377   18.0180 C   0  0  0  0  0  0  0  0  0  0  0  0
  -28.6282  -19.7719   18.4530 C   0  0  0  0  0  0  0  0  0  0  0  0
  -30.3758  -25.8246   19.2010 C   0  0  0  0  0  0  0  0  0  0  0  0
  -27.8399  -22.0759   21.3638 C   0  0  0  0  0  0  0  0  0  0  0  0
  -26.9852  -24.8142   23.6402 C   0  0  0  0  0  0  0  0  0  0  0  0
  -29.7363  -14.9893   19.3098 C   0  0  1  0  0  0  0  0  0  0  0  0
  -30.2185  -18.1957   17.3461 C   0  0  2  0  0  0  0  0  0  0  0  0
  -31.0123  -14.1045   19.3890 C   0  0  0  0  0  0  0  0  0  0  0  0
  -24.8502  -29.5349   20.3582 N   0  0  0  0  0  0  0  0  0  0  0  0
  -25.9827  -30.1850   20.6762 N   0  0  0  0  0  0  0  0  0  0  0  0
  -27.2926  -14.6787   19.5454 N   0  0  0  0  0  0  0  0  0  0  0  0
  -28.3777  -28.7527   18.0644 N   0  0  0  0  0  0  0  0  0  0  0  0
  -26.9719  -31.5545   22.3364 N   0  0  0  0  0  0  0  0  0  0  0  0
  -24.3082  -30.3528   24.7559 N   0  0  0  0  0  0  0  0  0  0  0  0
  -25.4392  -11.8453   20.6710 N   0  0  0  0  0  0  0  0  0  0  0  0
  -29.7940  -16.0314   18.2904 N   0  0  0  0  0  0  0  0  0  0  0  0
  -29.3626  -26.8464   19.0593 N   0  0  0  0  0  0  0  0  0  0  0  0
  -26.7724  -22.2547   22.4075 N   0  3  1  0  0  0  0  0  0  0  0  0
  -29.9200  -19.6018   17.7394 N   0  3  0  0  0  0  0  0  0  0  0  0
  -23.5256  -32.2142   23.6689 O   0  0  0  0  0  0  0  0  0  0  0  0
  -26.3805  -13.6470   21.8071 O   0  0  0  0  0  0  0  0  0  0  0  0
  -28.5847  -13.1541   18.3444 O   0  0  0  0  0  0  0  0  0  0  0  0
  -30.6502  -17.6882   19.6685 O   0  0  0  0  0  0  0  0  0  0  0  0
  -30.3671  -27.8662   17.2682 O   0  0  0  0  0  0  0  0  0  0  0  0
  -18.8515  -27.7386   21.5135 O   0  0  0  0  0  0  0  0  0  0  0  0
  -24.3337  -19.4244   22.1485 O   0  0  0  0  0  0  0  0  0  1  0  0
  -15.3063  -29.9317   25.1227 F   0  0  0  0  0  0  0  0  0  0  0  0
  -19.3647  -27.6654   24.2290 F   0  0  0  0  0  0  0  0  0  0  0  0
  -29.4327  -22.2940   23.9711 Cl  0  0  0  0  0  0  0  0  0  0  0  0
  1  2  1  0  0  0  0
  1  5  2  0  0  0  0
  2  6  2  0  0  0  0
  3  9  2  0  0  0  0
  3 17  1  0  0  0  0
  4 10  1  0  0  0  0
  4 17  2  0  0  0  0
  5 19  1  0  0  0  0
  6 21  1  0  0  0  0
  7 11  2  0  0  0  0
  7 20  1  0  0  0  0
  8 14  1  0  0  0  0
  8 23  2  0  0  0  0
  9 26  1  0  0  0  0
 10 26  2  0  0  0  0
 11 27  1  0  0  0  0
 12 13  2  0  0  0  0
 12 28  1  0  0  0  0
 13 29  1  0  0  0  0
 14 31  2  0  0  0  0
 15 22  1  0  0  0  0
 15 27  2  0  0  0  0
 16 29  2  0  0  0  0
 16 30  1  0  0  0  0
 17 32  1  0  0  0  0
 18 32  1  0  0  0  0
 18 33  2  0  0  0  0
 18 36  1  0  0  0  0
 19 21  2  0  0  0  0
 19 41  1  0  0  0  0
 20 22  2  0  0  0  0
 20 42  1  0  0  0  0
 21 53  1  0  0  0  0
 22 43  1  0  0  0  0
 23 24  1  0  0  0  0
 23 64  1  0  0  0  0
 24 25  2  0  0  0  0
 24 57  1  0  0  0  0
 25 31  1  0  0  0  0
 25 65  1  0  0  0  0
 26 86  1  0  0  0  0
 27 87  1  0  0  0  0
 28 30  2  0  0  0  0
 28 86  1  0  0  0  0
 29 88  1  0  0  0  0
 30 89  1  0  0  0  0
 31 90  1  0  0  0  0
 32 70  2  0  0  0  0
 33 71  1  0  0  0  0
 33 74  1  0  0  0  0
 34 35  2  0  0  0  0
 34 44  1  0  0  0  0
 34 79  1  0  0  0  0
 35 66  1  0  0  0  0
 36 75  1  0  0  0  0
 36 81  2  0  0  0  0
 37 54  1  0  0  0  0
 37 76  1  0  0  0  0
 37 82  2  0  0  0  0
 38 67  1  0  0  0  0
 38 72  1  0  0  0  0
 38 83  2  0  0  0  0
 39 68  1  0  0  0  0
 39 77  1  0  0  0  0
 39 84  2  0  0  0  0
 40 73  1  0  0  0  0
 40 78  1  0  0  0  0
 40 85  2  0  0  0  0
 41 45  1  0  0  0  0
 42 54  1  0  0  0  0
 43 72  1  0  0  0  0
 44 46  1  0  0  0  0
 45 48  1  0  0  0  0
 46 56  1  0  0  0  0
 47 49  1  0  0  0  0
 47 50  1  0  0  0  0
 48 53  1  0  0  0  0
 49 55  1  0  0  0  0
 50 73  1  0  0  0  0
 51 55  1  0  0  0  0
 51 73  1  0  0  0  0
 52 56  1  0  0  0  0
 52 79  1  0  0  0  0
 53 76  1  0  0  0  0
 54 72  1  0  0  0  0
 55 71  1  0  0  0  0
 56 87  1  0  0  0  0
 58 66  1  0  0  0  0
 59 68  1  0  0  0  0
 60 69  1  0  0  0  0
 61 69  1  0  0  0  0
 62 69  1  0  0  0  0
 63 80  1  0  0  0  0
 64 78  1  0  0  0  0
 65 79  1  0  0  0  0
 67 69  1  0  0  0  0
 67 77  1  0  0  0  0
 68 80  1  0  0  0  0
 70 71  1  0  0  0  0
M  CHG  2  79   1  80   1
M  ISO  4  40 100  56 101  78 100  87 101
M  END
> <Batch ID>
0039

> <Smiles>
CCC=C1CC[101CH:1]([101O:1]c2ccc3c(c2)CN(C(=O)C(NC(=O)C(C)NC)C(C)(C)C)C(C(=O)NC2CCCc4ccccc42)C3)CN1Cc1c(Cl)ccc(C[100NH:0][100C:0](=O)N2CCCC(n3nc(-c4ccc(Oc5ccc(F)cc5F)cc4)c(C(N)=O)c3N)C2)c1C

> <Shape>
0.278

> <Color>
0.073

> <Negative vol penalty>
0.000

$$$$

  -OEChem-04042322043D

 90 99  0     1  0  0  0  0  0999 V2000
  -30.3009  -10.9642   22.7262 C   0  0  0  0  0  0  0  0  0  0  0  0
  -29.8906  -12.1928   23.2340 C   0  0  0  0  0  0  0  0  0  0  0  0
  -26.5732  -27.8996   21.2437 C   0  0  0  0  0  0  0  0  0  0  0  0
  -26.0019  -27.9029   18.8962 C   0  0  0  0  0  0  0  0  0  0  0  0
  -30.0947  -10.6635   21.3805 C   0  0  0  0  0  0  0  0  0  0  0  0
  -29.2749  -13.1218   22.3960 C   0  0  0  0  0  0  0  0  0  0  0  0
  -25.1930  -15.2427   24.5136 C   0  0  0  0  0  0  0  0  0  0  0  0
  -25.4573  -28.6908   21.5164 C   0  0  0  0  0  0  0  0  0  0  0  0
  -24.8860  -28.6941   19.1689 C   0  0  0  0  0  0  0  0  0  0  0  0
  -25.4133  -16.2480   25.4541 C   0  0  0  0  0  0  0  0  0  0  0  0
  -22.1222  -28.2578   21.8663 C   0  0  0  0  0  0  0  0  0  0  0  0
  -21.3274  -27.9038   22.9564 C   0  0  0  0  0  0  0  0  0  0  0  0
  -24.9499  -17.9145   23.7727 C   0  0  0  0  0  0  0  0  0  0  0  0
  -28.7882  -19.6700   22.4993 C   0  0  0  0  0  0  0  0  0  0  0  0
  -29.8919  -18.3870   20.7750 C   0  0  0  0  0  0  0  0  0  0  0  0
  -21.7607  -30.0535   23.9704 C   0  0  0  0  0  0  0  0  0  0  0  0
  -26.8456  -27.5057   19.9335 C   0  0  0  0  0  0  0  0  0  0  0  0
  -29.3471  -27.0067   19.9002 C   0  0  0  0  0  0  0  0  0  0  0  0
  -29.4675  -11.5855   20.5278 C   0  0  0  0  0  0  0  0  0  0  0  0
  -24.8595  -15.5666   23.1906 C   0  0  0  0  0  0  0  0  0  0  0  0
  -29.0614  -12.8336   21.0373 C   0  0  0  0  0  0  0  0  0  0  0  0
  -24.7233  -16.9114   22.8179 C   0  0  0  0  0  0  0  0  0  0  0  0
  -29.3739  -18.8630   23.4746 C   0  0  0  0  0  0  0  0  0  0  0  0
  -30.4776  -17.5801   21.7504 C   0  0  0  0  0  0  0  0  0  0  0  0
  -30.2186  -17.8181   23.1002 C   0  0  0  0  0  0  0  0  0  0  0  0
  -29.0471  -19.4320   21.1494 C   0  0  0  0  0  0  0  0  0  0  0  0
  -24.6137  -29.0880   20.4790 C   0  0  0  0  0  0  0  0  0  0  0  0
  -25.2946  -17.5842   25.0831 C   0  0  0  0  0  0  0  0  0  0  0  0
  -22.7364  -29.5096   21.8282 C   0  0  0  0  0  0  0  0  0  0  0  0
  -21.1466  -28.8016   24.0085 C   0  0  0  0  0  0  0  0  0  0  0  0
  -22.5556  -30.4075   22.8802 C   0  0  0  0  0  0  0  0  0  0  0  0
  -27.9985  -26.6889   19.6511 C   0  0  0  0  0  0  0  0  0  0  0  0
  -30.0458  -25.9109   19.4558 C   0  0  0  0  0  0  0  0  0  0  0  0
  -28.1262  -20.7685   26.4532 C   0  0  0  0  0  0  0  0  0  0  0  0
  -26.8344  -20.4476   26.5868 C   0  0  0  0  0  0  0  0  0  0  0  0
  -29.9172  -28.1868   20.4814 C   0  0  0  0  0  0  0  0  0  0  0  0
  -26.2095  -15.0815   20.3540 C   0  0  0  0  0  0  0  0  0  0  0  0
  -23.4463  -16.3753   19.2527 C   0  0  0  0  0  0  0  0  0  0  0  0
  -20.7408  -18.3682   19.8488 C   0  0  0  0  0  0  0  0  0  0  0  0
  -28.6056  -20.1516   18.7760 C   0  0  0  0  0  0  0  0  0  0  0  0
  -29.3090  -11.2343   19.0696 C   0  0  0  0  0  0  0  0  0  0  0  0
  -24.5988  -14.4700   22.1946 C   0  0  0  0  0  0  0  0  0  0  0  0
  -24.3475  -17.3115   21.4153 C   0  0  0  0  0  0  0  0  0  0  0  0
  -28.9803  -21.4093   27.5024 C   0  0  0  0  0  0  0  0  0  0  0  0
  -28.3116  -12.1251   18.3335 C   0  0  0  0  0  0  0  0  0  0  0  0
  -30.3517  -21.3764   26.8456 C   0  0  0  0  0  0  0  0  0  0  0  0
  -29.8004  -22.3601   16.2517 C   0  0  0  0  0  0  0  0  0  0  0  0
  -28.5591  -13.5928   18.6672 C   0  0  0  0  0  0  0  0  0  0  0  0
  -29.6023  -23.7495   16.8621 C   0  0  0  0  0  0  0  0  0  0  0  0
  -28.6690  -21.4069   16.6323 C   0  0  0  0  0  0  0  0  0  0  0  0
  -28.2060  -22.6908   18.6832 C   0  0  0  0  0  0  0  0  0  0  0  0
  -30.0576  -21.4255   25.3545 C   0  0  0  0  0  0  0  0  0  0  0  0
  -28.3677  -13.8577   20.1654 C   0  0  1  0  0  0  0  0  0  0  0  0
  -24.7681  -14.9240   20.7480 C   0  0  1  0  0  0  0  0  0  0  0  0
  -29.3542  -23.6675   18.3811 C   0  0  2  0  0  0  0  0  0  0  0  0
  -30.8471  -16.9531   24.1463 C   0  0  0  0  0  0  0  0  0  0  0  0
  -18.6731  -19.2647   18.7450 C   0  0  0  0  0  0  0  0  0  0  0  0
  -32.8318  -16.9211   21.2188 C   0  0  0  0  0  0  0  0  0  0  0  0
  -25.1486  -18.3631   17.6840 C   0  0  0  0  0  0  0  0  0  0  0  0
  -23.1025  -19.7751   17.3878 C   0  0  0  0  0  0  0  0  0  0  0  0
  -23.1731  -17.4698   16.4375 C   0  0  0  0  0  0  0  0  0  0  0  0
  -18.9748  -17.0581   21.8298 C   0  0  0  0  0  0  0  0  0  0  0  0
  -29.0786  -19.1396   24.9194 C   0  0  0  0  0  0  0  0  0  0  0  0
  -26.0191  -19.8084   25.5122 C   0  0  0  0  0  0  0  0  0  1  0  0
  -22.9709  -17.7734   18.9393 C   0  0  1  0  0  0  0  0  0  0  0  0
  -19.2581  -18.1538   19.6031 C   0  0  2  0  0  0  0  0  0  0  0  0
  -31.3784  -16.4678   21.3230 C   0  0  0  0  0  0  0  0  0  0  0  0
  -23.6077  -18.3382   17.6382 C   0  0  0  0  0  0  0  0  0  0  0  0
  -27.8471  -25.4855   19.0917 N   0  0  0  0  0  0  0  0  0  0  0  0
  -29.1097  -25.0375   18.9855 N   0  0  0  0  0  0  0  0  0  0  0  0
  -24.1090  -16.2030   20.4762 N   0  0  0  0  0  0  0  0  0  0  0  0
  -28.4946  -21.3774   18.0861 N   0  0  0  0  0  0  0  0  0  0  0  0
  -31.3634  -25.6188   19.4253 N   0  0  0  0  0  0  0  0  0  0  0  0
  -30.2696  -29.2458   19.6337 N   0  0  0  0  0  0  0  0  0  0  0  0
  -28.4532  -20.2522   20.1584 N   0  0  0  0  0  0  0  0  0  0  0  0
  -26.9592  -13.9287   20.4902 N   0  0  0  0  0  0  0  0  0  0  0  0
  -21.5134  -17.7128   18.9136 N   0  0  0  0  0  0  0  0  0  0  0  0
  -28.7997  -20.5895   25.1961 N   0  3  1  0  0  0  0  0  0  0  0  0
  -18.5184  -18.1199   20.8964 N   0  3  0  0  0  0  0  0  0  0  0  0
  -30.1237  -28.2925   21.7142 O   0  0  0  0  0  0  0  0  0  0  0  0
  -26.6114  -16.1680   19.9546 O   0  0  0  0  0  0  0  0  0  0  0  0
  -23.2311  -15.4681   18.4451 O   0  0  0  0  0  0  0  0  0  0  0  0
  -21.1704  -19.0519   20.7754 O   0  0  0  0  0  0  0  0  0  0  0  0
  -28.8470  -19.0949   18.1868 O   0  0  0  0  0  0  0  0  0  0  0  0
  -23.5246  -29.8598   20.7448 O   0  0  0  0  0  0  0  0  0  0  0  0
  -25.5098  -18.5674   25.9990 O   0  0  0  0  0  0  0  0  0  1  0  0
  -20.3820  -28.4621   25.0546 F   0  0  0  0  0  0  0  0  0  0  0  0
  -23.1421  -31.6120   22.8487 F   0  0  0  0  0  0  0  0  0  0  0  0
  -31.0333  -15.9386   20.1063 F   0  0  0  0  0  0  0  0  0  0  0  0
  -31.3503  -15.3984   22.1803 F   0  0  0  0  0  0  0  0  0  0  0  0
  1  2  1  0  0  0  0
  1  5  2  0  0  0  0
  2  6  2  0  0  0  0
  3  8  2  0  0  0  0
  3 17  1  0  0  0  0
  4  9  1  0  0  0  0
  4 17  2  0  0  0  0
  5 19  1  0  0  0  0
  6 21  1  0  0  0  0
  7 10  2  0  0  0  0
  7 20  1  0  0  0  0
  8 27  1  0  0  0  0
  9 27  2  0  0  0  0
 10 28  1  0  0  0  0
 11 12  2  0  0  0  0
 11 29  1  0  0  0  0
 12 30  1  0  0  0  0
 13 22  1  0  0  0  0
 13 28  2  0  0  0  0
 14 23  1  0  0  0  0
 14 26  2  0  0  0  0
 15 24  2  0  0  0  0
 15 26  1  0  0  0  0
 16 30  2  0  0  0  0
 16 31  1  0  0  0  0
 17 32  1  0  0  0  0
 18 32  1  0  0  0  0
 18 33  2  0  0  0  0
 18 36  1  0  0  0  0
 19 21  2  0  0  0  0
 19 41  1  0  0  0  0
 20 22  2  0  0  0  0
 20 42  1  0  0  0  0
 21 53  1  0  0  0  0
 22 43  1  0  0  0  0
 23 25  2  0  0  0  0
 23 63  1  0  0  0  0
 24 25  1  0  0  0  0
 24 67  1  0  0  0  0
 25 56  1  0  0  0  0
 26 75  1  0  0  0  0
 27 85  1  0  0  0  0
 28 86  1  0  0  0  0
 29 31  2  0  0  0  0
 29 85  1  0  0  0  0
 30 87  1  0  0  0  0
 31 88  1  0  0  0  0
 32 69  2  0  0  0  0
 33 70  1  0  0  0  0
 33 73  1  0  0  0  0
 34 35  2  0  0  0  0
 34 44  1  0  0  0  0
 34 78  1  0  0  0  0
 35 64  1  0  0  0  0
 36 74  1  0  0  0  0
 36 80  2  0  0  0  0
 37 54  1  0  0  0  0
 37 76  1  0  0  0  0
 37 81  2  0  0  0  0
 38 65  1  0  0  0  0
 38 71  1  0  0  0  0
 38 82  2  0  0  0  0
 39 66  1  0  0  0  0
 39 77  1  0  0  0  0
 39 83  2  0  0  0  0
 40 72  1  0  0  0  0
 40 75  1  0  0  0  0
 40 84  2  0  0  0  0
 41 45  1  0  0  0  0
 42 54  1  0  0  0  0
 43 71  1  0  0  0  0
 44 46  1  0  0  0  0
 45 48  1  0  0  0  0
 46 52  1  0  0  0  0
 47 49  1  0  0  0  0
 47 50  1  0  0  0  0
 48 53  1  0  0  0  0
 49 55  1  0  0  0  0
 50 72  1  0  0  0  0
 51 55  1  0  0  0  0
 51 72  1  0  0  0  0
 52 78  1  0  0  0  0
 53 76  1  0  0  0  0
 54 71  1  0  0  0  0
 55 70  1  0  0  0  0
 57 66  1  0  0  0  0
 58 67  1  0  0  0  0
 59 68  1  0  0  0  0
 60 68  1  0  0  0  0
 61 68  1  0  0  0  0
 62 79  1  0  0  0  0
 63 78  1  0  0  0  0
 64 86  1  0  0  0  0
 65 68  1  0  0  0  0
 65 77  1  0  0  0  0
 66 79  1  0  0  0  0
 67 89  1  0  0  0  0
 67 90  1  0  0  0  0
 69 70  1  0  0  0  0
M  CHG  2  78   1  79   1
M  ISO  4  40 100  64 101  75 100  86 101
M  END
> <Batch ID>
0039

> <Smiles>
CNC(C)C(=O)NC(C(=O)N1Cc2cc([101O:1][101CH2:1]C=C3CCCN3Cc3cc([100NH:0][100C:0](=O)N4CCCC(n5nc(-c6ccc(Oc7ccc(F)cc7F)cc6)c(C(N)=O)c5N)C4)cc(C(C)(F)F)c3C)ccc2CC1C(=O)NC1CCCc2ccccc21)C(C)(C)C

> <Shape>
0.246

> <Color>
0.048

> <Negative vol penalty>
0.000

$$$$

  -OEChem-04042322043D

 85 93  0     1  0  0  0  0  0999 V2000
  -32.0097  -29.4357   18.4768 C   0  0  0  0  0  0  0  0  0  0  0  0
  -30.9833  -28.9152   19.2585 C   0  0  0  0  0  0  0  0  0  0  0  0
  -23.1974  -17.3290   19.4337 C   0  0  0  0  0  0  0  0  0  0  0  0
  -23.5781  -18.1834   21.6612 C   0  0  0  0  0  0  0  0  0  0  0  0
  -32.5413  -28.6797   17.4329 C   0  0  0  0  0  0  0  0  0  0  0  0
  -30.4871  -27.6388   18.9959 C   0  0  0  0  0  0  0  0  0  0  0  0
  -29.8676  -24.8916   23.2048 C   0  0  0  0  0  0  0  0  0  0  0  0
  -24.1103  -16.3016   19.6717 C   0  0  0  0  0  0  0  0  0  0  0  0
  -24.4909  -17.1559   21.8993 C   0  0  0  0  0  0  0  0  0  0  0  0
  -28.7417  -25.1617   23.9814 C   0  0  0  0  0  0  0  0  0  0  0  0
  -24.1529  -13.3325   21.2891 C   0  0  0  0  0  0  0  0  0  0  0  0
  -23.7929  -12.0424   20.8999 C   0  0  0  0  0  0  0  0  0  0  0  0
  -27.6252  -23.2540   23.0152 C   0  0  0  0  0  0  0  0  0  0  0  0
  -18.4030  -28.2296   23.1791 C   0  0  0  0  0  0  0  0  0  0  0  0
  -19.7836  -27.7619   21.2525 C   0  0  0  0  0  0  0  0  0  0  0  0
  -25.7090  -11.9506   19.4312 C   0  0  0  0  0  0  0  0  0  0  0  0
  -22.9314  -18.2700   20.4284 C   0  0  0  0  0  0  0  0  0  0  0  0
  -20.6028  -19.3117   20.4277 C   0  0  0  0  0  0  0  0  0  0  0  0
  -32.0580  -27.3895   17.1635 C   0  0  0  0  0  0  0  0  0  0  0  0
  -29.8768  -23.8053   22.3180 C   0  0  0  0  0  0  0  0  0  0  0  0
  -31.0118  -26.8653   17.9465 C   0  0  0  0  0  0  0  0  0  0  0  0
  -28.7533  -22.9708   22.2303 C   0  0  0  0  0  0  0  0  0  0  0  0
  -18.8137  -28.5412   21.8830 C   0  0  0  0  0  0  0  0  0  0  0  0
  -18.9622  -27.1388   23.8447 C   0  0  0  0  0  0  0  0  0  0  0  0
  -19.9321  -26.3595   23.2142 C   0  0  0  0  0  0  0  0  0  0  0  0
  -20.3428  -26.6710   21.9180 C   0  0  0  0  0  0  0  0  0  0  0  0
  -24.7570  -16.2150   20.9045 C   0  0  0  0  0  0  0  0  0  0  0  0
  -27.6192  -24.3445   23.8846 C   0  0  0  0  0  0  0  0  0  0  0  0
  -25.2910  -13.9318   20.7493 C   0  0  0  0  0  0  0  0  0  0  0  0
  -24.5709  -11.3514   19.9710 C   0  0  0  0  0  0  0  0  0  0  0  0
  -26.0691  -13.2408   19.8204 C   0  0  0  0  0  0  0  0  0  0  0  0
  -21.9889  -19.3319   20.1829 C   0  0  0  0  0  0  0  0  0  0  0  0
  -20.1655  -20.5509   20.0281 C   0  0  0  0  0  0  0  0  0  0  0  0
  -21.9058  -25.5111   24.4551 C   0  0  0  0  0  0  0  0  0  0  0  0
  -19.7837  -18.2664   20.9681 C   0  0  0  0  0  0  0  0  0  0  0  0
  -30.1656  -23.4827   19.1690 C   0  0  0  0  0  0  0  0  0  0  0  0
  -24.1592  -25.1535   24.5996 C   0  0  0  0  0  0  0  0  0  0  0  0
  -30.2093  -20.3200   19.8890 C   0  0  0  0  0  0  0  0  0  0  0  0
  -29.3700  -17.8335   22.0706 C   0  0  0  0  0  0  0  0  0  0  0  0
  -21.8307  -26.0812   19.9726 C   0  0  0  0  0  0  0  0  0  0  0  0
  -32.6318  -26.6287   15.9945 C   0  0  0  0  0  0  0  0  0  0  0  0
  -31.1089  -23.5117   21.5068 C   0  0  0  0  0  0  0  0  0  0  0  0
  -28.7199  -21.7801   21.3086 C   0  0  0  0  0  0  0  0  0  0  0  0
  -32.3059  -25.1376   16.0191 C   0  0  0  0  0  0  0  0  0  0  0  0
  -21.9334  -24.0721   17.0349 C   0  0  0  0  0  0  0  0  0  0  0  0
  -30.8279  -24.9192   16.3265 C   0  0  0  0  0  0  0  0  0  0  0  0
  -21.8227  -22.6424   17.5694 C   0  0  0  0  0  0  0  0  0  0  0  0
  -22.7629  -24.9608   17.9600 C   0  0  0  0  0  0  0  0  0  0  0  0
  -22.2207  -23.5400   19.8981 C   0  0  0  0  0  0  0  0  0  0  0  0
  -30.4639  -25.4749   17.7086 C   0  0  1  0  0  0  0  0  0  0  0  0
  -30.8195  -22.6822   20.2596 C   0  0  1  0  0  0  0  0  0  0  0  0
  -21.3399  -22.6237   19.0330 C   0  0  2  0  0  0  0  0  0  0  0  0
  -18.2168  -29.7084   21.1719 C   0  0  0  0  0  0  0  0  0  0  0  0
  -18.5061  -26.8281   25.2327 C   0  0  0  0  0  0  0  0  0  0  0  0
  -29.5048  -15.3454   22.3682 C   0  0  0  0  0  0  0  0  0  0  0  0
  -27.9403  -19.9594   17.8811 C   0  0  0  0  0  0  0  0  0  0  0  0
  -27.4906  -17.7161   18.8977 C   0  0  0  0  0  0  0  0  0  0  0  0
  -29.6891  -18.1730   17.8111 C   0  0  0  0  0  0  0  0  0  0  0  0
  -30.9920  -18.0991   24.5318 C   0  0  0  0  0  0  0  0  0  0  0  0
  -20.5327  -25.1848   23.9367 C   0  0  0  0  0  0  0  0  0  0  0  0
  -25.2532  -24.2328   24.0976 C   0  0  0  0  0  0  0  0  0  1  0  0
  -29.1619  -19.2434   20.0400 C   0  0  1  0  0  0  0  0  0  0  0  0
  -30.1760  -16.6819   22.6439 C   0  0  2  0  0  0  0  0  0  0  0  0
  -28.5701  -18.7965   18.6735 C   0  0  0  0  0  0  0  0  0  0  0  0
  -22.4047  -20.4918   19.6675 N   0  0  0  0  0  0  0  0  0  0  0  0
  -22.9238  -24.8003   24.0998 N   0  0  0  0  0  0  0  0  0  0  0  0
  -21.2731  -21.2121   19.5851 N   0  0  0  0  0  0  0  0  0  0  0  0
  -29.9468  -21.5383   20.5315 N   0  0  0  0  0  0  0  0  0  0  0  0
  -22.2448  -24.8963   19.3283 N   0  0  0  0  0  0  0  0  0  0  0  0
  -18.9454  -21.1285   20.0158 N   0  0  0  0  0  0  0  0  0  0  0  0
  -20.3944  -17.0570   21.3269 N   0  0  0  0  0  0  0  0  0  0  0  0
  -21.3257  -25.8920   21.2586 N   0  0  0  0  0  0  0  0  0  0  0  0
  -30.9059  -24.5713   18.7491 N   0  0  0  0  0  0  0  0  0  0  0  0
  -29.7890  -18.1676   20.8002 N   0  0  0  0  0  0  0  0  0  0  0  0
  -30.3252  -16.8375   24.1185 N   0  3  0  0  0  0  0  0  0  0  0  0
  -18.5443  -18.3950   21.1129 O   0  0  0  0  0  0  0  0  0  0  0  0
  -29.0712  -23.1372   18.7393 O   0  0  0  0  0  0  0  0  0  0  0  0
  -24.4042  -26.0888   25.3588 O   0  0  0  0  0  0  0  0  0  0  0  0
  -31.2264  -20.0863   19.2313 O   0  0  0  0  0  0  0  0  0  0  0  0
  -28.4573  -18.3794   22.6867 O   0  0  0  0  0  0  0  0  0  0  0  0
  -21.8922  -27.1793   19.4137 O   0  0  0  0  0  0  0  0  0  0  0  0
  -25.6476  -15.2124   21.1373 O   0  0  0  0  0  0  0  0  0  0  0  0
  -26.5187  -24.6063   24.6411 O   0  0  0  0  0  0  0  0  0  1  0  0
  -24.2258  -10.1119   19.5986 F   0  0  0  0  0  0  0  0  0  0  0  0
  -27.1642  -13.8109   19.2992 F   0  0  0  0  0  0  0  0  0  0  0  0
  1  2  1  0  0  0  0
  1  5  2  0  0  0  0
  2  6  2  0  0  0  0
  3  8  2  0  0  0  0
  3 17  1  0  0  0  0
  4  9  1  0  0  0  0
  4 17  2  0  0  0  0
  5 19  1  0  0  0  0
  6 21  1  0  0  0  0
  7 10  2  0  0  0  0
  7 20  1  0  0  0  0
  8 27  1  0  0  0  0
  9 27  2  0  0  0  0
 10 28  1  0  0  0  0
 11 12  2  0  0  0  0
 11 29  1  0  0  0  0
 12 30  1  0  0  0  0
 13 22  1  0  0  0  0
 13 28  2  0  0  0  0
 14 23  1  0  0  0  0
 14 24  2  0  0  0  0
 15 23  2  0  0  0  0
 15 26  1  0  0  0  0
 16 30  2  0  0  0  0
 16 31  1  0  0  0  0
 17 32  1  0  0  0  0
 18 32  1  0  0  0  0
 18 33  2  0  0  0  0
 18 35  1  0  0  0  0
 19 21  2  0  0  0  0
 19 41  1  0  0  0  0
 20 22  2  0  0  0  0
 20 42  1  0  0  0  0
 21 50  1  0  0  0  0
 22 43  1  0  0  0  0
 23 53  1  0  0  0  0
 24 25  1  0  0  0  0
 24 54  1  0  0  0  0
 25 26  2  0  0  0  0
 25 60  1  0  0  0  0
 26 72  1  0  0  0  0
 27 82  1  0  0  0  0
 28 83  1  0  0  0  0
 29 31  2  0  0  0  0
 29 82  1  0  0  0  0
 30 84  1  0  0  0  0
 31 85  1  0  0  0  0
 32 65  2  0  0  0  0
 33 67  1  0  0  0  0
 33 70  1  0  0  0  0
 34 60  1  0  0  0  0
 34 66  2  0  0  0  0
 35 71  1  0  0  0  0
 35 76  2  0  0  0  0
 36 51  1  0  0  0  0
 36 73  1  0  0  0  0
 36 77  2  0  0  0  0
 37 61  1  0  0  0  0
 37 66  1  0  0  0  0
 37 78  2  0  0  0  0
 38 62  1  0  0  0  0
 38 68  1  0  0  0  0
 38 79  2  0  0  0  0
 39 63  1  0  0  0  0
 39 74  1  0  0  0  0
 39 80  2  0  0  0  0
 40 69  1  0  0  0  0
 40 72  1  0  0  0  0
 40 81  2  0  0  0  0
 41 44  1  0  0  0  0
 42 51  1  0  0  0  0
 43 68  1  0  0  0  0
 44 46  1  0  0  0  0
 45 47  1  0  0  0  0
 45 48  1  0  0  0  0
 46 50  1  0  0  0  0
 47 52  1  0  0  0  0
 48 69  1  0  0  0  0
 49 52  1  0  0  0  0
 49 69  1  0  0  0  0
 50 73  1  0  0  0  0
 51 68  1  0  0  0  0
 52 67  1  0  0  0  0
 55 63  1  0  0  0  0
 56 64  1  0  0  0  0
 57 64  1  0  0  0  0
 58 64  1  0  0  0  0
 59 75  1  0  0  0  0
 61 83  1  0  0  0  0
 62 64  1  0  0  0  0
 62 74  1  0  0  0  0
 63 75  1  0  0  0  0
 65 67  1  0  0  0  0
M  CHG  1  75   1
M  ISO  4  40 100  61 101  72 100  83 101
M  END
> <Batch ID>
0039

> <Smiles>
CNC(C)C(=O)NC(C(=O)N1Cc2cc([101O:1][101CH2:1]C(=O)NC=Cc3c(C)cc(C)cc3[100NH:0][100C:0](=O)N3CCCC(n4nc(-c5ccc(Oc6ccc(F)cc6F)cc5)c(C(N)=O)c4N)C3)ccc2CC1C(=O)NC1CCCc2ccccc21)C(C)(C)C

> <Shape>
0.187

> <Color>
0.062

> <Negative vol penalty>
0.000

$$$$

  -OEChem-04042322043D

 85 93  0     1  0  0  0  0  0999 V2000
  -25.5855   -8.1750   26.1929 C   0  0  0  0  0  0  0  0  0  0  0  0
  -26.6027   -8.9691   25.6730 C   0  0  0  0  0  0  0  0  0  0  0  0
  -23.1223  -30.8862   21.2607 C   0  0  0  0  0  0  0  0  0  0  0  0
  -22.7741  -28.8546   22.5211 C   0  0  0  0  0  0  0  0  0  0  0  0
  -24.4356   -7.9366   25.4413 C   0  0  0  0  0  0  0  0  0  0  0  0
  -26.4710   -9.5243   24.4006 C   0  0  0  0  0  0  0  0  0  0  0  0
  -28.5558  -14.9691   22.5262 C   0  0  0  0  0  0  0  0  0  0  0  0
  -21.7513  -30.9709   21.0185 C   0  0  0  0  0  0  0  0  0  0  0  0
  -21.4030  -28.9393   22.2789 C   0  0  0  0  0  0  0  0  0  0  0  0
  -29.6971  -15.3434   21.8184 C   0  0  0  0  0  0  0  0  0  0  0  0
  -18.7643  -30.6710   23.4867 C   0  0  0  0  0  0  0  0  0  0  0  0
  -17.9029  -30.4463   24.5606 C   0  0  0  0  0  0  0  0  0  0  0  0
  -29.3779  -22.4673   20.2026 C   0  0  0  0  0  0  0  0  0  0  0  0
  -28.4240  -15.3293   19.7695 C   0  0  0  0  0  0  0  0  0  0  0  0
  -28.0771  -22.6917   22.2261 C   0  0  0  0  0  0  0  0  0  0  0  0
  -16.9076  -28.5919   23.3742 C   0  0  0  0  0  0  0  0  0  0  0  0
  -23.6337  -29.8280   22.0120 C   0  0  0  0  0  0  0  0  0  0  0  0
  -29.2524  -21.0801   20.2757 C   0  0  0  0  0  0  0  0  0  0  0  0
  -25.7577  -30.2910   23.3469 C   0  0  0  0  0  0  0  0  0  0  0  0
  -24.2856   -8.4971   24.1631 C   0  0  0  0  0  0  0  0  0  0  0  0
  -27.3404  -14.7611   21.8582 C   0  0  0  0  0  0  0  0  0  0  0  0
  -25.3186   -9.2921   23.6308 C   0  0  0  0  0  0  0  0  0  0  0  0
  -27.2680  -14.9548   20.4714 C   0  0  0  0  0  0  0  0  0  0  0  0
  -27.9516  -21.3044   22.2992 C   0  0  0  0  0  0  0  0  0  0  0  0
  -28.5393  -20.4986   21.3240 C   0  0  0  0  0  0  0  0  0  0  0  0
  -28.7903  -23.2732   21.1778 C   0  0  0  0  0  0  0  0  0  0  0  0
  -20.8916  -29.9975   21.5276 C   0  0  0  0  0  0  0  0  0  0  0  0
  -29.6321  -15.5208   20.4395 C   0  0  0  0  0  0  0  0  0  0  0  0
  -18.6973  -29.8562   22.3565 C   0  0  0  0  0  0  0  0  0  0  0  0
  -16.9746  -29.4068   24.5043 C   0  0  0  0  0  0  0  0  0  0  0  0
  -17.7690  -28.8166   22.3003 C   0  0  0  0  0  0  0  0  0  0  0  0
  -25.0500  -29.7396   22.2621 C   0  0  0  0  0  0  0  0  0  0  0  0
  -27.0637  -29.9284   23.1248 C   0  0  0  0  0  0  0  0  0  0  0  0
  -29.8821  -20.2470   19.2316 C   0  0  0  0  0  0  0  0  0  0  0  0
  -25.2775  -31.0621   24.4562 C   0  0  0  0  0  0  0  0  0  0  0  0
  -25.4002  -12.2761   21.4531 C   0  0  0  0  0  0  0  0  0  0  0  0
  -23.4964  -14.4896   20.0397 C   0  0  0  0  0  0  0  0  0  0  0  0
  -23.2407  -17.4902   18.4341 C   0  0  0  0  0  0  0  0  0  0  0  0
  -29.5955  -25.4188   20.1317 C   0  0  0  0  0  0  0  0  0  0  0  0
  -23.0450   -8.1725   23.3691 C   0  0  0  0  0  0  0  0  0  0  0  0
  -26.1120  -14.3835   22.6398 C   0  0  0  0  0  0  0  0  0  0  0  0
  -25.9826  -14.7638   19.7100 C   0  0  0  0  0  0  0  0  0  0  0  0
  -22.8210   -9.1044   22.1810 C   0  0  0  0  0  0  0  0  0  0  0  0
  -30.1127  -28.8978   19.5785 C   0  0  0  0  0  0  0  0  0  0  0  0
  -24.1153   -9.2881   21.3951 C   0  0  0  0  0  0  0  0  0  0  0  0
  -28.9409  -29.5590   20.3078 C   0  0  0  0  0  0  0  0  0  0  0  0
  -29.7004  -27.5840   18.9169 C   0  0  0  0  0  0  0  0  0  0  0  0
  -27.8691  -27.2817   20.5368 C   0  0  0  0  0  0  0  0  0  0  0  0
  -25.2019   -9.9323   22.2645 C   0  0  1  0  0  0  0  0  0  0  0  0
  -25.0486  -13.6982   21.7872 C   0  0  1  0  0  0  0  0  0  0  0  0
  -28.2513  -28.5757   21.2739 C   0  0  2  0  0  0  0  0  0  0  0  0
  -27.1842  -20.7063   23.4327 C   0  0  0  0  0  0  0  0  0  0  0  0
  -28.4032  -19.0108   21.4036 C   0  0  0  0  0  0  0  0  0  0  0  0
  -21.5588  -19.0158   17.3659 C   0  0  0  0  0  0  0  0  0  0  0  0
  -23.3775  -12.6515   17.6072 C   0  0  0  0  0  0  0  0  0  0  0  0
  -22.5194  -14.5882   16.2727 C   0  0  0  0  0  0  0  0  0  0  0  0
  -21.2018  -13.7282   18.2084 C   0  0  0  0  0  0  0  0  0  0  0  0
  -23.8417  -19.6755   20.3373 C   0  0  0  0  0  0  0  0  0  0  0  0
  -32.4399  -17.5533   19.4243 C   0  0  0  0  0  0  0  0  0  0  0  0
  -31.5030  -18.4742   18.6605 C   0  0  0  0  0  0  0  0  0  0  0  0
  -31.7085  -16.6802   20.4362 C   0  0  0  0  0  0  0  0  0  1  0  0
  -23.3332  -15.0193   18.6355 C   0  0  1  0  0  0  0  0  0  0  0  0
  -22.3068  -18.6684   18.6437 C   0  0  2  0  0  0  0  0  0  0  0  0
  -22.6328  -13.9986   17.6947 C   0  0  0  0  0  0  0  0  0  0  0  0
  -25.8408  -29.0771   21.4137 N   0  0  0  0  0  0  0  0  0  0  0  0
  -27.0591  -29.2100   21.9654 N   0  0  0  0  0  0  0  0  0  0  0  0
  -24.8105  -14.3886   20.5180 N   0  0  0  0  0  0  0  0  0  0  0  0
  -29.0580  -26.7013   19.8932 N   0  0  0  0  0  0  0  0  0  0  0  0
  -28.2041  -30.1571   23.8100 N   0  0  0  0  0  0  0  0  0  0  0  0
  -29.4961  -20.4254   17.9682 N   0  0  0  0  0  0  0  0  0  0  0  0
  -23.9066  -31.3440   24.5304 N   0  0  0  0  0  0  0  0  0  0  0  0
  -28.9201  -24.6823   21.1043 N   0  0  0  0  0  0  0  0  0  0  0  0
  -24.9710  -11.3555   22.3900 N   0  0  0  0  0  0  0  0  0  0  0  0
  -22.6355  -16.2946   18.7588 N   0  0  0  0  0  0  0  0  0  0  0  0
  -30.8073  -19.3521   19.6018 N   0  3  0  0  0  0  0  0  0  0  0  0
  -23.0761  -19.8683   19.0789 N   0  3  0  0  0  0  0  0  0  0  0  0
  -26.0439  -31.5024   25.3464 O   0  0  0  0  0  0  0  0  0  0  0  0
  -26.0141  -12.0319   20.4210 O   0  0  0  0  0  0  0  0  0  0  0  0
  -22.4943  -14.1837   20.6909 O   0  0  0  0  0  0  0  0  0  0  0  0
  -24.3909  -17.6174   18.0200 O   0  0  0  0  0  0  0  0  0  0  0  0
  -30.5987  -25.0148   19.5379 O   0  0  0  0  0  0  0  0  0  0  0  0
  -19.5537  -30.0800   21.2916 O   0  0  0  0  0  0  0  0  0  0  0  0
  -30.7448  -15.8855   19.7462 O   0  0  0  0  0  0  0  0  0  1  0  0
  -16.1485  -29.1901   25.5362 F   0  0  0  0  0  0  0  0  0  0  0  0
  -17.7008  -28.0297   21.2177 F   0  0  0  0  0  0  0  0  0  0  0  0
  1  2  1  0  0  0  0
  1  5  2  0  0  0  0
  2  6  2  0  0  0  0
  3  8  2  0  0  0  0
  3 17  1  0  0  0  0
  4  9  1  0  0  0  0
  4 17  2  0  0  0  0
  5 20  1  0  0  0  0
  6 22  1  0  0  0  0
  7 10  2  0  0  0  0
  7 21  1  0  0  0  0
  8 27  1  0  0  0  0
  9 27  2  0  0  0  0
 10 28  1  0  0  0  0
 11 12  2  0  0  0  0
 11 29  1  0  0  0  0
 12 30  1  0  0  0  0
 13 18  1  0  0  0  0
 13 26  2  0  0  0  0
 14 23  1  0  0  0  0
 14 28  2  0  0  0  0
 15 24  2  0  0  0  0
 15 26  1  0  0  0  0
 16 30  2  0  0  0  0
 16 31  1  0  0  0  0
 17 32  1  0  0  0  0
 18 25  2  0  0  0  0
 18 34  1  0  0  0  0
 19 32  1  0  0  0  0
 19 33  2  0  0  0  0
 19 35  1  0  0  0  0
 20 22  2  0  0  0  0
 20 40  1  0  0  0  0
 21 23  2  0  0  0  0
 21 41  1  0  0  0  0
 22 49  1  0  0  0  0
 23 42  1  0  0  0  0
 24 25  1  0  0  0  0
 24 52  1  0  0  0  0
 25 53  1  0  0  0  0
 26 72  1  0  0  0  0
 27 82  1  0  0  0  0
 28 83  1  0  0  0  0
 29 31  2  0  0  0  0
 29 82  1  0  0  0  0
 30 84  1  0  0  0  0
 31 85  1  0  0  0  0
 32 65  2  0  0  0  0
 33 66  1  0  0  0  0
 33 69  1  0  0  0  0
 34 70  1  0  0  0  0
 34 75  2  0  0  0  0
 35 71  1  0  0  0  0
 35 77  2  0  0  0  0
 36 50  1  0  0  0  0
 36 73  1  0  0  0  0
 36 78  2  0  0  0  0
 37 62  1  0  0  0  0
 37 67  1  0  0  0  0
 37 79  2  0  0  0  0
 38 63  1  0  0  0  0
 38 74  1  0  0  0  0
 38 80  2  0  0  0  0
 39 68  1  0  0  0  0
 39 72  1  0  0  0  0
 39 81  2  0  0  0  0
 40 43  1  0  0  0  0
 41 50  1  0  0  0  0
 42 67  1  0  0  0  0
 43 45  1  0  0  0  0
 44 46  1  0  0  0  0
 44 47  1  0  0  0  0
 45 49  1  0  0  0  0
 46 51  1  0  0  0  0
 47 68  1  0  0  0  0
 48 51  1  0  0  0  0
 48 68  1  0  0  0  0
 49 73  1  0  0  0  0
 50 67  1  0  0  0  0
 51 66  1  0  0  0  0
 54 63  1  0  0  0  0
 55 64  1  0  0  0  0
 56 64  1  0  0  0  0
 57 64  1  0  0  0  0
 58 76  1  0  0  0  0
 59 60  1  0  0  0  0
 59 61  1  0  0  0  0
 60 75  1  0  0  0  0
 61 83  1  0  0  0  0
 62 64  1  0  0  0  0
 62 74  1  0  0  0  0
 63 76  1  0  0  0  0
 65 66  1  0  0  0  0
M  CHG  2  75   1  76   1
M  ISO  4  39 100  61 101  72 100  83 101
M  END
> <Batch ID>
0039

> <Smiles>
CNC(C)C(=O)NC(C(=O)N1Cc2cc([101O:1][101CH2:1]CCNC(=N)c3cc([100NH:0][100C:0](=O)N4CCCC(n5nc(-c6ccc(Oc7ccc(F)cc7F)cc6)c(C(N)=O)c5N)C4)cc(C)c3C)ccc2CC1C(=O)NC1CCCc2ccccc21)C(C)(C)C

> <Shape>
0.277

> <Color>
0.069

> <Negative vol penalty>
0.000

$$$$

  -OEChem-04042322043D

 83 91  0     1  0  0  0  0  0999 V2000
  -20.9252  -17.2738   22.8156 C   0  0  0  0  0  0  0  0  0  0  0  0
  -22.1895  -17.7137   23.1944 C   0  0  0  0  0  0  0  0  0  0  0  0
  -23.0007   -9.8940   19.9805 C   0  0  0  0  0  0  0  0  0  0  0  0
  -23.7258   -9.9444   22.2846 C   0  0  0  0  0  0  0  0  0  0  0  0
  -19.7907  -17.9541   23.2561 C   0  0  0  0  0  0  0  0  0  0  0  0
  -22.3201  -18.8348   24.0132 C   0  0  0  0  0  0  0  0  0  0  0  0
  -25.6821  -18.1407   27.7360 C   0  0  0  0  0  0  0  0  0  0  0  0
  -30.6483  -19.8075   21.4066 C   0  0  0  0  0  0  0  0  0  0  0  0
  -30.2192  -19.1414   20.2587 C   0  0  0  0  0  0  0  0  0  0  0  0
  -22.2341   -8.7595   20.2465 C   0  0  0  0  0  0  0  0  0  0  0  0
  -22.9591   -8.8098   22.5506 C   0  0  0  0  0  0  0  0  0  0  0  0
  -27.0320  -18.2372   27.4010 C   0  0  0  0  0  0  0  0  0  0  0  0
  -23.2033   -5.4710   22.0779 C   0  0  0  0  0  0  0  0  0  0  0  0
  -23.7907   -4.4536   22.8298 C   0  0  0  0  0  0  0  0  0  0  0  0
  -27.0824  -20.4847   28.2758 C   0  0  0  0  0  0  0  0  0  0  0  0
  -22.0668   -4.6962   24.5050 C   0  0  0  0  0  0  0  0  0  0  0  0
  -23.7466  -10.4864   20.9995 C   0  0  0  0  0  0  0  0  0  0  0  0
  -24.1321  -13.0020   20.8241 C   0  0  0  0  0  0  0  0  0  0  0  0
  -19.9071  -19.0784   24.0886 C   0  0  0  0  0  0  0  0  0  0  0  0
  -25.0184  -19.2213   28.3345 C   0  0  0  0  0  0  0  0  0  0  0  0
  -21.1861  -19.5316   24.4642 C   0  0  0  0  0  0  0  0  0  0  0  0
  -25.7247  -20.3986   28.6197 C   0  0  0  0  0  0  0  0  0  0  0  0
  -30.8888  -19.0918   22.5795 C   0  0  0  0  0  0  0  0  0  0  0  0
  -30.0305  -17.7596   20.2836 C   0  0  0  0  0  0  0  0  0  0  0  0
  -30.7000  -17.7100   22.6045 C   0  0  0  0  0  0  0  0  0  0  0  0
  -30.2709  -17.0438   21.4565 C   0  0  0  0  0  0  0  0  0  0  0  0
  -22.2133   -8.2174   21.5316 C   0  0  0  0  0  0  0  0  0  0  0  0
  -27.7317  -19.4103   27.6683 C   0  0  0  0  0  0  0  0  0  0  0  0
  -22.0476   -6.1011   22.5396 C   0  0  0  0  0  0  0  0  0  0  0  0
  -23.2225   -4.0662   24.0434 C   0  0  0  0  0  0  0  0  0  0  0  0
  -21.4794   -5.7137   23.7531 C   0  0  0  0  0  0  0  0  0  0  0  0
  -24.5391  -11.6580   20.7252 C   0  0  0  0  0  0  0  0  0  0  0  0
  -25.2419  -13.7246   20.4599 C   0  0  0  0  0  0  0  0  0  0  0  0
  -22.8641  -13.5484   21.2107 C   0  0  0  0  0  0  0  0  0  0  0  0
  -22.5674  -21.0758   27.5236 C   0  0  0  0  0  0  0  0  0  0  0  0
  -22.9717  -22.2542   30.5187 C   0  0  0  0  0  0  0  0  0  0  0  0
  -25.0524  -22.7632   33.1754 C   0  0  0  0  0  0  0  0  0  0  0  0
  -30.7214  -14.6854   20.6944 C   0  0  0  0  0  0  0  0  0  0  0  0
  -18.6538  -19.8091   24.5009 C   0  0  0  0  0  0  0  0  0  0  0  0
  -23.5687  -19.0919   28.7141 C   0  0  0  0  0  0  0  0  0  0  0  0
  -25.0633  -21.5801   29.2794 C   0  0  0  0  0  0  0  0  0  0  0  0
  -18.8638  -20.7656   25.6720 C   0  0  0  0  0  0  0  0  0  0  0  0
  -29.6031  -12.2331   18.3678 C   0  0  0  0  0  0  0  0  0  0  0  0
  -20.1153  -21.6099   25.4539 C   0  0  0  0  0  0  0  0  0  0  0  0
  -28.1525  -11.9754   18.7818 C   0  0  0  0  0  0  0  0  0  0  0  0
  -30.5036  -12.4761   19.5777 C   0  0  0  0  0  0  0  0  0  0  0  0
  -28.5882  -13.2648   20.9113 C   0  0  0  0  0  0  0  0  0  0  0  0
  -21.3677  -20.7290   25.3716 C   0  0  1  0  0  0  0  0  0  0  0  0
  -22.8644  -20.4382   28.8513 C   0  0  1  0  0  0  0  0  0  0  0  0
  -27.6306  -13.0788   19.7230 C   0  0  2  0  0  0  0  0  0  0  0  0
  -29.5695  -17.0746   19.0378 C   0  0  0  0  0  0  0  0  0  0  0  0
  -30.9587  -16.9486   23.8670 C   0  0  0  0  0  0  0  0  0  0  0  0
  -25.1086  -23.7875   35.4656 C   0  0  0  0  0  0  0  0  0  0  0  0
  -23.1282  -25.0334   29.2691 C   0  0  0  0  0  0  0  0  0  0  0  0
  -24.1124  -25.8666   31.4151 C   0  0  0  0  0  0  0  0  0  0  0  0
  -21.8064  -24.9156   31.3889 C   0  0  0  0  0  0  0  0  0  0  0  0
  -25.6704  -20.1643   34.4493 C   0  0  0  0  0  0  0  0  0  0  0  0
  -31.3494  -19.8335   23.7997 C   0  0  0  0  0  0  0  0  0  0  0  0
  -30.7217  -20.6733   26.0667 C   0  0  0  0  0  0  0  0  0  0  0  0
  -29.5423  -20.8046   27.0100 C   0  0  0  0  0  0  0  0  0  1  0  0
  -23.7885  -23.3679   31.1281 C   0  0  1  0  0  0  0  0  0  0  0  0
  -24.8659  -22.5194   34.6621 C   0  0  2  0  0  0  0  0  0  0  0  0
  -23.2212  -24.7745   30.7861 C   0  0  0  0  0  0  0  0  0  0  0  0
  -25.8084  -11.5316   20.3290 N   0  0  0  0  0  0  0  0  0  0  0  0
  -26.2085  -12.8053   20.1757 N   0  0  0  0  0  0  0  0  0  0  0  0
  -23.6429  -21.4069   29.6257 N   0  0  0  0  0  0  0  0  0  0  0  0
  -29.9485  -13.5369   20.4212 N   0  0  0  0  0  0  0  0  0  0  0  0
  -25.4754  -15.0503   20.3582 N   0  0  0  0  0  0  0  0  0  0  0  0
  -21.8322  -12.6642   21.5539 N   0  0  0  0  0  0  0  0  0  0  0  0
  -30.0771  -15.6404   21.4801 N   0  0  0  0  0  0  0  0  0  0  0  0
  -21.7754  -20.3052   26.6940 N   0  0  0  0  0  0  0  0  0  0  0  0
  -23.8625  -23.0848   32.5574 N   0  0  0  0  0  0  0  0  0  0  0  0
  -25.8139  -21.4727   35.1383 N   0  3  0  0  0  0  0  0  0  0  0  0
  -30.2803  -19.9953   24.8218 N   0  3  0  0  0  0  0  0  0  0  0  0
  -22.6475  -14.7837   21.2347 O   0  0  0  0  0  0  0  0  0  0  0  0
  -23.0220  -22.1855   27.2711 O   0  0  0  0  0  0  0  0  0  0  0  0
  -21.7837  -22.1359   30.8291 O   0  0  0  0  0  0  0  0  0  0  0  0
  -26.1450  -22.6806   32.6188 O   0  0  0  0  0  0  0  0  0  0  0  0
  -31.8601  -14.8243   20.2404 O   0  0  0  0  0  0  0  0  0  0  0  0
  -21.4651   -7.1105   21.7916 O   0  0  0  0  0  0  0  0  0  0  0  0
  -29.0492  -19.5073   27.3417 O   0  0  0  0  0  0  0  0  0  1  0  0
  -23.7858   -3.0881   24.7646 F   0  0  0  0  0  0  0  0  0  0  0  0
  -20.3685   -6.3145   24.2012 F   0  0  0  0  0  0  0  0  0  0  0  0
  1  2  1  0  0  0  0
  1  5  2  0  0  0  0
  2  6  2  0  0  0  0
  3 10  2  0  0  0  0
  3 17  1  0  0  0  0
  4 11  1  0  0  0  0
  4 17  2  0  0  0  0
  5 19  1  0  0  0  0
  6 21  1  0  0  0  0
  7 12  2  0  0  0  0
  7 20  1  0  0  0  0
  8  9  2  0  0  0  0
  8 23  1  0  0  0  0
  9 24  1  0  0  0  0
 10 27  1  0  0  0  0
 11 27  2  0  0  0  0
 12 28  1  0  0  0  0
 13 14  2  0  0  0  0
 13 29  1  0  0  0  0
 14 30  1  0  0  0  0
 15 22  1  0  0  0  0
 15 28  2  0  0  0  0
 16 30  2  0  0  0  0
 16 31  1  0  0  0  0
 17 32  1  0  0  0  0
 18 32  1  0  0  0  0
 18 33  2  0  0  0  0
 18 34  1  0  0  0  0
 19 21  2  0  0  0  0
 19 39  1  0  0  0  0
 20 22  2  0  0  0  0
 20 40  1  0  0  0  0
 21 48  1  0  0  0  0
 22 41  1  0  0  0  0
 23 25  2  0  0  0  0
 23 58  1  0  0  0  0
 24 26  2  0  0  0  0
 24 51  1  0  0  0  0
 25 26  1  0  0  0  0
 25 52  1  0  0  0  0
 26 70  1  0  0  0  0
 27 80  1  0  0  0  0
 28 81  1  0  0  0  0
 29 31  2  0  0  0  0
 29 80  1  0  0  0  0
 30 82  1  0  0  0  0
 31 83  1  0  0  0  0
 32 64  2  0  0  0  0
 33 65  1  0  0  0  0
 33 68  1  0  0  0  0
 34 69  1  0  0  0  0
 34 75  2  0  0  0  0
 35 49  1  0  0  0  0
 35 71  1  0  0  0  0
 35 76  2  0  0  0  0
 36 61  1  0  0  0  0
 36 66  1  0  0  0  0
 36 77  2  0  0  0  0
 37 62  1  0  0  0  0
 37 72  1  0  0  0  0
 37 78  2  0  0  0  0
 38 67  1  0  0  0  0
 38 70  1  0  0  0  0
 38 79  2  0  0  0  0
 39 42  1  0  0  0  0
 40 49  1  0  0  0  0
 41 66  1  0  0  0  0
 42 44  1  0  0  0  0
 43 45  1  0  0  0  0
 43 46  1  0  0  0  0
 44 48  1  0  0  0  0
 45 50  1  0  0  0  0
 46 67  1  0  0  0  0
 47 50  1  0  0  0  0
 47 67  1  0  0  0  0
 48 71  1  0  0  0  0
 49 66  1  0  0  0  0
 50 65  1  0  0  0  0
 53 62  1  0  0  0  0
 54 63  1  0  0  0  0
 55 63  1  0  0  0  0
 56 63  1  0  0  0  0
 57 73  1  0  0  0  0
 58 74  1  0  0  0  0
 59 60  1  0  0  0  0
 59 74  1  0  0  0  0
 60 81  1  0  0  0  0
 61 63  1  0  0  0  0
 61 72  1  0  0  0  0
 62 73  1  0  0  0  0
 64 65  1  0  0  0  0
M  CHG  2  73   1  74   1
M  ISO  4  38 100  60 101  70 100  81 101
M  END
> <Batch ID>
0039

> <Smiles>
CNC(C)C(=O)NC(C(=O)N1Cc2cc([101O:1][101CH2:1]CNCc3ccc(C)c([100NH:0][100C:0](=O)N4CCCC(n5nc(-c6ccc(Oc7ccc(F)cc7F)cc6)c(C(N)=O)c5N)C4)c3C)ccc2CC1C(=O)NC1CCCc2ccccc21)C(C)(C)C

> <Shape>
0.192

> <Color>
0.198

> <Negative vol penalty>
0.000

$$$$

  -OEChem-04042322043D

 89 98  0     1  0  0  0  0  0999 V2000
  -17.5616  -25.2505   23.2111 C   0  0  0  0  0  0  0  0  0  0  0  0
  -18.6571  -25.1350   22.3614 C   0  0  0  0  0  0  0  0  0  0  0  0
  -22.6553  -11.1598   21.9105 C   0  0  0  0  0  0  0  0  0  0  0  0
  -23.6886   -9.3843   20.6389 C   0  0  0  0  0  0  0  0  0  0  0  0
  -17.1849  -26.5028   23.6946 C   0  0  0  0  0  0  0  0  0  0  0  0
  -19.3759  -26.2719   21.9938 C   0  0  0  0  0  0  0  0  0  0  0  0
  -24.3847  -25.5690   22.2442 C   0  0  0  0  0  0  0  0  0  0  0  0
  -31.3267  -19.3070   21.5027 C   0  0  0  0  0  0  0  0  0  0  0  0
  -31.0284  -17.9950   21.1349 C   0  0  0  0  0  0  0  0  0  0  0  0
  -21.8244  -10.2293   22.5346 C   0  0  0  0  0  0  0  0  0  0  0  0
  -22.8577   -8.4538   21.2630 C   0  0  0  0  0  0  0  0  0  0  0  0
  -24.9815  -24.8630   21.2005 C   0  0  0  0  0  0  0  0  0  0  0  0
  -22.7087   -6.8470   24.2323 C   0  0  0  0  0  0  0  0  0  0  0  0
  -23.2917   -5.6671   24.6943 C   0  0  0  0  0  0  0  0  0  0  0  0
  -25.6955  -26.9434   20.2097 C   0  0  0  0  0  0  0  0  0  0  0  0
  -21.8425   -4.3846   23.2479 C   0  0  0  0  0  0  0  0  0  0  0  0
  -23.5873  -10.7373   20.9626 C   0  0  0  0  0  0  0  0  0  0  0  0
  -24.0511  -12.7957   19.5290 C   0  0  0  0  0  0  0  0  0  0  0  0
  -17.9053  -27.6545   23.3405 C   0  0  0  0  0  0  0  0  0  0  0  0
  -24.4295  -26.9703   22.2728 C   0  0  0  0  0  0  0  0  0  0  0  0
  -19.0077  -27.5410   22.4719 C   0  0  0  0  0  0  0  0  0  0  0  0
  -25.1007  -27.6646   21.2562 C   0  0  0  0  0  0  0  0  0  0  0  0
  -30.3711  -20.3105   21.3430 C   0  0  0  0  0  0  0  0  0  0  0  0
  -29.1172  -20.0020   20.8155 C   0  0  0  0  0  0  0  0  0  0  0  0
  -28.8190  -18.6900   20.4476 C   0  0  0  0  0  0  0  0  0  0  0  0
  -29.7746  -17.6865   20.6073 C   0  0  0  0  0  0  0  0  0  0  0  0
  -21.9256   -8.8763   22.2109 C   0  0  0  0  0  0  0  0  0  0  0  0
  -25.6346  -25.5503   20.1815 C   0  0  0  0  0  0  0  0  0  0  0  0
  -21.6925   -6.7957   23.2781 C   0  0  0  0  0  0  0  0  0  0  0  0
  -22.8586   -4.4359   24.2022 C   0  0  0  0  0  0  0  0  0  0  0  0
  -21.2594   -5.5645   22.7859 C   0  0  0  0  0  0  0  0  0  0  0  0
  -24.4455  -11.6981   20.3172 C   0  0  0  0  0  0  0  0  0  0  0  0
  -25.2309  -13.3905   19.1536 C   0  0  0  0  0  0  0  0  0  0  0  0
  -26.8944  -22.5273   19.1022 C   0  0  0  0  0  0  0  0  0  0  0  0
  -24.2211  -20.3906   17.7707 C   0  0  0  0  0  0  0  0  0  0  0  0
  -25.7021  -22.1378   18.6216 C   0  0  0  0  0  0  0  0  0  0  0  0
  -25.4087  -20.7779   18.2493 C   0  0  0  0  0  0  0  0  0  0  0  0
  -22.7359  -13.2382   19.1683 C   0  0  0  0  0  0  0  0  0  0  0  0
  -22.2533  -29.2860   22.2004 C   0  0  0  0  0  0  0  0  0  0  0  0
  -24.8289  -31.1895   22.7154 C   0  0  0  0  0  0  0  0  0  0  0  0
  -28.2292  -31.3976   21.5271 C   0  0  0  0  0  0  0  0  0  0  0  0
  -30.3439  -15.2468   20.3426 C   0  0  0  0  0  0  0  0  0  0  0  0
  -17.4316  -28.9925   23.8504 C   0  0  0  0  0  0  0  0  0  0  0  0
  -23.8038  -27.7158   23.4195 C   0  0  0  0  0  0  0  0  0  0  0  0
  -25.1946  -29.1678   21.2511 C   0  0  0  0  0  0  0  0  0  0  0  0
  -18.4728  -30.1003   23.7124 C   0  0  0  0  0  0  0  0  0  0  0  0
  -30.0119  -11.7843   19.5826 C   0  0  0  0  0  0  0  0  0  0  0  0
  -29.6440  -23.3340   19.0097 C   0  0  0  0  0  0  0  0  0  0  0  0
  -19.0994  -30.0738   22.3220 C   0  0  0  0  0  0  0  0  0  0  0  0
  -28.5457  -24.3758   18.8283 C   0  0  0  0  0  0  0  0  0  0  0  0
  -28.5017  -11.5435   19.6412 C   0  0  0  0  0  0  0  0  0  0  0  0
  -30.4684  -12.7834   20.6443 C   0  0  0  0  0  0  0  0  0  0  0  0
  -28.2345  -13.8204   20.7048 C   0  0  0  0  0  0  0  0  0  0  0  0
  -29.1904  -21.9577   18.5341 C   0  0  0  0  0  0  0  0  0  0  0  0
  -19.8275  -28.7479   22.0702 C   0  0  1  0  0  0  0  0  0  0  0  0
  -27.2466  -23.9416   19.5053 C   0  0  1  0  0  0  0  0  0  1  0  0
  -23.4668  -29.1640   23.0779 C   0  0  1  0  0  0  0  0  0  0  0  0
  -27.7179  -12.8703   19.6121 C   0  0  2  0  0  0  0  0  0  0  0  0
  -30.7163  -21.7071   21.7450 C   0  0  0  0  0  0  0  0  0  0  0  0
  -27.4727  -18.3612   19.8817 C   0  0  0  0  0  0  0  0  0  0  0  0
  -30.2852  -32.3327   22.6207 C   0  0  0  0  0  0  0  0  0  0  0  0
  -24.1173  -33.7443   21.2064 C   0  0  0  0  0  0  0  0  0  0  0  0
  -26.5618  -34.1031   20.8016 C   0  0  0  0  0  0  0  0  0  0  0  0
  -25.6771  -34.0712   23.1337 C   0  0  0  0  0  0  0  0  0  0  0  0
  -29.7071  -28.8562   21.1867 C   0  0  0  0  0  0  0  0  0  0  0  0
  -28.0915  -21.0835   20.6450 C   0  0  0  0  0  0  0  0  0  0  0  0
  -25.8208  -31.9080   21.8328 C   0  0  1  0  0  0  0  0  0  0  0  0
  -29.4876  -31.0751   22.3125 C   0  0  2  0  0  0  0  0  0  0  0  0
  -25.5316  -33.4326   21.7352 C   0  0  0  0  0  0  0  0  0  0  0  0
  -25.7722  -11.5989   20.4362 N   0  0  0  0  0  0  0  0  0  0  0  0
  -26.2217  -12.6419   19.7176 N   0  0  0  0  0  0  0  0  0  0  0  0
  -24.5616  -29.8520   22.3907 N   0  0  0  0  0  0  0  0  0  0  0  0
  -29.6848  -14.0173   20.5535 N   0  0  0  0  0  0  0  0  0  0  0  0
  -25.5071  -14.4755   18.3994 N   0  0  0  0  0  0  0  0  0  0  0  0
  -22.1603  -12.7350   17.9937 N   0  0  0  0  0  0  0  0  0  0  0  0
  -29.4932  -16.3471   20.2406 N   0  0  0  0  0  0  0  0  0  0  0  0
  -21.1077  -28.7381   22.7452 N   0  0  0  0  0  0  0  0  0  0  0  0
  -27.1432  -31.5830   22.3563 N   0  0  0  0  0  0  0  0  0  0  0  0
  -27.9168  -21.5097   19.2133 N   0  3  1  0  0  0  0  0  0  0  0  0
  -30.3573  -30.1450   21.5381 N   0  3  0  0  0  0  0  0  0  0  0  0
  -22.0968  -14.0682   19.8584 O   0  0  0  0  0  0  0  0  0  0  0  0
  -22.3489  -29.8378   21.1104 O   0  0  0  0  0  0  0  0  0  0  0  0
  -24.3156  -31.7907   23.6624 O   0  0  0  0  0  0  0  0  0  0  0  0
  -28.2121  -31.4808   20.3010 O   0  0  0  0  0  0  0  0  0  0  0  0
  -31.5707  -15.3148   20.2314 O   0  0  0  0  0  0  0  0  0  0  0  0
  -21.1152   -7.9681   22.8198 O   0  0  0  0  0  0  0  0  0  0  0  0
  -26.2174  -24.8638   19.1613 O   0  0  0  0  0  0  0  0  0  1  0  0
  -23.4196   -3.3030   24.6448 F   0  0  0  0  0  0  0  0  0  0  0  0
  -20.2844   -5.5090   21.8683 F   0  0  0  0  0  0  0  0  0  0  0  0
  1  2  1  0  0  0  0
  1  5  2  0  0  0  0
  2  6  2  0  0  0  0
  3 10  2  0  0  0  0
  3 17  1  0  0  0  0
  4 11  1  0  0  0  0
  4 17  2  0  0  0  0
  5 19  1  0  0  0  0
  6 21  1  0  0  0  0
  7 12  2  0  0  0  0
  7 20  1  0  0  0  0
  8  9  1  0  0  0  0
  8 23  2  0  0  0  0
  9 26  2  0  0  0  0
 10 27  1  0  0  0  0
 11 27  2  0  0  0  0
 12 28  1  0  0  0  0
 13 14  2  0  0  0  0
 13 29  1  0  0  0  0
 14 30  1  0  0  0  0
 15 22  1  0  0  0  0
 15 28  2  0  0  0  0
 16 30  2  0  0  0  0
 16 31  1  0  0  0  0
 17 32  1  0  0  0  0
 18 32  1  0  0  0  0
 18 33  2  0  0  0  0
 18 38  1  0  0  0  0
 19 21  2  0  0  0  0
 19 43  1  0  0  0  0
 20 22  2  0  0  0  0
 20 44  1  0  0  0  0
 21 55  1  0  0  0  0
 22 45  1  0  0  0  0
 23 24  1  0  0  0  0
 23 59  1  0  0  0  0
 24 25  2  0  0  0  0
 24 66  1  0  0  0  0
 25 26  1  0  0  0  0
 25 60  1  0  0  0  0
 26 76  1  0  0  0  0
 27 86  1  0  0  0  0
 28 87  1  0  0  0  0
 29 31  2  0  0  0  0
 29 86  1  0  0  0  0
 30 88  1  0  0  0  0
 31 89  1  0  0  0  0
 32 70  2  0  0  0  0
 33 71  1  0  0  0  0
 33 74  1  0  0  0  0
 34 36  2  0  0  0  0
 34 56  1  0  0  0  0
 34 79  1  0  0  0  0
 35 37  2  0  0  0  0
 36 37  1  0  0  0  0
 38 75  1  0  0  0  0
 38 81  2  0  0  0  0
 39 57  1  0  0  0  0
 39 77  1  0  0  0  0
 39 82  2  0  0  0  0
 40 67  1  0  0  0  0
 40 72  1  0  0  0  0
 40 83  2  0  0  0  0
 41 68  1  0  0  0  0
 41 78  1  0  0  0  0
 41 84  2  0  0  0  0
 42 73  1  0  0  0  0
 42 76  1  0  0  0  0
 42 85  2  0  0  0  0
 43 46  1  0  0  0  0
 44 57  1  0  0  0  0
 45 72  1  0  0  0  0
 46 49  1  0  0  0  0
 47 51  1  0  0  0  0
 47 52  1  0  0  0  0
 48 50  1  0  0  0  0
 48 54  1  0  0  0  0
 49 55  1  0  0  0  0
 50 56  1  0  0  0  0
 51 58  1  0  0  0  0
 52 73  1  0  0  0  0
 53 58  1  0  0  0  0
 53 73  1  0  0  0  0
 54 79  1  0  0  0  0
 55 77  1  0  0  0  0
 56 87  1  0  0  0  0
 57 72  1  0  0  0  0
 58 71  1  0  0  0  0
 61 68  1  0  0  0  0
 62 69  1  0  0  0  0
 63 69  1  0  0  0  0
 64 69  1  0  0  0  0
 65 80  1  0  0  0  0
 66 79  1  0  0  0  0
 67 69  1  0  0  0  0
 67 78  1  0  0  0  0
 68 80  1  0  0  0  0
 70 71  1  0  0  0  0
M  CHG  2  79   1  80   1
M  ISO  4  42 100  56 101  76 100  87 101
M  END
> <Batch ID>
0039

> <Smiles>
C=CC=C1N(Cc2c(C)ccc([100NH:0][100C:0](=O)N3CCCC(n4nc(-c5ccc(Oc6ccc(F)cc6F)cc5)c(C(N)=O)c4N)C3)c2C)CCC[101CH:1]1[101O:1]c1ccc2c(c1)CN(C(=O)C(NC(=O)C(C)NC)C(C)(C)C)C(C(=O)NC1CCCc3ccccc31)C2

> <Shape>
0.340

> <Color>
0.111

> <Negative vol penalty>
0.000

$$$$

  -OEChem-04042322043D

 85 93  0     1  0  0  0  0  0999 V2000
  -30.2020  -23.6278   14.2960 C   0  0  0  0  0  0  0  0  0  0  0  0
  -29.9393  -24.9931   14.2896 C   0  0  0  0  0  0  0  0  0  0  0  0
  -26.1180  -13.5771   18.8967 C   0  0  0  0  0  0  0  0  0  0  0  0
  -25.2881  -13.9121   21.1408 C   0  0  0  0  0  0  0  0  0  0  0  0
  -29.4741  -22.7858   15.1341 C   0  0  0  0  0  0  0  0  0  0  0  0
  -28.9569  -25.5183   15.1298 C   0  0  0  0  0  0  0  0  0  0  0  0
  -24.2457  -30.1608   20.1948 C   0  0  0  0  0  0  0  0  0  0  0  0
  -25.9816  -12.1977   19.0522 C   0  0  0  0  0  0  0  0  0  0  0  0
  -25.1517  -12.5327   21.2963 C   0  0  0  0  0  0  0  0  0  0  0  0
  -23.4606  -29.8997   21.3169 C   0  0  0  0  0  0  0  0  0  0  0  0
  -24.2446   -9.1185   22.1559 C   0  0  0  0  0  0  0  0  0  0  0  0
  -23.0664   -8.6435   22.7318 C   0  0  0  0  0  0  0  0  0  0  0  0
  -25.1289  -28.3515   22.1165 C   0  0  0  0  0  0  0  0  0  0  0  0
  -25.0486  -24.4850   21.3207 C   0  0  0  0  0  0  0  0  0  0  0  0
  -23.4196  -23.6358   23.4201 C   0  0  0  0  0  0  0  0  0  0  0  0
  -21.7877   -9.6494   20.9458 C   0  0  0  0  0  0  0  0  0  0  0  0
  -25.7713  -14.4343   19.9410 C   0  0  0  0  0  0  0  0  0  0  0  0
  -24.9478  -16.7594   19.2903 C   0  0  0  0  0  0  0  0  0  0  0  0
  -28.4739  -23.3001   15.9756 C   0  0  0  0  0  0  0  0  0  0  0  0
  -25.4754  -29.5100   20.0194 C   0  0  0  0  0  0  0  0  0  0  0  0
  -28.2279  -24.6880   16.0004 C   0  0  0  0  0  0  0  0  0  0  0  0
  -25.9289  -28.6081   20.9925 C   0  0  0  0  0  0  0  0  0  0  0  0
  -25.6062  -23.8122   22.4078 C   0  0  0  0  0  0  0  0  0  0  0  0
  -22.8620  -24.3086   22.3329 C   0  0  0  0  0  0  0  0  0  0  0  0
  -25.4985  -11.6754   20.2520 C   0  0  0  0  0  0  0  0  0  0  0  0
  -23.9008  -28.9928   22.2765 C   0  0  0  0  0  0  0  0  0  0  0  0
  -24.1944   -9.8592   20.9749 C   0  0  0  0  0  0  0  0  0  0  0  0
  -21.8379   -8.9089   22.1268 C   0  0  0  0  0  0  0  0  0  0  0  0
  -22.9659  -10.1246   20.3699 C   0  0  0  0  0  0  0  0  0  0  0  0
  -24.7917  -23.3875   23.4576 C   0  0  0  0  0  0  0  0  0  0  0  0
  -23.6765  -24.7333   21.2832 C   0  0  0  0  0  0  0  0  0  0  0  0
  -25.9125  -15.8593   19.7812 C   0  0  0  0  0  0  0  0  0  0  0  0
  -25.5663  -17.9849   19.3370 C   0  0  0  0  0  0  0  0  0  0  0  0
  -23.6119  -16.5101   18.8331 C   0  0  0  0  0  0  0  0  0  0  0  0
  -26.6713  -27.5220   17.8465 C   0  0  0  0  0  0  0  0  0  0  0  0
  -29.4039  -27.9286   19.5465 C   0  0  0  0  0  0  0  0  0  0  0  0
  -30.3361  -28.1221   23.0266 C   0  0  0  0  0  0  0  0  0  0  0  0
  -28.7178  -21.7476   21.9931 C   0  0  0  0  0  0  0  0  0  0  0  0
  -27.7219  -22.3446   16.8681 C   0  0  0  0  0  0  0  0  0  0  0  0
  -26.3228  -29.8227   18.8167 C   0  0  0  0  0  0  0  0  0  0  0  0
  -27.2508  -27.8983   20.8613 C   0  0  0  0  0  0  0  0  0  0  0  0
  -26.4110  -22.9246   17.3892 C   0  0  0  0  0  0  0  0  0  0  0  0
  -30.4059  -19.2005   20.1659 C   0  0  0  0  0  0  0  0  0  0  0  0
  -26.6497  -24.3113   17.9676 C   0  0  0  0  0  0  0  0  0  0  0  0
  -29.3095  -18.1761   19.8682 C   0  0  0  0  0  0  0  0  0  0  0  0
  -30.2264  -19.8350   21.5433 C   0  0  0  0  0  0  0  0  0  0  0  0
  -27.8008  -19.4027   21.4862 C   0  0  0  0  0  0  0  0  0  0  0  0
  -27.1431  -25.2778   16.8834 C   0  0  1  0  0  0  0  0  0  0  0  0
  -27.3205  -28.7173   18.4850 C   0  0  1  0  0  0  0  0  0  0  0  0
  -27.9074  -18.7764   20.0853 C   0  0  2  0  0  0  0  0  0  0  0  0
  -32.2699  -29.2741   24.1360 C   0  0  0  0  0  0  0  0  0  0  0  0
  -30.7850  -25.2190   19.3000 C   0  0  0  0  0  0  0  0  0  0  0  0
  -31.8022  -25.6106   21.5538 C   0  0  0  0  0  0  0  0  0  0  0  0
  -32.3327  -27.1495   19.6636 C   0  0  0  0  0  0  0  0  0  0  0  0
  -28.5469  -29.6408   24.8297 C   0  0  0  0  0  0  0  0  0  0  0  0
  -27.0804  -23.5656   22.4093 C   0  0  0  0  0  0  0  0  0  0  0  0
  -21.3824  -24.5570   22.3304 C   0  0  0  0  0  0  0  0  0  0  0  0
  -21.0459  -27.8879   24.1886 C   0  0  0  0  0  0  0  0  0  0  0  0
  -21.4360  -26.4325   23.9791 C   0  0  0  0  0  0  0  0  0  0  0  0
  -21.7219  -28.8495   23.2189 C   0  0  0  0  0  0  0  0  0  1  0  0
  -30.0410  -27.2374   20.7277 C   0  0  1  0  0  0  0  0  0  0  0  0
  -30.7945  -29.3594   23.7771 C   0  0  2  0  0  0  0  0  0  0  0  0
  -31.2120  -26.3047   20.3079 C   0  0  0  0  0  0  0  0  0  0  0  0
  -27.0570  -16.4616   20.1151 N   0  0  0  0  0  0  0  0  0  0  0  0
  -26.8154  -17.7533   19.8334 N   0  0  0  0  0  0  0  0  0  0  0  0
  -28.0404  -28.2329   19.6646 N   0  0  0  0  0  0  0  0  0  0  0  0
  -28.8767  -20.3867   21.6840 N   0  0  0  0  0  0  0  0  0  0  0  0
  -25.1582  -19.2271   19.0014 N   0  0  0  0  0  0  0  0  0  0  0  0
  -23.1341  -15.1927   18.8523 N   0  0  0  0  0  0  0  0  0  0  0  0
  -27.5555  -26.5159   17.5068 N   0  0  0  0  0  0  0  0  0  0  0  0
  -30.4222  -28.2920   21.6609 N   0  0  0  0  0  0  0  0  0  0  0  0
  -27.4053  -22.1905   22.1022 N   0  0  0  0  0  0  0  0  0  0  0  0
  -30.0132  -29.5208   25.0359 N   0  3  0  0  0  0  0  0  0  0  0  0
  -21.0277  -25.9716   22.6314 N   0  3  0  0  0  0  0  0  0  0  0  0
  -22.8699  -17.4261   18.4043 O   0  0  0  0  0  0  0  0  0  0  0  0
  -25.4578  -27.5126   17.6761 O   0  0  0  0  0  0  0  0  0  0  0  0
  -30.0925  -28.1952   18.5583 O   0  0  0  0  0  0  0  0  0  0  0  0
  -29.9446  -27.1052   23.5949 O   0  0  0  0  0  0  0  0  0  0  0  0
  -29.6747  -22.5127   22.1544 O   0  0  0  0  0  0  0  0  0  0  0  0
  -25.3650  -10.3295   20.4040 O   0  0  0  0  0  0  0  0  0  0  0  0
  -23.1361  -28.7356   23.3724 O   0  0  0  0  0  0  0  0  0  1  0  0
  -20.7067   -8.4513   22.6791 F   0  0  0  0  0  0  0  0  0  0  0  0
  -22.9114  -10.8345   19.2346 F   0  0  0  0  0  0  0  0  0  0  0  0
  -25.4466  -22.5511   24.8180 Cl  0  0  0  0  0  0  0  0  0  0  0  0
  -23.0218  -25.5686   19.9219 Cl  0  0  0  0  0  0  0  0  0  0  0  0
  1  2  1  0  0  0  0
  1  5  2  0  0  0  0
  2  6  2  0  0  0  0
  3  8  2  0  0  0  0
  3 17  1  0  0  0  0
  4  9  1  0  0  0  0
  4 17  2  0  0  0  0
  5 19  1  0  0  0  0
  6 21  1  0  0  0  0
  7 10  2  0  0  0  0
  7 20  1  0  0  0  0
  8 25  1  0  0  0  0
  9 25  2  0  0  0  0
 10 26  1  0  0  0  0
 11 12  2  0  0  0  0
 11 27  1  0  0  0  0
 12 28  1  0  0  0  0
 13 22  1  0  0  0  0
 13 26  2  0  0  0  0
 14 23  2  0  0  0  0
 14 31  1  0  0  0  0
 15 24  1  0  0  0  0
 15 30  2  0  0  0  0
 16 28  2  0  0  0  0
 16 29  1  0  0  0  0
 17 32  1  0  0  0  0
 18 32  1  0  0  0  0
 18 33  2  0  0  0  0
 18 34  1  0  0  0  0
 19 21  2  0  0  0  0
 19 39  1  0  0  0  0
 20 22  2  0  0  0  0
 20 40  1  0  0  0  0
 21 48  1  0  0  0  0
 22 41  1  0  0  0  0
 23 30  1  0  0  0  0
 23 56  1  0  0  0  0
 24 31  2  0  0  0  0
 24 57  1  0  0  0  0
 25 80  1  0  0  0  0
 26 81  1  0  0  0  0
 27 29  2  0  0  0  0
 27 80  1  0  0  0  0
 28 82  1  0  0  0  0
 29 83  1  0  0  0  0
 30 84  1  0  0  0  0
 31 85  1  0  0  0  0
 32 64  2  0  0  0  0
 33 65  1  0  0  0  0
 33 68  1  0  0  0  0
 34 69  1  0  0  0  0
 34 75  2  0  0  0  0
 35 49  1  0  0  0  0
 35 70  1  0  0  0  0
 35 76  2  0  0  0  0
 36 61  1  0  0  0  0
 36 66  1  0  0  0  0
 36 77  2  0  0  0  0
 37 62  1  0  0  0  0
 37 71  1  0  0  0  0
 37 78  2  0  0  0  0
 38 67  1  0  0  0  0
 38 72  1  0  0  0  0
 38 79  2  0  0  0  0
 39 42  1  0  0  0  0
 40 49  1  0  0  0  0
 41 66  1  0  0  0  0
 42 44  1  0  0  0  0
 43 45  1  0  0  0  0
 43 46  1  0  0  0  0
 44 48  1  0  0  0  0
 45 50  1  0  0  0  0
 46 67  1  0  0  0  0
 47 50  1  0  0  0  0
 47 67  1  0  0  0  0
 48 70  1  0  0  0  0
 49 66  1  0  0  0  0
 50 65  1  0  0  0  0
 51 62  1  0  0  0  0
 52 63  1  0  0  0  0
 53 63  1  0  0  0  0
 54 63  1  0  0  0  0
 55 73  1  0  0  0  0
 56 72  1  0  0  0  0
 57 74  1  0  0  0  0
 58 59  1  0  0  0  0
 58 60  1  0  0  0  0
 59 74  1  0  0  0  0
 60 81  1  0  0  0  0
 61 63  1  0  0  0  0
 61 71  1  0  0  0  0
 62 73  1  0  0  0  0
 64 65  1  0  0  0  0
M  CHG  2  73   1  74   1
M  ISO  4  38 100  60 101  72 100  81 101
M  END
> <Batch ID>
0039

> <Smiles>
CNC(C)C(=O)NC(C(=O)N1Cc2cc([101O:1][101CH2:1]CCNCc3cc(Cl)c(C[100NH:0][100C:0](=O)N4CCCC(n5nc(-c6ccc(Oc7ccc(F)cc7F)cc6)c(C(N)=O)c5N)C4)cc3Cl)ccc2CC1C(=O)NC1CCCc2ccccc21)C(C)(C)C

> <Shape>
0.214

> <Color>
0.063

> <Negative vol penalty>
0.000

$$$$

  -OEChem-04042322043D

 88 97  0     1  0  0  0  0  0999 V2000
  -27.1949  -36.9718   24.8801 C   0  0  0  0  0  0  0  0  0  0  0  0
  -28.2581  -36.0752   24.8436 C   0  0  0  0  0  0  0  0  0  0  0  0
  -23.0836   -9.8585   19.9441 C   0  0  0  0  0  0  0  0  0  0  0  0
  -23.8361   -9.8783   22.2398 C   0  0  0  0  0  0  0  0  0  0  0  0
  -25.8841  -36.4969   24.8890 C   0  0  0  0  0  0  0  0  0  0  0  0
  -28.0110  -34.7031   24.8171 C   0  0  0  0  0  0  0  0  0  0  0  0
  -30.6891  -28.5979   22.1960 C   0  0  0  0  0  0  0  0  0  0  0  0
  -22.3425   -8.7042   20.1970 C   0  0  0  0  0  0  0  0  0  0  0  0
  -23.0949   -8.7240   22.4927 C   0  0  0  0  0  0  0  0  0  0  0  0
  -31.0706  -27.3230   22.6117 C   0  0  0  0  0  0  0  0  0  0  0  0
  -19.8673   -7.9191   23.0886 C   0  0  0  0  0  0  0  0  0  0  0  0
  -19.1067   -7.8822   24.2572 C   0  0  0  0  0  0  0  0  0  0  0  0
  -28.7640  -26.6194   22.5502 C   0  0  0  0  0  0  0  0  0  0  0  0
  -31.4258  -19.1654   21.4493 C   0  0  0  0  0  0  0  0  0  0  0  0
  -31.1789  -18.4318   23.7379 C   0  0  0  0  0  0  0  0  0  0  0  0
  -20.3516   -5.9520   25.0065 C   0  0  0  0  0  0  0  0  0  0  0  0
  -23.8305  -10.4455   20.9655 C   0  0  0  0  0  0  0  0  0  0  0  0
  -24.1650  -12.9711   20.8350 C   0  0  0  0  0  0  0  0  0  0  0  0
  -25.6207  -35.1185   24.8528 C   0  0  0  0  0  0  0  0  0  0  0  0
  -29.3388  -28.8968   21.9644 C   0  0  0  0  0  0  0  0  0  0  0  0
  -26.6954  -34.2093   24.8269 C   0  0  0  0  0  0  0  0  0  0  0  0
  -28.3683  -27.8982   22.1291 C   0  0  0  0  0  0  0  0  0  0  0  0
  -31.5481  -19.4120   22.8167 C   0  0  0  0  0  0  0  0  0  0  0  0
  -30.9341  -17.9386   21.0031 C   0  0  0  0  0  0  0  0  0  0  0  0
  -30.6873  -17.2050   23.2917 C   0  0  0  0  0  0  0  0  0  0  0  0
  -30.5649  -16.9585   21.9243 C   0  0  0  0  0  0  0  0  0  0  0  0
  -22.3481   -8.1370   21.4713 C   0  0  0  0  0  0  0  0  0  0  0  0
  -30.1076  -26.3343   22.7917 C   0  0  0  0  0  0  0  0  0  0  0  0
  -20.8700   -6.9724   22.8788 C   0  0  0  0  0  0  0  0  0  0  0  0
  -19.3489   -6.8987   25.2162 C   0  0  0  0  0  0  0  0  0  0  0  0
  -21.1122   -5.9888   23.8378 C   0  0  0  0  0  0  0  0  0  0  0  0
  -24.5968  -11.6375   20.7048 C   0  0  0  0  0  0  0  0  0  0  0  0
  -25.2560  -13.7223   20.4718 C   0  0  0  0  0  0  0  0  0  0  0  0
  -22.8916  -13.4849   21.2475 C   0  0  0  0  0  0  0  0  0  0  0  0
  -27.2410  -30.9230   23.2282 C   0  0  0  0  0  0  0  0  0  0  0  0
  -25.3416  -29.8429   20.8308 C   0  0  0  0  0  0  0  0  0  0  0  0
  -24.6102  -27.3566   18.6104 C   0  0  0  0  0  0  0  0  0  0  0  0
  -30.7184  -14.7854   20.6591 C   0  0  0  0  0  0  0  0  0  0  0  0
  -24.1878  -34.6515   24.9117 C   0  0  0  0  0  0  0  0  0  0  0  0
  -28.9466  -30.2694   21.4905 C   0  0  0  0  0  0  0  0  0  0  0  0
  -26.9075  -28.1623   21.8742 C   0  0  0  0  0  0  0  0  0  0  0  0
  -24.0056  -33.1918   24.5036 C   0  0  0  0  0  0  0  0  0  0  0  0
  -29.6190  -12.3573   18.2984 C   0  0  0  0  0  0  0  0  0  0  0  0
  -25.0473  -32.3122   25.1877 C   0  0  0  0  0  0  0  0  0  0  0  0
  -28.1789  -12.0633   18.7247 C   0  0  0  0  0  0  0  0  0  0  0  0
  -32.6992  -24.0960   23.0666 C   0  0  0  0  0  0  0  0  0  0  0  0
  -32.6518  -23.4814   24.4669 C   0  0  0  0  0  0  0  0  0  0  0  0
  -30.7105  -23.1185   21.8010 C   0  0  0  0  0  0  0  0  0  0  0  0
  -30.5295  -12.5945   19.5019 C   0  0  0  0  0  0  0  0  0  0  0  0
  -28.6159  -13.3194   20.8738 C   0  0  0  0  0  0  0  0  0  0  0  0
  -30.0608  -22.1770   22.8046 C   0  0  0  0  0  0  0  0  0  0  0  0
  -26.4676  -32.7142   24.7723 C   0  0  1  0  0  0  0  0  0  0  0  0
  -27.4873  -30.6072   21.7801 C   0  0  1  0  0  0  0  0  0  0  0  0
  -27.6474  -13.1378   19.6936 C   0  0  2  0  0  0  0  0  0  0  0  0
  -31.3762  -24.3761   22.3607 C   0  0  1  0  0  0  0  0  0  1  0  0
  -31.4327  -22.6548   24.8799 C   0  0  2  0  0  0  0  0  0  0  0  0
  -30.8141  -17.7042   19.5318 C   0  0  0  0  0  0  0  0  0  0  0  0
  -30.3003  -16.1744   24.3028 C   0  0  0  0  0  0  0  0  0  0  0  0
  -31.6768  -21.9503   26.2184 C   0  0  0  0  0  0  0  0  0  0  0  0
  -22.9772  -26.7445   16.8060 C   0  0  0  0  0  0  0  0  0  0  0  0
  -23.2429  -29.2021   22.9509 C   0  0  0  0  0  0  0  0  0  0  0  0
  -22.0796  -27.7630   21.2646 C   0  0  0  0  0  0  0  0  0  0  0  0
  -22.3311  -30.2102   20.8517 C   0  0  0  0  0  0  0  0  0  0  0  0
  -26.7462  -27.2063   16.5674 C   0  0  0  0  0  0  0  0  0  0  0  0
  -32.0766  -20.7315   23.2967 C   0  0  0  0  0  0  0  0  0  0  0  0
  -24.3575  -28.7087   20.6749 C   0  0  1  0  0  0  0  0  0  0  0  0
  -24.3176  -27.3900   17.1212 C   0  0  2  0  0  0  0  0  0  0  0  0
  -23.0300  -28.9663   21.4423 C   0  0  0  0  0  0  0  0  0  0  0  0
  -25.8632  -11.5437   20.2910 N   0  0  0  0  0  0  0  0  0  0  0  0
  -26.2366  -12.8278   20.1580 N   0  0  0  0  0  0  0  0  0  0  0  0
  -26.5734  -29.5217   21.4184 N   0  0  0  0  0  0  0  0  0  0  0  0
  -29.9646  -13.6276   20.3728 N   0  0  0  0  0  0  0  0  0  0  0  0
  -25.4626  -15.0540   20.3933 N   0  0  0  0  0  0  0  0  0  0  0  0
  -21.8814  -12.5742   21.5857 N   0  0  0  0  0  0  0  0  0  0  0  0
  -30.0656  -15.7122   21.4712 N   0  0  0  0  0  0  0  0  0  0  0  0
  -26.7720  -32.2032   23.4530 N   0  0  0  0  0  0  0  0  0  0  0  0
  -24.1889  -28.5089   19.2397 N   0  0  0  0  0  0  0  0  0  0  0  0
  -31.0033  -21.6314   23.8481 N   0  3  2  0  0  0  0  0  0  0  0  0
  -25.3782  -26.6624   16.3685 N   0  3  0  0  0  0  0  0  0  0  0  0
  -22.6514  -14.7151   21.2984 O   0  0  0  0  0  0  0  0  0  0  0  0
  -27.4589  -30.0680   24.0787 O   0  0  0  0  0  0  0  0  0  0  0  0
  -25.0315  -30.9707   20.4390 O   0  0  0  0  0  0  0  0  0  0  0  0
  -25.1544  -26.4021   19.1611 O   0  0  0  0  0  0  0  0  0  0  0  0
  -31.8485  -14.9554   20.1944 O   0  0  0  0  0  0  0  0  0  0  0  0
  -21.6248   -7.0108   21.7185 O   0  0  0  0  0  0  0  0  0  0  0  0
  -30.4771  -25.0893   23.1980 O   0  0  0  0  0  0  0  0  0  1  0  0
  -18.6195   -6.8643   26.3391 F   0  0  0  0  0  0  0  0  0  0  0  0
  -22.0750   -5.0774   23.6425 F   0  0  0  0  0  0  0  0  0  0  0  0
  1  2  1  0  0  0  0
  1  5  2  0  0  0  0
  2  6  2  0  0  0  0
  3  8  2  0  0  0  0
  3 17  1  0  0  0  0
  4  9  1  0  0  0  0
  4 17  2  0  0  0  0
  5 19  1  0  0  0  0
  6 21  1  0  0  0  0
  7 10  2  0  0  0  0
  7 20  1  0  0  0  0
  8 27  1  0  0  0  0
  9 27  2  0  0  0  0
 10 28  1  0  0  0  0
 11 12  2  0  0  0  0
 11 29  1  0  0  0  0
 12 30  1  0  0  0  0
 13 22  1  0  0  0  0
 13 28  2  0  0  0  0
 14 23  1  0  0  0  0
 14 24  2  0  0  0  0
 15 23  2  0  0  0  0
 15 25  1  0  0  0  0
 16 30  2  0  0  0  0
 16 31  1  0  0  0  0
 17 32  1  0  0  0  0
 18 32  1  0  0  0  0
 18 33  2  0  0  0  0
 18 34  1  0  0  0  0
 19 21  2  0  0  0  0
 19 39  1  0  0  0  0
 20 22  2  0  0  0  0
 20 40  1  0  0  0  0
 21 52  1  0  0  0  0
 22 41  1  0  0  0  0
 23 65  1  0  0  0  0
 24 26  1  0  0  0  0
 24 57  1  0  0  0  0
 25 26  2  0  0  0  0
 25 58  1  0  0  0  0
 26 75  1  0  0  0  0
 27 85  1  0  0  0  0
 28 86  1  0  0  0  0
 29 31  2  0  0  0  0
 29 85  1  0  0  0  0
 30 87  1  0  0  0  0
 31 88  1  0  0  0  0
 32 69  2  0  0  0  0
 33 70  1  0  0  0  0
 33 73  1  0  0  0  0
 34 74  1  0  0  0  0
 34 80  2  0  0  0  0
 35 53  1  0  0  0  0
 35 76  1  0  0  0  0
 35 81  2  0  0  0  0
 36 66  1  0  0  0  0
 36 71  1  0  0  0  0
 36 82  2  0  0  0  0
 37 67  1  0  0  0  0
 37 77  1  0  0  0  0
 37 83  2  0  0  0  0
 38 72  1  0  0  0  0
 38 75  1  0  0  0  0
 38 84  2  0  0  0  0
 39 42  1  0  0  0  0
 40 53  1  0  0  0  0
 41 71  1  0  0  0  0
 42 44  1  0  0  0  0
 43 45  1  0  0  0  0
 43 49  1  0  0  0  0
 44 52  1  0  0  0  0
 45 54  1  0  0  0  0
 46 47  1  0  0  0  0
 46 55  1  0  0  0  0
 47 56  1  0  0  0  0
 48 51  1  0  0  0  0
 48 55  1  0  0  0  0
 49 72  1  0  0  0  0
 50 54  1  0  0  0  0
 50 72  1  0  0  0  0
 51 78  1  0  0  0  0
 52 76  1  0  0  0  0
 53 71  1  0  0  0  0
 54 70  1  0  0  0  0
 55 86  1  0  0  0  0
 56 59  1  0  0  0  0
 56 78  1  0  0  0  0
 60 67  1  0  0  0  0
 61 68  1  0  0  0  0
 62 68  1  0  0  0  0
 63 68  1  0  0  0  0
 64 79  1  0  0  0  0
 65 78  1  0  0  0  0
 66 68  1  0  0  0  0
 66 77  1  0  0  0  0
 67 79  1  0  0  0  0
 69 70  1  0  0  0  0
M  CHG  2  78   1  79   1
M  ISO  4  38 100  55 101  75 100  86 101
M  END
> <Batch ID>
0039

> <Smiles>
CNC(C)C(=O)NC(C(=O)N1Cc2cc([101O:1][101CH:1]3CCC(C)N(Cc4cc(C)c([100NH:0][100C:0](=O)N5CCCC(n6nc(-c7ccc(Oc8ccc(F)cc8F)cc7)c(C(N)=O)c6N)C5)c(C)c4)CC3)ccc2CC1C(=O)NC1CCCc2ccccc21)C(C)(C)C

> <Shape>
0.353

> <Color>
0.188

> <Negative vol penalty>
0.000

$$$$

  -OEChem-04042322043D

 89 98  0     1  0  0  0  0  0999 V2000
  -16.5873  -28.9811   23.9670 C   0  0  0  0  0  0  0  0  0  0  0  0
  -17.0401  -28.4690   22.7563 C   0  0  0  0  0  0  0  0  0  0  0  0
  -26.1857  -13.6509   19.6741 C   0  0  0  0  0  0  0  0  0  0  0  0
  -24.2609  -13.9303   21.1074 C   0  0  0  0  0  0  0  0  0  0  0  0
  -17.4235  -29.7899   24.7336 C   0  0  0  0  0  0  0  0  0  0  0  0
  -18.3332  -28.7557   22.3176 C   0  0  0  0  0  0  0  0  0  0  0  0
  -25.9523  -28.7263   18.9487 C   0  0  0  0  0  0  0  0  0  0  0  0
  -29.2126  -25.4703   18.9046 C   0  0  0  0  0  0  0  0  0  0  0  0
  -28.2318  -24.4811   18.9756 C   0  0  0  0  0  0  0  0  0  0  0  0
  -25.7286  -12.3853   19.3070 C   0  0  0  0  0  0  0  0  0  0  0  0
  -23.8038  -12.6646   20.7402 C   0  0  0  0  0  0  0  0  0  0  0  0
  -27.2027  -29.1968   19.3474 C   0  0  0  0  0  0  0  0  0  0  0  0
  -24.4820   -9.4466   21.5246 C   0  0  0  0  0  0  0  0  0  0  0  0
  -24.0190   -8.6060   22.5368 C   0  0  0  0  0  0  0  0  0  0  0  0
  -26.7532  -28.4639   21.6013 C   0  0  0  0  0  0  0  0  0  0  0  0
  -21.8517   -8.5185   21.4727 C   0  0  0  0  0  0  0  0  0  0  0  0
  -25.4518  -14.4235   20.5744 C   0  0  0  0  0  0  0  0  0  0  0  0
  -27.1425  -16.0443   21.5853 C   0  0  0  0  0  0  0  0  0  0  0  0
  -18.7231  -30.0963   24.2974 C   0  0  0  0  0  0  0  0  0  0  0  0
  -25.0871  -28.1299   19.8772 C   0  0  0  0  0  0  0  0  0  0  0  0
  -19.2007  -29.5504   23.0886 C   0  0  0  0  0  0  0  0  0  0  0  0
  -25.4934  -27.9844   21.2113 C   0  0  0  0  0  0  0  0  0  0  0  0
  -30.4526  -25.2677   19.5106 C   0  0  0  0  0  0  0  0  0  0  0  0
  -30.7116  -24.0760   20.1876 C   0  0  0  0  0  0  0  0  0  0  0  0
  -29.7307  -23.0869   20.2587 C   0  0  0  0  0  0  0  0  0  0  0  0
  -28.4908  -23.2894   19.6527 C   0  0  0  0  0  0  0  0  0  0  0  0
  -24.5377  -11.8921   19.8400 C   0  0  0  0  0  0  0  0  0  0  0  0
  -27.6022  -29.0682   20.6744 C   0  0  0  0  0  0  0  0  0  0  0  0
  -23.6299   -9.8233   20.4864 C   0  0  0  0  0  0  0  0  0  0  0  0
  -22.7038   -8.1419   22.5108 C   0  0  0  0  0  0  0  0  0  0  0  0
  -22.3147   -9.3592   20.4605 C   0  0  0  0  0  0  0  0  0  0  0  0
  -25.9237  -15.7307   20.9544 C   0  0  0  0  0  0  0  0  0  0  0  0
  -27.1140  -17.4101   21.7276 C   0  0  0  0  0  0  0  0  0  0  0  0
  -32.6900  -28.1130   20.5680 C   0  0  0  0  0  0  0  0  0  0  0  0
  -28.2054  -15.1785   22.0050 C   0  0  0  0  0  0  0  0  0  0  0  0
  -33.8828  -27.8630   21.1288 C   0  0  0  0  0  0  0  0  0  0  0  0
  -22.1902  -28.8042   20.9984 C   0  0  0  0  0  0  0  0  0  0  0  0
  -22.5219  -25.9370   22.4788 C   0  0  0  0  0  0  0  0  0  0  0  0
  -25.1367  -24.1554   24.2127 C   0  0  0  0  0  0  0  0  0  0  0  0
  -26.0998  -22.4980   19.7057 C   0  0  0  0  0  0  0  0  0  0  0  0
  -19.5886  -30.9703   25.1705 C   0  0  0  0  0  0  0  0  0  0  0  0
  -23.7524  -27.6034   19.4256 C   0  0  0  0  0  0  0  0  0  0  0  0
  -24.6098  -27.3334   22.2428 C   0  0  0  0  0  0  0  0  0  0  0  0
  -32.3760  -29.3945   19.8450 C   0  0  0  0  0  0  0  0  0  0  0  0
  -20.7693  -31.5772   24.4195 C   0  0  0  0  0  0  0  0  0  0  0  0
  -31.0813  -29.9988   20.3750 C   0  0  0  0  0  0  0  0  0  0  0  0
  -23.3356  -20.7128   21.0657 C   0  0  0  0  0  0  0  0  0  0  0  0
  -21.5037  -30.4943   23.6434 C   0  0  0  0  0  0  0  0  0  0  0  0
  -23.8628  -19.2833   21.2099 C   0  0  0  0  0  0  0  0  0  0  0  0
  -23.8765  -21.3927   19.8092 C   0  0  0  0  0  0  0  0  0  0  0  0
  -25.8654  -19.9389   19.8147 C   0  0  0  0  0  0  0  0  0  0  0  0
  -30.3894  -27.7294   21.2327 C   0  0  0  0  0  0  0  0  0  0  0  0
  -20.5927  -29.8738   22.5766 C   0  0  1  0  0  0  0  0  0  0  0  0
  -22.7440  -27.4769   20.5634 C   0  0  1  0  0  0  0  0  0  0  0  0
  -25.3994  -19.2355   21.0999 C   0  0  2  0  0  0  0  0  0  0  0  0
  -29.9637  -28.9574   20.4321 C   0  0  1  0  0  0  0  0  0  1  0  0
  -32.0425  -23.8617   20.8365 C   0  0  0  0  0  0  0  0  0  0  0  0
  -30.0109  -21.8088   20.9858 C   0  0  0  0  0  0  0  0  0  0  0  0
  -34.1686  -26.5760   21.8439 C   0  0  0  0  0  0  0  0  0  0  0  0
  -35.0066  -28.8550   21.0768 C   0  0  0  0  0  0  0  0  0  0  0  0
  -25.5064  -21.6924   24.5192 C   0  0  0  0  0  0  0  0  0  0  0  0
  -21.0145  -26.3313   25.1022 C   0  0  0  0  0  0  0  0  0  0  0  0
  -22.5885  -24.7035   26.1705 C   0  0  0  0  0  0  0  0  0  0  0  0
  -21.1120  -23.9643   24.3007 C   0  0  0  0  0  0  0  0  0  0  0  0
  -27.8660  -24.3062   23.0783 C   0  0  0  0  0  0  0  0  0  0  0  0
  -31.4899  -26.3479   19.4190 C   0  0  0  0  0  0  0  0  0  0  0  0
  -23.0767  -25.4764   23.8050 C   0  0  1  0  0  0  0  0  0  0  0  0
  -25.8829  -22.9293   23.7185 C   0  0  2  0  0  0  0  0  0  0  0  0
  -21.9578  -25.1422   24.8316 C   0  0  0  0  0  0  0  0  0  0  0  0
  -25.1754  -16.8104   20.7128 N   0  0  0  0  0  0  0  0  0  0  0  0
  -25.9260  -17.8158   21.1944 N   0  0  0  0  0  0  0  0  0  0  0  0
  -23.3118  -26.8403   21.7536 N   0  0  0  0  0  0  0  0  0  0  0  0
  -25.3385  -21.3121   19.7752 N   0  0  0  0  0  0  0  0  0  0  0  0
  -27.9895  -18.2917   22.2557 N   0  0  0  0  0  0  0  0  0  0  0  0
  -28.1631  -14.6489   23.3020 N   0  0  0  0  0  0  0  0  0  0  0  0
  -27.4799  -22.2984   19.7122 N   0  0  0  0  0  0  0  0  0  0  0  0
  -21.2507  -28.7181   22.0081 N   0  0  0  0  0  0  0  0  0  0  0  0
  -23.9687  -24.3606   23.5090 N   0  0  0  0  0  0  0  0  0  0  0  0
  -31.6603  -27.1114   20.7031 N   0  3  1  0  0  0  0  0  0  0  0  0
  -27.3541  -23.1358   23.8365 N   0  3  0  0  0  0  0  0  0  0  0  0
  -29.1727  -14.8962   21.2580 O   0  0  0  0  0  0  0  0  0  0  0  0
  -22.5870  -29.8305   20.4590 O   0  0  0  0  0  0  0  0  0  0  0  0
  -21.4312  -25.5054   22.0969 O   0  0  0  0  0  0  0  0  0  0  0  0
  -25.5468  -24.8586   25.1335 O   0  0  0  0  0  0  0  0  0  0  0  0
  -25.5669  -23.6102   19.6723 O   0  0  0  0  0  0  0  0  0  0  0  0
  -24.0913  -10.6572   19.4818 O   0  0  0  0  0  0  0  0  0  0  0  0
  -28.8218  -29.5272   21.0663 O   0  0  0  0  0  0  0  0  0  1  0  0
  -22.2598   -7.3335   23.4821 F   0  0  0  0  0  0  0  0  0  0  0  0
  -21.4917   -9.7166   19.4651 F   0  0  0  0  0  0  0  0  0  0  0  0
  1  2  1  0  0  0  0
  1  5  2  0  0  0  0
  2  6  2  0  0  0  0
  3 10  2  0  0  0  0
  3 17  1  0  0  0  0
  4 11  1  0  0  0  0
  4 17  2  0  0  0  0
  5 19  1  0  0  0  0
  6 21  1  0  0  0  0
  7 12  2  0  0  0  0
  7 20  1  0  0  0  0
  8  9  2  0  0  0  0
  8 23  1  0  0  0  0
  9 26  1  0  0  0  0
 10 27  1  0  0  0  0
 11 27  2  0  0  0  0
 12 28  1  0  0  0  0
 13 14  2  0  0  0  0
 13 29  1  0  0  0  0
 14 30  1  0  0  0  0
 15 22  1  0  0  0  0
 15 28  2  0  0  0  0
 16 30  2  0  0  0  0
 16 31  1  0  0  0  0
 17 32  1  0  0  0  0
 18 32  1  0  0  0  0
 18 33  2  0  0  0  0
 18 35  1  0  0  0  0
 19 21  2  0  0  0  0
 19 41  1  0  0  0  0
 20 22  2  0  0  0  0
 20 42  1  0  0  0  0
 21 53  1  0  0  0  0
 22 43  1  0  0  0  0
 23 24  2  0  0  0  0
 23 66  1  0  0  0  0
 24 25  1  0  0  0  0
 24 57  1  0  0  0  0
 25 26  2  0  0  0  0
 25 58  1  0  0  0  0
 26 76  1  0  0  0  0
 27 86  1  0  0  0  0
 28 87  1  0  0  0  0
 29 31  2  0  0  0  0
 29 86  1  0  0  0  0
 30 88  1  0  0  0  0
 31 89  1  0  0  0  0
 32 70  2  0  0  0  0
 33 71  1  0  0  0  0
 33 74  1  0  0  0  0
 34 36  2  0  0  0  0
 34 44  1  0  0  0  0
 34 79  1  0  0  0  0
 35 75  1  0  0  0  0
 35 81  2  0  0  0  0
 36 59  1  0  0  0  0
 36 60  1  0  0  0  0
 37 54  1  0  0  0  0
 37 77  1  0  0  0  0
 37 82  2  0  0  0  0
 38 67  1  0  0  0  0
 38 72  1  0  0  0  0
 38 83  2  0  0  0  0
 39 68  1  0  0  0  0
 39 78  1  0  0  0  0
 39 84  2  0  0  0  0
 40 73  1  0  0  0  0
 40 76  1  0  0  0  0
 40 85  2  0  0  0  0
 41 45  1  0  0  0  0
 42 54  1  0  0  0  0
 43 72  1  0  0  0  0
 44 46  1  0  0  0  0
 45 48  1  0  0  0  0
 46 56  1  0  0  0  0
 47 49  1  0  0  0  0
 47 50  1  0  0  0  0
 48 53  1  0  0  0  0
 49 55  1  0  0  0  0
 50 73  1  0  0  0  0
 51 55  1  0  0  0  0
 51 73  1  0  0  0  0
 52 56  1  0  0  0  0
 52 79  1  0  0  0  0
 53 77  1  0  0  0  0
 54 72  1  0  0  0  0
 55 71  1  0  0  0  0
 56 87  1  0  0  0  0
 61 68  1  0  0  0  0
 62 69  1  0  0  0  0
 63 69  1  0  0  0  0
 64 69  1  0  0  0  0
 65 80  1  0  0  0  0
 66 79  1  0  0  0  0
 67 69  1  0  0  0  0
 67 78  1  0  0  0  0
 68 80  1  0  0  0  0
 70 71  1  0  0  0  0
M  CHG  2  79   1  80   1
M  ISO  4  40 100  56 101  76 100  87 101
M  END
> <Batch ID>
0039

> <Smiles>
CNC(C)C(=O)NC(C(=O)N1Cc2cc([101O:1][101CH:1]3CCC(=C(C)C)N(Cc4ccc([100NH:0][100C:0](=O)N5CCCC(n6nc(-c7ccc(Oc8ccc(F)cc8F)cc7)c(C(N)=O)c6N)C5)c(C)c4C)C3)ccc2CC1C(=O)NC1CCCc2ccccc21)C(C)(C)C

> <Shape>
0.246

> <Color>
0.071

> <Negative vol penalty>
0.000

$$$$

  -OEChem-04042322043D

 83 91  0     1  0  0  0  0  0999 V2000
  -21.5461  -19.5052   21.9241 C   0  0  0  0  0  0  0  0  0  0  0  0
  -22.8594  -19.9387   22.0751 C   0  0  0  0  0  0  0  0  0  0  0  0
  -22.9625   -9.8881   20.1184 C   0  0  0  0  0  0  0  0  0  0  0  0
  -23.5835  -10.1888   22.4337 C   0  0  0  0  0  0  0  0  0  0  0  0
  -20.5616  -20.3999   21.5069 C   0  0  0  0  0  0  0  0  0  0  0  0
  -23.1891  -21.2670   21.8079 C   0  0  0  0  0  0  0  0  0  0  0  0
  -26.1972  -23.2731   25.3536 C   0  0  0  0  0  0  0  0  0  0  0  0
  -22.1569   -8.8066   20.4749 C   0  0  0  0  0  0  0  0  0  0  0  0
  -22.7779   -9.1073   22.7903 C   0  0  0  0  0  0  0  0  0  0  0  0
  -27.5491  -22.9357   25.3069 C   0  0  0  0  0  0  0  0  0  0  0  0
  -22.9609   -5.7322   22.7130 C   0  0  0  0  0  0  0  0  0  0  0  0
  -23.4885   -4.7968   23.6030 C   0  0  0  0  0  0  0  0  0  0  0  0
  -28.0312  -25.0412   24.2328 C   0  0  0  0  0  0  0  0  0  0  0  0
  -31.6166  -18.9971   20.8973 C   0  0  0  0  0  0  0  0  0  0  0  0
  -31.2074  -18.5879   23.2429 C   0  0  0  0  0  0  0  0  0  0  0  0
  -21.6970   -5.2634   25.1554 C   0  0  0  0  0  0  0  0  0  0  0  0
  -23.6759  -10.5791   21.0978 C   0  0  0  0  0  0  0  0  0  0  0  0
  -24.1307  -13.0500   20.6558 C   0  0  0  0  0  0  0  0  0  0  0  0
  -20.8775  -21.7421   21.2437 C   0  0  0  0  0  0  0  0  0  0  0  0
  -25.7498  -24.4945   24.8295 C   0  0  0  0  0  0  0  0  0  0  0  0
  -22.2080  -22.1801   21.3855 C   0  0  0  0  0  0  0  0  0  0  0  0
  -26.6735  -25.3928   24.2764 C   0  0  0  0  0  0  0  0  0  0  0  0
  -31.6721  -19.4208   22.2251 C   0  0  0  0  0  0  0  0  0  0  0  0
  -31.0963  -17.7405   20.5873 C   0  0  0  0  0  0  0  0  0  0  0  0
  -30.6871  -17.3313   22.9329 C   0  0  0  0  0  0  0  0  0  0  0  0
  -30.6316  -16.9077   21.6051 C   0  0  0  0  0  0  0  0  0  0  0  0
  -22.0646   -8.4163   21.8108 C   0  0  0  0  0  0  0  0  0  0  0  0
  -28.4660  -23.8186   24.7439 C   0  0  0  0  0  0  0  0  0  0  0  0
  -21.8014   -6.4334   23.0441 C   0  0  0  0  0  0  0  0  0  0  0  0
  -22.8565   -4.5623   24.8242 C   0  0  0  0  0  0  0  0  0  0  0  0
  -21.1694   -6.1989   24.2653 C   0  0  0  0  0  0  0  0  0  0  0  0
  -24.5086  -11.6960   20.7301 C   0  0  0  0  0  0  0  0  0  0  0  0
  -25.2733  -13.7045   20.2651 C   0  0  0  0  0  0  0  0  0  0  0  0
  -22.8604  -13.6616   20.9166 C   0  0  0  0  0  0  0  0  0  0  0  0
  -23.7666  -25.3415   22.4944 C   0  0  0  0  0  0  0  0  0  0  0  0
  -24.2964  -28.3240   23.6547 C   0  0  0  0  0  0  0  0  0  0  0  0
  -26.3393  -30.4376   25.3886 C   0  0  0  0  0  0  0  0  0  0  0  0
  -30.7586  -14.5799   20.6503 C   0  0  0  0  0  0  0  0  0  0  0  0
  -19.7883  -22.6608   20.7495 C   0  0  0  0  0  0  0  0  0  0  0  0
  -24.2919  -24.8551   24.9117 C   0  0  0  0  0  0  0  0  0  0  0  0
  -26.2472  -26.7253   23.7184 C   0  0  0  0  0  0  0  0  0  0  0  0
  -20.1487  -24.1409   20.8477 C   0  0  0  0  0  0  0  0  0  0  0  0
  -29.6867  -11.8986   18.5672 C   0  0  0  0  0  0  0  0  0  0  0  0
  -21.5548  -24.3848   20.3092 C   0  0  0  0  0  0  0  0  0  0  0  0
  -28.2129  -11.7183   18.9381 C   0  0  0  0  0  0  0  0  0  0  0  0
  -30.5372  -12.2617   19.7832 C   0  0  0  0  0  0  0  0  0  0  0  0
  -28.5834  -13.2351   20.9253 C   0  0  0  0  0  0  0  0  0  0  0  0
  -22.6002  -23.6191   21.1292 C   0  0  1  0  0  0  0  0  0  0  0  0
  -23.8767  -25.9030   23.8837 C   0  0  1  0  0  0  0  0  0  0  0  0
  -27.6763  -12.9323   19.7215 C   0  0  2  0  0  0  0  0  0  0  0  0
  -31.0496  -17.3149   19.1553 C   0  0  0  0  0  0  0  0  0  0  0  0
  -30.1974  -16.4612   24.0453 C   0  0  0  0  0  0  0  0  0  0  0  0
  -26.5227  -32.8250   26.1396 C   0  0  0  0  0  0  0  0  0  0  0  0
  -25.0696  -29.1532   20.8220 C   0  0  0  0  0  0  0  0  0  0  0  0
  -26.1261  -31.2078   21.7865 C   0  0  0  0  0  0  0  0  0  0  0  0
  -23.6758  -30.8244   22.0544 C   0  0  0  0  0  0  0  0  0  0  0  0
  -26.3598  -29.6593   28.2439 C   0  0  0  0  0  0  0  0  0  0  0  0
  -32.2314  -20.7724   22.5585 C   0  0  0  0  0  0  0  0  0  0  0  0
  -31.7088  -23.0973   23.3071 C   0  0  0  0  0  0  0  0  0  0  0  0
  -30.5485  -24.0235   23.6139 C   0  0  0  0  0  0  0  0  0  1  0  0
  -25.3031  -29.4148   23.3799 C   0  0  1  0  0  0  0  0  0  0  0  0
  -26.0524  -31.4256   26.5048 C   0  0  2  0  0  0  0  0  0  0  0  0
  -25.0518  -30.1242   22.0194 C   0  0  0  0  0  0  0  0  0  0  0  0
  -25.7910  -11.5004   20.4120 N   0  0  0  0  0  0  0  0  0  0  0  0
  -26.2289  -12.7402   20.1340 N   0  0  0  0  0  0  0  0  0  0  0  0
  -24.8100  -27.0294   23.8162 N   0  0  0  0  0  0  0  0  0  0  0  0
  -29.9709  -13.4228   20.4730 N   0  0  0  0  0  0  0  0  0  0  0  0
  -25.5438  -15.0050   20.0244 N   0  0  0  0  0  0  0  0  0  0  0  0
  -21.7926  -12.8427   21.3086 N   0  0  0  0  0  0  0  0  0  0  0  0
  -30.1032  -15.6311   21.2905 N   0  0  0  0  0  0  0  0  0  0  0  0
  -22.8630  -24.3026   22.3775 N   0  0  0  0  0  0  0  0  0  0  0  0
  -25.2649  -30.3059   24.5344 N   0  0  0  0  0  0  0  0  0  0  0  0
  -26.7455  -31.0086   27.7565 N   0  3  0  0  0  0  0  0  0  0  0  0
  -31.1824  -21.7659   22.9141 N   0  3  0  0  0  0  0  0  0  0  0  0
  -22.6734  -14.8954   20.7895 O   0  0  0  0  0  0  0  0  0  0  0  0
  -24.4496  -25.8167   21.5947 O   0  0  0  0  0  0  0  0  0  0  0  0
  -23.0992  -28.6111   23.7307 O   0  0  0  0  0  0  0  0  0  0  0  0
  -27.4108  -29.8448   25.2827 O   0  0  0  0  0  0  0  0  0  0  0  0
  -31.9198  -14.6438   20.2384 O   0  0  0  0  0  0  0  0  0  0  0  0
  -21.2784   -7.3612   22.1591 O   0  0  0  0  0  0  0  0  0  0  0  0
  -29.7861  -23.4914   24.6964 O   0  0  0  0  0  0  0  0  0  1  0  0
  -23.3624   -3.6629   25.6781 F   0  0  0  0  0  0  0  0  0  0  0  0
  -20.0546   -6.8685   24.5885 F   0  0  0  0  0  0  0  0  0  0  0  0
  1  2  1  0  0  0  0
  1  5  2  0  0  0  0
  2  6  2  0  0  0  0
  3  8  2  0  0  0  0
  3 17  1  0  0  0  0
  4  9  1  0  0  0  0
  4 17  2  0  0  0  0
  5 19  1  0  0  0  0
  6 21  1  0  0  0  0
  7 10  2  0  0  0  0
  7 20  1  0  0  0  0
  8 27  1  0  0  0  0
  9 27  2  0  0  0  0
 10 28  1  0  0  0  0
 11 12  2  0  0  0  0
 11 29  1  0  0  0  0
 12 30  1  0  0  0  0
 13 22  1  0  0  0  0
 13 28  2  0  0  0  0
 14 23  1  0  0  0  0
 14 24  2  0  0  0  0
 15 23  2  0  0  0  0
 15 25  1  0  0  0  0
 16 30  2  0  0  0  0
 16 31  1  0  0  0  0
 17 32  1  0  0  0  0
 18 32  1  0  0  0  0
 18 33  2  0  0  0  0
 18 34  1  0  0  0  0
 19 21  2  0  0  0  0
 19 39  1  0  0  0  0
 20 22  2  0  0  0  0
 20 40  1  0  0  0  0
 21 48  1  0  0  0  0
 22 41  1  0  0  0  0
 23 58  1  0  0  0  0
 24 26  1  0  0  0  0
 24 51  1  0  0  0  0
 25 26  2  0  0  0  0
 25 52  1  0  0  0  0
 26 70  1  0  0  0  0
 27 80  1  0  0  0  0
 28 81  1  0  0  0  0
 29 31  2  0  0  0  0
 29 80  1  0  0  0  0
 30 82  1  0  0  0  0
 31 83  1  0  0  0  0
 32 64  2  0  0  0  0
 33 65  1  0  0  0  0
 33 68  1  0  0  0  0
 34 69  1  0  0  0  0
 34 75  2  0  0  0  0
 35 49  1  0  0  0  0
 35 71  1  0  0  0  0
 35 76  2  0  0  0  0
 36 61  1  0  0  0  0
 36 66  1  0  0  0  0
 36 77  2  0  0  0  0
 37 62  1  0  0  0  0
 37 72  1  0  0  0  0
 37 78  2  0  0  0  0
 38 67  1  0  0  0  0
 38 70  1  0  0  0  0
 38 79  2  0  0  0  0
 39 42  1  0  0  0  0
 40 49  1  0  0  0  0
 41 66  1  0  0  0  0
 42 44  1  0  0  0  0
 43 45  1  0  0  0  0
 43 46  1  0  0  0  0
 44 48  1  0  0  0  0
 45 50  1  0  0  0  0
 46 67  1  0  0  0  0
 47 50  1  0  0  0  0
 47 67  1  0  0  0  0
 48 71  1  0  0  0  0
 49 66  1  0  0  0  0
 50 65  1  0  0  0  0
 53 62  1  0  0  0  0
 54 63  1  0  0  0  0
 55 63  1  0  0  0  0
 56 63  1  0  0  0  0
 57 73  1  0  0  0  0
 58 74  1  0  0  0  0
 59 60  1  0  0  0  0
 59 74  1  0  0  0  0
 60 81  1  0  0  0  0
 61 63  1  0  0  0  0
 61 72  1  0  0  0  0
 62 73  1  0  0  0  0
 64 65  1  0  0  0  0
M  CHG  2  73   1  74   1
M  ISO  4  38 100  60 101  70 100  81 101
M  END
> <Batch ID>
0039

> <Smiles>
CNC(C)C(=O)NC(C(=O)N1Cc2cc([101O:1][101CH2:1]CNCc3cc(C)c([100NH:0][100C:0](=O)N4CCCC(n5nc(-c6ccc(Oc7ccc(F)cc7F)cc6)c(C(N)=O)c5N)C4)c(C)c3)ccc2CC1C(=O)NC1CCCc2ccccc21)C(C)(C)C

> <Shape>
0.257

> <Color>
0.197

> <Negative vol penalty>
0.000

$$$$

  -OEChem-04042322043D

 89 98  0     1  0  0  0  0  0999 V2000
  -33.6333  -27.3512   24.0179 C   0  0  0  0  0  0  0  0  0  0  0  0
  -32.5526  -26.4896   24.1770 C   0  0  0  0  0  0  0  0  0  0  0  0
  -23.1785   -9.9214   19.9818 C   0  0  0  0  0  0  0  0  0  0  0  0
  -23.8844  -10.0159   22.2905 C   0  0  0  0  0  0  0  0  0  0  0  0
  -33.6294  -28.2895   22.9867 C   0  0  0  0  0  0  0  0  0  0  0  0
  -31.4668  -26.5667   23.3056 C   0  0  0  0  0  0  0  0  0  0  0  0
  -29.9110  -22.0114   21.7327 C   0  0  0  0  0  0  0  0  0  0  0  0
  -22.4597   -8.7564   20.2492 C   0  0  0  0  0  0  0  0  0  0  0  0
  -23.1656   -8.8508   22.5579 C   0  0  0  0  0  0  0  0  0  0  0  0
  -29.1378  -21.2619   22.6183 C   0  0  0  0  0  0  0  0  0  0  0  0
  -19.9464   -7.9837   23.1112 C   0  0  0  0  0  0  0  0  0  0  0  0
  -19.1638   -7.9575   24.2654 C   0  0  0  0  0  0  0  0  0  0  0  0
  -27.1440  -21.9396   21.4416 C   0  0  0  0  0  0  0  0  0  0  0  0
  -31.6772  -18.1822   23.9042 C   0  0  0  0  0  0  0  0  0  0  0  0
  -31.8432  -16.5686   22.1138 C   0  0  0  0  0  0  0  0  0  0  0  0
  -20.4384   -6.0767   25.0870 C   0  0  0  0  0  0  0  0  0  0  0  0
  -23.8909  -10.5512   21.0024 C   0  0  0  0  0  0  0  0  0  0  0  0
  -24.1686  -13.0801   20.8150 C   0  0  0  0  0  0  0  0  0  0  0  0
  -32.5473  -28.3716   22.0962 C   0  0  0  0  0  0  0  0  0  0  0  0
  -29.3045  -22.7406   20.6998 C   0  0  0  0  0  0  0  0  0  0  0  0
  -31.4478  -27.5079   22.2622 C   0  0  0  0  0  0  0  0  0  0  0  0
  -27.9119  -22.6955   20.5427 C   0  0  0  0  0  0  0  0  0  0  0  0
  -30.7485  -17.3678   24.5522 C   0  0  0  0  0  0  0  0  0  0  0  0
  -30.3672  -16.1537   23.9810 C   0  0  0  0  0  0  0  0  0  0  0  0
  -30.9146  -15.7541   22.7618 C   0  0  0  0  0  0  0  0  0  0  0  0
  -22.4532   -8.2210   21.5372 C   0  0  0  0  0  0  0  0  0  0  0  0
  -27.7539  -21.2282   22.4746 C   0  0  0  0  0  0  0  0  0  0  0  0
  -20.9751   -7.0564   22.9447 C   0  0  0  0  0  0  0  0  0  0  0  0
  -19.4098   -7.0040   25.2533 C   0  0  0  0  0  0  0  0  0  0  0  0
  -21.2211   -6.1029   23.9326 C   0  0  0  0  0  0  0  0  0  0  0  0
  -32.2245  -17.7826   22.6850 C   0  0  0  0  0  0  0  0  0  0  0  0
  -24.6340  -11.7544   20.7267 C   0  0  0  0  0  0  0  0  0  0  0  0
  -25.2487  -13.8480   20.4542 C   0  0  0  0  0  0  0  0  0  0  0  0
  -28.9627  -19.5291   27.0670 C   0  0  0  0  0  0  0  0  0  0  0  0
  -29.8234  -20.2077   27.8454 C   0  0  0  0  0  0  0  0  0  0  0  0
  -22.8755  -13.5733   21.1897 C   0  0  0  0  0  0  0  0  0  0  0  0
  -29.1332  -25.8196   19.9288 C   0  0  0  0  0  0  0  0  0  0  0  0
  -27.6548  -24.6729   17.2789 C   0  0  0  0  0  0  0  0  0  0  0  0
  -25.8718  -22.1578   15.8155 C   0  0  0  0  0  0  0  0  0  0  0  0
  -31.0007  -13.9985   20.9571 C   0  0  0  0  0  0  0  0  0  0  0  0
  -32.5671  -29.4338   21.0257 C   0  0  0  0  0  0  0  0  0  0  0  0
  -30.1548  -23.5228   19.7367 C   0  0  0  0  0  0  0  0  0  0  0  0
  -27.2138  -23.4444   19.4380 C   0  0  0  0  0  0  0  0  0  0  0  0
  -27.5715  -19.2016   27.5361 C   0  0  0  0  0  0  0  0  0  0  0  0
  -31.5450  -29.1996   19.9163 C   0  0  0  0  0  0  0  0  0  0  0  0
  -26.5651  -20.2579   27.0835 C   0  0  0  0  0  0  0  0  0  0  0  0
  -29.4181  -13.0257   17.9197 C   0  0  0  0  0  0  0  0  0  0  0  0
  -30.1858  -28.8423   20.5094 C   0  0  0  0  0  0  0  0  0  0  0  0
  -27.9772  -12.7280   18.3408 C   0  0  0  0  0  0  0  0  0  0  0  0
  -26.2707  -20.2524   25.5861 C   0  0  0  0  0  0  0  0  0  0  0  0
  -30.4215  -12.5967   18.9887 C   0  0  0  0  0  0  0  0  0  0  0  0
  -28.7193  -12.8280   20.7545 C   0  0  0  0  0  0  0  0  0  0  0  0
  -28.3583  -19.0807   24.7069 C   0  0  0  0  0  0  0  0  0  0  0  0
  -30.2626  -27.5442   21.3220 C   0  0  1  0  0  0  0  0  0  0  0  0
  -29.3889  -24.6396   19.0343 C   0  0  1  0  0  0  0  0  0  0  0  0
  -27.6683  -13.3019   19.7375 C   0  0  2  0  0  0  0  0  0  0  0  0
  -27.4953  -20.3433   24.6718 C   0  0  1  0  0  0  0  0  0  1  0  0
  -29.3705  -15.2831   24.6798 C   0  0  0  0  0  0  0  0  0  0  0  0
  -31.2098  -20.5597   27.4354 C   0  0  0  0  0  0  0  0  0  0  0  0
  -24.7732  -21.5235   13.6503 C   0  0  0  0  0  0  0  0  0  0  0  0
  -25.3510  -26.5769   17.8928 C   0  0  0  0  0  0  0  0  0  0  0  0
  -23.9292  -25.2551   16.3119 C   0  0  0  0  0  0  0  0  0  0  0  0
  -25.9647  -26.4280   15.4730 C   0  0  0  0  0  0  0  0  0  0  0  0
  -27.6072  -19.7817   15.4970 C   0  0  0  0  0  0  0  0  0  0  0  0
  -30.1749  -17.8211   25.8624 C   0  0  0  0  0  0  0  0  0  0  0  0
  -26.2269  -24.3592   16.9026 C   0  0  1  0  0  0  0  0  0  0  0  0
  -26.0411  -21.4443   14.4863 C   0  0  2  0  0  0  0  0  0  0  0  0
  -25.3806  -25.6422   16.6672 C   0  0  0  0  0  0  0  0  0  0  0  0
  -25.9104  -11.6807   20.3400 N   0  0  0  0  0  0  0  0  0  0  0  0
  -26.2561  -12.9698   20.1820 N   0  0  0  0  0  0  0  0  0  0  0  0
  -28.0882  -24.1997   18.5256 N   0  0  0  0  0  0  0  0  0  0  0  0
  -30.0677  -13.1817   20.2839 N   0  0  0  0  0  0  0  0  0  0  0  0
  -25.4256  -15.1820   20.3464 N   0  0  0  0  0  0  0  0  0  0  0  0
  -21.8804  -12.6473   21.5311 N   0  0  0  0  0  0  0  0  0  0  0  0
  -30.5409  -14.5251   22.1637 N   0  0  0  0  0  0  0  0  0  0  0  0
  -30.2798  -26.3964   20.4407 N   0  0  0  0  0  0  0  0  0  0  0  0
  -26.2950  -23.4684   15.7492 N   0  0  0  0  0  0  0  0  0  0  0  0
  -29.4368  -19.1337   25.7623 N   0  3  2  0  0  0  0  0  0  0  0  0
  -26.3691  -20.0076   14.7076 N   0  3  0  0  0  0  0  0  0  0  0  0
  -22.6056  -14.7982   21.2051 O   0  0  0  0  0  0  0  0  0  0  0  0
  -27.9810  -26.1809   20.1378 O   0  0  0  0  0  0  0  0  0  0  0  0
  -28.3619  -25.3079   16.4925 O   0  0  0  0  0  0  0  0  0  0  0  0
  -25.4068  -21.6085   16.8118 O   0  0  0  0  0  0  0  0  0  0  0  0
  -32.1148  -14.2369   20.4840 O   0  0  0  0  0  0  0  0  0  0  0  0
  -21.7518   -7.0843   21.7986 O   0  0  0  0  0  0  0  0  0  0  0  0
  -26.9968  -20.4980   23.3379 O   0  0  0  0  0  0  0  0  0  1  0  0
  -18.6591   -6.9799   26.3624 F   0  0  0  0  0  0  0  0  0  0  0  0
  -22.2087   -5.2102   23.7789 F   0  0  0  0  0  0  0  0  0  0  0  0
  -33.3694  -18.7882   21.8853 Cl  0  0  0  0  0  0  0  0  0  0  0  0
  1  2  1  0  0  0  0
  1  5  2  0  0  0  0
  2  6  2  0  0  0  0
  3  8  2  0  0  0  0
  3 17  1  0  0  0  0
  4  9  1  0  0  0  0
  4 17  2  0  0  0  0
  5 19  1  0  0  0  0
  6 21  1  0  0  0  0
  7 10  2  0  0  0  0
  7 20  1  0  0  0  0
  8 26  1  0  0  0  0
  9 26  2  0  0  0  0
 10 27  1  0  0  0  0
 11 12  2  0  0  0  0
 11 28  1  0  0  0  0
 12 29  1  0  0  0  0
 13 22  1  0  0  0  0
 13 27  2  0  0  0  0
 14 23  1  0  0  0  0
 14 31  2  0  0  0  0
 15 25  2  0  0  0  0
 15 31  1  0  0  0  0
 16 29  2  0  0  0  0
 16 30  1  0  0  0  0
 17 32  1  0  0  0  0
 18 32  1  0  0  0  0
 18 33  2  0  0  0  0
 18 36  1  0  0  0  0
 19 21  2  0  0  0  0
 19 41  1  0  0  0  0
 20 22  2  0  0  0  0
 20 42  1  0  0  0  0
 21 54  1  0  0  0  0
 22 43  1  0  0  0  0
 23 24  2  0  0  0  0
 23 65  1  0  0  0  0
 24 25  1  0  0  0  0
 24 58  1  0  0  0  0
 25 75  1  0  0  0  0
 26 85  1  0  0  0  0
 27 86  1  0  0  0  0
 28 30  2  0  0  0  0
 28 85  1  0  0  0  0
 29 87  1  0  0  0  0
 30 88  1  0  0  0  0
 31 89  1  0  0  0  0
 32 69  2  0  0  0  0
 33 70  1  0  0  0  0
 33 73  1  0  0  0  0
 34 35  2  0  0  0  0
 34 44  1  0  0  0  0
 34 78  1  0  0  0  0
 35 59  1  0  0  0  0
 36 74  1  0  0  0  0
 36 80  2  0  0  0  0
 37 55  1  0  0  0  0
 37 76  1  0  0  0  0
 37 81  2  0  0  0  0
 38 66  1  0  0  0  0
 38 71  1  0  0  0  0
 38 82  2  0  0  0  0
 39 67  1  0  0  0  0
 39 77  1  0  0  0  0
 39 83  2  0  0  0  0
 40 72  1  0  0  0  0
 40 75  1  0  0  0  0
 40 84  2  0  0  0  0
 41 45  1  0  0  0  0
 42 55  1  0  0  0  0
 43 71  1  0  0  0  0
 44 46  1  0  0  0  0
 45 48  1  0  0  0  0
 46 50  1  0  0  0  0
 47 49  1  0  0  0  0
 47 51  1  0  0  0  0
 48 54  1  0  0  0  0
 49 56  1  0  0  0  0
 50 57  1  0  0  0  0
 51 72  1  0  0  0  0
 52 56  1  0  0  0  0
 52 72  1  0  0  0  0
 53 57  1  0  0  0  0
 53 78  1  0  0  0  0
 54 76  1  0  0  0  0
 55 71  1  0  0  0  0
 56 70  1  0  0  0  0
 57 86  1  0  0  0  0
 60 67  1  0  0  0  0
 61 68  1  0  0  0  0
 62 68  1  0  0  0  0
 63 68  1  0  0  0  0
 64 79  1  0  0  0  0
 65 78  1  0  0  0  0
 66 68  1  0  0  0  0
 66 77  1  0  0  0  0
 67 79  1  0  0  0  0
 69 70  1  0  0  0  0
M  CHG  2  78   1  79   1
M  ISO  4  40 100  57 101  75 100  86 101
M  END
> <Batch ID>
0039

> <Smiles>
CC=C1CCC[101CH:1]([101O:1]c2ccc3c(c2)CN(C(=O)C(NC(=O)C(C)NC)C(C)(C)C)C(C(=O)NC2CCCc4ccccc42)C3)CN1Cc1cc(Cl)cc([100NH:0][100C:0](=O)N2CCCC(n3nc(-c4ccc(Oc5ccc(F)cc5F)cc4)c(C(N)=O)c3N)C2)c1C

> <Shape>
0.234

> <Color>
0.191

> <Negative vol penalty>
0.000

$$$$

  -OEChem-04042322043D

 86 94  0     1  0  0  0  0  0999 V2000
  -26.4338  -31.7704   26.4750 C   0  0  0  0  0  0  0  0  0  0  0  0
  -26.3500  -30.4762   25.9718 C   0  0  0  0  0  0  0  0  0  0  0  0
  -23.0794   -9.8601   19.9432 C   0  0  0  0  0  0  0  0  0  0  0  0
  -23.8387   -9.8750   22.2368 C   0  0  0  0  0  0  0  0  0  0  0  0
  -27.2192  -32.7208   25.8240 C   0  0  0  0  0  0  0  0  0  0  0  0
  -27.0508  -30.1318   24.8165 C   0  0  0  0  0  0  0  0  0  0  0  0
  -29.4215  -25.6768   25.2374 C   0  0  0  0  0  0  0  0  0  0  0  0
  -22.3389   -8.7054   20.1958 C   0  0  0  0  0  0  0  0  0  0  0  0
  -23.0981   -8.7202   22.4894 C   0  0  0  0  0  0  0  0  0  0  0  0
  -28.6451  -24.5269   25.1005 C   0  0  0  0  0  0  0  0  0  0  0  0
  -19.8722   -7.9143   23.0930 C   0  0  0  0  0  0  0  0  0  0  0  0
  -19.1151   -7.8749   24.2638 C   0  0  0  0  0  0  0  0  0  0  0  0
  -29.4011  -24.2951   22.8215 C   0  0  0  0  0  0  0  0  0  0  0  0
  -29.2765  -18.6764   20.9779 C   0  0  0  0  0  0  0  0  0  0  0  0
  -31.4908  -18.4416   20.0405 C   0  0  0  0  0  0  0  0  0  0  0  0
  -20.3620   -5.9430   25.0053 C   0  0  0  0  0  0  0  0  0  0  0  0
  -23.8294  -10.4449   20.9637 C   0  0  0  0  0  0  0  0  0  0  0  0
  -24.1637  -12.9707   20.8376 C   0  0  0  0  0  0  0  0  0  0  0  0
  -27.9376  -32.3853   24.6656 C   0  0  0  0  0  0  0  0  0  0  0  0
  -30.1864  -26.1513   24.1622 C   0  0  0  0  0  0  0  0  0  0  0  0
  -27.8455  -31.0790   24.1485 C   0  0  0  0  0  0  0  0  0  0  0  0
  -30.1884  -25.4497   22.9482 C   0  0  0  0  0  0  0  0  0  0  0  0
  -30.5143  -18.0340   20.9493 C   0  0  0  0  0  0  0  0  0  0  0  0
  -29.0151  -19.7263   20.0975 C   0  0  0  0  0  0  0  0  0  0  0  0
  -29.9915  -20.1339   19.1886 C   0  0  0  0  0  0  0  0  0  0  0  0
  -22.3483   -8.1354   21.4689 C   0  0  0  0  0  0  0  0  0  0  0  0
  -28.6326  -23.8375   23.8915 C   0  0  0  0  0  0  0  0  0  0  0  0
  -20.8742   -6.9679   22.8783 C   0  0  0  0  0  0  0  0  0  0  0  0
  -19.3600   -6.8893   25.2200 C   0  0  0  0  0  0  0  0  0  0  0  0
  -21.1192   -5.9823   23.8345 C   0  0  0  0  0  0  0  0  0  0  0  0
  -31.2294  -19.4915   19.1601 C   0  0  0  0  0  0  0  0  0  0  0  0
  -24.5950  -11.6374   20.7033 C   0  0  0  0  0  0  0  0  0  0  0  0
  -25.2537  -13.7226   20.4728 C   0  0  0  0  0  0  0  0  0  0  0  0
  -22.8916  -13.4838   21.2549 C   0  0  0  0  0  0  0  0  0  0  0  0
  -30.2177  -28.8212   22.4374 C   0  0  0  0  0  0  0  0  0  0  0  0
  -32.8699  -27.4849   21.1326 C   0  0  0  0  0  0  0  0  0  0  0  0
  -27.0172  -20.8357   22.5252 C   0  0  0  0  0  0  0  0  0  0  0  0
  -34.6482  -24.6550   20.4428 C   0  0  0  0  0  0  0  0  0  0  0  0
  -30.7343  -14.7584   20.6601 C   0  0  0  0  0  0  0  0  0  0  0  0
  -28.7358  -33.4594   23.9698 C   0  0  0  0  0  0  0  0  0  0  0  0
  -31.0394  -27.3782   24.3344 C   0  0  0  0  0  0  0  0  0  0  0  0
  -31.0078  -25.9063   21.7698 C   0  0  0  0  0  0  0  0  0  0  0  0
  -29.7443  -32.9128   22.9627 C   0  0  0  0  0  0  0  0  0  0  0  0
  -29.6045  -12.3647   18.2789 C   0  0  0  0  0  0  0  0  0  0  0  0
  -29.0949  -31.8531   22.0784 C   0  0  0  0  0  0  0  0  0  0  0  0
  -28.1678  -12.0678   18.7121 C   0  0  0  0  0  0  0  0  0  0  0  0
  -30.5206  -12.5912   19.4795 C   0  0  0  0  0  0  0  0  0  0  0  0
  -28.6163  -13.3200   20.8638 C   0  0  0  0  0  0  0  0  0  0  0  0
  -28.6105  -30.6604   22.9117 C   0  0  1  0  0  0  0  0  0  0  0  0
  -31.3787  -28.0604   23.0127 C   0  0  1  0  0  0  0  0  0  0  0  0
  -27.6430  -13.1396   19.6863 C   0  0  2  0  0  0  0  0  0  0  0  0
  -29.6946  -21.2619   18.2502 C   0  0  0  0  0  0  0  0  0  0  0  0
  -36.7596  -23.8769   19.3320 C   0  0  0  0  0  0  0  0  0  0  0  0
  -31.5813  -27.8999   18.3982 C   0  0  0  0  0  0  0  0  0  0  0  0
  -33.2454  -26.2893   17.4470 C   0  0  0  0  0  0  0  0  0  0  0  0
  -34.0264  -28.4172   18.4885 C   0  0  0  0  0  0  0  0  0  0  0  0
  -26.1226  -18.8575   21.2849 C   0  0  0  0  0  0  0  0  0  0  0  0
  -35.6921  -23.5130   22.9657 C   0  0  0  0  0  0  0  0  0  0  0  0
  -30.7934  -16.9122   21.8917 C   0  0  0  0  0  0  0  0  0  0  0  0
  -27.6735  -20.3983   20.1497 C   0  0  0  0  0  0  0  0  0  0  0  0
  -27.9094  -22.0586   22.4885 C   0  0  0  0  0  0  0  0  0  1  0  0
  -33.1405  -26.5664   19.9656 C   0  0  1  0  0  0  0  0  0  0  0  0
  -36.1145  -24.3141   20.6379 C   0  0  2  0  0  0  0  0  0  0  0  0
  -32.9813  -27.2854   18.5962 C   0  0  0  0  0  0  0  0  0  0  0  0
  -25.8602  -11.5443   20.2855 N   0  0  0  0  0  0  0  0  0  0  0  0
  -26.2333  -12.8287   20.1542 N   0  0  0  0  0  0  0  0  0  0  0  0
  -31.8205  -27.1148   21.9856 N   0  0  0  0  0  0  0  0  0  0  0  0
  -29.9668  -13.6203   20.3628 N   0  0  0  0  0  0  0  0  0  0  0  0
  -25.4602  -15.0545   20.3965 N   0  0  0  0  0  0  0  0  0  0  0  0
  -21.8823  -12.5724   21.5941 N   0  0  0  0  0  0  0  0  0  0  0  0
  -29.7242  -29.8081   23.2692 N   0  0  0  0  0  0  0  0  0  0  0  0
  -34.4651  -25.9984   20.1918 N   0  0  0  0  0  0  0  0  0  0  0  0
  -30.1322  -15.6875   21.4997 N   0  0  0  0  0  0  0  0  0  0  0  0
  -26.9404  -20.0613   21.3672 N   0  0  0  0  0  0  0  0  0  0  0  0
  -36.2624  -23.2099   21.6278 N   0  3  0  0  0  0  0  0  0  0  0  0
  -22.6516  -14.7138   21.3092 O   0  0  0  0  0  0  0  0  0  0  0  0
  -29.8014  -28.5350   21.3210 O   0  0  0  0  0  0  0  0  0  0  0  0
  -33.5686  -28.4899   21.2860 O   0  0  0  0  0  0  0  0  0  0  0  0
  -26.4096  -20.5760   23.5684 O   0  0  0  0  0  0  0  0  0  0  0  0
  -33.7548  -23.8130   20.5031 O   0  0  0  0  0  0  0  0  0  0  0  0
  -31.8699  -14.9362   20.2064 O   0  0  0  0  0  0  0  0  0  0  0  0
  -21.6256   -7.0088   21.7158 O   0  0  0  0  0  0  0  0  0  0  0  0
  -27.8751  -22.7152   23.7550 O   0  0  0  0  0  0  0  0  0  1  0  0
  -18.6339   -6.8526   26.3449 F   0  0  0  0  0  0  0  0  0  0  0  0
  -22.0813   -5.0712   23.6343 F   0  0  0  0  0  0  0  0  0  0  0  0
  -32.4645  -19.9675   18.0514 Cl  0  0  0  0  0  0  0  0  0  0  0  0
  1  2  1  0  0  0  0
  1  5  2  0  0  0  0
  2  6  2  0  0  0  0
  3  8  2  0  0  0  0
  3 17  1  0  0  0  0
  4  9  1  0  0  0  0
  4 17  2  0  0  0  0
  5 19  1  0  0  0  0
  6 21  1  0  0  0  0
  7 10  2  0  0  0  0
  7 20  1  0  0  0  0
  8 26  1  0  0  0  0
  9 26  2  0  0  0  0
 10 27  1  0  0  0  0
 11 12  2  0  0  0  0
 11 28  1  0  0  0  0
 12 29  1  0  0  0  0
 13 22  1  0  0  0  0
 13 27  2  0  0  0  0
 14 23  2  0  0  0  0
 14 24  1  0  0  0  0
 15 23  1  0  0  0  0
 15 31  2  0  0  0  0
 16 29  2  0  0  0  0
 16 30  1  0  0  0  0
 17 32  1  0  0  0  0
 18 32  1  0  0  0  0
 18 33  2  0  0  0  0
 18 34  1  0  0  0  0
 19 21  2  0  0  0  0
 19 40  1  0  0  0  0
 20 22  2  0  0  0  0
 20 41  1  0  0  0  0
 21 49  1  0  0  0  0
 22 42  1  0  0  0  0
 23 59  1  0  0  0  0
 24 25  2  0  0  0  0
 24 60  1  0  0  0  0
 25 31  1  0  0  0  0
 25 52  1  0  0  0  0
 26 82  1  0  0  0  0
 27 83  1  0  0  0  0
 28 30  2  0  0  0  0
 28 82  1  0  0  0  0
 29 84  1  0  0  0  0
 30 85  1  0  0  0  0
 31 86  1  0  0  0  0
 32 65  2  0  0  0  0
 33 66  1  0  0  0  0
 33 69  1  0  0  0  0
 34 70  1  0  0  0  0
 34 76  2  0  0  0  0
 35 50  1  0  0  0  0
 35 71  1  0  0  0  0
 35 77  2  0  0  0  0
 36 62  1  0  0  0  0
 36 67  1  0  0  0  0
 36 78  2  0  0  0  0
 37 61  1  0  0  0  0
 37 74  1  0  0  0  0
 37 79  2  0  0  0  0
 38 63  1  0  0  0  0
 38 72  1  0  0  0  0
 38 80  2  0  0  0  0
 39 68  1  0  0  0  0
 39 73  1  0  0  0  0
 39 81  2  0  0  0  0
 40 43  1  0  0  0  0
 41 50  1  0  0  0  0
 42 67  1  0  0  0  0
 43 45  1  0  0  0  0
 44 46  1  0  0  0  0
 44 47  1  0  0  0  0
 45 49  1  0  0  0  0
 46 51  1  0  0  0  0
 47 68  1  0  0  0  0
 48 51  1  0  0  0  0
 48 68  1  0  0  0  0
 49 71  1  0  0  0  0
 50 67  1  0  0  0  0
 51 66  1  0  0  0  0
 53 63  1  0  0  0  0
 54 64  1  0  0  0  0
 55 64  1  0  0  0  0
 56 64  1  0  0  0  0
 57 74  1  0  0  0  0
 58 75  1  0  0  0  0
 59 73  1  0  0  0  0
 60 74  1  0  0  0  0
 61 83  1  0  0  0  0
 62 64  1  0  0  0  0
 62 72  1  0  0  0  0
 63 75  1  0  0  0  0
 65 66  1  0  0  0  0
M  CHG  1  75   1
M  ISO  4  39 100  61 101  73 100  83 101
M  END
> <Batch ID>
0039

> <Smiles>
CNC(C)C(=O)NC(C(=O)N1Cc2cc([101O:1][101CH2:1]C(=O)N(C)Cc3cc(C[100NH:0][100C:0](=O)N4CCCC(n5nc(-c6ccc(Oc7ccc(F)cc7F)cc6)c(C(N)=O)c5N)C4)cc(Cl)c3C)ccc2CC1C(=O)NC1CCCc2ccccc21)C(C)(C)C

> <Shape>
0.267

> <Color>
0.196

> <Negative vol penalty>
0.000

$$$$

  -OEChem-04042322043D

 94103  0     1  0  0  0  0  0999 V2000
  -17.0373  -29.0301   24.5970 C   0  0  0  0  0  0  0  0  0  0  0  0
  -17.6821  -27.8750   24.1665 C   0  0  0  0  0  0  0  0  0  0  0  0
  -30.3069  -20.5701   20.2501 C   0  0  0  0  0  0  0  0  0  0  0  0
  -27.9046  -20.3146   20.2810 C   0  0  0  0  0  0  0  0  0  0  0  0
  -17.3505  -30.2590   24.0178 C   0  0  0  0  0  0  0  0  0  0  0  0
  -18.6399  -27.9481   23.1557 C   0  0  0  0  0  0  0  0  0  0  0  0
  -22.7840  -25.2337   24.2060 C   0  0  0  0  0  0  0  0  0  0  0  0
  -30.1700  -21.7738   19.5587 C   0  0  0  0  0  0  0  0  0  0  0  0
  -27.7677  -21.5184   19.5897 C   0  0  0  0  0  0  0  0  0  0  0  0
  -22.7051  -23.8540   24.0216 C   0  0  0  0  0  0  0  0  0  0  0  0
  -29.5741  -22.7682   16.3837 C   0  0  0  0  0  0  0  0  0  0  0  0
  -30.4147  -22.9870   15.2923 C   0  0  0  0  0  0  0  0  0  0  0  0
  -23.8389  -24.0782   21.9042 C   0  0  0  0  0  0  0  0  0  0  0  0
  -22.4422  -15.0786   25.5570 C   0  0  0  0  0  0  0  0  0  0  0  0
  -31.3092  -24.9527   16.3754 C   0  0  0  0  0  0  0  0  0  0  0  0
  -29.1742  -19.8405   20.6112 C   0  0  0  0  0  0  0  0  0  0  0  0
  -29.9160  -18.4019   22.5829 C   0  0  0  0  0  0  0  0  0  0  0  0
  -18.3195  -30.3486   23.0061 C   0  0  0  0  0  0  0  0  0  0  0  0
  -23.3822  -26.0486   23.2342 C   0  0  0  0  0  0  0  0  0  0  0  0
  -18.9654  -29.1792   22.5615 C   0  0  0  0  0  0  0  0  0  0  0  0
  -23.9264  -25.4677   22.0798 C   0  0  0  0  0  0  0  0  0  0  0  0
  -22.3369  -15.7418   24.3344 C   0  0  0  0  0  0  0  0  0  0  0  0
  -22.9789  -13.7921   25.6086 C   0  0  0  0  0  0  0  0  0  0  0  0
  -22.7682  -15.1185   23.1635 C   0  0  0  0  0  0  0  0  0  0  0  0
  -23.4102  -13.1688   24.4376 C   0  0  0  0  0  0  0  0  0  0  0  0
  -23.3049  -13.8320   23.2150 C   0  0  0  0  0  0  0  0  0  0  0  0
  -28.9004  -22.2479   19.2285 C   0  0  0  0  0  0  0  0  0  0  0  0
  -23.2300  -23.2764   22.8692 C   0  0  0  0  0  0  0  0  0  0  0  0
  -29.6010  -23.6416   17.4709 C   0  0  0  0  0  0  0  0  0  0  0  0
  -31.2822  -24.0793   15.2882 C   0  0  0  0  0  0  0  0  0  0  0  0
  -30.4685  -24.7339   17.4668 C   0  0  0  0  0  0  0  0  0  0  0  0
  -29.3150  -18.5968   21.3249 C   0  0  0  0  0  0  0  0  0  0  0  0
  -29.7953  -17.0537   22.8159 C   0  0  0  0  0  0  0  0  0  0  0  0
  -22.0938  -20.3232   24.0090 C   0  0  0  0  0  0  0  0  0  0  0  0
  -23.1607  -21.1145   23.8137 C   0  0  0  0  0  0  0  0  0  1  0  0
  -21.8803  -19.3992   25.1015 C   0  0  0  0  0  0  0  0  0  0  0  0
  -21.0466  -19.7030   26.1102 C   0  0  0  0  0  0  0  0  0  0  0  0
  -30.5284  -19.3544   23.4623 C   0  0  0  0  0  0  0  0  0  0  0  0
  -22.3828  -28.4257   21.3756 C   0  0  0  0  0  0  0  0  0  0  0  0
  -25.5220  -28.6022   20.5775 C   0  0  0  0  0  0  0  0  0  0  0  0
  -28.8361  -28.0855   19.9477 C   0  0  0  0  0  0  0  0  0  0  0  0
  -25.9647  -12.9001   20.8346 C   0  0  0  0  0  0  0  0  0  0  0  0
  -18.5904  -31.6924   22.3772 C   0  0  0  0  0  0  0  0  0  0  0  0
  -23.4832  -27.5322   23.4605 C   0  0  0  0  0  0  0  0  0  0  0  0
  -24.5970  -26.2962   21.0157 C   0  0  0  0  0  0  0  0  0  0  0  0
  -24.4095  -21.2493   24.6570 C   0  0  0  0  0  0  0  0  0  0  0  0
  -19.8865  -31.7380   21.5721 C   0  0  0  0  0  0  0  0  0  0  0  0
  -24.5618  -20.4224   25.9377 C   0  0  0  0  0  0  0  0  0  0  0  0
  -29.5109  -12.8672   20.5174 C   0  0  0  0  0  0  0  0  0  0  0  0
  -24.8576  -18.9343   25.7304 C   0  0  0  0  0  0  0  0  0  0  0  0
  -19.9944  -30.5166   20.6646 C   0  0  0  0  0  0  0  0  0  0  0  0
  -29.9170  -14.3143   20.8019 C   0  0  0  0  0  0  0  0  0  0  0  0
  -28.1908  -12.7913   19.7533 C   0  0  0  0  0  0  0  0  0  0  0  0
  -27.4775  -14.9685   20.6616 C   0  0  0  0  0  0  0  0  0  0  0  0
  -23.9926  -18.1544   24.7433 C   0  0  0  0  0  0  0  0  0  0  0  0
  -20.0279  -29.2213   21.4846 C   0  0  1  0  0  0  0  0  0  0  0  0
  -23.6556  -28.3234   22.1676 C   0  0  1  0  0  0  0  0  0  0  0  0
  -28.7744  -15.0945   21.4793 C   0  0  2  0  0  0  0  0  0  0  0  0
  -22.6543  -15.8322   21.8535 C   0  0  0  0  0  0  0  0  0  0  0  0
  -23.9847  -11.7888   24.4959 C   0  0  0  0  0  0  0  0  0  0  0  0
  -20.7795  -18.8020   27.2646 C   0  0  0  0  0  0  0  0  0  0  0  0
  -30.7324  -28.9451   18.5468 C   0  0  0  0  0  0  0  0  0  0  0  0
  -24.3606  -27.1829   18.1389 C   0  0  0  0  0  0  0  0  0  0  0  0
  -26.6399  -27.2440   17.1047 C   0  0  0  0  0  0  0  0  0  0  0  0
  -25.4599  -29.3743   17.6452 C   0  0  0  0  0  0  0  0  0  0  0  0
  -22.1057  -11.3812   28.4530 C   0  0  0  0  0  0  0  0  0  0  0  0
  -30.4163  -28.8301   22.3367 C   0  0  0  0  0  0  0  0  0  0  0  0
  -23.7680  -13.1637   21.9590 C   0  0  0  0  0  0  0  0  0  0  0  0
  -21.7555  -17.1246   24.3066 C   0  0  0  0  0  0  0  0  0  0  0  0
  -23.0815  -13.1043   26.9306 C   0  0  0  0  0  0  0  0  0  0  0  0
  -26.3947  -27.9641   19.5239 C   0  0  1  0  0  0  0  0  0  0  0  0
  -30.0104  -29.0452   19.8815 C   0  0  2  0  0  0  0  0  0  0  0  0
  -25.7097  -27.9291   18.1285 C   0  0  0  0  0  0  0  0  0  0  0  0
  -28.8474  -17.4631   20.7957 N   0  0  0  0  0  0  0  0  0  0  0  0
  -29.1547  -16.5428   21.7256 N   0  0  0  0  0  0  0  0  0  0  0  0
  -24.6653  -27.7429   21.2801 N   0  0  0  0  0  0  0  0  0  0  0  0
  -27.1488  -13.5501   20.4493 N   0  0  0  0  0  0  0  0  0  0  0  0
  -30.1759  -16.2672   23.8450 N   0  0  0  0  0  0  0  0  0  0  0  0
  -29.7276  -19.9902   24.4208 N   0  0  0  0  0  0  0  0  0  0  0  0
  -21.3406  -29.0211   22.0601 N   0  0  0  0  0  0  0  0  0  0  0  0
  -27.6612  -28.6878   19.5498 N   0  0  0  0  0  0  0  0  0  0  0  0
  -25.0320  -13.6906   21.4948 N   0  0  0  0  0  0  0  0  0  0  0  0
  -22.5359  -18.1116   25.1417 N   0  3  2  0  0  0  0  0  0  0  0  0
  -22.0585  -12.0405   27.1215 N   0  3  0  0  0  0  0  0  0  0  0  0
  -30.9861  -28.7454   20.9673 N   0  3  0  0  0  0  0  0  0  0  0  0
  -31.7464  -19.6455   23.3892 O   0  0  0  0  0  0  0  0  0  0  0  0
  -22.3493  -27.9974   20.2279 O   0  0  0  0  0  0  0  0  0  0  0  0
  -25.6027  -29.8172   20.7750 O   0  0  0  0  0  0  0  0  0  0  0  0
  -28.9502  -26.9173   20.3120 O   0  0  0  0  0  0  0  0  0  0  0  0
  -25.7566  -11.7026   20.6119 O   0  0  0  0  0  0  0  0  0  0  0  0
  -28.7664  -23.4225   18.5540 O   0  0  0  0  0  0  0  0  0  0  0  0
  -23.1537  -21.9300   22.6864 O   0  0  0  0  0  0  0  0  0  1  0  0
  -32.0905  -24.2884   14.2407 F   0  0  0  0  0  0  0  0  0  0  0  0
  -30.4997  -25.5757   18.5090 F   0  0  0  0  0  0  0  0  0  0  0  0
  1  2  1  0  0  0  0
  1  5  2  0  0  0  0
  2  6  2  0  0  0  0
  3  8  2  0  0  0  0
  3 16  1  0  0  0  0
  4  9  1  0  0  0  0
  4 16  2  0  0  0  0
  5 18  1  0  0  0  0
  6 20  1  0  0  0  0
  7 10  2  0  0  0  0
  7 19  1  0  0  0  0
  8 27  1  0  0  0  0
  9 27  2  0  0  0  0
 10 28  1  0  0  0  0
 11 12  2  0  0  0  0
 11 29  1  0  0  0  0
 12 30  1  0  0  0  0
 13 21  1  0  0  0  0
 13 28  2  0  0  0  0
 14 22  1  0  0  0  0
 14 23  2  0  0  0  0
 15 30  2  0  0  0  0
 15 31  1  0  0  0  0
 16 32  1  0  0  0  0
 17 32  1  0  0  0  0
 17 33  2  0  0  0  0
 17 38  1  0  0  0  0
 18 20  2  0  0  0  0
 18 43  1  0  0  0  0
 19 21  2  0  0  0  0
 19 44  1  0  0  0  0
 20 56  1  0  0  0  0
 21 45  1  0  0  0  0
 22 24  2  0  0  0  0
 22 69  1  0  0  0  0
 23 25  1  0  0  0  0
 23 70  1  0  0  0  0
 24 26  1  0  0  0  0
 24 59  1  0  0  0  0
 25 26  2  0  0  0  0
 25 60  1  0  0  0  0
 26 68  1  0  0  0  0
 27 91  1  0  0  0  0
 28 92  1  0  0  0  0
 29 31  2  0  0  0  0
 29 91  1  0  0  0  0
 30 93  1  0  0  0  0
 31 94  1  0  0  0  0
 32 74  2  0  0  0  0
 33 75  1  0  0  0  0
 33 78  1  0  0  0  0
 34 35  2  0  0  0  0
 34 36  1  0  0  0  0
 35 46  1  0  0  0  0
 35 92  1  0  0  0  0
 36 37  2  0  0  0  0
 36 83  1  0  0  0  0
 37 61  1  0  0  0  0
 38 79  1  0  0  0  0
 38 86  2  0  0  0  0
 39 57  1  0  0  0  0
 39 80  1  0  0  0  0
 39 87  2  0  0  0  0
 40 71  1  0  0  0  0
 40 76  1  0  0  0  0
 40 88  2  0  0  0  0
 41 72  1  0  0  0  0
 41 81  1  0  0  0  0
 41 89  2  0  0  0  0
 42 77  1  0  0  0  0
 42 82  1  0  0  0  0
 42 90  2  0  0  0  0
 43 47  1  0  0  0  0
 44 57  1  0  0  0  0
 45 76  1  0  0  0  0
 46 48  1  0  0  0  0
 47 51  1  0  0  0  0
 48 50  1  0  0  0  0
 49 52  1  0  0  0  0
 49 53  1  0  0  0  0
 50 55  1  0  0  0  0
 51 56  1  0  0  0  0
 52 58  1  0  0  0  0
 53 77  1  0  0  0  0
 54 58  1  0  0  0  0
 54 77  1  0  0  0  0
 55 83  1  0  0  0  0
 56 80  1  0  0  0  0
 57 76  1  0  0  0  0
 58 75  1  0  0  0  0
 62 72  1  0  0  0  0
 63 73  1  0  0  0  0
 64 73  1  0  0  0  0
 65 73  1  0  0  0  0
 66 84  1  0  0  0  0
 67 85  1  0  0  0  0
 68 82  1  0  0  0  0
 69 83  1  0  0  0  0
 70 84  1  0  0  0  0
 71 73  1  0  0  0  0
 71 81  1  0  0  0  0
 72 85  1  0  0  0  0
 74 75  1  0  0  0  0
M  CHG  3  83   1  84   1  85   1
M  ISO  4  35 101  42 100  82 100  92 101
M  END
> <Batch ID>
0039

> <Smiles>
CC=C1C=[101C:1]([101O:1]c2ccc3c(c2)CN(C(=O)C(NC(=O)C(C)NC)C(C)(C)C)C(C(=O)NC2CCCc4ccccc42)C3)CCCCN1Cc1cc(CNC)c(C)c(C[100NH:0][100C:0](=O)N2CCCC(n3nc(-c4ccc(Oc5ccc(F)cc5F)cc4)c(C(N)=O)c3N)C2)c1C

> <Shape>
0.227

> <Color>
0.077

> <Negative vol penalty>
0.000

$$$$

  -OEChem-04042322043D

 84 92  0     1  0  0  0  0  0999 V2000
  -18.3347  -17.1505   23.3681 C   0  0  0  0  0  0  0  0  0  0  0  0
  -19.5525  -17.7484   23.0600 C   0  0  0  0  0  0  0  0  0  0  0  0
  -22.9350  -10.0578   20.2068 C   0  0  0  0  0  0  0  0  0  0  0  0
  -23.6821  -10.2309   22.4979 C   0  0  0  0  0  0  0  0  0  0  0  0
  -17.1434  -17.8339   23.1277 C   0  0  0  0  0  0  0  0  0  0  0  0
  -19.5796  -19.0296   22.5103 C   0  0  0  0  0  0  0  0  0  0  0  0
  -23.0671  -21.9976   24.6721 C   0  0  0  0  0  0  0  0  0  0  0  0
  -31.0434  -19.6763   20.9318 C   0  0  0  0  0  0  0  0  0  0  0  0
  -22.1186   -8.9816   20.5543 C   0  0  0  0  0  0  0  0  0  0  0  0
  -22.8656   -9.1547   22.8454 C   0  0  0  0  0  0  0  0  0  0  0  0
  -24.3926  -21.8102   24.2826 C   0  0  0  0  0  0  0  0  0  0  0  0
  -19.5905   -8.6194   23.4838 C   0  0  0  0  0  0  0  0  0  0  0  0
  -18.8266   -8.7359   24.6450 C   0  0  0  0  0  0  0  0  0  0  0  0
  -31.1898  -18.8505   19.8173 C   0  0  0  0  0  0  0  0  0  0  0  0
  -24.2222  -23.7125   22.8089 C   0  0  0  0  0  0  0  0  0  0  0  0
  -19.9394   -6.8019   25.5713 C   0  0  0  0  0  0  0  0  0  0  0  0
  -23.7168  -10.6824   21.1786 C   0  0  0  0  0  0  0  0  0  0  0  0
  -24.2179  -13.1592   20.8289 C   0  0  0  0  0  0  0  0  0  0  0  0
  -17.1563  -19.1279   22.5837 C   0  0  0  0  0  0  0  0  0  0  0  0
  -22.3046  -23.0390   24.1239 C   0  0  0  0  0  0  0  0  0  0  0  0
  -18.3874  -19.7303   22.2611 C   0  0  0  0  0  0  0  0  0  0  0  0
  -22.8880  -23.9125   23.1950 C   0  0  0  0  0  0  0  0  0  0  0  0
  -30.6476  -19.1340   22.1545 C   0  0  0  0  0  0  0  0  0  0  0  0
  -30.3981  -17.7659   22.2626 C   0  0  0  0  0  0  0  0  0  0  0  0
  -30.5445  -16.9400   21.1480 C   0  0  0  0  0  0  0  0  0  0  0  0
  -22.0838   -8.5300   21.8736 C   0  0  0  0  0  0  0  0  0  0  0  0
  -24.9695  -22.6659   23.3487 C   0  0  0  0  0  0  0  0  0  0  0  0
  -20.5289   -7.5940   23.3663 C   0  0  0  0  0  0  0  0  0  0  0  0
  -19.0010   -7.8272   25.6888 C   0  0  0  0  0  0  0  0  0  0  0  0
  -20.7034   -6.6853   24.4101 C   0  0  0  0  0  0  0  0  0  0  0  0
  -30.9403  -17.4824   19.9254 C   0  0  0  0  0  0  0  0  0  0  0  0
  -24.5608  -11.7939   20.8201 C   0  0  0  0  0  0  0  0  0  0  0  0
  -25.3571  -13.8020   20.4098 C   0  0  0  0  0  0  0  0  0  0  0  0
  -22.9804  -13.7900   21.1843 C   0  0  0  0  0  0  0  0  0  0  0  0
  -19.6565  -23.1987   22.3730 C   0  0  0  0  0  0  0  0  0  0  0  0
  -19.9915  -26.3879   22.8621 C   0  0  0  0  0  0  0  0  0  0  0  0
  -28.3979  -21.3505   23.0611 C   0  0  0  0  0  0  0  0  0  0  0  0
  -22.0575  -29.0075   23.5803 C   0  0  0  0  0  0  0  0  0  0  0  0
  -30.8774  -14.5164   20.5468 C   0  0  0  0  0  0  0  0  0  0  0  0
  -15.8411  -19.8083   22.2977 C   0  0  0  0  0  0  0  0  0  0  0  0
  -20.8843  -23.2440   24.5744 C   0  0  0  0  0  0  0  0  0  0  0  0
  -22.1184  -25.0581   22.5918 C   0  0  0  0  0  0  0  0  0  0  0  0
  -15.9714  -21.3107   22.0610 C   0  0  0  0  0  0  0  0  0  0  0  0
  -29.6250  -11.9667   18.4002 C   0  0  0  0  0  0  0  0  0  0  0  0
  -17.1223  -21.6025   21.1033 C   0  0  0  0  0  0  0  0  0  0  0  0
  -28.1676  -11.8068   18.8391 C   0  0  0  0  0  0  0  0  0  0  0  0
  -30.5466  -12.2489   19.5855 C   0  0  0  0  0  0  0  0  0  0  0  0
  -28.6821  -13.2164   20.8727 C   0  0  0  0  0  0  0  0  0  0  0  0
  -18.4589  -21.1285   21.6866 C   0  0  1  0  0  0  0  0  0  0  0  0
  -20.0446  -24.0237   23.5673 C   0  0  1  0  0  0  0  0  0  0  0  0
  -27.7063  -12.9952   19.7054 C   0  0  2  0  0  0  0  0  0  0  0  0
  -29.9756  -17.1920   23.5791 C   0  0  0  0  0  0  0  0  0  0  0  0
  -22.0492  -31.4997   23.8746 C   0  0  0  0  0  0  0  0  0  0  0  0
  -19.8296  -26.7423   19.8359 C   0  0  0  0  0  0  0  0  0  0  0  0
  -20.7615  -29.0479   20.1260 C   0  0  0  0  0  0  0  0  0  0  0  0
  -18.5687  -28.4521   21.1553 C   0  0  0  0  0  0  0  0  0  0  0  0
  -22.9709  -28.7955   26.3874 C   0  0  0  0  0  0  0  0  0  0  0  0
  -30.4971  -20.0458   23.3378 C   0  0  0  0  0  0  0  0  0  0  0  0
  -26.9703  -21.3982   23.5621 C   0  0  0  0  0  0  0  0  0  1  0  0
  -20.6977  -27.5115   22.1425 C   0  0  1  0  0  0  0  0  0  0  0  0
  -21.9264  -30.1522   24.5688 C   0  0  2  0  0  0  0  0  0  0  0  0
  -19.9786  -27.9158   20.8247 C   0  0  0  0  0  0  0  0  0  0  0  0
  -25.8193  -11.5808   20.4264 N   0  0  0  0  0  0  0  0  0  0  0  0
  -26.2771  -12.8208   20.1838 N   0  0  0  0  0  0  0  0  0  0  0  0
  -20.7311  -25.2133   23.0597 N   0  0  0  0  0  0  0  0  0  0  0  0
  -30.0493  -13.3898   20.3574 N   0  0  0  0  0  0  0  0  0  0  0  0
  -25.6514  -15.1052   20.2161 N   0  0  0  0  0  0  0  0  0  0  0  0
  -21.9114  -12.9811   21.5932 N   0  0  0  0  0  0  0  0  0  0  0  0
  -30.2855  -15.5522   21.2689 N   0  0  0  0  0  0  0  0  0  0  0  0
  -18.9344  -22.0625   22.6847 N   0  0  0  0  0  0  0  0  0  0  0  0
  -29.1102  -20.3128   23.6415 N   0  0  0  0  0  0  0  0  0  0  0  0
  -20.8286  -28.5965   23.1089 N   0  0  0  0  0  0  0  0  0  0  0  0
  -22.9886  -30.0615   25.6102 N   0  3  0  0  0  0  0  0  0  0  0  0
  -22.8220  -15.0329   21.1248 O   0  0  0  0  0  0  0  0  0  0  0  0
  -19.9863  -23.5666   21.2516 O   0  0  0  0  0  0  0  0  0  0  0  0
  -18.8288  -26.5491   23.2415 O   0  0  0  0  0  0  0  0  0  0  0  0
  -28.8412  -22.1497   22.2408 O   0  0  0  0  0  0  0  0  0  0  0  0
  -23.1419  -28.5286   23.2558 O   0  0  0  0  0  0  0  0  0  0  0  0
  -32.0172  -14.5701   20.0780 O   0  0  0  0  0  0  0  0  0  0  0  0
  -21.2871   -7.4801   22.2132 O   0  0  0  0  0  0  0  0  0  0  0  0
  -26.2629  -22.4848   22.9663 O   0  0  0  0  0  0  0  0  0  1  0  0
  -18.2684   -7.9402   26.8044 F   0  0  0  0  0  0  0  0  0  0  0  0
  -21.6041   -5.6989   24.3035 F   0  0  0  0  0  0  0  0  0  0  0  0
  -31.1395  -16.4988   18.5184 Cl  0  0  0  0  0  0  0  0  0  0  0  0
  1  2  1  0  0  0  0
  1  5  2  0  0  0  0
  2  6  2  0  0  0  0
  3  9  2  0  0  0  0
  3 17  1  0  0  0  0
  4 10  1  0  0  0  0
  4 17  2  0  0  0  0
  5 19  1  0  0  0  0
  6 21  1  0  0  0  0
  7 11  2  0  0  0  0
  7 20  1  0  0  0  0
  8 14  2  0  0  0  0
  8 23  1  0  0  0  0
  9 26  1  0  0  0  0
 10 26  2  0  0  0  0
 11 27  1  0  0  0  0
 12 13  2  0  0  0  0
 12 28  1  0  0  0  0
 13 29  1  0  0  0  0
 14 31  1  0  0  0  0
 15 22  1  0  0  0  0
 15 27  2  0  0  0  0
 16 29  2  0  0  0  0
 16 30  1  0  0  0  0
 17 32  1  0  0  0  0
 18 32  1  0  0  0  0
 18 33  2  0  0  0  0
 18 34  1  0  0  0  0
 19 21  2  0  0  0  0
 19 40  1  0  0  0  0
 20 22  2  0  0  0  0
 20 41  1  0  0  0  0
 21 49  1  0  0  0  0
 22 42  1  0  0  0  0
 23 24  2  0  0  0  0
 23 58  1  0  0  0  0
 24 25  1  0  0  0  0
 24 52  1  0  0  0  0
 25 31  2  0  0  0  0
 25 69  1  0  0  0  0
 26 80  1  0  0  0  0
 27 81  1  0  0  0  0
 28 30  2  0  0  0  0
 28 80  1  0  0  0  0
 29 82  1  0  0  0  0
 30 83  1  0  0  0  0
 31 84  1  0  0  0  0
 32 63  2  0  0  0  0
 33 64  1  0  0  0  0
 33 67  1  0  0  0  0
 34 68  1  0  0  0  0
 34 74  2  0  0  0  0
 35 50  1  0  0  0  0
 35 70  1  0  0  0  0
 35 75  2  0  0  0  0
 36 60  1  0  0  0  0
 36 65  1  0  0  0  0
 36 76  2  0  0  0  0
 37 59  1  0  0  0  0
 37 71  1  0  0  0  0
 37 77  2  0  0  0  0
 38 61  1  0  0  0  0
 38 72  1  0  0  0  0
 38 78  2  0  0  0  0
 39 66  1  0  0  0  0
 39 69  1  0  0  0  0
 39 79  2  0  0  0  0
 40 43  1  0  0  0  0
 41 50  1  0  0  0  0
 42 65  1  0  0  0  0
 43 45  1  0  0  0  0
 44 46  1  0  0  0  0
 44 47  1  0  0  0  0
 45 49  1  0  0  0  0
 46 51  1  0  0  0  0
 47 66  1  0  0  0  0
 48 51  1  0  0  0  0
 48 66  1  0  0  0  0
 49 70  1  0  0  0  0
 50 65  1  0  0  0  0
 51 64  1  0  0  0  0
 53 61  1  0  0  0  0
 54 62  1  0  0  0  0
 55 62  1  0  0  0  0
 56 62  1  0  0  0  0
 57 73  1  0  0  0  0
 58 71  1  0  0  0  0
 59 81  1  0  0  0  0
 60 62  1  0  0  0  0
 60 72  1  0  0  0  0
 61 73  1  0  0  0  0
 63 64  1  0  0  0  0
M  CHG  1  73   1
M  ISO  4  39 100  59 101  69 100  81 101
M  END
> <Batch ID>
0039

> <Smiles>
CNC(C)C(=O)NC(C(=O)N1Cc2cc([101O:1][101CH2:1]C(=O)NCc3ccc(Cl)c([100NH:0][100C:0](=O)N4CCCC(n5nc(-c6ccc(Oc7ccc(F)cc7F)cc6)c(C(N)=O)c5N)C4)c3C)ccc2CC1C(=O)NC1CCCc2ccccc21)C(C)(C)C

> <Shape>
0.234

> <Color>
0.195

> <Negative vol penalty>
0.000

$$$$

  -OEChem-04042322043D

 84 92  0     1  0  0  0  0  0999 V2000
  -28.3186  -24.7746   16.5766 C   0  0  0  0  0  0  0  0  0  0  0  0
  -27.1384  -24.9130   17.3000 C   0  0  0  0  0  0  0  0  0  0  0  0
  -28.6634  -17.6376   21.3106 C   0  0  0  0  0  0  0  0  0  0  0  0
  -26.2851  -17.8488   20.9418 C   0  0  0  0  0  0  0  0  0  0  0  0
  -29.5022  -25.3279   17.0633 C   0  0  0  0  0  0  0  0  0  0  0  0
  -27.1414  -25.6039   18.5113 C   0  0  0  0  0  0  0  0  0  0  0  0
  -23.2372  -28.8014   18.9334 C   0  0  0  0  0  0  0  0  0  0  0  0
  -28.6353  -16.3570   20.7584 C   0  0  0  0  0  0  0  0  0  0  0  0
  -26.2570  -16.5682   20.3896 C   0  0  0  0  0  0  0  0  0  0  0  0
  -21.9971  -28.2529   19.2576 C   0  0  0  0  0  0  0  0  0  0  0  0
  -25.4942  -13.2153   19.2121 C   0  0  0  0  0  0  0  0  0  0  0  0
  -24.4677  -12.3594   19.6115 C   0  0  0  0  0  0  0  0  0  0  0  0
  -22.3111  -28.9164   21.5555 C   0  0  0  0  0  0  0  0  0  0  0  0
  -21.4676  -24.2367   26.0955 C   0  0  0  0  0  0  0  0  0  0  0  0
  -20.2217  -22.4906   24.3118 C   0  0  0  0  0  0  0  0  0  0  0  0
  -25.2257  -12.5181   21.9000 C   0  0  0  0  0  0  0  0  0  0  0  0
  -27.4882  -18.3835   21.4024 C   0  0  0  0  0  0  0  0  0  0  0  0
  -27.7294  -20.9207   21.2941 C   0  0  0  0  0  0  0  0  0  0  0  0
  -29.5177  -26.0342   18.2764 C   0  0  0  0  0  0  0  0  0  0  0  0
  -24.0297  -29.4029   19.9216 C   0  0  0  0  0  0  0  0  0  0  0  0
  -28.3265  -26.1660   19.0153 C   0  0  0  0  0  0  0  0  0  0  0  0
  -23.5597  -29.4741   21.2408 C   0  0  0  0  0  0  0  0  0  0  0  0
  -21.6510  -22.8600   26.2243 C   0  0  0  0  0  0  0  0  0  0  0  0
  -20.0383  -23.8674   24.1830 C   0  0  0  0  0  0  0  0  0  0  0  0
  -27.4322  -15.8223   20.2979 C   0  0  0  0  0  0  0  0  0  0  0  0
  -21.5352  -28.3078   20.5693 C   0  0  0  0  0  0  0  0  0  0  0  0
  -26.3864  -13.7226   20.1567 C   0  0  0  0  0  0  0  0  0  0  0  0
  -24.3335  -12.0109   20.9554 C   0  0  0  0  0  0  0  0  0  0  0  0
  -26.2522  -13.3740   21.5006 C   0  0  0  0  0  0  0  0  0  0  0  0
  -21.0281  -21.9869   25.3325 C   0  0  0  0  0  0  0  0  0  0  0  0
  -20.6612  -24.7404   25.0749 C   0  0  0  0  0  0  0  0  0  0  0  0
  -27.5164  -19.7061   21.9732 C   0  0  0  0  0  0  0  0  0  0  0  0
  -27.6615  -21.8793   22.2754 C   0  0  0  0  0  0  0  0  0  0  0  0
  -27.9672  -21.1610   19.9008 C   0  0  0  0  0  0  0  0  0  0  0  0
  -26.9072  -28.8310   21.1451 C   0  0  0  0  0  0  0  0  0  0  0  0
  -26.3636  -31.6162   22.7167 C   0  0  0  0  0  0  0  0  0  0  0  0
  -24.1006  -33.8631   23.9319 C   0  0  0  0  0  0  0  0  0  0  0  0
  -24.9692  -22.0587   27.6206 C   0  0  0  0  0  0  0  0  0  0  0  0
  -30.8308  -26.5740   18.7853 C   0  0  0  0  0  0  0  0  0  0  0  0
  -25.3532  -30.0137   19.5506 C   0  0  0  0  0  0  0  0  0  0  0  0
  -24.3632  -30.1269   22.3348 C   0  0  0  0  0  0  0  0  0  0  0  0
  -30.6741  -27.6131   19.8926 C   0  0  0  0  0  0  0  0  0  0  0  0
  -28.4375  -22.5095   26.9543 C   0  0  0  0  0  0  0  0  0  0  0  0
  -29.6735  -27.1318   20.9385 C   0  0  0  0  0  0  0  0  0  0  0  0
  -28.6140  -21.9518   25.5409 C   0  0  0  0  0  0  0  0  0  0  0  0
  -27.4171  -21.7040   27.7555 C   0  0  0  0  0  0  0  0  0  0  0  0
  -26.2804  -20.9868   25.6898 C   0  0  0  0  0  0  0  0  0  0  0  0
  -28.2844  -26.9297   20.3211 C   0  0  1  0  0  0  0  0  0  0  0  0
  -26.3041  -30.1451   20.7363 C   0  0  1  0  0  0  0  0  0  0  0  0
  -27.2585  -21.8000   24.8247 C   0  0  2  0  0  0  0  0  0  0  0  0
  -23.9560  -36.0218   25.2033 C   0  0  0  0  0  0  0  0  0  0  0  0
  -26.9757  -30.1277   25.3089 C   0  0  0  0  0  0  0  0  0  0  0  0
  -25.9118  -32.0157   26.5626 C   0  0  0  0  0  0  0  0  0  0  0  0
  -27.9428  -32.4301   25.1748 C   0  0  0  0  0  0  0  0  0  0  0  0
  -22.7745  -35.2395   21.6723 C   0  0  0  0  0  0  0  0  0  0  0  0
  -22.5229  -22.3610   27.3310 C   0  0  0  0  0  0  0  0  0  0  0  0
  -19.1631  -24.3696   23.0727 C   0  0  0  0  0  0  0  0  0  0  0  0
  -19.0550  -25.7331   20.9828 C   0  0  0  0  0  0  0  0  0  0  0  0
  -19.8830  -26.6590   20.1137 C   0  0  0  0  0  0  0  0  0  1  0  0
  -25.7293  -31.9946   24.0333 C   0  0  1  0  0  0  0  0  0  0  0  0
  -24.0280  -35.3759   23.8284 C   0  0  2  0  0  0  0  0  0  0  0  0
  -26.6254  -31.6279   25.2499 C   0  0  0  0  0  0  0  0  0  0  0  0
  -27.3276  -19.8749   23.2847 N   0  0  0  0  0  0  0  0  0  0  0  0
  -27.4217  -21.2067   23.4375 N   0  0  0  0  0  0  0  0  0  0  0  0
  -25.6536  -30.7040   21.9232 N   0  0  0  0  0  0  0  0  0  0  0  0
  -26.1536  -21.5988   27.0218 N   0  0  0  0  0  0  0  0  0  0  0  0
  -27.7841  -23.2234   22.2491 N   0  0  0  0  0  0  0  0  0  0  0  0
  -28.0054  -20.0632   19.0304 N   0  0  0  0  0  0  0  0  0  0  0  0
  -27.6207  -28.2032   20.1420 N   0  0  0  0  0  0  0  0  0  0  0  0
  -25.4041  -33.4135   23.9368 N   0  0  0  0  0  0  0  0  0  0  0  0
  -23.8175  -21.9276   26.8543 N   0  0  0  0  0  0  0  0  0  0  0  0
  -22.8226  -35.7848   23.0533 N   0  3  0  0  0  0  0  0  0  0  0  0
  -19.8791  -25.2672   22.1264 N   0  3  0  0  0  0  0  0  0  0  0  0
  -28.1570  -22.3137   19.4437 O   0  0  0  0  0  0  0  0  0  0  0  0
  -26.7390  -28.4181   22.2865 O   0  0  0  0  0  0  0  0  0  0  0  0
  -27.4457  -32.1171   22.4006 O   0  0  0  0  0  0  0  0  0  0  0  0
  -23.1010  -33.1517   24.0051 O   0  0  0  0  0  0  0  0  0  0  0  0
  -24.9410  -22.5547   28.7520 O   0  0  0  0  0  0  0  0  0  0  0  0
  -27.4045  -14.5729   19.7588 O   0  0  0  0  0  0  0  0  0  0  0  0
  -20.3254  -27.7726   20.8886 O   0  0  0  0  0  0  0  0  0  1  0  0
  -23.3468  -11.1901   21.3389 F   0  0  0  0  0  0  0  0  0  0  0  0
  -27.1056  -13.8591   22.4128 F   0  0  0  0  0  0  0  0  0  0  0  0
  -21.2333  -20.2780   25.4606 Cl  0  0  0  0  0  0  0  0  0  0  0  0
  -20.4573  -26.4496   24.9463 Cl  0  0  0  0  0  0  0  0  0  0  0  0
  1  2  1  0  0  0  0
  1  5  2  0  0  0  0
  2  6  2  0  0  0  0
  3  8  2  0  0  0  0
  3 17  1  0  0  0  0
  4  9  1  0  0  0  0
  4 17  2  0  0  0  0
  5 19  1  0  0  0  0
  6 21  1  0  0  0  0
  7 10  2  0  0  0  0
  7 20  1  0  0  0  0
  8 25  1  0  0  0  0
  9 25  2  0  0  0  0
 10 26  1  0  0  0  0
 11 12  2  0  0  0  0
 11 27  1  0  0  0  0
 12 28  1  0  0  0  0
 13 22  1  0  0  0  0
 13 26  2  0  0  0  0
 14 23  2  0  0  0  0
 14 31  1  0  0  0  0
 15 24  1  0  0  0  0
 15 30  2  0  0  0  0
 16 28  2  0  0  0  0
 16 29  1  0  0  0  0
 17 32  1  0  0  0  0
 18 32  1  0  0  0  0
 18 33  2  0  0  0  0
 18 34  1  0  0  0  0
 19 21  2  0  0  0  0
 19 39  1  0  0  0  0
 20 22  2  0  0  0  0
 20 40  1  0  0  0  0
 21 48  1  0  0  0  0
 22 41  1  0  0  0  0
 23 30  1  0  0  0  0
 23 56  1  0  0  0  0
 24 31  2  0  0  0  0
 24 57  1  0  0  0  0
 25 79  1  0  0  0  0
 26 80  1  0  0  0  0
 27 29  2  0  0  0  0
 27 79  1  0  0  0  0
 28 81  1  0  0  0  0
 29 82  1  0  0  0  0
 30 83  1  0  0  0  0
 31 84  1  0  0  0  0
 32 63  2  0  0  0  0
 33 64  1  0  0  0  0
 33 67  1  0  0  0  0
 34 68  1  0  0  0  0
 34 74  2  0  0  0  0
 35 49  1  0  0  0  0
 35 69  1  0  0  0  0
 35 75  2  0  0  0  0
 36 60  1  0  0  0  0
 36 65  1  0  0  0  0
 36 76  2  0  0  0  0
 37 61  1  0  0  0  0
 37 70  1  0  0  0  0
 37 77  2  0  0  0  0
 38 66  1  0  0  0  0
 38 71  1  0  0  0  0
 38 78  2  0  0  0  0
 39 42  1  0  0  0  0
 40 49  1  0  0  0  0
 41 65  1  0  0  0  0
 42 44  1  0  0  0  0
 43 45  1  0  0  0  0
 43 46  1  0  0  0  0
 44 48  1  0  0  0  0
 45 50  1  0  0  0  0
 46 66  1  0  0  0  0
 47 50  1  0  0  0  0
 47 66  1  0  0  0  0
 48 69  1  0  0  0  0
 49 65  1  0  0  0  0
 50 64  1  0  0  0  0
 51 61  1  0  0  0  0
 52 62  1  0  0  0  0
 53 62  1  0  0  0  0
 54 62  1  0  0  0  0
 55 72  1  0  0  0  0
 56 71  1  0  0  0  0
 57 73  1  0  0  0  0
 58 59  1  0  0  0  0
 58 73  1  0  0  0  0
 59 80  1  0  0  0  0
 60 62  1  0  0  0  0
 60 70  1  0  0  0  0
 61 72  1  0  0  0  0
 63 64  1  0  0  0  0
M  CHG  2  72   1  73   1
M  ISO  4  38 100  59 101  71 100  80 101
M  END
> <Batch ID>
0039

> <Smiles>
CNC(C)C(=O)NC(C(=O)N1Cc2cc([101O:1][101CH2:1]CNCc3cc(Cl)c(C[100NH:0][100C:0](=O)N4CCCC(n5nc(-c6ccc(Oc7ccc(F)cc7F)cc6)c(C(N)=O)c5N)C4)cc3Cl)ccc2CC1C(=O)NC1CCCc2ccccc21)C(C)(C)C

> <Shape>
0.270

> <Color>
0.077

> <Negative vol penalty>
0.000

$$$$

  -OEChem-04042322043D

 92101  0     1  0  0  0  0  0999 V2000
  -19.2140  -18.7909   28.5341 C   0  0  0  0  0  0  0  0  0  0  0  0
  -20.0487  -19.0039   27.4417 C   0  0  0  0  0  0  0  0  0  0  0  0
  -22.6665  -10.2333   20.2358 C   0  0  0  0  0  0  0  0  0  0  0  0
  -24.2063   -9.6511   22.0042 C   0  0  0  0  0  0  0  0  0  0  0  0
  -18.0942  -19.5999   28.7225 C   0  0  0  0  0  0  0  0  0  0  0  0
  -19.7634  -20.0255   26.5364 C   0  0  0  0  0  0  0  0  0  0  0  0
  -23.8657  -22.7223   25.2944 C   0  0  0  0  0  0  0  0  0  0  0  0
  -32.3711  -18.4681   22.5382 C   0  0  0  0  0  0  0  0  0  0  0  0
  -31.8742  -17.2304   22.1298 C   0  0  0  0  0  0  0  0  0  0  0  0
  -21.9160   -9.0907   20.5130 C   0  0  0  0  0  0  0  0  0  0  0  0
  -23.4558   -8.5085   22.2814 C   0  0  0  0  0  0  0  0  0  0  0  0
  -24.7429  -22.1576   24.3695 C   0  0  0  0  0  0  0  0  0  0  0  0
  -19.6245   -8.1091   22.7973 C   0  0  0  0  0  0  0  0  0  0  0  0
  -18.2375   -8.2435   22.8582 C   0  0  0  0  0  0  0  0  0  0  0  0
  -23.7755  -23.5196   22.6294 C   0  0  0  0  0  0  0  0  0  0  0  0
  -18.0042   -6.6520   21.0554 C   0  0  0  0  0  0  0  0  0  0  0  0
  -23.8116  -10.5135   20.9814 C   0  0  0  0  0  0  0  0  0  0  0  0
  -24.1519  -13.0310   20.7486 C   0  0  0  0  0  0  0  0  0  0  0  0
  -17.8004  -20.6381   27.8245 C   0  0  0  0  0  0  0  0  0  0  0  0
  -22.9279  -23.6836   24.8909 C   0  0  0  0  0  0  0  0  0  0  0  0
  -18.6378  -20.8483   26.7124 C   0  0  0  0  0  0  0  0  0  0  0  0
  -22.8893  -24.0969   23.5515 C   0  0  0  0  0  0  0  0  0  0  0  0
  -31.5031  -19.5468   22.7076 C   0  0  0  0  0  0  0  0  0  0  0  0
  -30.1381  -19.3878   22.4685 C   0  0  0  0  0  0  0  0  0  0  0  0
  -29.6411  -18.1501   22.0600 C   0  0  0  0  0  0  0  0  0  0  0  0
  -30.5092  -17.0714   21.8906 C   0  0  0  0  0  0  0  0  0  0  0  0
  -22.3107   -8.2283   21.5358 C   0  0  0  0  0  0  0  0  0  0  0  0
  -24.6960  -22.5541   23.0362 C   0  0  0  0  0  0  0  0  0  0  0  0
  -20.2014   -7.2462   21.8654 C   0  0  0  0  0  0  0  0  0  0  0  0
  -17.4273   -7.5149   21.9872 C   0  0  0  0  0  0  0  0  0  0  0  0
  -19.3912   -6.5177   20.9944 C   0  0  0  0  0  0  0  0  0  0  0  0
  -24.5875  -11.6934   20.6951 C   0  0  0  0  0  0  0  0  0  0  0  0
  -25.2559  -13.7662   20.3921 C   0  0  0  0  0  0  0  0  0  0  0  0
  -28.4040  -22.6124   21.6760 C   0  0  0  0  0  0  0  0  0  0  0  0
  -29.3252  -24.7309   24.5305 C   0  0  0  0  0  0  0  0  0  0  0  0
  -28.3646  -23.5947   22.5956 C   0  0  0  0  0  0  0  0  0  0  0  0
  -29.3649  -23.7545   23.6169 C   0  0  0  0  0  0  0  0  0  0  0  0
  -22.8644  -13.5615   21.0902 C   0  0  0  0  0  0  0  0  0  0  0  0
  -19.7537  -23.8499   24.8690 C   0  0  0  0  0  0  0  0  0  0  0  0
  -20.3088  -26.8975   23.9066 C   0  0  0  0  0  0  0  0  0  0  0  0
  -22.5646  -28.5754   21.6453 C   0  0  0  0  0  0  0  0  0  0  0  0
  -30.7082  -14.8433   20.7321 C   0  0  0  0  0  0  0  0  0  0  0  0
  -16.5525  -21.4561   28.0437 C   0  0  0  0  0  0  0  0  0  0  0  0
  -22.0066  -24.3027   25.9060 C   0  0  0  0  0  0  0  0  0  0  0  0
  -21.9148  -25.1401   23.0713 C   0  0  0  0  0  0  0  0  0  0  0  0
  -16.5286  -22.7568   27.2450 C   0  0  0  0  0  0  0  0  0  0  0  0
  -28.9697  -22.6617   18.5869 C   0  0  0  0  0  0  0  0  0  0  0  0
  -29.6954  -12.3092   18.4452 C   0  0  0  0  0  0  0  0  0  0  0  0
  -30.2247  -22.4239   19.4282 C   0  0  0  0  0  0  0  0  0  0  0  0
  -16.9426  -22.5028   25.7989 C   0  0  0  0  0  0  0  0  0  0  0  0
  -27.7598  -23.2224   19.3364 C   0  0  0  0  0  0  0  0  0  0  0  0
  -28.2404  -12.0331   18.8311 C   0  0  0  0  0  0  0  0  0  0  0  0
  -30.5611  -12.6019   19.6694 C   0  0  0  0  0  0  0  0  0  0  0  0
  -28.5986  -13.3861   20.9355 C   0  0  0  0  0  0  0  0  0  0  0  0
  -30.0708  -21.2731   20.4198 C   0  0  0  0  0  0  0  0  0  0  0  0
  -18.3755  -21.9622   25.7221 C   0  0  1  0  0  0  0  0  0  0  0  0
  -27.3582  -22.4262   20.5897 C   0  0  2  0  0  0  0  0  0  0  0  0
  -20.7468  -24.8980   25.2848 C   0  0  1  0  0  0  0  0  0  0  0  0
  -27.6741  -13.1498   19.7299 C   0  0  2  0  0  0  0  0  0  0  0  0
  -32.0613  -20.8611   23.1458 C   0  0  0  0  0  0  0  0  0  0  0  0
  -27.3761  -17.8637   23.0964 C   0  0  0  0  0  0  0  0  0  0  0  0
  -23.4401  -30.9271   21.6605 C   0  0  0  0  0  0  0  0  0  0  0  0
  -17.9658  -27.4738   22.0389 C   0  0  0  0  0  0  0  0  0  0  0  0
  -19.4605  -29.0173   20.7536 C   0  0  0  0  0  0  0  0  0  0  0  0
  -18.9389  -29.4942   23.1459 C   0  0  0  0  0  0  0  0  0  0  0  0
  -25.3762  -27.6524   21.5978 C   0  0  0  0  0  0  0  0  0  0  0  0
  -28.1759  -17.9817   21.8040 C   0  0  0  0  0  0  0  0  0  0  0  0
  -29.2069  -20.5498   22.6517 C   0  0  0  0  0  0  0  0  0  0  0  0
  -25.9392  -22.8189   21.0262 C   0  0  0  0  0  0  0  0  0  1  0  0
  -20.4896  -27.5814   22.5729 C   0  0  1  0  0  0  0  0  0  0  0  0
  -23.7253  -29.4780   22.0229 C   0  0  2  0  0  0  0  0  0  0  0  0
  -19.2209  -28.3644   22.1316 C   0  0  0  0  0  0  0  0  0  0  0  0
  -25.8684  -11.5824   20.3330 N   0  0  0  0  0  0  0  0  0  0  0  0
  -26.2470  -12.8596   20.1556 N   0  0  0  0  0  0  0  0  0  0  0  0
  -21.0305  -25.7112   24.1006 N   0  0  0  0  0  0  0  0  0  0  0  0
  -29.9649  -13.6728   20.4710 N   0  0  0  0  0  0  0  0  0  0  0  0
  -25.4659  -15.0933   20.2609 N   0  0  0  0  0  0  0  0  0  0  0  0
  -22.6043  -13.8721   22.4319 N   0  0  0  0  0  0  0  0  0  0  0  0
  -30.0263  -15.8053   21.4766 N   0  0  0  0  0  0  0  0  0  0  0  0
  -19.3306  -23.0346   25.9013 N   0  0  0  0  0  0  0  0  0  0  0  0
  -21.6876  -28.4049   22.6955 N   0  0  0  0  0  0  0  0  0  0  0  0
  -29.5402  -21.7200   21.7613 N   0  3  2  0  0  0  0  0  0  0  0  0
  -24.9650  -29.0515   21.3142 N   0  3  0  0  0  0  0  0  0  0  0  0
  -21.9655  -13.7390   20.2335 O   0  0  0  0  0  0  0  0  0  0  0  0
  -19.3966  -23.7865   23.6984 O   0  0  0  0  0  0  0  0  0  0  0  0
  -19.5606  -27.4013   24.7480 O   0  0  0  0  0  0  0  0  0  0  0  0
  -22.4458  -28.0749   20.5291 O   0  0  0  0  0  0  0  0  0  0  0  0
  -31.8547  -14.9934   20.3020 O   0  0  0  0  0  0  0  0  0  0  0  0
  -21.5785   -7.1133   21.8067 O   0  0  0  0  0  0  0  0  0  0  0  0
  -25.5506  -22.0040   22.1313 O   0  0  0  0  0  0  0  0  0  1  0  0
  -16.0953   -7.6429   22.0469 F   0  0  0  0  0  0  0  0  0  0  0  0
  -19.9396   -5.6863   20.0979 F   0  0  0  0  0  0  0  0  0  0  0  0
  1  2  1  0  0  0  0
  1  5  2  0  0  0  0
  2  6  2  0  0  0  0
  3 10  2  0  0  0  0
  3 17  1  0  0  0  0
  4 11  1  0  0  0  0
  4 17  2  0  0  0  0
  5 19  1  0  0  0  0
  6 21  1  0  0  0  0
  7 12  2  0  0  0  0
  7 20  1  0  0  0  0
  8  9  1  0  0  0  0
  8 23  2  0  0  0  0
  9 26  2  0  0  0  0
 10 27  1  0  0  0  0
 11 27  2  0  0  0  0
 12 28  1  0  0  0  0
 13 14  2  0  0  0  0
 13 29  1  0  0  0  0
 14 30  1  0  0  0  0
 15 22  1  0  0  0  0
 15 28  2  0  0  0  0
 16 30  2  0  0  0  0
 16 31  1  0  0  0  0
 17 32  1  0  0  0  0
 18 32  1  0  0  0  0
 18 33  2  0  0  0  0
 18 38  1  0  0  0  0
 19 21  2  0  0  0  0
 19 43  1  0  0  0  0
 20 22  2  0  0  0  0
 20 44  1  0  0  0  0
 21 56  1  0  0  0  0
 22 45  1  0  0  0  0
 23 24  1  0  0  0  0
 23 60  1  0  0  0  0
 24 25  2  0  0  0  0
 24 68  1  0  0  0  0
 25 26  1  0  0  0  0
 25 67  1  0  0  0  0
 26 79  1  0  0  0  0
 27 89  1  0  0  0  0
 28 90  1  0  0  0  0
 29 31  2  0  0  0  0
 29 89  1  0  0  0  0
 30 91  1  0  0  0  0
 31 92  1  0  0  0  0
 32 73  2  0  0  0  0
 33 74  1  0  0  0  0
 33 77  1  0  0  0  0
 34 36  2  0  0  0  0
 34 57  1  0  0  0  0
 34 82  1  0  0  0  0
 35 37  2  0  0  0  0
 36 37  1  0  0  0  0
 38 78  1  0  0  0  0
 38 84  2  0  0  0  0
 39 58  1  0  0  0  0
 39 80  1  0  0  0  0
 39 85  2  0  0  0  0
 40 70  1  0  0  0  0
 40 75  1  0  0  0  0
 40 86  2  0  0  0  0
 41 71  1  0  0  0  0
 41 81  1  0  0  0  0
 41 87  2  0  0  0  0
 42 76  1  0  0  0  0
 42 79  1  0  0  0  0
 42 88  2  0  0  0  0
 43 46  1  0  0  0  0
 44 58  1  0  0  0  0
 45 75  1  0  0  0  0
 46 50  1  0  0  0  0
 47 49  1  0  0  0  0
 47 51  1  0  0  0  0
 48 52  1  0  0  0  0
 48 53  1  0  0  0  0
 49 55  1  0  0  0  0
 50 56  1  0  0  0  0
 51 57  1  0  0  0  0
 52 59  1  0  0  0  0
 53 76  1  0  0  0  0
 54 59  1  0  0  0  0
 54 76  1  0  0  0  0
 55 82  1  0  0  0  0
 56 80  1  0  0  0  0
 57 69  1  0  0  0  0
 58 75  1  0  0  0  0
 59 74  1  0  0  0  0
 61 67  1  0  0  0  0
 62 71  1  0  0  0  0
 63 72  1  0  0  0  0
 64 72  1  0  0  0  0
 65 72  1  0  0  0  0
 66 83  1  0  0  0  0
 68 82  1  0  0  0  0
 69 90  1  0  0  0  0
 70 72  1  0  0  0  0
 70 81  1  0  0  0  0
 71 83  1  0  0  0  0
 73 74  1  0  0  0  0
M  CHG  2  82   1  83   1
M  ISO  4  42 100  69 101  79 100  90 101
M  END
> <Batch ID>
0039

> <Smiles>
C=CC=C1C([101CH2:1][101O:1]c2ccc3c(c2)CN(C(=O)C(NC(=O)C(C)NC)C(C)(C)C)C(C(=O)NC2CCCc4ccccc42)C3)CCCCN1Cc1c(C)ccc([100NH:0][100C:0](=O)N2CCCC(n3nc(-c4ccc(Oc5ccc(F)cc5F)cc4)c(C(N)=O)c3N)C2)c1CC

> <Shape>
0.263

> <Color>
0.164

> <Negative vol penalty>
0.000

$$$$

  -OEChem-04042322043D

 90 99  0     1  0  0  0  0  0999 V2000
  -28.0286  -35.6725   24.0697 C   0  0  0  0  0  0  0  0  0  0  0  0
  -28.2948  -34.3490   23.7338 C   0  0  0  0  0  0  0  0  0  0  0  0
  -23.7900   -9.5786   22.4546 C   0  0  0  0  0  0  0  0  0  0  0  0
  -25.2828   -8.7281   20.7559 C   0  0  0  0  0  0  0  0  0  0  0  0
  -26.7636  -36.0320   24.5330 C   0  0  0  0  0  0  0  0  0  0  0  0
  -27.2964  -33.3839   23.8620 C   0  0  0  0  0  0  0  0  0  0  0  0
  -27.0437  -30.3051   19.8493 C   0  0  0  0  0  0  0  0  0  0  0  0
  -23.6833   -8.2998   23.0011 C   0  0  0  0  0  0  0  0  0  0  0  0
  -25.1761   -7.4492   21.3025 C   0  0  0  0  0  0  0  0  0  0  0  0
  -27.9996  -29.2941   19.7613 C   0  0  0  0  0  0  0  0  0  0  0  0
  -22.0148   -5.4372   22.3330 C   0  0  0  0  0  0  0  0  0  0  0  0
  -20.7417   -4.9864   22.6815 C   0  0  0  0  0  0  0  0  0  0  0  0
  -26.3931  -27.7092   20.6135 C   0  0  0  0  0  0  0  0  0  0  0  0
  -27.1689  -20.0401   20.6343 C   0  0  0  0  0  0  0  0  0  0  0  0
  -21.4575   -4.7384   24.9757 C   0  0  0  0  0  0  0  0  0  0  0  0
  -24.5897   -9.7928   21.3319 C   0  0  0  0  0  0  0  0  0  0  0  0
  -23.6578  -11.9070   20.2506 C   0  0  0  0  0  0  0  0  0  0  0  0
  -25.7464  -35.0727   24.6578 C   0  0  0  0  0  0  0  0  0  0  0  0
  -25.7564  -30.0275   20.3312 C   0  0  0  0  0  0  0  0  0  0  0  0
  -26.0171  -33.7307   24.3287 C   0  0  0  0  0  0  0  0  0  0  0  0
  -25.4218  -28.7179   20.7043 C   0  0  0  0  0  0  0  0  0  0  0  0
  -26.8044  -21.3864   20.6222 C   0  0  0  0  0  0  0  0  0  0  0  0
  -25.4781  -21.7519   20.8522 C   0  0  0  0  0  0  0  0  0  0  0  0
  -24.5162  -20.7712   21.0943 C   0  0  0  0  0  0  0  0  0  0  0  0
  -26.2070  -19.0592   20.8764 C   0  0  0  0  0  0  0  0  0  0  0  0
  -24.3763   -7.2351   22.4251 C   0  0  0  0  0  0  0  0  0  0  0  0
  -27.6753  -27.9964   20.1461 C   0  0  0  0  0  0  0  0  0  0  0  0
  -23.0093   -5.5386   23.3058 C   0  0  0  0  0  0  0  0  0  0  0  0
  -20.4630   -4.6370   24.0028 C   0  0  0  0  0  0  0  0  0  0  0  0
  -22.7307   -5.1892   24.6271 C   0  0  0  0  0  0  0  0  0  0  0  0
  -24.8807  -19.4248   21.1064 C   0  0  0  0  0  0  0  0  0  0  0  0
  -24.6999  -11.1135   20.7665 C   0  0  0  0  0  0  0  0  0  0  0  0
  -24.2770  -13.0620   19.8394 C   0  0  0  0  0  0  0  0  0  0  0  0
  -29.0200  -23.6618   18.6404 C   0  0  0  0  0  0  0  0  0  0  0  0
  -29.1660  -24.9334   19.0523 C   0  0  0  0  0  0  0  0  0  0  0  0
  -22.2555  -11.6253   20.1519 C   0  0  0  0  0  0  0  0  0  0  0  0
  -24.0313  -31.0071   22.8148 C   0  0  0  0  0  0  0  0  0  0  0  0
  -21.6981  -29.2659   21.3841 C   0  0  0  0  0  0  0  0  0  0  0  0
  -21.4407  -26.0796   19.7114 C   0  0  0  0  0  0  0  0  0  0  0  0
  -27.9015  -17.2066   20.6692 C   0  0  0  0  0  0  0  0  0  0  0  0
  -24.4088  -35.5003   25.2078 C   0  0  0  0  0  0  0  0  0  0  0  0
  -24.7285  -31.1238   20.3948 C   0  0  0  0  0  0  0  0  0  0  0  0
  -24.0477  -28.3637   21.2091 C   0  0  0  0  0  0  0  0  0  0  0  0
  -30.1036  -22.9590   17.8691 C   0  0  0  0  0  0  0  0  0  0  0  0
  -23.2955  -34.4858   24.9594 C   0  0  0  0  0  0  0  0  0  0  0  0
  -29.8815  -23.0719   16.3616 C   0  0  0  0  0  0  0  0  0  0  0  0
  -28.7115  -22.2460   15.8320 C   0  0  0  0  0  0  0  0  0  0  0  0
  -29.1915  -14.1663   19.3391 C   0  0  0  0  0  0  0  0  0  0  0  0
  -27.3711  -22.4933   16.5253 C   0  0  0  0  0  0  0  0  0  0  0  0
  -23.7680  -33.0783   25.3094 C   0  0  0  0  0  0  0  0  0  0  0  0
  -28.0523  -13.1663   19.5495 C   0  0  0  0  0  0  0  0  0  0  0  0
  -29.2969  -15.1577   20.4966 C   0  0  0  0  0  0  0  0  0  0  0  0
  -26.9116  -14.8613   21.0370 C   0  0  0  0  0  0  0  0  0  0  0  0
  -27.3365  -21.9749   17.9608 C   0  0  0  0  0  0  0  0  0  0  0  0
  -24.9529  -32.6596   24.4306 C   0  0  1  0  0  0  0  0  0  0  0  0
  -23.6048  -30.8325   21.3847 C   0  0  1  0  0  0  0  0  0  0  0  0
  -26.7248  -13.8827   19.8661 C   0  0  2  0  0  0  0  0  0  0  0  0
  -25.0912  -23.1974   20.8357 C   0  0  0  0  0  0  0  0  0  0  0  0
  -23.0973  -21.1844   21.3372 C   0  0  0  0  0  0  0  0  0  0  0  0
  -19.8388  -25.2863   17.9501 C   0  0  0  0  0  0  0  0  0  0  0  0
  -20.0911  -28.1873   23.7429 C   0  0  0  0  0  0  0  0  0  0  0  0
  -19.5395  -26.1761   22.3576 C   0  0  0  0  0  0  0  0  0  0  0  0
  -18.7900  -28.4387   21.6219 C   0  0  0  0  0  0  0  0  0  0  0  0
  -23.6428  -25.3223   17.8849 C   0  0  0  0  0  0  0  0  0  0  0  0
  -27.8581  -22.4213   20.3584 C   0  0  0  0  0  0  0  0  0  0  0  0
  -28.1295  -25.6849   19.8200 C   0  0  0  0  0  0  0  0  0  1  0  0
  -21.2383  -27.8299   21.4577 C   0  0  1  0  0  0  0  0  0  0  0  0
  -21.2249  -25.8474   18.2268 C   0  0  2  0  0  0  0  0  0  0  0  0
  -19.9418  -27.6652   22.2999 C   0  0  0  0  0  0  0  0  0  0  0  0
  -25.8908  -11.7136   20.6910 N   0  0  0  0  0  0  0  0  0  0  0  0
  -25.6009  -12.8964   20.1227 N   0  0  0  0  0  0  0  0  0  0  0  0
  -23.0794  -29.4715   21.2589 N   0  0  0  0  0  0  0  0  0  0  0  0
  -28.0031  -15.8009   20.7361 N   0  0  0  0  0  0  0  0  0  0  0  0
  -23.8129  -14.1929   19.2667 N   0  0  0  0  0  0  0  0  0  0  0  0
  -21.7872  -10.3909   20.6223 N   0  0  0  0  0  0  0  0  0  0  0  0
  -26.6157  -17.7025   20.8822 N   0  0  0  0  0  0  0  0  0  0  0  0
  -24.4939  -32.2746   23.1132 N   0  0  0  0  0  0  0  0  0  0  0  0
  -21.1178  -27.3687   20.0789 N   0  0  0  0  0  0  0  0  0  0  0  0
  -27.7756  -23.0090   18.9707 N   0  3  1  0  0  0  0  0  0  0  0  0
  -22.2347  -24.8859   17.7007 N   0  3  0  0  0  0  0  0  0  0  0  0
  -21.4441  -12.4374   19.6462 O   0  0  0  0  0  0  0  0  0  0  0  0
  -23.9457  -30.0623   23.5905 O   0  0  0  0  0  0  0  0  0  0  0  0
  -20.8619  -30.1717   21.4287 O   0  0  0  0  0  0  0  0  0  0  0  0
  -21.8508  -25.2038   20.4699 O   0  0  0  0  0  0  0  0  0  0  0  0
  -28.8775  -17.9164   20.4130 O   0  0  0  0  0  0  0  0  0  0  0  0
  -24.2726   -5.9871   22.9583 O   0  0  0  0  0  0  0  0  0  0  0  0
  -28.6066  -27.0079   20.0619 O   0  0  0  0  0  0  0  0  0  1  0  0
  -19.2399   -4.2055   24.3377 F   0  0  0  0  0  0  0  0  0  0  0  0
  -23.6817   -5.2856   25.5663 F   0  0  0  0  0  0  0  0  0  0  0  0
  -23.6837  -18.2066   21.4090 Cl  0  0  0  0  0  0  0  0  0  0  0  0
  1  2  1  0  0  0  0
  1  5  2  0  0  0  0
  2  6  2  0  0  0  0
  3  8  2  0  0  0  0
  3 16  1  0  0  0  0
  4  9  1  0  0  0  0
  4 16  2  0  0  0  0
  5 18  1  0  0  0  0
  6 20  1  0  0  0  0
  7 10  2  0  0  0  0
  7 19  1  0  0  0  0
  8 26  1  0  0  0  0
  9 26  2  0  0  0  0
 10 27  1  0  0  0  0
 11 12  2  0  0  0  0
 11 28  1  0  0  0  0
 12 29  1  0  0  0  0
 13 21  1  0  0  0  0
 13 27  2  0  0  0  0
 14 22  1  0  0  0  0
 14 25  2  0  0  0  0
 15 29  2  0  0  0  0
 15 30  1  0  0  0  0
 16 32  1  0  0  0  0
 17 32  1  0  0  0  0
 17 33  2  0  0  0  0
 17 36  1  0  0  0  0
 18 20  2  0  0  0  0
 18 41  1  0  0  0  0
 19 21  2  0  0  0  0
 19 42  1  0  0  0  0
 20 55  1  0  0  0  0
 21 43  1  0  0  0  0
 22 23  2  0  0  0  0
 22 65  1  0  0  0  0
 23 24  1  0  0  0  0
 23 58  1  0  0  0  0
 24 31  2  0  0  0  0
 24 59  1  0  0  0  0
 25 31  1  0  0  0  0
 25 76  1  0  0  0  0
 26 86  1  0  0  0  0
 27 87  1  0  0  0  0
 28 30  2  0  0  0  0
 28 86  1  0  0  0  0
 29 88  1  0  0  0  0
 30 89  1  0  0  0  0
 31 90  1  0  0  0  0
 32 70  2  0  0  0  0
 33 71  1  0  0  0  0
 33 74  1  0  0  0  0
 34 35  2  0  0  0  0
 34 44  1  0  0  0  0
 34 79  1  0  0  0  0
 35 66  1  0  0  0  0
 36 75  1  0  0  0  0
 36 81  2  0  0  0  0
 37 56  1  0  0  0  0
 37 77  1  0  0  0  0
 37 82  2  0  0  0  0
 38 67  1  0  0  0  0
 38 72  1  0  0  0  0
 38 83  2  0  0  0  0
 39 68  1  0  0  0  0
 39 78  1  0  0  0  0
 39 84  2  0  0  0  0
 40 73  1  0  0  0  0
 40 76  1  0  0  0  0
 40 85  2  0  0  0  0
 41 45  1  0  0  0  0
 42 56  1  0  0  0  0
 43 72  1  0  0  0  0
 44 46  1  0  0  0  0
 45 50  1  0  0  0  0
 46 47  1  0  0  0  0
 47 49  1  0  0  0  0
 48 51  1  0  0  0  0
 48 52  1  0  0  0  0
 49 54  1  0  0  0  0
 50 55  1  0  0  0  0
 51 57  1  0  0  0  0
 52 73  1  0  0  0  0
 53 57  1  0  0  0  0
 53 73  1  0  0  0  0
 54 79  1  0  0  0  0
 55 77  1  0  0  0  0
 56 72  1  0  0  0  0
 57 71  1  0  0  0  0
 60 68  1  0  0  0  0
 61 69  1  0  0  0  0
 62 69  1  0  0  0  0
 63 69  1  0  0  0  0
 64 80  1  0  0  0  0
 65 79  1  0  0  0  0
 66 87  1  0  0  0  0
 67 69  1  0  0  0  0
 67 78  1  0  0  0  0
 68 80  1  0  0  0  0
 70 71  1  0  0  0  0
M  CHG  2  79   1  80   1
M  ISO  4  40 100  66 101  76 100  87 101
M  END
> <Batch ID>
0039

> <Smiles>
CNC(C)C(=O)NC(C(=O)N1Cc2cc([101O:1][101CH2:1]C=C3CCCCCN3Cc3cc([100NH:0][100C:0](=O)N4CCCC(n5nc(-c6ccc(Oc7ccc(F)cc7F)cc6)c(C(N)=O)c5N)C4)c(Cl)c(C)c3C)ccc2CC1C(=O)NC1CCCc2ccccc21)C(C)(C)C

> <Shape>
0.323

> <Color>
0.095

> <Negative vol penalty>
0.000

$$$$

  -OEChem-04042322043D

 85 93  0     1  0  0  0  0  0999 V2000
  -32.3121  -21.8224   21.9097 C   0  0  0  0  0  0  0  0  0  0  0  0
  -31.1663  -22.2418   22.5781 C   0  0  0  0  0  0  0  0  0  0  0  0
  -29.7742  -27.8328   20.1038 C   0  0  0  0  0  0  0  0  0  0  0  0
  -28.7614  -26.5079   21.8518 C   0  0  0  0  0  0  0  0  0  0  0  0
  -32.2005  -21.1267   20.7066 C   0  0  0  0  0  0  0  0  0  0  0  0
  -29.9083  -21.9665   22.0433 C   0  0  0  0  0  0  0  0  0  0  0  0
  -23.1912  -20.4898   24.0474 C   0  0  0  0  0  0  0  0  0  0  0  0
  -31.0398  -27.4412   20.5403 C   0  0  0  0  0  0  0  0  0  0  0  0
  -30.0270  -26.1163   22.2883 C   0  0  0  0  0  0  0  0  0  0  0  0
  -21.8830  -20.9197   23.8293 C   0  0  0  0  0  0  0  0  0  0  0  0
  -33.0415  -24.7301   20.2644 C   0  0  0  0  0  0  0  0  0  0  0  0
  -33.9676  -24.3371   19.2983 C   0  0  0  0  0  0  0  0  0  0  0  0
  -21.8102  -19.6414   21.7848 C   0  0  0  0  0  0  0  0  0  0  0  0
  -19.1937  -27.2319   23.7586 C   0  0  0  0  0  0  0  0  0  0  0  0
  -35.4530  -26.1078   20.0019 C   0  0  0  0  0  0  0  0  0  0  0  0
  -28.6350  -27.3662   20.7596 C   0  0  0  0  0  0  0  0  0  0  0  0
  -26.5202  -27.1258   19.3533 C   0  0  0  0  0  0  0  0  0  0  0  0
  -30.9403  -20.8343   20.1616 C   0  0  0  0  0  0  0  0  0  0  0  0
  -23.8236  -19.6398   23.1287 C   0  0  0  0  0  0  0  0  0  0  0  0
  -29.7799  -21.2674   20.8311 C   0  0  0  0  0  0  0  0  0  0  0  0
  -23.1256  -19.2002   21.9948 C   0  0  0  0  0  0  0  0  0  0  0  0
  -19.5693  -28.2286   22.8581 C   0  0  0  0  0  0  0  0  0  0  0  0
  -19.4268  -28.0190   21.4865 C   0  0  0  0  0  0  0  0  0  0  0  0
  -18.9089  -26.8125   21.0153 C   0  0  0  0  0  0  0  0  0  0  0  0
  -18.5334  -25.8157   21.9159 C   0  0  0  0  0  0  0  0  0  0  0  0
  -31.1662  -26.5830   21.6325 C   0  0  0  0  0  0  0  0  0  0  0  0
  -21.1933  -20.4978   22.6964 C   0  0  0  0  0  0  0  0  0  0  0  0
  -33.3211  -25.8120   21.0993 C   0  0  0  0  0  0  0  0  0  0  0  0
  -35.1734  -25.0259   19.1670 C   0  0  0  0  0  0  0  0  0  0  0  0
  -34.5269  -26.5008   20.9680 C   0  0  0  0  0  0  0  0  0  0  0  0
  -18.6759  -26.0254   23.2876 C   0  0  0  0  0  0  0  0  0  0  0  0
  -27.3274  -27.7707   20.3095 C   0  0  0  0  0  0  0  0  0  0  0  0
  -25.3868  -27.8985   19.2833 C   0  0  0  0  0  0  0  0  0  0  0  0
  -26.7724  -25.9347   18.5960 C   0  0  0  0  0  0  0  0  0  0  0  0
  -26.3911  -19.8607   21.2678 C   0  0  0  0  0  0  0  0  0  0  0  0
  -25.7327  -16.7445   20.6527 C   0  0  0  0  0  0  0  0  0  0  0  0
  -23.4205  -14.2363   20.5557 C   0  0  0  0  0  0  0  0  0  0  0  0
  -21.9195  -31.0637   22.6706 C   0  0  0  0  0  0  0  0  0  0  0  0
  -30.8710  -20.1209   18.8346 C   0  0  0  0  0  0  0  0  0  0  0  0
  -25.2259  -19.1637   23.3921 C   0  0  0  0  0  0  0  0  0  0  0  0
  -23.7525  -18.2714   20.9884 C   0  0  0  0  0  0  0  0  0  0  0  0
  -29.4927  -19.5421   18.5255 C   0  0  0  0  0  0  0  0  0  0  0  0
  -24.2753  -32.5685   20.4654 C   0  0  0  0  0  0  0  0  0  0  0  0
  -28.4046  -20.5715   18.8136 C   0  0  0  0  0  0  0  0  0  0  0  0
  -25.2275  -31.4248   20.1115 C   0  0  0  0  0  0  0  0  0  0  0  0
  -23.8045  -32.4827   21.9156 C   0  0  0  0  0  0  0  0  0  0  0  0
  -24.1623  -30.0445   21.9443 C   0  0  0  0  0  0  0  0  0  0  0  0
  -28.3969  -20.9662   20.2954 C   0  0  1  0  0  0  0  0  0  0  0  0
  -25.9503  -18.7105   22.1282 C   0  0  1  0  0  0  0  0  0  0  0  0
  -24.6202  -30.0566   20.4758 C   0  0  2  0  0  0  0  0  0  0  0  0
  -19.8307  -29.0901   20.5231 C   0  0  0  0  0  0  0  0  0  0  0  0
  -18.7564  -26.5895   19.5434 C   0  0  0  0  0  0  0  0  0  0  0  0
  -23.1721  -11.8075   19.9758 C   0  0  0  0  0  0  0  0  0  0  0  0
  -25.7735  -17.4515   17.6848 C   0  0  0  0  0  0  0  0  0  0  0  0
  -24.6103  -15.2830   17.2236 C   0  0  0  0  0  0  0  0  0  0  0  0
  -26.8812  -15.2833   18.2560 C   0  0  0  0  0  0  0  0  0  0  0  0
  -22.6117  -13.5405   23.3162 C   0  0  0  0  0  0  0  0  0  0  0  0
  -20.1211  -29.5114   23.3882 C   0  0  0  0  0  0  0  0  0  0  0  0
  -17.9779  -24.5229   21.3953 C   0  0  0  0  0  0  0  0  0  0  0  0
  -18.4071  -22.0907   21.0229 C   0  0  0  0  0  0  0  0  0  0  0  0
  -19.4934  -21.0380   21.1234 C   0  0  0  0  0  0  0  0  0  1  0  0
  -24.8918  -16.0099   19.6368 C   0  0  1  0  0  0  0  0  0  0  0  0
  -23.4562  -12.8126   21.0811 C   0  0  2  0  0  0  0  0  0  0  0  0
  -25.5278  -16.0260   18.2181 C   0  0  0  0  0  0  0  0  0  0  0  0
  -26.7554  -28.8687   20.8109 N   0  0  0  0  0  0  0  0  0  0  0  0
  -25.5768  -28.9197   20.1672 N   0  0  0  0  0  0  0  0  0  0  0  0
  -25.1277  -17.8388   21.2871 N   0  0  0  0  0  0  0  0  0  0  0  0
  -23.2378  -31.1612   22.1955 N   0  0  0  0  0  0  0  0  0  0  0  0
  -24.2563  -27.7972   18.5526 N   0  0  0  0  0  0  0  0  0  0  0  0
  -27.9875  -25.2640   18.7907 N   0  0  0  0  0  0  0  0  0  0  0  0
  -27.7592  -19.9377   21.0891 N   0  0  0  0  0  0  0  0  0  0  0  0
  -24.6728  -14.6730   20.1783 N   0  0  0  0  0  0  0  0  0  0  0  0
  -21.4581  -29.7741   22.9042 N   0  0  0  0  0  0  0  0  0  0  0  0
  -22.4385  -12.6309   22.1545 N   0  3  0  0  0  0  0  0  0  0  0  0
  -18.9476  -23.3973   21.4756 N   0  3  0  0  0  0  0  0  0  0  0  0
  -25.9517  -25.4879   17.7592 O   0  0  0  0  0  0  0  0  0  0  0  0
  -25.5521  -20.6212   20.7994 O   0  0  0  0  0  0  0  0  0  0  0  0
  -26.8816  -16.3573   20.8804 O   0  0  0  0  0  0  0  0  0  0  0  0
  -22.3847  -14.8940   20.4835 O   0  0  0  0  0  0  0  0  0  0  0  0
  -21.2048  -32.0525   22.8665 O   0  0  0  0  0  0  0  0  0  0  0  0
  -32.4010  -26.2005   22.0586 O   0  0  0  0  0  0  0  0  0  0  0  0
  -19.9165  -20.9164   22.4808 O   0  0  0  0  0  0  0  0  0  1  0  0
  -36.0632  -24.6475   18.2402 F   0  0  0  0  0  0  0  0  0  0  0  0
  -34.8017  -27.5402   21.7680 F   0  0  0  0  0  0  0  0  0  0  0  0
  -18.2223  -24.8176   24.4352 Cl  0  0  0  0  0  0  0  0  0  0  0  0
  1  2  1  0  0  0  0
  1  5  2  0  0  0  0
  2  6  2  0  0  0  0
  3  8  2  0  0  0  0
  3 16  1  0  0  0  0
  4  9  1  0  0  0  0
  4 16  2  0  0  0  0
  5 18  1  0  0  0  0
  6 20  1  0  0  0  0
  7 10  2  0  0  0  0
  7 19  1  0  0  0  0
  8 26  1  0  0  0  0
  9 26  2  0  0  0  0
 10 27  1  0  0  0  0
 11 12  2  0  0  0  0
 11 28  1  0  0  0  0
 12 29  1  0  0  0  0
 13 21  1  0  0  0  0
 13 27  2  0  0  0  0
 14 22  1  0  0  0  0
 14 31  2  0  0  0  0
 15 29  2  0  0  0  0
 15 30  1  0  0  0  0
 16 32  1  0  0  0  0
 17 32  1  0  0  0  0
 17 33  2  0  0  0  0
 17 34  1  0  0  0  0
 18 20  2  0  0  0  0
 18 39  1  0  0  0  0
 19 21  2  0  0  0  0
 19 40  1  0  0  0  0
 20 48  1  0  0  0  0
 21 41  1  0  0  0  0
 22 23  2  0  0  0  0
 22 58  1  0  0  0  0
 23 24  1  0  0  0  0
 23 51  1  0  0  0  0
 24 25  2  0  0  0  0
 24 52  1  0  0  0  0
 25 31  1  0  0  0  0
 25 59  1  0  0  0  0
 26 81  1  0  0  0  0
 27 82  1  0  0  0  0
 28 30  2  0  0  0  0
 28 81  1  0  0  0  0
 29 83  1  0  0  0  0
 30 84  1  0  0  0  0
 31 85  1  0  0  0  0
 32 65  2  0  0  0  0
 33 66  1  0  0  0  0
 33 69  1  0  0  0  0
 34 70  1  0  0  0  0
 34 76  2  0  0  0  0
 35 49  1  0  0  0  0
 35 71  1  0  0  0  0
 35 77  2  0  0  0  0
 36 62  1  0  0  0  0
 36 67  1  0  0  0  0
 36 78  2  0  0  0  0
 37 63  1  0  0  0  0
 37 72  1  0  0  0  0
 37 79  2  0  0  0  0
 38 68  1  0  0  0  0
 38 73  1  0  0  0  0
 38 80  2  0  0  0  0
 39 42  1  0  0  0  0
 40 49  1  0  0  0  0
 41 67  1  0  0  0  0
 42 44  1  0  0  0  0
 43 45  1  0  0  0  0
 43 46  1  0  0  0  0
 44 48  1  0  0  0  0
 45 50  1  0  0  0  0
 46 68  1  0  0  0  0
 47 50  1  0  0  0  0
 47 68  1  0  0  0  0
 48 71  1  0  0  0  0
 49 67  1  0  0  0  0
 50 66  1  0  0  0  0
 53 63  1  0  0  0  0
 54 64  1  0  0  0  0
 55 64  1  0  0  0  0
 56 64  1  0  0  0  0
 57 74  1  0  0  0  0
 58 73  1  0  0  0  0
 59 75  1  0  0  0  0
 60 61  1  0  0  0  0
 60 75  1  0  0  0  0
 61 82  1  0  0  0  0
 62 64  1  0  0  0  0
 62 72  1  0  0  0  0
 63 74  1  0  0  0  0
 65 66  1  0  0  0  0
M  CHG  2  74   1  75   1
M  ISO  4  38 100  61 101  73 100  82 101
M  END
> <Batch ID>
0039

> <Smiles>
CNC(C)C(=O)NC(C(=O)N1Cc2cc([101O:1][101CH2:1]CNCc3c(Cl)cc(C[100NH:0][100C:0](=O)N4CCCC(n5nc(-c6ccc(Oc7ccc(F)cc7F)cc6)c(C(N)=O)c5N)C4)c(C)c3C)ccc2CC1C(=O)NC1CCCc2ccccc21)C(C)(C)C

> <Shape>
0.210

> <Color>
0.087

> <Negative vol penalty>
0.000

$$$$

  -OEChem-04042322043D

 88 97  0     1  0  0  0  0  0999 V2000
  -34.2639  -30.1091   30.5881 C   0  0  0  0  0  0  0  0  0  0  0  0
  -34.2999  -30.1628   29.1984 C   0  0  0  0  0  0  0  0  0  0  0  0
  -22.6297  -10.2750   20.2342 C   0  0  0  0  0  0  0  0  0  0  0  0
  -24.2533   -9.5328   21.8622 C   0  0  0  0  0  0  0  0  0  0  0  0
  -34.1622  -28.8781   31.2346 C   0  0  0  0  0  0  0  0  0  0  0  0
  -34.2353  -28.9852   28.4544 C   0  0  0  0  0  0  0  0  0  0  0  0
  -31.7532  -26.4395   22.2355 C   0  0  0  0  0  0  0  0  0  0  0  0
  -21.8764   -9.1231   20.4603 C   0  0  0  0  0  0  0  0  0  0  0  0
  -23.4999   -8.3809   22.0884 C   0  0  0  0  0  0  0  0  0  0  0  0
  -32.1806  -25.7274   21.1157 C   0  0  0  0  0  0  0  0  0  0  0  0
  -19.6961   -7.9885   22.7824 C   0  0  0  0  0  0  0  0  0  0  0  0
  -18.3169   -8.1346   22.9306 C   0  0  0  0  0  0  0  0  0  0  0  0
  -31.9265  -23.6636   22.3387 C   0  0  0  0  0  0  0  0  0  0  0  0
  -31.6886  -18.3234   20.1506 C   0  0  0  0  0  0  0  0  0  0  0  0
  -29.2653  -19.7054   20.1261 C   0  0  0  0  0  0  0  0  0  0  0  0
  -17.9593   -6.6971   21.0220 C   0  0  0  0  0  0  0  0  0  0  0  0
  -23.8182  -10.4799   20.9352 C   0  0  0  0  0  0  0  0  0  0  0  0
  -24.1876  -13.0035   20.8860 C   0  0  0  0  0  0  0  0  0  0  0  0
  -34.0866  -27.6855   30.4980 C   0  0  0  0  0  0  0  0  0  0  0  0
  -31.4190  -25.7687   23.4208 C   0  0  0  0  0  0  0  0  0  0  0  0
  -34.1339  -27.7369   29.0918 C   0  0  0  0  0  0  0  0  0  0  0  0
  -31.4926  -24.3694   23.4713 C   0  0  0  0  0  0  0  0  0  0  0  0
  -30.6654  -17.9526   21.0231 C   0  0  0  0  0  0  0  0  0  0  0  0
  -31.5002  -19.3852   19.2659 C   0  0  0  0  0  0  0  0  0  0  0  0
  -29.4538  -18.6435   21.0108 C   0  0  0  0  0  0  0  0  0  0  0  0
  -22.3114   -8.1760   21.3874 C   0  0  0  0  0  0  0  0  0  0  0  0
  -32.2701  -24.3395   21.1681 C   0  0  0  0  0  0  0  0  0  0  0  0
  -20.2070   -7.1967   21.7539 C   0  0  0  0  0  0  0  0  0  0  0  0
  -17.4485   -7.4889   22.0505 C   0  0  0  0  0  0  0  0  0  0  0  0
  -19.3386   -6.5510   20.8738 C   0  0  0  0  0  0  0  0  0  0  0  0
  -30.2885  -20.0762   19.2536 C   0  0  0  0  0  0  0  0  0  0  0  0
  -24.5971  -11.6693   20.7016 C   0  0  0  0  0  0  0  0  0  0  0  0
  -25.2828  -13.7514   20.5287 C   0  0  0  0  0  0  0  0  0  0  0  0
  -22.9296  -13.5206   21.3397 C   0  0  0  0  0  0  0  0  0  0  0  0
  -32.5394  -25.7773   26.3954 C   0  0  0  0  0  0  0  0  0  0  0  0
  -29.9842  -23.8570   26.9484 C   0  0  0  0  0  0  0  0  0  0  0  0
  -27.6793  -21.6707   25.7016 C   0  0  0  0  0  0  0  0  0  0  0  0
  -30.7802  -14.7029   20.6635 C   0  0  0  0  0  0  0  0  0  0  0  0
  -34.0251  -26.3752   31.2423 C   0  0  0  0  0  0  0  0  0  0  0  0
  -30.9341  -26.5495   24.6114 C   0  0  0  0  0  0  0  0  0  0  0  0
  -31.1260  -23.6003   24.7133 C   0  0  0  0  0  0  0  0  0  0  0  0
  -33.5841  -25.2007   30.3726 C   0  0  0  0  0  0  0  0  0  0  0  0
  -29.5792  -12.4047   18.2237 C   0  0  0  0  0  0  0  0  0  0  0  0
  -34.3369  -25.2066   29.0459 C   0  0  0  0  0  0  0  0  0  0  0  0
  -28.1451  -12.1140   18.6696 C   0  0  0  0  0  0  0  0  0  0  0  0
  -34.9474  -23.3209   19.2676 C   0  0  0  0  0  0  0  0  0  0  0  0
  -34.5725  -23.0473   17.8157 C   0  0  0  0  0  0  0  0  0  0  0  0
  -30.5168  -12.5787   19.4165 C   0  0  0  0  0  0  0  0  0  0  0  0
  -28.6447  -13.2887   20.8535 C   0  0  0  0  0  0  0  0  0  0  0  0
  -33.4969  -21.3884   19.9891 C   0  0  0  0  0  0  0  0  0  0  0  0
  -34.0412  -26.4831   28.2494 C   0  0  1  0  0  0  0  0  0  0  0  0
  -31.1113  -25.8012   25.9290 C   0  0  1  0  0  0  0  0  0  0  0  0
  -27.6510  -13.1607   19.6862 C   0  0  2  0  0  0  0  0  0  0  0  0
  -33.8616  -22.8464   20.2252 C   0  0  2  0  0  0  0  0  0  1  0  0
  -34.2219  -21.5744   17.5735 C   0  0  2  0  0  0  0  0  0  0  0  0
  -28.3452  -18.2660   21.9377 C   0  0  0  0  0  0  0  0  0  0  0  0
  -33.7802  -21.3806   16.1242 C   0  0  0  0  0  0  0  0  0  0  0  0
  -25.7427  -20.2373   26.4031 C   0  0  0  0  0  0  0  0  0  0  0  0
  -31.9220  -21.8406   28.1687 C   0  0  0  0  0  0  0  0  0  0  0  0
  -30.1292  -20.1040   27.9725 C   0  0  0  0  0  0  0  0  0  0  0  0
  -29.7707  -22.1066   29.4160 C   0  0  0  0  0  0  0  0  0  0  0  0
  -25.8108  -23.1230   23.9244 C   0  0  0  0  0  0  0  0  0  0  0  0
  -30.8897  -16.8141   21.9634 C   0  0  0  0  0  0  0  0  0  0  0  0
  -32.6253  -19.7526   18.3439 C   0  0  0  0  0  0  0  0  0  0  0  0
  -29.7353  -22.3687   26.9016 C   0  0  1  0  0  0  0  0  0  0  0  0
  -26.1722  -21.5936   25.8658 C   0  0  2  0  0  0  0  0  0  0  0  0
  -30.3981  -21.6193   28.0918 C   0  0  0  0  0  0  0  0  0  0  0  0
  -25.8544  -11.5721   20.2613 N   0  0  0  0  0  0  0  0  0  0  0  0
  -26.2442  -12.8547   20.1659 N   0  0  0  0  0  0  0  0  0  0  0  0
  -30.6634  -24.4091   25.8532 N   0  0  0  0  0  0  0  0  0  0  0  0
  -29.9916  -13.5860   20.3414 N   0  0  0  0  0  0  0  0  0  0  0  0
  -25.5075  -15.0820   20.4926 N   0  0  0  0  0  0  0  0  0  0  0  0
  -22.7479  -13.7249   22.7144 N   0  0  0  0  0  0  0  0  0  0  0  0
  -32.7434  -26.3938   27.6151 N   0  0  0  0  0  0  0  0  0  0  0  0
  -28.2886  -22.1992   26.8199 N   0  0  0  0  0  0  0  0  0  0  0  0
  -30.2046  -15.6124   21.5422 N   0  0  0  0  0  0  0  0  0  0  0  0
  -33.1087  -21.1703   18.5360 N   0  3  1  0  0  0  0  0  0  0  0  0
  -25.4964  -21.8158   24.5563 N   0  3  0  0  0  0  0  0  0  0  0  0
  -21.9886  -13.7778   20.5512 O   0  0  0  0  0  0  0  0  0  0  0  0
  -33.3928  -25.2379   25.7007 O   0  0  0  0  0  0  0  0  0  0  0  0
  -29.5843  -24.5068   27.9176 O   0  0  0  0  0  0  0  0  0  0  0  0
  -28.2586  -21.2960   24.6844 O   0  0  0  0  0  0  0  0  0  0  0  0
  -31.9112  -14.8793   20.1979 O   0  0  0  0  0  0  0  0  0  0  0  0
  -21.5765   -7.0520   21.6085 O   0  0  0  0  0  0  0  0  0  0  0  0
  -32.6877  -23.6420   20.0768 O   0  0  0  0  0  0  0  0  0  1  0  0
  -16.1240   -7.6281   22.1940 F   0  0  0  0  0  0  0  0  0  0  0  0
  -19.8235   -5.7880   19.8845 F   0  0  0  0  0  0  0  0  0  0  0  0
  -30.0191  -21.3952   18.1733 Cl  0  0  0  0  0  0  0  0  0  0  0  0
  1  2  1  0  0  0  0
  1  5  2  0  0  0  0
  2  6  2  0  0  0  0
  3  8  2  0  0  0  0
  3 17  1  0  0  0  0
  4  9  1  0  0  0  0
  4 17  2  0  0  0  0
  5 19  1  0  0  0  0
  6 21  1  0  0  0  0
  7 10  2  0  0  0  0
  7 20  1  0  0  0  0
  8 26  1  0  0  0  0
  9 26  2  0  0  0  0
 10 27  1  0  0  0  0
 11 12  2  0  0  0  0
 11 28  1  0  0  0  0
 12 29  1  0  0  0  0
 13 22  1  0  0  0  0
 13 27  2  0  0  0  0
 14 23  2  0  0  0  0
 14 24  1  0  0  0  0
 15 25  2  0  0  0  0
 15 31  1  0  0  0  0
 16 29  2  0  0  0  0
 16 30  1  0  0  0  0
 17 32  1  0  0  0  0
 18 32  1  0  0  0  0
 18 33  2  0  0  0  0
 18 34  1  0  0  0  0
 19 21  2  0  0  0  0
 19 39  1  0  0  0  0
 20 22  2  0  0  0  0
 20 40  1  0  0  0  0
 21 51  1  0  0  0  0
 22 41  1  0  0  0  0
 23 25  1  0  0  0  0
 23 63  1  0  0  0  0
 24 31  2  0  0  0  0
 24 64  1  0  0  0  0
 25 56  1  0  0  0  0
 26 84  1  0  0  0  0
 27 85  1  0  0  0  0
 28 30  2  0  0  0  0
 28 84  1  0  0  0  0
 29 86  1  0  0  0  0
 30 87  1  0  0  0  0
 31 88  1  0  0  0  0
 32 68  2  0  0  0  0
 33 69  1  0  0  0  0
 33 72  1  0  0  0  0
 34 73  1  0  0  0  0
 34 79  2  0  0  0  0
 35 52  1  0  0  0  0
 35 74  1  0  0  0  0
 35 80  2  0  0  0  0
 36 65  1  0  0  0  0
 36 70  1  0  0  0  0
 36 81  2  0  0  0  0
 37 66  1  0  0  0  0
 37 75  1  0  0  0  0
 37 82  2  0  0  0  0
 38 71  1  0  0  0  0
 38 76  1  0  0  0  0
 38 83  2  0  0  0  0
 39 42  1  0  0  0  0
 40 52  1  0  0  0  0
 41 70  1  0  0  0  0
 42 44  1  0  0  0  0
 43 45  1  0  0  0  0
 43 48  1  0  0  0  0
 44 51  1  0  0  0  0
 45 53  1  0  0  0  0
 46 47  1  0  0  0  0
 46 54  1  0  0  0  0
 47 55  1  0  0  0  0
 48 71  1  0  0  0  0
 49 53  1  0  0  0  0
 49 71  1  0  0  0  0
 50 54  1  0  0  0  0
 50 77  1  0  0  0  0
 51 74  1  0  0  0  0
 52 70  1  0  0  0  0
 53 69  1  0  0  0  0
 54 85  1  0  0  0  0
 55 57  1  0  0  0  0
 55 77  1  0  0  0  0
 58 66  1  0  0  0  0
 59 67  1  0  0  0  0
 60 67  1  0  0  0  0
 61 67  1  0  0  0  0
 62 78  1  0  0  0  0
 63 76  1  0  0  0  0
 64 77  1  0  0  0  0
 65 67  1  0  0  0  0
 65 75  1  0  0  0  0
 66 78  1  0  0  0  0
 68 69  1  0  0  0  0
M  CHG  2  77   1  78   1
M  ISO  4  38 100  54 101  76 100  85 101
M  END
> <Batch ID>
0039

> <Smiles>
CNC(C)C(=O)NC(C(=O)N1Cc2cc([101O:1][101CH:1]3CCC(C)N(Cc4cc(C[100NH:0][100C:0](=O)N5CCCC(n6nc(-c7ccc(Oc8ccc(F)cc8F)cc7)c(C(N)=O)c6N)C5)c(C)cc4Cl)C3)ccc2CC1C(=O)NC1CCCc2ccccc21)C(C)(C)C

> <Shape>
0.171

> <Color>
0.169

> <Negative vol penalty>
0.000

$$$$

  -OEChem-04042322043D

 89 98  0     1  0  0  0  0  0999 V2000
  -30.5309  -18.3123   13.9955 C   0  0  0  0  0  0  0  0  0  0  0  0
  -29.2203  -18.7162   13.7617 C   0  0  0  0  0  0  0  0  0  0  0  0
  -24.9732  -15.0860   22.8167 C   0  0  0  0  0  0  0  0  0  0  0  0
  -25.3058  -15.8333   20.5434 C   0  0  0  0  0  0  0  0  0  0  0  0
  -31.0438  -18.3300   15.2919 C   0  0  0  0  0  0  0  0  0  0  0  0
  -28.4214  -19.1370   14.8243 C   0  0  0  0  0  0  0  0  0  0  0  0
  -24.5785  -25.8628   15.8351 C   0  0  0  0  0  0  0  0  0  0  0  0
  -26.2333  -14.4879   22.8045 C   0  0  0  0  0  0  0  0  0  0  0  0
  -26.5659  -15.2352   20.5311 C   0  0  0  0  0  0  0  0  0  0  0  0
  -23.9845  -27.0716   16.1987 C   0  0  0  0  0  0  0  0  0  0  0  0
  -27.8445  -12.1261   20.1714 C   0  0  0  0  0  0  0  0  0  0  0  0
  -28.1947  -11.3756   19.0490 C   0  0  0  0  0  0  0  0  0  0  0  0
  -24.2774  -26.5247   18.5361 C   0  0  0  0  0  0  0  0  0  0  0  0
  -19.3442  -28.5333   22.0000 C   0  0  0  0  0  0  0  0  0  0  0  0
  -21.1006  -27.1758   22.9535 C   0  0  0  0  0  0  0  0  0  0  0  0
  -30.0719  -12.8440   18.6529 C   0  0  0  0  0  0  0  0  0  0  0  0
  -24.5094  -15.7586   21.6861 C   0  0  0  0  0  0  0  0  0  0  0  0
  -21.9678  -15.7420   21.9038 C   0  0  0  0  0  0  0  0  0  0  0  0
  -30.2539  -18.7605   16.3696 C   0  0  0  0  0  0  0  0  0  0  0  0
  -25.0386  -24.9863   16.8217 C   0  0  0  0  0  0  0  0  0  0  0  0
  -28.9238  -19.1592   16.1365 C   0  0  0  0  0  0  0  0  0  0  0  0
  -24.8844  -25.3181   18.1777 C   0  0  0  0  0  0  0  0  0  0  0  0
  -20.6608  -28.3958   22.4398 C   0  0  0  0  0  0  0  0  0  0  0  0
  -18.4674  -27.4510   22.0741 C   0  0  0  0  0  0  0  0  0  0  0  0
  -20.2238  -26.0934   23.0276 C   0  0  0  0  0  0  0  0  0  0  0  0
  -18.9072  -26.2311   22.5879 C   0  0  0  0  0  0  0  0  0  0  0  0
  -27.0296  -14.5625   21.6617 C   0  0  0  0  0  0  0  0  0  0  0  0
  -23.8342  -27.4016   17.5459 C   0  0  0  0  0  0  0  0  0  0  0  0
  -28.6079  -13.2356   20.5345 C   0  0  0  0  0  0  0  0  0  0  0  0
  -29.3085  -11.7345   18.2898 C   0  0  0  0  0  0  0  0  0  0  0  0
  -29.7216  -13.5946   19.7753 C   0  0  0  0  0  0  0  0  0  0  0  0
  -23.2077  -16.3762   21.6980 C   0  0  0  0  0  0  0  0  0  0  0  0
  -21.0454  -16.7563   21.8206 C   0  0  0  0  0  0  0  0  0  0  0  0
  -23.8873  -30.1756   21.8667 C   0  0  0  0  0  0  0  0  0  0  0  0
  -24.6732  -29.7907   22.8873 C   0  0  0  0  0  0  0  0  0  0  0  0
  -21.6760  -14.3598   22.1485 C   0  0  0  0  0  0  0  0  0  0  0  0
  -26.7154  -21.7255   17.6164 C   0  0  0  0  0  0  0  0  0  0  0  0
  -27.8190  -23.7991   19.5894 C   0  0  0  0  0  0  0  0  0  0  0  0
  -29.2591  -26.3567   20.7241 C   0  0  0  0  0  0  0  0  0  0  0  0
  -21.4760  -22.5572   22.8299 C   0  0  0  0  0  0  0  0  0  0  0  0
  -30.8371  -18.7173   17.7598 C   0  0  0  0  0  0  0  0  0  0  0  0
  -25.6289  -23.6459   16.4770 C   0  0  0  0  0  0  0  0  0  0  0  0
  -25.3630  -24.3289   19.2050 C   0  0  0  0  0  0  0  0  0  0  0  0
  -24.1219  -31.4728   21.1420 C   0  0  0  0  0  0  0  0  0  0  0  0
  -30.0445  -19.5325   18.7784 C   0  0  0  0  0  0  0  0  0  0  0  0
  -24.9935  -31.2723   19.9037 C   0  0  0  0  0  0  0  0  0  0  0  0
  -20.3407  -21.0173   19.7579 C   0  0  0  0  0  0  0  0  0  0  0  0
  -28.5521  -19.2460   18.6465 C   0  0  0  0  0  0  0  0  0  0  0  0
  -20.8370  -19.5813   19.9361 C   0  0  0  0  0  0  0  0  0  0  0  0
  -24.3076  -30.5324   18.7587 C   0  0  0  0  0  0  0  0  0  0  0  0
  -21.3410  -22.0219   20.3224 C   0  0  0  0  0  0  0  0  0  0  0  0
  -22.1964  -20.3627   21.9314 C   0  0  0  0  0  0  0  0  0  0  0  0
  -22.4625  -29.3161   20.0316 C   0  0  0  0  0  0  0  0  0  0  0  0
  -28.0340  -19.6458   17.2596 C   0  0  1  0  0  0  0  0  0  0  0  0
  -26.7505  -23.2150   17.4391 C   0  0  1  0  0  0  0  0  0  0  0  0
  -21.2189  -19.2981   21.4010 C   0  0  2  0  0  0  0  0  0  0  0  0
  -23.6862  -29.1816   19.1236 C   0  0  1  0  0  0  0  0  0  1  0  0
  -17.0629  -27.6242   21.5955 C   0  0  0  0  0  0  0  0  0  0  0  0
  -17.9670  -25.0706   22.6667 C   0  0  0  0  0  0  0  0  0  0  0  0
  -30.6113  -27.6162   22.4219 C   0  0  0  0  0  0  0  0  0  0  0  0
  -25.9344  -22.7285   21.7355 C   0  0  0  0  0  0  0  0  0  0  0  0
  -27.1457  -24.1464   23.4061 C   0  0  0  0  0  0  0  0  0  0  0  0
  -28.3626  -22.3396   22.1906 C   0  0  0  0  0  0  0  0  0  0  0  0
  -31.3593  -27.0042   18.7419 C   0  0  0  0  0  0  0  0  0  0  0  0
  -20.7195  -24.7977   23.5818 C   0  0  0  0  0  0  0  0  0  0  0  0
  -21.6036  -29.5601   22.3608 C   0  0  0  0  0  0  0  0  0  0  0  0
  -27.7003  -24.4400   20.9490 C   0  0  1  0  0  0  0  0  0  0  0  0
  -30.6480  -26.8165   21.1289 C   0  0  2  0  0  0  0  0  0  0  0  0
  -27.2739  -23.4253   22.0472 C   0  0  0  0  0  0  0  0  0  0  0  0
  -23.0874  -17.6914   21.4988 N   0  0  0  0  0  0  0  0  0  0  0  0
  -21.7609  -17.8920   21.5790 N   0  0  0  0  0  0  0  0  0  0  0  0
  -26.6633  -23.7728   18.7994 N   0  0  0  0  0  0  0  0  0  0  0  0
  -21.6477  -21.7071   21.7249 N   0  0  0  0  0  0  0  0  0  0  0  0
  -19.7001  -16.7785   21.9311 N   0  0  0  0  0  0  0  0  0  0  0  0
  -21.6426  -13.9086   23.4750 N   0  0  0  0  0  0  0  0  0  0  0  0
  -27.8568  -21.0800   17.1805 N   0  0  0  0  0  0  0  0  0  0  0  0
  -28.9785  -25.0951   21.2045 N   0  0  0  0  0  0  0  0  0  0  0  0
  -20.9578  -23.8153   22.5478 N   0  0  0  0  0  0  0  0  0  0  0  0
  -22.8125  -29.2848   21.5001 N   0  3  2  0  0  0  0  0  0  0  0  0
  -31.2413  -27.6729   20.0632 N   0  3  0  0  0  0  0  0  0  0  0  0
  -21.4676  -13.5452   21.2176 O   0  0  0  0  0  0  0  0  0  0  0  0
  -25.7266  -21.1993   18.1135 O   0  0  0  0  0  0  0  0  0  0  0  0
  -28.9043  -23.3287   19.2370 O   0  0  0  0  0  0  0  0  0  0  0  0
  -28.4977  -27.0491   20.0523 O   0  0  0  0  0  0  0  0  0  0  0  0
  -21.7585  -22.2183   23.9842 O   0  0  0  0  0  0  0  0  0  0  0  0
  -28.2593  -13.9792   21.6495 O   0  0  0  0  0  0  0  0  0  0  0  0
  -23.2576  -28.5853   17.8938 O   0  0  0  0  0  0  0  0  0  1  0  0
  -29.6456  -11.0128   17.2130 F   0  0  0  0  0  0  0  0  0  0  0  0
  -30.4596  -14.6587   20.1198 F   0  0  0  0  0  0  0  0  0  0  0  0
  1  2  1  0  0  0  0
  1  5  2  0  0  0  0
  2  6  2  0  0  0  0
  3  8  2  0  0  0  0
  3 17  1  0  0  0  0
  4  9  1  0  0  0  0
  4 17  2  0  0  0  0
  5 19  1  0  0  0  0
  6 21  1  0  0  0  0
  7 10  2  0  0  0  0
  7 20  1  0  0  0  0
  8 27  1  0  0  0  0
  9 27  2  0  0  0  0
 10 28  1  0  0  0  0
 11 12  2  0  0  0  0
 11 29  1  0  0  0  0
 12 30  1  0  0  0  0
 13 22  1  0  0  0  0
 13 28  2  0  0  0  0
 14 23  1  0  0  0  0
 14 24  2  0  0  0  0
 15 23  2  0  0  0  0
 15 25  1  0  0  0  0
 16 30  2  0  0  0  0
 16 31  1  0  0  0  0
 17 32  1  0  0  0  0
 18 32  1  0  0  0  0
 18 33  2  0  0  0  0
 18 36  1  0  0  0  0
 19 21  2  0  0  0  0
 19 41  1  0  0  0  0
 20 22  2  0  0  0  0
 20 42  1  0  0  0  0
 21 54  1  0  0  0  0
 22 43  1  0  0  0  0
 23 66  1  0  0  0  0
 24 26  1  0  0  0  0
 24 58  1  0  0  0  0
 25 26  2  0  0  0  0
 25 65  1  0  0  0  0
 26 59  1  0  0  0  0
 27 86  1  0  0  0  0
 28 87  1  0  0  0  0
 29 31  2  0  0  0  0
 29 86  1  0  0  0  0
 30 88  1  0  0  0  0
 31 89  1  0  0  0  0
 32 70  2  0  0  0  0
 33 71  1  0  0  0  0
 33 74  1  0  0  0  0
 34 35  2  0  0  0  0
 34 44  1  0  0  0  0
 34 79  1  0  0  0  0
 36 75  1  0  0  0  0
 36 81  2  0  0  0  0
 37 55  1  0  0  0  0
 37 76  1  0  0  0  0
 37 82  2  0  0  0  0
 38 67  1  0  0  0  0
 38 72  1  0  0  0  0
 38 83  2  0  0  0  0
 39 68  1  0  0  0  0
 39 77  1  0  0  0  0
 39 84  2  0  0  0  0
 40 73  1  0  0  0  0
 40 78  1  0  0  0  0
 40 85  2  0  0  0  0
 41 45  1  0  0  0  0
 42 55  1  0  0  0  0
 43 72  1  0  0  0  0
 44 46  1  0  0  0  0
 45 48  1  0  0  0  0
 46 50  1  0  0  0  0
 47 49  1  0  0  0  0
 47 51  1  0  0  0  0
 48 54  1  0  0  0  0
 49 56  1  0  0  0  0
 50 57  1  0  0  0  0
 51 73  1  0  0  0  0
 52 56  1  0  0  0  0
 52 73  1  0  0  0  0
 53 57  1  0  0  0  0
 53 79  1  0  0  0  0
 54 76  1  0  0  0  0
 55 72  1  0  0  0  0
 56 71  1  0  0  0  0
 57 87  1  0  0  0  0
 60 68  1  0  0  0  0
 61 69  1  0  0  0  0
 62 69  1  0  0  0  0
 63 69  1  0  0  0  0
 64 80  1  0  0  0  0
 65 78  1  0  0  0  0
 66 79  1  0  0  0  0
 67 69  1  0  0  0  0
 67 77  1  0  0  0  0
 68 80  1  0  0  0  0
 70 71  1  0  0  0  0
M  CHG  2  79   1  80   1
M  ISO  4  40 100  57 101  78 100  87 101
M  END
> <Batch ID>
0039

> <Smiles>
C=C1CCC[101CH:1]([101O:1]c2ccc3c(c2)CN(C(=O)C(NC(=O)C(C)NC)C(C)(C)C)C(C(=O)NC2CCCc4ccccc42)C3)CN1Cc1cc(C)c(C)c(C[100NH:0][100C:0](=O)N2CCCC(n3nc(-c4ccc(Oc5ccc(F)cc5F)cc4)c(C(N)=O)c3N)C2)c1

> <Shape>
0.220

> <Color>
0.070

> <Negative vol penalty>
0.000

$$$$

  -OEChem-04042322043D

 86 94  0     1  0  0  0  0  0999 V2000
  -31.5549  -23.7224   18.1017 C   0  0  0  0  0  0  0  0  0  0  0  0
  -30.2160  -24.0752   18.2276 C   0  0  0  0  0  0  0  0  0  0  0  0
  -25.1172   -9.8271   18.9324 C   0  0  0  0  0  0  0  0  0  0  0  0
  -24.8609   -9.5753   21.3215 C   0  0  0  0  0  0  0  0  0  0  0  0
  -32.4999  -24.2679   18.9681 C   0  0  0  0  0  0  0  0  0  0  0  0
  -29.8234  -24.9827   19.2121 C   0  0  0  0  0  0  0  0  0  0  0  0
  -25.1372  -26.4781   19.1324 C   0  0  0  0  0  0  0  0  0  0  0  0
  -24.8818   -8.4627   18.7633 C   0  0  0  0  0  0  0  0  0  0  0  0
  -24.6254   -8.2109   21.1524 C   0  0  0  0  0  0  0  0  0  0  0  0
  -24.0760  -25.6518   19.4996 C   0  0  0  0  0  0  0  0  0  0  0  0
  -22.0557   -6.2256   20.2168 C   0  0  0  0  0  0  0  0  0  0  0  0
  -20.9968   -5.6594   20.9266 C   0  0  0  0  0  0  0  0  0  0  0  0
  -23.9185  -26.8036   21.6133 C   0  0  0  0  0  0  0  0  0  0  0  0
  -28.5179  -20.5152   23.2432 C   0  0  0  0  0  0  0  0  0  0  0  0
  -26.2295  -19.7513   23.1152 C   0  0  0  0  0  0  0  0  0  0  0  0
  -22.5378   -4.1611   22.0302 C   0  0  0  0  0  0  0  0  0  0  0  0
  -25.1068  -10.3834   20.2115 C   0  0  0  0  0  0  0  0  0  0  0  0
  -24.3948  -12.8263   20.3934 C   0  0  0  0  0  0  0  0  0  0  0  0
  -32.1160  -25.1728   19.9714 C   0  0  0  0  0  0  0  0  0  0  0  0
  -25.6049  -27.4679   20.0087 C   0  0  0  0  0  0  0  0  0  0  0  0
  -30.7656  -25.5625   20.0808 C   0  0  0  0  0  0  0  0  0  0  0  0
  -24.9841  -27.6429   21.2538 C   0  0  0  0  0  0  0  0  0  0  0  0
  -27.5284  -19.5994   23.6005 C   0  0  0  0  0  0  0  0  0  0  0  0
  -28.2086  -21.5830   22.4006 C   0  0  0  0  0  0  0  0  0  0  0  0
  -25.9202  -20.8190   22.2726 C   0  0  0  0  0  0  0  0  0  0  0  0
  -26.9097  -21.7348   21.9153 C   0  0  0  0  0  0  0  0  0  0  0  0
  -24.6359   -7.6546   19.8733 C   0  0  0  0  0  0  0  0  0  0  0  0
  -23.4683  -25.8126   20.7414 C   0  0  0  0  0  0  0  0  0  0  0  0
  -23.3556   -5.7595   20.4136 C   0  0  0  0  0  0  0  0  0  0  0  0
  -21.2379   -4.6272   21.8333 C   0  0  0  0  0  0  0  0  0  0  0  0
  -23.5967   -4.7273   21.3203 C   0  0  0  0  0  0  0  0  0  0  0  0
  -25.3505  -11.7926   20.3868 C   0  0  0  0  0  0  0  0  0  0  0  0
  -25.1278  -13.9704   20.5935 C   0  0  0  0  0  0  0  0  0  0  0  0
  -22.9716  -12.7582   20.2331 C   0  0  0  0  0  0  0  0  0  0  0  0
  -28.3634  -28.0385   21.4813 C   0  0  0  0  0  0  0  0  0  0  0  0
  -26.8696  -30.7735   22.3817 C   0  0  0  0  0  0  0  0  0  0  0  0
  -23.9347  -32.4172   22.9576 C   0  0  0  0  0  0  0  0  0  0  0  0
  -29.1660  -16.7611   23.2488 C   0  0  0  0  0  0  0  0  0  0  0  0
  -33.1814  -25.7388   20.8769 C   0  0  0  0  0  0  0  0  0  0  0  0
  -26.7331  -28.3687   19.5868 C   0  0  0  0  0  0  0  0  0  0  0  0
  -25.4353  -28.7040   22.2227 C   0  0  0  0  0  0  0  0  0  0  0  0
  -32.6142  -26.3399   22.1588 C   0  0  0  0  0  0  0  0  0  0  0  0
  -30.1259  -14.7404   20.4789 C   0  0  0  0  0  0  0  0  0  0  0  0
  -31.4671  -27.2828   21.8276 C   0  0  0  0  0  0  0  0  0  0  0  0
  -28.8930  -13.8749   20.2130 C   0  0  0  0  0  0  0  0  0  0  0  0
  -30.3311  -14.9867   21.9720 C   0  0  0  0  0  0  0  0  0  0  0  0
  -27.9259  -14.6745   22.4093 C   0  0  0  0  0  0  0  0  0  0  0  0
  -30.3109  -26.5241   21.1637 C   0  0  1  0  0  0  0  0  0  0  0  0
  -27.4625  -29.0051   20.7660 C   0  0  1  0  0  0  0  0  0  0  0  0
  -27.6456  -14.4452   20.9143 C   0  0  2  0  0  0  0  0  0  0  0  0
  -29.2868  -22.5491   22.0322 C   0  0  0  0  0  0  0  0  0  0  0  0
  -26.5785  -22.8795   21.0115 C   0  0  0  0  0  0  0  0  0  0  0  0
  -23.0340  -34.6310   23.7224 C   0  0  0  0  0  0  0  0  0  0  0  0
  -21.4784  -23.0156   24.1687 C   0  0  0  0  0  0  0  0  0  0  0  0
  -27.5749  -30.0621   25.2638 C   0  0  0  0  0  0  0  0  0  0  0  0
  -25.8788  -31.7413   26.0199 C   0  0  0  0  0  0  0  0  0  0  0  0
  -27.8544  -32.4796   24.6877 C   0  0  0  0  0  0  0  0  0  0  0  0
  -22.5434  -32.8708   20.3852 C   0  0  0  0  0  0  0  0  0  0  0  0
  -27.8589  -18.4583   24.5019 C   0  0  0  0  0  0  0  0  0  0  0  0
  -24.5157  -20.9599   21.7642 C   0  0  0  0  0  0  0  0  0  0  0  0
  -22.3855  -22.2550   21.9174 C   0  0  0  0  0  0  0  0  0  0  0  0
  -22.2780  -24.7329   22.4944 C   0  0  0  0  0  0  0  0  0  1  0  0
  -26.0052  -31.1851   23.5489 C   0  0  1  0  0  0  0  0  0  0  0  0
  -23.4465  -33.7881   22.5257 C   0  0  2  0  0  0  0  0  0  0  0  0
  -21.6361  -23.3525   22.6817 C   0  0  2  0  0  0  0  0  0  0  0  0
  -26.8208  -31.3457   24.8628 C   0  0  0  0  0  0  0  0  0  0  0  0
  -26.5957  -12.2406   20.5681 N   0  0  0  0  0  0  0  0  0  0  0  0
  -26.4275  -13.5683   20.6905 N   0  0  0  0  0  0  0  0  0  0  0  0
  -26.5463  -29.5556   21.7668 N   0  0  0  0  0  0  0  0  0  0  0  0
  -29.1120  -15.5289   22.5767 N   0  0  0  0  0  0  0  0  0  0  0  0
  -24.7811  -15.2712   20.6941 N   0  0  0  0  0  0  0  0  0  0  0  0
  -22.3807  -11.5026   20.0366 N   0  0  0  0  0  0  0  0  0  0  0  0
  -29.3378  -27.4776   20.6780 N   0  0  0  0  0  0  0  0  0  0  0  0
  -25.3025  -32.3932   23.1304 N   0  0  0  0  0  0  0  0  0  0  0  0
  -27.9647  -17.2058   23.7872 N   0  0  0  0  0  0  0  0  0  0  0  0
  -22.2731  -33.6572   21.6162 N   0  3  0  0  0  0  0  0  0  0  0  0
  -23.7569  -22.0481   22.4401 N   0  3  0  0  0  0  0  0  0  0  0  0
  -22.2473  -13.7823   20.2468 O   0  0  0  0  0  0  0  0  0  0  0  0
  -28.1884  -27.8190   22.6742 O   0  0  0  0  0  0  0  0  0  0  0  0
  -27.7931  -31.5090   22.0241 O   0  0  0  0  0  0  0  0  0  0  0  0
  -23.1780  -31.4639   23.1285 O   0  0  0  0  0  0  0  0  0  0  0  0
  -30.2065  -17.4190   23.3561 O   0  0  0  0  0  0  0  0  0  0  0  0
  -24.4059   -6.3232   19.7087 O   0  0  0  0  0  0  0  0  0  0  0  0
  -22.4328  -25.0070   21.1026 O   0  0  0  0  0  0  0  0  0  1  0  0
  -20.2212   -4.0846   22.5161 F   0  0  0  0  0  0  0  0  0  0  0  0
  -24.8435   -4.2762   21.5145 F   0  0  0  0  0  0  0  0  0  0  0  0
  1  2  1  0  0  0  0
  1  5  2  0  0  0  0
  2  6  2  0  0  0  0
  3  8  2  0  0  0  0
  3 17  1  0  0  0  0
  4  9  1  0  0  0  0
  4 17  2  0  0  0  0
  5 19  1  0  0  0  0
  6 21  1  0  0  0  0
  7 10  2  0  0  0  0
  7 20  1  0  0  0  0
  8 27  1  0  0  0  0
  9 27  2  0  0  0  0
 10 28  1  0  0  0  0
 11 12  2  0  0  0  0
 11 29  1  0  0  0  0
 12 30  1  0  0  0  0
 13 22  1  0  0  0  0
 13 28  2  0  0  0  0
 14 23  1  0  0  0  0
 14 24  2  0  0  0  0
 15 23  2  0  0  0  0
 15 25  1  0  0  0  0
 16 30  2  0  0  0  0
 16 31  1  0  0  0  0
 17 32  1  0  0  0  0
 18 32  1  0  0  0  0
 18 33  2  0  0  0  0
 18 34  1  0  0  0  0
 19 21  2  0  0  0  0
 19 39  1  0  0  0  0
 20 22  2  0  0  0  0
 20 40  1  0  0  0  0
 21 48  1  0  0  0  0
 22 41  1  0  0  0  0
 23 59  1  0  0  0  0
 24 26  1  0  0  0  0
 24 51  1  0  0  0  0
 25 26  2  0  0  0  0
 25 60  1  0  0  0  0
 26 52  1  0  0  0  0
 27 83  1  0  0  0  0
 28 84  1  0  0  0  0
 29 31  2  0  0  0  0
 29 83  1  0  0  0  0
 30 85  1  0  0  0  0
 31 86  1  0  0  0  0
 32 67  2  0  0  0  0
 33 68  1  0  0  0  0
 33 71  1  0  0  0  0
 34 72  1  0  0  0  0
 34 78  2  0  0  0  0
 35 49  1  0  0  0  0
 35 73  1  0  0  0  0
 35 79  2  0  0  0  0
 36 63  1  0  0  0  0
 36 69  1  0  0  0  0
 36 80  2  0  0  0  0
 37 64  1  0  0  0  0
 37 74  1  0  0  0  0
 37 81  2  0  0  0  0
 38 70  1  0  0  0  0
 38 75  1  0  0  0  0
 38 82  2  0  0  0  0
 39 42  1  0  0  0  0
 40 49  1  0  0  0  0
 41 69  1  0  0  0  0
 42 44  1  0  0  0  0
 43 45  1  0  0  0  0
 43 46  1  0  0  0  0
 44 48  1  0  0  0  0
 45 50  1  0  0  0  0
 46 70  1  0  0  0  0
 47 50  1  0  0  0  0
 47 70  1  0  0  0  0
 48 73  1  0  0  0  0
 49 69  1  0  0  0  0
 50 68  1  0  0  0  0
 53 64  1  0  0  0  0
 54 65  1  0  0  0  0
 55 66  1  0  0  0  0
 56 66  1  0  0  0  0
 57 66  1  0  0  0  0
 58 76  1  0  0  0  0
 59 75  1  0  0  0  0
 60 77  1  0  0  0  0
 61 65  1  0  0  0  0
 61 77  1  0  0  0  0
 62 65  1  0  0  0  0
 62 84  1  0  0  0  0
 63 66  1  0  0  0  0
 63 74  1  0  0  0  0
 64 76  1  0  0  0  0
 67 68  1  0  0  0  0
M  CHG  2  76   1  77   1
M  ISO  4  38 100  62 101  75 100  84 101
M  END
> <Batch ID>
0039

> <Smiles>
CNC(C)C(=O)NC(C(=O)N1Cc2cc([101O:1][101CH2:1]C(C)CNCc3cc(C[100NH:0][100C:0](=O)N4CCCC(n5nc(-c6ccc(Oc7ccc(F)cc7F)cc6)c(C(N)=O)c5N)C4)cc(C)c3C)ccc2CC1C(=O)NC1CCCc2ccccc21)C(C)(C)C

> <Shape>
0.252

> <Color>
0.090

> <Negative vol penalty>
0.000

$$$$

  -OEChem-04042322043D

 89 98  0     1  0  0  0  0  0999 V2000
  -27.3083  -18.7256   19.0487 C   0  0  0  0  0  0  0  0  0  0  0  0
  -26.1871  -19.5464   19.1171 C   0  0  0  0  0  0  0  0  0  0  0  0
  -23.1071  -13.7223   20.9176 C   0  0  0  0  0  0  0  0  0  0  0  0
  -24.8272  -14.5536   22.3966 C   0  0  0  0  0  0  0  0  0  0  0  0
  -28.4915  -19.1098   19.6784 C   0  0  0  0  0  0  0  0  0  0  0  0
  -26.2481  -20.7514   19.8161 C   0  0  0  0  0  0  0  0  0  0  0  0
  -23.3667  -25.9705   18.4147 C   0  0  0  0  0  0  0  0  0  0  0  0
  -24.0026  -12.7849   20.4029 C   0  0  0  0  0  0  0  0  0  0  0  0
  -25.7227  -13.6161   21.8819 C   0  0  0  0  0  0  0  0  0  0  0  0
  -22.1907  -26.5494   18.8898 C   0  0  0  0  0  0  0  0  0  0  0  0
  -28.5655  -11.6815   20.7048 C   0  0  0  0  0  0  0  0  0  0  0  0
  -29.8525  -12.1184   20.3912 C   0  0  0  0  0  0  0  0  0  0  0  0
  -23.4783  -27.8865   20.4303 C   0  0  0  0  0  0  0  0  0  0  0  0
  -24.8289  -26.1772   24.7345 C   0  0  0  0  0  0  0  0  0  0  0  0
  -23.4167  -28.1308   24.5735 C   0  0  0  0  0  0  0  0  0  0  0  0
  -28.9318  -13.6951   18.8090 C   0  0  0  0  0  0  0  0  0  0  0  0
  -23.5194  -14.6067   21.9144 C   0  0  0  0  0  0  0  0  0  0  0  0
  -21.3731  -15.3176   23.0959 C   0  0  0  0  0  0  0  0  0  0  0  0
  -28.5698  -20.3246   20.3774 C   0  0  0  0  0  0  0  0  0  0  0  0
  -24.6086  -26.3379   18.9524 C   0  0  0  0  0  0  0  0  0  0  0  0
  -27.4330  -21.1515   20.4569 C   0  0  0  0  0  0  0  0  0  0  0  0
  -24.6688  -27.3126   19.9586 C   0  0  0  0  0  0  0  0  0  0  0  0
  -23.7256  -25.4105   25.1092 C   0  0  0  0  0  0  0  0  0  0  0  0
  -22.3134  -27.3641   24.9482 C   0  0  0  0  0  0  0  0  0  0  0  0
  -22.4678  -26.0039   25.2160 C   0  0  0  0  0  0  0  0  0  0  0  0
  -25.3104  -12.7318   20.8851 C   0  0  0  0  0  0  0  0  0  0  0  0
  -22.2461  -27.5055   19.8997 C   0  0  0  0  0  0  0  0  0  0  0  0
  -27.4616  -12.2513   20.0704 C   0  0  0  0  0  0  0  0  0  0  0  0
  -30.0356  -13.1252   19.4434 C   0  0  0  0  0  0  0  0  0  0  0  0
  -24.6745  -27.5374   24.4668 C   0  0  0  0  0  0  0  0  0  0  0  0
  -27.6447  -13.2581   19.1225 C   0  0  0  0  0  0  0  0  0  0  0  0
  -22.5950  -15.5757   22.4460 C   0  0  0  0  0  0  0  0  0  0  0  0
  -20.8792  -16.5613   23.4050 C   0  0  0  0  0  0  0  0  0  0  0  0
  -20.7412  -14.0655   23.3936 C   0  0  0  0  0  0  0  0  0  0  0  0
  -26.9174  -24.8099   20.5139 C   0  0  0  0  0  0  0  0  0  0  0  0
  -28.4725  -27.6384   20.1921 C   0  0  0  0  0  0  0  0  0  0  0  0
  -28.2796  -31.0157   19.7411 C   0  0  0  0  0  0  0  0  0  0  0  0
  -23.5605  -21.7375   24.3396 C   0  0  0  0  0  0  0  0  0  0  0  0
  -29.8565  -20.6751   21.0820 C   0  0  0  0  0  0  0  0  0  0  0  0
  -25.8700  -25.7236   18.4105 C   0  0  0  0  0  0  0  0  0  0  0  0
  -25.9786  -27.7566   20.5552 C   0  0  0  0  0  0  0  0  0  0  0  0
  -29.9489  -22.1442   21.4864 C   0  0  0  0  0  0  0  0  0  0  0  0
  -18.1613  -26.3987   22.0912 C   0  0  0  0  0  0  0  0  0  0  0  0
  -20.9632  -21.1040   21.9003 C   0  0  0  0  0  0  0  0  0  0  0  0
  -28.6525  -22.5977   22.1502 C   0  0  0  0  0  0  0  0  0  0  0  0
  -20.9773  -19.5759   21.8309 C   0  0  0  0  0  0  0  0  0  0  0  0
  -19.0691  -26.9679   21.0033 C   0  0  0  0  0  0  0  0  0  0  0  0
  -17.6679  -27.4725   23.0596 C   0  0  0  0  0  0  0  0  0  0  0  0
  -22.3734  -21.6630   22.0641 C   0  0  0  0  0  0  0  0  0  0  0  0
  -23.1336  -19.5953   23.1686 C   0  0  0  0  0  0  0  0  0  0  0  0
  -20.4585  -28.4023   22.6342 C   0  0  0  0  0  0  0  0  0  0  0  0
  -27.4671  -22.4778   21.1848 C   0  0  1  0  0  0  0  0  0  0  0  0
  -27.0387  -25.7978   19.3883 C   0  0  1  0  0  0  0  0  0  0  0  0
  -21.7351  -18.9677   23.0258 C   0  0  2  0  0  0  0  0  0  0  0  0
  -20.4531  -27.4230   21.4645 C   0  0  2  0  0  0  0  0  0  1  0  0
  -18.5779  -27.7644   24.2626 C   0  0  2  0  0  0  0  0  0  0  0  0
  -21.2851  -25.1808   25.6169 C   0  0  0  0  0  0  0  0  0  0  0  0
  -18.2101  -29.1050   24.9006 C   0  0  0  0  0  0  0  0  0  0  0  0
  -29.7178  -33.0640   19.5579 C   0  0  0  0  0  0  0  0  0  0  0  0
  -28.9092  -27.5989   23.2116 C   0  0  0  0  0  0  0  0  0  0  0  0
  -29.4734  -30.0352   23.0918 C   0  0  0  0  0  0  0  0  0  0  0  0
  -30.8823  -28.3695   21.8822 C   0  0  0  0  0  0  0  0  0  0  0  0
  -27.3198  -31.5861   17.0002 C   0  0  0  0  0  0  0  0  0  0  0  0
  -23.9192  -23.9564   25.3906 C   0  0  0  0  0  0  0  0  0  0  0  0
  -20.9713  -28.0260   25.0561 C   0  0  0  0  0  0  0  0  0  0  0  0
  -28.5703  -28.9037   21.0097 C   0  0  1  0  0  0  0  0  0  0  0  0
  -29.0158  -31.9496   18.7975 C   0  0  2  0  0  0  0  0  0  0  0  0
  -29.4338  -28.7173   22.2891 C   0  0  0  0  0  0  0  0  0  0  0  0
  -22.8609  -16.8809   22.3474 N   0  0  0  0  0  0  0  0  0  0  0  0
  -21.7992  -17.4541   22.9393 N   0  0  0  0  0  0  0  0  0  0  0  0
  -27.1837  -27.1221   19.9963 N   0  0  0  0  0  0  0  0  0  0  0  0
  -23.0330  -21.0572   23.2295 N   0  0  0  0  0  0  0  0  0  0  0  0
  -19.7520  -16.9675   24.0270 N   0  0  0  0  0  0  0  0  0  0  0  0
  -21.0312  -13.4448   24.6163 N   0  0  0  0  0  0  0  0  0  0  0  0
  -27.4719  -23.5742   20.2401 N   0  0  0  0  0  0  0  0  0  0  0  0
  -29.0592  -29.9380   20.1043 N   0  0  0  0  0  0  0  0  0  0  0  0
  -23.4306  -23.1207   24.3164 N   0  0  0  0  0  0  0  0  0  0  0  0
  -20.0526  -27.6918   23.9054 N   0  3  2  0  0  0  0  0  0  0  0  0
  -28.0631  -32.5672   17.8321 N   0  3  0  0  0  0  0  0  0  0  0  0
  -19.9558  -13.5054   22.5918 O   0  0  0  0  0  0  0  0  0  0  0  0
  -26.3632  -25.1445   21.5544 O   0  0  0  0  0  0  0  0  0  0  0  0
  -29.5009  -27.1310   19.7377 O   0  0  0  0  0  0  0  0  0  0  0  0
  -27.1294  -31.2236   20.1211 O   0  0  0  0  0  0  0  0  0  0  0  0
  -24.1027  -21.1546   25.2848 O   0  0  0  0  0  0  0  0  0  0  0  0
  -26.1844  -11.8170   20.3833 O   0  0  0  0  0  0  0  0  0  0  0  0
  -21.0998  -28.0717   20.3656 O   0  0  0  0  0  0  0  0  0  1  0  0
  -31.2715  -13.5457   19.1435 F   0  0  0  0  0  0  0  0  0  0  0  0
  -25.7343  -28.2736   24.1072 F   0  0  0  0  0  0  0  0  0  0  0  0
  -26.5881  -13.8102   18.5106 F   0  0  0  0  0  0  0  0  0  0  0  0
  1  2  1  0  0  0  0
  1  5  2  0  0  0  0
  2  6  2  0  0  0  0
  3  8  2  0  0  0  0
  3 17  1  0  0  0  0
  4  9  1  0  0  0  0
  4 17  2  0  0  0  0
  5 19  1  0  0  0  0
  6 21  1  0  0  0  0
  7 10  2  0  0  0  0
  7 20  1  0  0  0  0
  8 26  1  0  0  0  0
  9 26  2  0  0  0  0
 10 27  1  0  0  0  0
 11 12  2  0  0  0  0
 11 28  1  0  0  0  0
 12 29  1  0  0  0  0
 13 22  1  0  0  0  0
 13 27  2  0  0  0  0
 14 23  2  0  0  0  0
 14 30  1  0  0  0  0
 15 24  1  0  0  0  0
 15 30  2  0  0  0  0
 16 29  2  0  0  0  0
 16 31  1  0  0  0  0
 17 32  1  0  0  0  0
 18 32  1  0  0  0  0
 18 33  2  0  0  0  0
 18 34  1  0  0  0  0
 19 21  2  0  0  0  0
 19 39  1  0  0  0  0
 20 22  2  0  0  0  0
 20 40  1  0  0  0  0
 21 52  1  0  0  0  0
 22 41  1  0  0  0  0
 23 25  1  0  0  0  0
 23 64  1  0  0  0  0
 24 25  2  0  0  0  0
 24 65  1  0  0  0  0
 25 57  1  0  0  0  0
 26 85  1  0  0  0  0
 27 86  1  0  0  0  0
 28 31  2  0  0  0  0
 28 85  1  0  0  0  0
 29 87  1  0  0  0  0
 30 88  1  0  0  0  0
 31 89  1  0  0  0  0
 32 69  2  0  0  0  0
 33 70  1  0  0  0  0
 33 73  1  0  0  0  0
 34 74  1  0  0  0  0
 34 80  2  0  0  0  0
 35 53  1  0  0  0  0
 35 75  1  0  0  0  0
 35 81  2  0  0  0  0
 36 66  1  0  0  0  0
 36 71  1  0  0  0  0
 36 82  2  0  0  0  0
 37 67  1  0  0  0  0
 37 76  1  0  0  0  0
 37 83  2  0  0  0  0
 38 72  1  0  0  0  0
 38 77  1  0  0  0  0
 38 84  2  0  0  0  0
 39 42  1  0  0  0  0
 40 53  1  0  0  0  0
 41 71  1  0  0  0  0
 42 45  1  0  0  0  0
 43 47  1  0  0  0  0
 43 48  1  0  0  0  0
 44 46  1  0  0  0  0
 44 49  1  0  0  0  0
 45 52  1  0  0  0  0
 46 54  1  0  0  0  0
 47 55  1  0  0  0  0
 48 56  1  0  0  0  0
 49 72  1  0  0  0  0
 50 54  1  0  0  0  0
 50 72  1  0  0  0  0
 51 55  1  0  0  0  0
 51 78  1  0  0  0  0
 52 75  1  0  0  0  0
 53 71  1  0  0  0  0
 54 70  1  0  0  0  0
 55 86  1  0  0  0  0
 56 58  1  0  0  0  0
 56 78  1  0  0  0  0
 59 67  1  0  0  0  0
 60 68  1  0  0  0  0
 61 68  1  0  0  0  0
 62 68  1  0  0  0  0
 63 79  1  0  0  0  0
 64 77  1  0  0  0  0
 65 78  1  0  0  0  0
 66 68  1  0  0  0  0
 66 76  1  0  0  0  0
 67 79  1  0  0  0  0
 69 70  1  0  0  0  0
M  CHG  2  78   1  79   1
M  ISO  4  38 100  55 101  77 100  86 101
M  END
> <Batch ID>
0039

> <Smiles>
CNC(C)C(=O)NC(C(=O)N1Cc2cc([101O:1][101CH:1]3CCCC(C)N(Cc4cc(F)cc(C[100NH:0][100C:0](=O)N5CCCC(n6nc(-c7ccc(Oc8ccc(F)cc8F)cc7)c(C(N)=O)c6N)C5)c4C)C3)ccc2CC1C(=O)NC1CCCc2ccccc21)C(C)(C)C

> <Shape>
0.215

> <Color>
0.058

> <Negative vol penalty>
0.000

$$$$
