
  -OEChem-04042322063D

 83 91  0     1  0  0  0  0  0999 V2000
  -17.2972  -25.9114   21.8490 C   0  0  0  0  0  0  0  0  0  0  0  0
  -18.5413  -25.8492   21.2296 C   0  0  0  0  0  0  0  0  0  0  0  0
  -31.8792  -20.2215   21.3401 C   0  0  0  0  0  0  0  0  0  0  0  0
  -22.0464  -12.2432   20.0220 C   0  0  0  0  0  0  0  0  0  0  0  0
  -22.1680  -13.6999   21.9457 C   0  0  0  0  0  0  0  0  0  0  0  0
  -17.0693  -26.8431   22.8608 C   0  0  0  0  0  0  0  0  0  0  0  0
  -19.5580  -26.7196   21.6209 C   0  0  0  0  0  0  0  0  0  0  0  0
  -24.0163  -24.3801   22.1641 C   0  0  0  0  0  0  0  0  0  0  0  0
  -31.1504  -21.3866   21.1010 C   0  0  0  0  0  0  0  0  0  0  0  0
  -31.3418  -18.9803   20.9990 C   0  0  0  0  0  0  0  0  0  0  0  0
  -21.0215  -11.5212   20.6336 C   0  0  0  0  0  0  0  0  0  0  0  0
  -21.1431  -12.9779   22.5572 C   0  0  0  0  0  0  0  0  0  0  0  0
  -24.7264  -24.0850   21.0012 C   0  0  0  0  0  0  0  0  0  0  0  0
  -20.7302   -9.1408   23.0154 C   0  0  0  0  0  0  0  0  0  0  0  0
  -20.8021   -7.7486   22.9688 C   0  0  0  0  0  0  0  0  0  0  0  0
  -26.1170  -26.0221   21.3660 C   0  0  0  0  0  0  0  0  0  0  0  0
  -18.6919   -7.6790   21.7942 C   0  0  0  0  0  0  0  0  0  0  0  0
  -22.6197  -13.3325   20.6781 C   0  0  0  0  0  0  0  0  0  0  0  0
  -23.5450  -15.1997   19.2067 C   0  0  0  0  0  0  0  0  0  0  0  0
  -18.0867  -27.7189   23.2714 C   0  0  0  0  0  0  0  0  0  0  0  0
  -24.3447  -25.5064   22.9322 C   0  0  0  0  0  0  0  0  0  0  0  0
  -19.3431  -27.6649   22.6383 C   0  0  0  0  0  0  0  0  0  0  0  0
  -25.4112  -26.3279   22.5396 C   0  0  0  0  0  0  0  0  0  0  0  0
  -29.8841  -21.3104   20.5211 C   0  0  0  0  0  0  0  0  0  0  0  0
  -29.3466  -20.0692   20.1801 C   0  0  0  0  0  0  0  0  0  0  0  0
  -30.0755  -18.9042   20.4191 C   0  0  0  0  0  0  0  0  0  0  0  0
  -20.5698  -11.8886   21.9011 C   0  0  0  0  0  0  0  0  0  0  0  0
  -25.7751  -24.9077   20.6004 C   0  0  0  0  0  0  0  0  0  0  0  0
  -19.6392   -9.8022   22.4516 C   0  0  0  0  0  0  0  0  0  0  0  0
  -19.7830   -7.0177   22.3582 C   0  0  0  0  0  0  0  0  0  0  0  0
  -18.6201   -9.0713   21.8410 C   0  0  0  0  0  0  0  0  0  0  0  0
  -23.6788  -14.0783   20.0472 C   0  0  0  0  0  0  0  0  0  0  0  0
  -24.8345  -15.5344   18.8728 C   0  0  0  0  0  0  0  0  0  0  0  0
  -22.3608  -15.8782   18.7672 C   0  0  0  0  0  0  0  0  0  0  0  0
  -22.8202  -28.1620   23.7852 C   0  0  0  0  0  0  0  0  0  0  0  0
  -28.5827  -24.0670   18.5114 C   0  0  0  0  0  0  0  0  0  0  0  0
  -25.4779  -28.6461   25.5809 C   0  0  0  0  0  0  0  0  0  0  0  0
  -28.7955  -28.0160   26.0744 C   0  0  0  0  0  0  0  0  0  0  0  0
  -30.1588  -16.3915   20.2584 C   0  0  0  0  0  0  0  0  0  0  0  0
  -17.7786  -28.7409   24.3369 C   0  0  0  0  0  0  0  0  0  0  0  0
  -23.5863  -25.7959   24.1984 C   0  0  0  0  0  0  0  0  0  0  0  0
  -25.8166  -27.5376   23.3400 C   0  0  0  0  0  0  0  0  0  0  0  0
  -19.0240  -29.3752   24.9508 C   0  0  0  0  0  0  0  0  0  0  0  0
  -29.1773  -13.0349   19.5899 C   0  0  0  0  0  0  0  0  0  0  0  0
  -20.0051  -29.7903   23.8590 C   0  0  0  0  0  0  0  0  0  0  0  0
  -27.6483  -13.0994   19.5801 C   0  0  0  0  0  0  0  0  0  0  0  0
  -29.7775  -13.9660   20.6417 C   0  0  0  0  0  0  0  0  0  0  0  0
  -27.7942  -15.4250   20.5584 C   0  0  0  0  0  0  0  0  0  0  0  0
  -20.4788  -28.5755   23.0520 C   0  0  1  0  0  0  0  0  0  0  0  0
  -23.6749  -27.2573   24.6271 C   0  0  1  0  0  0  0  0  0  0  0  0
  -27.1462  -14.5525   19.4710 C   0  0  2  0  0  0  0  0  0  0  0  0
  -27.9876  -19.9925   19.5579 C   0  0  0  0  0  0  0  0  0  0  0  0
  -28.6139  -24.4219   17.0440 C   0  0  0  0  0  0  0  0  0  0  0  0
  -30.7021  -28.5833   27.6042 C   0  0  0  0  0  0  0  0  0  0  0  0
  -25.7186  -31.3864   24.2607 C   0  0  0  0  0  0  0  0  0  0  0  0
  -28.0812  -31.4971   25.0818 C   0  0  0  0  0  0  0  0  0  0  0  0
  -26.2001  -31.3648   26.7147 C   0  0  0  0  0  0  0  0  0  0  0  0
  -29.1487  -25.1881   26.8726 C   0  0  0  0  0  0  0  0  0  0  0  0
  -29.1203  -22.5813   20.2745 C   0  0  0  0  0  0  0  0  0  0  0  0
  -27.8400  -25.0177   19.4257 C   0  0  0  0  0  0  0  0  0  1  0  0
  -26.8102  -29.3202   25.3586 C   0  0  1  0  0  0  0  0  0  0  0  0
  -29.5699  -27.6099   27.3153 C   0  0  2  0  0  0  0  0  0  0  0  0
  -26.6939  -30.8705   25.3376 C   0  0  0  0  0  0  0  0  0  0  0  0
  -24.9529  -13.7242   20.2354 N   0  0  0  0  0  0  0  0  0  0  0  0
  -29.1560  -22.9710   18.8749 N   0  0  0  0  0  0  0  0  0  0  0  0
  -25.6313  -14.6282   19.5085 N   0  0  0  0  0  0  0  0  0  0  0  0
  -25.0405  -27.7822   24.5669 N   0  0  0  0  0  0  0  0  0  0  0  0
  -29.2597  -15.3257   20.4738 N   0  0  0  0  0  0  0  0  0  0  0  0
  -25.3532  -16.5124   18.1003 N   0  0  0  0  0  0  0  0  0  0  0  0
  -21.1171  -15.4029   19.2049 N   0  0  0  0  0  0  0  0  0  0  0  0
  -29.5493  -17.6330   20.0802 N   0  0  0  0  0  0  0  0  0  0  0  0
  -21.4777  -27.8351   23.7926 N   0  0  0  0  0  0  0  0  0  0  0  0
  -27.7065  -28.8021   26.3865 N   0  0  0  0  0  0  0  0  0  0  0  0
  -30.1529  -26.2497   27.1399 N   0  3  0  0  0  0  0  0  0  0  0  0
  -22.4035  -16.8664   17.9957 O   0  0  0  0  0  0  0  0  0  0  0  0
  -23.3402  -29.0889   23.1752 O   0  0  0  0  0  0  0  0  0  0  0  0
  -24.8517  -28.8721   26.6194 O   0  0  0  0  0  0  0  0  0  0  0  0
  -29.1258  -27.6735   24.9412 O   0  0  0  0  0  0  0  0  0  0  0  0
  -31.3782  -16.2115   20.2068 O   0  0  0  0  0  0  0  0  0  0  0  0
  -19.5696  -11.1844   22.4980 O   0  0  0  0  0  0  0  0  0  0  0  0
  -26.4694  -24.6224   19.4653 O   0  0  0  0  0  0  0  0  0  1  0  0
  -19.8529   -5.6809   22.3121 F   0  0  0  0  0  0  0  0  0  0  0  0
  -17.5700   -9.7011   21.2965 F   0  0  0  0  0  0  0  0  0  0  0  0
  1  2  1  0  0  0  0
  1  6  2  0  0  0  0
  2  7  2  0  0  0  0
  3  9  2  0  0  0  0
  3 10  1  0  0  0  0
  4 11  2  0  0  0  0
  4 18  1  0  0  0  0
  5 12  1  0  0  0  0
  5 18  2  0  0  0  0
  6 20  1  0  0  0  0
  7 22  1  0  0  0  0
  8 13  2  0  0  0  0
  8 21  1  0  0  0  0
  9 24  1  0  0  0  0
 10 26  2  0  0  0  0
 11 27  1  0  0  0  0
 12 27  2  0  0  0  0
 13 28  1  0  0  0  0
 14 15  2  0  0  0  0
 14 29  1  0  0  0  0
 15 30  1  0  0  0  0
 16 23  1  0  0  0  0
 16 28  2  0  0  0  0
 17 30  2  0  0  0  0
 17 31  1  0  0  0  0
 18 32  1  0  0  0  0
 19 32  1  0  0  0  0
 19 33  2  0  0  0  0
 19 34  1  0  0  0  0
 20 22  2  0  0  0  0
 20 40  1  0  0  0  0
 21 23  2  0  0  0  0
 21 41  1  0  0  0  0
 22 49  1  0  0  0  0
 23 42  1  0  0  0  0
 24 25  2  0  0  0  0
 24 59  1  0  0  0  0
 25 26  1  0  0  0  0
 25 52  1  0  0  0  0
 26 71  1  0  0  0  0
 27 80  1  0  0  0  0
 28 81  1  0  0  0  0
 29 31  2  0  0  0  0
 29 80  1  0  0  0  0
 30 82  1  0  0  0  0
 31 83  1  0  0  0  0
 32 64  2  0  0  0  0
 33 66  1  0  0  0  0
 33 69  1  0  0  0  0
 34 70  1  0  0  0  0
 34 75  2  0  0  0  0
 35 50  1  0  0  0  0
 35 72  1  0  0  0  0
 35 76  2  0  0  0  0
 36 53  1  0  0  0  0
 36 60  1  0  0  0  0
 36 65  2  0  0  0  0
 37 61  1  0  0  0  0
 37 67  1  0  0  0  0
 37 77  2  0  0  0  0
 38 62  1  0  0  0  0
 38 73  1  0  0  0  0
 38 78  2  0  0  0  0
 39 68  1  0  0  0  0
 39 71  1  0  0  0  0
 39 79  2  0  0  0  0
 40 43  1  0  0  0  0
 41 50  1  0  0  0  0
 42 67  1  0  0  0  0
 43 45  1  0  0  0  0
 44 46  1  0  0  0  0
 44 47  1  0  0  0  0
 45 49  1  0  0  0  0
 46 51  1  0  0  0  0
 47 68  1  0  0  0  0
 48 51  1  0  0  0  0
 48 68  1  0  0  0  0
 49 72  1  0  0  0  0
 50 67  1  0  0  0  0
 51 66  1  0  0  0  0
 54 62  1  0  0  0  0
 55 63  1  0  0  0  0
 56 63  1  0  0  0  0
 57 63  1  0  0  0  0
 58 74  1  0  0  0  0
 59 65  1  0  0  0  0
 60 81  1  0  0  0  0
 61 63  1  0  0  0  0
 61 73  1  0  0  0  0
 62 74  1  0  0  0  0
 64 66  1  0  0  0  0
M  CHG  1  74   1
M  ISO  4  39 100  60 101  71 100  81 101
M  END
> <Batch ID>
0040

> <Smiles>
CNC(C)C(=O)NC(C(=O)N1Cc2cc([101O:1][101CH2:1]C(C)=NCc3cccc([100NH:0][100C:0](=O)N4CCCC(n5nc(-c6ccc(Oc7ccc(F)cc7F)cc6)c(C(N)=O)c5N)C4)c3C)ccc2CC1C(=O)NC1CCCc2ccccc21)C(C)(C)C

> <Shape>
0.240

> <Color>
0.068

> <Negative vol penalty>
0.000

$$$$

  -OEChem-04042322063D

 86 94  0     1  0  0  0  0  0999 V2000
  -35.3923  -16.0910   16.6899 C   0  0  0  0  0  0  0  0  0  0  0  0
  -34.7537  -16.3344   17.9016 C   0  0  0  0  0  0  0  0  0  0  0  0
  -23.2899   -9.7995   19.9064 C   0  0  0  0  0  0  0  0  0  0  0  0
  -23.7456   -9.9289   22.2755 C   0  0  0  0  0  0  0  0  0  0  0  0
  -35.7053  -17.1530   15.8425 C   0  0  0  0  0  0  0  0  0  0  0  0
  -34.4287  -17.6402   18.2672 C   0  0  0  0  0  0  0  0  0  0  0  0
  -29.7386  -18.0239   20.1381 C   0  0  0  0  0  0  0  0  0  0  0  0
  -32.6905  -15.3641   24.6308 C   0  0  0  0  0  0  0  0  0  0  0  0
  -32.1979  -14.6089   23.5667 C   0  0  0  0  0  0  0  0  0  0  0  0
  -22.5673   -8.6238   20.1096 C   0  0  0  0  0  0  0  0  0  0  0  0
  -23.0230   -8.7533   22.4787 C   0  0  0  0  0  0  0  0  0  0  0  0
  -29.5434  -17.6139   21.4563 C   0  0  0  0  0  0  0  0  0  0  0  0
  -19.7790   -7.8318   22.6985 C   0  0  0  0  0  0  0  0  0  0  0  0
  -18.8791   -7.8020   23.7638 C   0  0  0  0  0  0  0  0  0  0  0  0
  -29.6213  -19.9147   22.1770 C   0  0  0  0  0  0  0  0  0  0  0  0
  -20.0923   -5.9531   24.7369 C   0  0  0  0  0  0  0  0  0  0  0  0
  -23.8791  -10.4520   20.9894 C   0  0  0  0  0  0  0  0  0  0  0  0
  -24.1309  -12.9838   20.8035 C   0  0  0  0  0  0  0  0  0  0  0  0
  -35.3754  -18.4716   16.1935 C   0  0  0  0  0  0  0  0  0  0  0  0
  -29.8877  -19.3838   19.8303 C   0  0  0  0  0  0  0  0  0  0  0  0
  -34.7389  -18.7210   17.4244 C   0  0  0  0  0  0  0  0  0  0  0  0
  -29.8157  -20.3395   20.8538 C   0  0  0  0  0  0  0  0  0  0  0  0
  -32.1636  -15.1923   25.9109 C   0  0  0  0  0  0  0  0  0  0  0  0
  -31.1439  -14.2653   26.1267 C   0  0  0  0  0  0  0  0  0  0  0  0
  -31.1782  -13.6819   23.7824 C   0  0  0  0  0  0  0  0  0  0  0  0
  -22.4338   -8.1007   21.3958 C   0  0  0  0  0  0  0  0  0  0  0  0
  -29.4876  -18.5592   22.4764 C   0  0  0  0  0  0  0  0  0  0  0  0
  -20.8356   -6.9223   22.6523 C   0  0  0  0  0  0  0  0  0  0  0  0
  -19.0358   -6.8626   24.7830 C   0  0  0  0  0  0  0  0  0  0  0  0
  -20.9922   -5.9829   23.6715 C   0  0  0  0  0  0  0  0  0  0  0  0
  -30.6512  -13.5101   25.0625 C   0  0  0  0  0  0  0  0  0  0  0  0
  -24.6261  -11.6662   20.7800 C   0  0  0  0  0  0  0  0  0  0  0  0
  -25.2295  -13.7681   20.5502 C   0  0  0  0  0  0  0  0  0  0  0  0
  -30.2703  -18.0981   25.9294 C   0  0  0  0  0  0  0  0  0  0  0  0
  -31.5290  -17.9893   26.3732 C   0  0  0  0  0  0  0  0  0  0  0  0
  -22.7970  -13.4564   21.0338 C   0  0  0  0  0  0  0  0  0  0  0  0
  -32.1989  -21.1547   18.5551 C   0  0  0  0  0  0  0  0  0  0  0  0
  -29.9495  -23.4882   18.6868 C   0  0  0  0  0  0  0  0  0  0  0  0
  -27.0980  -24.6856   20.1297 C   0  0  0  0  0  0  0  0  0  0  0  0
  -31.0940  -12.9661   21.3685 C   0  0  0  0  0  0  0  0  0  0  0  0
  -35.7765  -19.5916   15.2665 C   0  0  0  0  0  0  0  0  0  0  0  0
  -30.0709  -19.8118   18.4001 C   0  0  0  0  0  0  0  0  0  0  0  0
  -29.9497  -21.8133   20.5735 C   0  0  0  0  0  0  0  0  0  0  0  0
  -35.0618  -20.9087   15.5576 C   0  0  0  0  0  0  0  0  0  0  0  0
  -29.4516  -13.6821   18.2917 C   0  0  0  0  0  0  0  0  0  0  0  0
  -35.0839  -21.2088   17.0531 C   0  0  0  0  0  0  0  0  0  0  0  0
  -27.9818  -13.3721   18.5846 C   0  0  0  0  0  0  0  0  0  0  0  0
  -30.3892  -12.7058   18.9999 C   0  0  0  0  0  0  0  0  0  0  0  0
  -28.7011  -12.2638   20.7389 C   0  0  0  0  0  0  0  0  0  0  0  0
  -34.3479  -20.1212   17.8449 C   0  0  1  0  0  0  0  0  0  0  0  0
  -30.7247  -21.1836   18.2659 C   0  0  1  0  0  0  0  0  0  0  0  0
  -27.7205  -13.2603   20.0994 C   0  0  2  0  0  0  0  0  0  0  0  0
  -30.5671  -14.0668   27.4902 C   0  0  0  0  0  0  0  0  0  0  0  0
  -31.2935  -18.9488   29.0337 C   0  0  0  0  0  0  0  0  0  0  0  0
  -25.5204  -26.6356   20.0530 C   0  0  0  0  0  0  0  0  0  0  0  0
  -31.9824  -25.1893   20.1979 C   0  0  0  0  0  0  0  0  0  0  0  0
  -30.1018  -26.6821   20.9072 C   0  0  0  0  0  0  0  0  0  0  0  0
  -30.6487  -26.4326   18.4862 C   0  0  0  0  0  0  0  0  0  0  0  0
  -24.8165  -22.9587   19.3739 C   0  0  0  0  0  0  0  0  0  0  0  0
  -32.7097  -16.0164   27.0394 C   0  0  0  0  0  0  0  0  0  0  0  0
  -29.8738  -18.9740   24.7861 C   0  0  0  0  0  0  0  0  0  1  0  0
  -32.3110  -17.9027   28.6339 C   0  0  0  0  0  0  0  0  0  0  0  0
  -29.5373  -24.5193   19.7095 C   0  0  1  0  0  0  0  0  0  0  0  0
  -25.8204  -25.2407   19.5266 C   0  0  2  0  0  0  0  0  0  0  0  0
  -30.5670  -25.6780   19.8311 C   0  0  0  0  0  0  0  0  0  0  0  0
  -25.9373  -11.6126   20.5313 N   0  0  0  0  0  0  0  0  0  0  0  0
  -26.2753  -12.9063   20.3960 N   0  0  0  0  0  0  0  0  0  0  0  0
  -30.1337  -22.1813   19.1600 N   0  0  0  0  0  0  0  0  0  0  0  0
  -30.0857  -12.6555   20.4318 N   0  0  0  0  0  0  0  0  0  0  0  0
  -25.3934  -15.1041   20.4464 N   0  0  0  0  0  0  0  0  0  0  0  0
  -21.7876  -12.5153   21.2786 N   0  0  0  0  0  0  0  0  0  0  0  0
  -30.6799  -12.9164   22.6992 N   0  0  0  0  0  0  0  0  0  0  0  0
  -32.9158  -20.3006   17.7390 N   0  0  0  0  0  0  0  0  0  0  0  0
  -28.1943  -24.9501   19.3364 N   0  0  0  0  0  0  0  0  0  0  0  0
  -24.6662  -24.3565   19.8539 N   0  3  0  0  0  0  0  0  0  0  0  0
  -31.7858  -17.1245   27.4603 N   0  3  1  0  0  0  0  0  0  0  0  0
  -22.5056  -14.6762   21.0066 O   0  0  0  0  0  0  0  0  0  0  0  0
  -32.6526  -21.8566   19.4514 O   0  0  0  0  0  0  0  0  0  0  0  0
  -30.0956  -23.8283   17.5101 O   0  0  0  0  0  0  0  0  0  0  0  0
  -27.1218  -24.0812   21.1996 O   0  0  0  0  0  0  0  0  0  0  0  0
  -32.2332  -13.2815   21.0152 O   0  0  0  0  0  0  0  0  0  0  0  0
  -21.7286   -6.9537   21.5944 O   0  0  0  0  0  0  0  0  0  0  0  0
  -29.2978  -18.1617   23.7639 O   0  0  0  0  0  0  0  0  0  1  0  0
  -18.1724   -6.8351   25.8067 F   0  0  0  0  0  0  0  0  0  0  0  0
  -22.0060   -5.1073   23.6332 F   0  0  0  0  0  0  0  0  0  0  0  0
  -29.6702  -12.6189   25.2712 F   0  0  0  0  0  0  0  0  0  0  0  0
  1  2  1  0  0  0  0
  1  5  2  0  0  0  0
  2  6  2  0  0  0  0
  3 10  2  0  0  0  0
  3 17  1  0  0  0  0
  4 11  1  0  0  0  0
  4 17  2  0  0  0  0
  5 19  1  0  0  0  0
  6 21  1  0  0  0  0
  7 12  2  0  0  0  0
  7 20  1  0  0  0  0
  8  9  2  0  0  0  0
  8 23  1  0  0  0  0
  9 25  1  0  0  0  0
 10 26  1  0  0  0  0
 11 26  2  0  0  0  0
 12 27  1  0  0  0  0
 13 14  2  0  0  0  0
 13 28  1  0  0  0  0
 14 29  1  0  0  0  0
 15 22  1  0  0  0  0
 15 27  2  0  0  0  0
 16 29  2  0  0  0  0
 16 30  1  0  0  0  0
 17 32  1  0  0  0  0
 18 32  1  0  0  0  0
 18 33  2  0  0  0  0
 18 36  1  0  0  0  0
 19 21  2  0  0  0  0
 19 41  1  0  0  0  0
 20 22  2  0  0  0  0
 20 42  1  0  0  0  0
 21 50  1  0  0  0  0
 22 43  1  0  0  0  0
 23 24  2  0  0  0  0
 23 60  1  0  0  0  0
 24 31  1  0  0  0  0
 24 53  1  0  0  0  0
 25 31  2  0  0  0  0
 25 72  1  0  0  0  0
 26 82  1  0  0  0  0
 27 83  1  0  0  0  0
 28 30  2  0  0  0  0
 28 82  1  0  0  0  0
 29 84  1  0  0  0  0
 30 85  1  0  0  0  0
 31 86  1  0  0  0  0
 32 66  2  0  0  0  0
 33 67  1  0  0  0  0
 33 70  1  0  0  0  0
 34 35  2  0  0  0  0
 34 61  1  0  0  0  0
 35 76  1  0  0  0  0
 36 71  1  0  0  0  0
 36 77  2  0  0  0  0
 37 51  1  0  0  0  0
 37 73  1  0  0  0  0
 37 78  2  0  0  0  0
 38 63  1  0  0  0  0
 38 68  1  0  0  0  0
 38 79  2  0  0  0  0
 39 64  1  0  0  0  0
 39 74  1  0  0  0  0
 39 80  2  0  0  0  0
 40 69  1  0  0  0  0
 40 72  1  0  0  0  0
 40 81  2  0  0  0  0
 41 44  1  0  0  0  0
 42 51  1  0  0  0  0
 43 68  1  0  0  0  0
 44 46  1  0  0  0  0
 45 47  1  0  0  0  0
 45 48  1  0  0  0  0
 46 50  1  0  0  0  0
 47 52  1  0  0  0  0
 48 69  1  0  0  0  0
 49 52  1  0  0  0  0
 49 69  1  0  0  0  0
 50 73  1  0  0  0  0
 51 68  1  0  0  0  0
 52 67  1  0  0  0  0
 54 62  1  0  0  0  0
 55 64  1  0  0  0  0
 56 65  1  0  0  0  0
 57 65  1  0  0  0  0
 58 65  1  0  0  0  0
 59 75  1  0  0  0  0
 60 76  1  0  0  0  0
 61 83  1  0  0  0  0
 62 76  1  0  0  0  0
 63 65  1  0  0  0  0
 63 74  1  0  0  0  0
 64 75  1  0  0  0  0
 66 67  1  0  0  0  0
M  CHG  2  75   1  76   1
M  ISO  4  40 100  61 101  72 100  83 101
M  END
> <Batch ID>
0040

> <Smiles>
CCN(C=C[101CH2:1][101O:1]c1ccc2c(c1)CN(C(=O)C(NC(=O)C(C)NC)C(C)(C)C)C(C(=O)NC1CCCc3ccccc31)C2)Cc1ccc([100NH:0][100C:0](=O)N2CCCC(n3nc(-c4ccc(Oc5ccc(F)cc5F)cc4)c(C(N)=O)c3N)C2)c(F)c1C

> <Shape>
0.237

> <Color>
0.175

> <Negative vol penalty>
0.000

$$$$

  -OEChem-04042322063D

 85 93  0     1  0  0  0  0  0999 V2000
  -31.9621  -21.6900   21.7118 C   0  0  0  0  0  0  0  0  0  0  0  0
  -30.6229  -22.0434   21.8425 C   0  0  0  0  0  0  0  0  0  0  0  0
  -29.4942  -26.8392   18.6449 C   0  0  0  0  0  0  0  0  0  0  0  0
  -29.0396  -25.8425   20.7982 C   0  0  0  0  0  0  0  0  0  0  0  0
  -32.3215  -20.6096   20.9071 C   0  0  0  0  0  0  0  0  0  0  0  0
  -29.6423  -21.3170   21.1677 C   0  0  0  0  0  0  0  0  0  0  0  0
  -25.6495  -20.2569   24.0966 C   0  0  0  0  0  0  0  0  0  0  0  0
  -18.1752  -26.9039   21.4699 C   0  0  0  0  0  0  0  0  0  0  0  0
  -18.7535  -28.1624   21.6349 C   0  0  0  0  0  0  0  0  0  0  0  0
  -30.8001  -26.3515   18.6948 C   0  0  0  0  0  0  0  0  0  0  0  0
  -30.3455  -25.3547   20.8481 C   0  0  0  0  0  0  0  0  0  0  0  0
  -24.7299  -21.2818   24.3148 C   0  0  0  0  0  0  0  0  0  0  0  0
  -34.1449  -25.0625   18.0904 C   0  0  0  0  0  0  0  0  0  0  0  0
  -34.6577  -24.4629   16.9402 C   0  0  0  0  0  0  0  0  0  0  0  0
  -23.2823  -20.3326   22.6348 C   0  0  0  0  0  0  0  0  0  0  0  0
  -32.8966  -22.8106   17.0165 C   0  0  0  0  0  0  0  0  0  0  0  0
  -28.6140  -26.5847   19.6966 C   0  0  0  0  0  0  0  0  0  0  0  0
  -26.1358  -26.4425   19.1086 C   0  0  0  0  0  0  0  0  0  0  0  0
  -31.3440  -19.8637   20.2298 C   0  0  0  0  0  0  0  0  0  0  0  0
  -25.3969  -19.2665   23.1365 C   0  0  0  0  0  0  0  0  0  0  0  0
  -29.9891  -20.2264   20.3522 C   0  0  0  0  0  0  0  0  0  0  0  0
  -24.1991  -19.2947   22.4081 C   0  0  0  0  0  0  0  0  0  0  0  0
  -18.4270  -25.8935   22.3981 C   0  0  0  0  0  0  0  0  0  0  0  0
  -19.5838  -28.4106   22.7279 C   0  0  0  0  0  0  0  0  0  0  0  0
  -19.8358  -27.4002   23.6560 C   0  0  0  0  0  0  0  0  0  0  0  0
  -19.2574  -26.1416   23.4910 C   0  0  0  0  0  0  0  0  0  0  0  0
  -31.2257  -25.6093   19.7964 C   0  0  0  0  0  0  0  0  0  0  0  0
  -23.5474  -21.3214   23.5819 C   0  0  0  0  0  0  0  0  0  0  0  0
  -33.0081  -24.5361   18.7038 C   0  0  0  0  0  0  0  0  0  0  0  0
  -34.0335  -23.3369   16.4032 C   0  0  0  0  0  0  0  0  0  0  0  0
  -32.3839  -23.4102   18.1668 C   0  0  0  0  0  0  0  0  0  0  0  0
  -27.2651  -27.0888   19.6459 C   0  0  0  0  0  0  0  0  0  0  0  0
  -25.1066  -27.3309   19.3035 C   0  0  0  0  0  0  0  0  0  0  0  0
  -26.0267  -25.1542   18.4887 C   0  0  0  0  0  0  0  0  0  0  0  0
  -26.8213  -18.3271   20.4546 C   0  0  0  0  0  0  0  0  0  0  0  0
  -24.5939  -15.9711   20.5571 C   0  0  0  0  0  0  0  0  0  0  0  0
  -21.5402  -14.9170   21.6574 C   0  0  0  0  0  0  0  0  0  0  0  0
  -22.3466  -30.9487   22.5345 C   0  0  0  0  0  0  0  0  0  0  0  0
  -31.7848  -18.7333   19.3339 C   0  0  0  0  0  0  0  0  0  0  0  0
  -26.3868  -18.1527   22.9319 C   0  0  0  0  0  0  0  0  0  0  0  0
  -23.8712  -18.2440   21.3800 C   0  0  0  0  0  0  0  0  0  0  0  0
  -30.6531  -17.7834   18.9502 C   0  0  0  0  0  0  0  0  0  0  0  0
  -25.1708  -32.1780   20.7486 C   0  0  0  0  0  0  0  0  0  0  0  0
  -29.4209  -18.5697   18.5142 C   0  0  0  0  0  0  0  0  0  0  0  0
  -25.8771  -30.9106   20.2639 C   0  0  0  0  0  0  0  0  0  0  0  0
  -24.5594  -31.9882   22.1350 C   0  0  0  0  0  0  0  0  0  0  0  0
  -24.3683  -29.5573   21.7775 C   0  0  0  0  0  0  0  0  0  0  0  0
  -28.8942  -19.4477   19.6558 C   0  0  1  0  0  0  0  0  0  0  0  0
  -26.2611  -17.4851   21.5659 C   0  0  1  0  0  0  0  0  0  0  0  0
  -24.9528  -29.6820   20.3600 C   0  0  2  0  0  0  0  0  0  0  0  0
  -20.7278  -27.6677   24.8268 C   0  0  0  0  0  0  0  0  0  0  0  0
  -18.7793  -23.5265   21.6499 C   0  0  0  0  0  0  0  0  0  0  0  0
  -19.9754  -12.9582   21.5480 C   0  0  0  0  0  0  0  0  0  0  0  0
  -23.8158  -16.7547   17.7127 C   0  0  0  0  0  0  0  0  0  0  0  0
  -21.6936  -15.4603   18.0112 C   0  0  0  0  0  0  0  0  0  0  0  0
  -23.8934  -14.2903   18.1317 C   0  0  0  0  0  0  0  0  0  0  0  0
  -21.6342  -14.5300   24.5900 C   0  0  0  0  0  0  0  0  0  0  0  0
  -17.7948  -24.5549   22.1981 C   0  0  0  0  0  0  0  0  0  0  0  0
  -20.1921  -29.7665   22.8799 C   0  0  0  0  0  0  0  0  0  0  0  0
  -19.5255  -25.0534   24.4884 C   0  0  0  0  0  0  0  0  0  0  0  0
  -21.2011  -23.4220   25.3659 C   0  0  0  0  0  0  0  0  0  0  0  0
  -22.5917  -22.8778   25.1052 C   0  0  0  0  0  0  0  0  0  1  0  0
  -23.1891  -15.8043   20.0301 C   0  0  1  0  0  0  0  0  0  0  0  0
  -21.1002  -13.6259   22.3237 C   0  0  2  0  0  0  0  0  0  0  0  0
  -23.1547  -15.5984   18.4893 C   0  0  0  0  0  0  0  0  0  0  0  0
  -26.9805  -28.2947   20.1446 N   0  0  0  0  0  0  0  0  0  0  0  0
  -25.6606  -28.4133   19.9213 N   0  0  0  0  0  0  0  0  0  0  0  0
  -24.8736  -17.1789   21.2119 N   0  0  0  0  0  0  0  0  0  0  0  0
  -23.6925  -30.8076   22.1581 N   0  0  0  0  0  0  0  0  0  0  0  0
  -23.7909  -27.2841   19.0048 N   0  0  0  0  0  0  0  0  0  0  0  0
  -27.1824  -24.3704   18.3691 N   0  0  0  0  0  0  0  0  0  0  0  0
  -28.1565  -18.6475   20.6097 N   0  0  0  0  0  0  0  0  0  0  0  0
  -22.5942  -14.7119   20.7923 N   0  0  0  0  0  0  0  0  0  0  0  0
  -21.5933  -29.7812   22.5234 N   0  0  0  0  0  0  0  0  0  0  0  0
  -20.6206  -13.8951   23.7088 N   0  3  0  0  0  0  0  0  0  0  0  0
  -20.8838  -24.4611   24.3540 N   0  3  0  0  0  0  0  0  0  0  0  0
  -24.9399  -24.7182   18.0391 O   0  0  0  0  0  0  0  0  0  0  0  0
  -26.0962  -18.6601   19.5246 O   0  0  0  0  0  0  0  0  0  0  0  0
  -25.4108  -15.0603   20.4001 O   0  0  0  0  0  0  0  0  0  0  0  0
  -21.0003  -15.9986   21.8791 O   0  0  0  0  0  0  0  0  0  0  0  0
  -21.8516  -32.0357   22.8514 O   0  0  0  0  0  0  0  0  0  0  0  0
  -32.4998  -25.1330   19.8453 O   0  0  0  0  0  0  0  0  0  0  0  0
  -22.6484  -22.3211   23.7924 O   0  0  0  0  0  0  0  0  0  1  0  0
  -34.5251  -22.7622   15.2977 F   0  0  0  0  0  0  0  0  0  0  0  0
  -31.2908  -22.9007   18.7510 F   0  0  0  0  0  0  0  0  0  0  0  0
  1  2  1  0  0  0  0
  1  5  2  0  0  0  0
  2  6  2  0  0  0  0
  3 10  2  0  0  0  0
  3 17  1  0  0  0  0
  4 11  1  0  0  0  0
  4 17  2  0  0  0  0
  5 19  1  0  0  0  0
  6 21  1  0  0  0  0
  7 12  2  0  0  0  0
  7 20  1  0  0  0  0
  8  9  2  0  0  0  0
  8 23  1  0  0  0  0
  9 24  1  0  0  0  0
 10 27  1  0  0  0  0
 11 27  2  0  0  0  0
 12 28  1  0  0  0  0
 13 14  2  0  0  0  0
 13 29  1  0  0  0  0
 14 30  1  0  0  0  0
 15 22  1  0  0  0  0
 15 28  2  0  0  0  0
 16 30  2  0  0  0  0
 16 31  1  0  0  0  0
 17 32  1  0  0  0  0
 18 32  1  0  0  0  0
 18 33  2  0  0  0  0
 18 34  1  0  0  0  0
 19 21  2  0  0  0  0
 19 39  1  0  0  0  0
 20 22  2  0  0  0  0
 20 40  1  0  0  0  0
 21 48  1  0  0  0  0
 22 41  1  0  0  0  0
 23 26  2  0  0  0  0
 23 58  1  0  0  0  0
 24 25  2  0  0  0  0
 24 59  1  0  0  0  0
 25 26  1  0  0  0  0
 25 51  1  0  0  0  0
 26 60  1  0  0  0  0
 27 82  1  0  0  0  0
 28 83  1  0  0  0  0
 29 31  2  0  0  0  0
 29 82  1  0  0  0  0
 30 84  1  0  0  0  0
 31 85  1  0  0  0  0
 32 66  2  0  0  0  0
 33 67  1  0  0  0  0
 33 70  1  0  0  0  0
 34 71  1  0  0  0  0
 34 77  2  0  0  0  0
 35 49  1  0  0  0  0
 35 72  1  0  0  0  0
 35 78  2  0  0  0  0
 36 63  1  0  0  0  0
 36 68  1  0  0  0  0
 36 79  2  0  0  0  0
 37 64  1  0  0  0  0
 37 73  1  0  0  0  0
 37 80  2  0  0  0  0
 38 69  1  0  0  0  0
 38 74  1  0  0  0  0
 38 81  2  0  0  0  0
 39 42  1  0  0  0  0
 40 49  1  0  0  0  0
 41 68  1  0  0  0  0
 42 44  1  0  0  0  0
 43 45  1  0  0  0  0
 43 46  1  0  0  0  0
 44 48  1  0  0  0  0
 45 50  1  0  0  0  0
 46 69  1  0  0  0  0
 47 50  1  0  0  0  0
 47 69  1  0  0  0  0
 48 72  1  0  0  0  0
 49 68  1  0  0  0  0
 50 67  1  0  0  0  0
 52 58  1  0  0  0  0
 53 64  1  0  0  0  0
 54 65  1  0  0  0  0
 55 65  1  0  0  0  0
 56 65  1  0  0  0  0
 57 75  1  0  0  0  0
 59 74  1  0  0  0  0
 60 76  1  0  0  0  0
 61 62  1  0  0  0  0
 61 76  1  0  0  0  0
 62 83  1  0  0  0  0
 63 65  1  0  0  0  0
 63 73  1  0  0  0  0
 64 75  1  0  0  0  0
 66 67  1  0  0  0  0
M  CHG  2  75   1  76   1
M  ISO  4  38 100  62 101  74 100  83 101
M  END
> <Batch ID>
0040

> <Smiles>
CCc1ccc(C[100NH:0][100C:0](=O)N2CCCC(n3nc(-c4ccc(Oc5ccc(F)cc5F)cc4)c(C(N)=O)c3N)C2)c(C)c1CNC[101CH2:1][101O:1]c1ccc2c(c1)CN(C(=O)C(NC(=O)C(C)NC)C(C)(C)C)C(C(=O)NC1CCCc3ccccc31)C2

> <Shape>
0.212

> <Color>
0.066

> <Negative vol penalty>
0.000

$$$$

  -OEChem-04042322063D

 89 98  0     1  0  0  0  0  0999 V2000
  -23.4681  -36.6157   20.8752 C   0  0  0  0  0  0  0  0  0  0  0  0
  -24.1810  -35.4782   20.5103 C   0  0  0  0  0  0  0  0  0  0  0  0
  -24.2644   -9.1908   21.1981 C   0  0  0  0  0  0  0  0  0  0  0  0
  -25.3568  -10.0541   23.1725 C   0  0  0  0  0  0  0  0  0  0  0  0
  -23.6946  -37.2109   22.1155 C   0  0  0  0  0  0  0  0  0  0  0  0
  -25.1217  -34.9357   21.3852 C   0  0  0  0  0  0  0  0  0  0  0  0
  -24.7707  -29.8959   21.7342 C   0  0  0  0  0  0  0  0  0  0  0  0
  -24.0821   -7.9636   21.8354 C   0  0  0  0  0  0  0  0  0  0  0  0
  -25.1745   -8.8269   23.8099 C   0  0  0  0  0  0  0  0  0  0  0  0
  -25.3169  -29.1460   20.6935 C   0  0  0  0  0  0  0  0  0  0  0  0
  -21.9810   -6.6347   24.1273 C   0  0  0  0  0  0  0  0  0  0  0  0
  -20.7303   -6.0271   24.0182 C   0  0  0  0  0  0  0  0  0  0  0  0
  -27.2811  -28.7316   22.0311 C   0  0  0  0  0  0  0  0  0  0  0  0
  -27.6904  -21.5402   21.4210 C   0  0  0  0  0  0  0  0  0  0  0  0
  -21.7538   -4.1098   22.9629 C   0  0  0  0  0  0  0  0  0  0  0  0
  -24.9018  -10.2361   21.8665 C   0  0  0  0  0  0  0  0  0  0  0  0
  -24.0913  -12.3564   20.7024 C   0  0  0  0  0  0  0  0  0  0  0  0
  -24.6315  -36.6699   23.0100 C   0  0  0  0  0  0  0  0  0  0  0  0
  -25.4815  -30.0787   22.9291 C   0  0  0  0  0  0  0  0  0  0  0  0
  -25.3618  -35.5250   22.6381 C   0  0  0  0  0  0  0  0  0  0  0  0
  -26.7407  -29.4821   23.0864 C   0  0  0  0  0  0  0  0  0  0  0  0
  -26.7110  -21.9932   20.5372 C   0  0  0  0  0  0  0  0  0  0  0  0
  -26.0227  -21.0845   19.7334 C   0  0  0  0  0  0  0  0  0  0  0  0
  -26.3138  -19.7226   19.8135 C   0  0  0  0  0  0  0  0  0  0  0  0
  -27.2932  -19.2696   20.6973 C   0  0  0  0  0  0  0  0  0  0  0  0
  -24.5372   -7.7816   23.1414 C   0  0  0  0  0  0  0  0  0  0  0  0
  -26.5735  -28.5661   20.8407 C   0  0  0  0  0  0  0  0  0  0  0  0
  -23.1182   -5.9800   23.6541 C   0  0  0  0  0  0  0  0  0  0  0  0
  -20.6166   -4.7646   23.4361 C   0  0  0  0  0  0  0  0  0  0  0  0
  -23.0046   -4.7175   23.0720 C   0  0  0  0  0  0  0  0  0  0  0  0
  -27.9815  -20.1783   21.5010 C   0  0  0  0  0  0  0  0  0  0  0  0
  -25.0908  -11.5039   21.2084 C   0  0  0  0  0  0  0  0  0  0  0  0
  -24.7818  -13.4222   20.1792 C   0  0  0  0  0  0  0  0  0  0  0  0
  -26.6378  -25.5275   19.2118 C   0  0  0  0  0  0  0  0  0  0  0  0
  -25.6596  -25.8953   18.3679 C   0  0  0  0  0  0  0  0  0  0  0  0
  -22.6662  -12.1989   20.7051 C   0  0  0  0  0  0  0  0  0  0  0  0
  -26.6547  -32.5937   24.4789 C   0  0  0  0  0  0  0  0  0  0  0  0
  -27.3305  -30.3845   26.7560 C   0  0  0  0  0  0  0  0  0  0  0  0
  -28.6066  -27.0113   26.8559 C   0  0  0  0  0  0  0  0  0  0  0  0
  -28.8017  -17.2602   20.5158 C   0  0  0  0  0  0  0  0  0  0  0  0
  -24.8758  -37.3757   24.3202 C   0  0  0  0  0  0  0  0  0  0  0  0
  -24.8669  -30.8681   24.0523 C   0  0  0  0  0  0  0  0  0  0  0  0
  -27.5357  -29.6314   24.3569 C   0  0  0  0  0  0  0  0  0  0  0  0
  -25.6205  -36.5213   25.3428 C   0  0  0  0  0  0  0  0  0  0  0  0
  -29.7318  -14.0383   19.3192 C   0  0  0  0  0  0  0  0  0  0  0  0
  -29.2836  -24.7784   20.0228 C   0  0  0  0  0  0  0  0  0  0  0  0
  -26.8187  -35.8354   24.6940 C   0  0  0  0  0  0  0  0  0  0  0  0
  -28.9164  -26.2544   19.9176 C   0  0  0  0  0  0  0  0  0  0  0  0
  -28.5251  -13.1619   19.6624 C   0  0  0  0  0  0  0  0  0  0  0  0
  -29.9979  -15.0852   20.3995 C   0  0  0  0  0  0  0  0  0  0  0  0
  -27.6356  -15.0426   21.0973 C   0  0  0  0  0  0  0  0  0  0  0  0
  -28.4662  -23.9305   19.0538 C   0  0  0  0  0  0  0  0  0  0  0  0
  -26.3727  -34.8926   23.5699 C   0  0  1  0  0  0  0  0  0  0  0  0
  -27.4152  -26.4710   20.1019 C   0  0  1  0  0  0  0  0  0  1  0  0
  -25.8998  -31.4178   25.0312 C   0  0  1  0  0  0  0  0  0  0  0  0
  -27.2887  -14.0151   20.0075 C   0  0  2  0  0  0  0  0  0  0  0  0
  -24.9732  -21.5737   18.7859 C   0  0  0  0  0  0  0  0  0  0  0  0
  -25.5710  -18.7525   18.9479 C   0  0  0  0  0  0  0  0  0  0  0  0
  -24.9101  -24.9438   17.5025 C   0  0  0  0  0  0  0  0  0  0  0  0
  -28.2595  -25.1849   28.5415 C   0  0  0  0  0  0  0  0  0  0  0  0
  -29.9185  -31.4283   27.9900 C   0  0  0  0  0  0  0  0  0  0  0  0
  -30.5630  -29.0575   28.4721 C   0  0  0  0  0  0  0  0  0  0  0  0
  -28.5210  -30.0314   29.5230 C   0  0  0  0  0  0  0  0  0  0  0  0
  -27.6346  -25.1294   24.7889 C   0  0  0  0  0  0  0  0  0  0  0  0
  -26.4170  -23.4630   20.4714 C   0  0  0  0  0  0  0  0  0  0  0  0
  -28.5029  -29.4819   27.0553 C   0  0  1  0  0  0  0  0  0  0  0  0
  -27.8272  -25.7546   27.1994 C   0  0  2  0  0  0  0  0  0  0  0  0
  -29.3703  -30.0080   28.2336 C   0  0  0  0  0  0  0  0  0  0  0  0
  -26.3224  -11.9864   21.0233 N   0  0  0  0  0  0  0  0  0  0  0  0
  -26.1014  -13.1537   20.3950 N   0  0  0  0  0  0  0  0  0  0  0  0
  -26.8948  -30.4178   25.4238 N   0  0  0  0  0  0  0  0  0  0  0  0
  -28.7837  -15.8579   20.6707 N   0  0  0  0  0  0  0  0  0  0  0  0
  -24.3827  -14.5536   19.5602 N   0  0  0  0  0  0  0  0  0  0  0  0
  -21.9408  -12.6997   21.7948 N   0  0  0  0  0  0  0  0  0  0  0  0
  -27.5807  -17.8840   20.7700 N   0  0  0  0  0  0  0  0  0  0  0  0
  -25.8519  -33.6599   24.1210 N   0  0  0  0  0  0  0  0  0  0  0  0
  -27.9481  -28.1498   27.2700 N   0  0  0  0  0  0  0  0  0  0  0  0
  -26.9789  -24.1219   19.2417 N   0  3  1  0  0  0  0  0  0  0  0  0
  -28.0395  -24.7120   26.1559 N   0  3  0  0  0  0  0  0  0  0  0  0
  -22.0559  -11.6165   19.7768 O   0  0  0  0  0  0  0  0  0  0  0  0
  -27.8754  -32.5383   24.3858 O   0  0  0  0  0  0  0  0  0  0  0  0
  -26.8155  -31.0307   27.6719 O   0  0  0  0  0  0  0  0  0  0  0  0
  -29.6927  -26.9853   26.2813 O   0  0  0  0  0  0  0  0  0  0  0  0
  -29.8177  -17.8603   20.1559 O   0  0  0  0  0  0  0  0  0  0  0  0
  -24.3593   -6.5843   23.7638 O   0  0  0  0  0  0  0  0  0  0  0  0
  -27.1093  -27.8342   19.8263 O   0  0  0  0  0  0  0  0  0  1  0  0
  -19.4157   -4.1805   23.3328 F   0  0  0  0  0  0  0  0  0  0  0  0
  -24.0936   -4.0831   22.6166 F   0  0  0  0  0  0  0  0  0  0  0  0
  -29.2028  -19.6635   22.6105 Cl  0  0  0  0  0  0  0  0  0  0  0  0
  1  2  1  0  0  0  0
  1  5  2  0  0  0  0
  2  6  2  0  0  0  0
  3  8  2  0  0  0  0
  3 16  1  0  0  0  0
  4  9  1  0  0  0  0
  4 16  2  0  0  0  0
  5 18  1  0  0  0  0
  6 20  1  0  0  0  0
  7 10  2  0  0  0  0
  7 19  1  0  0  0  0
  8 26  1  0  0  0  0
  9 26  2  0  0  0  0
 10 27  1  0  0  0  0
 11 12  2  0  0  0  0
 11 28  1  0  0  0  0
 12 29  1  0  0  0  0
 13 21  1  0  0  0  0
 13 27  2  0  0  0  0
 14 22  1  0  0  0  0
 14 31  2  0  0  0  0
 15 29  2  0  0  0  0
 15 30  1  0  0  0  0
 16 32  1  0  0  0  0
 17 32  1  0  0  0  0
 17 33  2  0  0  0  0
 17 36  1  0  0  0  0
 18 20  2  0  0  0  0
 18 41  1  0  0  0  0
 19 21  2  0  0  0  0
 19 42  1  0  0  0  0
 20 53  1  0  0  0  0
 21 43  1  0  0  0  0
 22 23  2  0  0  0  0
 22 65  1  0  0  0  0
 23 24  1  0  0  0  0
 23 57  1  0  0  0  0
 24 25  2  0  0  0  0
 24 58  1  0  0  0  0
 25 31  1  0  0  0  0
 25 75  1  0  0  0  0
 26 85  1  0  0  0  0
 27 86  1  0  0  0  0
 28 30  2  0  0  0  0
 28 85  1  0  0  0  0
 29 87  1  0  0  0  0
 30 88  1  0  0  0  0
 31 89  1  0  0  0  0
 32 69  2  0  0  0  0
 33 70  1  0  0  0  0
 33 73  1  0  0  0  0
 34 35  2  0  0  0  0
 34 54  1  0  0  0  0
 34 78  1  0  0  0  0
 35 59  1  0  0  0  0
 36 74  1  0  0  0  0
 36 80  2  0  0  0  0
 37 55  1  0  0  0  0
 37 76  1  0  0  0  0
 37 81  2  0  0  0  0
 38 66  1  0  0  0  0
 38 71  1  0  0  0  0
 38 82  2  0  0  0  0
 39 67  1  0  0  0  0
 39 77  1  0  0  0  0
 39 83  2  0  0  0  0
 40 72  1  0  0  0  0
 40 75  1  0  0  0  0
 40 84  2  0  0  0  0
 41 44  1  0  0  0  0
 42 55  1  0  0  0  0
 43 71  1  0  0  0  0
 44 47  1  0  0  0  0
 45 49  1  0  0  0  0
 45 50  1  0  0  0  0
 46 48  1  0  0  0  0
 46 52  1  0  0  0  0
 47 53  1  0  0  0  0
 48 54  1  0  0  0  0
 49 56  1  0  0  0  0
 50 72  1  0  0  0  0
 51 56  1  0  0  0  0
 51 72  1  0  0  0  0
 52 78  1  0  0  0  0
 53 76  1  0  0  0  0
 54 86  1  0  0  0  0
 55 71  1  0  0  0  0
 56 70  1  0  0  0  0
 60 67  1  0  0  0  0
 61 68  1  0  0  0  0
 62 68  1  0  0  0  0
 63 68  1  0  0  0  0
 64 79  1  0  0  0  0
 65 78  1  0  0  0  0
 66 68  1  0  0  0  0
 66 77  1  0  0  0  0
 67 79  1  0  0  0  0
 69 70  1  0  0  0  0
M  CHG  2  78   1  79   1
M  ISO  4  40 100  54 101  75 100  86 101
M  END
> <Batch ID>
0040

> <Smiles>
CC=C1N(Cc2cc(Cl)c([100NH:0][100C:0](=O)N3CCCC(n4nc(-c5ccc(Oc6ccc(F)cc6F)cc5)c(C(N)=O)c4N)C3)c(C)c2C)CCC[101CH:1]1[101O:1]c1ccc2c(c1)CN(C(=O)C(NC(=O)C(C)NC)C(C)(C)C)C(C(=O)NC1CCCc3ccccc31)C2

> <Shape>
0.310

> <Color>
0.103

> <Negative vol penalty>
0.000

$$$$

  -OEChem-04042322063D

 90 99  0     1  0  0  0  0  0999 V2000
  -22.4192  -31.6538   23.6146 C   0  0  0  0  0  0  0  0  0  0  0  0
  -21.8025  -30.8321   22.6765 C   0  0  0  0  0  0  0  0  0  0  0  0
  -23.0106  -12.6879   22.3734 C   0  0  0  0  0  0  0  0  0  0  0  0
  -23.7873  -10.4046   22.5157 C   0  0  0  0  0  0  0  0  0  0  0  0
  -23.7648  -31.9885   23.4688 C   0  0  0  0  0  0  0  0  0  0  0  0
  -22.5308  -30.3455   21.5915 C   0  0  0  0  0  0  0  0  0  0  0  0
  -23.2206  -23.2642   20.4642 C   0  0  0  0  0  0  0  0  0  0  0  0
  -22.2076  -12.4847   23.4957 C   0  0  0  0  0  0  0  0  0  0  0  0
  -22.9844  -10.2013   23.6380 C   0  0  0  0  0  0  0  0  0  0  0  0
  -23.2223  -21.9285   20.0617 C   0  0  0  0  0  0  0  0  0  0  0  0
  -22.6033  -12.3543   26.8512 C   0  0  0  0  0  0  0  0  0  0  0  0
  -22.6076  -13.3398   27.8383 C   0  0  0  0  0  0  0  0  0  0  0  0
  -24.6490  -22.4834   18.1896 C   0  0  0  0  0  0  0  0  0  0  0  0
  -31.0139  -17.5212   22.3169 C   0  0  0  0  0  0  0  0  0  0  0  0
  -20.2331  -13.6604   27.5284 C   0  0  0  0  0  0  0  0  0  0  0  0
  -23.8004  -11.6478   21.8833 C   0  0  0  0  0  0  0  0  0  0  0  0
  -24.2079  -12.2260   19.4324 C   0  0  0  0  0  0  0  0  0  0  0  0
  -24.5125  -31.4980   22.3867 C   0  0  0  0  0  0  0  0  0  0  0  0
  -23.9466  -24.2131   19.7389 C   0  0  0  0  0  0  0  0  0  0  0  0
  -23.8873  -30.6751   21.4305 C   0  0  0  0  0  0  0  0  0  0  0  0
  -24.6612  -23.8206   18.5952 C   0  0  0  0  0  0  0  0  0  0  0  0
  -30.3104  -18.6569   22.7181 C   0  0  0  0  0  0  0  0  0  0  0  0
  -30.6637  -16.8644   21.1372 C   0  0  0  0  0  0  0  0  0  0  0  0
  -29.2567  -19.1358   21.9396 C   0  0  0  0  0  0  0  0  0  0  0  0
  -29.6100  -17.3433   20.3587 C   0  0  0  0  0  0  0  0  0  0  0  0
  -28.9065  -18.4790   20.7599 C   0  0  0  0  0  0  0  0  0  0  0  0
  -22.1945  -11.2414   24.1280 C   0  0  0  0  0  0  0  0  0  0  0  0
  -23.9345  -21.5392   18.9270 C   0  0  0  0  0  0  0  0  0  0  0  0
  -21.4140  -12.0220   26.2025 C   0  0  0  0  0  0  0  0  0  0  0  0
  -21.4225  -13.9928   28.1770 C   0  0  0  0  0  0  0  0  0  0  0  0
  -20.2289  -12.6750   26.5412 C   0  0  0  0  0  0  0  0  0  0  0  0
  -24.6297  -11.8569   20.7237 C   0  0  0  0  0  0  0  0  0  0  0  0
  -25.3671  -12.2942   18.6989 C   0  0  0  0  0  0  0  0  0  0  0  0
  -25.6341  -18.5377   18.8922 C   0  0  0  0  0  0  0  0  0  0  0  0
  -25.7970  -18.3315   17.5722 C   0  0  0  0  0  0  0  0  0  0  0  0
  -22.8863  -12.4842   18.9399 C   0  0  0  0  0  0  0  0  0  0  0  0
  -25.0008  -27.7975   19.3977 C   0  0  0  0  0  0  0  0  0  0  0  0
  -27.4523  -26.0799   18.7266 C   0  0  0  0  0  0  0  0  0  0  0  0
  -29.8078  -24.0130   19.0141 C   0  0  0  0  0  0  0  0  0  0  0  0
  -31.0859  -13.2534   20.1911 C   0  0  0  0  0  0  0  0  0  0  0  0
  -25.9519  -31.9256   22.2458 C   0  0  0  0  0  0  0  0  0  0  0  0
  -23.9233  -25.6734   20.1005 C   0  0  0  0  0  0  0  0  0  0  0  0
  -25.3996  -24.8818   17.8260 C   0  0  0  0  0  0  0  0  0  0  0  0
  -26.7505  -31.0643   21.2708 C   0  0  0  0  0  0  0  0  0  0  0  0
  -23.5989  -17.4047   21.0171 C   0  0  0  0  0  0  0  0  0  0  0  0
  -29.7675  -10.4301   18.4686 C   0  0  0  0  0  0  0  0  0  0  0  0
  -24.9070  -16.6148   20.9522 C   0  0  0  0  0  0  0  0  0  0  0  0
  -25.9646  -30.8492   19.9813 C   0  0  0  0  0  0  0  0  0  0  0  0
  -23.3185  -18.3156   19.8241 C   0  0  0  0  0  0  0  0  0  0  0  0
  -28.2632  -10.5089   18.7347 C   0  0  0  0  0  0  0  0  0  0  0  0
  -30.5794  -10.8830   19.6800 C   0  0  0  0  0  0  0  0  0  0  0  0
  -28.7191  -12.2950   20.4670 C   0  0  0  0  0  0  0  0  0  0  0  0
  -26.1457  -17.4981   21.0838 C   0  0  0  0  0  0  0  0  0  0  0  0
  -24.6504  -30.1074   20.2533 C   0  0  1  0  0  0  0  0  0  0  0  0
  -24.4535  -19.2809   19.4752 C   0  0  2  0  0  0  0  0  0  1  0  0
  -25.2613  -26.3839   19.8282 C   0  0  1  0  0  0  0  0  0  0  0  0
  -27.8579  -11.9013   19.2547 C   0  0  2  0  0  0  0  0  0  0  0  0
  -30.7053  -19.3412   23.9858 C   0  0  0  0  0  0  0  0  0  0  0  0
  -28.5040  -20.3542   22.3721 C   0  0  0  0  0  0  0  0  0  0  0  0
  -29.2361  -16.6365   19.0943 C   0  0  0  0  0  0  0  0  0  0  0  0
  -32.1206  -23.1525   18.5582 C   0  0  0  0  0  0  0  0  0  0  0  0
  -26.9215  -26.5213   15.7555 C   0  0  0  0  0  0  0  0  0  0  0  0
  -29.1422  -25.4696   15.2751 C   0  0  0  0  0  0  0  0  0  0  0  0
  -29.0234  -27.5749   16.6079 C   0  0  0  0  0  0  0  0  0  0  0  0
  -30.5081  -24.0347   21.8895 C   0  0  0  0  0  0  0  0  0  0  0  0
  -31.4336  -15.6510   20.7296 C   0  0  0  0  0  0  0  0  0  0  0  0
  -27.7735  -18.9945   19.9223 C   0  0  0  0  0  0  0  0  0  0  0  0
  -28.2661  -25.4013   17.6539 C   0  0  1  0  0  0  0  0  0  0  0  0
  -31.2437  -23.9585   19.5038 C   0  0  2  0  0  0  0  0  0  0  0  0
  -28.3185  -26.2277   16.3379 C   0  0  0  0  0  0  0  0  0  0  0  0
  -25.9535  -11.7013   20.8090 N   0  0  0  0  0  0  0  0  0  0  0  0
  -26.3736  -11.9739   19.5618 N   0  0  0  0  0  0  0  0  0  0  0  0
  -26.0820  -25.7940   18.7570 N   0  0  0  0  0  0  0  0  0  0  0  0
  -30.1470  -12.2110   20.1223 N   0  0  0  0  0  0  0  0  0  0  0  0
  -25.6135  -12.5961   17.4064 N   0  0  0  0  0  0  0  0  0  0  0  0
  -22.3908  -13.7933   19.0108 N   0  0  0  0  0  0  0  0  0  0  0  0
  -24.8976  -28.6943   20.4439 N   0  0  0  0  0  0  0  0  0  0  0  0
  -29.5734  -25.1315   18.2425 N   0  0  0  0  0  0  0  0  0  0  0  0
  -30.5915  -14.4813   20.6138 N   0  0  0  0  0  0  0  0  0  0  0  0
  -26.6603  -17.9909   19.7517 N   0  3  2  0  0  0  0  0  0  0  0  0
  -31.3071  -23.3305   20.8538 N   0  3  0  0  0  0  0  0  0  0  0  0
  -22.1600  -11.5777   18.4664 O   0  0  0  0  0  0  0  0  0  0  0  0
  -24.9021  -28.0571   18.2041 O   0  0  0  0  0  0  0  0  0  0  0  0
  -28.0128  -26.8475   19.5139 O   0  0  0  0  0  0  0  0  0  0  0  0
  -28.9782  -23.1478   19.2856 O   0  0  0  0  0  0  0  0  0  0  0  0
  -32.2754  -13.1025   19.8926 O   0  0  0  0  0  0  0  0  0  0  0  0
  -21.4112  -11.0429   25.2233 O   0  0  0  0  0  0  0  0  0  0  0  0
  -23.9355  -20.2328   18.5422 O   0  0  0  0  0  0  0  0  0  1  0  0
  -21.4265  -14.9380   29.1260 F   0  0  0  0  0  0  0  0  0  0  0  0
  -19.0829  -12.3592   25.9224 F   0  0  0  0  0  0  0  0  0  0  0  0
  1  2  1  0  0  0  0
  1  5  2  0  0  0  0
  2  6  2  0  0  0  0
  3  8  2  0  0  0  0
  3 16  1  0  0  0  0
  4  9  1  0  0  0  0
  4 16  2  0  0  0  0
  5 18  1  0  0  0  0
  6 20  1  0  0  0  0
  7 10  2  0  0  0  0
  7 19  1  0  0  0  0
  8 27  1  0  0  0  0
  9 27  2  0  0  0  0
 10 28  1  0  0  0  0
 11 12  2  0  0  0  0
 11 29  1  0  0  0  0
 12 30  1  0  0  0  0
 13 21  1  0  0  0  0
 13 28  2  0  0  0  0
 14 22  1  0  0  0  0
 14 23  2  0  0  0  0
 15 30  2  0  0  0  0
 15 31  1  0  0  0  0
 16 32  1  0  0  0  0
 17 32  1  0  0  0  0
 17 33  2  0  0  0  0
 17 36  1  0  0  0  0
 18 20  2  0  0  0  0
 18 41  1  0  0  0  0
 19 21  2  0  0  0  0
 19 42  1  0  0  0  0
 20 54  1  0  0  0  0
 21 43  1  0  0  0  0
 22 24  2  0  0  0  0
 22 58  1  0  0  0  0
 23 25  1  0  0  0  0
 23 66  1  0  0  0  0
 24 26  1  0  0  0  0
 24 59  1  0  0  0  0
 25 26  2  0  0  0  0
 25 60  1  0  0  0  0
 26 67  1  0  0  0  0
 27 87  1  0  0  0  0
 28 88  1  0  0  0  0
 29 31  2  0  0  0  0
 29 87  1  0  0  0  0
 30 89  1  0  0  0  0
 31 90  1  0  0  0  0
 32 71  2  0  0  0  0
 33 72  1  0  0  0  0
 33 75  1  0  0  0  0
 34 35  2  0  0  0  0
 34 55  1  0  0  0  0
 34 80  1  0  0  0  0
 36 76  1  0  0  0  0
 36 82  2  0  0  0  0
 37 56  1  0  0  0  0
 37 77  1  0  0  0  0
 37 83  2  0  0  0  0
 38 68  1  0  0  0  0
 38 73  1  0  0  0  0
 38 84  2  0  0  0  0
 39 69  1  0  0  0  0
 39 78  1  0  0  0  0
 39 85  2  0  0  0  0
 40 74  1  0  0  0  0
 40 79  1  0  0  0  0
 40 86  2  0  0  0  0
 41 44  1  0  0  0  0
 42 56  1  0  0  0  0
 43 73  1  0  0  0  0
 44 48  1  0  0  0  0
 45 47  1  0  0  0  0
 45 49  1  0  0  0  0
 46 50  1  0  0  0  0
 46 51  1  0  0  0  0
 47 53  1  0  0  0  0
 48 54  1  0  0  0  0
 49 55  1  0  0  0  0
 50 57  1  0  0  0  0
 51 74  1  0  0  0  0
 52 57  1  0  0  0  0
 52 74  1  0  0  0  0
 53 80  1  0  0  0  0
 54 77  1  0  0  0  0
 55 88  1  0  0  0  0
 56 73  1  0  0  0  0
 57 72  1  0  0  0  0
 61 69  1  0  0  0  0
 62 70  1  0  0  0  0
 63 70  1  0  0  0  0
 64 70  1  0  0  0  0
 65 81  1  0  0  0  0
 66 79  1  0  0  0  0
 67 80  1  0  0  0  0
 68 70  1  0  0  0  0
 68 78  1  0  0  0  0
 69 81  1  0  0  0  0
 71 72  1  0  0  0  0
M  CHG  2  80   1  81   1
M  ISO  4  40 100  55 101  79 100  88 101
M  END
> <Batch ID>
0040

> <Smiles>
C=C1N(Cc2c(C)c(C)cc(C[100NH:0][100C:0](=O)N3CCCC(n4nc(-c5ccc(Oc6ccc(F)cc6F)cc5)c(C(N)=O)c4N)C3)c2C)CCCC[101CH:1]1[101O:1]c1ccc2c(c1)CN(C(=O)C(NC(=O)C(C)NC)C(C)(C)C)C(C(=O)NC1CCCc3ccccc31)C2

> <Shape>
0.241

> <Color>
0.061

> <Negative vol penalty>
0.000

$$$$

  -OEChem-04042322063D

 84 92  0     1  0  0  0  0  0999 V2000
  -40.5777  -26.0856   20.2327 C   0  0  0  0  0  0  0  0  0  0  0  0
  -40.0637  -25.4419   21.3539 C   0  0  0  0  0  0  0  0  0  0  0  0
  -23.1915   -9.7957   19.9664 C   0  0  0  0  0  0  0  0  0  0  0  0
  -23.6002  -10.0300   22.3360 C   0  0  0  0  0  0  0  0  0  0  0  0
  -39.7133  -26.6768   19.3123 C   0  0  0  0  0  0  0  0  0  0  0  0
  -38.6850  -25.3901   21.5558 C   0  0  0  0  0  0  0  0  0  0  0  0
  -35.5043  -20.8077   24.0839 C   0  0  0  0  0  0  0  0  0  0  0  0
  -22.4360   -8.6488   20.2100 C   0  0  0  0  0  0  0  0  0  0  0  0
  -22.8446   -8.8831   22.5797 C   0  0  0  0  0  0  0  0  0  0  0  0
  -35.0053  -20.6104   25.3707 C   0  0  0  0  0  0  0  0  0  0  0  0
  -23.2651   -5.5342   22.3824 C   0  0  0  0  0  0  0  0  0  0  0  0
  -23.7817   -4.5954   23.2753 C   0  0  0  0  0  0  0  0  0  0  0  0
  -32.8631  -21.4658   24.6648 C   0  0  0  0  0  0  0  0  0  0  0  0
  -31.5361  -14.0368   26.1716 C   0  0  0  0  0  0  0  0  0  0  0  0
  -31.6261  -14.9285   23.5298 C   0  0  0  0  0  0  0  0  0  0  0  0
  -21.8421   -4.8726   24.6889 C   0  0  0  0  0  0  0  0  0  0  0  0
  -23.7737  -10.4863   21.0294 C   0  0  0  0  0  0  0  0  0  0  0  0
  -24.0918  -12.9992   20.7269 C   0  0  0  0  0  0  0  0  0  0  0  0
  -38.3228  -26.6238   19.4981 C   0  0  0  0  0  0  0  0  0  0  0  0
  -34.6881  -21.3467   23.0789 C   0  0  0  0  0  0  0  0  0  0  0  0
  -37.8012  -25.9823   20.6377 C   0  0  0  0  0  0  0  0  0  0  0  0
  -33.3533  -21.6667   23.3654 C   0  0  0  0  0  0  0  0  0  0  0  0
  -32.0724  -15.2901   25.8765 C   0  0  0  0  0  0  0  0  0  0  0  0
  -31.0449  -13.2293   25.1458 C   0  0  0  0  0  0  0  0  0  0  0  0
  -32.1174  -15.7360   24.5556 C   0  0  0  0  0  0  0  0  0  0  0  0
  -31.0899  -13.6751   23.8249 C   0  0  0  0  0  0  0  0  0  0  0  0
  -22.2625   -8.1925   21.5167 C   0  0  0  0  0  0  0  0  0  0  0  0
  -33.6855  -20.9421   25.6621 C   0  0  0  0  0  0  0  0  0  0  0  0
  -22.0370   -6.1423   22.6427 C   0  0  0  0  0  0  0  0  0  0  0  0
  -23.0702   -4.2646   24.4286 C   0  0  0  0  0  0  0  0  0  0  0  0
  -21.3255   -5.8114   23.7960 C   0  0  0  0  0  0  0  0  0  0  0  0
  -24.5547  -11.6707   20.7782 C   0  0  0  0  0  0  0  0  0  0  0  0
  -25.2147  -13.7440   20.4605 C   0  0  0  0  0  0  0  0  0  0  0  0
  -22.7655  -13.5140   20.9043 C   0  0  0  0  0  0  0  0  0  0  0  0
  -34.7692  -23.9745   21.2924 C   0  0  0  0  0  0  0  0  0  0  0  0
  -32.2291  -22.5873   19.8275 C   0  0  0  0  0  0  0  0  0  0  0  0
  -29.6240  -20.3903   20.0097 C   0  0  0  0  0  0  0  0  0  0  0  0
  -31.0389  -12.8444   21.4471 C   0  0  0  0  0  0  0  0  0  0  0  0
  -37.4301  -27.3184   18.5004 C   0  0  0  0  0  0  0  0  0  0  0  0
  -35.2336  -21.5285   21.6891 C   0  0  0  0  0  0  0  0  0  0  0  0
  -32.4301  -22.2293   22.3168 C   0  0  0  0  0  0  0  0  0  0  0  0
  -35.9667  -26.8943   18.5938 C   0  0  0  0  0  0  0  0  0  0  0  0
  -29.4801  -13.4478   18.3034 C   0  0  0  0  0  0  0  0  0  0  0  0
  -35.5042  -26.8886   20.0474 C   0  0  0  0  0  0  0  0  0  0  0  0
  -27.9972  -13.1874   18.5782 C   0  0  0  0  0  0  0  0  0  0  0  0
  -30.3780  -12.4854   19.0787 C   0  0  0  0  0  0  0  0  0  0  0  0
  -28.6432  -12.1690   20.7991 C   0  0  0  0  0  0  0  0  0  0  0  0
  -36.3105  -25.8835   20.8788 C   0  0  1  0  0  0  0  0  0  0  0  0
  -34.4631  -22.5638   20.8755 C   0  0  1  0  0  0  0  0  0  0  0  0
  -27.7013  -13.1560   20.0904 C   0  0  2  0  0  0  0  0  0  0  0  0
  -30.4759  -11.8913   25.4910 C   0  0  0  0  0  0  0  0  0  0  0  0
  -32.6872  -17.0740   24.2157 C   0  0  0  0  0  0  0  0  0  0  0  0
  -27.6999  -19.5004   18.6667 C   0  0  0  0  0  0  0  0  0  0  0  0
  -30.6889  -25.1739   20.3247 C   0  0  0  0  0  0  0  0  0  0  0  0
  -28.5728  -23.9234   19.8488 C   0  0  0  0  0  0  0  0  0  0  0  0
  -30.3110  -24.1509   18.0741 C   0  0  0  0  0  0  0  0  0  0  0  0
  -30.6772  -17.6265   20.1161 C   0  0  0  0  0  0  0  0  0  0  0  0
  -32.5950  -16.1409   26.9963 C   0  0  0  0  0  0  0  0  0  0  0  0
  -31.5831  -19.6058   28.2738 C   0  0  0  0  0  0  0  0  0  0  0  0
  -32.3430  -18.2881   28.2472 C   0  0  0  0  0  0  0  0  0  0  0  0
  -31.8030  -20.4655   27.0350 C   0  0  0  0  0  0  0  0  0  1  0  0
  -30.7337  -22.6090   20.0326 C   0  0  1  0  0  0  0  0  0  0  0  0
  -29.1555  -19.3024   19.0603 C   0  0  2  0  0  0  0  0  0  0  0  0
  -30.0943  -23.9555   19.5906 C   0  0  0  0  0  0  0  0  0  0  0  0
  -25.8692  -11.5740   20.5616 N   0  0  0  0  0  0  0  0  0  0  0  0
  -26.2418  -12.8511   20.3715 N   0  0  0  0  0  0  0  0  0  0  0  0
  -33.0120  -22.3946   20.9746 N   0  0  0  0  0  0  0  0  0  0  0  0
  -30.0432  -12.5123   20.5042 N   0  0  0  0  0  0  0  0  0  0  0  0
  -25.4137  -15.0691   20.2959 N   0  0  0  0  0  0  0  0  0  0  0  0
  -21.7282  -12.6101   21.1718 N   0  0  0  0  0  0  0  0  0  0  0  0
  -30.5957  -12.8696   22.7691 N   0  0  0  0  0  0  0  0  0  0  0  0
  -35.8457  -24.5354   20.6320 N   0  0  0  0  0  0  0  0  0  0  0  0
  -30.2089  -21.4405   19.3343 N   0  0  0  0  0  0  0  0  0  0  0  0
  -29.2914  -17.9631   19.6997 N   0  3  0  0  0  0  0  0  0  0  0  0
  -31.8938  -17.4495   27.1112 N   0  3  0  0  0  0  0  0  0  0  0  0
  -22.5049  -14.7375   20.8117 O   0  0  0  0  0  0  0  0  0  0  0  0
  -34.0788  -24.5148   22.1487 O   0  0  0  0  0  0  0  0  0  0  0  0
  -32.6856  -22.7288   18.6903 O   0  0  0  0  0  0  0  0  0  0  0  0
  -29.4817  -20.3176   21.2283 O   0  0  0  0  0  0  0  0  0  0  0  0
  -32.1928  -13.1151   21.1045 O   0  0  0  0  0  0  0  0  0  0  0  0
  -21.5251   -7.0735   21.7549 O   0  0  0  0  0  0  0  0  0  0  0  0
  -33.1962  -20.7511   26.9175 O   0  0  0  0  0  0  0  0  0  1  0  0
  -23.5658   -3.3619   25.2852 F   0  0  0  0  0  0  0  0  0  0  0  0
  -20.1446   -6.3914   24.0509 F   0  0  0  0  0  0  0  0  0  0  0  0
  1  2  1  0  0  0  0
  1  5  2  0  0  0  0
  2  6  2  0  0  0  0
  3  8  2  0  0  0  0
  3 17  1  0  0  0  0
  4  9  1  0  0  0  0
  4 17  2  0  0  0  0
  5 19  1  0  0  0  0
  6 21  1  0  0  0  0
  7 10  2  0  0  0  0
  7 20  1  0  0  0  0
  8 27  1  0  0  0  0
  9 27  2  0  0  0  0
 10 28  1  0  0  0  0
 11 12  2  0  0  0  0
 11 29  1  0  0  0  0
 12 30  1  0  0  0  0
 13 22  1  0  0  0  0
 13 28  2  0  0  0  0
 14 23  1  0  0  0  0
 14 24  2  0  0  0  0
 15 25  1  0  0  0  0
 15 26  2  0  0  0  0
 16 30  2  0  0  0  0
 16 31  1  0  0  0  0
 17 32  1  0  0  0  0
 18 32  1  0  0  0  0
 18 33  2  0  0  0  0
 18 34  1  0  0  0  0
 19 21  2  0  0  0  0
 19 39  1  0  0  0  0
 20 22  2  0  0  0  0
 20 40  1  0  0  0  0
 21 48  1  0  0  0  0
 22 41  1  0  0  0  0
 23 25  2  0  0  0  0
 23 58  1  0  0  0  0
 24 26  1  0  0  0  0
 24 51  1  0  0  0  0
 25 52  1  0  0  0  0
 26 71  1  0  0  0  0
 27 81  1  0  0  0  0
 28 82  1  0  0  0  0
 29 31  2  0  0  0  0
 29 81  1  0  0  0  0
 30 83  1  0  0  0  0
 31 84  1  0  0  0  0
 32 65  2  0  0  0  0
 33 66  1  0  0  0  0
 33 69  1  0  0  0  0
 34 70  1  0  0  0  0
 34 76  2  0  0  0  0
 35 49  1  0  0  0  0
 35 72  1  0  0  0  0
 35 77  2  0  0  0  0
 36 62  1  0  0  0  0
 36 67  1  0  0  0  0
 36 78  2  0  0  0  0
 37 63  1  0  0  0  0
 37 73  1  0  0  0  0
 37 79  2  0  0  0  0
 38 68  1  0  0  0  0
 38 71  1  0  0  0  0
 38 80  2  0  0  0  0
 39 42  1  0  0  0  0
 40 49  1  0  0  0  0
 41 67  1  0  0  0  0
 42 44  1  0  0  0  0
 43 45  1  0  0  0  0
 43 46  1  0  0  0  0
 44 48  1  0  0  0  0
 45 50  1  0  0  0  0
 46 68  1  0  0  0  0
 47 50  1  0  0  0  0
 47 68  1  0  0  0  0
 48 72  1  0  0  0  0
 49 67  1  0  0  0  0
 50 66  1  0  0  0  0
 53 63  1  0  0  0  0
 54 64  1  0  0  0  0
 55 64  1  0  0  0  0
 56 64  1  0  0  0  0
 57 74  1  0  0  0  0
 58 75  1  0  0  0  0
 59 60  1  0  0  0  0
 59 61  1  0  0  0  0
 60 75  1  0  0  0  0
 61 82  1  0  0  0  0
 62 64  1  0  0  0  0
 62 73  1  0  0  0  0
 63 74  1  0  0  0  0
 65 66  1  0  0  0  0
M  CHG  2  74   1  75   1
M  ISO  4  38 100  61 101  71 100  82 101
M  END
> <Batch ID>
0040

> <Smiles>
CNC(C)C(=O)NC(C(=O)N1Cc2cc([101O:1][101CH2:1]CCNCc3cc(C)c([100NH:0][100C:0](=O)N4CCCC(n5nc(-c6ccc(Oc7ccc(F)cc7F)cc6)c(C(N)=O)c5N)C4)cc3C)ccc2CC1C(=O)NC1CCCc2ccccc21)C(C)(C)C

> <Shape>
0.211

> <Color>
0.185

> <Negative vol penalty>
0.000

$$$$

  -OEChem-04042322063D

 92101  0     1  0  0  0  0  0999 V2000
  -18.1849  -24.4154   20.4786 C   0  0  0  0  0  0  0  0  0  0  0  0
  -19.2485  -24.9481   19.7571 C   0  0  0  0  0  0  0  0  0  0  0  0
  -25.4852  -13.2808   22.0328 C   0  0  0  0  0  0  0  0  0  0  0  0
  -25.9185  -13.7771   19.7084 C   0  0  0  0  0  0  0  0  0  0  0  0
  -17.8280  -24.9726   21.7058 C   0  0  0  0  0  0  0  0  0  0  0  0
  -19.9550  -26.0391   20.2620 C   0  0  0  0  0  0  0  0  0  0  0  0
  -25.9433  -27.1576   19.6329 C   0  0  0  0  0  0  0  0  0  0  0  0
  -25.2214  -11.9522   21.7000 C   0  0  0  0  0  0  0  0  0  0  0  0
  -25.6548  -12.4485   19.3755 C   0  0  0  0  0  0  0  0  0  0  0  0
  -26.6578  -27.9768   18.7600 C   0  0  0  0  0  0  0  0  0  0  0  0
  -22.6668  -10.1755   20.3801 C   0  0  0  0  0  0  0  0  0  0  0  0
  -21.5437   -9.5761   20.9500 C   0  0  0  0  0  0  0  0  0  0  0  0
  -30.4431  -25.6393   20.9964 C   0  0  0  0  0  0  0  0  0  0  0  0
  -26.6939  -29.7160   20.4313 C   0  0  0  0  0  0  0  0  0  0  0  0
  -30.9472  -26.8486   18.5334 C   0  0  0  0  0  0  0  0  0  0  0  0
  -22.9568   -7.9114   21.9841 C   0  0  0  0  0  0  0  0  0  0  0  0
  -25.8337  -14.1933   21.0371 C   0  0  0  0  0  0  0  0  0  0  0  0
  -30.9501  -26.9378   20.9478 C   0  0  0  0  0  0  0  0  0  0  0  0
  -27.1037  -16.0428   22.2511 C   0  0  0  0  0  0  0  0  0  0  0  0
  -18.5366  -26.0649   22.2305 C   0  0  0  0  0  0  0  0  0  0  0  0
  -25.5886  -27.6161   20.9097 C   0  0  0  0  0  0  0  0  0  0  0  0
  -19.6064  -26.6123   21.4968 C   0  0  0  0  0  0  0  0  0  0  0  0
  -25.9770  -28.8996   21.3195 C   0  0  0  0  0  0  0  0  0  0  0  0
  -30.1881  -24.9454   19.8135 C   0  0  0  0  0  0  0  0  0  0  0  0
  -31.2022  -27.5425   19.7163 C   0  0  0  0  0  0  0  0  0  0  0  0
  -30.4402  -25.5500   18.5820 C   0  0  0  0  0  0  0  0  0  0  0  0
  -25.3062  -11.5360   20.3713 C   0  0  0  0  0  0  0  0  0  0  0  0
  -27.0307  -29.2573   19.1581 C   0  0  0  0  0  0  0  0  0  0  0  0
  -23.9350   -9.6429   20.6121 C   0  0  0  0  0  0  0  0  0  0  0  0
  -21.6887   -8.4441   21.7520 C   0  0  0  0  0  0  0  0  0  0  0  0
  -24.0800   -8.5109   21.4141 C   0  0  0  0  0  0  0  0  0  0  0  0
  -26.1057  -15.5660   21.3802 C   0  0  0  0  0  0  0  0  0  0  0  0
  -26.9480  -17.4074   22.2375 C   0  0  0  0  0  0  0  0  0  0  0  0
  -33.1536  -27.5870   25.3312 C   0  0  0  0  0  0  0  0  0  0  0  0
  -31.2061  -27.6368   22.2003 C   0  0  0  0  0  0  0  0  0  0  0  0
  -32.2955  -27.9779   24.3822 C   0  0  0  0  0  0  0  0  0  0  0  0
  -32.0735  -27.2406   23.1585 C   0  0  0  0  0  0  0  0  0  0  0  0
  -28.0840  -15.3172   23.0048 C   0  0  0  0  0  0  0  0  0  0  0  0
  -22.8425  -28.1359   22.4237 C   0  0  0  0  0  0  0  0  0  0  0  0
  -26.1491  -22.1406   19.3655 C   0  0  0  0  0  0  0  0  0  0  0  0
  -24.7936  -28.7073   24.9514 C   0  0  0  0  0  0  0  0  0  0  0  0
  -27.8844  -29.6144   26.0785 C   0  0  0  0  0  0  0  0  0  0  0  0
  -18.0838  -26.6631   23.5388 C   0  0  0  0  0  0  0  0  0  0  0  0
  -24.8409  -26.7103   21.8493 C   0  0  0  0  0  0  0  0  0  0  0  0
  -25.6384  -29.4318   22.6872 C   0  0  0  0  0  0  0  0  0  0  0  0
  -19.1209  -27.5816   24.1799 C   0  0  0  0  0  0  0  0  0  0  0  0
  -23.2479  -20.2890   20.3629 C   0  0  0  0  0  0  0  0  0  0  0  0
  -19.6963  -28.5421   23.1440 C   0  0  0  0  0  0  0  0  0  0  0  0
  -23.8113  -18.9249   20.7591 C   0  0  0  0  0  0  0  0  0  0  0  0
  -29.2265  -31.8461   17.7693 C   0  0  0  0  0  0  0  0  0  0  0  0
  -30.6444  -32.2777   18.1143 C   0  0  0  0  0  0  0  0  0  0  0  0
  -24.0202  -20.8942   19.1949 C   0  0  0  0  0  0  0  0  0  0  0  0
  -26.0574  -19.6407   19.8275 C   0  0  0  0  0  0  0  0  0  0  0  0
  -29.6604  -30.2853   19.7485 C   0  0  0  0  0  0  0  0  0  0  0  0
  -20.4128  -27.7798   22.0229 C   0  0  1  0  0  0  0  0  0  0  0  0
  -24.0871  -27.4689   22.9373 C   0  0  1  0  0  0  0  0  0  0  0  0
  -25.3251  -19.0078   21.0240 C   0  0  2  0  0  0  0  0  0  0  0  0
  -28.6198  -31.0054   18.8927 C   0  0  2  0  0  0  0  0  0  1  0  0
  -31.5880  -31.0775   18.2962 C   0  0  2  0  0  0  0  0  0  0  0  0
  -30.1753  -24.8265   17.3025 C   0  0  0  0  0  0  0  0  0  0  0  0
  -32.2085  -30.6544   16.9640 C   0  0  0  0  0  0  0  0  0  0  0  0
  -29.7273  -30.0488   27.7255 C   0  0  0  0  0  0  0  0  0  0  0  0
  -23.3759  -31.3892   25.2795 C   0  0  0  0  0  0  0  0  0  0  0  0
  -25.2701  -32.1332   26.7377 C   0  0  0  0  0  0  0  0  0  0  0  0
  -23.8576  -30.1947   27.4232 C   0  0  0  0  0  0  0  0  0  0  0  0
  -28.8182  -26.8090   25.9498 C   0  0  0  0  0  0  0  0  0  0  0  0
  -31.7473  -28.9373   19.6260 C   0  0  0  0  0  0  0  0  0  0  0  0
  -29.6454  -23.5560   19.8900 C   0  0  0  0  0  0  0  0  0  0  0  0
  -27.6245  -22.1040   19.6751 C   0  0  0  0  0  0  0  0  0  0  0  0
  -25.4894  -29.9245   25.5111 C   0  0  1  0  0  0  0  0  0  0  0  0
  -28.7894  -29.0072   27.1354 C   0  0  2  0  0  0  0  0  0  0  0  0
  -24.5031  -30.9014   26.2113 C   0  0  0  0  0  0  0  0  0  0  0  0
  -25.3702  -16.5479   20.8520 N   0  0  0  0  0  0  0  0  0  0  0  0
  -25.9065  -17.6553   21.3925 N   0  0  0  0  0  0  0  0  0  0  0  0
  -24.9008  -28.5105   23.5673 N   0  0  0  0  0  0  0  0  0  0  0  0
  -25.4563  -20.9348   19.4765 N   0  0  0  0  0  0  0  0  0  0  0  0
  -27.6016  -18.4074   22.8661 N   0  0  0  0  0  0  0  0  0  0  0  0
  -29.3271  -15.0594   22.4109 N   0  0  0  0  0  0  0  0  0  0  0  0
  -21.7167  -27.3357   22.4668 N   0  0  0  0  0  0  0  0  0  0  0  0
  -26.5517  -29.4251   26.3774 N   0  0  0  0  0  0  0  0  0  0  0  0
  -30.8349  -29.8816   18.8832 N   0  3  1  0  0  0  0  0  0  0  0  0
  -29.6127  -27.9136   26.5461 N   0  3  0  0  0  0  0  0  0  0  0  0
  -28.1991  -23.4693   19.5504 N   0  3  0  0  0  0  0  0  0  0  0  0
  -27.8583  -14.8951   24.1643 O   0  0  0  0  0  0  0  0  0  0  0  0
  -22.8990  -29.2914   22.0198 O   0  0  0  0  0  0  0  0  0  0  0  0
  -25.6290  -23.2103   19.0378 O   0  0  0  0  0  0  0  0  0  0  0  0
  -24.1835  -27.9548   25.7151 O   0  0  0  0  0  0  0  0  0  0  0  0
  -28.3165  -30.2013   25.0889 O   0  0  0  0  0  0  0  0  0  0  0  0
  -25.0492  -10.2396   20.0462 O   0  0  0  0  0  0  0  0  0  0  0  0
  -27.7277  -30.0593   18.3078 O   0  0  0  0  0  0  0  0  0  1  0  0
  -20.6102   -7.8695   22.3005 F   0  0  0  0  0  0  0  0  0  0  0  0
  -25.2958   -7.9953   21.6415 F   0  0  0  0  0  0  0  0  0  0  0  0
  1  2  1  0  0  0  0
  1  5  2  0  0  0  0
  2  6  2  0  0  0  0
  3  8  2  0  0  0  0
  3 17  1  0  0  0  0
  4  9  1  0  0  0  0
  4 17  2  0  0  0  0
  5 20  1  0  0  0  0
  6 22  1  0  0  0  0
  7 10  2  0  0  0  0
  7 21  1  0  0  0  0
  8 27  1  0  0  0  0
  9 27  2  0  0  0  0
 10 28  1  0  0  0  0
 11 12  2  0  0  0  0
 11 29  1  0  0  0  0
 12 30  1  0  0  0  0
 13 18  1  0  0  0  0
 13 24  2  0  0  0  0
 14 23  1  0  0  0  0
 14 28  2  0  0  0  0
 15 25  1  0  0  0  0
 15 26  2  0  0  0  0
 16 30  2  0  0  0  0
 16 31  1  0  0  0  0
 17 32  1  0  0  0  0
 18 25  2  0  0  0  0
 18 35  1  0  0  0  0
 19 32  1  0  0  0  0
 19 33  2  0  0  0  0
 19 38  1  0  0  0  0
 20 22  2  0  0  0  0
 20 43  1  0  0  0  0
 21 23  2  0  0  0  0
 21 44  1  0  0  0  0
 22 55  1  0  0  0  0
 23 45  1  0  0  0  0
 24 26  1  0  0  0  0
 24 68  1  0  0  0  0
 25 67  1  0  0  0  0
 26 60  1  0  0  0  0
 27 89  1  0  0  0  0
 28 90  1  0  0  0  0
 29 31  2  0  0  0  0
 29 89  1  0  0  0  0
 30 91  1  0  0  0  0
 31 92  1  0  0  0  0
 32 73  2  0  0  0  0
 33 74  1  0  0  0  0
 33 77  1  0  0  0  0
 34 36  2  0  0  0  0
 35 37  2  0  0  0  0
 36 37  1  0  0  0  0
 38 78  1  0  0  0  0
 38 84  2  0  0  0  0
 39 56  1  0  0  0  0
 39 79  1  0  0  0  0
 39 85  2  0  0  0  0
 40 69  1  0  0  0  0
 40 76  1  0  0  0  0
 40 86  2  0  0  0  0
 41 70  1  0  0  0  0
 41 75  1  0  0  0  0
 41 87  2  0  0  0  0
 42 71  1  0  0  0  0
 42 80  1  0  0  0  0
 42 88  2  0  0  0  0
 43 46  1  0  0  0  0
 44 56  1  0  0  0  0
 45 75  1  0  0  0  0
 46 48  1  0  0  0  0
 47 49  1  0  0  0  0
 47 52  1  0  0  0  0
 48 55  1  0  0  0  0
 49 57  1  0  0  0  0
 50 51  1  0  0  0  0
 50 58  1  0  0  0  0
 51 59  1  0  0  0  0
 52 76  1  0  0  0  0
 53 57  1  0  0  0  0
 53 76  1  0  0  0  0
 54 58  1  0  0  0  0
 54 81  1  0  0  0  0
 55 79  1  0  0  0  0
 56 75  1  0  0  0  0
 57 74  1  0  0  0  0
 58 90  1  0  0  0  0
 59 61  1  0  0  0  0
 59 81  1  0  0  0  0
 62 71  1  0  0  0  0
 63 72  1  0  0  0  0
 64 72  1  0  0  0  0
 65 72  1  0  0  0  0
 66 82  1  0  0  0  0
 67 81  1  0  0  0  0
 68 83  1  0  0  0  0
 69 83  1  0  0  0  0
 70 72  1  0  0  0  0
 70 80  1  0  0  0  0
 71 82  1  0  0  0  0
 73 74  1  0  0  0  0
M  CHG  3  81   1  82   1  83   1
M  ISO  4  40 100  58 101  69 100  90 101
M  END
> <Batch ID>
0040

> <Smiles>
C=CC=Cc1cc(CN[100CH2:0][100C:0](=O)N2CCCC(n3nc(-c4ccc(Oc5ccc(F)cc5F)cc4)c(C(N)=O)c3N)C2)c(C)cc1CN1C[101CH:1]([101O:1]c2ccc3c(c2)CN(C(=O)C(NC(=O)C(C)NC)C(C)(C)C)C(C(=O)NC2CCCc4ccccc42)C3)CCC1C

> <Shape>
0.244

> <Color>
0.067

> <Negative vol penalty>
0.000

$$$$

  -OEChem-04042322063D

 90 99  0     1  0  0  0  0  0999 V2000
  -39.2280  -30.6664   17.9240 C   0  0  0  0  0  0  0  0  0  0  0  0
  -38.2483  -30.1049   18.7366 C   0  0  0  0  0  0  0  0  0  0  0  0
  -22.6327  -10.2782   20.2289 C   0  0  0  0  0  0  0  0  0  0  0  0
  -24.2520   -9.5302   21.8584 C   0  0  0  0  0  0  0  0  0  0  0  0
  -38.8934  -31.1388   16.6556 C   0  0  0  0  0  0  0  0  0  0  0  0
  -36.9331  -30.0166   18.2817 C   0  0  0  0  0  0  0  0  0  0  0  0
  -34.8460  -25.5026   19.2372 C   0  0  0  0  0  0  0  0  0  0  0  0
  -21.8772   -9.1269   20.4511 C   0  0  0  0  0  0  0  0  0  0  0  0
  -23.4966   -8.3789   22.0806 C   0  0  0  0  0  0  0  0  0  0  0  0
  -34.4041  -25.2680   20.5385 C   0  0  0  0  0  0  0  0  0  0  0  0
  -19.6908   -7.9906   22.7665 C   0  0  0  0  0  0  0  0  0  0  0  0
  -18.3116   -8.1384   22.9125 C   0  0  0  0  0  0  0  0  0  0  0  0
  -32.1433  -25.7546   19.8520 C   0  0  0  0  0  0  0  0  0  0  0  0
  -29.8348  -19.1933   22.5295 C   0  0  0  0  0  0  0  0  0  0  0  0
  -31.2358  -17.6269   20.6947 C   0  0  0  0  0  0  0  0  0  0  0  0
  -17.9556   -6.7054   21.0002 C   0  0  0  0  0  0  0  0  0  0  0  0
  -23.8201  -10.4799   20.9325 C   0  0  0  0  0  0  0  0  0  0  0  0
  -24.1932  -13.0031   20.8894 C   0  0  0  0  0  0  0  0  0  0  0  0
  -37.5753  -31.0474   16.1812 C   0  0  0  0  0  0  0  0  0  0  0  0
  -33.9400  -25.8761   18.2342 C   0  0  0  0  0  0  0  0  0  0  0  0
  -36.5803  -30.4895   17.0064 C   0  0  0  0  0  0  0  0  0  0  0  0
  -32.5759  -25.9908   18.5381 C   0  0  0  0  0  0  0  0  0  0  0  0
  -30.7348  -19.7902   21.6467 C   0  0  0  0  0  0  0  0  0  0  0  0
  -29.6354  -17.8132   22.4950 C   0  0  0  0  0  0  0  0  0  0  0  0
  -31.4353  -19.0070   20.7293 C   0  0  0  0  0  0  0  0  0  0  0  0
  -30.3358  -17.0300   21.5776 C   0  0  0  0  0  0  0  0  0  0  0  0
  -22.3092   -8.1773   21.3770 C   0  0  0  0  0  0  0  0  0  0  0  0
  -33.0530  -25.3969   20.8467 C   0  0  0  0  0  0  0  0  0  0  0  0
  -20.2025   -7.2002   21.7373 C   0  0  0  0  0  0  0  0  0  0  0  0
  -17.4439   -7.4958   22.0293 C   0  0  0  0  0  0  0  0  0  0  0  0
  -19.3349   -6.5576   20.8542 C   0  0  0  0  0  0  0  0  0  0  0  0
  -24.6012  -11.6687   20.7029 C   0  0  0  0  0  0  0  0  0  0  0  0
  -25.2902  -13.7501   20.5358 C   0  0  0  0  0  0  0  0  0  0  0  0
  -31.5485  -23.1971   23.0362 C   0  0  0  0  0  0  0  0  0  0  0  0
  -28.1096  -23.9175   24.1038 C   0  0  0  0  0  0  0  0  0  0  0  0
  -30.4443  -23.8794   23.3922 C   0  0  0  0  0  0  0  0  0  0  0  0
  -29.2068  -23.2389   23.7500 C   0  0  0  0  0  0  0  0  0  0  0  0
  -22.9352  -13.5210   21.3418 C   0  0  0  0  0  0  0  0  0  0  0  0
  -33.5787  -28.4291   16.3753 C   0  0  0  0  0  0  0  0  0  0  0  0
  -31.2671  -26.6165   14.9992 C   0  0  0  0  0  0  0  0  0  0  0  0
  -28.6622  -24.3816   16.1113 C   0  0  0  0  0  0  0  0  0  0  0  0
  -30.7714  -14.7205   20.6704 C   0  0  0  0  0  0  0  0  0  0  0  0
  -37.2522  -31.6148   14.8216 C   0  0  0  0  0  0  0  0  0  0  0  0
  -34.4288  -26.0995   16.8294 C   0  0  0  0  0  0  0  0  0  0  0  0
  -31.5598  -26.3696   17.4930 C   0  0  0  0  0  0  0  0  0  0  0  0
  -35.9102  -31.1430   14.2680 C   0  0  0  0  0  0  0  0  0  0  0  0
  -34.3394  -22.7334   24.4279 C   0  0  0  0  0  0  0  0  0  0  0  0
  -29.5948  -12.3990   18.2407 C   0  0  0  0  0  0  0  0  0  0  0  0
  -33.3283  -21.6227   24.7165 C   0  0  0  0  0  0  0  0  0  0  0  0
  -34.8256  -31.2480   15.3355 C   0  0  0  0  0  0  0  0  0  0  0  0
  -33.7531  -24.0342   23.8841 C   0  0  0  0  0  0  0  0  0  0  0  0
  -28.1572  -12.1118   18.6801 C   0  0  0  0  0  0  0  0  0  0  0  0
  -30.5284  -12.5772   19.4367 C   0  0  0  0  0  0  0  0  0  0  0  0
  -28.6493  -13.2804   20.8662 C   0  0  0  0  0  0  0  0  0  0  0  0
  -32.7011  -21.0420   23.4511 C   0  0  0  0  0  0  0  0  0  0  0  0
  -35.1475  -30.3534   16.5387 C   0  0  1  0  0  0  0  0  0  0  0  0
  -32.8508  -23.8669   22.6596 C   0  0  2  0  0  0  0  0  0  1  0  0
  -33.4925  -26.9759   16.0032 C   0  0  1  0  0  0  0  0  0  0  0  0
  -27.6590  -13.1577   19.6966 C   0  0  2  0  0  0  0  0  0  0  0  0
  -28.6651  -17.2006   23.4523 C   0  0  0  0  0  0  0  0  0  0  0  0
  -32.4040  -19.6240   19.7747 C   0  0  0  0  0  0  0  0  0  0  0  0
  -27.5678  -22.4452   14.9494 C   0  0  0  0  0  0  0  0  0  0  0  0
  -29.1781  -28.6756   14.1588 C   0  0  0  0  0  0  0  0  0  0  0  0
  -27.4192  -26.9264   14.4973 C   0  0  0  0  0  0  0  0  0  0  0  0
  -29.1982  -26.5881   12.7817 C   0  0  0  0  0  0  0  0  0  0  0  0
  -29.3134  -22.5330   18.3289 C   0  0  0  0  0  0  0  0  0  0  0  0
  -30.9331  -21.2763   21.7027 C   0  0  0  0  0  0  0  0  0  0  0  0
  -29.7902  -26.4091   15.2332 C   0  0  1  0  0  0  0  0  0  0  0  0
  -28.6297  -22.8724   15.9507 C   0  0  2  0  0  0  0  0  0  0  0  0
  -28.9140  -27.1570   14.1890 C   0  0  0  0  0  0  0  0  0  0  0  0
  -25.8591  -11.5705   20.2648 N   0  0  0  0  0  0  0  0  0  0  0  0
  -26.2510  -12.8527   20.1729 N   0  0  0  0  0  0  0  0  0  0  0  0
  -32.0879  -26.5838   16.1355 N   0  0  0  0  0  0  0  0  0  0  0  0
  -29.9944  -13.5860   20.3543 N   0  0  0  0  0  0  0  0  0  0  0  0
  -25.5170  -15.0805   20.5029 N   0  0  0  0  0  0  0  0  0  0  0  0
  -22.7511  -13.7227   22.7165 N   0  0  0  0  0  0  0  0  0  0  0  0
  -30.1469  -15.6266   21.5269 N   0  0  0  0  0  0  0  0  0  0  0  0
  -34.8421  -28.9713   16.2370 N   0  0  0  0  0  0  0  0  0  0  0  0
  -29.5807  -24.9657   15.2649 N   0  0  0  0  0  0  0  0  0  0  0  0
  -31.4340  -21.7557   23.0423 N   0  3  2  0  0  0  0  0  0  0  0  0
  -28.3342  -22.2187   17.2569 N   0  3  0  0  0  0  0  0  0  0  0  0
  -21.9960  -13.7813   20.5520 O   0  0  0  0  0  0  0  0  0  0  0  0
  -32.5730  -29.0154   16.7581 O   0  0  0  0  0  0  0  0  0  0  0  0
  -31.6783  -26.7937   13.8498 O   0  0  0  0  0  0  0  0  0  0  0  0
  -27.9419  -24.9826   16.9054 O   0  0  0  0  0  0  0  0  0  0  0  0
  -31.8964  -14.8901   20.1933 O   0  0  0  0  0  0  0  0  0  0  0  0
  -21.5721   -7.0538   21.5942 O   0  0  0  0  0  0  0  0  0  0  0  0
  -32.6190  -25.1692   22.1163 O   0  0  0  0  0  0  0  0  0  1  0  0
  -16.1194   -7.6367   22.1705 F   0  0  0  0  0  0  0  0  0  0  0  0
  -19.8206   -5.7961   19.8643 F   0  0  0  0  0  0  0  0  0  0  0  0
  1  2  1  0  0  0  0
  1  5  2  0  0  0  0
  2  6  2  0  0  0  0
  3  8  2  0  0  0  0
  3 17  1  0  0  0  0
  4  9  1  0  0  0  0
  4 17  2  0  0  0  0
  5 19  1  0  0  0  0
  6 21  1  0  0  0  0
  7 10  2  0  0  0  0
  7 20  1  0  0  0  0
  8 27  1  0  0  0  0
  9 27  2  0  0  0  0
 10 28  1  0  0  0  0
 11 12  2  0  0  0  0
 11 29  1  0  0  0  0
 12 30  1  0  0  0  0
 13 22  1  0  0  0  0
 13 28  2  0  0  0  0
 14 23  1  0  0  0  0
 14 24  2  0  0  0  0
 15 25  1  0  0  0  0
 15 26  2  0  0  0  0
 16 30  2  0  0  0  0
 16 31  1  0  0  0  0
 17 32  1  0  0  0  0
 18 32  1  0  0  0  0
 18 33  2  0  0  0  0
 18 38  1  0  0  0  0
 19 21  2  0  0  0  0
 19 43  1  0  0  0  0
 20 22  2  0  0  0  0
 20 44  1  0  0  0  0
 21 56  1  0  0  0  0
 22 45  1  0  0  0  0
 23 25  2  0  0  0  0
 23 67  1  0  0  0  0
 24 26  1  0  0  0  0
 24 60  1  0  0  0  0
 25 61  1  0  0  0  0
 26 77  1  0  0  0  0
 27 87  1  0  0  0  0
 28 88  1  0  0  0  0
 29 31  2  0  0  0  0
 29 87  1  0  0  0  0
 30 89  1  0  0  0  0
 31 90  1  0  0  0  0
 32 71  2  0  0  0  0
 33 72  1  0  0  0  0
 33 75  1  0  0  0  0
 34 36  2  0  0  0  0
 34 57  1  0  0  0  0
 34 80  1  0  0  0  0
 35 37  2  0  0  0  0
 36 37  1  0  0  0  0
 38 76  1  0  0  0  0
 38 82  2  0  0  0  0
 39 58  1  0  0  0  0
 39 78  1  0  0  0  0
 39 83  2  0  0  0  0
 40 68  1  0  0  0  0
 40 73  1  0  0  0  0
 40 84  2  0  0  0  0
 41 69  1  0  0  0  0
 41 79  1  0  0  0  0
 41 85  2  0  0  0  0
 42 74  1  0  0  0  0
 42 77  1  0  0  0  0
 42 86  2  0  0  0  0
 43 46  1  0  0  0  0
 44 58  1  0  0  0  0
 45 73  1  0  0  0  0
 46 50  1  0  0  0  0
 47 49  1  0  0  0  0
 47 51  1  0  0  0  0
 48 52  1  0  0  0  0
 48 53  1  0  0  0  0
 49 55  1  0  0  0  0
 50 56  1  0  0  0  0
 51 57  1  0  0  0  0
 52 59  1  0  0  0  0
 53 74  1  0  0  0  0
 54 59  1  0  0  0  0
 54 74  1  0  0  0  0
 55 80  1  0  0  0  0
 56 78  1  0  0  0  0
 57 88  1  0  0  0  0
 58 73  1  0  0  0  0
 59 72  1  0  0  0  0
 62 69  1  0  0  0  0
 63 70  1  0  0  0  0
 64 70  1  0  0  0  0
 65 70  1  0  0  0  0
 66 81  1  0  0  0  0
 67 80  1  0  0  0  0
 68 70  1  0  0  0  0
 68 79  1  0  0  0  0
 69 81  1  0  0  0  0
 71 72  1  0  0  0  0
M  CHG  2  80   1  81   1
M  ISO  4  42 100  57 101  77 100  88 101
M  END
> <Batch ID>
0040

> <Smiles>
C=CC=C1N(Cc2cc(C)c([100NH:0][100C:0](=O)N3CCCC(n4nc(-c5ccc(Oc6ccc(F)cc6F)cc5)c(C(N)=O)c4N)C3)cc2C)CCCC[101CH:1]1[101O:1]c1ccc2c(c1)CN(C(=O)C(NC(=O)C(C)NC)C(C)(C)C)C(C(=O)NC1CCCc3ccccc31)C2

> <Shape>
0.174

> <Color>
0.166

> <Negative vol penalty>
0.000

$$$$

  -OEChem-04042322063D

 83 91  0     1  0  0  0  0  0999 V2000
  -24.7250  -37.0947   21.1358 C   0  0  0  0  0  0  0  0  0  0  0  0
  -25.4409  -36.0161   20.6265 C   0  0  0  0  0  0  0  0  0  0  0  0
  -24.4324   -9.3811   21.7081 C   0  0  0  0  0  0  0  0  0  0  0  0
  -22.6002  -10.4682   20.5687 C   0  0  0  0  0  0  0  0  0  0  0  0
  -24.1314  -37.0041   22.3941 C   0  0  0  0  0  0  0  0  0  0  0  0
  -25.5645  -34.8465   21.3756 C   0  0  0  0  0  0  0  0  0  0  0  0
  -25.7648  -29.1103   19.2399 C   0  0  0  0  0  0  0  0  0  0  0  0
  -23.7067   -8.1904   21.7393 C   0  0  0  0  0  0  0  0  0  0  0  0
  -21.8744   -9.2774   20.5999 C   0  0  0  0  0  0  0  0  0  0  0  0
  -26.8243  -28.2404   18.9859 C   0  0  0  0  0  0  0  0  0  0  0  0
  -21.1924   -6.8534   23.5600 C   0  0  0  0  0  0  0  0  0  0  0  0
  -21.1744   -6.1374   24.7570 C   0  0  0  0  0  0  0  0  0  0  0  0
  -26.5056  -27.2292   21.1527 C   0  0  0  0  0  0  0  0  0  0  0  0
  -27.0534  -20.4875   18.7725 C   0  0  0  0  0  0  0  0  0  0  0  0
  -26.8579  -20.3658   21.5527 C   0  0  0  0  0  0  0  0  0  0  0  0
  -22.1744   -4.2433   23.6390 C   0  0  0  0  0  0  0  0  0  0  0  0
  -23.8792  -10.5201   21.1229 C   0  0  0  0  0  0  0  0  0  0  0  0
  -25.5109  -12.1824   20.0829 C   0  0  0  0  0  0  0  0  0  0  0  0
  -24.2396  -35.8294   23.1550 C   0  0  0  0  0  0  0  0  0  0  0  0
  -25.0736  -29.0533   20.4587 C   0  0  0  0  0  0  0  0  0  0  0  0
  -24.9729  -34.7406   22.6459 C   0  0  0  0  0  0  0  0  0  0  0  0
  -25.4361  -28.0977   21.4187 C   0  0  0  0  0  0  0  0  0  0  0  0
  -27.8140  -21.3486   19.5634 C   0  0  0  0  0  0  0  0  0  0  0  0
  -26.0972  -19.5048   20.7617 C   0  0  0  0  0  0  0  0  0  0  0  0
  -22.4276   -8.1385   21.1852 C   0  0  0  0  0  0  0  0  0  0  0  0
  -27.1968  -27.3016   19.9435 C   0  0  0  0  0  0  0  0  0  0  0  0
  -21.7013   -6.2643   22.4025 C   0  0  0  0  0  0  0  0  0  0  0  0
  -21.6654   -4.8324   24.7965 C   0  0  0  0  0  0  0  0  0  0  0  0
  -22.1923   -4.9593   22.4421 C   0  0  0  0  0  0  0  0  0  0  0  0
  -26.1950  -19.5656   19.3716 C   0  0  0  0  0  0  0  0  0  0  0  0
  -27.7163  -21.2877   20.9535 C   0  0  0  0  0  0  0  0  0  0  0  0
  -24.6282  -11.7505   21.0908 C   0  0  0  0  0  0  0  0  0  0  0  0
  -25.9617  -13.4035   20.5213 C   0  0  0  0  0  0  0  0  0  0  0  0
  -25.8896  -11.5375   18.8596 C   0  0  0  0  0  0  0  0  0  0  0  0
  -24.6105  -31.0703   22.8713 C   0  0  0  0  0  0  0  0  0  0  0  0
  -22.6229  -28.7357   23.9302 C   0  0  0  0  0  0  0  0  0  0  0  0
  -21.7641  -25.4328   23.9112 C   0  0  0  0  0  0  0  0  0  0  0  0
  -25.0438  -18.4127   22.7727 C   0  0  0  0  0  0  0  0  0  0  0  0
  -23.6206  -35.7955   24.5299 C   0  0  0  0  0  0  0  0  0  0  0  0
  -23.9157  -29.9808   20.7065 C   0  0  0  0  0  0  0  0  0  0  0  0
  -24.7131  -27.9821   22.7349 C   0  0  0  0  0  0  0  0  0  0  0  0
  -23.4824  -34.3866   25.1010 C   0  0  0  0  0  0  0  0  0  0  0  0
  -25.4633  -15.6791   25.0152 C   0  0  0  0  0  0  0  0  0  0  0  0
  -24.7763  -33.6024   24.9068 C   0  0  0  0  0  0  0  0  0  0  0  0
  -25.3560  -14.4489   24.1112 C   0  0  0  0  0  0  0  0  0  0  0  0
  -24.5101  -16.7896   24.5771 C   0  0  0  0  0  0  0  0  0  0  0  0
  -24.5106  -15.9490   22.2613 C   0  0  0  0  0  0  0  0  0  0  0  0
  -25.1084  -33.4461   23.4179 C   0  0  1  0  0  0  0  0  0  0  0  0
  -23.6138  -30.1766   22.1891 C   0  0  1  0  0  0  0  0  0  0  0  0
  -25.4984  -14.8281   22.6241 C   0  0  2  0  0  0  0  0  0  0  0  0
  -20.1185  -23.8196   24.9047 C   0  0  0  0  0  0  0  0  0  0  0  0
  -24.1557  -28.8002   26.5677 C   0  0  0  0  0  0  0  0  0  0  0  0
  -23.1287  -26.5894   27.1383 C   0  0  0  0  0  0  0  0  0  0  0  0
  -21.6752  -28.5895   26.8075 C   0  0  0  0  0  0  0  0  0  0  0  0
  -20.6851  -24.7151   21.2505 C   0  0  0  0  0  0  0  0  0  0  0  0
  -28.7256  -22.3251   18.8804 C   0  0  0  0  0  0  0  0  0  0  0  0
  -29.1148  -24.7192   18.2843 C   0  0  0  0  0  0  0  0  0  0  0  0
  -28.4636  -26.0871   18.3385 C   0  0  0  0  0  0  0  0  0  1  0  0
  -22.7784  -27.5138   24.8030 C   0  0  1  0  0  0  0  0  0  0  0  0
  -20.4242  -24.7415   23.7344 C   0  0  2  0  0  0  0  0  0  0  0  0
  -22.9496  -27.8764   26.3052 C   0  0  0  0  0  0  0  0  0  0  0  0
  -24.5231  -12.6260   22.0941 N   0  0  0  0  0  0  0  0  0  0  0  0
  -25.3458  -13.6202   21.7187 N   0  0  0  0  0  0  0  0  0  0  0  0
  -23.5919  -28.9155   22.9328 N   0  0  0  0  0  0  0  0  0  0  0  0
  -24.7050  -17.0986   23.1588 N   0  0  0  0  0  0  0  0  0  0  0  0
  -26.8209  -14.3023   19.9955 N   0  0  0  0  0  0  0  0  0  0  0  0
  -25.3321  -10.2861   18.5637 N   0  0  0  0  0  0  0  0  0  0  0  0
  -25.2359  -18.5793   21.4016 N   0  0  0  0  0  0  0  0  0  0  0  0
  -24.2879  -32.4131   22.8228 N   0  0  0  0  0  0  0  0  0  0  0  0
  -21.6280  -26.6619   24.5213 N   0  0  0  0  0  0  0  0  0  0  0  0
  -20.4208  -23.9306   22.4841 N   0  3  0  0  0  0  0  0  0  0  0  0
  -28.2064  -23.7193   18.9003 N   0  3  0  0  0  0  0  0  0  0  0  0
  -26.7109  -12.0481   18.0607 O   0  0  0  0  0  0  0  0  0  0  0  0
  -25.5984  -30.5780   23.4036 O   0  0  0  0  0  0  0  0  0  0  0  0
  -21.6727  -29.4986   24.1215 O   0  0  0  0  0  0  0  0  0  0  0  0
  -22.8256  -24.9310   23.5481 O   0  0  0  0  0  0  0  0  0  0  0  0
  -25.1821  -19.3170   23.6004 O   0  0  0  0  0  0  0  0  0  0  0  0
  -21.7192   -6.9767   21.2152 O   0  0  0  0  0  0  0  0  0  0  0  0
  -28.2310  -26.4518   19.6983 O   0  0  0  0  0  0  0  0  0  1  0  0
  -21.6494   -4.1455   25.9463 F   0  0  0  0  0  0  0  0  0  0  0  0
  -22.6836   -4.3885   21.3336 F   0  0  0  0  0  0  0  0  0  0  0  0
  -25.2707  -18.5183   18.3551 Cl  0  0  0  0  0  0  0  0  0  0  0  0
  -28.6413  -22.3384   21.9635 Cl  0  0  0  0  0  0  0  0  0  0  0  0
  1  2  1  0  0  0  0
  1  5  2  0  0  0  0
  2  6  2  0  0  0  0
  3  8  2  0  0  0  0
  3 17  1  0  0  0  0
  4  9  1  0  0  0  0
  4 17  2  0  0  0  0
  5 19  1  0  0  0  0
  6 21  1  0  0  0  0
  7 10  2  0  0  0  0
  7 20  1  0  0  0  0
  8 25  1  0  0  0  0
  9 25  2  0  0  0  0
 10 26  1  0  0  0  0
 11 12  2  0  0  0  0
 11 27  1  0  0  0  0
 12 28  1  0  0  0  0
 13 22  1  0  0  0  0
 13 26  2  0  0  0  0
 14 23  1  0  0  0  0
 14 30  2  0  0  0  0
 15 24  2  0  0  0  0
 15 31  1  0  0  0  0
 16 28  2  0  0  0  0
 16 29  1  0  0  0  0
 17 32  1  0  0  0  0
 18 32  1  0  0  0  0
 18 33  2  0  0  0  0
 18 34  1  0  0  0  0
 19 21  2  0  0  0  0
 19 39  1  0  0  0  0
 20 22  2  0  0  0  0
 20 40  1  0  0  0  0
 21 48  1  0  0  0  0
 22 41  1  0  0  0  0
 23 31  2  0  0  0  0
 23 56  1  0  0  0  0
 24 30  1  0  0  0  0
 24 68  1  0  0  0  0
 25 78  1  0  0  0  0
 26 79  1  0  0  0  0
 27 29  2  0  0  0  0
 27 78  1  0  0  0  0
 28 80  1  0  0  0  0
 29 81  1  0  0  0  0
 30 82  1  0  0  0  0
 31 83  1  0  0  0  0
 32 62  2  0  0  0  0
 33 63  1  0  0  0  0
 33 66  1  0  0  0  0
 34 67  1  0  0  0  0
 34 73  2  0  0  0  0
 35 49  1  0  0  0  0
 35 69  1  0  0  0  0
 35 74  2  0  0  0  0
 36 59  1  0  0  0  0
 36 64  1  0  0  0  0
 36 75  2  0  0  0  0
 37 60  1  0  0  0  0
 37 70  1  0  0  0  0
 37 76  2  0  0  0  0
 38 65  1  0  0  0  0
 38 68  1  0  0  0  0
 38 77  2  0  0  0  0
 39 42  1  0  0  0  0
 40 49  1  0  0  0  0
 41 64  1  0  0  0  0
 42 44  1  0  0  0  0
 43 45  1  0  0  0  0
 43 46  1  0  0  0  0
 44 48  1  0  0  0  0
 45 50  1  0  0  0  0
 46 65  1  0  0  0  0
 47 50  1  0  0  0  0
 47 65  1  0  0  0  0
 48 69  1  0  0  0  0
 49 64  1  0  0  0  0
 50 63  1  0  0  0  0
 51 60  1  0  0  0  0
 52 61  1  0  0  0  0
 53 61  1  0  0  0  0
 54 61  1  0  0  0  0
 55 71  1  0  0  0  0
 56 72  1  0  0  0  0
 57 58  1  0  0  0  0
 57 72  1  0  0  0  0
 58 79  1  0  0  0  0
 59 61  1  0  0  0  0
 59 70  1  0  0  0  0
 60 71  1  0  0  0  0
 62 63  1  0  0  0  0
M  CHG  2  71   1  72   1
M  ISO  4  38 100  58 101  68 100  79 101
M  END
> <Batch ID>
0040

> <Smiles>
CNC(C)C(=O)NC(C(=O)N1Cc2cc([101O:1][101CH2:1]CNCc3cc(Cl)c([100NH:0][100C:0](=O)N4CCCC(n5nc(-c6ccc(Oc7ccc(F)cc7F)cc6)c(C(N)=O)c5N)C4)cc3Cl)ccc2CC1C(=O)NC1CCCc2ccccc21)C(C)(C)C

> <Shape>
0.270

> <Color>
0.114

> <Negative vol penalty>
0.000

$$$$

  -OEChem-04042322063D

 87 96  0     1  0  0  0  0  0999 V2000
  -16.5321  -29.8995   22.8467 C   0  0  0  0  0  0  0  0  0  0  0  0
  -17.5171  -30.7362   23.3618 C   0  0  0  0  0  0  0  0  0  0  0  0
  -27.1347  -15.9297   22.9281 C   0  0  0  0  0  0  0  0  0  0  0  0
  -24.8335  -16.5190   22.4876 C   0  0  0  0  0  0  0  0  0  0  0  0
  -16.8518  -28.5939   22.4763 C   0  0  0  0  0  0  0  0  0  0  0  0
  -18.8222  -30.2673   23.5077 C   0  0  0  0  0  0  0  0  0  0  0  0
  -25.6223  -32.5011   23.2157 C   0  0  0  0  0  0  0  0  0  0  0  0
  -27.0311  -14.8600   22.0389 C   0  0  0  0  0  0  0  0  0  0  0  0
  -24.7298  -15.4493   21.5983 C   0  0  0  0  0  0  0  0  0  0  0  0
  -26.7932  -32.4894   23.9724 C   0  0  0  0  0  0  0  0  0  0  0  0
  -25.7587  -11.7287   22.0476 C   0  0  0  0  0  0  0  0  0  0  0  0
  -26.2839  -10.5003   22.4486 C   0  0  0  0  0  0  0  0  0  0  0  0
  -27.2466  -30.2410   23.2252 C   0  0  0  0  0  0  0  0  0  0  0  0
  -31.6464  -24.5031   28.1451 C   0  0  0  0  0  0  0  0  0  0  0  0
  -30.1259  -25.8161   26.2095 C   0  0  0  0  0  0  0  0  0  0  0  0
  -27.7898  -10.5274   20.5596 C   0  0  0  0  0  0  0  0  0  0  0  0
  -26.0359  -16.7591   23.1525 C   0  0  0  0  0  0  0  0  0  0  0  0
  -26.4520  -17.8018   25.4432 C   0  0  0  0  0  0  0  0  0  0  0  0
  -18.1635  -28.1119   22.6088 C   0  0  0  0  0  0  0  0  0  0  0  0
  -25.2485  -31.3769   22.4654 C   0  0  0  0  0  0  0  0  0  0  0  0
  -19.1594  -28.9536   23.1400 C   0  0  0  0  0  0  0  0  0  0  0  0
  -26.0718  -30.2419   22.4578 C   0  0  0  0  0  0  0  0  0  0  0  0
  -32.0249  -25.7705   27.7025 C   0  0  0  0  0  0  0  0  0  0  0  0
  -30.5077  -23.8921   27.6199 C   0  0  0  0  0  0  0  0  0  0  0  0
  -31.2646  -26.4270   26.7347 C   0  0  0  0  0  0  0  0  0  0  0  0
  -29.7475  -24.5486   26.6521 C   0  0  0  0  0  0  0  0  0  0  0  0
  -25.8286  -14.6199   21.3740 C   0  0  0  0  0  0  0  0  0  0  0  0
  -27.6041  -31.3583   23.9795 C   0  0  0  0  0  0  0  0  0  0  0  0
  -26.2491  -12.3564   20.9025 C   0  0  0  0  0  0  0  0  0  0  0  0
  -27.2994   -9.8996   21.7046 C   0  0  0  0  0  0  0  0  0  0  0  0
  -27.2647  -11.7558   20.1585 C   0  0  0  0  0  0  0  0  0  0  0  0
  -26.1421  -17.8639   24.0714 C   0  0  0  0  0  0  0  0  0  0  0  0
  -26.4290  -19.1103   25.8600 C   0  0  0  0  0  0  0  0  0  0  0  0
  -30.0071  -29.4195   25.3977 C   0  0  0  0  0  0  0  0  0  0  0  0
  -26.7355  -16.6631   26.2671 C   0  0  0  0  0  0  0  0  0  0  0  0
  -22.7713  -29.3853   22.4912 C   0  0  0  0  0  0  0  0  0  0  0  0
  -24.1899  -28.2059   19.8231 C   0  0  0  0  0  0  0  0  0  0  0  0
  -27.5474  -27.4461   18.7426 C   0  0  0  0  0  0  0  0  0  0  0  0
  -27.7339  -24.4752   25.1401 C   0  0  0  0  0  0  0  0  0  0  0  0
  -18.4509  -26.6782   22.2391 C   0  0  0  0  0  0  0  0  0  0  0  0
  -23.9961  -31.4150   21.6333 C   0  0  0  0  0  0  0  0  0  0  0  0
  -25.7257  -29.0165   21.6533 C   0  0  0  0  0  0  0  0  0  0  0  0
  -19.9386  -26.3778   22.0756 C   0  0  0  0  0  0  0  0  0  0  0  0
  -29.1806  -30.0026   28.1479 C   0  0  0  0  0  0  0  0  0  0  0  0
  -24.7993  -23.2874   23.5108 C   0  0  0  0  0  0  0  0  0  0  0  0
  -20.7325  -26.9633   23.2391 C   0  0  0  0  0  0  0  0  0  0  0  0
  -28.9951  -31.0483   27.0684 C   0  0  0  0  0  0  0  0  0  0  0  0
  -24.9126  -21.7654   23.6243 C   0  0  0  0  0  0  0  0  0  0  0  0
  -30.4414  -29.2029   27.8728 C   0  0  0  0  0  0  0  0  0  0  0  0
  -26.1617  -23.9426   23.2909 C   0  0  0  0  0  0  0  0  0  0  0  0
  -27.3055  -22.0543   24.3842 C   0  0  0  0  0  0  0  0  0  0  0  0
  -20.5919  -28.4894   23.2903 C   0  0  1  0  0  0  0  0  0  0  0  0
  -28.8507  -30.3546   25.7281 C   0  0  1  0  0  0  0  0  0  1  0  0
  -23.4486  -30.0275   21.3137 C   0  0  1  0  0  0  0  0  0  0  0  0
  -25.9666  -21.3552   24.6713 C   0  0  2  0  0  0  0  0  0  0  0  0
  -33.2480  -26.4046   28.2789 C   0  0  0  0  0  0  0  0  0  0  0  0
  -30.1258  -22.5340   28.1126 C   0  0  0  0  0  0  0  0  0  0  0  0
  -28.5439  -27.3759   16.4405 C   0  0  0  0  0  0  0  0  0  0  0  0
  -23.5262  -25.2301   19.9411 C   0  0  0  0  0  0  0  0  0  0  0  0
  -25.6811  -24.7734   18.7512 C   0  0  0  0  0  0  0  0  0  0  0  0
  -23.9046  -26.1239   17.6363 C   0  0  0  0  0  0  0  0  0  0  0  0
  -29.6784  -29.3626   19.4806 C   0  0  0  0  0  0  0  0  0  0  0  0
  -31.6526  -27.7915   26.2428 C   0  0  0  0  0  0  0  0  0  0  0  0
  -25.2195  -27.1380   19.5428 C   0  0  1  0  0  0  0  0  0  0  0  0
  -28.3608  -28.1996   17.7058 C   0  0  2  0  0  0  0  0  0  0  0  0
  -24.5826  -25.8307   18.9924 C   0  0  0  0  0  0  0  0  0  0  0  0
  -25.9371  -19.1130   23.6451 N   0  0  0  0  0  0  0  0  0  0  0  0
  -26.1185  -19.8479   24.7555 N   0  0  0  0  0  0  0  0  0  0  0  0
  -30.6054  -28.7755   26.4824 N   0  0  0  0  0  0  0  0  0  0  0  0
  -24.4877  -29.1003   20.8609 N   0  0  0  0  0  0  0  0  0  0  0  0
  -27.1074  -23.5110   24.3225 N   0  0  0  0  0  0  0  0  0  0  0  0
  -26.6443  -19.6905   27.0598 N   0  0  0  0  0  0  0  0  0  0  0  0
  -26.7172  -15.3914   25.6784 N   0  0  0  0  0  0  0  0  0  0  0  0
  -28.5875  -23.9447   26.1067 N   0  0  0  0  0  0  0  0  0  0  0  0
  -21.4328  -29.1084   22.2882 N   0  0  0  0  0  0  0  0  0  0  0  0
  -26.2040  -27.7437   18.6528 N   0  0  0  0  0  0  0  0  0  0  0  0
  -29.7081  -28.5344   18.2477 N   0  3  0  0  0  0  0  0  0  0  0  0
  -30.3196  -29.2206   24.2208 O   0  0  0  0  0  0  0  0  0  0  0  0
  -26.9810  -16.7689   27.4927 O   0  0  0  0  0  0  0  0  0  0  0  0
  -23.4157  -29.1566   23.5081 O   0  0  0  0  0  0  0  0  0  0  0  0
  -23.1627  -28.2494   19.1415 O   0  0  0  0  0  0  0  0  0  0  0  0
  -28.0526  -26.6682   19.5489 O   0  0  0  0  0  0  0  0  0  0  0  0
  -27.5074  -25.6811   25.0113 O   0  0  0  0  0  0  0  0  0  0  0  0
  -25.7272  -13.5763   20.5060 O   0  0  0  0  0  0  0  0  0  0  0  0
  -28.7472  -31.3441   24.7177 O   0  0  0  0  0  0  0  0  0  1  0  0
  -27.8047   -8.7207   22.0907 F   0  0  0  0  0  0  0  0  0  0  0  0
  -27.7406  -12.3546   19.0582 F   0  0  0  0  0  0  0  0  0  0  0  0
  1  2  1  0  0  0  0
  1  5  2  0  0  0  0
  2  6  2  0  0  0  0
  3  8  2  0  0  0  0
  3 17  1  0  0  0  0
  4  9  1  0  0  0  0
  4 17  2  0  0  0  0
  5 19  1  0  0  0  0
  6 21  1  0  0  0  0
  7 10  2  0  0  0  0
  7 20  1  0  0  0  0
  8 27  1  0  0  0  0
  9 27  2  0  0  0  0
 10 28  1  0  0  0  0
 11 12  2  0  0  0  0
 11 29  1  0  0  0  0
 12 30  1  0  0  0  0
 13 22  1  0  0  0  0
 13 28  2  0  0  0  0
 14 23  1  0  0  0  0
 14 24  2  0  0  0  0
 15 25  1  0  0  0  0
 15 26  2  0  0  0  0
 16 30  2  0  0  0  0
 16 31  1  0  0  0  0
 17 32  1  0  0  0  0
 18 32  1  0  0  0  0
 18 33  2  0  0  0  0
 18 35  1  0  0  0  0
 19 21  2  0  0  0  0
 19 40  1  0  0  0  0
 20 22  2  0  0  0  0
 20 41  1  0  0  0  0
 21 52  1  0  0  0  0
 22 42  1  0  0  0  0
 23 25  2  0  0  0  0
 23 56  1  0  0  0  0
 24 26  1  0  0  0  0
 24 57  1  0  0  0  0
 25 63  1  0  0  0  0
 26 74  1  0  0  0  0
 27 84  1  0  0  0  0
 28 85  1  0  0  0  0
 29 31  2  0  0  0  0
 29 84  1  0  0  0  0
 30 86  1  0  0  0  0
 31 87  1  0  0  0  0
 32 67  2  0  0  0  0
 33 68  1  0  0  0  0
 33 72  1  0  0  0  0
 34 53  1  0  0  0  0
 34 69  1  0  0  0  0
 34 78  2  0  0  0  0
 35 73  1  0  0  0  0
 35 79  2  0  0  0  0
 36 54  1  0  0  0  0
 36 75  1  0  0  0  0
 36 80  2  0  0  0  0
 37 64  1  0  0  0  0
 37 70  1  0  0  0  0
 37 81  2  0  0  0  0
 38 65  1  0  0  0  0
 38 76  1  0  0  0  0
 38 82  2  0  0  0  0
 39 71  1  0  0  0  0
 39 74  1  0  0  0  0
 39 83  2  0  0  0  0
 40 43  1  0  0  0  0
 41 54  1  0  0  0  0
 42 70  1  0  0  0  0
 43 46  1  0  0  0  0
 44 47  1  0  0  0  0
 44 49  1  0  0  0  0
 45 48  1  0  0  0  0
 45 50  1  0  0  0  0
 46 52  1  0  0  0  0
 47 53  1  0  0  0  0
 48 55  1  0  0  0  0
 49 69  1  0  0  0  0
 50 71  1  0  0  0  0
 51 55  1  0  0  0  0
 51 71  1  0  0  0  0
 52 75  1  0  0  0  0
 53 85  1  0  0  0  0
 54 70  1  0  0  0  0
 55 68  1  0  0  0  0
 58 65  1  0  0  0  0
 59 66  1  0  0  0  0
 60 66  1  0  0  0  0
 61 66  1  0  0  0  0
 62 77  1  0  0  0  0
 63 69  1  0  0  0  0
 64 66  1  0  0  0  0
 64 76  1  0  0  0  0
 65 77  1  0  0  0  0
 67 68  1  0  0  0  0
M  CHG  1  77   1
M  ISO  4  39 100  53 101  74 100  85 101
M  END
> <Batch ID>
0040

> <Smiles>
CNC(C)C(=O)NC(C(=O)N1Cc2cc([101O:1][101CH:1]3CCCN(Cc4cc([100NH:0][100C:0](=O)N5CCCC(n6nc(-c7ccc(Oc8ccc(F)cc8F)cc7)c(C(N)=O)c6N)C5)c(C)cc4C)C3=O)ccc2CC1C(=O)NC1CCCc2ccccc21)C(C)(C)C

> <Shape>
0.205

> <Color>
0.097

> <Negative vol penalty>
0.000

$$$$

  -OEChem-04042322063D

 85 93  0     1  0  0  0  0  0999 V2000
  -19.8760  -31.0565   24.1643 C   0  0  0  0  0  0  0  0  0  0  0  0
  -21.1773  -30.5788   24.0464 C   0  0  0  0  0  0  0  0  0  0  0  0
  -23.0295  -12.9325   20.6532 C   0  0  0  0  0  0  0  0  0  0  0  0
  -23.9635  -13.3529   22.8414 C   0  0  0  0  0  0  0  0  0  0  0  0
  -18.8075  -30.2851   23.7092 C   0  0  0  0  0  0  0  0  0  0  0  0
  -21.4107  -29.3287   23.4744 C   0  0  0  0  0  0  0  0  0  0  0  0
  -25.2496  -29.3894   20.1723 C   0  0  0  0  0  0  0  0  0  0  0  0
  -22.6916  -11.6376   21.0462 C   0  0  0  0  0  0  0  0  0  0  0  0
  -23.6255  -12.0579   23.2344 C   0  0  0  0  0  0  0  0  0  0  0  0
  -26.5412  -29.3823   20.6973 C   0  0  0  0  0  0  0  0  0  0  0  0
  -24.2552   -8.6673   21.4425 C   0  0  0  0  0  0  0  0  0  0  0  0
  -24.5390   -7.6273   20.5574 C   0  0  0  0  0  0  0  0  0  0  0  0
  -26.6959  -27.0135   20.2686 C   0  0  0  0  0  0  0  0  0  0  0  0
  -29.7902  -22.1985   21.8646 C   0  0  0  0  0  0  0  0  0  0  0  0
  -27.5170  -22.4172   22.6531 C   0  0  0  0  0  0  0  0  0  0  0  0
  -22.1922   -7.0597   20.4719 C   0  0  0  0  0  0  0  0  0  0  0  0
  -23.6656  -13.7902   21.5508 C   0  0  0  0  0  0  0  0  0  0  0  0
  -29.2193  -23.9426   23.4359 C   0  0  0  0  0  0  0  0  0  0  0  0
  -23.2234  -16.2858   21.2611 C   0  0  0  0  0  0  0  0  0  0  0  0
  -19.0287  -29.0291   23.1225 C   0  0  0  0  0  0  0  0  0  0  0  0
  -24.6664  -28.2045   19.7008 C   0  0  0  0  0  0  0  0  0  0  0  0
  -20.3440  -28.5391   23.0123 C   0  0  0  0  0  0  0  0  0  0  0  0
  -25.3978  -27.0087   19.7357 C   0  0  0  0  0  0  0  0  0  0  0  0
  -30.1673  -23.2883   22.6492 C   0  0  0  0  0  0  0  0  0  0  0  0
  -28.4651  -21.7629   21.8665 C   0  0  0  0  0  0  0  0  0  0  0  0
  -22.9896  -11.2003   22.3368 C   0  0  0  0  0  0  0  0  0  0  0  0
  -27.2635  -28.1937   20.7481 C   0  0  0  0  0  0  0  0  0  0  0  0
  -22.9399   -8.9034   21.8425 C   0  0  0  0  0  0  0  0  0  0  0  0
  -23.5075   -6.8235   20.0720 C   0  0  0  0  0  0  0  0  0  0  0  0
  -27.8941  -23.5070   23.4378 C   0  0  0  0  0  0  0  0  0  0  0  0
  -21.9084   -8.0996   21.3572 C   0  0  0  0  0  0  0  0  0  0  0  0
  -24.0154  -15.1278   21.1452 C   0  0  0  0  0  0  0  0  0  0  0  0
  -24.0022  -17.2884   20.7369 C   0  0  0  0  0  0  0  0  0  0  0  0
  -29.4543  -27.3162   23.8243 C   0  0  0  0  0  0  0  0  0  0  0  0
  -29.5983  -25.1085   24.2808 C   0  0  0  0  0  0  0  0  0  0  0  0
  -21.9018  -16.4413   21.7948 C   0  0  0  0  0  0  0  0  0  0  0  0
  -22.1173  -26.4844   20.5050 C   0  0  0  0  0  0  0  0  0  0  0  0
  -22.9159  -24.7824   17.8615 C   0  0  0  0  0  0  0  0  0  0  0  0
  -25.3339  -23.8327   15.6483 C   0  0  0  0  0  0  0  0  0  0  0  0
  -28.8963  -19.8952   20.2319 C   0  0  0  0  0  0  0  0  0  0  0  0
  -17.8383  -28.2110   22.6884 C   0  0  0  0  0  0  0  0  0  0  0  0
  -23.2823  -28.2340   19.1129 C   0  0  0  0  0  0  0  0  0  0  0  0
  -24.8247  -25.7134   19.2236 C   0  0  0  0  0  0  0  0  0  0  0  0
  -18.1991  -27.0594   21.7536 C   0  0  0  0  0  0  0  0  0  0  0  0
  -28.3389  -17.0719   18.1354 C   0  0  0  0  0  0  0  0  0  0  0  0
  -19.4045  -26.2938   22.2900 C   0  0  0  0  0  0  0  0  0  0  0  0
  -27.0992  -16.4097   18.7410 C   0  0  0  0  0  0  0  0  0  0  0  0
  -29.2518  -17.6576   19.2111 C   0  0  0  0  0  0  0  0  0  0  0  0
  -27.3534  -17.9066   20.7614 C   0  0  0  0  0  0  0  0  0  0  0  0
  -20.6395  -27.1987   22.3750 C   0  0  1  0  0  0  0  0  0  0  0  0
  -22.5950  -26.8722   19.1341 C   0  0  1  0  0  0  0  0  0  0  0  0
  -26.3713  -17.3590   19.7129 C   0  0  2  0  0  0  0  0  0  0  0  0
  -31.5933  -23.7334   22.6285 C   0  0  0  0  0  0  0  0  0  0  0  0
  -25.6932  -22.4053   13.6159 C   0  0  0  0  0  0  0  0  0  0  0  0
  -22.8852  -22.2845   19.6135 C   0  0  0  0  0  0  0  0  0  0  0  0
  -24.1458  -21.0893   17.8106 C   0  0  0  0  0  0  0  0  0  0  0  0
  -21.8632  -21.9844   17.3508 C   0  0  0  0  0  0  0  0  0  0  0  0
  -26.1342  -26.1638   14.0098 C   0  0  0  0  0  0  0  0  0  0  0  0
  -29.9136  -28.5950   23.1785 C   0  0  0  0  0  0  0  0  0  0  0  0
  -28.8198  -29.1416   22.2763 C   0  0  0  0  0  0  0  0  0  1  0  0
  -23.8010  -23.5914   17.5839 C   0  0  1  0  0  0  0  0  0  0  0  0
  -25.3517  -23.7949   14.1308 C   0  0  2  0  0  0  0  0  0  0  0  0
  -23.1842  -22.2613   18.1012 C   0  0  0  0  0  0  0  0  0  0  0  0
  -25.2061  -15.3708   20.5909 N   0  0  0  0  0  0  0  0  0  0  0  0
  -30.1217  -26.2194   23.6646 N   0  0  0  0  0  0  0  0  0  0  0  0
  -25.1679  -16.6931   20.3537 N   0  0  0  0  0  0  0  0  0  0  0  0
  -23.4652  -25.7924   18.6640 N   0  0  0  0  0  0  0  0  0  0  0  0
  -28.4946  -18.5499   20.0916 N   0  0  0  0  0  0  0  0  0  0  0  0
  -23.7968  -18.6123   20.5711 N   0  0  0  0  0  0  0  0  0  0  0  0
  -21.2444  -15.3079   22.2923 N   0  0  0  0  0  0  0  0  0  0  0  0
  -28.0814  -20.6560   21.0695 N   0  0  0  0  0  0  0  0  0  0  0  0
  -21.2249  -27.3793   21.0638 N   0  0  0  0  0  0  0  0  0  0  0  0
  -24.0694  -23.6077   16.1500 N   0  0  0  0  0  0  0  0  0  0  0  0
  -29.4914  -25.0960   25.5624 N   0  3  0  0  0  0  0  0  0  0  0  0
  -26.3617  -24.7539   13.6006 N   0  3  0  0  0  0  0  0  0  0  0  0
  -21.3146  -17.5496   21.8145 O   0  0  0  0  0  0  0  0  0  0  0  0
  -22.5268  -25.4492   21.0171 O   0  0  0  0  0  0  0  0  0  0  0  0
  -21.7816  -24.8187   17.3781 O   0  0  0  0  0  0  0  0  0  0  0  0
  -26.3416  -24.0375   16.3214 O   0  0  0  0  0  0  0  0  0  0  0  0
  -29.8743  -20.3465   19.6303 O   0  0  0  0  0  0  0  0  0  0  0  0
  -22.6597   -9.9368   22.7207 O   0  0  0  0  0  0  0  0  0  0  0  0
  -28.5241  -28.1838   21.2606 O   0  0  0  0  0  0  0  0  0  1  0  0
  -23.7800   -5.8259   19.2208 F   0  0  0  0  0  0  0  0  0  0  0  0
  -26.9735  -24.1277   24.1893 F   0  0  0  0  0  0  0  0  0  0  0  0
  -20.6427   -8.3224   21.7369 F   0  0  0  0  0  0  0  0  0  0  0  0
  1  2  1  0  0  0  0
  1  5  2  0  0  0  0
  2  6  2  0  0  0  0
  3  8  2  0  0  0  0
  3 17  1  0  0  0  0
  4  9  1  0  0  0  0
  4 17  2  0  0  0  0
  5 20  1  0  0  0  0
  6 22  1  0  0  0  0
  7 10  2  0  0  0  0
  7 21  1  0  0  0  0
  8 26  1  0  0  0  0
  9 26  2  0  0  0  0
 10 27  1  0  0  0  0
 11 12  2  0  0  0  0
 11 28  1  0  0  0  0
 12 29  1  0  0  0  0
 13 23  1  0  0  0  0
 13 27  2  0  0  0  0
 14 24  2  0  0  0  0
 14 25  1  0  0  0  0
 15 25  2  0  0  0  0
 15 30  1  0  0  0  0
 16 29  2  0  0  0  0
 16 31  1  0  0  0  0
 17 32  1  0  0  0  0
 18 24  1  0  0  0  0
 18 30  2  0  0  0  0
 18 35  1  0  0  0  0
 19 32  1  0  0  0  0
 19 33  2  0  0  0  0
 19 36  1  0  0  0  0
 20 22  2  0  0  0  0
 20 41  1  0  0  0  0
 21 23  2  0  0  0  0
 21 42  1  0  0  0  0
 22 50  1  0  0  0  0
 23 43  1  0  0  0  0
 24 53  1  0  0  0  0
 25 71  1  0  0  0  0
 26 81  1  0  0  0  0
 27 82  1  0  0  0  0
 28 31  2  0  0  0  0
 28 81  1  0  0  0  0
 29 83  1  0  0  0  0
 30 84  1  0  0  0  0
 31 85  1  0  0  0  0
 32 64  2  0  0  0  0
 33 66  1  0  0  0  0
 33 69  1  0  0  0  0
 34 59  1  0  0  0  0
 34 65  2  0  0  0  0
 35 65  1  0  0  0  0
 35 74  2  0  0  0  0
 36 70  1  0  0  0  0
 36 76  2  0  0  0  0
 37 51  1  0  0  0  0
 37 72  1  0  0  0  0
 37 77  2  0  0  0  0
 38 61  1  0  0  0  0
 38 67  1  0  0  0  0
 38 78  2  0  0  0  0
 39 62  1  0  0  0  0
 39 73  1  0  0  0  0
 39 79  2  0  0  0  0
 40 68  1  0  0  0  0
 40 71  1  0  0  0  0
 40 80  2  0  0  0  0
 41 44  1  0  0  0  0
 42 51  1  0  0  0  0
 43 67  1  0  0  0  0
 44 46  1  0  0  0  0
 45 47  1  0  0  0  0
 45 48  1  0  0  0  0
 46 50  1  0  0  0  0
 47 52  1  0  0  0  0
 48 68  1  0  0  0  0
 49 52  1  0  0  0  0
 49 68  1  0  0  0  0
 50 72  1  0  0  0  0
 51 67  1  0  0  0  0
 52 66  1  0  0  0  0
 54 62  1  0  0  0  0
 55 63  1  0  0  0  0
 56 63  1  0  0  0  0
 57 63  1  0  0  0  0
 58 75  1  0  0  0  0
 59 60  1  0  0  0  0
 60 82  1  0  0  0  0
 61 63  1  0  0  0  0
 61 73  1  0  0  0  0
 62 75  1  0  0  0  0
 64 66  1  0  0  0  0
M  CHG  2  74   1  75   1
M  ISO  4  40 100  60 101  71 100  82 101
M  END
> <Batch ID>
0040

> <Smiles>
CNC(C)C(=O)NC(C(=O)N1Cc2cc([101O:1][101CH2:1]CC=NC(=N)c3c(C)cc([100NH:0][100C:0](=O)N4CCCC(n5nc(-c6ccc(Oc7ccc(F)cc7F)cc6)c(C(N)=O)c5N)C4)cc3F)ccc2CC1C(=O)NC1CCCc2ccccc21)C(C)(C)C

> <Shape>
0.214

> <Color>
0.070

> <Negative vol penalty>
0.000

$$$$

  -OEChem-04042322063D

 84 92  0     1  0  0  0  0  0999 V2000
  -31.9700  -21.6664   21.8055 C   0  0  0  0  0  0  0  0  0  0  0  0
  -30.6307  -22.0226   21.9269 C   0  0  0  0  0  0  0  0  0  0  0  0
  -29.5171  -26.8659   18.6902 C   0  0  0  0  0  0  0  0  0  0  0  0
  -29.0593  -25.8800   20.8479 C   0  0  0  0  0  0  0  0  0  0  0  0
  -32.3333  -20.5897   20.9977 C   0  0  0  0  0  0  0  0  0  0  0  0
  -29.6539  -21.3030   21.2395 C   0  0  0  0  0  0  0  0  0  0  0  0
  -25.6334  -20.2368   24.1281 C   0  0  0  0  0  0  0  0  0  0  0  0
  -30.8254  -26.3858   18.7484 C   0  0  0  0  0  0  0  0  0  0  0  0
  -30.3676  -25.3999   20.9061 C   0  0  0  0  0  0  0  0  0  0  0  0
  -24.7148  -21.2630   24.3444 C   0  0  0  0  0  0  0  0  0  0  0  0
  -34.1798  -25.1117   18.1656 C   0  0  0  0  0  0  0  0  0  0  0  0
  -34.7005  -24.5078   17.0211 C   0  0  0  0  0  0  0  0  0  0  0  0
  -23.2790  -20.3275   22.6466 C   0  0  0  0  0  0  0  0  0  0  0  0
  -18.7570  -28.1469   21.6290 C   0  0  0  0  0  0  0  0  0  0  0  0
  -18.4380  -25.8823   22.4079 C   0  0  0  0  0  0  0  0  0  0  0  0
  -32.9484  -22.8462   17.1007 C   0  0  0  0  0  0  0  0  0  0  0  0
  -28.6340  -26.6130   19.7400 C   0  0  0  0  0  0  0  0  0  0  0  0
  -26.1590  -26.4533   19.1429 C   0  0  0  0  0  0  0  0  0  0  0  0
  -31.3596  -19.8504   20.3077 C   0  0  0  0  0  0  0  0  0  0  0  0
  -25.3863  -19.2528   23.1601 C   0  0  0  0  0  0  0  0  0  0  0  0
  -30.0047  -20.2162   20.4207 C   0  0  0  0  0  0  0  0  0  0  0  0
  -24.1949  -19.2885   22.4217 C   0  0  0  0  0  0  0  0  0  0  0  0
  -19.5816  -28.4072   22.7235 C   0  0  0  0  0  0  0  0  0  0  0  0
  -19.2626  -26.1425   23.5024 C   0  0  0  0  0  0  0  0  0  0  0  0
  -19.8344  -27.4050   23.6601 C   0  0  0  0  0  0  0  0  0  0  0  0
  -31.2507  -25.6528   19.8563 C   0  0  0  0  0  0  0  0  0  0  0  0
  -23.5387  -21.3101   23.6017 C   0  0  0  0  0  0  0  0  0  0  0  0
  -33.0434  -24.5828   18.7776 C   0  0  0  0  0  0  0  0  0  0  0  0
  -34.0848  -23.3751   16.4886 C   0  0  0  0  0  0  0  0  0  0  0  0
  -32.4277  -23.4501   18.2452 C   0  0  0  0  0  0  0  0  0  0  0  0
  -18.1851  -26.8845   21.4712 C   0  0  0  0  0  0  0  0  0  0  0  0
  -27.2826  -27.1092   19.6807 C   0  0  0  0  0  0  0  0  0  0  0  0
  -25.1242  -27.3372   19.3281 C   0  0  0  0  0  0  0  0  0  0  0  0
  -26.0597  -25.1606   18.5307 C   0  0  0  0  0  0  0  0  0  0  0  0
  -26.8310  -18.3250   20.4851 C   0  0  0  0  0  0  0  0  0  0  0  0
  -24.5965  -15.9746   20.5548 C   0  0  0  0  0  0  0  0  0  0  0  0
  -21.5307  -14.9225   21.6228 C   0  0  0  0  0  0  0  0  0  0  0  0
  -22.3311  -30.9595   22.5254 C   0  0  0  0  0  0  0  0  0  0  0  0
  -31.8050  -18.7241   19.4091 C   0  0  0  0  0  0  0  0  0  0  0  0
  -26.3749  -18.1374   22.9574 C   0  0  0  0  0  0  0  0  0  0  0  0
  -23.8729  -18.2446   21.3848 C   0  0  0  0  0  0  0  0  0  0  0  0
  -30.6741  -17.7795   19.0102 C   0  0  0  0  0  0  0  0  0  0  0  0
  -25.1556  -32.1934   20.7432 C   0  0  0  0  0  0  0  0  0  0  0  0
  -29.4478  -18.5717   18.5683 C   0  0  0  0  0  0  0  0  0  0  0  0
  -25.8709  -30.9270   20.2693 C   0  0  0  0  0  0  0  0  0  0  0  0
  -24.5396  -32.0088   22.1283 C   0  0  0  0  0  0  0  0  0  0  0  0
  -24.3635  -29.5747   21.7852 C   0  0  0  0  0  0  0  0  0  0  0  0
  -28.9137  -19.4445   19.7105 C   0  0  1  0  0  0  0  0  0  0  0  0
  -26.2592  -17.4780   21.5866 C   0  0  1  0  0  0  0  0  0  0  0  0
  -24.9530  -29.6938   20.3693 C   0  0  2  0  0  0  0  0  0  0  0  0
  -20.7180  -27.6843   24.8343 C   0  0  0  0  0  0  0  0  0  0  0  0
  -19.9617  -12.9686   21.4887 C   0  0  0  0  0  0  0  0  0  0  0  0
  -23.8449  -16.7767   17.7085 C   0  0  0  0  0  0  0  0  0  0  0  0
  -21.7167  -15.4865   17.9813 C   0  0  0  0  0  0  0  0  0  0  0  0
  -23.9122  -14.3098   18.1138 C   0  0  0  0  0  0  0  0  0  0  0  0
  -21.5986  -14.5182   24.5539 C   0  0  0  0  0  0  0  0  0  0  0  0
  -20.1817  -29.7674   22.8695 C   0  0  0  0  0  0  0  0  0  0  0  0
  -19.5193  -25.0478   24.4956 C   0  0  0  0  0  0  0  0  0  0  0  0
  -21.1829  -23.4068   25.3778 C   0  0  0  0  0  0  0  0  0  0  0  0
  -22.5743  -22.8602   25.1258 C   0  0  0  0  0  0  0  0  0  1  0  0
  -23.1958  -15.8147   20.0148 C   0  0  1  0  0  0  0  0  0  0  0  0
  -21.0816  -13.6288   22.2778 C   0  0  2  0  0  0  0  0  0  0  0  0
  -23.1741  -15.6179   18.4727 C   0  0  0  0  0  0  0  0  0  0  0  0
  -26.9892  -28.3166   20.1707 N   0  0  0  0  0  0  0  0  0  0  0  0
  -25.6696  -28.4264   19.9414 N   0  0  0  0  0  0  0  0  0  0  0  0
  -24.8739  -17.1778   21.2190 N   0  0  0  0  0  0  0  0  0  0  0  0
  -23.6792  -30.8235   22.1553 N   0  0  0  0  0  0  0  0  0  0  0  0
  -23.8100  -27.2811   19.0245 N   0  0  0  0  0  0  0  0  0  0  0  0
  -27.2202  -24.3825   18.4205 N   0  0  0  0  0  0  0  0  0  0  0  0
  -28.1657  -18.6408   20.6534 N   0  0  0  0  0  0  0  0  0  0  0  0
  -22.5915  -14.7195   20.7656 N   0  0  0  0  0  0  0  0  0  0  0  0
  -21.5843  -29.7877   22.5186 N   0  0  0  0  0  0  0  0  0  0  0  0
  -20.5909  -13.8912   23.6603 N   0  3  0  0  0  0  0  0  0  0  0  0
  -20.8771  -24.4526   24.3693 N   0  3  0  0  0  0  0  0  0  0  0  0
  -24.9771  -24.7157   18.0794 O   0  0  0  0  0  0  0  0  0  0  0  0
  -26.1148  -18.6654   19.5508 O   0  0  0  0  0  0  0  0  0  0  0  0
  -25.4123  -15.0624   20.3994 O   0  0  0  0  0  0  0  0  0  0  0  0
  -20.9918  -16.0043   21.8462 O   0  0  0  0  0  0  0  0  0  0  0  0
  -21.8287  -32.0456   22.8336 O   0  0  0  0  0  0  0  0  0  0  0  0
  -32.5272  -25.1839   19.9134 O   0  0  0  0  0  0  0  0  0  0  0  0
  -22.6406  -22.3110   23.8104 O   0  0  0  0  0  0  0  0  0  1  0  0
  -34.5841  -22.7963   15.3887 F   0  0  0  0  0  0  0  0  0  0  0  0
  -31.3350  -22.9381   18.8281 F   0  0  0  0  0  0  0  0  0  0  0  0
  -17.1673  -26.5631   20.1209 Cl  0  0  0  0  0  0  0  0  0  0  0  0
  1  2  1  0  0  0  0
  1  5  2  0  0  0  0
  2  6  2  0  0  0  0
  3  8  2  0  0  0  0
  3 17  1  0  0  0  0
  4  9  1  0  0  0  0
  4 17  2  0  0  0  0
  5 19  1  0  0  0  0
  6 21  1  0  0  0  0
  7 10  2  0  0  0  0
  7 20  1  0  0  0  0
  8 26  1  0  0  0  0
  9 26  2  0  0  0  0
 10 27  1  0  0  0  0
 11 12  2  0  0  0  0
 11 28  1  0  0  0  0
 12 29  1  0  0  0  0
 13 22  1  0  0  0  0
 13 27  2  0  0  0  0
 14 23  2  0  0  0  0
 14 31  1  0  0  0  0
 15 24  1  0  0  0  0
 15 31  2  0  0  0  0
 16 29  2  0  0  0  0
 16 30  1  0  0  0  0
 17 32  1  0  0  0  0
 18 32  1  0  0  0  0
 18 33  2  0  0  0  0
 18 34  1  0  0  0  0
 19 21  2  0  0  0  0
 19 39  1  0  0  0  0
 20 22  2  0  0  0  0
 20 40  1  0  0  0  0
 21 48  1  0  0  0  0
 22 41  1  0  0  0  0
 23 25  1  0  0  0  0
 23 57  1  0  0  0  0
 24 25  2  0  0  0  0
 24 58  1  0  0  0  0
 25 51  1  0  0  0  0
 26 80  1  0  0  0  0
 27 81  1  0  0  0  0
 28 30  2  0  0  0  0
 28 80  1  0  0  0  0
 29 82  1  0  0  0  0
 30 83  1  0  0  0  0
 31 84  1  0  0  0  0
 32 64  2  0  0  0  0
 33 65  1  0  0  0  0
 33 68  1  0  0  0  0
 34 69  1  0  0  0  0
 34 75  2  0  0  0  0
 35 49  1  0  0  0  0
 35 70  1  0  0  0  0
 35 76  2  0  0  0  0
 36 61  1  0  0  0  0
 36 66  1  0  0  0  0
 36 77  2  0  0  0  0
 37 62  1  0  0  0  0
 37 71  1  0  0  0  0
 37 78  2  0  0  0  0
 38 67  1  0  0  0  0
 38 72  1  0  0  0  0
 38 79  2  0  0  0  0
 39 42  1  0  0  0  0
 40 49  1  0  0  0  0
 41 66  1  0  0  0  0
 42 44  1  0  0  0  0
 43 45  1  0  0  0  0
 43 46  1  0  0  0  0
 44 48  1  0  0  0  0
 45 50  1  0  0  0  0
 46 67  1  0  0  0  0
 47 50  1  0  0  0  0
 47 67  1  0  0  0  0
 48 70  1  0  0  0  0
 49 66  1  0  0  0  0
 50 65  1  0  0  0  0
 52 62  1  0  0  0  0
 53 63  1  0  0  0  0
 54 63  1  0  0  0  0
 55 63  1  0  0  0  0
 56 73  1  0  0  0  0
 57 72  1  0  0  0  0
 58 74  1  0  0  0  0
 59 60  1  0  0  0  0
 59 74  1  0  0  0  0
 60 81  1  0  0  0  0
 61 63  1  0  0  0  0
 61 71  1  0  0  0  0
 62 73  1  0  0  0  0
 64 65  1  0  0  0  0
M  CHG  2  73   1  74   1
M  ISO  4  38 100  60 101  72 100  81 101
M  END
> <Batch ID>
0040

> <Smiles>
CNC(C)C(=O)NC(C(=O)N1Cc2cc([101O:1][101CH2:1]CNCc3cc(Cl)cc(C[100NH:0][100C:0](=O)N4CCCC(n5nc(-c6ccc(Oc7ccc(F)cc7F)cc6)c(C(N)=O)c5N)C4)c3C)ccc2CC1C(=O)NC1CCCc2ccccc21)C(C)(C)C

> <Shape>
0.212

> <Color>
0.068

> <Negative vol penalty>
0.000

$$$$

  -OEChem-04042322063D

 84 92  0     1  0  0  0  0  0999 V2000
  -26.6700  -28.9844   18.1075 C   0  0  0  0  0  0  0  0  0  0  0  0
  -26.7135  -27.7222   18.6910 C   0  0  0  0  0  0  0  0  0  0  0  0
  -31.0891  -21.8747   20.3317 C   0  0  0  0  0  0  0  0  0  0  0  0
  -28.9847  -21.4386   19.2279 C   0  0  0  0  0  0  0  0  0  0  0  0
  -26.0502  -30.0392   18.7761 C   0  0  0  0  0  0  0  0  0  0  0  0
  -26.1381  -27.5144   19.9440 C   0  0  0  0  0  0  0  0  0  0  0  0
  -23.3882  -23.2665   20.1385 C   0  0  0  0  0  0  0  0  0  0  0  0
  -31.2681  -23.0103   19.5419 C   0  0  0  0  0  0  0  0  0  0  0  0
  -29.1636  -22.5743   18.4381 C   0  0  0  0  0  0  0  0  0  0  0  0
  -24.0822  -22.0640   20.2658 C   0  0  0  0  0  0  0  0  0  0  0  0
  -32.1063  -26.2252   18.0664 C   0  0  0  0  0  0  0  0  0  0  0  0
  -32.5375  -27.3922   18.6969 C   0  0  0  0  0  0  0  0  0  0  0  0
  -23.6018  -22.0439   22.6297 C   0  0  0  0  0  0  0  0  0  0  0  0
  -25.6503  -10.5742   21.1007 C   0  0  0  0  0  0  0  0  0  0  0  0
  -24.2481  -12.2611   20.0882 C   0  0  0  0  0  0  0  0  0  0  0  0
  -30.5683  -27.3639   20.0963 C   0  0  0  0  0  0  0  0  0  0  0  0
  -29.9474  -21.0888   20.1747 C   0  0  0  0  0  0  0  0  0  0  0  0
  -29.1210  -19.8417   22.2410 C   0  0  0  0  0  0  0  0  0  0  0  0
  -25.4583  -29.8420   20.0337 C   0  0  0  0  0  0  0  0  0  0  0  0
  -22.8041  -23.8733   21.2596 C   0  0  0  0  0  0  0  0  0  0  0  0
  -25.5108  -28.5679   20.6307 C   0  0  0  0  0  0  0  0  0  0  0  0
  -22.8987  -23.2528   22.5135 C   0  0  0  0  0  0  0  0  0  0  0  0
  -26.7437  -11.4369   21.0239 C   0  0  0  0  0  0  0  0  0  0  0  0
  -25.3415  -13.1238   20.0114 C   0  0  0  0  0  0  0  0  0  0  0  0
  -26.5893  -12.7117   20.4792 C   0  0  0  0  0  0  0  0  0  0  0  0
  -30.3054  -23.3602   18.5951 C   0  0  0  0  0  0  0  0  0  0  0  0
  -24.1915  -21.4540   21.5120 C   0  0  0  0  0  0  0  0  0  0  0  0
  -30.9060  -25.6275   18.4507 C   0  0  0  0  0  0  0  0  0  0  0  0
  -31.7686  -27.9616   19.7118 C   0  0  0  0  0  0  0  0  0  0  0  0
  -30.1370  -26.1968   19.4657 C   0  0  0  0  0  0  0  0  0  0  0  0
  -24.4025  -10.9863   20.6328 C   0  0  0  0  0  0  0  0  0  0  0  0
  -29.7622  -19.9152   20.9899 C   0  0  0  0  0  0  0  0  0  0  0  0
  -29.2090  -18.5175   22.5947 C   0  0  0  0  0  0  0  0  0  0  0  0
  -28.5012  -20.8779   23.0143 C   0  0  0  0  0  0  0  0  0  0  0  0
  -23.2006  -26.6394   22.7746 C   0  0  0  0  0  0  0  0  0  0  0  0
  -20.6355  -25.6258   24.4820 C   0  0  0  0  0  0  0  0  0  0  0  0
  -18.7394  -23.0118   25.5859 C   0  0  0  0  0  0  0  0  0  0  0  0
  -29.0423  -13.2396   20.2545 C   0  0  0  0  0  0  0  0  0  0  0  0
  -24.8412  -31.0237   20.7390 C   0  0  0  0  0  0  0  0  0  0  0  0
  -22.0360  -25.1567   21.1009 C   0  0  0  0  0  0  0  0  0  0  0  0
  -22.2723  -23.8530   23.7446 C   0  0  0  0  0  0  0  0  0  0  0  0
  -23.9268  -30.6324   21.8970 C   0  0  0  0  0  0  0  0  0  0  0  0
  -32.1114  -14.7391   21.2591 C   0  0  0  0  0  0  0  0  0  0  0  0
  -24.5960  -29.5779   22.7728 C   0  0  0  0  0  0  0  0  0  0  0  0
  -31.7575  -16.2199   21.4150 C   0  0  0  0  0  0  0  0  0  0  0  0
  -31.3681  -14.0986   20.0882 C   0  0  0  0  0  0  0  0  0  0  0  0
  -29.5570  -15.7597   20.2604 C   0  0  0  0  0  0  0  0  0  0  0  0
  -24.8762  -28.2971   21.9775 C   0  0  1  0  0  0  0  0  0  0  0  0
  -21.9201  -25.9483   22.3999 C   0  0  1  0  0  0  0  0  0  0  0  0
  -30.2317  -16.4322   21.4671 C   0  0  2  0  0  0  0  0  0  0  0  0
  -28.0678  -10.9669   21.5332 C   0  0  0  0  0  0  0  0  0  0  0  0
  -16.7290  -22.4936   26.9955 C   0  0  0  0  0  0  0  0  0  0  0  0
  -22.2855  -26.0985   27.0047 C   0  0  0  0  0  0  0  0  0  0  0  0
  -20.6315  -24.7033   28.2640 C   0  0  0  0  0  0  0  0  0  0  0  0
  -19.8970  -26.8213   27.1697 C   0  0  0  0  0  0  0  0  0  0  0  0
  -17.3003  -21.8084   23.2969 C   0  0  0  0  0  0  0  0  0  0  0  0
  -25.1442  -14.4886   19.4203 C   0  0  0  0  0  0  0  0  0  0  0  0
  -24.9559  -17.9687   21.0062 C   0  0  0  0  0  0  0  0  0  0  0  0
  -24.9883  -16.9371   19.8886 C   0  0  0  0  0  0  0  0  0  0  0  0
  -24.8726  -19.4072   20.5107 C   0  0  0  0  0  0  0  0  0  1  0  0
  -20.4415  -24.8102   25.7375 C   0  0  1  0  0  0  0  0  0  0  0  0
  -17.2378  -22.7890   25.5932 C   0  0  2  0  0  0  0  0  0  0  0  0
  -20.8274  -25.5978   27.0213 C   0  0  0  0  0  0  0  0  0  0  0  0
  -30.2236  -18.7318   20.5767 N   0  0  0  0  0  0  0  0  0  0  0  0
  -29.8720  -17.9023   21.5738 N   0  0  0  0  0  0  0  0  0  0  0  0
  -21.5371  -25.1119   23.5392 N   0  0  0  0  0  0  0  0  0  0  0  0
  -29.9280  -14.3369   20.2070 N   0  0  0  0  0  0  0  0  0  0  0  0
  -28.7831  -17.8309   23.6762 N   0  0  0  0  0  0  0  0  0  0  0  0
  -28.4997  -22.1829   22.5032 N   0  0  0  0  0  0  0  0  0  0  0  0
  -27.7000  -13.5880   20.4011 N   0  0  0  0  0  0  0  0  0  0  0  0
  -23.6626  -27.5247   21.8195 N   0  0  0  0  0  0  0  0  0  0  0  0
  -19.0582  -24.3472   25.7137 N   0  0  0  0  0  0  0  0  0  0  0  0
  -16.8801  -21.6416   24.7120 N   0  3  0  0  0  0  0  0  0  0  0  0
  -25.1182  -15.5697   20.4441 N   0  3  0  0  0  0  0  0  0  0  0  0
  -27.9791  -20.6561   24.1331 O   0  0  0  0  0  0  0  0  0  0  0  0
  -23.7296  -26.3891   23.8513 O   0  0  0  0  0  0  0  0  0  0  0  0
  -20.0049  -26.6764   24.3399 O   0  0  0  0  0  0  0  0  0  0  0  0
  -19.5486  -22.0927   25.4813 O   0  0  0  0  0  0  0  0  0  0  0  0
  -29.4474  -12.0757   20.1985 O   0  0  0  0  0  0  0  0  0  0  0  0
  -30.4796  -24.4684   17.8243 O   0  0  0  0  0  0  0  0  0  0  0  0
  -24.8689  -20.2806   21.6391 O   0  0  0  0  0  0  0  0  0  1  0  0
  -32.1836  -29.0815   20.3183 F   0  0  0  0  0  0  0  0  0  0  0  0
  -28.9836  -25.6265   19.8401 F   0  0  0  0  0  0  0  0  0  0  0  0
  -23.0534   -9.9218   20.7276 Cl  0  0  0  0  0  0  0  0  0  0  0  0
  1  2  1  0  0  0  0
  1  5  2  0  0  0  0
  2  6  2  0  0  0  0
  3  8  2  0  0  0  0
  3 17  1  0  0  0  0
  4  9  1  0  0  0  0
  4 17  2  0  0  0  0
  5 19  1  0  0  0  0
  6 21  1  0  0  0  0
  7 10  2  0  0  0  0
  7 20  1  0  0  0  0
  8 26  1  0  0  0  0
  9 26  2  0  0  0  0
 10 27  1  0  0  0  0
 11 12  2  0  0  0  0
 11 28  1  0  0  0  0
 12 29  1  0  0  0  0
 13 22  1  0  0  0  0
 13 27  2  0  0  0  0
 14 23  2  0  0  0  0
 14 31  1  0  0  0  0
 15 24  1  0  0  0  0
 15 31  2  0  0  0  0
 16 29  2  0  0  0  0
 16 30  1  0  0  0  0
 17 32  1  0  0  0  0
 18 32  1  0  0  0  0
 18 33  2  0  0  0  0
 18 34  1  0  0  0  0
 19 21  2  0  0  0  0
 19 39  1  0  0  0  0
 20 22  2  0  0  0  0
 20 40  1  0  0  0  0
 21 48  1  0  0  0  0
 22 41  1  0  0  0  0
 23 25  1  0  0  0  0
 23 51  1  0  0  0  0
 24 25  2  0  0  0  0
 24 57  1  0  0  0  0
 25 70  1  0  0  0  0
 26 80  1  0  0  0  0
 27 81  1  0  0  0  0
 28 30  2  0  0  0  0
 28 80  1  0  0  0  0
 29 82  1  0  0  0  0
 30 83  1  0  0  0  0
 31 84  1  0  0  0  0
 32 64  2  0  0  0  0
 33 65  1  0  0  0  0
 33 68  1  0  0  0  0
 34 69  1  0  0  0  0
 34 75  2  0  0  0  0
 35 49  1  0  0  0  0
 35 71  1  0  0  0  0
 35 76  2  0  0  0  0
 36 61  1  0  0  0  0
 36 66  1  0  0  0  0
 36 77  2  0  0  0  0
 37 62  1  0  0  0  0
 37 72  1  0  0  0  0
 37 78  2  0  0  0  0
 38 67  1  0  0  0  0
 38 70  1  0  0  0  0
 38 79  2  0  0  0  0
 39 42  1  0  0  0  0
 40 49  1  0  0  0  0
 41 66  1  0  0  0  0
 42 44  1  0  0  0  0
 43 45  1  0  0  0  0
 43 46  1  0  0  0  0
 44 48  1  0  0  0  0
 45 50  1  0  0  0  0
 46 67  1  0  0  0  0
 47 50  1  0  0  0  0
 47 67  1  0  0  0  0
 48 71  1  0  0  0  0
 49 66  1  0  0  0  0
 50 65  1  0  0  0  0
 52 62  1  0  0  0  0
 53 63  1  0  0  0  0
 54 63  1  0  0  0  0
 55 63  1  0  0  0  0
 56 73  1  0  0  0  0
 57 74  1  0  0  0  0
 58 59  1  0  0  0  0
 58 60  1  0  0  0  0
 59 74  1  0  0  0  0
 60 81  1  0  0  0  0
 61 63  1  0  0  0  0
 61 72  1  0  0  0  0
 62 73  1  0  0  0  0
 64 65  1  0  0  0  0
M  CHG  2  73   1  74   1
M  ISO  4  38 100  60 101  70 100  81 101
M  END
> <Batch ID>
0040

> <Smiles>
CNC(C)C(=O)NC(C(=O)N1Cc2cc([101O:1][101CH2:1]CCNCc3cc(Cl)cc(C)c3[100NH:0][100C:0](=O)N3CCCC(n4nc(-c5ccc(Oc6ccc(F)cc6F)cc5)c(C(N)=O)c4N)C3)ccc2CC1C(=O)NC1CCCc2ccccc21)C(C)(C)C

> <Shape>
0.235

> <Color>
0.051

> <Negative vol penalty>
0.000

$$$$

  -OEChem-04042322063D

 85 93  0     1  0  0  0  0  0999 V2000
  -22.3889  -17.3701   14.7184 C   0  0  0  0  0  0  0  0  0  0  0  0
  -23.7255  -17.1951   15.0622 C   0  0  0  0  0  0  0  0  0  0  0  0
  -24.0018  -30.6184   20.4222 C   0  0  0  0  0  0  0  0  0  0  0  0
  -23.7834  -29.1768   22.3487 C   0  0  0  0  0  0  0  0  0  0  0  0
  -21.3941  -17.1911   15.6787 C   0  0  0  0  0  0  0  0  0  0  0  0
  -24.0682  -16.8420   16.3670 C   0  0  0  0  0  0  0  0  0  0  0  0
  -28.6975  -13.2306   18.1084 C   0  0  0  0  0  0  0  0  0  0  0  0
  -23.0365  -31.4740   20.9531 C   0  0  0  0  0  0  0  0  0  0  0  0
  -22.8181  -30.0324   22.8796 C   0  0  0  0  0  0  0  0  0  0  0  0
  -29.9786  -13.5106   18.5820 C   0  0  0  0  0  0  0  0  0  0  0  0
  -19.5292  -30.6676   22.4213 C   0  0  0  0  0  0  0  0  0  0  0  0
  -18.3755  -30.0923   22.9538 C   0  0  0  0  0  0  0  0  0  0  0  0
  -29.1850  -13.2789   20.8482 C   0  0  0  0  0  0  0  0  0  0  0  0
  -30.5155  -20.6085   21.5164 C   0  0  0  0  0  0  0  0  0  0  0  0
  -28.5014  -20.0367   19.6728 C   0  0  0  0  0  0  0  0  0  0  0  0
  -18.8799  -31.0709   25.1043 C   0  0  0  0  0  0  0  0  0  0  0  0
  -24.3752  -29.4697   21.1200 C   0  0  0  0  0  0  0  0  0  0  0  0
  -26.7638  -28.6438   20.7738 C   0  0  0  0  0  0  0  0  0  0  0  0
  -21.7241  -16.8262   16.9935 C   0  0  0  0  0  0  0  0  0  0  0  0
  -27.6464  -12.9831   19.0030 C   0  0  0  0  0  0  0  0  0  0  0  0
  -23.0769  -16.6593   17.3461 C   0  0  0  0  0  0  0  0  0  0  0  0
  -27.8921  -12.9936   20.3834 C   0  0  0  0  0  0  0  0  0  0  0  0
  -29.8166  -21.6477   20.9024 C   0  0  0  0  0  0  0  0  0  0  0  0
  -30.2075  -19.2833   21.2086 C   0  0  0  0  0  0  0  0  0  0  0  0
  -28.8095  -21.3619   19.9806 C   0  0  0  0  0  0  0  0  0  0  0  0
  -22.4447  -31.1810   22.1817 C   0  0  0  0  0  0  0  0  0  0  0  0
  -30.2219  -13.5376   19.9521 C   0  0  0  0  0  0  0  0  0  0  0  0
  -20.3583  -31.4446   23.2304 C   0  0  0  0  0  0  0  0  0  0  0  0
  -18.0508  -30.2939   24.2953 C   0  0  0  0  0  0  0  0  0  0  0  0
  -20.0336  -31.6463   24.5719 C   0  0  0  0  0  0  0  0  0  0  0  0
  -29.2004  -18.9974   20.2868 C   0  0  0  0  0  0  0  0  0  0  0  0
  -25.3718  -28.5852   20.5719 C   0  0  0  0  0  0  0  0  0  0  0  0
  -27.2612  -27.5919   20.0440 C   0  0  0  0  0  0  0  0  0  0  0  0
  -27.5381  -29.5665   21.5515 C   0  0  0  0  0  0  0  0  0  0  0  0
  -24.8700  -14.3907   19.6464 C   0  0  0  0  0  0  0  0  0  0  0  0
  -24.4534  -11.8128   21.5707 C   0  0  0  0  0  0  0  0  0  0  0  0
  -25.8693   -9.2930   23.3854 C   0  0  0  0  0  0  0  0  0  0  0  0
  -27.0638  -22.2729   18.4093 C   0  0  0  0  0  0  0  0  0  0  0  0
  -20.6170  -16.6902   18.0087 C   0  0  0  0  0  0  0  0  0  0  0  0
  -26.2761  -12.6564   18.4756 C   0  0  0  0  0  0  0  0  0  0  0  0
  -26.8024  -12.7145   21.3850 C   0  0  0  0  0  0  0  0  0  0  0  0
  -21.0396  -15.9502   19.2752 C   0  0  0  0  0  0  0  0  0  0  0  0
  -25.0165  -24.5892   16.6429 C   0  0  0  0  0  0  0  0  0  0  0  0
  -22.3786  -16.4781   19.7803 C   0  0  0  0  0  0  0  0  0  0  0  0
  -25.0409  -25.8402   17.5243 C   0  0  0  0  0  0  0  0  0  0  0  0
  -25.0069  -23.3087   17.4759 C   0  0  0  0  0  0  0  0  0  0  0  0
  -26.1019  -24.4617   19.3576 C   0  0  0  0  0  0  0  0  0  0  0  0
  -23.4868  -16.2521   18.7448 C   0  0  1  0  0  0  0  0  0  0  0  0
  -25.1665  -12.9264   19.4872 C   0  0  1  0  0  0  0  0  0  0  0  0
  -26.1779  -25.7756   18.5629 C   0  0  2  0  0  0  0  0  0  0  0  0
  -31.0064  -23.7278   20.1646 C   0  0  0  0  0  0  0  0  0  0  0  0
  -25.2743   -7.3681   24.8814 C   0  0  0  0  0  0  0  0  0  0  0  0
  -23.8863  -13.7617   23.8489 C   0  0  0  0  0  0  0  0  0  0  0  0
  -24.2424  -11.8765   25.4574 C   0  0  0  0  0  0  0  0  0  0  0  0
  -22.3890  -11.7594   23.7918 C   0  0  0  0  0  0  0  0  0  0  0  0
  -27.1012   -7.3306   21.5442 C   0  0  0  0  0  0  0  0  0  0  0  0
  -30.1692  -23.0579   21.2495 C   0  0  0  0  0  0  0  0  0  0  0  0
  -30.9829  -18.1945   21.8899 C   0  0  0  0  0  0  0  0  0  0  0  0
  -33.2460  -15.4207   20.5312 C   0  0  0  0  0  0  0  0  0  0  0  0
  -32.5463  -16.2713   21.5807 C   0  0  0  0  0  0  0  0  0  0  0  0
  -32.2893  -14.6645   19.6176 C   0  0  0  0  0  0  0  0  0  1  0  0
  -24.7777  -11.4888   23.0091 C   0  0  1  0  0  0  0  0  0  0  0  0
  -25.5646   -7.8075   23.4548 C   0  0  2  0  0  0  0  0  0  0  0  0
  -23.8442  -12.2288   24.0082 C   0  0  0  0  0  0  0  0  0  0  0  0
  -25.0082  -27.5760   19.7761 N   0  0  0  0  0  0  0  0  0  0  0  0
  -26.1790  -26.9908   19.4715 N   0  0  0  0  0  0  0  0  0  0  0  0
  -25.4782  -12.4064   20.8202 N   0  0  0  0  0  0  0  0  0  0  0  0
  -26.1141  -23.3160   18.4346 N   0  0  0  0  0  0  0  0  0  0  0  0
  -28.5142  -27.1317   19.8426 N   0  0  0  0  0  0  0  0  0  0  0  0
  -26.8679  -30.5877   22.2388 N   0  0  0  0  0  0  0  0  0  0  0  0
  -28.0889  -22.4036   19.3456 N   0  0  0  0  0  0  0  0  0  0  0  0
  -23.9222  -14.8721   18.7635 N   0  0  0  0  0  0  0  0  0  0  0  0
  -24.7377  -10.0346   23.1189 N   0  0  0  0  0  0  0  0  0  0  0  0
  -26.7210   -7.0173   22.9457 N   0  3  0  0  0  0  0  0  0  0  0  0
  -31.7192  -17.3186   20.9369 N   0  3  0  0  0  0  0  0  0  0  0  0
  -28.7886  -29.4977   21.6212 O   0  0  0  0  0  0  0  0  0  0  0  0
  -25.4565  -15.0358   20.5076 O   0  0  0  0  0  0  0  0  0  0  0  0
  -23.3345  -11.5423   21.1273 O   0  0  0  0  0  0  0  0  0  0  0  0
  -26.9975   -9.7502   23.5547 O   0  0  0  0  0  0  0  0  0  0  0  0
  -26.9894  -21.3470   17.5973 O   0  0  0  0  0  0  0  0  0  0  0  0
  -21.5029  -32.0158   22.7001 O   0  0  0  0  0  0  0  0  0  0  0  0
  -31.4713  -13.8112   20.4170 O   0  0  0  0  0  0  0  0  0  1  0  0
  -16.9421  -29.7425   24.8060 F   0  0  0  0  0  0  0  0  0  0  0  0
  -20.8257  -32.3927   25.3538 F   0  0  0  0  0  0  0  0  0  0  0  0
  -28.7919  -17.3701   19.8809 Cl  0  0  0  0  0  0  0  0  0  0  0  0
  1  2  1  0  0  0  0
  1  5  2  0  0  0  0
  2  6  2  0  0  0  0
  3  8  2  0  0  0  0
  3 17  1  0  0  0  0
  4  9  1  0  0  0  0
  4 17  2  0  0  0  0
  5 19  1  0  0  0  0
  6 21  1  0  0  0  0
  7 10  2  0  0  0  0
  7 20  1  0  0  0  0
  8 26  1  0  0  0  0
  9 26  2  0  0  0  0
 10 27  1  0  0  0  0
 11 12  2  0  0  0  0
 11 28  1  0  0  0  0
 12 29  1  0  0  0  0
 13 22  1  0  0  0  0
 13 27  2  0  0  0  0
 14 23  1  0  0  0  0
 14 24  2  0  0  0  0
 15 25  1  0  0  0  0
 15 31  2  0  0  0  0
 16 29  2  0  0  0  0
 16 30  1  0  0  0  0
 17 32  1  0  0  0  0
 18 32  1  0  0  0  0
 18 33  2  0  0  0  0
 18 34  1  0  0  0  0
 19 21  2  0  0  0  0
 19 39  1  0  0  0  0
 20 22  2  0  0  0  0
 20 40  1  0  0  0  0
 21 48  1  0  0  0  0
 22 41  1  0  0  0  0
 23 25  2  0  0  0  0
 23 57  1  0  0  0  0
 24 31  1  0  0  0  0
 24 58  1  0  0  0  0
 25 71  1  0  0  0  0
 26 81  1  0  0  0  0
 27 82  1  0  0  0  0
 28 30  2  0  0  0  0
 28 81  1  0  0  0  0
 29 83  1  0  0  0  0
 30 84  1  0  0  0  0
 31 85  1  0  0  0  0
 32 65  2  0  0  0  0
 33 66  1  0  0  0  0
 33 69  1  0  0  0  0
 34 70  1  0  0  0  0
 34 76  2  0  0  0  0
 35 49  1  0  0  0  0
 35 72  1  0  0  0  0
 35 77  2  0  0  0  0
 36 62  1  0  0  0  0
 36 67  1  0  0  0  0
 36 78  2  0  0  0  0
 37 63  1  0  0  0  0
 37 73  1  0  0  0  0
 37 79  2  0  0  0  0
 38 68  1  0  0  0  0
 38 71  1  0  0  0  0
 38 80  2  0  0  0  0
 39 42  1  0  0  0  0
 40 49  1  0  0  0  0
 41 67  1  0  0  0  0
 42 44  1  0  0  0  0
 43 45  1  0  0  0  0
 43 46  1  0  0  0  0
 44 48  1  0  0  0  0
 45 50  1  0  0  0  0
 46 68  1  0  0  0  0
 47 50  1  0  0  0  0
 47 68  1  0  0  0  0
 48 72  1  0  0  0  0
 49 67  1  0  0  0  0
 50 66  1  0  0  0  0
 51 57  1  0  0  0  0
 52 63  1  0  0  0  0
 53 64  1  0  0  0  0
 54 64  1  0  0  0  0
 55 64  1  0  0  0  0
 56 74  1  0  0  0  0
 58 75  1  0  0  0  0
 59 60  1  0  0  0  0
 59 61  1  0  0  0  0
 60 75  1  0  0  0  0
 61 82  1  0  0  0  0
 62 64  1  0  0  0  0
 62 73  1  0  0  0  0
 63 74  1  0  0  0  0
 65 66  1  0  0  0  0
M  CHG  2  74   1  75   1
M  ISO  4  38 100  61 101  71 100  82 101
M  END
> <Batch ID>
0040

> <Smiles>
CCc1cc(CNCC[101CH2:1][101O:1]c2ccc3c(c2)CN(C(=O)C(NC(=O)C(C)NC)C(C)(C)C)C(C(=O)NC2CCCc4ccccc42)C3)c(Cl)cc1[100NH:0][100C:0](=O)N1CCCC(n2nc(-c3ccc(Oc4ccc(F)cc4F)cc3)c(C(N)=O)c2N)C1

> <Shape>
0.267

> <Color>
0.076

> <Negative vol penalty>
0.000

$$$$

  -OEChem-04042322063D

 83 91  0     1  0  0  0  0  0999 V2000
  -24.7396  -37.0989   21.1146 C   0  0  0  0  0  0  0  0  0  0  0  0
  -25.4504  -36.0178   20.6032 C   0  0  0  0  0  0  0  0  0  0  0  0
  -24.4298   -9.3805   21.7114 C   0  0  0  0  0  0  0  0  0  0  0  0
  -22.5958  -10.4722   20.5794 C   0  0  0  0  0  0  0  0  0  0  0  0
  -24.1567  -37.0135   22.3783 C   0  0  0  0  0  0  0  0  0  0  0  0
  -25.5796  -34.8510   21.3558 C   0  0  0  0  0  0  0  0  0  0  0  0
  -25.7577  -29.1066   19.2402 C   0  0  0  0  0  0  0  0  0  0  0  0
  -23.7036   -8.1900   21.7400 C   0  0  0  0  0  0  0  0  0  0  0  0
  -21.8695   -9.2817   20.6079 C   0  0  0  0  0  0  0  0  0  0  0  0
  -26.8144  -28.2350   18.9804 C   0  0  0  0  0  0  0  0  0  0  0  0
  -21.1924   -6.8479   23.5612 C   0  0  0  0  0  0  0  0  0  0  0  0
  -21.1764   -6.1279   24.7557 C   0  0  0  0  0  0  0  0  0  0  0  0
  -26.5137  -27.2322   21.1537 C   0  0  0  0  0  0  0  0  0  0  0  0
  -27.0363  -20.4810   18.7946 C   0  0  0  0  0  0  0  0  0  0  0  0
  -26.8651  -20.3703   21.5769 C   0  0  0  0  0  0  0  0  0  0  0  0
  -22.1733   -4.2372   23.6294 C   0  0  0  0  0  0  0  0  0  0  0  0
  -23.8759  -10.5217   21.1311 C   0  0  0  0  0  0  0  0  0  0  0  0
  -25.5063  -12.1868   20.0935 C   0  0  0  0  0  0  0  0  0  0  0  0
  -24.2707  -35.8416   23.1427 C   0  0  0  0  0  0  0  0  0  0  0  0
  -25.0769  -29.0547   20.4651 C   0  0  0  0  0  0  0  0  0  0  0  0
  -24.9988  -34.7503   22.6314 C   0  0  0  0  0  0  0  0  0  0  0  0
  -25.4470  -28.1025   21.4255 C   0  0  0  0  0  0  0  0  0  0  0  0
  -26.1828  -19.5619   19.4048 C   0  0  0  0  0  0  0  0  0  0  0  0
  -27.8044  -21.3447   19.5756 C   0  0  0  0  0  0  0  0  0  0  0  0
  -26.0971  -19.5066   20.7959 C   0  0  0  0  0  0  0  0  0  0  0  0
  -22.4234   -8.1406   21.1882 C   0  0  0  0  0  0  0  0  0  0  0  0
  -27.1944  -27.2996   19.9383 C   0  0  0  0  0  0  0  0  0  0  0  0
  -21.6987   -6.2626   22.4007 C   0  0  0  0  0  0  0  0  0  0  0  0
  -21.6669   -4.8226   24.7899 C   0  0  0  0  0  0  0  0  0  0  0  0
  -22.1892   -4.9572   22.4349 C   0  0  0  0  0  0  0  0  0  0  0  0
  -27.7187  -21.2894   20.9667 C   0  0  0  0  0  0  0  0  0  0  0  0
  -24.6254  -11.7519   21.1018 C   0  0  0  0  0  0  0  0  0  0  0  0
  -25.9584  -13.4063   20.5351 C   0  0  0  0  0  0  0  0  0  0  0  0
  -25.8822  -11.5459   18.8673 C   0  0  0  0  0  0  0  0  0  0  0  0
  -24.6360  -31.0812   22.8739 C   0  0  0  0  0  0  0  0  0  0  0  0
  -22.6560  -28.7520   23.9586 C   0  0  0  0  0  0  0  0  0  0  0  0
  -21.7948  -25.4497   23.9596 C   0  0  0  0  0  0  0  0  0  0  0  0
  -25.0473  -18.4082   22.8053 C   0  0  0  0  0  0  0  0  0  0  0  0
  -23.6635  -35.8133   24.5230 C   0  0  0  0  0  0  0  0  0  0  0  0
  -23.9219  -29.9839   20.7193 C   0  0  0  0  0  0  0  0  0  0  0  0
  -24.7353  -27.9924   22.7483 C   0  0  0  0  0  0  0  0  0  0  0  0
  -23.5292  -34.4066   25.1006 C   0  0  0  0  0  0  0  0  0  0  0  0
  -25.4700  -15.6668   25.0377 C   0  0  0  0  0  0  0  0  0  0  0  0
  -24.8209  -33.6209   24.8982 C   0  0  0  0  0  0  0  0  0  0  0  0
  -25.3604  -14.4397   24.1298 C   0  0  0  0  0  0  0  0  0  0  0  0
  -24.5164  -16.7792   24.6052 C   0  0  0  0  0  0  0  0  0  0  0  0
  -24.5119  -15.9465   22.2867 C   0  0  0  0  0  0  0  0  0  0  0  0
  -25.1401  -33.4587   23.4072 C   0  0  1  0  0  0  0  0  0  0  0  0
  -23.6328  -30.1856   22.2036 C   0  0  1  0  0  0  0  0  0  0  0  0
  -25.5000  -14.8239   22.6437 C   0  0  2  0  0  0  0  0  0  0  0  0
  -25.3733  -18.6474   18.5435 C   0  0  0  0  0  0  0  0  0  0  0  0
  -20.1567  -23.8414   24.9733 C   0  0  0  0  0  0  0  0  0  0  0  0
  -24.2113  -28.8254   26.5826 C   0  0  0  0  0  0  0  0  0  0  0  0
  -23.1878  -26.6175   27.1704 C   0  0  0  0  0  0  0  0  0  0  0  0
  -21.7329  -28.6174   26.8445 C   0  0  0  0  0  0  0  0  0  0  0  0
  -20.6925  -24.7226   21.3110 C   0  0  0  0  0  0  0  0  0  0  0  0
  -28.7107  -22.3179   18.8811 C   0  0  0  0  0  0  0  0  0  0  0  0
  -29.0964  -24.7095   18.2726 C   0  0  0  0  0  0  0  0  0  0  0  0
  -28.4466  -26.0781   18.3271 C   0  0  0  0  0  0  0  0  0  1  0  0
  -22.8181  -27.5333   24.8347 C   0  0  1  0  0  0  0  0  0  0  0  0
  -20.4530  -24.7586   23.7970 C   0  0  2  0  0  0  0  0  0  0  0  0
  -23.0024  -27.9015   26.3340 C   0  0  0  0  0  0  0  0  0  0  0  0
  -24.5227  -12.6241   22.1082 N   0  0  0  0  0  0  0  0  0  0  0  0
  -25.3450  -13.6192   21.7345 N   0  0  0  0  0  0  0  0  0  0  0  0
  -23.6164  -28.9273   22.9523 N   0  0  0  0  0  0  0  0  0  0  0  0
  -24.7086  -17.0929   23.1877 N   0  0  0  0  0  0  0  0  0  0  0  0
  -26.8170  -14.3064   20.0107 N   0  0  0  0  0  0  0  0  0  0  0  0
  -25.3237  -10.2957   18.5683 N   0  0  0  0  0  0  0  0  0  0  0  0
  -25.2367  -18.5794   21.4344 N   0  0  0  0  0  0  0  0  0  0  0  0
  -24.3138  -32.4240   22.8231 N   0  0  0  0  0  0  0  0  0  0  0  0
  -21.6648  -26.6812   24.5661 N   0  0  0  0  0  0  0  0  0  0  0  0
  -20.4382  -23.9430   22.5498 N   0  3  0  0  0  0  0  0  0  0  0  0
  -28.1927  -23.7126   18.9001 N   0  3  0  0  0  0  0  0  0  0  0  0
  -26.7021  -12.0589   18.0685 O   0  0  0  0  0  0  0  0  0  0  0  0
  -25.6280  -30.5902   23.3996 O   0  0  0  0  0  0  0  0  0  0  0  0
  -21.7079  -29.5163   24.1552 O   0  0  0  0  0  0  0  0  0  0  0  0
  -22.8528  -24.9458   23.5893 O   0  0  0  0  0  0  0  0  0  0  0  0
  -25.1876  -19.3096   23.6358 O   0  0  0  0  0  0  0  0  0  0  0  0
  -21.7146   -6.9790   21.2158 O   0  0  0  0  0  0  0  0  0  0  0  0
  -28.2260  -26.4481   19.6875 O   0  0  0  0  0  0  0  0  0  1  0  0
  -21.6530   -4.1318   25.9374 F   0  0  0  0  0  0  0  0  0  0  0  0
  -22.6780   -4.3900   21.3235 F   0  0  0  0  0  0  0  0  0  0  0  0
  -28.6539  -22.3420   21.9653 Cl  0  0  0  0  0  0  0  0  0  0  0  0
  1  2  1  0  0  0  0
  1  5  2  0  0  0  0
  2  6  2  0  0  0  0
  3  8  2  0  0  0  0
  3 17  1  0  0  0  0
  4  9  1  0  0  0  0
  4 17  2  0  0  0  0
  5 19  1  0  0  0  0
  6 21  1  0  0  0  0
  7 10  2  0  0  0  0
  7 20  1  0  0  0  0
  8 26  1  0  0  0  0
  9 26  2  0  0  0  0
 10 27  1  0  0  0  0
 11 12  2  0  0  0  0
 11 28  1  0  0  0  0
 12 29  1  0  0  0  0
 13 22  1  0  0  0  0
 13 27  2  0  0  0  0
 14 23  2  0  0  0  0
 14 24  1  0  0  0  0
 15 25  2  0  0  0  0
 15 31  1  0  0  0  0
 16 29  2  0  0  0  0
 16 30  1  0  0  0  0
 17 32  1  0  0  0  0
 18 32  1  0  0  0  0
 18 33  2  0  0  0  0
 18 34  1  0  0  0  0
 19 21  2  0  0  0  0
 19 39  1  0  0  0  0
 20 22  2  0  0  0  0
 20 40  1  0  0  0  0
 21 48  1  0  0  0  0
 22 41  1  0  0  0  0
 23 25  1  0  0  0  0
 23 51  1  0  0  0  0
 24 31  2  0  0  0  0
 24 57  1  0  0  0  0
 25 69  1  0  0  0  0
 26 79  1  0  0  0  0
 27 80  1  0  0  0  0
 28 30  2  0  0  0  0
 28 79  1  0  0  0  0
 29 81  1  0  0  0  0
 30 82  1  0  0  0  0
 31 83  1  0  0  0  0
 32 63  2  0  0  0  0
 33 64  1  0  0  0  0
 33 67  1  0  0  0  0
 34 68  1  0  0  0  0
 34 74  2  0  0  0  0
 35 49  1  0  0  0  0
 35 70  1  0  0  0  0
 35 75  2  0  0  0  0
 36 60  1  0  0  0  0
 36 65  1  0  0  0  0
 36 76  2  0  0  0  0
 37 61  1  0  0  0  0
 37 71  1  0  0  0  0
 37 77  2  0  0  0  0
 38 66  1  0  0  0  0
 38 69  1  0  0  0  0
 38 78  2  0  0  0  0
 39 42  1  0  0  0  0
 40 49  1  0  0  0  0
 41 65  1  0  0  0  0
 42 44  1  0  0  0  0
 43 45  1  0  0  0  0
 43 46  1  0  0  0  0
 44 48  1  0  0  0  0
 45 50  1  0  0  0  0
 46 66  1  0  0  0  0
 47 50  1  0  0  0  0
 47 66  1  0  0  0  0
 48 70  1  0  0  0  0
 49 65  1  0  0  0  0
 50 64  1  0  0  0  0
 52 61  1  0  0  0  0
 53 62  1  0  0  0  0
 54 62  1  0  0  0  0
 55 62  1  0  0  0  0
 56 72  1  0  0  0  0
 57 73  1  0  0  0  0
 58 59  1  0  0  0  0
 58 73  1  0  0  0  0
 59 80  1  0  0  0  0
 60 62  1  0  0  0  0
 60 71  1  0  0  0  0
 61 72  1  0  0  0  0
 63 64  1  0  0  0  0
M  CHG  2  72   1  73   1
M  ISO  4  38 100  59 101  69 100  80 101
M  END
> <Batch ID>
0040

> <Smiles>
CNC(C)C(=O)NC(C(=O)N1Cc2cc([101O:1][101CH2:1]CNCc3cc(C)c([100NH:0][100C:0](=O)N4CCCC(n5nc(-c6ccc(Oc7ccc(F)cc7F)cc6)c(C(N)=O)c5N)C4)cc3Cl)ccc2CC1C(=O)NC1CCCc2ccccc21)C(C)(C)C

> <Shape>
0.269

> <Color>
0.113

> <Negative vol penalty>
0.000

$$$$

  -OEChem-04042322063D

 91100  0     1  0  0  0  0  0999 V2000
  -17.8123  -14.4153   28.1555 C   0  0  0  0  0  0  0  0  0  0  0  0
  -17.9809  -13.6689   26.9936 C   0  0  0  0  0  0  0  0  0  0  0  0
  -27.2804  -28.6781   20.4186 C   0  0  0  0  0  0  0  0  0  0  0  0
  -25.7360  -26.8332   20.1985 C   0  0  0  0  0  0  0  0  0  0  0  0
  -17.9647  -15.8007   28.1210 C   0  0  0  0  0  0  0  0  0  0  0  0
  -18.3011  -14.3078   25.7962 C   0  0  0  0  0  0  0  0  0  0  0  0
  -24.3090  -12.6345   22.1911 C   0  0  0  0  0  0  0  0  0  0  0  0
  -26.2467  -29.5754   20.1503 C   0  0  0  0  0  0  0  0  0  0  0  0
  -24.7023  -27.7305   19.9303 C   0  0  0  0  0  0  0  0  0  0  0  0
  -25.3308  -12.2220   21.3357 C   0  0  0  0  0  0  0  0  0  0  0  0
  -22.6820  -29.7964   21.6827 C   0  0  0  0  0  0  0  0  0  0  0  0
  -21.4650  -29.5940   22.3334 C   0  0  0  0  0  0  0  0  0  0  0  0
  -24.7366  -13.9649   19.7681 C   0  0  0  0  0  0  0  0  0  0  0  0
  -30.6716  -16.5327   21.7373 C   0  0  0  0  0  0  0  0  0  0  0  0
  -29.2168  -18.0316   22.9514 C   0  0  0  0  0  0  0  0  0  0  0  0
  -20.3630  -29.3518   20.1969 C   0  0  0  0  0  0  0  0  0  0  0  0
  -27.0251  -27.3069   20.4426 C   0  0  0  0  0  0  0  0  0  0  0  0
  -28.8819  -26.3143   21.8829 C   0  0  0  0  0  0  0  0  0  0  0  0
  -18.2963  -16.4559   26.9246 C   0  0  0  0  0  0  0  0  0  0  0  0
  -23.5059  -13.7248   21.8450 C   0  0  0  0  0  0  0  0  0  0  0  0
  -18.4567  -15.7035   25.7454 C   0  0  0  0  0  0  0  0  0  0  0  0
  -23.7196  -14.3905   20.6267 C   0  0  0  0  0  0  0  0  0  0  0  0
  -30.3887  -17.8070   22.2289 C   0  0  0  0  0  0  0  0  0  0  0  0
  -29.7826  -15.4829   21.9682 C   0  0  0  0  0  0  0  0  0  0  0  0
  -28.6107  -15.7074   22.6907 C   0  0  0  0  0  0  0  0  0  0  0  0
  -24.9577  -29.1016   19.9062 C   0  0  0  0  0  0  0  0  0  0  0  0
  -25.5439  -12.8855   20.1271 C   0  0  0  0  0  0  0  0  0  0  0  0
  -22.7396  -29.7766   20.2891 C   0  0  0  0  0  0  0  0  0  0  0  0
  -20.3055  -29.3716   21.5905 C   0  0  0  0  0  0  0  0  0  0  0  0
  -21.5801  -29.5542   19.5463 C   0  0  0  0  0  0  0  0  0  0  0  0
  -28.3278  -16.9817   23.1823 C   0  0  0  0  0  0  0  0  0  0  0  0
  -28.0925  -26.3795   20.7191 C   0  0  0  0  0  0  0  0  0  0  0  0
  -29.7454  -25.2711   21.6541 C   0  0  0  0  0  0  0  0  0  0  0  0
  -30.6702  -12.9208   19.3968 C   0  0  0  0  0  0  0  0  0  0  0  0
  -28.8384  -27.1244   23.0652 C   0  0  0  0  0  0  0  0  0  0  0  0
  -31.7911  -13.2192   18.7229 C   0  0  0  0  0  0  0  0  0  0  0  0
  -20.6688  -15.9867   22.7993 C   0  0  0  0  0  0  0  0  0  0  0  0
  -22.8264  -17.7540   21.5219 C   0  0  0  0  0  0  0  0  0  0  0  0
  -24.9063  -20.3025   20.6185 C   0  0  0  0  0  0  0  0  0  0  0  0
  -30.7391  -20.0784   19.8668 C   0  0  0  0  0  0  0  0  0  0  0  0
  -18.4041  -17.9602   26.9265 C   0  0  0  0  0  0  0  0  0  0  0  0
  -22.3542  -14.1653   22.7072 C   0  0  0  0  0  0  0  0  0  0  0  0
  -22.8089  -15.5365   20.2798 C   0  0  0  0  0  0  0  0  0  0  0  0
  -30.1696  -11.5130   19.5736 C   0  0  0  0  0  0  0  0  0  0  0  0
  -19.1122  -18.5217   25.6962 C   0  0  0  0  0  0  0  0  0  0  0  0
  -28.7040  -11.4164   19.1677 C   0  0  0  0  0  0  0  0  0  0  0  0
  -30.7201  -22.6707   17.4262 C   0  0  0  0  0  0  0  0  0  0  0  0
  -18.5740  -17.8697   24.4265 C   0  0  0  0  0  0  0  0  0  0  0  0
  -30.0945  -23.8587   18.1593 C   0  0  0  0  0  0  0  0  0  0  0  0
  -30.0803  -21.3488   17.8448 C   0  0  0  0  0  0  0  0  0  0  0  0
  -29.4408  -22.2883   20.0316 C   0  0  0  0  0  0  0  0  0  0  0  0
  -28.4557  -13.9015   19.5245 C   0  0  0  0  0  0  0  0  0  0  0  0
  -18.8286  -16.3575   24.4324 C   0  0  1  0  0  0  0  0  0  0  0  0
  -22.1353  -15.6887   22.6896 C   0  0  1  0  0  0  0  0  0  0  0  0
  -30.0914  -23.6382   19.6840 C   0  0  2  0  0  0  0  0  0  0  0  0
  -27.8724  -12.5217   19.8184 C   0  0  1  0  0  0  0  0  0  1  0  0
  -32.2670  -14.6324   18.5621 C   0  0  0  0  0  0  0  0  0  0  0  0
  -32.6396  -12.1587   18.0868 C   0  0  0  0  0  0  0  0  0  0  0  0
  -27.7721  -14.0234   24.3482 C   0  0  0  0  0  0  0  0  0  0  0  0
  -24.8749  -22.6661   19.7760 C   0  0  0  0  0  0  0  0  0  0  0  0
  -22.0868  -16.7482   18.7388 C   0  0  0  0  0  0  0  0  0  0  0  0
  -22.9834  -18.8907   17.8037 C   0  0  0  0  0  0  0  0  0  0  0  0
  -21.0431  -18.9312   19.3710 C   0  0  0  0  0  0  0  0  0  0  0  0
  -26.3373  -21.2970   23.0107 C   0  0  0  0  0  0  0  0  0  0  0  0
  -27.6670  -14.5700   22.9291 C   0  0  0  0  0  0  0  0  0  0  0  0
  -31.3402  -18.9288   21.9825 C   0  0  0  0  0  0  0  0  0  0  0  0
  -30.1119  -14.1231   21.4264 C   0  0  0  0  0  0  0  0  0  0  0  0
  -23.3483  -18.4044   20.2657 C   0  0  1  0  0  0  0  0  0  0  0  0
  -24.9273  -21.7707   21.0041 C   0  0  2  0  0  0  0  0  0  0  0  0
  -22.3819  -18.2268   19.0608 C   0  0  0  0  0  0  0  0  0  0  0  0
  -28.4252  -25.4516   19.8178 N   0  0  0  0  0  0  0  0  0  0  0  0
  -29.4332  -24.7936   20.4153 N   0  0  0  0  0  0  0  0  0  0  0  0
  -22.5835  -16.3762   21.4667 N   0  0  0  0  0  0  0  0  0  0  0  0
  -30.1109  -21.2006   19.3018 N   0  0  0  0  0  0  0  0  0  0  0  0
  -30.7339  -24.7248   22.3937 N   0  0  0  0  0  0  0  0  0  0  0  0
  -28.0094  -26.7215   24.1210 N   0  0  0  0  0  0  0  0  0  0  0  0
  -20.2085  -16.0761   24.0991 N   0  0  0  0  0  0  0  0  0  0  0  0
  -23.6243  -19.7949   20.6105 N   0  0  0  0  0  0  0  0  0  0  0  0
  -30.7287  -20.0185   21.2550 N   0  0  0  0  0  0  0  0  0  0  0  0
  -29.9018  -14.0138   19.9415 N   0  3  1  0  0  0  0  0  0  0  0  0
  -26.1686  -22.0886   21.7649 N   0  3  0  0  0  0  0  0  0  0  0  0
  -29.5022  -28.1830   23.1753 O   0  0  0  0  0  0  0  0  0  0  0  0
  -20.0029  -16.1269   21.7802 O   0  0  0  0  0  0  0  0  0  0  0  0
  -22.6329  -18.4473   22.5245 O   0  0  0  0  0  0  0  0  0  0  0  0
  -25.9248  -19.6703   20.3476 O   0  0  0  0  0  0  0  0  0  0  0  0
  -31.2746  -19.1980   19.1848 O   0  0  0  0  0  0  0  0  0  0  0  0
  -23.9488  -29.9769   19.6446 O   0  0  0  0  0  0  0  0  0  0  0  0
  -26.5462  -12.4804   19.2987 O   0  0  0  0  0  0  0  0  0  1  0  0
  -19.1371  -29.1757   22.2155 F   0  0  0  0  0  0  0  0  0  0  0  0
  -21.6294  -29.5329   18.2073 F   0  0  0  0  0  0  0  0  0  0  0  0
  -26.8892  -17.2998   24.0825 Cl  0  0  0  0  0  0  0  0  0  0  0  0
  1  2  1  0  0  0  0
  1  5  2  0  0  0  0
  2  6  2  0  0  0  0
  3  8  2  0  0  0  0
  3 17  1  0  0  0  0
  4  9  1  0  0  0  0
  4 17  2  0  0  0  0
  5 19  1  0  0  0  0
  6 21  1  0  0  0  0
  7 10  2  0  0  0  0
  7 20  1  0  0  0  0
  8 26  1  0  0  0  0
  9 26  2  0  0  0  0
 10 27  1  0  0  0  0
 11 12  2  0  0  0  0
 11 28  1  0  0  0  0
 12 29  1  0  0  0  0
 13 22  1  0  0  0  0
 13 27  2  0  0  0  0
 14 23  2  0  0  0  0
 14 24  1  0  0  0  0
 15 23  1  0  0  0  0
 15 31  2  0  0  0  0
 16 29  2  0  0  0  0
 16 30  1  0  0  0  0
 17 32  1  0  0  0  0
 18 32  1  0  0  0  0
 18 33  2  0  0  0  0
 18 35  1  0  0  0  0
 19 21  2  0  0  0  0
 19 41  1  0  0  0  0
 20 22  2  0  0  0  0
 20 42  1  0  0  0  0
 21 53  1  0  0  0  0
 22 43  1  0  0  0  0
 23 66  1  0  0  0  0
 24 25  2  0  0  0  0
 24 67  1  0  0  0  0
 25 31  1  0  0  0  0
 25 65  1  0  0  0  0
 26 87  1  0  0  0  0
 27 88  1  0  0  0  0
 28 30  2  0  0  0  0
 28 87  1  0  0  0  0
 29 89  1  0  0  0  0
 30 90  1  0  0  0  0
 31 91  1  0  0  0  0
 32 71  2  0  0  0  0
 33 72  1  0  0  0  0
 33 75  1  0  0  0  0
 34 36  2  0  0  0  0
 34 44  1  0  0  0  0
 34 80  1  0  0  0  0
 35 76  1  0  0  0  0
 35 82  2  0  0  0  0
 36 57  1  0  0  0  0
 36 58  1  0  0  0  0
 37 54  1  0  0  0  0
 37 77  1  0  0  0  0
 37 83  2  0  0  0  0
 38 68  1  0  0  0  0
 38 73  1  0  0  0  0
 38 84  2  0  0  0  0
 39 69  1  0  0  0  0
 39 78  1  0  0  0  0
 39 85  2  0  0  0  0
 40 74  1  0  0  0  0
 40 79  1  0  0  0  0
 40 86  2  0  0  0  0
 41 45  1  0  0  0  0
 42 54  1  0  0  0  0
 43 73  1  0  0  0  0
 44 46  1  0  0  0  0
 45 48  1  0  0  0  0
 46 56  1  0  0  0  0
 47 49  1  0  0  0  0
 47 50  1  0  0  0  0
 48 53  1  0  0  0  0
 49 55  1  0  0  0  0
 50 74  1  0  0  0  0
 51 55  1  0  0  0  0
 51 74  1  0  0  0  0
 52 56  1  0  0  0  0
 52 80  1  0  0  0  0
 53 77  1  0  0  0  0
 54 73  1  0  0  0  0
 55 72  1  0  0  0  0
 56 88  1  0  0  0  0
 59 65  1  0  0  0  0
 60 69  1  0  0  0  0
 61 70  1  0  0  0  0
 62 70  1  0  0  0  0
 63 70  1  0  0  0  0
 64 81  1  0  0  0  0
 66 79  1  0  0  0  0
 67 80  1  0  0  0  0
 68 70  1  0  0  0  0
 68 78  1  0  0  0  0
 69 81  1  0  0  0  0
 71 72  1  0  0  0  0
M  CHG  2  80   1  81   1
M  ISO  4  40 100  56 101  79 100  88 101
M  END
> <Batch ID>
0040

> <Smiles>
CCc1c(Cl)cc(C[100NH:0][100C:0](=O)N2CCCC(n3nc(-c4ccc(Oc5ccc(F)cc5F)cc4)c(C(N)=O)c3N)C2)cc1CN1C[101CH:1]([101O:1]c2ccc3c(c2)CN(C(=O)C(NC(=O)C(C)NC)C(C)(C)C)C(C(=O)NC2CCCc4ccccc42)C3)CCC1=C(C)C

> <Shape>
0.224

> <Color>
0.045

> <Negative vol penalty>
0.000

$$$$

  -OEChem-04042322063D

 93102  0     1  0  0  0  0  0999 V2000
  -34.8282  -21.0869   28.5599 C   0  0  0  0  0  0  0  0  0  0  0  0
  -34.0839  -21.4456   27.4406 C   0  0  0  0  0  0  0  0  0  0  0  0
  -22.6688  -10.1974   20.1642 C   0  0  0  0  0  0  0  0  0  0  0  0
  -24.3211   -9.4124   21.7424 C   0  0  0  0  0  0  0  0  0  0  0  0
  -34.2032  -20.4699   29.6427 C   0  0  0  0  0  0  0  0  0  0  0  0
  -32.7143  -21.1866   27.4031 C   0  0  0  0  0  0  0  0  0  0  0  0
  -30.0410  -25.1164   25.6554 C   0  0  0  0  0  0  0  0  0  0  0  0
  -21.9333   -9.0273   20.3522 C   0  0  0  0  0  0  0  0  0  0  0  0
  -23.5856   -8.2423   21.9304 C   0  0  0  0  0  0  0  0  0  0  0  0
  -30.0333  -25.3182   24.2759 C   0  0  0  0  0  0  0  0  0  0  0  0
  -20.8379   -7.2778   23.6452 C   0  0  0  0  0  0  0  0  0  0  0  0
  -20.6532   -6.8336   24.9544 C   0  0  0  0  0  0  0  0  0  0  0  0
  -27.8696  -24.2603   24.1393 C   0  0  0  0  0  0  0  0  0  0  0  0
  -31.1655  -17.6697   20.8059 C   0  0  0  0  0  0  0  0  0  0  0  0
  -29.5840  -17.7275   22.6314 C   0  0  0  0  0  0  0  0  0  0  0  0
  -21.7745   -4.7639   24.4103 C   0  0  0  0  0  0  0  0  0  0  0  0
  -23.8628  -10.3900   20.8592 C   0  0  0  0  0  0  0  0  0  0  0  0
  -24.1986  -12.9183   20.9077 C   0  0  0  0  0  0  0  0  0  0  0  0
  -32.8234  -20.2119   29.6225 C   0  0  0  0  0  0  0  0  0  0  0  0
  -28.9661  -24.4743   26.2868 C   0  0  0  0  0  0  0  0  0  0  0  0
  -32.0705  -20.5644   28.4861 C   0  0  0  0  0  0  0  0  0  0  0  0
  -27.8649  -24.0540   25.5273 C   0  0  0  0  0  0  0  0  0  0  0  0
  -31.3327  -19.0507   20.9070 C   0  0  0  0  0  0  0  0  0  0  0  0
  -29.7512  -19.1086   22.7326 C   0  0  0  0  0  0  0  0  0  0  0  0
  -30.6256  -19.7702   21.8704 C   0  0  0  0  0  0  0  0  0  0  0  0
  -30.2911  -17.0080   21.6681 C   0  0  0  0  0  0  0  0  0  0  0  0
  -22.3916   -8.0497   21.2353 C   0  0  0  0  0  0  0  0  0  0  0  0
  -28.9488  -24.8875   23.5172 C   0  0  0  0  0  0  0  0  0  0  0  0
  -21.4908   -6.4651   22.7184 C   0  0  0  0  0  0  0  0  0  0  0  0
  -21.1215   -5.5766   25.3370 C   0  0  0  0  0  0  0  0  0  0  0  0
  -21.9591   -5.2081   23.1010 C   0  0  0  0  0  0  0  0  0  0  0  0
  -24.6233  -11.5983   20.6650 C   0  0  0  0  0  0  0  0  0  0  0  0
  -25.2797  -13.6947   20.5685 C   0  0  0  0  0  0  0  0  0  0  0  0
  -30.2299  -23.3924   21.0052 C   0  0  0  0  0  0  0  0  0  0  0  0
  -31.3230  -24.1749   20.9402 C   0  0  0  0  0  0  0  0  0  0  0  0
  -32.6322  -23.6707   20.6165 C   0  0  0  0  0  0  0  0  0  0  0  0
  -33.7186  -24.4543   20.5529 C   0  0  0  0  0  0  0  0  0  0  0  0
  -22.9395  -13.3997   21.3962 C   0  0  0  0  0  0  0  0  0  0  0  0
  -28.6264  -21.7989   27.9693 C   0  0  0  0  0  0  0  0  0  0  0  0
  -25.6103  -22.9131   28.3985 C   0  0  0  0  0  0  0  0  0  0  0  0
  -23.0853  -24.5205   26.3840 C   0  0  0  0  0  0  0  0  0  0  0  0
  -30.7475  -14.7415   20.6677 C   0  0  0  0  0  0  0  0  0  0  0  0
  -32.2007  -19.5001   30.7973 C   0  0  0  0  0  0  0  0  0  0  0  0
  -28.9777  -24.2882   27.7793 C   0  0  0  0  0  0  0  0  0  0  0  0
  -26.6771  -23.3776   26.1598 C   0  0  0  0  0  0  0  0  0  0  0  0
  -30.6778  -19.5999   30.8325 C   0  0  0  0  0  0  0  0  0  0  0  0
  -27.6531  -23.1332   19.2069 C   0  0  0  0  0  0  0  0  0  0  0  0
  -29.5713  -12.4966   18.1668 C   0  0  0  0  0  0  0  0  0  0  0  0
  -28.7582  -22.1474   18.8248 C   0  0  0  0  0  0  0  0  0  0  0  0
  -30.0915  -19.3037   29.4558 C   0  0  0  0  0  0  0  0  0  0  0  0
  -28.0901  -24.3091   20.0775 C   0  0  0  0  0  0  0  0  0  0  0  0
  -28.1443  -12.1714   18.6137 C   0  0  0  0  0  0  0  0  0  0  0  0
  -30.5187  -12.6432   19.3562 C   0  0  0  0  0  0  0  0  0  0  0  0
  -28.6494  -13.2633   20.8363 C   0  0  0  0  0  0  0  0  0  0  0  0
  -29.2701  -21.3340   20.0115 C   0  0  0  0  0  0  0  0  0  0  0  0
  -30.5782  -20.3224   28.4180 C   0  0  1  0  0  0  0  0  0  0  0  0
  -28.8535  -23.9182   21.3448 C   0  0  2  0  0  0  0  0  0  1  0  0
  -28.0608  -23.1627   28.2483 C   0  0  1  0  0  0  0  0  0  0  0  0
  -27.6450  -13.1703   19.6760 C   0  0  2  0  0  0  0  0  0  0  0  0
  -32.2745  -19.7355   19.9714 C   0  0  0  0  0  0  0  0  0  0  0  0
  -35.0847  -23.9512   20.2194 C   0  0  0  0  0  0  0  0  0  0  0  0
  -21.2145  -26.0607   27.0360 C   0  0  0  0  0  0  0  0  0  0  0  0
  -23.9372  -20.3639   28.5086 C   0  0  0  0  0  0  0  0  0  0  0  0
  -22.0302  -21.6562   27.5280 C   0  0  0  0  0  0  0  0  0  0  0  0
  -22.9634  -22.3052   29.7485 C   0  0  0  0  0  0  0  0  0  0  0  0
  -23.9855  -26.6056   24.4864 C   0  0  0  0  0  0  0  0  0  0  0  0
  -30.8060  -21.2556   21.9794 C   0  0  0  0  0  0  0  0  0  0  0  0
  -28.9823  -19.8555   23.7728 C   0  0  0  0  0  0  0  0  0  0  0  0
  -24.3032  -22.7733   27.6562 C   0  0  1  0  0  0  0  0  0  0  0  0
  -22.6276  -25.9646   26.4824 C   0  0  2  0  0  0  0  0  0  0  0  0
  -23.3335  -21.7732   28.3468 C   0  0  0  0  0  0  0  0  0  0  0  0
  -25.8764  -11.5358   20.2068 N   0  0  0  0  0  0  0  0  0  0  0  0
  -26.2483  -12.8263   20.1588 N   0  0  0  0  0  0  0  0  0  0  0  0
  -26.7383  -23.2128   27.6215 N   0  0  0  0  0  0  0  0  0  0  0  0
  -29.9828  -13.6082   20.3187 N   0  0  0  0  0  0  0  0  0  0  0  0
  -25.4866  -15.0286   20.5835 N   0  0  0  0  0  0  0  0  0  0  0  0
  -22.7715  -13.5462   22.7799 N   0  0  0  0  0  0  0  0  0  0  0  0
  -30.1218  -15.6049   21.5663 N   0  0  0  0  0  0  0  0  0  0  0  0
  -29.8561  -21.5690   28.5562 N   0  0  0  0  0  0  0  0  0  0  0  0
  -23.7681  -24.1231   27.5141 N   0  0  0  0  0  0  0  0  0  0  0  0
  -30.4343  -21.9905   20.7156 N   0  3  2  0  0  0  0  0  0  0  0  0
  -22.6506  -26.6079   25.1383 N   0  3  0  0  0  0  0  0  0  0  0  0
  -21.9859  -13.6757   20.6294 O   0  0  0  0  0  0  0  0  0  0  0  0
  -27.9934  -21.0129   27.2742 O   0  0  0  0  0  0  0  0  0  0  0  0
  -25.6285  -22.7689   29.6234 O   0  0  0  0  0  0  0  0  0  0  0  0
  -22.8565  -23.8145   25.4044 O   0  0  0  0  0  0  0  0  0  0  0  0
  -31.8632  -14.9459   20.1825 O   0  0  0  0  0  0  0  0  0  0  0  0
  -21.6740   -6.9079   21.4192 O   0  0  0  0  0  0  0  0  0  0  0  0
  -28.9390  -25.0826   22.1705 O   0  0  0  0  0  0  0  0  0  1  0  0
  -20.9455   -5.1508   26.5947 F   0  0  0  0  0  0  0  0  0  0  0  0
  -22.5882   -4.4233   22.2155 F   0  0  0  0  0  0  0  0  0  0  0  0
  -29.8233  -20.4688   24.6452 F   0  0  0  0  0  0  0  0  0  0  0  0
  -28.2158  -19.0071   24.5057 F   0  0  0  0  0  0  0  0  0  0  0  0
  1  2  1  0  0  0  0
  1  5  2  0  0  0  0
  2  6  2  0  0  0  0
  3  8  2  0  0  0  0
  3 17  1  0  0  0  0
  4  9  1  0  0  0  0
  4 17  2  0  0  0  0
  5 19  1  0  0  0  0
  6 21  1  0  0  0  0
  7 10  2  0  0  0  0
  7 20  1  0  0  0  0
  8 27  1  0  0  0  0
  9 27  2  0  0  0  0
 10 28  1  0  0  0  0
 11 12  2  0  0  0  0
 11 29  1  0  0  0  0
 12 30  1  0  0  0  0
 13 22  1  0  0  0  0
 13 28  2  0  0  0  0
 14 23  2  0  0  0  0
 14 26  1  0  0  0  0
 15 24  1  0  0  0  0
 15 26  2  0  0  0  0
 16 30  2  0  0  0  0
 16 31  1  0  0  0  0
 17 32  1  0  0  0  0
 18 32  1  0  0  0  0
 18 33  2  0  0  0  0
 18 38  1  0  0  0  0
 19 21  2  0  0  0  0
 19 43  1  0  0  0  0
 20 22  2  0  0  0  0
 20 44  1  0  0  0  0
 21 56  1  0  0  0  0
 22 45  1  0  0  0  0
 23 25  1  0  0  0  0
 23 60  1  0  0  0  0
 24 25  2  0  0  0  0
 24 68  1  0  0  0  0
 25 67  1  0  0  0  0
 26 78  1  0  0  0  0
 27 88  1  0  0  0  0
 28 89  1  0  0  0  0
 29 31  2  0  0  0  0
 29 88  1  0  0  0  0
 30 90  1  0  0  0  0
 31 91  1  0  0  0  0
 32 72  2  0  0  0  0
 33 73  1  0  0  0  0
 33 76  1  0  0  0  0
 34 35  2  0  0  0  0
 34 57  1  0  0  0  0
 34 81  1  0  0  0  0
 35 36  1  0  0  0  0
 36 37  2  0  0  0  0
 37 61  1  0  0  0  0
 38 77  1  0  0  0  0
 38 83  2  0  0  0  0
 39 58  1  0  0  0  0
 39 79  1  0  0  0  0
 39 84  2  0  0  0  0
 40 69  1  0  0  0  0
 40 74  1  0  0  0  0
 40 85  2  0  0  0  0
 41 70  1  0  0  0  0
 41 80  1  0  0  0  0
 41 86  2  0  0  0  0
 42 75  1  0  0  0  0
 42 78  1  0  0  0  0
 42 87  2  0  0  0  0
 43 46  1  0  0  0  0
 44 58  1  0  0  0  0
 45 74  1  0  0  0  0
 46 50  1  0  0  0  0
 47 49  1  0  0  0  0
 47 51  1  0  0  0  0
 48 52  1  0  0  0  0
 48 53  1  0  0  0  0
 49 55  1  0  0  0  0
 50 56  1  0  0  0  0
 51 57  1  0  0  0  0
 52 59  1  0  0  0  0
 53 75  1  0  0  0  0
 54 59  1  0  0  0  0
 54 75  1  0  0  0  0
 55 81  1  0  0  0  0
 56 79  1  0  0  0  0
 57 89  1  0  0  0  0
 58 74  1  0  0  0  0
 59 73  1  0  0  0  0
 62 70  1  0  0  0  0
 63 71  1  0  0  0  0
 64 71  1  0  0  0  0
 65 71  1  0  0  0  0
 66 82  1  0  0  0  0
 67 81  1  0  0  0  0
 68 92  1  0  0  0  0
 68 93  1  0  0  0  0
 69 71  1  0  0  0  0
 69 80  1  0  0  0  0
 70 82  1  0  0  0  0
 72 73  1  0  0  0  0
M  CHG  2  81   1  82   1
M  ISO  4  42 100  57 101  78 100  89 101
M  END
> <Batch ID>
0040

> <Smiles>
CC=CC=C1N(Cc2c(C)cc([100NH:0][100C:0](=O)N3CCCC(n4nc(-c5ccc(Oc6ccc(F)cc6F)cc5)c(C(N)=O)c4N)C3)cc2C(F)F)CCCC[101CH:1]1[101O:1]c1ccc2c(c1)CN(C(=O)C(NC(=O)C(C)NC)C(C)(C)C)C(C(=O)NC1CCCc3ccccc31)C2

> <Shape>
0.220

> <Color>
0.172

> <Negative vol penalty>
0.000

$$$$

  -OEChem-04042322063D

 98107  0     1  0  0  0  0  0999 V2000
  -27.2576  -37.6834   19.1345 C   0  0  0  0  0  0  0  0  0  0  0  0
  -27.7974  -36.4057   19.0274 C   0  0  0  0  0  0  0  0  0  0  0  0
  -25.3962  -15.2679   23.3475 C   0  0  0  0  0  0  0  0  0  0  0  0
  -24.5798  -16.5681   21.4820 C   0  0  0  0  0  0  0  0  0  0  0  0
  -26.3353  -37.9671   20.1409 C   0  0  0  0  0  0  0  0  0  0  0  0
  -27.4162  -35.4112   19.9274 C   0  0  0  0  0  0  0  0  0  0  0  0
  -26.7789  -29.4339   18.7565 C   0  0  0  0  0  0  0  0  0  0  0  0
  -28.8242  -20.0783   17.8910 C   0  0  0  0  0  0  0  0  0  0  0  0
  -28.4940  -18.7264   17.7963 C   0  0  0  0  0  0  0  0  0  0  0  0
  -25.3416  -16.4000   24.1605 C   0  0  0  0  0  0  0  0  0  0  0  0
  -24.5251  -17.7002   22.2950 C   0  0  0  0  0  0  0  0  0  0  0  0
  -27.6187  -28.3416   18.9697 C   0  0  0  0  0  0  0  0  0  0  0  0
  -27.2006  -19.1709   24.6997 C   0  0  0  0  0  0  0  0  0  0  0  0
  -28.2924  -19.4252   25.5296 C   0  0  0  0  0  0  0  0  0  0  0  0
  -26.4730  -27.8726   21.0401 C   0  0  0  0  0  0  0  0  0  0  0  0
  -26.8535  -19.2859   27.4653 C   0  0  0  0  0  0  0  0  0  0  0  0
  -25.0154  -15.3520   22.0082 C   0  0  0  0  0  0  0  0  0  0  0  0
  -24.3816  -12.9700   21.3509 C   0  0  0  0  0  0  0  0  0  0  0  0
  -25.9353  -36.9731   21.0478 C   0  0  0  0  0  0  0  0  0  0  0  0
  -25.7853  -29.7608   19.6905 C   0  0  0  0  0  0  0  0  0  0  0  0
  -26.4887  -35.6823   20.9478 C   0  0  0  0  0  0  0  0  0  0  0  0
  -25.6203  -28.9680   20.8352 C   0  0  0  0  0  0  0  0  0  0  0  0
  -30.1625  -20.4669   17.9500 C   0  0  0  0  0  0  0  0  0  0  0  0
  -31.1707  -19.5036   17.9145 C   0  0  0  0  0  0  0  0  0  0  0  0
  -30.8405  -18.1517   17.8198 C   0  0  0  0  0  0  0  0  0  0  0  0
  -29.5022  -17.7631   17.7607 C   0  0  0  0  0  0  0  0  0  0  0  0
  -24.9060  -17.6162   23.6342 C   0  0  0  0  0  0  0  0  0  0  0  0
  -27.4677  -27.5624   20.1130 C   0  0  0  0  0  0  0  0  0  0  0  0
  -25.9351  -18.9742   25.2526 C   0  0  0  0  0  0  0  0  0  0  0  0
  -28.1189  -19.4827   26.9124 C   0  0  0  0  0  0  0  0  0  0  0  0
  -25.7616  -19.0317   26.6354 C   0  0  0  0  0  0  0  0  0  0  0  0
  -25.0722  -14.1830   21.1678 C   0  0  0  0  0  0  0  0  0  0  0  0
  -24.7730  -12.1887   20.2913 C   0  0  0  0  0  0  0  0  0  0  0  0
  -29.7787  -22.4614   20.2915 C   0  0  0  0  0  0  0  0  0  0  0  0
  -31.2535  -12.1663   24.0204 C   0  0  0  0  0  0  0  0  0  0  0  0
  -29.4602  -21.3848   21.0318 C   0  0  0  0  0  0  0  0  0  0  0  0
  -31.5842  -13.2288   23.2778 C   0  0  0  0  0  0  0  0  0  0  0  0
  -30.2485  -20.1787   21.0466 C   0  0  0  0  0  0  0  0  0  0  0  0
  -30.8257  -14.4589   23.2688 C   0  0  0  0  0  0  0  0  0  0  0  0
  -29.9233  -19.1089   21.7884 C   0  0  0  0  0  0  0  0  0  0  0  0
  -31.1642  -15.5206   22.5207 C   0  0  0  0  0  0  0  0  0  0  0  0
  -30.6607  -17.8648   21.8110 C   0  0  0  0  0  0  0  0  0  0  0  0
  -30.4050  -16.7534   22.5198 C   0  0  0  0  0  0  0  0  0  0  0  0
  -23.4680  -12.5840   22.3863 C   0  0  0  0  0  0  0  0  0  0  0  0
  -25.1844  -32.2760   21.5388 C   0  0  0  0  0  0  0  0  0  0  0  0
  -22.4694  -30.6366   22.2195 C   0  0  0  0  0  0  0  0  0  0  0  0
  -20.8624  -27.6299   22.3747 C   0  0  0  0  0  0  0  0  0  0  0  0
  -27.8586  -15.8498   17.5962 C   0  0  0  0  0  0  0  0  0  0  0  0
  -24.9712  -37.3397   22.1481 C   0  0  0  0  0  0  0  0  0  0  0  0
  -24.8702  -30.9263   19.4327 C   0  0  0  0  0  0  0  0  0  0  0  0
  -24.5557  -29.2646   21.8586 C   0  0  0  0  0  0  0  0  0  0  0  0
  -28.9228  -23.7037   20.3075 C   0  0  0  0  0  0  0  0  0  0  0  0
  -24.3370  -36.1303   22.8304 C   0  0  0  0  0  0  0  0  0  0  0  0
  -31.6463  -24.1950   21.9436 C   0  0  0  0  0  0  0  0  0  0  0  0
  -28.7410  -12.0969   17.5395 C   0  0  0  0  0  0  0  0  0  0  0  0
  -32.5044  -23.8522   20.7236 C   0  0  0  0  0  0  0  0  0  0  0  0
  -25.3990  -35.0868   23.1622 C   0  0  0  0  0  0  0  0  0  0  0  0
  -30.5320  -25.2140   21.6877 C   0  0  0  0  0  0  0  0  0  0  0  0
  -27.6783  -11.8085   18.5924 C   0  0  0  0  0  0  0  0  0  0  0  0
  -29.0414  -13.5923   17.4867 C   0  0  0  0  0  0  0  0  0  0  0  0
  -26.5549  -13.7489   17.3285 C   0  0  0  0  0  0  0  0  0  0  0  0
  -31.7967  -23.5762   19.4002 C   0  0  0  0  0  0  0  0  0  0  0  0
  -26.0814  -34.5702   21.8898 C   0  0  1  0  0  0  0  0  0  0  0  0
  -24.2274  -31.4737   20.7034 C   0  0  1  0  0  0  0  0  0  0  0  0
  -29.1215  -24.6042   21.5442 C   0  0  1  0  0  0  0  0  0  0  0  0
  -26.3652  -12.5578   18.2900 C   0  0  2  0  0  0  0  0  0  0  0  0
  -32.6052  -19.9235   17.9779 C   0  0  0  0  0  0  0  0  0  0  0  0
  -31.9241  -17.1196   17.7817 C   0  0  0  0  0  0  0  0  0  0  0  0
  -18.6611  -26.6031   23.0049 C   0  0  0  0  0  0  0  0  0  0  0  0
  -23.1780  -30.9357   25.1722 C   0  0  0  0  0  0  0  0  0  0  0  0
  -21.5209  -29.1292   25.6811 C   0  0  0  0  0  0  0  0  0  0  0  0
  -20.7562  -31.2643   24.6421 C   0  0  0  0  0  0  0  0  0  0  0  0
  -20.4205  -26.6111   19.6314 C   0  0  0  0  0  0  0  0  0  0  0  0
  -30.4900  -21.9276   18.0515 C   0  0  0  0  0  0  0  0  0  0  0  0
  -28.0869  -25.7374   21.5066 C   0  0  0  0  0  0  0  0  0  1  0  0
  -22.0706  -29.6108   23.2527 C   0  0  1  0  0  0  0  0  0  0  0  0
  -19.4966  -27.1910   21.8784 C   0  0  2  0  0  0  0  0  0  0  0  0
  -21.9028  -30.2303   24.6689 C   0  0  0  0  0  0  0  0  0  0  0  0
  -25.8439  -14.1775   20.0776 N   0  0  0  0  0  0  0  0  0  0  0  0
  -25.6407  -12.9514   19.5663 N   0  0  0  0  0  0  0  0  0  0  0  0
  -23.6899  -30.4185   21.5647 N   0  0  0  0  0  0  0  0  0  0  0  0
  -27.8370  -14.4355   17.5053 N   0  0  0  0  0  0  0  0  0  0  0  0
  -24.4563  -10.9305   19.9183 N   0  0  0  0  0  0  0  0  0  0  0  0
  -22.1022  -12.8384   22.2012 N   0  0  0  0  0  0  0  0  0  0  0  0
  -29.1436  -16.3949   17.6641 N   0  0  0  0  0  0  0  0  0  0  0  0
  -25.2295  -33.6176   21.2107 N   0  0  0  0  0  0  0  0  0  0  0  0
  -20.8702  -28.9597   22.7393 N   0  0  0  0  0  0  0  0  0  0  0  0
  -30.9358  -22.3392   19.4341 N   0  3  2  0  0  0  0  0  0  0  0  0
  -19.6397  -26.1598   20.8120 N   0  3  0  0  0  0  0  0  0  0  0  0
  -23.8532  -12.0447   23.4513 O   0  0  0  0  0  0  0  0  0  0  0  0
  -25.8329  -31.7195   22.4171 O   0  0  0  0  0  0  0  0  0  0  0  0
  -21.7221  -31.5923   21.9963 O   0  0  0  0  0  0  0  0  0  0  0  0
  -21.8250  -26.8683   22.4365 O   0  0  0  0  0  0  0  0  0  0  0  0
  -26.8201  -16.5140   17.6081 O   0  0  0  0  0  0  0  0  0  0  0  0
  -24.8523  -18.7210   24.4273 O   0  0  0  0  0  0  0  0  0  0  0  0
  -28.2946  -26.4854   20.3260 O   0  0  0  0  0  0  0  0  0  1  0  0
  -29.1678  -19.7254   27.7094 F   0  0  0  0  0  0  0  0  0  0  0  0
  -24.5485  -18.8423   27.1724 F   0  0  0  0  0  0  0  0  0  0  0  0
  1  2  1  0  0  0  0
  1  5  2  0  0  0  0
  2  6  2  0  0  0  0
  3 10  2  0  0  0  0
  3 17  1  0  0  0  0
  4 11  1  0  0  0  0
  4 17  2  0  0  0  0
  5 19  1  0  0  0  0
  6 21  1  0  0  0  0
  7 12  2  0  0  0  0
  7 20  1  0  0  0  0
  8  9  2  0  0  0  0
  8 23  1  0  0  0  0
  9 26  1  0  0  0  0
 10 27  1  0  0  0  0
 11 27  2  0  0  0  0
 12 28  1  0  0  0  0
 13 14  2  0  0  0  0
 13 29  1  0  0  0  0
 14 30  1  0  0  0  0
 15 22  1  0  0  0  0
 15 28  2  0  0  0  0
 16 30  2  0  0  0  0
 16 31  1  0  0  0  0
 17 32  1  0  0  0  0
 18 32  1  0  0  0  0
 18 33  2  0  0  0  0
 18 44  1  0  0  0  0
 19 21  2  0  0  0  0
 19 49  1  0  0  0  0
 20 22  2  0  0  0  0
 20 50  1  0  0  0  0
 21 63  1  0  0  0  0
 22 51  1  0  0  0  0
 23 24  2  0  0  0  0
 23 74  1  0  0  0  0
 24 25  1  0  0  0  0
 24 67  1  0  0  0  0
 25 26  2  0  0  0  0
 25 68  1  0  0  0  0
 26 85  1  0  0  0  0
 27 95  1  0  0  0  0
 28 96  1  0  0  0  0
 29 31  2  0  0  0  0
 29 95  1  0  0  0  0
 30 97  1  0  0  0  0
 31 98  1  0  0  0  0
 32 79  2  0  0  0  0
 33 80  1  0  0  0  0
 33 83  1  0  0  0  0
 34 36  2  0  0  0  0
 34 52  1  0  0  0  0
 34 88  1  0  0  0  0
 35 37  2  0  0  0  0
 36 38  1  0  0  0  0
 37 39  1  0  0  0  0
 38 40  2  0  0  0  0
 39 41  2  0  0  0  0
 40 42  1  0  0  0  0
 41 43  1  0  0  0  0
 42 43  2  0  0  0  0
 44 84  1  0  0  0  0
 44 90  2  0  0  0  0
 45 64  1  0  0  0  0
 45 86  1  0  0  0  0
 45 91  2  0  0  0  0
 46 76  1  0  0  0  0
 46 81  1  0  0  0  0
 46 92  2  0  0  0  0
 47 77  1  0  0  0  0
 47 87  1  0  0  0  0
 47 93  2  0  0  0  0
 48 82  1  0  0  0  0
 48 85  1  0  0  0  0
 48 94  2  0  0  0  0
 49 53  1  0  0  0  0
 50 64  1  0  0  0  0
 51 81  1  0  0  0  0
 52 65  1  0  0  0  0
 53 57  1  0  0  0  0
 54 56  1  0  0  0  0
 54 58  1  0  0  0  0
 55 59  1  0  0  0  0
 55 60  1  0  0  0  0
 56 62  1  0  0  0  0
 57 63  1  0  0  0  0
 58 65  1  0  0  0  0
 59 66  1  0  0  0  0
 60 82  1  0  0  0  0
 61 66  1  0  0  0  0
 61 82  1  0  0  0  0
 62 88  1  0  0  0  0
 63 86  1  0  0  0  0
 64 81  1  0  0  0  0
 65 75  1  0  0  0  0
 66 80  1  0  0  0  0
 69 77  1  0  0  0  0
 70 78  1  0  0  0  0
 71 78  1  0  0  0  0
 72 78  1  0  0  0  0
 73 89  1  0  0  0  0
 74 88  1  0  0  0  0
 75 96  1  0  0  0  0
 76 78  1  0  0  0  0
 76 87  1  0  0  0  0
 77 89  1  0  0  0  0
 79 80  1  0  0  0  0
M  CHG  2  88   1  89   1
M  ISO  4  48 100  75 101  85 100  96 101
M  END
> <Batch ID>
0040

> <Smiles>
C=CC=CC=CC=CC=C1CC([101CH2:1][101O:1]c2ccc3c(c2)CN(C(=O)C(NC(=O)C(C)NC)C(C)(C)C)C(C(=O)NC2CCCc4ccccc42)C3)CCCCN1Cc1ccc([100NH:0][100C:0](=O)N2CCCC(n3nc(-c4ccc(Oc5ccc(F)cc5F)cc4)c(C(N)=O)c3N)C2)c(C)c1C

> <Shape>
0.268

> <Color>
0.092

> <Negative vol penalty>
0.000

$$$$

  -OEChem-04042322063D

 91100  0     1  0  0  0  0  0999 V2000
  -27.9002  -23.1119   19.2149 C   0  0  0  0  0  0  0  0  0  0  0  0
  -26.6997  -23.7128   19.5796 C   0  0  0  0  0  0  0  0  0  0  0  0
  -29.3316  -13.6678   18.4799 C   0  0  0  0  0  0  0  0  0  0  0  0
  -28.7972  -13.3088   20.8085 C   0  0  0  0  0  0  0  0  0  0  0  0
  -29.0756  -23.4395   19.8894 C   0  0  0  0  0  0  0  0  0  0  0  0
  -26.6737  -24.6411   20.6198 C   0  0  0  0  0  0  0  0  0  0  0  0
  -23.9243  -28.7425   19.4956 C   0  0  0  0  0  0  0  0  0  0  0  0
  -29.2858  -12.2916   18.2572 C   0  0  0  0  0  0  0  0  0  0  0  0
  -28.7514  -11.9326   20.5858 C   0  0  0  0  0  0  0  0  0  0  0  0
  -22.5378  -28.6218   19.5782 C   0  0  0  0  0  0  0  0  0  0  0  0
  -26.9195   -9.9175   17.8130 C   0  0  0  0  0  0  0  0  0  0  0  0
  -26.2384   -9.4660   16.6827 C   0  0  0  0  0  0  0  0  0  0  0  0
  -22.5791  -29.6963   21.7376 C   0  0  0  0  0  0  0  0  0  0  0  0
  -22.3644  -23.8149   21.3384 C   0  0  0  0  0  0  0  0  0  0  0  0
  -28.2701   -8.4451   15.8661 C   0  0  0  0  0  0  0  0  0  0  0  0
  -29.0873  -14.1764   19.7556 C   0  0  0  0  0  0  0  0  0  0  0  0
  -30.2345  -16.4547   19.7892 C   0  0  0  0  0  0  0  0  0  0  0  0
  -29.0657  -24.3794   20.9321 C   0  0  0  0  0  0  0  0  0  0  0  0
  -24.6510  -29.3321   20.5399 C   0  0  0  0  0  0  0  0  0  0  0  0
  -27.8499  -24.9806   21.3098 C   0  0  0  0  0  0  0  0  0  0  0  0
  -23.9745  -29.8256   21.6646 C   0  0  0  0  0  0  0  0  0  0  0  0
  -21.6095  -24.6880   22.1217 C   0  0  0  0  0  0  0  0  0  0  0  0
  -21.7678  -22.6827   20.7835 C   0  0  0  0  0  0  0  0  0  0  0  0
  -20.2582  -24.4287   22.3503 C   0  0  0  0  0  0  0  0  0  0  0  0
  -19.6616  -23.2965   21.7954 C   0  0  0  0  0  0  0  0  0  0  0  0
  -28.9957  -11.4240   19.3101 C   0  0  0  0  0  0  0  0  0  0  0  0
  -21.8653  -29.0962   20.7006 C   0  0  0  0  0  0  0  0  0  0  0  0
  -28.2760   -9.6328   17.9699 C   0  0  0  0  0  0  0  0  0  0  0  0
  -26.9136   -8.7298   15.7092 C   0  0  0  0  0  0  0  0  0  0  0  0
  -28.9513   -8.8966   16.9965 C   0  0  0  0  0  0  0  0  0  0  0  0
  -20.4164  -22.4234   21.0120 C   0  0  0  0  0  0  0  0  0  0  0  0
  -29.1350  -15.5978   19.9864 C   0  0  0  0  0  0  0  0  0  0  0  0
  -29.7710  -17.6964   20.1493 C   0  0  0  0  0  0  0  0  0  0  0  0
  -17.7509  -27.0996   23.2447 C   0  0  0  0  0  0  0  0  0  0  0  0
  -14.5637  -25.2794   23.1271 C   0  0  0  0  0  0  0  0  0  0  0  0
  -16.4672  -26.7765   23.4628 C   0  0  0  0  0  0  0  0  0  0  0  0
  -15.8438  -25.6010   22.9094 C   0  0  0  0  0  0  0  0  0  0  0  0
  -31.5565  -16.1549   19.3223 C   0  0  0  0  0  0  0  0  0  0  0  0
  -26.9176  -28.3395   22.5351 C   0  0  0  0  0  0  0  0  0  0  0  0
  -26.9481  -31.4566   23.4326 C   0  0  0  0  0  0  0  0  0  0  0  0
  -24.5089  -34.0389   24.0643 C   0  0  0  0  0  0  0  0  0  0  0  0
  -24.3376  -20.0054   20.1962 C   0  0  0  0  0  0  0  0  0  0  0  0
  -30.3533  -24.6662   21.6631 C   0  0  0  0  0  0  0  0  0  0  0  0
  -26.1434  -29.4788   20.4236 C   0  0  0  0  0  0  0  0  0  0  0  0
  -24.7061  -30.4851   22.8040 C   0  0  0  0  0  0  0  0  0  0  0  0
  -18.3974  -28.3281   23.8248 C   0  0  0  0  0  0  0  0  0  0  0  0
  -30.3049  -25.9381   22.5059 C   0  0  0  0  0  0  0  0  0  0  0  0
  -19.1008  -29.1235   22.7317 C   0  0  0  0  0  0  0  0  0  0  0  0
  -26.5861  -19.8155   23.0256 C   0  0  0  0  0  0  0  0  0  0  0  0
  -29.0197  -25.9864   23.3262 C   0  0  0  0  0  0  0  0  0  0  0  0
  -27.6043  -18.7840   22.5363 C   0  0  0  0  0  0  0  0  0  0  0  0
  -25.1758  -19.4633   22.5618 C   0  0  0  0  0  0  0  0  0  0  0  0
  -26.0531  -18.2621   20.5969 C   0  0  0  0  0  0  0  0  0  0  0  0
  -19.2086  -27.0441   21.3072 C   0  0  0  0  0  0  0  0  0  0  0  0
  -27.7854  -26.0106   22.4166 C   0  0  1  0  0  0  0  0  0  0  0  0
  -26.8358  -29.6326   21.7743 C   0  0  1  0  0  0  0  0  0  0  0  0
  -27.5018  -18.5741   21.0140 C   0  0  2  0  0  0  0  0  0  0  0  0
  -19.9925  -28.2243   21.8755 C   0  0  1  0  0  0  0  0  0  1  0  0
  -22.2723  -25.8928   22.7041 C   0  0  0  0  0  0  0  0  0  0  0  0
  -18.2092  -23.0361   22.0514 C   0  0  0  0  0  0  0  0  0  0  0  0
  -24.6958  -36.5358   23.8971 C   0  0  0  0  0  0  0  0  0  0  0  0
  -27.6089  -31.3162   26.4081 C   0  0  0  0  0  0  0  0  0  0  0  0
  -26.2719  -33.4080   26.7326 C   0  0  0  0  0  0  0  0  0  0  0  0
  -28.3029  -33.4399   25.2844 C   0  0  0  0  0  0  0  0  0  0  0  0
  -22.1982  -34.2048   22.2225 C   0  0  0  0  0  0  0  0  0  0  0  0
  -22.6159  -21.7753   19.9510 C   0  0  0  0  0  0  0  0  0  0  0  0
  -19.4504  -25.3717   23.1924 C   0  0  0  0  0  0  0  0  0  0  0  0
  -26.2124  -32.2799   24.4621 C   0  0  1  0  0  0  0  0  0  0  0  0
  -24.2366  -35.2613   23.2062 C   0  0  2  0  0  0  0  0  0  0  0  0
  -27.0872  -32.5880   25.7100 C   0  0  0  0  0  0  0  0  0  0  0  0
  -28.0545  -16.2409   20.4369 N   0  0  0  0  0  0  0  0  0  0  0  0
  -28.4728  -17.5149   20.5260 N   0  0  0  0  0  0  0  0  0  0  0  0
  -26.1654  -30.5994   22.6462 N   0  0  0  0  0  0  0  0  0  0  0  0
  -25.1430  -19.2954   21.1021 N   0  0  0  0  0  0  0  0  0  0  0  0
  -30.3514  -18.9149   20.1775 N   0  0  0  0  0  0  0  0  0  0  0  0
  -32.5368  -15.8147   20.2644 N   0  0  0  0  0  0  0  0  0  0  0  0
  -27.5894  -27.3345   21.8658 N   0  0  0  0  0  0  0  0  0  0  0  0
  -25.7269  -33.4660   23.7651 N   0  0  0  0  0  0  0  0  0  0  0  0
  -23.4990  -20.9613   20.7563 N   0  0  0  0  0  0  0  0  0  0  0  0
  -18.5244  -26.2378   22.3840 N   0  3  1  0  0  0  0  0  0  0  0  0
  -22.7785  -35.3800   22.9218 N   0  3  0  0  0  0  0  0  0  0  0  0
  -31.8637  -16.2037   18.1070 O   0  0  0  0  0  0  0  0  0  0  0  0
  -26.4102  -28.2600   23.6477 O   0  0  0  0  0  0  0  0  0  0  0  0
  -28.1712  -31.5750   23.3252 O   0  0  0  0  0  0  0  0  0  0  0  0
  -23.7216  -33.6351   24.9173 O   0  0  0  0  0  0  0  0  0  0  0  0
  -24.3674  -19.8059   18.9770 O   0  0  0  0  0  0  0  0  0  0  0  0
  -28.9507  -10.0811   19.0931 O   0  0  0  0  0  0  0  0  0  0  0  0
  -20.5120  -28.9791   20.7842 O   0  0  0  0  0  0  0  0  0  1  0  0
  -26.2590   -8.2950   14.6245 F   0  0  0  0  0  0  0  0  0  0  0  0
  -30.2542   -8.6190   17.1422 F   0  0  0  0  0  0  0  0  0  0  0  0
  -19.6792  -21.0157   20.3221 Cl  0  0  0  0  0  0  0  0  0  0  0  0
  1  2  1  0  0  0  0
  1  5  2  0  0  0  0
  2  6  2  0  0  0  0
  3  8  2  0  0  0  0
  3 16  1  0  0  0  0
  4  9  1  0  0  0  0
  4 16  2  0  0  0  0
  5 18  1  0  0  0  0
  6 20  1  0  0  0  0
  7 10  2  0  0  0  0
  7 19  1  0  0  0  0
  8 26  1  0  0  0  0
  9 26  2  0  0  0  0
 10 27  1  0  0  0  0
 11 12  2  0  0  0  0
 11 28  1  0  0  0  0
 12 29  1  0  0  0  0
 13 21  1  0  0  0  0
 13 27  2  0  0  0  0
 14 22  2  0  0  0  0
 14 23  1  0  0  0  0
 15 29  2  0  0  0  0
 15 30  1  0  0  0  0
 16 32  1  0  0  0  0
 17 32  1  0  0  0  0
 17 33  2  0  0  0  0
 17 38  1  0  0  0  0
 18 20  2  0  0  0  0
 18 43  1  0  0  0  0
 19 21  2  0  0  0  0
 19 44  1  0  0  0  0
 20 55  1  0  0  0  0
 21 45  1  0  0  0  0
 22 24  1  0  0  0  0
 22 59  1  0  0  0  0
 23 31  2  0  0  0  0
 23 66  1  0  0  0  0
 24 25  2  0  0  0  0
 24 67  1  0  0  0  0
 25 31  1  0  0  0  0
 25 60  1  0  0  0  0
 26 87  1  0  0  0  0
 27 88  1  0  0  0  0
 28 30  2  0  0  0  0
 28 87  1  0  0  0  0
 29 89  1  0  0  0  0
 30 90  1  0  0  0  0
 31 91  1  0  0  0  0
 32 71  2  0  0  0  0
 33 72  1  0  0  0  0
 33 75  1  0  0  0  0
 34 36  2  0  0  0  0
 34 46  1  0  0  0  0
 34 80  1  0  0  0  0
 35 37  2  0  0  0  0
 36 37  1  0  0  0  0
 38 76  1  0  0  0  0
 38 82  2  0  0  0  0
 39 56  1  0  0  0  0
 39 77  1  0  0  0  0
 39 83  2  0  0  0  0
 40 68  1  0  0  0  0
 40 73  1  0  0  0  0
 40 84  2  0  0  0  0
 41 69  1  0  0  0  0
 41 78  1  0  0  0  0
 41 85  2  0  0  0  0
 42 74  1  0  0  0  0
 42 79  1  0  0  0  0
 42 86  2  0  0  0  0
 43 47  1  0  0  0  0
 44 56  1  0  0  0  0
 45 73  1  0  0  0  0
 46 48  1  0  0  0  0
 47 50  1  0  0  0  0
 48 58  1  0  0  0  0
 49 51  1  0  0  0  0
 49 52  1  0  0  0  0
 50 55  1  0  0  0  0
 51 57  1  0  0  0  0
 52 74  1  0  0  0  0
 53 57  1  0  0  0  0
 53 74  1  0  0  0  0
 54 58  1  0  0  0  0
 54 80  1  0  0  0  0
 55 77  1  0  0  0  0
 56 73  1  0  0  0  0
 57 72  1  0  0  0  0
 58 88  1  0  0  0  0
 61 69  1  0  0  0  0
 62 70  1  0  0  0  0
 63 70  1  0  0  0  0
 64 70  1  0  0  0  0
 65 81  1  0  0  0  0
 66 79  1  0  0  0  0
 67 80  1  0  0  0  0
 68 70  1  0  0  0  0
 68 78  1  0  0  0  0
 69 81  1  0  0  0  0
 71 72  1  0  0  0  0
M  CHG  2  80   1  81   1
M  ISO  4  42 100  58 101  79 100  88 101
M  END
> <Batch ID>
0040

> <Smiles>
C=CC=C1CC[101CH:1]([101O:1]c2ccc3c(c2)CN(C(=O)C(NC(=O)C(C)NC)C(C)(C)C)C(C(=O)NC2CCCc4ccccc42)C3)CN1Cc1c(C)cc(C[100NH:0][100C:0](=O)N2CCCC(n3nc(-c4ccc(Oc5ccc(F)cc5F)cc4)c(C(N)=O)c3N)C2)c(Cl)c1C

> <Shape>
0.257

> <Color>
0.059

> <Negative vol penalty>
0.000

$$$$

  -OEChem-04042322063D

 85 93  0     1  0  0  0  0  0999 V2000
  -29.3460  -29.8095   23.4424 C   0  0  0  0  0  0  0  0  0  0  0  0
  -28.7137  -28.5868   23.6438 C   0  0  0  0  0  0  0  0  0  0  0  0
  -23.2804   -9.8027   19.9085 C   0  0  0  0  0  0  0  0  0  0  0  0
  -23.7207   -9.9393   22.2801 C   0  0  0  0  0  0  0  0  0  0  0  0
  -29.6771  -30.2173   22.1509 C   0  0  0  0  0  0  0  0  0  0  0  0
  -28.4111  -27.7717   22.5537 C   0  0  0  0  0  0  0  0  0  0  0  0
  -29.5921  -22.9157   23.3720 C   0  0  0  0  0  0  0  0  0  0  0  0
  -22.5462   -8.6344   20.1121 C   0  0  0  0  0  0  0  0  0  0  0  0
  -22.9864   -8.7709   22.4837 C   0  0  0  0  0  0  0  0  0  0  0  0
  -28.7166  -22.1719   24.1620 C   0  0  0  0  0  0  0  0  0  0  0  0
  -20.8571   -5.4174   19.9639 C   0  0  0  0  0  0  0  0  0  0  0  0
  -21.0798   -4.3499   19.0943 C   0  0  0  0  0  0  0  0  0  0  0  0
  -27.7434  -21.2157   22.1725 C   0  0  0  0  0  0  0  0  0  0  0  0
  -32.8295  -15.2756   23.7201 C   0  0  0  0  0  0  0  0  0  0  0  0
  -31.9069  -17.2631   24.7379 C   0  0  0  0  0  0  0  0  0  0  0  0
  -23.3993   -4.2856   19.7673 C   0  0  0  0  0  0  0  0  0  0  0  0
  -23.8677  -10.4552   20.9926 C   0  0  0  0  0  0  0  0  0  0  0  0
  -24.1428  -12.9837   20.7967 C   0  0  0  0  0  0  0  0  0  0  0  0
  -29.3872  -29.4024   21.0452 C   0  0  0  0  0  0  0  0  0  0  0  0
  -29.5424  -22.8231   21.9736 C   0  0  0  0  0  0  0  0  0  0  0  0
  -28.7375  -28.1696   21.2461 C   0  0  0  0  0  0  0  0  0  0  0  0
  -28.6211  -21.9575   21.3672 C   0  0  0  0  0  0  0  0  0  0  0  0
  -31.7215  -14.5432   24.1458 C   0  0  0  0  0  0  0  0  0  0  0  0
  -30.7988  -16.5306   25.1637 C   0  0  0  0  0  0  0  0  0  0  0  0
  -22.3991   -8.1185   21.3997 C   0  0  0  0  0  0  0  0  0  0  0  0
  -27.7901  -21.3239   23.5622 C   0  0  0  0  0  0  0  0  0  0  0  0
  -21.9055   -5.9191   20.7352 C   0  0  0  0  0  0  0  0  0  0  0  0
  -22.3509   -3.7839   18.9960 C   0  0  0  0  0  0  0  0  0  0  0  0
  -23.1766   -5.3532   20.6369 C   0  0  0  0  0  0  0  0  0  0  0  0
  -32.9223  -16.6356   24.0162 C   0  0  0  0  0  0  0  0  0  0  0  0
  -30.7061  -15.1707   24.8676 C   0  0  0  0  0  0  0  0  0  0  0  0
  -24.6267  -11.6618   20.7828 C   0  0  0  0  0  0  0  0  0  0  0  0
  -25.2501  -13.7573   20.5475 C   0  0  0  0  0  0  0  0  0  0  0  0
  -22.8116  -13.4690   21.0155 C   0  0  0  0  0  0  0  0  0  0  0  0
  -28.9421  -24.8626   19.6106 C   0  0  0  0  0  0  0  0  0  0  0  0
  -29.7901  -22.3470   17.7464 C   0  0  0  0  0  0  0  0  0  0  0  0
  -30.1165  -18.9661   17.4158 C   0  0  0  0  0  0  0  0  0  0  0  0
  -31.1120  -12.8794   21.3946 C   0  0  0  0  0  0  0  0  0  0  0  0
  -29.7217  -29.9071   19.6639 C   0  0  0  0  0  0  0  0  0  0  0  0
  -30.5116  -23.6119   21.1365 C   0  0  0  0  0  0  0  0  0  0  0  0
  -28.5408  -21.8068   19.8707 C   0  0  0  0  0  0  0  0  0  0  0  0
  -29.7039  -28.8163   18.5961 C   0  0  0  0  0  0  0  0  0  0  0  0
  -29.4822  -13.6302   18.3195 C   0  0  0  0  0  0  0  0  0  0  0  0
  -28.4516  -27.9562   18.7324 C   0  0  0  0  0  0  0  0  0  0  0  0
  -28.0093  -13.3302   18.6033 C   0  0  0  0  0  0  0  0  0  0  0  0
  -30.4063  -12.6450   19.0316 C   0  0  0  0  0  0  0  0  0  0  0  0
  -28.7089  -12.2245   20.7682 C   0  0  0  0  0  0  0  0  0  0  0  0
  -28.4151  -27.2463   20.0912 C   0  0  1  0  0  0  0  0  0  0  0  0
  -30.0275  -23.8280   19.7060 C   0  0  1  0  0  0  0  0  0  0  0  0
  -27.7399  -13.2258   20.1165 C   0  0  2  0  0  0  0  0  0  0  0  0
  -30.7982  -17.2051   15.7631 C   0  0  0  0  0  0  0  0  0  0  0  0
  -27.1388  -22.7018   16.2785 C   0  0  0  0  0  0  0  0  0  0  0  0
  -27.4397  -20.4066   15.3246 C   0  0  0  0  0  0  0  0  0  0  0  0
  -29.0915  -22.2004   14.7987 C   0  0  0  0  0  0  0  0  0  0  0  0
  -32.3138  -18.0178   19.1570 C   0  0  0  0  0  0  0  0  0  0  0  0
  -31.6637  -13.0884   23.8052 C   0  0  0  0  0  0  0  0  0  0  0  0
  -29.7307  -17.2472   25.9361 C   0  0  0  0  0  0  0  0  0  0  0  0
  -26.2090  -18.4039   24.9765 C   0  0  0  0  0  0  0  0  0  0  0  0
  -27.4070  -18.1618   25.8822 C   0  0  0  0  0  0  0  0  0  0  0  0
  -26.5010  -19.3409   23.8109 C   0  0  0  0  0  0  0  0  0  1  0  0
  -29.0561  -21.1886   17.1154 C   0  0  1  0  0  0  0  0  0  0  0  0
  -31.2573  -18.1103   16.8955 C   0  0  2  0  0  0  0  0  0  0  0  0
  -28.1815  -21.6284   15.9075 C   0  0  0  0  0  0  0  0  0  0  0  0
  -25.9391  -11.5956   20.5435 N   0  0  0  0  0  0  0  0  0  0  0  0
  -26.2893  -12.8856   20.4047 N   0  0  0  0  0  0  0  0  0  0  0  0
  -29.5054  -22.6039   19.0950 N   0  0  0  0  0  0  0  0  0  0  0  0
  -30.0999  -12.5945   20.4632 N   0  0  0  0  0  0  0  0  0  0  0  0
  -25.4263  -15.0913   20.4386 N   0  0  0  0  0  0  0  0  0  0  0  0
  -21.7923  -12.5379   21.2575 N   0  0  0  0  0  0  0  0  0  0  0  0
  -29.3066  -26.1063   20.0899 N   0  0  0  0  0  0  0  0  0  0  0  0
  -30.0704  -20.1926   16.7875 N   0  0  0  0  0  0  0  0  0  0  0  0
  -30.7356  -12.8152   22.7306 N   0  0  0  0  0  0  0  0  0  0  0  0
  -31.8041  -17.2563   17.9877 N   0  3  0  0  0  0  0  0  0  0  0  0
  -28.5062  -17.5115   25.1309 N   0  3  0  0  0  0  0  0  0  0  0  0
  -22.5310  -14.6912   20.9805 O   0  0  0  0  0  0  0  0  0  0  0  0
  -27.8548  -24.5556   19.1358 O   0  0  0  0  0  0  0  0  0  0  0  0
  -30.5920  -22.9956   17.0696 O   0  0  0  0  0  0  0  0  0  0  0  0
  -29.3414  -18.5832   18.2894 O   0  0  0  0  0  0  0  0  0  0  0  0
  -32.2644  -13.1746   21.0601 O   0  0  0  0  0  0  0  0  0  0  0  0
  -21.6826   -6.9785   21.5987 O   0  0  0  0  0  0  0  0  0  0  0  0
  -26.9340  -20.5973   24.3309 O   0  0  0  0  0  0  0  0  0  1  0  0
  -22.5643   -2.7577   18.1620 F   0  0  0  0  0  0  0  0  0  0  0  0
  -24.1874   -5.8301   21.3763 F   0  0  0  0  0  0  0  0  0  0  0  0
  -34.2897  -17.5396   23.4917 Cl  0  0  0  0  0  0  0  0  0  0  0  0
  -29.3312  -14.2609   25.3974 Cl  0  0  0  0  0  0  0  0  0  0  0  0
  1  2  1  0  0  0  0
  1  5  2  0  0  0  0
  2  6  2  0  0  0  0
  3  8  2  0  0  0  0
  3 17  1  0  0  0  0
  4  9  1  0  0  0  0
  4 17  2  0  0  0  0
  5 19  1  0  0  0  0
  6 21  1  0  0  0  0
  7 10  2  0  0  0  0
  7 20  1  0  0  0  0
  8 25  1  0  0  0  0
  9 25  2  0  0  0  0
 10 26  1  0  0  0  0
 11 12  2  0  0  0  0
 11 27  1  0  0  0  0
 12 28  1  0  0  0  0
 13 22  1  0  0  0  0
 13 26  2  0  0  0  0
 14 23  2  0  0  0  0
 14 30  1  0  0  0  0
 15 24  1  0  0  0  0
 15 30  2  0  0  0  0
 16 28  2  0  0  0  0
 16 29  1  0  0  0  0
 17 32  1  0  0  0  0
 18 32  1  0  0  0  0
 18 33  2  0  0  0  0
 18 34  1  0  0  0  0
 19 21  2  0  0  0  0
 19 39  1  0  0  0  0
 20 22  2  0  0  0  0
 20 40  1  0  0  0  0
 21 48  1  0  0  0  0
 22 41  1  0  0  0  0
 23 31  1  0  0  0  0
 23 56  1  0  0  0  0
 24 31  2  0  0  0  0
 24 57  1  0  0  0  0
 25 80  1  0  0  0  0
 26 81  1  0  0  0  0
 27 29  2  0  0  0  0
 27 80  1  0  0  0  0
 28 82  1  0  0  0  0
 29 83  1  0  0  0  0
 30 84  1  0  0  0  0
 31 85  1  0  0  0  0
 32 64  2  0  0  0  0
 33 65  1  0  0  0  0
 33 68  1  0  0  0  0
 34 69  1  0  0  0  0
 34 75  2  0  0  0  0
 35 49  1  0  0  0  0
 35 70  1  0  0  0  0
 35 76  2  0  0  0  0
 36 61  1  0  0  0  0
 36 66  1  0  0  0  0
 36 77  2  0  0  0  0
 37 62  1  0  0  0  0
 37 71  1  0  0  0  0
 37 78  2  0  0  0  0
 38 67  1  0  0  0  0
 38 72  1  0  0  0  0
 38 79  2  0  0  0  0
 39 42  1  0  0  0  0
 40 49  1  0  0  0  0
 41 66  1  0  0  0  0
 42 44  1  0  0  0  0
 43 45  1  0  0  0  0
 43 46  1  0  0  0  0
 44 48  1  0  0  0  0
 45 50  1  0  0  0  0
 46 67  1  0  0  0  0
 47 50  1  0  0  0  0
 47 67  1  0  0  0  0
 48 70  1  0  0  0  0
 49 66  1  0  0  0  0
 50 65  1  0  0  0  0
 51 62  1  0  0  0  0
 52 63  1  0  0  0  0
 53 63  1  0  0  0  0
 54 63  1  0  0  0  0
 55 73  1  0  0  0  0
 56 72  1  0  0  0  0
 57 74  1  0  0  0  0
 58 59  1  0  0  0  0
 58 60  1  0  0  0  0
 59 74  1  0  0  0  0
 60 81  1  0  0  0  0
 61 63  1  0  0  0  0
 61 71  1  0  0  0  0
 62 73  1  0  0  0  0
 64 65  1  0  0  0  0
M  CHG  2  73   1  74   1
M  ISO  4  38 100  60 101  72 100  81 101
M  END
> <Batch ID>
0040

> <Smiles>
CNC(C)C(=O)NC(C(=O)N1Cc2cc([101O:1][101CH2:1]CCNCc3cc(Cl)cc(C[100NH:0][100C:0](=O)N4CCCC(n5nc(-c6ccc(Oc7ccc(F)cc7F)cc6)c(C(N)=O)c5N)C4)c3Cl)ccc2CC1C(=O)NC1CCCc2ccccc21)C(C)(C)C

> <Shape>
0.214

> <Color>
0.175

> <Negative vol penalty>
0.000

$$$$

  -OEChem-04042322063D

 83 91  0     1  0  0  0  0  0999 V2000
  -37.8331  -27.4052   33.6740 C   0  0  0  0  0  0  0  0  0  0  0  0
  -36.6650  -26.9956   33.0389 C   0  0  0  0  0  0  0  0  0  0  0  0
  -23.0756   -9.8679   19.9404 C   0  0  0  0  0  0  0  0  0  0  0  0
  -23.8346   -9.8747   22.2341 C   0  0  0  0  0  0  0  0  0  0  0  0
  -39.0125  -27.5392   32.9427 C   0  0  0  0  0  0  0  0  0  0  0  0
  -36.6755  -26.7209   31.6719 C   0  0  0  0  0  0  0  0  0  0  0  0
  -33.4133  -22.4383   28.7524 C   0  0  0  0  0  0  0  0  0  0  0  0
  -31.3409  -19.0582   20.5826 C   0  0  0  0  0  0  0  0  0  0  0  0
  -31.1569  -17.6756   20.5920 C   0  0  0  0  0  0  0  0  0  0  0  0
  -22.3314   -8.7149   20.1900 C   0  0  0  0  0  0  0  0  0  0  0  0
  -23.0904   -8.7217   22.4837 C   0  0  0  0  0  0  0  0  0  0  0  0
  -32.2218  -22.4965   28.0307 C   0  0  0  0  0  0  0  0  0  0  0  0
  -19.8619   -7.9244   23.0850 C   0  0  0  0  0  0  0  0  0  0  0  0
  -19.1045   -7.8846   24.2556 C   0  0  0  0  0  0  0  0  0  0  0  0
  -33.4795  -22.6773   25.9802 C   0  0  0  0  0  0  0  0  0  0  0  0
  -20.3452   -5.9469   24.9924 C   0  0  0  0  0  0  0  0  0  0  0  0
  -23.8273  -10.4478   20.9624 C   0  0  0  0  0  0  0  0  0  0  0  0
  -24.1696  -12.9729   20.8426 C   0  0  0  0  0  0  0  0  0  0  0  0
  -39.0397  -27.2567   31.5679 C   0  0  0  0  0  0  0  0  0  0  0  0
  -34.6489  -22.5103   28.0931 C   0  0  0  0  0  0  0  0  0  0  0  0
  -37.8561  -26.8525   30.9212 C   0  0  0  0  0  0  0  0  0  0  0  0
  -34.6853  -22.6173   26.6955 C   0  0  0  0  0  0  0  0  0  0  0  0
  -30.6197  -19.8638   21.4638 C   0  0  0  0  0  0  0  0  0  0  0  0
  -29.7144  -19.2868   22.3544 C   0  0  0  0  0  0  0  0  0  0  0  0
  -29.5304  -17.9041   22.3638 C   0  0  0  0  0  0  0  0  0  0  0  0
  -30.2516  -17.0985   21.4826 C   0  0  0  0  0  0  0  0  0  0  0  0
  -22.3388   -8.1418   21.4617 C   0  0  0  0  0  0  0  0  0  0  0  0
  -32.2547  -22.6190   26.6447 C   0  0  0  0  0  0  0  0  0  0  0  0
  -20.8609   -6.9754   22.8680 C   0  0  0  0  0  0  0  0  0  0  0  0
  -19.3462   -6.8958   25.2093 C   0  0  0  0  0  0  0  0  0  0  0  0
  -21.1026   -5.9867   23.8217 C   0  0  0  0  0  0  0  0  0  0  0  0
  -24.5967  -11.6386   20.7050 C   0  0  0  0  0  0  0  0  0  0  0  0
  -25.2620  -13.7222   20.4798 C   0  0  0  0  0  0  0  0  0  0  0  0
  -22.8991  -13.4889   21.2611 C   0  0  0  0  0  0  0  0  0  0  0  0
  -37.1095  -24.5216   28.1532 C   0  0  0  0  0  0  0  0  0  0  0  0
  -38.4663  -22.3060   26.2109 C   0  0  0  0  0  0  0  0  0  0  0  0
  -38.0400  -19.7569   23.9822 C   0  0  0  0  0  0  0  0  0  0  0  0
  -30.7283  -14.7668   20.6567 C   0  0  0  0  0  0  0  0  0  0  0  0
  -40.3275  -27.4616   30.8100 C   0  0  0  0  0  0  0  0  0  0  0  0
  -35.9253  -22.4192   28.8836 C   0  0  0  0  0  0  0  0  0  0  0  0
  -35.9859  -22.6780   25.9384 C   0  0  0  0  0  0  0  0  0  0  0  0
  -40.3410  -26.7899   29.4392 C   0  0  0  0  0  0  0  0  0  0  0  0
  -29.6144  -12.3533   18.2879 C   0  0  0  0  0  0  0  0  0  0  0  0
  -39.0448  -27.0807   28.6895 C   0  0  0  0  0  0  0  0  0  0  0  0
  -28.1745  -12.0620   18.7169 C   0  0  0  0  0  0  0  0  0  0  0  0
  -30.5291  -12.5819   19.4899 C   0  0  0  0  0  0  0  0  0  0  0  0
  -28.6217  -13.3066   20.8704 C   0  0  0  0  0  0  0  0  0  0  0  0
  -37.8332  -26.5213   29.4448 C   0  0  1  0  0  0  0  0  0  0  0  0
  -37.1237  -23.0191   28.1546 C   0  0  1  0  0  0  0  0  0  0  0  0
  -27.6493  -13.1336   19.6922 C   0  0  2  0  0  0  0  0  0  0  0  0
  -30.8358  -21.3415   21.4330 C   0  0  0  0  0  0  0  0  0  0  0  0
  -28.5584  -17.2870   23.3204 C   0  0  0  0  0  0  0  0  0  0  0  0
  -39.3357  -18.1675   22.5358 C   0  0  0  0  0  0  0  0  0  0  0  0
  -39.0210  -24.5621   24.2329 C   0  0  0  0  0  0  0  0  0  0  0  0
  -39.4226  -22.8269   22.4734 C   0  0  0  0  0  0  0  0  0  0  0  0
  -40.8878  -22.9180   24.4902 C   0  0  0  0  0  0  0  0  0  0  0  0
  -36.9405  -17.3970   25.3897 C   0  0  0  0  0  0  0  0  0  0  0  0
  -28.9402  -20.1559   23.3011 C   0  0  0  0  0  0  0  0  0  0  0  0
  -29.0386  -21.5704   25.3573 C   0  0  0  0  0  0  0  0  0  0  0  0
  -29.9681  -21.9865   26.4803 C   0  0  0  0  0  0  0  0  0  1  0  0
  -38.5143  -22.0777   24.7194 C   0  0  1  0  0  0  0  0  0  0  0  0
  -38.6778  -18.3824   23.8899 C   0  0  2  0  0  0  0  0  0  0  0  0
  -39.4367  -23.0970   23.9931 C   0  0  0  0  0  0  0  0  0  0  0  0
  -25.8617  -11.5425   20.2872 N   0  0  0  0  0  0  0  0  0  0  0  0
  -26.2389  -12.8260   20.1591 N   0  0  0  0  0  0  0  0  0  0  0  0
  -37.2068  -22.5916   26.7566 N   0  0  0  0  0  0  0  0  0  0  0  0
  -29.9700  -13.6128   20.3671 N   0  0  0  0  0  0  0  0  0  0  0  0
  -25.4727  -15.0536   20.4069 N   0  0  0  0  0  0  0  0  0  0  0  0
  -21.8868  -12.5799   21.5979 N   0  0  0  0  0  0  0  0  0  0  0  0
  -30.0808  -15.6919   21.4749 N   0  0  0  0  0  0  0  0  0  0  0  0
  -37.7311  -25.0912   29.2480 N   0  0  0  0  0  0  0  0  0  0  0  0
  -38.9005  -20.6833   24.5321 N   0  0  0  0  0  0  0  0  0  0  0  0
  -37.6509  -17.3206   24.0873 N   0  3  0  0  0  0  0  0  0  0  0  0
  -29.7616  -20.6586   24.4352 N   0  3  0  0  0  0  0  0  0  0  0  0
  -22.6630  -14.7196   21.3184 O   0  0  0  0  0  0  0  0  0  0  0  0
  -36.5755  -25.1199   27.2265 O   0  0  0  0  0  0  0  0  0  0  0  0
  -39.5069  -22.2267   26.8685 O   0  0  0  0  0  0  0  0  0  0  0  0
  -36.8944  -19.9866   23.6010 O   0  0  0  0  0  0  0  0  0  0  0  0
  -31.8576  -14.9353   20.1895 O   0  0  0  0  0  0  0  0  0  0  0  0
  -21.6126   -7.0168   21.7057 O   0  0  0  0  0  0  0  0  0  0  0  0
  -31.0932  -22.6767   25.9380 O   0  0  0  0  0  0  0  0  0  1  0  0
  -18.6198   -6.8586   26.3341 F   0  0  0  0  0  0  0  0  0  0  0  0
  -22.0619   -5.0730   23.6194 F   0  0  0  0  0  0  0  0  0  0  0  0
  1  2  1  0  0  0  0
  1  5  2  0  0  0  0
  2  6  2  0  0  0  0
  3 10  2  0  0  0  0
  3 17  1  0  0  0  0
  4 11  1  0  0  0  0
  4 17  2  0  0  0  0
  5 19  1  0  0  0  0
  6 21  1  0  0  0  0
  7 12  2  0  0  0  0
  7 20  1  0  0  0  0
  8  9  1  0  0  0  0
  8 23  2  0  0  0  0
  9 26  2  0  0  0  0
 10 27  1  0  0  0  0
 11 27  2  0  0  0  0
 12 28  1  0  0  0  0
 13 14  2  0  0  0  0
 13 29  1  0  0  0  0
 14 30  1  0  0  0  0
 15 22  1  0  0  0  0
 15 28  2  0  0  0  0
 16 30  2  0  0  0  0
 16 31  1  0  0  0  0
 17 32  1  0  0  0  0
 18 32  1  0  0  0  0
 18 33  2  0  0  0  0
 18 34  1  0  0  0  0
 19 21  2  0  0  0  0
 19 39  1  0  0  0  0
 20 22  2  0  0  0  0
 20 40  1  0  0  0  0
 21 48  1  0  0  0  0
 22 41  1  0  0  0  0
 23 24  1  0  0  0  0
 23 51  1  0  0  0  0
 24 25  2  0  0  0  0
 24 58  1  0  0  0  0
 25 26  1  0  0  0  0
 25 52  1  0  0  0  0
 26 70  1  0  0  0  0
 27 80  1  0  0  0  0
 28 81  1  0  0  0  0
 29 31  2  0  0  0  0
 29 80  1  0  0  0  0
 30 82  1  0  0  0  0
 31 83  1  0  0  0  0
 32 64  2  0  0  0  0
 33 65  1  0  0  0  0
 33 68  1  0  0  0  0
 34 69  1  0  0  0  0
 34 75  2  0  0  0  0
 35 49  1  0  0  0  0
 35 71  1  0  0  0  0
 35 76  2  0  0  0  0
 36 61  1  0  0  0  0
 36 66  1  0  0  0  0
 36 77  2  0  0  0  0
 37 62  1  0  0  0  0
 37 72  1  0  0  0  0
 37 78  2  0  0  0  0
 38 67  1  0  0  0  0
 38 70  1  0  0  0  0
 38 79  2  0  0  0  0
 39 42  1  0  0  0  0
 40 49  1  0  0  0  0
 41 66  1  0  0  0  0
 42 44  1  0  0  0  0
 43 45  1  0  0  0  0
 43 46  1  0  0  0  0
 44 48  1  0  0  0  0
 45 50  1  0  0  0  0
 46 67  1  0  0  0  0
 47 50  1  0  0  0  0
 47 67  1  0  0  0  0
 48 71  1  0  0  0  0
 49 66  1  0  0  0  0
 50 65  1  0  0  0  0
 53 62  1  0  0  0  0
 54 63  1  0  0  0  0
 55 63  1  0  0  0  0
 56 63  1  0  0  0  0
 57 73  1  0  0  0  0
 58 74  1  0  0  0  0
 59 60  1  0  0  0  0
 59 74  1  0  0  0  0
 60 81  1  0  0  0  0
 61 63  1  0  0  0  0
 61 72  1  0  0  0  0
 62 73  1  0  0  0  0
 64 65  1  0  0  0  0
M  CHG  2  73   1  74   1
M  ISO  4  38 100  60 101  70 100  81 101
M  END
> <Batch ID>
0040

> <Smiles>
CNC(C)C(=O)NC(C(=O)N1Cc2cc([101O:1][101CH2:1]CNCc3c(C)ccc([100NH:0][100C:0](=O)N4CCCC(n5nc(-c6ccc(Oc7ccc(F)cc7F)cc6)c(C(N)=O)c5N)C4)c3C)ccc2CC1C(=O)NC1CCCc2ccccc21)C(C)(C)C

> <Shape>
0.178

> <Color>
0.192

> <Negative vol penalty>
0.000

$$$$

  -OEChem-04042322063D

 90 98  0     1  0  0  0  0  0999 V2000
  -28.8749  -18.6949   23.2320 C   0  0  0  0  0  0  0  0  0  0  0  0
  -30.8458  -12.6105   17.2935 C   0  0  0  0  0  0  0  0  0  0  0  0
  -29.6494  -11.9024   17.2974 C   0  0  0  0  0  0  0  0  0  0  0  0
  -23.6999  -30.1399   23.1802 C   0  0  0  0  0  0  0  0  0  0  0  0
  -23.6696  -31.2050   21.0118 C   0  0  0  0  0  0  0  0  0  0  0  0
  -31.4040  -13.0351   18.4974 C   0  0  0  0  0  0  0  0  0  0  0  0
  -29.0046  -11.6290   18.5042 C   0  0  0  0  0  0  0  0  0  0  0  0
  -25.3243  -14.6823   22.7606 C   0  0  0  0  0  0  0  0  0  0  0  0
  -22.3253  -29.9202   23.0915 C   0  0  0  0  0  0  0  0  0  0  0  0
  -22.2950  -30.9853   20.9231 C   0  0  0  0  0  0  0  0  0  0  0  0
  -25.8028  -15.9641   22.4925 C   0  0  0  0  0  0  0  0  0  0  0  0
  -20.2447  -27.7441   21.5525 C   0  0  0  0  0  0  0  0  0  0  0  0
  -19.7651  -26.4846   21.9119 C   0  0  0  0  0  0  0  0  0  0  0  0
  -26.0228  -15.3876   20.1604 C   0  0  0  0  0  0  0  0  0  0  0  0
  -28.5061  -23.0641   21.6939 C   0  0  0  0  0  0  0  0  0  0  0  0
  -18.4058  -27.4942   23.6354 C   0  0  0  0  0  0  0  0  0  0  0  0
  -24.3720  -30.7824   22.1404 C   0  0  0  0  0  0  0  0  0  0  0  0
  -26.4718  -31.7560   23.2130 C   0  0  0  0  0  0  0  0  0  0  0  0
  -30.7715  -12.7555   19.7200 C   0  0  0  0  0  0  0  0  0  0  0  0
  -25.2016  -13.7385   21.7307 C   0  0  0  0  0  0  0  0  0  0  0  0
  -29.5398  -12.0698   19.7281 C   0  0  0  0  0  0  0  0  0  0  0  0
  -25.5401  -14.0954   20.4176 C   0  0  0  0  0  0  0  0  0  0  0  0
  -28.8684  -22.0499   20.8075 C   0  0  0  0  0  0  0  0  0  0  0  0
  -30.4132  -24.3662   20.9834 C   0  0  0  0  0  0  0  0  0  0  0  0
  -30.0031  -22.1938   20.0091 C   0  0  0  0  0  0  0  0  0  0  0  0
  -21.6229  -30.3429   21.9630 C   0  0  0  0  0  0  0  0  0  0  0  0
  -26.1549  -16.3160   21.1928 C   0  0  0  0  0  0  0  0  0  0  0  0
  -19.8050  -28.8787   22.2346 C   0  0  0  0  0  0  0  0  0  0  0  0
  -18.8456  -26.3597   22.9534 C   0  0  0  0  0  0  0  0  0  0  0  0
  -18.8855  -28.7537   23.2760 C   0  0  0  0  0  0  0  0  0  0  0  0
  -30.7755  -23.3520   20.0970 C   0  0  0  0  0  0  0  0  0  0  0  0
  -29.2785  -24.2223   21.7818 C   0  0  0  0  0  0  0  0  0  0  0  0
  -25.7919  -31.0101   22.2316 C   0  0  0  0  0  0  0  0  0  0  0  0
  -27.7951  -31.6677   22.8557 C   0  0  0  0  0  0  0  0  0  0  0  0
  -29.5966  -18.4856   24.2908 C   0  0  0  0  0  0  0  0  0  0  0  0
  -30.2971  -17.9531   20.2953 C   0  0  0  0  0  0  0  0  0  0  0  0
  -30.5378  -18.8128   19.2989 C   0  0  0  0  0  0  0  0  0  0  0  0
  -28.1531  -18.9067   22.1672 C   0  0  0  0  0  0  0  0  0  0  0  0
  -25.9537  -32.4652   24.3462 C   0  0  0  0  0  0  0  0  0  0  0  0
  -26.4952  -10.8990   21.1243 C   0  0  0  0  0  0  0  0  0  0  0  0
  -24.3888  -10.9009   18.6574 C   0  0  0  0  0  0  0  0  0  0  0  0
  -21.4527   -9.4566   19.6267 C   0  0  0  0  0  0  0  0  0  0  0  0
  -30.9063  -27.6422   19.6987 C   0  0  0  0  0  0  0  0  0  0  0  0
  -31.4156  -13.2455   20.9929 C   0  0  0  0  0  0  0  0  0  0  0  0
  -24.6586  -12.3685   22.0318 C   0  0  0  0  0  0  0  0  0  0  0  0
  -25.4077  -13.1254   19.2731 C   0  0  0  0  0  0  0  0  0  0  0  0
  -30.8965  -12.5297   22.2356 C   0  0  0  0  0  0  0  0  0  0  0  0
  -30.6117  -31.1262   19.0263 C   0  0  0  0  0  0  0  0  0  0  0  0
  -29.3751  -12.5204   22.2326 C   0  0  0  0  0  0  0  0  0  0  0  0
  -29.4044  -31.5588   19.8601 C   0  0  0  0  0  0  0  0  0  0  0  0
  -30.4251  -29.7254   18.4475 C   0  0  0  0  0  0  0  0  0  0  0  0
  -28.8840  -29.1179   20.2723 C   0  0  0  0  0  0  0  0  0  0  0  0
  -28.8362  -11.7343   21.0307 C   0  0  1  0  0  0  0  0  0  0  0  0
  -25.0602  -11.3252   20.9938 C   0  0  1  0  0  0  0  0  0  0  0  0
  -29.0493  -30.5018   20.9231 C   0  0  2  0  0  0  0  0  0  0  0  0
  -20.4192  -11.3868   20.8529 C   0  0  0  0  0  0  0  0  0  0  0  0
  -25.3213   -7.4253   19.2224 C   0  0  0  0  0  0  0  0  0  0  0  0
  -24.5573   -8.4808   21.3603 C   0  0  0  0  0  0  0  0  0  0  0  0
  -26.2892   -9.6089   19.9636 C   0  0  0  0  0  0  0  0  0  0  0  0
  -19.5684   -8.3421   22.4240 C   0  0  0  0  0  0  0  0  0  0  0  0
  -31.2646  -25.5929   21.0518 C   0  0  0  0  0  0  0  0  0  0  0  0
  -28.0190  -20.8154   20.7328 C   0  0  0  0  0  0  0  0  0  0  0  0
  -29.6459  -19.9605   18.9553 C   0  0  0  0  0  0  0  0  0  0  0  0
  -26.7275  -18.4669   22.0304 C   0  0  0  0  0  0  0  0  0  1  0  0
  -23.8885   -9.5725   19.1713 C   0  0  1  0  0  0  0  0  0  0  0  0
  -20.4096   -9.8803   20.6450 C   0  0  2  0  0  0  0  0  0  0  0  0
  -24.9957   -8.7672   19.9082 C   0  0  0  0  0  0  0  0  0  0  0  0
  -26.6152  -30.4867   21.3193 N   0  0  0  0  0  0  0  0  0  0  0  0
  -27.8261  -30.9043   21.7259 N   0  0  0  0  0  0  0  0  0  0  0  0
  -24.8780  -11.7961   19.6193 N   0  0  0  0  0  0  0  0  0  0  0  0
  -30.0920  -28.7706   19.5074 N   0  0  0  0  0  0  0  0  0  0  0  0
  -28.9236  -32.1694   23.4009 N   0  0  0  0  0  0  0  0  0  0  0  0
  -25.5938  -33.8102   24.1852 N   0  0  0  0  0  0  0  0  0  0  0  0
  -30.3823  -21.1760   19.1065 N   0  0  0  0  0  0  0  0  0  0  0  0
  -27.4048  -11.9238   20.9462 N   0  0  0  0  0  0  0  0  0  0  0  0
  -22.7178   -9.8665   19.9907 N   0  0  0  0  0  0  0  0  0  0  0  0
  -30.5235  -26.7917   20.7286 N   0  0  0  0  0  0  0  0  0  0  0  0
  -28.7628  -19.5760   21.0719 N   0  3  0  0  0  0  0  0  0  0  0  0
  -20.6696   -9.2231   21.9570 N   0  3  0  0  0  0  0  0  0  0  0  0
  -25.8293  -31.9270   25.4724 O   0  0  0  0  0  0  0  0  0  0  0  0
  -26.7576   -9.7275   21.3701 O   0  0  0  0  0  0  0  0  0  0  0  0
  -24.3537  -11.1329   17.4464 O   0  0  0  0  0  0  0  0  0  0  0  0
  -21.1735   -8.8219   18.6119 O   0  0  0  0  0  0  0  0  0  0  0  0
  -31.9040  -27.4128   19.0066 O   0  0  0  0  0  0  0  0  0  0  0  0
  -20.2816  -30.1284   21.8760 O   0  0  0  0  0  0  0  0  0  0  0  0
  -26.6228  -17.5662   20.9285 O   0  0  0  0  0  0  0  0  0  1  0  0
  -18.3838  -25.1503   23.2974 F   0  0  0  0  0  0  0  0  0  0  0  0
  -18.4585  -29.8401   23.9341 F   0  0  0  0  0  0  0  0  0  0  0  0
  -31.8670  -23.4914   19.3291 F   0  0  0  0  0  0  0  0  0  0  0  0
  -28.7985  -25.4558   22.8897 Cl  0  0  0  0  0  0  0  0  0  0  0  0
  1 35  2  0  0  0  0
  1 38  2  0  0  0  0
  2  3  1  0  0  0  0
  2  6  2  0  0  0  0
  3  7  2  0  0  0  0
  4  9  2  0  0  0  0
  4 17  1  0  0  0  0
  5 10  1  0  0  0  0
  5 17  2  0  0  0  0
  6 19  1  0  0  0  0
  7 21  1  0  0  0  0
  8 11  2  0  0  0  0
  8 20  1  0  0  0  0
  9 26  1  0  0  0  0
 10 26  2  0  0  0  0
 11 27  1  0  0  0  0
 12 13  2  0  0  0  0
 12 28  1  0  0  0  0
 13 29  1  0  0  0  0
 14 22  1  0  0  0  0
 14 27  2  0  0  0  0
 15 23  1  0  0  0  0
 15 32  2  0  0  0  0
 16 29  2  0  0  0  0
 16 30  1  0  0  0  0
 17 33  1  0  0  0  0
 18 33  1  0  0  0  0
 18 34  2  0  0  0  0
 18 39  1  0  0  0  0
 19 21  2  0  0  0  0
 19 44  1  0  0  0  0
 20 22  2  0  0  0  0
 20 45  1  0  0  0  0
 21 53  1  0  0  0  0
 22 46  1  0  0  0  0
 23 25  2  0  0  0  0
 23 62  1  0  0  0  0
 24 31  2  0  0  0  0
 24 32  1  0  0  0  0
 24 61  1  0  0  0  0
 25 31  1  0  0  0  0
 25 74  1  0  0  0  0
 26 85  1  0  0  0  0
 27 86  1  0  0  0  0
 28 30  2  0  0  0  0
 28 85  1  0  0  0  0
 29 87  1  0  0  0  0
 30 88  1  0  0  0  0
 31 89  1  0  0  0  0
 32 90  1  0  0  0  0
 33 68  2  0  0  0  0
 34 69  1  0  0  0  0
 34 72  1  0  0  0  0
 36 37  2  0  0  0  0
 37 63  1  0  0  0  0
 38 64  1  0  0  0  0
 38 78  1  0  0  0  0
 39 73  1  0  0  0  0
 39 80  2  0  0  0  0
 40 54  1  0  0  0  0
 40 75  1  0  0  0  0
 40 81  2  0  0  0  0
 41 65  1  0  0  0  0
 41 70  1  0  0  0  0
 41 82  2  0  0  0  0
 42 66  1  0  0  0  0
 42 76  1  0  0  0  0
 42 83  2  0  0  0  0
 43 71  1  0  0  0  0
 43 77  1  0  0  0  0
 43 84  2  0  0  0  0
 44 47  1  0  0  0  0
 45 54  1  0  0  0  0
 46 70  1  0  0  0  0
 47 49  1  0  0  0  0
 48 50  1  0  0  0  0
 48 51  1  0  0  0  0
 49 53  1  0  0  0  0
 50 55  1  0  0  0  0
 51 71  1  0  0  0  0
 52 55  1  0  0  0  0
 52 71  1  0  0  0  0
 53 75  1  0  0  0  0
 54 70  1  0  0  0  0
 55 69  1  0  0  0  0
 56 66  1  0  0  0  0
 57 67  1  0  0  0  0
 58 67  1  0  0  0  0
 59 67  1  0  0  0  0
 60 79  1  0  0  0  0
 61 77  1  0  0  0  0
 62 78  1  0  0  0  0
 63 74  1  0  0  0  0
 64 86  1  0  0  0  0
 65 67  1  0  0  0  0
 65 76  1  0  0  0  0
 66 79  1  0  0  0  0
 68 69  1  0  0  0  0
M  CHG  2  78   1  79   1
M  ISO  4  43 100  64 101  77 100  86 101
M  END
> <Batch ID>
0040

> <Smiles>
C=C=C(NCc1cc(Cl)c(C[100NH:0][100C:0](=O)N2CCCC(n3nc(-c4ccc(Oc5ccc(F)cc5F)cc4)c(C(N)=O)c3N)C2)c(F)c1NCC=C)[101CH2:1][101O:1]c1ccc2c(c1)CN(C(=O)C(NC(=O)C(C)NC)C(C)(C)C)C(C(=O)NC1CCCc3ccccc31)C2

> <Shape>
0.333

> <Color>
0.055

> <Negative vol penalty>
0.000

$$$$

  -OEChem-04042322063D

 85 93  0     1  0  0  0  0  0999 V2000
  -26.9047  -25.4120   25.3529 C   0  0  0  0  0  0  0  0  0  0  0  0
  -25.7851  -25.0069   24.6333 C   0  0  0  0  0  0  0  0  0  0  0  0
  -29.6160  -27.6818   18.4999 C   0  0  0  0  0  0  0  0  0  0  0  0
  -29.1075  -26.1580   20.3046 C   0  0  0  0  0  0  0  0  0  0  0  0
  -18.1906  -26.7457   20.6776 C   0  0  0  0  0  0  0  0  0  0  0  0
  -28.1379  -24.8036   25.1222 C   0  0  0  0  0  0  0  0  0  0  0  0
  -25.8983  -23.9940   23.6817 C   0  0  0  0  0  0  0  0  0  0  0  0
  -22.1413  -20.6122   23.9881 C   0  0  0  0  0  0  0  0  0  0  0  0
  -18.7168  -27.9340   21.1841 C   0  0  0  0  0  0  0  0  0  0  0  0
  -30.9356  -27.2299   18.4901 C   0  0  0  0  0  0  0  0  0  0  0  0
  -30.4271  -25.7060   20.2947 C   0  0  0  0  0  0  0  0  0  0  0  0
  -20.9107  -20.9765   23.4434 C   0  0  0  0  0  0  0  0  0  0  0  0
  -33.5721  -23.8938   20.5029 C   0  0  0  0  0  0  0  0  0  0  0  0
  -33.7874  -22.5174   20.5712 C   0  0  0  0  0  0  0  0  0  0  0  0
  -21.4117  -19.6891   21.4658 C   0  0  0  0  0  0  0  0  0  0  0  0
  -32.5406  -22.2208   18.5231 C   0  0  0  0  0  0  0  0  0  0  0  0
  -28.7020  -27.1459   19.4072 C   0  0  0  0  0  0  0  0  0  0  0  0
  -18.4381  -25.5387   21.3316 C   0  0  0  0  0  0  0  0  0  0  0  0
  -26.2577  -27.0972   18.6785 C   0  0  0  0  0  0  0  0  0  0  0  0
  -28.2642  -23.7761   24.1741 C   0  0  0  0  0  0  0  0  0  0  0  0
  -23.0225  -19.7911   23.2699 C   0  0  0  0  0  0  0  0  0  0  0  0
  -27.1345  -23.3722   23.4371 C   0  0  0  0  0  0  0  0  0  0  0  0
  -22.6518  -19.3137   22.0047 C   0  0  0  0  0  0  0  0  0  0  0  0
  -19.4906  -27.9154   22.3445 C   0  0  0  0  0  0  0  0  0  0  0  0
  -19.2118  -25.5201   22.4920 C   0  0  0  0  0  0  0  0  0  0  0  0
  -19.7381  -26.7085   22.9985 C   0  0  0  0  0  0  0  0  0  0  0  0
  -31.3411  -26.2420   19.3875 C   0  0  0  0  0  0  0  0  0  0  0  0
  -20.5470  -20.5173   22.1809 C   0  0  0  0  0  0  0  0  0  0  0  0
  -32.8409  -24.4338   19.4448 C   0  0  0  0  0  0  0  0  0  0  0  0
  -33.2718  -21.6809   19.5813 C   0  0  0  0  0  0  0  0  0  0  0  0
  -32.3252  -23.5972   18.4549 C   0  0  0  0  0  0  0  0  0  0  0  0
  -27.3389  -27.6128   19.4182 C   0  0  0  0  0  0  0  0  0  0  0  0
  -25.1894  -27.8809   19.0404 C   0  0  0  0  0  0  0  0  0  0  0  0
  -17.8703  -24.2939   20.7761 C   0  0  0  0  0  0  0  0  0  0  0  0
  -26.2223  -26.0073   17.7477 C   0  0  0  0  0  0  0  0  0  0  0  0
  -25.9608  -20.1313   22.1061 C   0  0  0  0  0  0  0  0  0  0  0  0
  -25.6235  -16.9844   21.3950 C   0  0  0  0  0  0  0  0  0  0  0  0
  -23.5289  -14.3653   20.7628 C   0  0  0  0  0  0  0  0  0  0  0  0
  -22.1644  -30.4860   22.9402 C   0  0  0  0  0  0  0  0  0  0  0  0
  -29.6276  -23.1809   23.9259 C   0  0  0  0  0  0  0  0  0  0  0  0
  -24.3349  -19.3854   23.8826 C   0  0  0  0  0  0  0  0  0  0  0  0
  -23.5532  -18.4133   21.2014 C   0  0  0  0  0  0  0  0  0  0  0  0
  -29.5854  -21.8574   23.1665 C   0  0  0  0  0  0  0  0  0  0  0  0
  -25.0148  -32.1993   21.6685 C   0  0  0  0  0  0  0  0  0  0  0  0
  -28.6479  -21.9595   21.9676 C   0  0  0  0  0  0  0  0  0  0  0  0
  -25.7869  -31.1153   20.9145 C   0  0  0  0  0  0  0  0  0  0  0  0
  -24.3526  -31.6473   22.9290 C   0  0  0  0  0  0  0  0  0  0  0  0
  -24.2660  -29.3839   21.9576 C   0  0  0  0  0  0  0  0  0  0  0  0
  -27.2120  -22.2598   22.4141 C   0  0  1  0  0  0  0  0  0  0  0  0
  -25.3729  -18.9639   22.8471 C   0  0  1  0  0  0  0  0  0  0  0  0
  -24.9049  -29.8803   20.6493 C   0  0  2  0  0  0  0  0  0  0  0  0
  -19.4769  -24.2247   23.1922 C   0  0  0  0  0  0  0  0  0  0  0  0
  -20.5689  -26.6912   24.2425 C   0  0  0  0  0  0  0  0  0  0  0  0
  -23.5471  -11.9252   20.1774 C   0  0  0  0  0  0  0  0  0  0  0  0
  -26.3727  -17.6821   18.5206 C   0  0  0  0  0  0  0  0  0  0  0  0
  -25.4645  -15.4575   17.8176 C   0  0  0  0  0  0  0  0  0  0  0  0
  -27.4021  -15.5730   19.3844 C   0  0  0  0  0  0  0  0  0  0  0  0
  -22.0883  -13.6403   23.2443 C   0  0  0  0  0  0  0  0  0  0  0  0
  -20.0420  -29.2020   22.8658 C   0  0  0  0  0  0  0  0  0  0  0  0
  -18.2692  -22.0404   19.8492 C   0  0  0  0  0  0  0  0  0  0  0  0
  -19.2715  -20.9678   20.2249 C   0  0  0  0  0  0  0  0  0  1  0  0
  -25.0988  -16.2058   20.2129 C   0  0  1  0  0  0  0  0  0  0  0  0
  -23.4983  -12.9469   21.3027 C   0  0  2  0  0  0  0  0  0  0  0  0
  -26.0681  -16.2481   18.9979 C   0  0  0  0  0  0  0  0  0  0  0  0
  -26.9894  -28.6443   20.1914 N   0  0  0  0  0  0  0  0  0  0  0  0
  -25.6767  -28.7833   19.9395 N   0  0  0  0  0  0  0  0  0  0  0  0
  -24.8285  -18.0498   21.8409 N   0  0  0  0  0  0  0  0  0  0  0  0
  -23.5293  -30.4788   22.6084 N   0  0  0  0  0  0  0  0  0  0  0  0
  -23.8901  -27.8793   18.6739 N   0  0  0  0  0  0  0  0  0  0  0  0
  -16.5452  -24.2034   20.6634 N   0  0  0  0  0  0  0  0  0  0  0  0
  -27.4100  -25.3087   17.4914 N   0  0  0  0  0  0  0  0  0  0  0  0
  -26.5789  -21.0609   22.9204 N   0  0  0  0  0  0  0  0  0  0  0  0
  -24.8139  -14.8617   20.7034 N   0  0  0  0  0  0  0  0  0  0  0  0
  -21.4555  -29.3417   22.5956 N   0  0  0  0  0  0  0  0  0  0  0  0
  -18.7113  -23.3173   20.4152 N   0  3  0  0  0  0  0  0  0  0  0  0
  -22.2540  -12.7192   22.0906 N   0  3  0  0  0  0  0  0  0  0  0  0
  -25.1722  -25.6736   17.1481 O   0  0  0  0  0  0  0  0  0  0  0  0
  -25.8623  -20.1840   20.8858 O   0  0  0  0  0  0  0  0  0  0  0  0
  -26.6956  -16.6549   21.9085 O   0  0  0  0  0  0  0  0  0  0  0  0
  -22.5146  -14.9710   20.4239 O   0  0  0  0  0  0  0  0  0  0  0  0
  -21.6169  -31.4437   23.4970 O   0  0  0  0  0  0  0  0  0  0  0  0
  -32.6286  -25.8005   19.3780 O   0  0  0  0  0  0  0  0  0  0  0  0
  -19.3467  -20.8719   21.6467 O   0  0  0  0  0  0  0  0  0  1  0  0
  -33.4800  -20.3593   19.6462 F   0  0  0  0  0  0  0  0  0  0  0  0
  -31.6231  -24.1102   17.4353 F   0  0  0  0  0  0  0  0  0  0  0  0
  1  2  1  0  0  0  0
  1  6  2  0  0  0  0
  2  7  2  0  0  0  0
  3 10  2  0  0  0  0
  3 17  1  0  0  0  0
  4 11  1  0  0  0  0
  4 17  2  0  0  0  0
  5  9  2  0  0  0  0
  5 18  1  0  0  0  0
  6 20  1  0  0  0  0
  7 22  1  0  0  0  0
  8 12  2  0  0  0  0
  8 21  1  0  0  0  0
  9 24  1  0  0  0  0
 10 27  1  0  0  0  0
 11 27  2  0  0  0  0
 12 28  1  0  0  0  0
 13 14  2  0  0  0  0
 13 29  1  0  0  0  0
 14 30  1  0  0  0  0
 15 23  1  0  0  0  0
 15 28  2  0  0  0  0
 16 30  2  0  0  0  0
 16 31  1  0  0  0  0
 17 32  1  0  0  0  0
 18 25  2  0  0  0  0
 18 34  1  0  0  0  0
 19 32  1  0  0  0  0
 19 33  2  0  0  0  0
 19 35  1  0  0  0  0
 20 22  2  0  0  0  0
 20 40  1  0  0  0  0
 21 23  2  0  0  0  0
 21 41  1  0  0  0  0
 22 49  1  0  0  0  0
 23 42  1  0  0  0  0
 24 26  2  0  0  0  0
 24 59  1  0  0  0  0
 25 26  1  0  0  0  0
 25 52  1  0  0  0  0
 26 53  1  0  0  0  0
 27 82  1  0  0  0  0
 28 83  1  0  0  0  0
 29 31  2  0  0  0  0
 29 82  1  0  0  0  0
 30 84  1  0  0  0  0
 31 85  1  0  0  0  0
 32 65  2  0  0  0  0
 33 66  1  0  0  0  0
 33 69  1  0  0  0  0
 34 70  1  0  0  0  0
 34 75  2  0  0  0  0
 35 71  1  0  0  0  0
 35 77  2  0  0  0  0
 36 50  1  0  0  0  0
 36 72  1  0  0  0  0
 36 78  2  0  0  0  0
 37 62  1  0  0  0  0
 37 67  1  0  0  0  0
 37 79  2  0  0  0  0
 38 63  1  0  0  0  0
 38 73  1  0  0  0  0
 38 80  2  0  0  0  0
 39 68  1  0  0  0  0
 39 74  1  0  0  0  0
 39 81  2  0  0  0  0
 40 43  1  0  0  0  0
 41 50  1  0  0  0  0
 42 67  1  0  0  0  0
 43 45  1  0  0  0  0
 44 46  1  0  0  0  0
 44 47  1  0  0  0  0
 45 49  1  0  0  0  0
 46 51  1  0  0  0  0
 47 68  1  0  0  0  0
 48 51  1  0  0  0  0
 48 68  1  0  0  0  0
 49 72  1  0  0  0  0
 50 67  1  0  0  0  0
 51 66  1  0  0  0  0
 54 63  1  0  0  0  0
 55 64  1  0  0  0  0
 56 64  1  0  0  0  0
 57 64  1  0  0  0  0
 58 76  1  0  0  0  0
 59 74  1  0  0  0  0
 60 61  1  0  0  0  0
 60 75  1  0  0  0  0
 61 83  1  0  0  0  0
 62 64  1  0  0  0  0
 62 73  1  0  0  0  0
 63 76  1  0  0  0  0
 65 66  1  0  0  0  0
M  CHG  2  75   1  76   1
M  ISO  4  39 100  61 101  74 100  83 101
M  END
> <Batch ID>
0040

> <Smiles>
CNC(C)C(=O)NC(C(=O)N1Cc2cc([101O:1][101CH2:1]CNC(=N)c3ccc(C[100NH:0][100C:0](=O)N4CCCC(n5nc(-c6ccc(Oc7ccc(F)cc7F)cc6)c(C(N)=O)c5N)C4)c(C)c3C)ccc2CC1C(=O)NC1CCCc2ccccc21)C(C)(C)C

> <Shape>
0.193

> <Color>
0.085

> <Negative vol penalty>
0.000

$$$$

  -OEChem-04042322063D

 84 92  0     1  0  0  0  0  0999 V2000
  -20.1582  -22.2724   12.2843 C   0  0  0  0  0  0  0  0  0  0  0  0
  -20.4388  -21.0913   12.9636 C   0  0  0  0  0  0  0  0  0  0  0  0
  -28.5740  -26.3354   17.7052 C   0  0  0  0  0  0  0  0  0  0  0  0
  -28.5814  -26.0676   20.1063 C   0  0  0  0  0  0  0  0  0  0  0  0
  -20.7535  -23.4664   12.6891 C   0  0  0  0  0  0  0  0  0  0  0  0
  -21.3158  -21.1033   14.0477 C   0  0  0  0  0  0  0  0  0  0  0  0
  -20.9836  -17.6441   19.0904 C   0  0  0  0  0  0  0  0  0  0  0  0
  -29.9170  -12.9845   18.9861 C   0  0  0  0  0  0  0  0  0  0  0  0
  -29.2573  -11.7979   18.6663 C   0  0  0  0  0  0  0  0  0  0  0  0
  -27.9133  -27.5561   17.8434 C   0  0  0  0  0  0  0  0  0  0  0  0
  -27.9207  -27.2882   20.2445 C   0  0  0  0  0  0  0  0  0  0  0  0
  -21.6297  -16.4666   19.4644 C   0  0  0  0  0  0  0  0  0  0  0  0
  -24.7652  -28.4621   19.9353 C   0  0  0  0  0  0  0  0  0  0  0  0
  -23.6907  -28.5206   20.8227 C   0  0  0  0  0  0  0  0  0  0  0  0
  -28.0217  -13.6809   20.3126 C   0  0  0  0  0  0  0  0  0  0  0  0
  -23.2669  -17.7576   20.6778 C   0  0  0  0  0  0  0  0  0  0  0  0
  -24.8385  -30.2195   22.1007 C   0  0  0  0  0  0  0  0  0  0  0  0
  -28.9080  -25.5911   18.8366 C   0  0  0  0  0  0  0  0  0  0  0  0
  -27.3619  -12.4943   19.9929 C   0  0  0  0  0  0  0  0  0  0  0  0
  -30.9809  -24.1140   18.6663 C   0  0  0  0  0  0  0  0  0  0  0  0
  -21.6308  -23.4948   13.7846 C   0  0  0  0  0  0  0  0  0  0  0  0
  -21.4814  -18.8898   19.4989 C   0  0  0  0  0  0  0  0  0  0  0  0
  -21.9245  -22.2986   14.4667 C   0  0  0  0  0  0  0  0  0  0  0  0
  -22.6238  -18.9492   20.3098 C   0  0  0  0  0  0  0  0  0  0  0  0
  -29.2993  -13.9260   19.8092 C   0  0  0  0  0  0  0  0  0  0  0  0
  -27.9797  -11.5528   19.1697 C   0  0  0  0  0  0  0  0  0  0  0  0
  -27.5867  -28.0325   19.1130 C   0  0  0  0  0  0  0  0  0  0  0  0
  -22.7732  -16.5234   20.2558 C   0  0  0  0  0  0  0  0  0  0  0  0
  -25.8765  -29.2823   20.1306 C   0  0  0  0  0  0  0  0  0  0  0  0
  -23.7273  -29.3993   21.9054 C   0  0  0  0  0  0  0  0  0  0  0  0
  -25.9131  -30.1610   21.2133 C   0  0  0  0  0  0  0  0  0  0  0  0
  -29.5900  -24.3299   18.6945 C   0  0  0  0  0  0  0  0  0  0  0  0
  -31.1144  -22.7554   18.5152 C   0  0  0  0  0  0  0  0  0  0  0  0
  -26.0095  -12.2551   20.5353 C   0  0  0  0  0  0  0  0  0  0  0  0
  -32.0559  -25.0571   18.7678 C   0  0  0  0  0  0  0  0  0  0  0  0
  -22.6051  -21.4575   17.9997 C   0  0  0  0  0  0  0  0  0  0  0  0
  -22.6289  -22.7128   20.9907 C   0  0  0  0  0  0  0  0  0  0  0  0
  -22.7409  -22.1728   24.3586 C   0  0  0  0  0  0  0  0  0  0  0  0
  -29.7427  -17.6531   19.9408 C   0  0  0  0  0  0  0  0  0  0  0  0
  -22.2868  -24.8012   14.1557 C   0  0  0  0  0  0  0  0  0  0  0  0
  -20.7575  -20.1494   19.1092 C   0  0  0  0  0  0  0  0  0  0  0  0
  -23.1869  -20.2604   20.7916 C   0  0  0  0  0  0  0  0  0  0  0  0
  -22.9139  -24.7941   15.5475 C   0  0  0  0  0  0  0  0  0  0  0  0
  -27.6798  -19.2102   17.4076 C   0  0  0  0  0  0  0  0  0  0  0  0
  -23.7345  -23.5254   15.7569 C   0  0  0  0  0  0  0  0  0  0  0  0
  -28.1141  -20.6729   17.5184 C   0  0  0  0  0  0  0  0  0  0  0  0
  -27.6328  -18.5421   18.7786 C   0  0  0  0  0  0  0  0  0  0  0  0
  -29.3431  -20.0828   19.6588 C   0  0  0  0  0  0  0  0  0  0  0  0
  -22.8513  -22.2754   15.6628 C   0  0  1  0  0  0  0  0  0  0  0  0
  -21.6468  -21.3881   19.1549 C   0  0  1  0  0  0  0  0  0  0  0  0
  -29.4321  -20.8080   18.3038 C   0  0  2  0  0  0  0  0  0  0  0  0
  -27.2934  -10.2751   18.8125 C   0  0  0  0  0  0  0  0  0  0  0  0
  -22.7844  -23.3958   26.5494 C   0  0  0  0  0  0  0  0  0  0  0  0
  -25.5630  -23.4163   20.5370 C   0  0  0  0  0  0  0  0  0  0  0  0
  -25.7948  -23.7425   23.0084 C   0  0  0  0  0  0  0  0  0  0  0  0
  -24.2343  -25.1855   21.7027 C   0  0  0  0  0  0  0  0  0  0  0  0
  -20.2043  -20.9265   25.2371 C   0  0  0  0  0  0  0  0  0  0  0  0
  -30.0048  -15.1946   20.1509 C   0  0  0  0  0  0  0  0  0  0  0  0
  -23.6584  -12.9909   20.7013 C   0  0  0  0  0  0  0  0  0  0  0  0
  -22.8442  -14.1482   20.1594 C   0  0  0  0  0  0  0  0  0  1  0  0
  -23.6296  -22.7663   22.1198 C   0  0  1  0  0  0  0  0  0  0  0  0
  -21.9083  -22.7342   25.4970 C   0  0  2  0  0  0  0  0  0  0  0  0
  -24.7962  -23.7529   21.8314 C   0  0  0  0  0  0  0  0  0  0  0  0
  -28.8901  -23.1990   18.5710 N   0  0  0  0  0  0  0  0  0  0  0  0
  -29.8449  -22.2595   18.4637 N   0  0  0  0  0  0  0  0  0  0  0  0
  -22.4471  -21.4645   20.3788 N   0  0  0  0  0  0  0  0  0  0  0  0
  -28.9235  -18.6907   19.4658 N   0  0  0  0  0  0  0  0  0  0  0  0
  -32.1927  -21.9485   18.4225 N   0  0  0  0  0  0  0  0  0  0  0  0
  -25.8235  -11.1866   21.3103 N   0  0  0  0  0  0  0  0  0  0  0  0
  -31.7418  -26.4146   18.9194 N   0  0  0  0  0  0  0  0  0  0  0  0
  -22.0969  -22.0964   16.8848 N   0  0  0  0  0  0  0  0  0  0  0  0
  -22.8687  -23.0767   23.3252 N   0  0  0  0  0  0  0  0  0  0  0  0
  -29.2699  -16.3646   19.7243 N   0  0  0  0  0  0  0  0  0  0  0  0
  -25.0367  -13.1193   20.2219 N   0  3  0  0  0  0  0  0  0  0  0  0
  -21.1264  -21.6476   26.1519 N   0  3  0  0  0  0  0  0  0  0  0  0
  -33.2594  -24.7084   18.7087 O   0  0  0  0  0  0  0  0  0  0  0  0
  -23.7233  -20.9691   18.1121 O   0  0  0  0  0  0  0  0  0  0  0  0
  -22.0253  -23.7392   20.6684 O   0  0  0  0  0  0  0  0  0  0  0  0
  -23.2321  -21.0465   24.3851 O   0  0  0  0  0  0  0  0  0  0  0  0
  -30.8193  -17.8595   20.5113 O   0  0  0  0  0  0  0  0  0  0  0  0
  -26.9422  -29.2237   19.2483 O   0  0  0  0  0  0  0  0  0  0  0  0
  -23.4062  -15.3756   20.6217 O   0  0  0  0  0  0  0  0  0  1  0  0
  -22.6947  -29.4564   22.7566 F   0  0  0  0  0  0  0  0  0  0  0  0
  -26.9774  -30.9523   21.4054 F   0  0  0  0  0  0  0  0  0  0  0  0
  1  2  1  0  0  0  0
  1  5  2  0  0  0  0
  2  6  2  0  0  0  0
  3 10  2  0  0  0  0
  3 18  1  0  0  0  0
  4 11  1  0  0  0  0
  4 18  2  0  0  0  0
  5 21  1  0  0  0  0
  6 23  1  0  0  0  0
  7 12  2  0  0  0  0
  7 22  1  0  0  0  0
  8  9  2  0  0  0  0
  8 25  1  0  0  0  0
  9 26  1  0  0  0  0
 10 27  1  0  0  0  0
 11 27  2  0  0  0  0
 12 28  1  0  0  0  0
 13 14  2  0  0  0  0
 13 29  1  0  0  0  0
 14 30  1  0  0  0  0
 15 19  1  0  0  0  0
 15 25  2  0  0  0  0
 16 24  1  0  0  0  0
 16 28  2  0  0  0  0
 17 30  2  0  0  0  0
 17 31  1  0  0  0  0
 18 32  1  0  0  0  0
 19 26  2  0  0  0  0
 19 34  1  0  0  0  0
 20 32  1  0  0  0  0
 20 33  2  0  0  0  0
 20 35  1  0  0  0  0
 21 23  2  0  0  0  0
 21 40  1  0  0  0  0
 22 24  2  0  0  0  0
 22 41  1  0  0  0  0
 23 49  1  0  0  0  0
 24 42  1  0  0  0  0
 25 58  1  0  0  0  0
 26 52  1  0  0  0  0
 27 81  1  0  0  0  0
 28 82  1  0  0  0  0
 29 31  2  0  0  0  0
 29 81  1  0  0  0  0
 30 83  1  0  0  0  0
 31 84  1  0  0  0  0
 32 64  2  0  0  0  0
 33 65  1  0  0  0  0
 33 68  1  0  0  0  0
 34 69  1  0  0  0  0
 34 74  2  0  0  0  0
 35 70  1  0  0  0  0
 35 76  2  0  0  0  0
 36 50  1  0  0  0  0
 36 71  1  0  0  0  0
 36 77  2  0  0  0  0
 37 61  1  0  0  0  0
 37 66  1  0  0  0  0
 37 78  2  0  0  0  0
 38 62  1  0  0  0  0
 38 72  1  0  0  0  0
 38 79  2  0  0  0  0
 39 67  1  0  0  0  0
 39 73  1  0  0  0  0
 39 80  2  0  0  0  0
 40 43  1  0  0  0  0
 41 50  1  0  0  0  0
 42 66  1  0  0  0  0
 43 45  1  0  0  0  0
 44 46  1  0  0  0  0
 44 47  1  0  0  0  0
 45 49  1  0  0  0  0
 46 51  1  0  0  0  0
 47 67  1  0  0  0  0
 48 51  1  0  0  0  0
 48 67  1  0  0  0  0
 49 71  1  0  0  0  0
 50 66  1  0  0  0  0
 51 65  1  0  0  0  0
 53 62  1  0  0  0  0
 54 63  1  0  0  0  0
 55 63  1  0  0  0  0
 56 63  1  0  0  0  0
 57 75  1  0  0  0  0
 58 73  1  0  0  0  0
 59 60  1  0  0  0  0
 59 74  1  0  0  0  0
 60 82  1  0  0  0  0
 61 63  1  0  0  0  0
 61 72  1  0  0  0  0
 62 75  1  0  0  0  0
 64 65  1  0  0  0  0
M  CHG  2  74   1  75   1
M  ISO  4  39 100  60 101  73 100  82 101
M  END
> <Batch ID>
0040

> <Smiles>
CNC(C)C(=O)NC(C(=O)N1Cc2cc([101O:1][101CH2:1]CNC(=N)c3cc(C[100NH:0][100C:0](=O)N4CCCC(n5nc(-c6ccc(Oc7ccc(F)cc7F)cc6)c(C(N)=O)c5N)C4)ccc3C)ccc2CC1C(=O)NC1CCCc2ccccc21)C(C)(C)C

> <Shape>
0.203

> <Color>
0.057

> <Negative vol penalty>
0.000

$$$$

  -OEChem-04042322063D

 88 97  0     1  0  0  0  0  0999 V2000
  -33.5875  -25.5482   21.9341 C   0  0  0  0  0  0  0  0  0  0  0  0
  -33.0375  -26.8169   21.7814 C   0  0  0  0  0  0  0  0  0  0  0  0
  -27.1846  -13.8935   20.2731 C   0  0  0  0  0  0  0  0  0  0  0  0
  -26.0910  -13.6778   22.4166 C   0  0  0  0  0  0  0  0  0  0  0  0
  -33.1972  -24.5136   21.0848 C   0  0  0  0  0  0  0  0  0  0  0  0
  -32.0977  -27.0521   20.7785 C   0  0  0  0  0  0  0  0  0  0  0  0
  -25.5012  -29.4689   22.3712 C   0  0  0  0  0  0  0  0  0  0  0  0
  -26.8224  -12.5843   19.9566 C   0  0  0  0  0  0  0  0  0  0  0  0
  -25.7287  -12.3686   22.1000 C   0  0  0  0  0  0  0  0  0  0  0  0
  -24.2903  -30.1306   22.5763 C   0  0  0  0  0  0  0  0  0  0  0  0
  -23.3716  -10.8188   20.2391 C   0  0  0  0  0  0  0  0  0  0  0  0
  -22.0623  -10.4254   20.5158 C   0  0  0  0  0  0  0  0  0  0  0  0
  -23.7845  -29.9587   20.2178 C   0  0  0  0  0  0  0  0  0  0  0  0
  -20.5949  -24.6806   21.4651 C   0  0  0  0  0  0  0  0  0  0  0  0
  -21.9618  -26.5879   22.9738 C   0  0  0  0  0  0  0  0  0  0  0  0
  -22.8924   -8.6982   21.9873 C   0  0  0  0  0  0  0  0  0  0  0  0
  -26.8189  -14.4403   21.5032 C   0  0  0  0  0  0  0  0  0  0  0  0
  -28.4971  -16.3165   21.9172 C   0  0  0  0  0  0  0  0  0  0  0  0
  -32.2449  -24.7339   20.0772 C   0  0  0  0  0  0  0  0  0  0  0  0
  -25.8517  -29.0354   21.0895 C   0  0  0  0  0  0  0  0  0  0  0  0
  -31.6952  -26.0198   19.9141 C   0  0  0  0  0  0  0  0  0  0  0  0
  -24.9903  -29.2843   20.0083 C   0  0  0  0  0  0  0  0  0  0  0  0
  -19.8892  -25.6967   22.1094 C   0  0  0  0  0  0  0  0  0  0  0  0
  -22.6675  -25.5718   22.3295 C   0  0  0  0  0  0  0  0  0  0  0  0
  -21.9840  -24.6181   21.5752 C   0  0  0  0  0  0  0  0  0  0  0  0
  -20.5727  -26.6504   22.8637 C   0  0  0  0  0  0  0  0  0  0  0  0
  -26.0944  -11.8218   20.8700 C   0  0  0  0  0  0  0  0  0  0  0  0
  -23.4343  -30.3752   21.5023 C   0  0  0  0  0  0  0  0  0  0  0  0
  -24.4413  -10.1519   20.8364 C   0  0  0  0  0  0  0  0  0  0  0  0
  -21.8227   -9.3651   21.3899 C   0  0  0  0  0  0  0  0  0  0  0  0
  -24.2017   -9.0917   21.7105 C   0  0  0  0  0  0  0  0  0  0  0  0
  -27.1933  -15.7925   21.8310 C   0  0  0  0  0  0  0  0  0  0  0  0
  -28.3155  -17.6351   22.2560 C   0  0  0  0  0  0  0  0  0  0  0  0
  -18.6272  -29.8435   23.3520 C   0  0  0  0  0  0  0  0  0  0  0  0
  -17.2892  -29.8423   23.2530 C   0  0  0  0  0  0  0  0  0  0  0  0
  -29.7594  -15.6692   21.7095 C   0  0  0  0  0  0  0  0  0  0  0  0
  -28.3667  -27.2835   18.9258 C   0  0  0  0  0  0  0  0  0  0  0  0
  -25.5924  -26.3835   17.9749 C   0  0  0  0  0  0  0  0  0  0  0  0
  -23.2963  -24.4138   17.1084 C   0  0  0  0  0  0  0  0  0  0  0  0
  -23.8128  -21.3447   21.3505 C   0  0  0  0  0  0  0  0  0  0  0  0
  -31.8894  -23.5962   19.1532 C   0  0  0  0  0  0  0  0  0  0  0  0
  -27.1739  -28.3733   20.8116 C   0  0  0  0  0  0  0  0  0  0  0  0
  -25.4245  -28.8306   18.6414 C   0  0  0  0  0  0  0  0  0  0  0  0
  -19.3899  -30.8694   24.1454 C   0  0  0  0  0  0  0  0  0  0  0  0
  -30.6100  -23.8361   18.3558 C   0  0  0  0  0  0  0  0  0  0  0  0
  -20.4974  -31.4809   23.2957 C   0  0  0  0  0  0  0  0  0  0  0  0
  -25.2737  -20.5252   24.5586 C   0  0  0  0  0  0  0  0  0  0  0  0
  -30.6099  -25.2386   17.7560 C   0  0  0  0  0  0  0  0  0  0  0  0
  -26.0602  -19.2577   24.2197 C   0  0  0  0  0  0  0  0  0  0  0  0
  -23.9528  -20.5765   23.7965 C   0  0  0  0  0  0  0  0  0  0  0  0
  -24.8759  -19.1951   21.9762 C   0  0  0  0  0  0  0  0  0  0  0  0
  -20.4438  -29.4551   21.7930 C   0  0  0  0  0  0  0  0  0  0  0  0
  -30.6546  -26.3082   18.8539 C   0  0  1  0  0  0  0  0  0  0  0  0
  -27.0907  -27.2961   19.7153 C   0  0  1  0  0  0  0  0  0  0  0  0
  -26.2321  -19.0949   22.6978 C   0  0  2  0  0  0  0  0  0  0  0  0
  -21.3275  -30.4006   22.6025 C   0  0  1  0  0  0  0  0  0  1  0  0
  -18.4024  -25.7437   21.9767 C   0  0  0  0  0  0  0  0  0  0  0  0
  -24.1543  -25.5247   22.4623 C   0  0  0  0  0  0  0  0  0  0  0  0
  -21.6411  -22.8640   16.0333 C   0  0  0  0  0  0  0  0  0  0  0  0
  -25.1350  -29.0599   16.5852 C   0  0  0  0  0  0  0  0  0  0  0  0
  -23.5509  -27.9013   15.0305 C   0  0  0  0  0  0  0  0  0  0  0  0
  -25.9535  -27.2324   15.0869 C   0  0  0  0  0  0  0  0  0  0  0  0
  -25.1100  -22.0925   17.3926 C   0  0  0  0  0  0  0  0  0  0  0  0
  -22.7181  -23.5206   20.8771 C   0  0  0  0  0  0  0  0  0  0  0  0
  -19.8352  -27.7527   23.5651 C   0  0  0  0  0  0  0  0  0  0  0  0
  -24.4478  -26.6094   17.0199 C   0  0  1  0  0  0  0  0  0  0  0  0
  -23.1111  -23.1329   16.3151 C   0  0  2  0  0  0  0  0  0  0  0  0
  -24.7677  -27.6998   15.9588 C   0  0  0  0  0  0  0  0  0  0  0  0
  -26.2529  -16.7038   22.0940 N   0  0  0  0  0  0  0  0  0  0  0  0
  -26.9666  -17.8137   22.3489 N   0  0  0  0  0  0  0  0  0  0  0  0
  -26.0191  -27.4873   18.7233 N   0  0  0  0  0  0  0  0  0  0  0  0
  -24.1880  -20.4346   22.3527 N   0  0  0  0  0  0  0  0  0  0  0  0
  -29.1797  -18.6476   22.4806 N   0  0  0  0  0  0  0  0  0  0  0  0
  -30.3898  -15.0665   22.8066 N   0  0  0  0  0  0  0  0  0  0  0  0
  -29.3486  -26.4688   19.4565 N   0  0  0  0  0  0  0  0  0  0  0  0
  -24.1230  -25.3038   16.4559 N   0  0  0  0  0  0  0  0  0  0  0  0
  -23.1599  -22.4898   21.7900 N   0  0  0  0  0  0  0  0  0  0  0  0
  -19.3558  -28.8286   22.6304 N   0  3  1  0  0  0  0  0  0  0  0  0
  -23.6652  -21.9724   17.0684 N   0  3  0  0  0  0  0  0  0  0  0  0
  -30.3199  -15.6407   20.5876 O   0  0  0  0  0  0  0  0  0  0  0  0
  -28.4546  -27.9614   17.9088 O   0  0  0  0  0  0  0  0  0  0  0  0
  -26.1001  -25.2612   18.0532 O   0  0  0  0  0  0  0  0  0  0  0  0
  -22.7581  -24.6072   18.1963 O   0  0  0  0  0  0  0  0  0  0  0  0
  -24.0473  -21.1536   20.1523 O   0  0  0  0  0  0  0  0  0  0  0  0
  -25.7406  -10.5443   20.5613 O   0  0  0  0  0  0  0  0  0  0  0  0
  -22.2517  -31.0177   21.7104 O   0  0  0  0  0  0  0  0  0  1  0  0
  -20.5653   -8.9884   21.6568 F   0  0  0  0  0  0  0  0  0  0  0  0
  -25.2252   -8.4480   22.2883 F   0  0  0  0  0  0  0  0  0  0  0  0
  1  2  1  0  0  0  0
  1  5  2  0  0  0  0
  2  6  2  0  0  0  0
  3  8  2  0  0  0  0
  3 17  1  0  0  0  0
  4  9  1  0  0  0  0
  4 17  2  0  0  0  0
  5 19  1  0  0  0  0
  6 21  1  0  0  0  0
  7 10  2  0  0  0  0
  7 20  1  0  0  0  0
  8 27  1  0  0  0  0
  9 27  2  0  0  0  0
 10 28  1  0  0  0  0
 11 12  2  0  0  0  0
 11 29  1  0  0  0  0
 12 30  1  0  0  0  0
 13 22  1  0  0  0  0
 13 28  2  0  0  0  0
 14 23  1  0  0  0  0
 14 25  2  0  0  0  0
 15 24  2  0  0  0  0
 15 26  1  0  0  0  0
 16 30  2  0  0  0  0
 16 31  1  0  0  0  0
 17 32  1  0  0  0  0
 18 32  1  0  0  0  0
 18 33  2  0  0  0  0
 18 36  1  0  0  0  0
 19 21  2  0  0  0  0
 19 41  1  0  0  0  0
 20 22  2  0  0  0  0
 20 42  1  0  0  0  0
 21 53  1  0  0  0  0
 22 43  1  0  0  0  0
 23 26  2  0  0  0  0
 23 57  1  0  0  0  0
 24 25  1  0  0  0  0
 24 58  1  0  0  0  0
 25 64  1  0  0  0  0
 26 65  1  0  0  0  0
 27 85  1  0  0  0  0
 28 86  1  0  0  0  0
 29 31  2  0  0  0  0
 29 85  1  0  0  0  0
 30 87  1  0  0  0  0
 31 88  1  0  0  0  0
 32 69  2  0  0  0  0
 33 70  1  0  0  0  0
 33 73  1  0  0  0  0
 34 35  2  0  0  0  0
 34 44  1  0  0  0  0
 34 78  1  0  0  0  0
 36 74  1  0  0  0  0
 36 80  2  0  0  0  0
 37 54  1  0  0  0  0
 37 75  1  0  0  0  0
 37 81  2  0  0  0  0
 38 66  1  0  0  0  0
 38 71  1  0  0  0  0
 38 82  2  0  0  0  0
 39 67  1  0  0  0  0
 39 76  1  0  0  0  0
 39 83  2  0  0  0  0
 40 72  1  0  0  0  0
 40 77  1  0  0  0  0
 40 84  2  0  0  0  0
 41 45  1  0  0  0  0
 42 54  1  0  0  0  0
 43 71  1  0  0  0  0
 44 46  1  0  0  0  0
 45 48  1  0  0  0  0
 46 56  1  0  0  0  0
 47 49  1  0  0  0  0
 47 50  1  0  0  0  0
 48 53  1  0  0  0  0
 49 55  1  0  0  0  0
 50 72  1  0  0  0  0
 51 55  1  0  0  0  0
 51 72  1  0  0  0  0
 52 56  1  0  0  0  0
 52 78  1  0  0  0  0
 53 75  1  0  0  0  0
 54 71  1  0  0  0  0
 55 70  1  0  0  0  0
 56 86  1  0  0  0  0
 59 67  1  0  0  0  0
 60 68  1  0  0  0  0
 61 68  1  0  0  0  0
 62 68  1  0  0  0  0
 63 79  1  0  0  0  0
 64 77  1  0  0  0  0
 65 78  1  0  0  0  0
 66 68  1  0  0  0  0
 66 76  1  0  0  0  0
 67 79  1  0  0  0  0
 69 70  1  0  0  0  0
M  CHG  2  78   1  79   1
M  ISO  4  40 100  56 101  77 100  86 101
M  END
> <Batch ID>
0040

> <Smiles>
C=C1CC[101CH:1]([101O:1]c2ccc3c(c2)CN(C(=O)C(NC(=O)C(C)NC)C(C)(C)C)C(C(=O)NC2CCCc4ccccc42)C3)CN1Cc1cc(C)c(C[100NH:0][100C:0](=O)N2CCCC(n3nc(-c4ccc(Oc5ccc(F)cc5F)cc4)c(C(N)=O)c3N)C2)cc1C

> <Shape>
0.248

> <Color>
0.054

> <Negative vol penalty>
0.000

$$$$

  -OEChem-04042322063D

 83 91  0     1  0  0  0  0  0999 V2000
  -18.2826  -25.0094   25.1059 C   0  0  0  0  0  0  0  0  0  0  0  0
  -19.5382  -24.5821   24.6860 C   0  0  0  0  0  0  0  0  0  0  0  0
  -23.8040   -8.6927   20.1286 C   0  0  0  0  0  0  0  0  0  0  0  0
  -23.0540  -10.6999   21.2446 C   0  0  0  0  0  0  0  0  0  0  0  0
  -17.7778  -26.2301   24.6600 C   0  0  0  0  0  0  0  0  0  0  0  0
  -20.2894  -25.3749   23.8190 C   0  0  0  0  0  0  0  0  0  0  0  0
  -26.3818  -25.9927   23.7411 C   0  0  0  0  0  0  0  0  0  0  0  0
  -28.8995  -19.3075   17.9801 C   0  0  0  0  0  0  0  0  0  0  0  0
  -28.7927  -17.9246   18.1279 C   0  0  0  0  0  0  0  0  0  0  0  0
  -22.8410   -7.9519   20.8137 C   0  0  0  0  0  0  0  0  0  0  0  0
  -22.0910   -9.9592   21.9297 C   0  0  0  0  0  0  0  0  0  0  0  0
  -27.3743  -25.4047   22.9582 C   0  0  0  0  0  0  0  0  0  0  0  0
  -22.4475   -6.6273   23.8983 C   0  0  0  0  0  0  0  0  0  0  0  0
  -22.8429   -5.4128   24.4588 C   0  0  0  0  0  0  0  0  0  0  0  0
  -27.3434  -27.3195   21.4913 C   0  0  0  0  0  0  0  0  0  0  0  0
  -30.6775  -17.9405   19.6393 C   0  0  0  0  0  0  0  0  0  0  0  0
  -21.2143   -4.2557   23.1001 C   0  0  0  0  0  0  0  0  0  0  0  0
  -23.9106  -10.0667   20.3440 C   0  0  0  0  0  0  0  0  0  0  0  0
  -24.7597  -11.4710   18.3909 C   0  0  0  0  0  0  0  0  0  0  0  0
  -18.5272  -27.0428   23.7947 C   0  0  0  0  0  0  0  0  0  0  0  0
  -25.8541  -27.2459   23.3982 C   0  0  0  0  0  0  0  0  0  0  0  0
  -19.7935  -26.6071   23.3600 C   0  0  0  0  0  0  0  0  0  0  0  0
  -26.3461  -27.9225   22.2729 C   0  0  0  0  0  0  0  0  0  0  0  0
  -29.8954  -20.0069   18.6620 C   0  0  0  0  0  0  0  0  0  0  0  0
  -30.7843  -19.3234   19.4916 C   0  0  0  0  0  0  0  0  0  0  0  0
  -29.6816  -17.2411   18.9575 C   0  0  0  0  0  0  0  0  0  0  0  0
  -21.9845   -8.5851   21.7142 C   0  0  0  0  0  0  0  0  0  0  0  0
  -27.8532  -26.0667   21.8315 C   0  0  0  0  0  0  0  0  0  0  0  0
  -21.4354   -6.6561   22.9388 C   0  0  0  0  0  0  0  0  0  0  0  0
  -22.2263   -4.2269   24.0597 C   0  0  0  0  0  0  0  0  0  0  0  0
  -20.8188   -5.4703   22.5397 C   0  0  0  0  0  0  0  0  0  0  0  0
  -24.9055  -10.8324   19.6370 C   0  0  0  0  0  0  0  0  0  0  0  0
  -25.9806  -12.0565   18.1602 C   0  0  0  0  0  0  0  0  0  0  0  0
  -23.6224  -11.5297   17.5199 C   0  0  0  0  0  0  0  0  0  0  0  0
  -22.9745  -28.3221   22.5899 C   0  0  0  0  0  0  0  0  0  0  0  0
  -24.4449  -31.2104   22.7239 C   0  0  0  0  0  0  0  0  0  0  0  0
  -29.4257  -23.5920   19.6982 C   0  0  0  0  0  0  0  0  0  0  0  0
  -27.3501  -32.9931   22.5542 C   0  0  0  0  0  0  0  0  0  0  0  0
  -30.3731  -15.0068   19.8933 C   0  0  0  0  0  0  0  0  0  0  0  0
  -17.9198  -28.3323   23.3020 C   0  0  0  0  0  0  0  0  0  0  0  0
  -24.8028  -27.8787   24.2681 C   0  0  0  0  0  0  0  0  0  0  0  0
  -25.8272  -29.2787   21.8733 C   0  0  0  0  0  0  0  0  0  0  0  0
  -18.9368  -29.2867   22.6815 C   0  0  0  0  0  0  0  0  0  0  0  0
  -30.4025  -11.5098   20.5621 C   0  0  0  0  0  0  0  0  0  0  0  0
  -19.8491  -28.5393   21.7141 C   0  0  0  0  0  0  0  0  0  0  0  0
  -28.9630  -11.0743   20.2785 C   0  0  0  0  0  0  0  0  0  0  0  0
  -30.4602  -12.8959   21.2016 C   0  0  0  0  0  0  0  0  0  0  0  0
  -28.3011  -13.5117   20.1876 C   0  0  0  0  0  0  0  0  0  0  0  0
  -20.6489  -27.4505   22.4396 C   0  0  1  0  0  0  0  0  0  0  0  0
  -23.9730  -28.9281   23.5351 C   0  0  1  0  0  0  0  0  0  0  0  0
  -28.1954  -12.1489   19.4838 C   0  0  2  0  0  0  0  0  0  0  0  0
  -31.8570  -20.0515   20.2330 C   0  0  0  0  0  0  0  0  0  0  0  0
  -28.2300  -35.3407   22.6631 C   0  0  0  0  0  0  0  0  0  0  0  0
  -23.4218  -31.7225   19.8953 C   0  0  0  0  0  0  0  0  0  0  0  0
  -25.0778  -33.5911   19.7095 C   0  0  0  0  0  0  0  0  0  0  0  0
  -23.2746  -33.6914   21.4303 C   0  0  0  0  0  0  0  0  0  0  0  0
  -29.0154  -32.3826   24.9234 C   0  0  0  0  0  0  0  0  0  0  0  0
  -29.9910  -21.4949   18.4865 C   0  0  0  0  0  0  0  0  0  0  0  0
  -28.8527  -24.0689   21.0157 C   0  0  0  0  0  0  0  0  0  1  0  0
  -25.1942  -32.0753   21.7392 C   0  0  1  0  0  0  0  0  0  0  0  0
  -27.9206  -34.0771   23.4508 C   0  0  2  0  0  0  0  0  0  0  0  0
  -24.2507  -32.7437   20.6997 C   0  0  0  0  0  0  0  0  0  0  0  0
  -26.1231  -10.9965   20.1611 N   0  0  0  0  0  0  0  0  0  0  0  0
  -26.7534  -11.7448   19.2399 N   0  0  0  0  0  0  0  0  0  0  0  0
  -24.7952  -29.8531   22.7523 N   0  0  0  0  0  0  0  0  0  0  0  0
  -29.7153  -13.8623   20.3917 N   0  0  0  0  0  0  0  0  0  0  0  0
  -26.4576  -12.8022   17.1410 N   0  0  0  0  0  0  0  0  0  0  0  0
  -22.4474  -10.8729   17.9100 N   0  0  0  0  0  0  0  0  0  0  0  0
  -29.5723  -15.8366   19.1094 N   0  0  0  0  0  0  0  0  0  0  0  0
  -21.7531  -28.0359   23.1693 N   0  0  0  0  0  0  0  0  0  0  0  0
  -29.4831  -22.2085   19.6352 N   0  0  0  0  0  0  0  0  0  0  0  0
  -25.9717  -33.0196   22.5345 N   0  0  0  0  0  0  0  0  0  0  0  0
  -29.1782  -33.6063   24.0969 N   0  3  0  0  0  0  0  0  0  0  0  0
  -23.6525  -12.1327   16.4203 O   0  0  0  0  0  0  0  0  0  0  0  0
  -23.2884  -28.1298   21.4210 O   0  0  0  0  0  0  0  0  0  0  0  0
  -23.5857  -31.7217   23.4463 O   0  0  0  0  0  0  0  0  0  0  0  0
  -29.7879  -24.3627   18.8134 O   0  0  0  0  0  0  0  0  0  0  0  0
  -28.0568  -32.2042   21.9306 O   0  0  0  0  0  0  0  0  0  0  0  0
  -31.5668  -15.2199   20.1210 O   0  0  0  0  0  0  0  0  0  0  0  0
  -21.0445   -7.8626   22.3828 O   0  0  0  0  0  0  0  0  0  0  0  0
  -28.8215  -25.4947   21.0653 O   0  0  0  0  0  0  0  0  0  1  0  0
  -22.6072   -3.0605   24.5968 F   0  0  0  0  0  0  0  0  0  0  0  0
  -19.8468   -5.4914   21.6175 F   0  0  0  0  0  0  0  0  0  0  0  0
  1  2  1  0  0  0  0
  1  5  2  0  0  0  0
  2  6  2  0  0  0  0
  3 10  2  0  0  0  0
  3 18  1  0  0  0  0
  4 11  1  0  0  0  0
  4 18  2  0  0  0  0
  5 20  1  0  0  0  0
  6 22  1  0  0  0  0
  7 12  2  0  0  0  0
  7 21  1  0  0  0  0
  8  9  2  0  0  0  0
  8 24  1  0  0  0  0
  9 26  1  0  0  0  0
 10 27  1  0  0  0  0
 11 27  2  0  0  0  0
 12 28  1  0  0  0  0
 13 14  2  0  0  0  0
 13 29  1  0  0  0  0
 14 30  1  0  0  0  0
 15 23  1  0  0  0  0
 15 28  2  0  0  0  0
 16 25  1  0  0  0  0
 16 26  2  0  0  0  0
 17 30  2  0  0  0  0
 17 31  1  0  0  0  0
 18 32  1  0  0  0  0
 19 32  1  0  0  0  0
 19 33  2  0  0  0  0
 19 34  1  0  0  0  0
 20 22  2  0  0  0  0
 20 40  1  0  0  0  0
 21 23  2  0  0  0  0
 21 41  1  0  0  0  0
 22 49  1  0  0  0  0
 23 42  1  0  0  0  0
 24 25  2  0  0  0  0
 24 58  1  0  0  0  0
 25 52  1  0  0  0  0
 26 69  1  0  0  0  0
 27 80  1  0  0  0  0
 28 81  1  0  0  0  0
 29 31  2  0  0  0  0
 29 80  1  0  0  0  0
 30 82  1  0  0  0  0
 31 83  1  0  0  0  0
 32 63  2  0  0  0  0
 33 64  1  0  0  0  0
 33 67  1  0  0  0  0
 34 68  1  0  0  0  0
 34 74  2  0  0  0  0
 35 50  1  0  0  0  0
 35 70  1  0  0  0  0
 35 75  2  0  0  0  0
 36 60  1  0  0  0  0
 36 65  1  0  0  0  0
 36 76  2  0  0  0  0
 37 59  1  0  0  0  0
 37 71  1  0  0  0  0
 37 77  2  0  0  0  0
 38 61  1  0  0  0  0
 38 72  1  0  0  0  0
 38 78  2  0  0  0  0
 39 66  1  0  0  0  0
 39 69  1  0  0  0  0
 39 79  2  0  0  0  0
 40 43  1  0  0  0  0
 41 50  1  0  0  0  0
 42 65  1  0  0  0  0
 43 45  1  0  0  0  0
 44 46  1  0  0  0  0
 44 47  1  0  0  0  0
 45 49  1  0  0  0  0
 46 51  1  0  0  0  0
 47 66  1  0  0  0  0
 48 51  1  0  0  0  0
 48 66  1  0  0  0  0
 49 70  1  0  0  0  0
 50 65  1  0  0  0  0
 51 64  1  0  0  0  0
 53 61  1  0  0  0  0
 54 62  1  0  0  0  0
 55 62  1  0  0  0  0
 56 62  1  0  0  0  0
 57 73  1  0  0  0  0
 58 71  1  0  0  0  0
 59 81  1  0  0  0  0
 60 62  1  0  0  0  0
 60 72  1  0  0  0  0
 61 73  1  0  0  0  0
 63 64  1  0  0  0  0
M  CHG  1  73   1
M  ISO  4  39 100  59 101  69 100  81 101
M  END
> <Batch ID>
0040

> <Smiles>
CNC(C)C(=O)NC(C(=O)N1Cc2cc([101O:1][101CH2:1]C(=O)NCc3ccc([100NH:0][100C:0](=O)N4CCCC(n5nc(-c6ccc(Oc7ccc(F)cc7F)cc6)c(C(N)=O)c5N)C4)cc3C)ccc2CC1C(=O)NC1CCCc2ccccc21)C(C)(C)C

> <Shape>
0.280

> <Color>
0.111

> <Negative vol penalty>
0.000

$$$$

  -OEChem-04042322063D

 91100  0     1  0  0  0  0  0999 V2000
  -29.4411  -36.4692   21.0016 C   0  0  0  0  0  0  0  0  0  0  0  0
  -29.8944  -35.1931   20.6829 C   0  0  0  0  0  0  0  0  0  0  0  0
  -32.1244  -18.5221   22.0647 C   0  0  0  0  0  0  0  0  0  0  0  0
  -22.8664  -11.0454   22.4227 C   0  0  0  0  0  0  0  0  0  0  0  0
  -23.5237   -9.4740   20.7092 C   0  0  0  0  0  0  0  0  0  0  0  0
  -28.4742  -36.6371   21.9919 C   0  0  0  0  0  0  0  0  0  0  0  0
  -29.3817  -34.0842   21.3552 C   0  0  0  0  0  0  0  0  0  0  0  0
  -27.7822  -27.1781   20.3238 C   0  0  0  0  0  0  0  0  0  0  0  0
  -31.2445  -19.5914   22.2313 C   0  0  0  0  0  0  0  0  0  0  0  0
  -31.6664  -17.3190   21.5274 C   0  0  0  0  0  0  0  0  0  0  0  0
  -22.0476  -10.0744   22.9991 C   0  0  0  0  0  0  0  0  0  0  0  0
  -22.7049   -8.5029   21.2857 C   0  0  0  0  0  0  0  0  0  0  0  0
  -28.0212  -25.9224   20.8805 C   0  0  0  0  0  0  0  0  0  0  0  0
  -22.8319   -6.3787   23.9110 C   0  0  0  0  0  0  0  0  0  0  0  0
  -23.3569   -5.0949   24.0584 C   0  0  0  0  0  0  0  0  0  0  0  0
  -26.2965  -26.3266   22.5179 C   0  0  0  0  0  0  0  0  0  0  0  0
  -21.5934   -4.2135   22.6618 C   0  0  0  0  0  0  0  0  0  0  0  0
  -23.6044  -10.7452   21.2777 C   0  0  0  0  0  0  0  0  0  0  0  0
  -24.0551  -12.9997   20.1724 C   0  0  0  0  0  0  0  0  0  0  0  0
  -27.9424  -35.5290   22.6699 C   0  0  0  0  0  0  0  0  0  0  0  0
  -26.8043  -28.0233   20.8677 C   0  0  0  0  0  0  0  0  0  0  0  0
  -28.4077  -34.2376   22.3564 C   0  0  0  0  0  0  0  0  0  0  0  0
  -26.0452  -27.5915   21.9647 C   0  0  0  0  0  0  0  0  0  0  0  0
  -29.9064  -19.4577   21.8608 C   0  0  0  0  0  0  0  0  0  0  0  0
  -30.3283  -17.1853   21.1569 C   0  0  0  0  0  0  0  0  0  0  0  0
  -21.9669   -8.8031   22.4306 C   0  0  0  0  0  0  0  0  0  0  0  0
  -27.2803  -25.4976   21.9794 C   0  0  0  0  0  0  0  0  0  0  0  0
  -21.6877   -6.5800   23.1390 C   0  0  0  0  0  0  0  0  0  0  0  0
  -22.7377   -4.0122   23.4338 C   0  0  0  0  0  0  0  0  0  0  0  0
  -21.0684   -5.4973   22.5144 C   0  0  0  0  0  0  0  0  0  0  0  0
  -29.4482  -18.2547   21.3236 C   0  0  0  0  0  0  0  0  0  0  0  0
  -24.4500  -11.7480   20.6815 C   0  0  0  0  0  0  0  0  0  0  0  0
  -25.2205  -13.5705   19.7223 C   0  0  0  0  0  0  0  0  0  0  0  0
  -26.9154  -21.4266   23.0376 C   0  0  0  0  0  0  0  0  0  0  0  0
  -25.9179  -21.4496   22.1339 C   0  0  0  0  0  0  0  0  0  0  0  0
  -25.7426  -20.4315   21.1313 C   0  0  0  0  0  0  0  0  0  0  0  0
  -24.7472  -20.4586   20.2329 C   0  0  0  0  0  0  0  0  0  0  0  0
  -22.7515  -13.5935   20.1118 C   0  0  0  0  0  0  0  0  0  0  0  0
  -26.8256  -30.9014   22.2168 C   0  0  0  0  0  0  0  0  0  0  0  0
  -23.6039  -30.5302   22.1447 C   0  0  0  0  0  0  0  0  0  0  0  0
  -20.9338  -28.4075   22.0381 C   0  0  0  0  0  0  0  0  0  0  0  0
  -30.6099  -14.8058   20.3793 C   0  0  0  0  0  0  0  0  0  0  0  0
  -26.9332  -35.7642   23.7658 C   0  0  0  0  0  0  0  0  0  0  0  0
  -26.5402  -29.3641   20.2391 C   0  0  0  0  0  0  0  0  0  0  0  0
  -24.9699  -28.4528   22.5734 C   0  0  0  0  0  0  0  0  0  0  0  0
  -26.1686  -34.5063   24.1700 C   0  0  0  0  0  0  0  0  0  0  0  0
  -26.9180  -20.9121   26.1361 C   0  0  0  0  0  0  0  0  0  0  0  0
  -29.8313  -11.5810   19.0863 C   0  0  0  0  0  0  0  0  0  0  0  0
  -27.1436  -19.6437   25.3117 C   0  0  0  0  0  0  0  0  0  0  0  0
  -27.1278  -33.3347   24.3545 C   0  0  0  0  0  0  0  0  0  0  0  0
  -26.3433  -22.1088   25.3760 C   0  0  0  0  0  0  0  0  0  0  0  0
  -28.3294  -11.4400   19.3441 C   0  0  0  0  0  0  0  0  0  0  0  0
  -30.5337  -12.3272   20.2193 C   0  0  0  0  0  0  0  0  0  0  0  0
  -28.4455  -13.4880   20.8203 C   0  0  0  0  0  0  0  0  0  0  0  0
  -28.2776  -19.7824   24.2988 C   0  0  0  0  0  0  0  0  0  0  0  0
  -27.8578  -33.0080   23.0461 C   0  0  1  0  0  0  0  0  0  0  0  0
  -27.1180  -22.4905   24.1032 C   0  0  2  0  0  0  0  0  0  0  0  0
  -25.8736  -30.3504   21.1932 C   0  0  1  0  0  0  0  0  0  0  0  0
  -27.6843  -12.8000   19.6753 C   0  0  2  0  0  0  0  0  0  0  0  0
  -24.5480  -19.4131   19.1851 C   0  0  0  0  0  0  0  0  0  0  0  0
  -18.4243  -28.3974   22.0285 C   0  0  0  0  0  0  0  0  0  0  0  0
  -23.5924  -31.1384   25.1347 C   0  0  0  0  0  0  0  0  0  0  0  0
  -21.2751  -30.1972   25.2465 C   0  0  0  0  0  0  0  0  0  0  0  0
  -21.7361  -32.2089   23.8453 C   0  0  0  0  0  0  0  0  0  0  0  0
  -20.8335  -27.0895   19.3901 C   0  0  0  0  0  0  0  0  0  0  0  0
  -28.9627  -20.6100   22.0413 C   0  0  0  0  0  0  0  0  0  0  0  0
  -26.7162  -23.9016   23.6499 C   0  0  0  0  0  0  0  0  0  1  0  0
  -22.5735  -29.9486   23.0823 C   0  0  1  0  0  0  0  0  0  0  0  0
  -19.6840  -28.4034   21.1764 C   0  0  2  0  0  0  0  0  0  0  0  0
  -22.3158  -30.8576   24.3172 C   0  0  0  0  0  0  0  0  0  0  0  0
  -25.7636  -11.5355   20.5658 N   0  0  0  0  0  0  0  0  0  0  0  0
  -26.2042  -12.6612   19.9788 N   0  0  0  0  0  0  0  0  0  0  0  0
  -24.7536  -29.7578   21.9270 N   0  0  0  0  0  0  0  0  0  0  0  0
  -29.8705  -13.6078   20.4742 N   0  0  0  0  0  0  0  0  0  0  0  0
  -25.4895  -14.7563   19.1360 N   0  0  0  0  0  0  0  0  0  0  0  0
  -21.9644  -13.3627   18.9754 N   0  0  0  0  0  0  0  0  0  0  0  0
  -29.8660  -15.9623   20.6107 N   0  0  0  0  0  0  0  0  0  0  0  0
  -26.9889  -32.2721   22.1528 N   0  0  0  0  0  0  0  0  0  0  0  0
  -21.3871  -29.6881   22.2742 N   0  0  0  0  0  0  0  0  0  0  0  0
  -27.8078  -20.2901   22.9564 N   0  3  2  0  0  0  0  0  0  0  0  0
  -19.6636  -27.1989   20.2991 N   0  3  0  0  0  0  0  0  0  0  0  0
  -22.3045  -14.3209   21.0308 O   0  0  0  0  0  0  0  0  0  0  0  0
  -27.3703  -30.1397   23.0071 O   0  0  0  0  0  0  0  0  0  0  0  0
  -23.3930  -31.6261   21.6191 O   0  0  0  0  0  0  0  0  0  0  0  0
  -21.4535  -27.3778   22.4625 O   0  0  0  0  0  0  0  0  0  0  0  0
  -31.8081  -14.8073   20.0856 O   0  0  0  0  0  0  0  0  0  0  0  0
  -21.1682   -7.8553   22.9930 O   0  0  0  0  0  0  0  0  0  0  0  0
  -27.5121  -24.2727   22.5251 O   0  0  0  0  0  0  0  0  0  1  0  0
  -23.2428   -2.7796   23.5742 F   0  0  0  0  0  0  0  0  0  0  0  0
  -19.9696   -5.6846   21.7706 F   0  0  0  0  0  0  0  0  0  0  0  0
  -28.1614  -18.1274   20.9662 F   0  0  0  0  0  0  0  0  0  0  0  0
  1  2  1  0  0  0  0
  1  6  2  0  0  0  0
  2  7  2  0  0  0  0
  3  9  2  0  0  0  0
  3 10  1  0  0  0  0
  4 11  2  0  0  0  0
  4 18  1  0  0  0  0
  5 12  1  0  0  0  0
  5 18  2  0  0  0  0
  6 20  1  0  0  0  0
  7 22  1  0  0  0  0
  8 13  2  0  0  0  0
  8 21  1  0  0  0  0
  9 24  1  0  0  0  0
 10 25  2  0  0  0  0
 11 26  1  0  0  0  0
 12 26  2  0  0  0  0
 13 27  1  0  0  0  0
 14 15  2  0  0  0  0
 14 28  1  0  0  0  0
 15 29  1  0  0  0  0
 16 23  1  0  0  0  0
 16 27  2  0  0  0  0
 17 29  2  0  0  0  0
 17 30  1  0  0  0  0
 18 32  1  0  0  0  0
 19 32  1  0  0  0  0
 19 33  2  0  0  0  0
 19 38  1  0  0  0  0
 20 22  2  0  0  0  0
 20 43  1  0  0  0  0
 21 23  2  0  0  0  0
 21 44  1  0  0  0  0
 22 56  1  0  0  0  0
 23 45  1  0  0  0  0
 24 31  2  0  0  0  0
 24 66  1  0  0  0  0
 25 31  1  0  0  0  0
 25 77  1  0  0  0  0
 26 87  1  0  0  0  0
 27 88  1  0  0  0  0
 28 30  2  0  0  0  0
 28 87  1  0  0  0  0
 29 89  1  0  0  0  0
 30 90  1  0  0  0  0
 31 91  1  0  0  0  0
 32 71  2  0  0  0  0
 33 72  1  0  0  0  0
 33 75  1  0  0  0  0
 34 35  2  0  0  0  0
 34 57  1  0  0  0  0
 34 80  1  0  0  0  0
 35 36  1  0  0  0  0
 36 37  2  0  0  0  0
 37 60  1  0  0  0  0
 38 76  1  0  0  0  0
 38 82  2  0  0  0  0
 39 58  1  0  0  0  0
 39 78  1  0  0  0  0
 39 83  2  0  0  0  0
 40 68  1  0  0  0  0
 40 73  1  0  0  0  0
 40 84  2  0  0  0  0
 41 69  1  0  0  0  0
 41 79  1  0  0  0  0
 41 85  2  0  0  0  0
 42 74  1  0  0  0  0
 42 77  1  0  0  0  0
 42 86  2  0  0  0  0
 43 46  1  0  0  0  0
 44 58  1  0  0  0  0
 45 73  1  0  0  0  0
 46 50  1  0  0  0  0
 47 49  1  0  0  0  0
 47 51  1  0  0  0  0
 48 52  1  0  0  0  0
 48 53  1  0  0  0  0
 49 55  1  0  0  0  0
 50 56  1  0  0  0  0
 51 57  1  0  0  0  0
 52 59  1  0  0  0  0
 53 74  1  0  0  0  0
 54 59  1  0  0  0  0
 54 74  1  0  0  0  0
 55 80  1  0  0  0  0
 56 78  1  0  0  0  0
 57 67  1  0  0  0  0
 58 73  1  0  0  0  0
 59 72  1  0  0  0  0
 61 69  1  0  0  0  0
 62 70  1  0  0  0  0
 63 70  1  0  0  0  0
 64 70  1  0  0  0  0
 65 81  1  0  0  0  0
 66 80  1  0  0  0  0
 67 88  1  0  0  0  0
 68 70  1  0  0  0  0
 68 79  1  0  0  0  0
 69 81  1  0  0  0  0
 71 72  1  0  0  0  0
M  CHG  2  80   1  81   1
M  ISO  4  42 100  67 101  77 100  88 101
M  END
> <Batch ID>
0040

> <Smiles>
CC=CC=C1C([101CH2:1][101O:1]c2ccc3c(c2)CN(C(=O)C(NC(=O)C(C)NC)C(C)(C)C)C(C(=O)NC2CCCc4ccccc42)C3)CCCCN1Cc1cccc([100NH:0][100C:0](=O)N2CCCC(n3nc(-c4ccc(Oc5ccc(F)cc5F)cc4)c(C(N)=O)c3N)C2)c1F

> <Shape>
0.308

> <Color>
0.134

> <Negative vol penalty>
0.000

$$$$

  -OEChem-04042322063D

 84 92  0     1  0  0  0  0  0999 V2000
  -28.3186  -24.7746   16.5766 C   0  0  0  0  0  0  0  0  0  0  0  0
  -27.1384  -24.9130   17.3000 C   0  0  0  0  0  0  0  0  0  0  0  0
  -28.6634  -17.6376   21.3106 C   0  0  0  0  0  0  0  0  0  0  0  0
  -26.2851  -17.8488   20.9418 C   0  0  0  0  0  0  0  0  0  0  0  0
  -29.5022  -25.3279   17.0633 C   0  0  0  0  0  0  0  0  0  0  0  0
  -27.1414  -25.6039   18.5113 C   0  0  0  0  0  0  0  0  0  0  0  0
  -23.2372  -28.8014   18.9334 C   0  0  0  0  0  0  0  0  0  0  0  0
  -28.6353  -16.3570   20.7584 C   0  0  0  0  0  0  0  0  0  0  0  0
  -26.2570  -16.5682   20.3896 C   0  0  0  0  0  0  0  0  0  0  0  0
  -21.9971  -28.2529   19.2576 C   0  0  0  0  0  0  0  0  0  0  0  0
  -25.4942  -13.2153   19.2121 C   0  0  0  0  0  0  0  0  0  0  0  0
  -24.4677  -12.3594   19.6115 C   0  0  0  0  0  0  0  0  0  0  0  0
  -22.3111  -28.9164   21.5555 C   0  0  0  0  0  0  0  0  0  0  0  0
  -21.4676  -24.2367   26.0955 C   0  0  0  0  0  0  0  0  0  0  0  0
  -20.2217  -22.4906   24.3118 C   0  0  0  0  0  0  0  0  0  0  0  0
  -25.2257  -12.5181   21.9000 C   0  0  0  0  0  0  0  0  0  0  0  0
  -27.4882  -18.3835   21.4024 C   0  0  0  0  0  0  0  0  0  0  0  0
  -27.7294  -20.9207   21.2941 C   0  0  0  0  0  0  0  0  0  0  0  0
  -29.5177  -26.0342   18.2764 C   0  0  0  0  0  0  0  0  0  0  0  0
  -24.0297  -29.4029   19.9216 C   0  0  0  0  0  0  0  0  0  0  0  0
  -28.3265  -26.1660   19.0153 C   0  0  0  0  0  0  0  0  0  0  0  0
  -23.5597  -29.4741   21.2408 C   0  0  0  0  0  0  0  0  0  0  0  0
  -21.6510  -22.8600   26.2243 C   0  0  0  0  0  0  0  0  0  0  0  0
  -20.0383  -23.8674   24.1830 C   0  0  0  0  0  0  0  0  0  0  0  0
  -27.4322  -15.8223   20.2979 C   0  0  0  0  0  0  0  0  0  0  0  0
  -21.5352  -28.3078   20.5693 C   0  0  0  0  0  0  0  0  0  0  0  0
  -26.3864  -13.7226   20.1567 C   0  0  0  0  0  0  0  0  0  0  0  0
  -24.3335  -12.0109   20.9554 C   0  0  0  0  0  0  0  0  0  0  0  0
  -26.2522  -13.3740   21.5006 C   0  0  0  0  0  0  0  0  0  0  0  0
  -21.0281  -21.9869   25.3325 C   0  0  0  0  0  0  0  0  0  0  0  0
  -20.6612  -24.7404   25.0749 C   0  0  0  0  0  0  0  0  0  0  0  0
  -27.5164  -19.7061   21.9732 C   0  0  0  0  0  0  0  0  0  0  0  0
  -27.6615  -21.8793   22.2754 C   0  0  0  0  0  0  0  0  0  0  0  0
  -27.9672  -21.1610   19.9008 C   0  0  0  0  0  0  0  0  0  0  0  0
  -26.9072  -28.8310   21.1451 C   0  0  0  0  0  0  0  0  0  0  0  0
  -26.3636  -31.6162   22.7167 C   0  0  0  0  0  0  0  0  0  0  0  0
  -24.1006  -33.8631   23.9319 C   0  0  0  0  0  0  0  0  0  0  0  0
  -24.9692  -22.0587   27.6206 C   0  0  0  0  0  0  0  0  0  0  0  0
  -30.8308  -26.5740   18.7853 C   0  0  0  0  0  0  0  0  0  0  0  0
  -25.3532  -30.0137   19.5506 C   0  0  0  0  0  0  0  0  0  0  0  0
  -24.3632  -30.1269   22.3348 C   0  0  0  0  0  0  0  0  0  0  0  0
  -30.6741  -27.6131   19.8926 C   0  0  0  0  0  0  0  0  0  0  0  0
  -28.4375  -22.5095   26.9543 C   0  0  0  0  0  0  0  0  0  0  0  0
  -29.6735  -27.1318   20.9385 C   0  0  0  0  0  0  0  0  0  0  0  0
  -28.6140  -21.9518   25.5409 C   0  0  0  0  0  0  0  0  0  0  0  0
  -27.4171  -21.7040   27.7555 C   0  0  0  0  0  0  0  0  0  0  0  0
  -26.2804  -20.9868   25.6898 C   0  0  0  0  0  0  0  0  0  0  0  0
  -28.2844  -26.9297   20.3211 C   0  0  1  0  0  0  0  0  0  0  0  0
  -26.3041  -30.1451   20.7363 C   0  0  1  0  0  0  0  0  0  0  0  0
  -27.2585  -21.8000   24.8247 C   0  0  2  0  0  0  0  0  0  0  0  0
  -23.9560  -36.0218   25.2033 C   0  0  0  0  0  0  0  0  0  0  0  0
  -26.9757  -30.1277   25.3089 C   0  0  0  0  0  0  0  0  0  0  0  0
  -25.9118  -32.0157   26.5626 C   0  0  0  0  0  0  0  0  0  0  0  0
  -27.9428  -32.4301   25.1748 C   0  0  0  0  0  0  0  0  0  0  0  0
  -22.7745  -35.2395   21.6723 C   0  0  0  0  0  0  0  0  0  0  0  0
  -22.5229  -22.3610   27.3310 C   0  0  0  0  0  0  0  0  0  0  0  0
  -19.1631  -24.3696   23.0727 C   0  0  0  0  0  0  0  0  0  0  0  0
  -19.0550  -25.7331   20.9828 C   0  0  0  0  0  0  0  0  0  0  0  0
  -19.8830  -26.6590   20.1137 C   0  0  0  0  0  0  0  0  0  1  0  0
  -25.7293  -31.9946   24.0333 C   0  0  1  0  0  0  0  0  0  0  0  0
  -24.0280  -35.3759   23.8284 C   0  0  2  0  0  0  0  0  0  0  0  0
  -26.6254  -31.6279   25.2499 C   0  0  0  0  0  0  0  0  0  0  0  0
  -27.3276  -19.8749   23.2847 N   0  0  0  0  0  0  0  0  0  0  0  0
  -27.4217  -21.2067   23.4375 N   0  0  0  0  0  0  0  0  0  0  0  0
  -25.6536  -30.7040   21.9232 N   0  0  0  0  0  0  0  0  0  0  0  0
  -26.1536  -21.5988   27.0218 N   0  0  0  0  0  0  0  0  0  0  0  0
  -27.7841  -23.2234   22.2491 N   0  0  0  0  0  0  0  0  0  0  0  0
  -28.0054  -20.0632   19.0304 N   0  0  0  0  0  0  0  0  0  0  0  0
  -27.6207  -28.2032   20.1420 N   0  0  0  0  0  0  0  0  0  0  0  0
  -25.4041  -33.4135   23.9368 N   0  0  0  0  0  0  0  0  0  0  0  0
  -23.8175  -21.9276   26.8543 N   0  0  0  0  0  0  0  0  0  0  0  0
  -22.8226  -35.7848   23.0533 N   0  3  0  0  0  0  0  0  0  0  0  0
  -19.8791  -25.2672   22.1264 N   0  3  0  0  0  0  0  0  0  0  0  0
  -28.1570  -22.3137   19.4437 O   0  0  0  0  0  0  0  0  0  0  0  0
  -26.7390  -28.4181   22.2865 O   0  0  0  0  0  0  0  0  0  0  0  0
  -27.4457  -32.1171   22.4006 O   0  0  0  0  0  0  0  0  0  0  0  0
  -23.1010  -33.1517   24.0051 O   0  0  0  0  0  0  0  0  0  0  0  0
  -24.9410  -22.5547   28.7520 O   0  0  0  0  0  0  0  0  0  0  0  0
  -27.4045  -14.5729   19.7588 O   0  0  0  0  0  0  0  0  0  0  0  0
  -20.3254  -27.7726   20.8886 O   0  0  0  0  0  0  0  0  0  1  0  0
  -23.3468  -11.1901   21.3389 F   0  0  0  0  0  0  0  0  0  0  0  0
  -27.1056  -13.8591   22.4128 F   0  0  0  0  0  0  0  0  0  0  0  0
  -21.2333  -20.2780   25.4606 Cl  0  0  0  0  0  0  0  0  0  0  0  0
  -20.4573  -26.4496   24.9463 Cl  0  0  0  0  0  0  0  0  0  0  0  0
  1  2  1  0  0  0  0
  1  5  2  0  0  0  0
  2  6  2  0  0  0  0
  3  8  2  0  0  0  0
  3 17  1  0  0  0  0
  4  9  1  0  0  0  0
  4 17  2  0  0  0  0
  5 19  1  0  0  0  0
  6 21  1  0  0  0  0
  7 10  2  0  0  0  0
  7 20  1  0  0  0  0
  8 25  1  0  0  0  0
  9 25  2  0  0  0  0
 10 26  1  0  0  0  0
 11 12  2  0  0  0  0
 11 27  1  0  0  0  0
 12 28  1  0  0  0  0
 13 22  1  0  0  0  0
 13 26  2  0  0  0  0
 14 23  2  0  0  0  0
 14 31  1  0  0  0  0
 15 24  1  0  0  0  0
 15 30  2  0  0  0  0
 16 28  2  0  0  0  0
 16 29  1  0  0  0  0
 17 32  1  0  0  0  0
 18 32  1  0  0  0  0
 18 33  2  0  0  0  0
 18 34  1  0  0  0  0
 19 21  2  0  0  0  0
 19 39  1  0  0  0  0
 20 22  2  0  0  0  0
 20 40  1  0  0  0  0
 21 48  1  0  0  0  0
 22 41  1  0  0  0  0
 23 30  1  0  0  0  0
 23 56  1  0  0  0  0
 24 31  2  0  0  0  0
 24 57  1  0  0  0  0
 25 79  1  0  0  0  0
 26 80  1  0  0  0  0
 27 29  2  0  0  0  0
 27 79  1  0  0  0  0
 28 81  1  0  0  0  0
 29 82  1  0  0  0  0
 30 83  1  0  0  0  0
 31 84  1  0  0  0  0
 32 63  2  0  0  0  0
 33 64  1  0  0  0  0
 33 67  1  0  0  0  0
 34 68  1  0  0  0  0
 34 74  2  0  0  0  0
 35 49  1  0  0  0  0
 35 69  1  0  0  0  0
 35 75  2  0  0  0  0
 36 60  1  0  0  0  0
 36 65  1  0  0  0  0
 36 76  2  0  0  0  0
 37 61  1  0  0  0  0
 37 70  1  0  0  0  0
 37 77  2  0  0  0  0
 38 66  1  0  0  0  0
 38 71  1  0  0  0  0
 38 78  2  0  0  0  0
 39 42  1  0  0  0  0
 40 49  1  0  0  0  0
 41 65  1  0  0  0  0
 42 44  1  0  0  0  0
 43 45  1  0  0  0  0
 43 46  1  0  0  0  0
 44 48  1  0  0  0  0
 45 50  1  0  0  0  0
 46 66  1  0  0  0  0
 47 50  1  0  0  0  0
 47 66  1  0  0  0  0
 48 69  1  0  0  0  0
 49 65  1  0  0  0  0
 50 64  1  0  0  0  0
 51 61  1  0  0  0  0
 52 62  1  0  0  0  0
 53 62  1  0  0  0  0
 54 62  1  0  0  0  0
 55 72  1  0  0  0  0
 56 71  1  0  0  0  0
 57 73  1  0  0  0  0
 58 59  1  0  0  0  0
 58 73  1  0  0  0  0
 59 80  1  0  0  0  0
 60 62  1  0  0  0  0
 60 70  1  0  0  0  0
 61 72  1  0  0  0  0
 63 64  1  0  0  0  0
M  CHG  2  72   1  73   1
M  ISO  4  38 100  59 101  71 100  80 101
M  END
> <Batch ID>
0040

> <Smiles>
CNC(C)C(=O)NC(C(=O)N1Cc2cc([101O:1][101CH2:1]CNCc3cc(Cl)c(C[100NH:0][100C:0](=O)N4CCCC(n5nc(-c6ccc(Oc7ccc(F)cc7F)cc6)c(C(N)=O)c5N)C4)cc3Cl)ccc2CC1C(=O)NC1CCCc2ccccc21)C(C)(C)C

> <Shape>
0.270

> <Color>
0.077

> <Negative vol penalty>
0.000

$$$$

  -OEChem-04042322063D

 87 96  0     1  0  0  0  0  0999 V2000
  -28.0316  -24.1269   16.6670 C   0  0  0  0  0  0  0  0  0  0  0  0
  -26.8335  -24.3822   17.3264 C   0  0  0  0  0  0  0  0  0  0  0  0
  -27.6661  -15.8210   21.2457 C   0  0  0  0  0  0  0  0  0  0  0  0
  -25.7634  -16.1203   19.7872 C   0  0  0  0  0  0  0  0  0  0  0  0
  -29.2359  -24.5628   17.2180 C   0  0  0  0  0  0  0  0  0  0  0  0
  -26.8392  -25.0727   18.5379 C   0  0  0  0  0  0  0  0  0  0  0  0
  -23.2503  -28.6387   18.7584 C   0  0  0  0  0  0  0  0  0  0  0  0
  -27.3688  -14.4626   21.3548 C   0  0  0  0  0  0  0  0  0  0  0  0
  -25.4661  -14.7619   19.8963 C   0  0  0  0  0  0  0  0  0  0  0  0
  -21.9468  -28.2152   19.0141 C   0  0  0  0  0  0  0  0  0  0  0  0
  -23.9950  -11.4433   20.0781 C   0  0  0  0  0  0  0  0  0  0  0  0
  -22.6638  -11.0862   20.2925 C   0  0  0  0  0  0  0  0  0  0  0  0
  -22.2005  -28.8508   21.3273 C   0  0  0  0  0  0  0  0  0  0  0  0
  -20.9020  -22.5304   15.8065 C   0  0  0  0  0  0  0  0  0  0  0  0
  -20.8875  -23.7248   18.3276 C   0  0  0  0  0  0  0  0  0  0  0  0
  -22.6569  -12.3487   22.3524 C   0  0  0  0  0  0  0  0  0  0  0  0
  -26.8634  -16.6499   20.4620 C   0  0  0  0  0  0  0  0  0  0  0  0
  -28.3543  -18.6275   19.8507 C   0  0  0  0  0  0  0  0  0  0  0  0
  -29.2554  -25.2674   18.4320 C   0  0  0  0  0  0  0  0  0  0  0  0
  -24.0438  -29.1621   19.7893 C   0  0  0  0  0  0  0  0  0  0  0  0
  -28.0450  -25.5172   19.1063 C   0  0  0  0  0  0  0  0  0  0  0  0
  -23.5129  -29.2825   21.0815 C   0  0  0  0  0  0  0  0  0  0  0  0
  -19.7987  -23.2783   16.2175 C   0  0  0  0  0  0  0  0  0  0  0  0
  -21.9980  -22.3796   16.6560 C   0  0  0  0  0  0  0  0  0  0  0  0
  -19.7915  -23.8755   17.4780 C   0  0  0  0  0  0  0  0  0  0  0  0
  -21.9908  -22.9768   17.9165 C   0  0  0  0  0  0  0  0  0  0  0  0
  -26.2688  -13.9330   20.6801 C   0  0  0  0  0  0  0  0  0  0  0  0
  -21.4227  -28.3185   20.2993 C   0  0  0  0  0  0  0  0  0  0  0  0
  -24.6572  -12.2531   21.0009 C   0  0  0  0  0  0  0  0  0  0  0  0
  -21.9948  -11.5389   21.4296 C   0  0  0  0  0  0  0  0  0  0  0  0
  -23.9881  -12.7058   22.1380 C   0  0  0  0  0  0  0  0  0  0  0  0
  -27.1696  -18.0533   20.3493 C   0  0  0  0  0  0  0  0  0  0  0  0
  -28.1500  -19.9817   19.9554 C   0  0  0  0  0  0  0  0  0  0  0  0
  -17.5886  -25.7202   19.8873 C   0  0  0  0  0  0  0  0  0  0  0  0
  -18.0565  -26.9724   19.9367 C   0  0  0  0  0  0  0  0  0  0  0  0
  -29.5339  -17.9936   19.3386 C   0  0  0  0  0  0  0  0  0  0  0  0
  -26.7815  -28.3142   21.1639 C   0  0  0  0  0  0  0  0  0  0  0  0
  -26.4300  -31.1433   22.7114 C   0  0  0  0  0  0  0  0  0  0  0  0
  -24.3361  -33.6044   23.8094 C   0  0  0  0  0  0  0  0  0  0  0  0
  -23.2300  -23.3706   20.0742 C   0  0  0  0  0  0  0  0  0  0  0  0
  -30.5859  -25.6772   19.0122 C   0  0  0  0  0  0  0  0  0  0  0  0
  -25.4388  -29.6393   19.4914 C   0  0  0  0  0  0  0  0  0  0  0  0
  -24.3166  -29.8563   22.2187 C   0  0  0  0  0  0  0  0  0  0  0  0
  -16.2408  -25.2717   20.3599 C   0  0  0  0  0  0  0  0  0  0  0  0
  -30.4726  -26.7295   20.1122 C   0  0  0  0  0  0  0  0  0  0  0  0
  -16.2226  -23.8201   19.9064 C   0  0  0  0  0  0  0  0  0  0  0  0
  -25.7723  -23.2197   22.5624 C   0  0  0  0  0  0  0  0  0  0  0  0
  -29.3749  -26.3515   21.1016 C   0  0  0  0  0  0  0  0  0  0  0  0
  -26.5307  -21.9331   22.2282 C   0  0  0  0  0  0  0  0  0  0  0  0
  -24.2724  -23.0755   22.3106 C   0  0  0  0  0  0  0  0  0  0  0  0
  -24.6695  -21.3140   20.6346 C   0  0  0  0  0  0  0  0  0  0  0  0
  -17.6855  -23.4051   19.9094 C   0  0  0  0  0  0  0  0  0  0  0  0
  -28.0079  -26.2848   20.4100 C   0  0  1  0  0  0  0  0  0  0  0  0
  -26.3329  -29.6800   20.7268 C   0  0  1  0  0  0  0  0  0  0  0  0
  -26.1923  -21.4314   20.8107 C   0  0  2  0  0  0  0  0  0  0  0  0
  -18.6366  -23.4255   15.2911 C   0  0  0  0  0  0  0  0  0  0  0  0
  -23.1663  -21.5730   16.1896 C   0  0  0  0  0  0  0  0  0  0  0  0
  -24.3358  -35.7703   25.0769 C   0  0  0  0  0  0  0  0  0  0  0  0
  -26.7531  -29.6088   25.3288 C   0  0  0  0  0  0  0  0  0  0  0  0
  -25.8137  -31.5953   26.5286 C   0  0  0  0  0  0  0  0  0  0  0  0
  -27.9471  -31.8049   25.2529 C   0  0  0  0  0  0  0  0  0  0  0  0
  -23.2745  -35.0982   21.4855 C   0  0  0  0  0  0  0  0  0  0  0  0
  -18.6160  -24.6843   17.9418 C   0  0  0  0  0  0  0  0  0  0  0  0
  -19.4098  -27.3760   19.4531 C   0  0  0  0  0  0  0  0  0  1  0  0
  -25.7660  -31.5855   23.9931 C   0  0  1  0  0  0  0  0  0  0  0  0
  -24.4178  -35.1168   23.7061 C   0  0  2  0  0  0  0  0  0  0  0  0
  -26.5552  -31.1360   25.2551 C   0  0  0  0  0  0  0  0  0  0  0  0
  -26.2788  -18.9679   20.7417 N   0  0  0  0  0  0  0  0  0  0  0  0
  -26.9040  -20.1305   20.4898 N   0  0  0  0  0  0  0  0  0  0  0  0
  -25.6776  -30.3031   21.8785 N   0  0  0  0  0  0  0  0  0  0  0  0
  -24.0279  -22.6008   20.9469 N   0  0  0  0  0  0  0  0  0  0  0  0
  -28.9164  -21.0478   19.6415 N   0  0  0  0  0  0  0  0  0  0  0  0
  -29.5997  -17.7127   17.9671 N   0  0  0  0  0  0  0  0  0  0  0  0
  -23.0946  -22.8354   18.7937 N   0  0  0  0  0  0  0  0  0  0  0  0
  -27.4828  -27.6168   20.1989 N   0  0  0  0  0  0  0  0  0  0  0  0
  -25.5871  -33.0292   23.8831 N   0  0  0  0  0  0  0  0  0  0  0  0
  -18.4240  -24.6430   19.4312 N   0  3  1  0  0  0  0  0  0  0  0  0
  -23.3016  -35.6398   22.8686 N   0  3  0  0  0  0  0  0  0  0  0  0
  -30.4942  -17.6703   20.0782 O   0  0  0  0  0  0  0  0  0  0  0  0
  -26.5126  -27.9227   22.2935 O   0  0  0  0  0  0  0  0  0  0  0  0
  -27.5713  -31.5349   22.4552 O   0  0  0  0  0  0  0  0  0  0  0  0
  -23.2692  -32.9946   23.8270 O   0  0  0  0  0  0  0  0  0  0  0  0
  -22.7278  -24.4405   20.4280 O   0  0  0  0  0  0  0  0  0  0  0  0
  -25.9786  -12.6075   20.7862 O   0  0  0  0  0  0  0  0  0  0  0  0
  -20.1509  -27.9054   20.5517 O   0  0  0  0  0  0  0  0  0  1  0  0
  -20.7160  -11.1971   21.6346 F   0  0  0  0  0  0  0  0  0  0  0  0
  -24.6187  -13.4850   23.0274 F   0  0  0  0  0  0  0  0  0  0  0  0
  1  2  1  0  0  0  0
  1  5  2  0  0  0  0
  2  6  2  0  0  0  0
  3  8  2  0  0  0  0
  3 17  1  0  0  0  0
  4  9  1  0  0  0  0
  4 17  2  0  0  0  0
  5 19  1  0  0  0  0
  6 21  1  0  0  0  0
  7 10  2  0  0  0  0
  7 20  1  0  0  0  0
  8 27  1  0  0  0  0
  9 27  2  0  0  0  0
 10 28  1  0  0  0  0
 11 12  2  0  0  0  0
 11 29  1  0  0  0  0
 12 30  1  0  0  0  0
 13 22  1  0  0  0  0
 13 28  2  0  0  0  0
 14 23  1  0  0  0  0
 14 24  2  0  0  0  0
 15 25  1  0  0  0  0
 15 26  2  0  0  0  0
 16 30  2  0  0  0  0
 16 31  1  0  0  0  0
 17 32  1  0  0  0  0
 18 32  1  0  0  0  0
 18 33  2  0  0  0  0
 18 36  1  0  0  0  0
 19 21  2  0  0  0  0
 19 41  1  0  0  0  0
 20 22  2  0  0  0  0
 20 42  1  0  0  0  0
 21 53  1  0  0  0  0
 22 43  1  0  0  0  0
 23 25  2  0  0  0  0
 23 56  1  0  0  0  0
 24 26  1  0  0  0  0
 24 57  1  0  0  0  0
 25 63  1  0  0  0  0
 26 74  1  0  0  0  0
 27 84  1  0  0  0  0
 28 85  1  0  0  0  0
 29 31  2  0  0  0  0
 29 84  1  0  0  0  0
 30 86  1  0  0  0  0
 31 87  1  0  0  0  0
 32 68  2  0  0  0  0
 33 69  1  0  0  0  0
 33 72  1  0  0  0  0
 34 35  2  0  0  0  0
 34 44  1  0  0  0  0
 34 77  1  0  0  0  0
 35 64  1  0  0  0  0
 36 73  1  0  0  0  0
 36 79  2  0  0  0  0
 37 54  1  0  0  0  0
 37 75  1  0  0  0  0
 37 80  2  0  0  0  0
 38 65  1  0  0  0  0
 38 70  1  0  0  0  0
 38 81  2  0  0  0  0
 39 66  1  0  0  0  0
 39 76  1  0  0  0  0
 39 82  2  0  0  0  0
 40 71  1  0  0  0  0
 40 74  1  0  0  0  0
 40 83  2  0  0  0  0
 41 45  1  0  0  0  0
 42 54  1  0  0  0  0
 43 70  1  0  0  0  0
 44 46  1  0  0  0  0
 45 48  1  0  0  0  0
 46 52  1  0  0  0  0
 47 49  1  0  0  0  0
 47 50  1  0  0  0  0
 48 53  1  0  0  0  0
 49 55  1  0  0  0  0
 50 71  1  0  0  0  0
 51 55  1  0  0  0  0
 51 71  1  0  0  0  0
 52 77  1  0  0  0  0
 53 75  1  0  0  0  0
 54 70  1  0  0  0  0
 55 69  1  0  0  0  0
 58 66  1  0  0  0  0
 59 67  1  0  0  0  0
 60 67  1  0  0  0  0
 61 67  1  0  0  0  0
 62 78  1  0  0  0  0
 63 77  1  0  0  0  0
 64 85  1  0  0  0  0
 65 67  1  0  0  0  0
 65 76  1  0  0  0  0
 66 78  1  0  0  0  0
 68 69  1  0  0  0  0
M  CHG  2  77   1  78   1
M  ISO  4  40 100  64 101  74 100  85 101
M  END
> <Batch ID>
0040

> <Smiles>
CNC(C)C(=O)NC(C(=O)N1Cc2cc([101O:1][101CH2:1]C=C3CCCN3Cc3cc([100NH:0][100C:0](=O)N4CCCC(n5nc(-c6ccc(Oc7ccc(F)cc7F)cc6)c(C(N)=O)c5N)C4)c(C)cc3C)ccc2CC1C(=O)NC1CCCc2ccccc21)C(C)(C)C

> <Shape>
0.278

> <Color>
0.083

> <Negative vol penalty>
0.000

$$$$

  -OEChem-04042322063D

 91100  0     1  0  0  0  0  0999 V2000
  -28.2131  -31.6156   27.4208 C   0  0  0  0  0  0  0  0  0  0  0  0
  -28.2640  -30.6068   26.4642 C   0  0  0  0  0  0  0  0  0  0  0  0
  -22.6463  -10.5441   20.6610 C   0  0  0  0  0  0  0  0  0  0  0  0
  -24.3806   -9.5787   22.0384 C   0  0  0  0  0  0  0  0  0  0  0  0
  -26.9843  -32.1547   27.7991 C   0  0  0  0  0  0  0  0  0  0  0  0
  -27.0857  -30.1357   25.8861 C   0  0  0  0  0  0  0  0  0  0  0  0
  -27.4616  -29.6086   20.8635 C   0  0  0  0  0  0  0  0  0  0  0  0
  -21.7059   -9.7025   21.2551 C   0  0  0  0  0  0  0  0  0  0  0  0
  -23.4402   -8.7372   22.6327 C   0  0  0  0  0  0  0  0  0  0  0  0
  -28.1352  -28.4835   20.3900 C   0  0  0  0  0  0  0  0  0  0  0  0
  -21.8291   -5.8657   21.8644 C   0  0  0  0  0  0  0  0  0  0  0  0
  -22.1702   -4.5226   22.0233 C   0  0  0  0  0  0  0  0  0  0  0  0
  -26.0205  -27.3999   19.9740 C   0  0  0  0  0  0  0  0  0  0  0  0
  -26.8431  -19.7184   16.2685 C   0  0  0  0  0  0  0  0  0  0  0  0
  -27.8275  -19.8937   18.8730 C   0  0  0  0  0  0  0  0  0  0  0  0
  -21.9022   -4.7376   24.4148 C   0  0  0  0  0  0  0  0  0  0  0  0
  -23.9837  -10.4821   21.0526 C   0  0  0  0  0  0  0  0  0  0  0  0
  -25.2954  -11.4166   19.0742 C   0  0  0  0  0  0  0  0  0  0  0  0
  -25.7911  -31.6967   27.2183 C   0  0  0  0  0  0  0  0  0  0  0  0
  -26.0602  -29.6336   20.9061 C   0  0  0  0  0  0  0  0  0  0  0  0
  -25.8396  -30.6682   26.2579 C   0  0  0  0  0  0  0  0  0  0  0  0
  -25.3315  -28.5275   20.4461 C   0  0  0  0  0  0  0  0  0  0  0  0
  -27.1404  -20.9650   16.8193 C   0  0  0  0  0  0  0  0  0  0  0  0
  -27.0379  -18.5595   17.0200 C   0  0  0  0  0  0  0  0  0  0  0  0
  -27.6326  -21.0526   18.1215 C   0  0  0  0  0  0  0  0  0  0  0  0
  -27.5301  -18.6471   18.3221 C   0  0  0  0  0  0  0  0  0  0  0  0
  -22.1028   -8.7991   22.2410 C   0  0  0  0  0  0  0  0  0  0  0  0
  -27.4148  -27.3778   19.9479 C   0  0  0  0  0  0  0  0  0  0  0  0
  -21.5246   -6.6448   22.9806 C   0  0  0  0  0  0  0  0  0  0  0  0
  -22.2067   -3.9585   23.2985 C   0  0  0  0  0  0  0  0  0  0  0  0
  -21.5612   -6.0807   24.2558 C   0  0  0  0  0  0  0  0  0  0  0  0
  -24.9557  -11.3508   20.4388 C   0  0  0  0  0  0  0  0  0  0  0  0
  -26.2605  -12.3915   19.0072 C   0  0  0  0  0  0  0  0  0  0  0  0
  -29.6310  -23.7884   19.7737 C   0  0  0  0  0  0  0  0  0  0  0  0
  -29.4715  -23.8161   21.1100 C   0  0  0  0  0  0  0  0  0  0  0  0
  -24.7841  -10.6638   17.9662 C   0  0  0  0  0  0  0  0  0  0  0  0
  -23.8905  -29.9039   23.2133 C   0  0  0  0  0  0  0  0  0  0  0  0
  -21.8207  -30.0204   20.7184 C   0  0  0  0  0  0  0  0  0  0  0  0
  -21.1665  -29.2517   17.4583 C   0  0  0  0  0  0  0  0  0  0  0  0
  -28.2174  -17.4126   20.4078 C   0  0  0  0  0  0  0  0  0  0  0  0
  -24.4828  -32.2771   27.6938 C   0  0  0  0  0  0  0  0  0  0  0  0
  -25.3481  -30.8651   21.3947 C   0  0  0  0  0  0  0  0  0  0  0  0
  -23.8254  -28.5119   20.4520 C   0  0  0  0  0  0  0  0  0  0  0  0
  -23.3111  -31.9831   26.7605 C   0  0  0  0  0  0  0  0  0  0  0  0
  -32.1964  -23.9631   17.9701 C   0  0  0  0  0  0  0  0  0  0  0  0
  -28.8289  -14.7418   22.6816 C   0  0  0  0  0  0  0  0  0  0  0  0
  -31.7991  -22.5282   18.3197 C   0  0  0  0  0  0  0  0  0  0  0  0
  -23.3074  -30.5126   26.3552 C   0  0  0  0  0  0  0  0  0  0  0  0
  -31.5722  -25.0586   18.8364 C   0  0  0  0  0  0  0  0  0  0  0  0
  -27.9037  -13.6269   22.1885 C   0  0  0  0  0  0  0  0  0  0  0  0
  -28.1873  -16.1199   22.5298 C   0  0  0  0  0  0  0  0  0  0  0  0
  -26.7609  -15.3117   20.6910 C   0  0  0  0  0  0  0  0  0  0  0  0
  -30.3408  -22.2149   17.9932 C   0  0  0  0  0  0  0  0  0  0  0  0
  -24.5853  -30.1480   25.5900 C   0  0  1  0  0  0  0  0  0  0  0  0
  -30.0393  -24.9938   18.9438 C   0  0  2  0  0  0  0  0  0  0  0  0
  -23.9273  -30.5834   21.8737 C   0  0  1  0  0  0  0  0  0  0  0  0
  -27.3893  -13.9104   20.7635 C   0  0  2  0  0  0  0  0  0  0  0  0
  -26.9234  -22.1920   15.9960 C   0  0  0  0  0  0  0  0  0  0  0  0
  -26.7111  -17.2376   16.4045 C   0  0  0  0  0  0  0  0  0  0  0  0
  -28.9737  -22.9758   23.3999 C   0  0  0  0  0  0  0  0  0  0  0  0
  -19.3757  -29.4416   15.7107 C   0  0  0  0  0  0  0  0  0  0  0  0
  -20.2852  -27.7435   22.0479 C   0  0  0  0  0  0  0  0  0  0  0  0
  -19.1193  -27.3496   19.8676 C   0  0  0  0  0  0  0  0  0  0  0  0
  -18.8464  -29.5291   21.0500 C   0  0  0  0  0  0  0  0  0  0  0  0
  -22.8950  -30.8874   15.6989 C   0  0  0  0  0  0  0  0  0  0  0  0
  -27.9592  -22.3822   18.7350 C   0  0  0  0  0  0  0  0  0  0  0  0
  -29.0698  -22.6280   21.9227 C   0  0  0  0  0  0  0  0  0  0  0  0
  -29.4960  -26.3255   19.4821 C   0  0  0  0  0  0  0  0  0  1  0  0
  -21.0462  -28.9973   19.9231 C   0  0  1  0  0  0  0  0  0  0  0  0
  -20.6117  -30.0865   16.3183 C   0  0  2  0  0  0  0  0  0  0  0  0
  -19.8527  -28.4041   20.7238 C   0  0  0  0  0  0  0  0  0  0  0  0
  -25.6488  -12.2150   21.1849 N   0  0  0  0  0  0  0  0  0  0  0  0
  -26.4338  -12.8329   20.2860 N   0  0  0  0  0  0  0  0  0  0  0  0
  -23.1751  -29.7373   20.9449 N   0  0  0  0  0  0  0  0  0  0  0  0
  -27.7279  -16.3195   21.1536 N   0  0  0  0  0  0  0  0  0  0  0  0
  -26.9695  -12.9055   17.9798 N   0  0  0  0  0  0  0  0  0  0  0  0
  -25.4184   -9.4611   17.6261 N   0  0  0  0  0  0  0  0  0  0  0  0
  -27.7350  -17.4815   19.1012 N   0  0  0  0  0  0  0  0  0  0  0  0
  -24.5072  -30.6174   24.2232 N   0  0  0  0  0  0  0  0  0  0  0  0
  -20.6631  -29.6532   18.6776 N   0  0  0  0  0  0  0  0  0  0  0  0
  -29.4055  -22.5055   19.1427 N   0  3  2  0  0  0  0  0  0  0  0  0
  -21.6347  -30.2443   15.2462 N   0  3  0  0  0  0  0  0  0  0  0  0
  -23.8042  -11.0545   17.2874 O   0  0  0  0  0  0  0  0  0  0  0  0
  -23.3418  -28.8136   23.3229 O   0  0  0  0  0  0  0  0  0  0  0  0
  -21.2470  -31.0368   21.1175 O   0  0  0  0  0  0  0  0  0  0  0  0
  -21.9638  -28.3326   17.2842 O   0  0  0  0  0  0  0  0  0  0  0  0
  -29.0275  -18.2122   20.8837 O   0  0  0  0  0  0  0  0  0  0  0  0
  -21.1854   -7.9779   22.8211 O   0  0  0  0  0  0  0  0  0  0  0  0
  -28.0698  -26.2781   19.4859 O   0  0  0  0  0  0  0  0  0  1  0  0
  -22.5328   -2.6683   23.4508 F   0  0  0  0  0  0  0  0  0  0  0  0
  -21.2685   -6.8239   25.3319 F   0  0  0  0  0  0  0  0  0  0  0  0
  1  2  1  0  0  0  0
  1  5  2  0  0  0  0
  2  6  2  0  0  0  0
  3  8  2  0  0  0  0
  3 17  1  0  0  0  0
  4  9  1  0  0  0  0
  4 17  2  0  0  0  0
  5 19  1  0  0  0  0
  6 21  1  0  0  0  0
  7 10  2  0  0  0  0
  7 20  1  0  0  0  0
  8 27  1  0  0  0  0
  9 27  2  0  0  0  0
 10 28  1  0  0  0  0
 11 12  2  0  0  0  0
 11 29  1  0  0  0  0
 12 30  1  0  0  0  0
 13 22  1  0  0  0  0
 13 28  2  0  0  0  0
 14 23  1  0  0  0  0
 14 24  2  0  0  0  0
 15 25  1  0  0  0  0
 15 26  2  0  0  0  0
 16 30  2  0  0  0  0
 16 31  1  0  0  0  0
 17 32  1  0  0  0  0
 18 32  1  0  0  0  0
 18 33  2  0  0  0  0
 18 36  1  0  0  0  0
 19 21  2  0  0  0  0
 19 41  1  0  0  0  0
 20 22  2  0  0  0  0
 20 42  1  0  0  0  0
 21 54  1  0  0  0  0
 22 43  1  0  0  0  0
 23 25  2  0  0  0  0
 23 58  1  0  0  0  0
 24 26  1  0  0  0  0
 24 59  1  0  0  0  0
 25 66  1  0  0  0  0
 26 78  1  0  0  0  0
 27 88  1  0  0  0  0
 28 89  1  0  0  0  0
 29 31  2  0  0  0  0
 29 88  1  0  0  0  0
 30 90  1  0  0  0  0
 31 91  1  0  0  0  0
 32 72  2  0  0  0  0
 33 73  1  0  0  0  0
 33 76  1  0  0  0  0
 34 35  2  0  0  0  0
 34 55  1  0  0  0  0
 34 81  1  0  0  0  0
 35 67  1  0  0  0  0
 36 77  1  0  0  0  0
 36 83  2  0  0  0  0
 37 56  1  0  0  0  0
 37 79  1  0  0  0  0
 37 84  2  0  0  0  0
 38 69  1  0  0  0  0
 38 74  1  0  0  0  0
 38 85  2  0  0  0  0
 39 70  1  0  0  0  0
 39 80  1  0  0  0  0
 39 86  2  0  0  0  0
 40 75  1  0  0  0  0
 40 78  1  0  0  0  0
 40 87  2  0  0  0  0
 41 44  1  0  0  0  0
 42 56  1  0  0  0  0
 43 74  1  0  0  0  0
 44 48  1  0  0  0  0
 45 47  1  0  0  0  0
 45 49  1  0  0  0  0
 46 50  1  0  0  0  0
 46 51  1  0  0  0  0
 47 53  1  0  0  0  0
 48 54  1  0  0  0  0
 49 55  1  0  0  0  0
 50 57  1  0  0  0  0
 51 75  1  0  0  0  0
 52 57  1  0  0  0  0
 52 75  1  0  0  0  0
 53 81  1  0  0  0  0
 54 79  1  0  0  0  0
 55 68  1  0  0  0  0
 56 74  1  0  0  0  0
 57 73  1  0  0  0  0
 60 67  1  0  0  0  0
 61 70  1  0  0  0  0
 62 71  1  0  0  0  0
 63 71  1  0  0  0  0
 64 71  1  0  0  0  0
 65 82  1  0  0  0  0
 66 81  1  0  0  0  0
 68 89  1  0  0  0  0
 69 71  1  0  0  0  0
 69 80  1  0  0  0  0
 70 82  1  0  0  0  0
 72 73  1  0  0  0  0
M  CHG  2  81   1  82   1
M  ISO  4  40 100  68 101  78 100  89 101
M  END
> <Batch ID>
0040

> <Smiles>
CCC=C1C([101CH2:1][101O:1]c2ccc3c(c2)CN(C(=O)C(NC(=O)C(C)NC)C(C)(C)C)C(C(=O)NC2CCCc4ccccc42)C3)CCCCN1Cc1cc([100NH:0][100C:0](=O)N2CCCC(n3nc(-c4ccc(Oc5ccc(F)cc5F)cc4)c(C(N)=O)c3N)C2)c(C)cc1C

> <Shape>
0.329

> <Color>
0.099

> <Negative vol penalty>
0.000

$$$$

  -OEChem-04042322063D

 84 92  0     1  0  0  0  0  0999 V2000
  -26.6794  -28.9414   18.1788 C   0  0  0  0  0  0  0  0  0  0  0  0
  -26.7240  -27.6762   18.7555 C   0  0  0  0  0  0  0  0  0  0  0  0
  -31.1022  -21.8214   20.3583 C   0  0  0  0  0  0  0  0  0  0  0  0
  -28.9960  -21.3906   19.2559 C   0  0  0  0  0  0  0  0  0  0  0  0
  -26.0603  -29.9925   18.8540 C   0  0  0  0  0  0  0  0  0  0  0  0
  -26.1506  -27.4616   20.0083 C   0  0  0  0  0  0  0  0  0  0  0  0
  -23.4019  -23.2120   20.1844 C   0  0  0  0  0  0  0  0  0  0  0  0
  -31.2794  -22.9614   19.5744 C   0  0  0  0  0  0  0  0  0  0  0  0
  -29.1732  -22.5307   18.4720 C   0  0  0  0  0  0  0  0  0  0  0  0
  -24.0963  -22.0090   20.3042 C   0  0  0  0  0  0  0  0  0  0  0  0
  -32.1139  -26.1846   18.1150 C   0  0  0  0  0  0  0  0  0  0  0  0
  -32.5459  -27.3483   18.7512 C   0  0  0  0  0  0  0  0  0  0  0  0
  -23.6196  -21.9763   22.6687 C   0  0  0  0  0  0  0  0  0  0  0  0
  -25.6682  -10.5150   21.0749 C   0  0  0  0  0  0  0  0  0  0  0  0
  -24.2641  -12.2073   20.0741 C   0  0  0  0  0  0  0  0  0  0  0  0
  -30.5791  -27.3116   20.1539 C   0  0  0  0  0  0  0  0  0  0  0  0
  -29.9605  -21.0359   20.1991 C   0  0  0  0  0  0  0  0  0  0  0  0
  -29.1382  -19.7773   22.2600 C   0  0  0  0  0  0  0  0  0  0  0  0
  -25.4705  -29.7885   20.1114 C   0  0  0  0  0  0  0  0  0  0  0  0
  -22.8194  -23.8127   21.3097 C   0  0  0  0  0  0  0  0  0  0  0  0
  -25.5242  -28.5112   20.7015 C   0  0  0  0  0  0  0  0  0  0  0  0
  -22.9161  -23.1856   22.5600 C   0  0  0  0  0  0  0  0  0  0  0  0
  -24.4196  -10.9295   20.6115 C   0  0  0  0  0  0  0  0  0  0  0  0
  -26.7613  -11.3784   21.0010 C   0  0  0  0  0  0  0  0  0  0  0  0
  -25.3572  -13.0706   20.0002 C   0  0  0  0  0  0  0  0  0  0  0  0
  -26.6058  -12.6562   20.4637 C   0  0  0  0  0  0  0  0  0  0  0  0
  -30.3149  -23.3161   18.6313 C   0  0  0  0  0  0  0  0  0  0  0  0
  -24.2078  -21.3925   21.5470 C   0  0  0  0  0  0  0  0  0  0  0  0
  -30.9145  -25.5843   18.4983 C   0  0  0  0  0  0  0  0  0  0  0  0
  -31.7785  -27.9118   19.7706 C   0  0  0  0  0  0  0  0  0  0  0  0
  -30.1471  -26.1478   19.5177 C   0  0  0  0  0  0  0  0  0  0  0  0
  -29.7772  -19.8579   21.0082 C   0  0  0  0  0  0  0  0  0  0  0  0
  -29.2272  -18.4512   22.6062 C   0  0  0  0  0  0  0  0  0  0  0  0
  -28.5195  -20.8090   23.0400 C   0  0  0  0  0  0  0  0  0  0  0  0
  -23.2178  -26.5708   22.8388 C   0  0  0  0  0  0  0  0  0  0  0  0
  -20.6555  -25.5476   24.5447 C   0  0  0  0  0  0  0  0  0  0  0  0
  -18.7616  -22.9273   25.6376 C   0  0  0  0  0  0  0  0  0  0  0  0
  -29.0582  -13.1861   20.2375 C   0  0  0  0  0  0  0  0  0  0  0  0
  -24.8542  -30.9662   20.8239 C   0  0  0  0  0  0  0  0  0  0  0  0
  -22.0508  -25.0969   21.1590 C   0  0  0  0  0  0  0  0  0  0  0  0
  -22.2915  -23.7791   23.7953 C   0  0  0  0  0  0  0  0  0  0  0  0
  -23.9417  -30.5686   21.9813 C   0  0  0  0  0  0  0  0  0  0  0  0
  -32.1286  -14.6812   21.2449 C   0  0  0  0  0  0  0  0  0  0  0  0
  -24.6125  -29.5096   22.8504 C   0  0  0  0  0  0  0  0  0  0  0  0
  -31.7744  -16.1610   21.4095 C   0  0  0  0  0  0  0  0  0  0  0  0
  -31.3835  -14.0468   20.0718 C   0  0  0  0  0  0  0  0  0  0  0  0
  -29.5720  -15.7063   20.2563 C   0  0  0  0  0  0  0  0  0  0  0  0
  -24.8917  -28.2331   22.0479 C   0  0  1  0  0  0  0  0  0  0  0  0
  -21.9368  -25.8815   22.4623 C   0  0  1  0  0  0  0  0  0  0  0  0
  -30.2487  -16.3724   21.4654 C   0  0  2  0  0  0  0  0  0  0  0  0
  -23.2509  -10.0067   20.6907 C   0  0  0  0  0  0  0  0  0  0  0  0
  -28.0863  -10.9059   21.5062 C   0  0  0  0  0  0  0  0  0  0  0  0
  -16.7535  -22.4012   27.0476 C   0  0  0  0  0  0  0  0  0  0  0  0
  -22.3093  -26.0072   27.0673 C   0  0  0  0  0  0  0  0  0  0  0  0
  -20.6576  -24.6050   28.3218 C   0  0  0  0  0  0  0  0  0  0  0  0
  -19.9210  -26.7286   27.2399 C   0  0  0  0  0  0  0  0  0  0  0  0
  -17.3193  -21.7358   23.3444 C   0  0  0  0  0  0  0  0  0  0  0  0
  -25.1587  -14.4385   19.4168 C   0  0  0  0  0  0  0  0  0  0  0  0
  -24.9721  -17.9100   21.0215 C   0  0  0  0  0  0  0  0  0  0  0  0
  -25.0030  -16.8845   19.8983 C   0  0  0  0  0  0  0  0  0  0  0  0
  -24.8877  -19.3511   20.5337 C   0  0  0  0  0  0  0  0  0  1  0  0
  -20.4636  -24.7253   25.7961 C   0  0  1  0  0  0  0  0  0  0  0  0
  -17.2601  -22.7042   25.6460 C   0  0  2  0  0  0  0  0  0  0  0  0
  -20.8514  -25.5061   27.0835 C   0  0  0  0  0  0  0  0  0  0  0  0
  -30.2382  -18.6769   20.5877 N   0  0  0  0  0  0  0  0  0  0  0  0
  -29.8887  -17.8418   21.5809 N   0  0  0  0  0  0  0  0  0  0  0  0
  -21.5557  -25.0389   23.5978 N   0  0  0  0  0  0  0  0  0  0  0  0
  -29.9435  -14.2840   20.1944 N   0  0  0  0  0  0  0  0  0  0  0  0
  -28.8036  -17.7586   23.6847 N   0  0  0  0  0  0  0  0  0  0  0  0
  -28.5166  -22.1168   22.5361 N   0  0  0  0  0  0  0  0  0  0  0  0
  -27.7161  -13.5333   20.3884 N   0  0  0  0  0  0  0  0  0  0  0  0
  -23.6780  -27.4613   21.8876 N   0  0  0  0  0  0  0  0  0  0  0  0
  -19.0804  -24.2621   25.7720 N   0  0  0  0  0  0  0  0  0  0  0  0
  -16.9013  -21.5614   24.7593 N   0  3  0  0  0  0  0  0  0  0  0  0
  -25.1340  -15.5141   20.4463 N   0  3  0  0  0  0  0  0  0  0  0  0
  -27.9994  -20.5809   24.1585 O   0  0  0  0  0  0  0  0  0  0  0  0
  -23.7484  -26.3149   23.9133 O   0  0  0  0  0  0  0  0  0  0  0  0
  -20.0244  -26.5988   24.4091 O   0  0  0  0  0  0  0  0  0  0  0  0
  -19.5709  -22.0090   25.5268 O   0  0  0  0  0  0  0  0  0  0  0  0
  -29.4637  -12.0227   20.1744 O   0  0  0  0  0  0  0  0  0  0  0  0
  -30.4874  -24.4286   17.8663 O   0  0  0  0  0  0  0  0  0  0  0  0
  -24.8856  -20.2186   21.6668 O   0  0  0  0  0  0  0  0  0  1  0  0
  -32.1942  -29.0285   20.3824 F   0  0  0  0  0  0  0  0  0  0  0  0
  -28.9946  -25.5751   19.8911 F   0  0  0  0  0  0  0  0  0  0  0  0
  1  2  1  0  0  0  0
  1  5  2  0  0  0  0
  2  6  2  0  0  0  0
  3  8  2  0  0  0  0
  3 17  1  0  0  0  0
  4  9  1  0  0  0  0
  4 17  2  0  0  0  0
  5 19  1  0  0  0  0
  6 21  1  0  0  0  0
  7 10  2  0  0  0  0
  7 20  1  0  0  0  0
  8 27  1  0  0  0  0
  9 27  2  0  0  0  0
 10 28  1  0  0  0  0
 11 12  2  0  0  0  0
 11 29  1  0  0  0  0
 12 30  1  0  0  0  0
 13 22  1  0  0  0  0
 13 28  2  0  0  0  0
 14 23  1  0  0  0  0
 14 24  2  0  0  0  0
 15 23  2  0  0  0  0
 15 25  1  0  0  0  0
 16 30  2  0  0  0  0
 16 31  1  0  0  0  0
 17 32  1  0  0  0  0
 18 32  1  0  0  0  0
 18 33  2  0  0  0  0
 18 34  1  0  0  0  0
 19 21  2  0  0  0  0
 19 39  1  0  0  0  0
 20 22  2  0  0  0  0
 20 40  1  0  0  0  0
 21 48  1  0  0  0  0
 22 41  1  0  0  0  0
 23 51  1  0  0  0  0
 24 26  1  0  0  0  0
 24 52  1  0  0  0  0
 25 26  2  0  0  0  0
 25 58  1  0  0  0  0
 26 71  1  0  0  0  0
 27 81  1  0  0  0  0
 28 82  1  0  0  0  0
 29 31  2  0  0  0  0
 29 81  1  0  0  0  0
 30 83  1  0  0  0  0
 31 84  1  0  0  0  0
 32 65  2  0  0  0  0
 33 66  1  0  0  0  0
 33 69  1  0  0  0  0
 34 70  1  0  0  0  0
 34 76  2  0  0  0  0
 35 49  1  0  0  0  0
 35 72  1  0  0  0  0
 35 77  2  0  0  0  0
 36 62  1  0  0  0  0
 36 67  1  0  0  0  0
 36 78  2  0  0  0  0
 37 63  1  0  0  0  0
 37 73  1  0  0  0  0
 37 79  2  0  0  0  0
 38 68  1  0  0  0  0
 38 71  1  0  0  0  0
 38 80  2  0  0  0  0
 39 42  1  0  0  0  0
 40 49  1  0  0  0  0
 41 67  1  0  0  0  0
 42 44  1  0  0  0  0
 43 45  1  0  0  0  0
 43 46  1  0  0  0  0
 44 48  1  0  0  0  0
 45 50  1  0  0  0  0
 46 68  1  0  0  0  0
 47 50  1  0  0  0  0
 47 68  1  0  0  0  0
 48 72  1  0  0  0  0
 49 67  1  0  0  0  0
 50 66  1  0  0  0  0
 53 63  1  0  0  0  0
 54 64  1  0  0  0  0
 55 64  1  0  0  0  0
 56 64  1  0  0  0  0
 57 74  1  0  0  0  0
 58 75  1  0  0  0  0
 59 60  1  0  0  0  0
 59 61  1  0  0  0  0
 60 75  1  0  0  0  0
 61 82  1  0  0  0  0
 62 64  1  0  0  0  0
 62 73  1  0  0  0  0
 63 74  1  0  0  0  0
 65 66  1  0  0  0  0
M  CHG  2  74   1  75   1
M  ISO  4  38 100  61 101  71 100  82 101
M  END
> <Batch ID>
0040

> <Smiles>
CNC(C)C(=O)NC(C(=O)N1Cc2cc([101O:1][101CH2:1]CCNCc3cc(C)cc(C)c3[100NH:0][100C:0](=O)N3CCCC(n4nc(-c5ccc(Oc6ccc(F)cc6F)cc5)c(C(N)=O)c4N)C3)ccc2CC1C(=O)NC1CCCc2ccccc21)C(C)(C)C

> <Shape>
0.233

> <Color>
0.051

> <Negative vol penalty>
0.000

$$$$

  -OEChem-04042322063D

 83 91  0     1  0  0  0  0  0999 V2000
  -26.7225  -34.5814   25.4143 C   0  0  0  0  0  0  0  0  0  0  0  0
  -27.1572  -33.3841   24.8549 C   0  0  0  0  0  0  0  0  0  0  0  0
  -24.6007  -13.3524   21.5605 C   0  0  0  0  0  0  0  0  0  0  0  0
  -26.2675  -13.1386   19.8247 C   0  0  0  0  0  0  0  0  0  0  0  0
  -25.3911  -34.7254   25.8022 C   0  0  0  0  0  0  0  0  0  0  0  0
  -26.2608  -32.3297   24.6842 C   0  0  0  0  0  0  0  0  0  0  0  0
  -26.6871  -30.1340   20.1408 C   0  0  0  0  0  0  0  0  0  0  0  0
  -28.7545  -23.5588   14.7846 C   0  0  0  0  0  0  0  0  0  0  0  0
  -24.5777  -11.9657   21.7093 C   0  0  0  0  0  0  0  0  0  0  0  0
  -26.2446  -11.7519   19.9735 C   0  0  0  0  0  0  0  0  0  0  0  0
  -27.7500  -29.2506   19.9577 C   0  0  0  0  0  0  0  0  0  0  0  0
  -23.2228   -9.3120   20.1135 C   0  0  0  0  0  0  0  0  0  0  0  0
  -21.9771   -8.6918   20.2087 C   0  0  0  0  0  0  0  0  0  0  0  0
  -27.7992  -22.8496   14.0566 C   0  0  0  0  0  0  0  0  0  0  0  0
  -26.2554  -27.3895   20.3062 C   0  0  0  0  0  0  0  0  0  0  0  0
  -22.5689   -7.8381   22.3900 C   0  0  0  0  0  0  0  0  0  0  0  0
  -25.4456  -13.9389   20.6182 C   0  0  0  0  0  0  0  0  0  0  0  0
  -26.2954  -16.2860   21.1439 C   0  0  0  0  0  0  0  0  0  0  0  0
  -24.4757  -33.6756   25.6272 C   0  0  0  0  0  0  0  0  0  0  0  0
  -25.4003  -29.6513   20.4192 C   0  0  0  0  0  0  0  0  0  0  0  0
  -24.9162  -32.4593   25.0713 C   0  0  0  0  0  0  0  0  0  0  0  0
  -25.1773  -28.2688   20.4899 C   0  0  0  0  0  0  0  0  0  0  0  0
  -28.7805  -23.4671   16.1762 C   0  0  0  0  0  0  0  0  0  0  0  0
  -26.8958  -21.9570   16.1119 C   0  0  0  0  0  0  0  0  0  0  0  0
  -25.3996  -11.1654   20.9158 C   0  0  0  0  0  0  0  0  0  0  0  0
  -27.5348  -27.8782   20.0433 C   0  0  0  0  0  0  0  0  0  0  0  0
  -24.1416   -9.1953   21.1565 C   0  0  0  0  0  0  0  0  0  0  0  0
  -21.6501   -7.9548   21.3470 C   0  0  0  0  0  0  0  0  0  0  0  0
  -23.8146   -8.4583   22.2948 C   0  0  0  0  0  0  0  0  0  0  0  0
  -26.8698  -22.0487   14.7203 C   0  0  0  0  0  0  0  0  0  0  0  0
  -27.8511  -22.6662   16.8399 C   0  0  0  0  0  0  0  0  0  0  0  0
  -25.4694  -15.3712   20.4637 C   0  0  0  0  0  0  0  0  0  0  0  0
  -25.9334  -17.5130   20.6439 C   0  0  0  0  0  0  0  0  0  0  0  0
  -27.3002  -16.0479   22.1386 C   0  0  0  0  0  0  0  0  0  0  0  0
  -23.3723  -29.9429   22.8494 C   0  0  0  0  0  0  0  0  0  0  0  0
  -21.3716  -28.3364   20.8648 C   0  0  0  0  0  0  0  0  0  0  0  0
  -21.0043  -26.2157   18.2163 C   0  0  0  0  0  0  0  0  0  0  0  0
  -24.6496  -20.8464   16.3727 C   0  0  0  0  0  0  0  0  0  0  0  0
  -23.0575  -33.8617   26.1054 C   0  0  0  0  0  0  0  0  0  0  0  0
  -24.2591  -30.6166   20.5876 C   0  0  0  0  0  0  0  0  0  0  0  0
  -23.8108  -27.6990   20.7664 C   0  0  0  0  0  0  0  0  0  0  0  0
  -22.0851  -32.8267   25.5455 C   0  0  0  0  0  0  0  0  0  0  0  0
  -22.0239  -18.8566   17.7230 C   0  0  0  0  0  0  0  0  0  0  0  0
  -22.6740  -31.4242   25.6602 C   0  0  0  0  0  0  0  0  0  0  0  0
  -22.7541  -17.8477   18.6123 C   0  0  0  0  0  0  0  0  0  0  0  0
  -22.8153  -19.1721   16.4550 C   0  0  0  0  0  0  0  0  0  0  0  0
  -24.9337  -18.5868   17.5682 C   0  0  0  0  0  0  0  0  0  0  0  0
  -23.9683  -31.3012   24.8471 C   0  0  1  0  0  0  0  0  0  0  0  0
  -23.0919  -30.0302   21.3758 C   0  0  1  0  0  0  0  0  0  0  0  0
  -24.2055  -18.2869   18.8885 C   0  0  2  0  0  0  0  0  0  0  0  0
  -19.2476  -25.0559   16.8503 C   0  0  0  0  0  0  0  0  0  0  0  0
  -20.9403  -26.3328   23.1252 C   0  0  0  0  0  0  0  0  0  0  0  0
  -19.9813  -24.7464   21.4424 C   0  0  0  0  0  0  0  0  0  0  0  0
  -18.8701  -26.9403   21.8605 C   0  0  0  0  0  0  0  0  0  0  0  0
  -21.8630  -27.5849   15.7370 C   0  0  0  0  0  0  0  0  0  0  0  0
  -29.8281  -24.2461   16.9157 C   0  0  0  0  0  0  0  0  0  0  0  0
  -30.2874  -26.2137   18.3840 C   0  0  0  0  0  0  0  0  0  0  0  0
  -29.6230  -27.4308   18.9968 C   0  0  0  0  0  0  0  0  0  1  0  0
  -21.0639  -26.8814   20.6054 C   0  0  1  0  0  0  0  0  0  0  0  0
  -20.1261  -26.2904   16.9804 C   0  0  2  0  0  0  0  0  0  0  0  0
  -20.2401  -26.2357   21.7551 C   0  0  0  0  0  0  0  0  0  0  0  0
  -24.6447  -15.9663   19.5978 N   0  0  0  0  0  0  0  0  0  0  0  0
  -24.9506  -17.2681   19.7305 N   0  0  0  0  0  0  0  0  0  0  0  0
  -22.7285  -28.6836   20.9299 N   0  0  0  0  0  0  0  0  0  0  0  0
  -24.1787  -19.5851   16.7946 N   0  0  0  0  0  0  0  0  0  0  0  0
  -26.3630  -18.7667   20.9010 N   0  0  0  0  0  0  0  0  0  0  0  0
  -27.5454  -14.7270   22.5378 N   0  0  0  0  0  0  0  0  0  0  0  0
  -25.9491  -21.1433   16.7824 N   0  0  0  0  0  0  0  0  0  0  0  0
  -23.6687  -31.1572   23.4386 N   0  0  0  0  0  0  0  0  0  0  0  0
  -20.4129  -26.8281   19.3009 N   0  0  0  0  0  0  0  0  0  0  0  0
  -20.9658  -26.4010   15.7541 N   0  3  0  0  0  0  0  0  0  0  0  0
  -29.2858  -25.4542   17.5940 N   0  3  0  0  0  0  0  0  0  0  0  0
  -27.9495  -16.9804   22.6700 O   0  0  0  0  0  0  0  0  0  0  0  0
  -23.3220  -28.8547   23.4106 O   0  0  0  0  0  0  0  0  0  0  0  0
  -20.4423  -29.1367   20.9975 O   0  0  0  0  0  0  0  0  0  0  0  0
  -22.1034  -25.6657   18.2202 O   0  0  0  0  0  0  0  0  0  0  0  0
  -23.9419  -21.6185   15.7209 O   0  0  0  0  0  0  0  0  0  0  0  0
  -25.3776   -9.8123   21.0608 O   0  0  0  0  0  0  0  0  0  0  0  0
  -28.5707  -27.0137   19.8657 O   0  0  0  0  0  0  0  0  0  1  0  0
  -20.4532   -7.3606   21.4390 F   0  0  0  0  0  0  0  0  0  0  0  0
  -24.6927   -8.3435   23.3005 F   0  0  0  0  0  0  0  0  0  0  0  0
  -25.7040  -21.1927   13.7734 Cl  0  0  0  0  0  0  0  0  0  0  0  0
  -27.8949  -22.5592   18.5706 Cl  0  0  0  0  0  0  0  0  0  0  0  0
  1  2  1  0  0  0  0
  1  5  2  0  0  0  0
  2  6  2  0  0  0  0
  3  9  2  0  0  0  0
  3 17  1  0  0  0  0
  4 10  1  0  0  0  0
  4 17  2  0  0  0  0
  5 19  1  0  0  0  0
  6 21  1  0  0  0  0
  7 11  2  0  0  0  0
  7 20  1  0  0  0  0
  8 14  2  0  0  0  0
  8 23  1  0  0  0  0
  9 25  1  0  0  0  0
 10 25  2  0  0  0  0
 11 26  1  0  0  0  0
 12 13  2  0  0  0  0
 12 27  1  0  0  0  0
 13 28  1  0  0  0  0
 14 30  1  0  0  0  0
 15 22  1  0  0  0  0
 15 26  2  0  0  0  0
 16 28  2  0  0  0  0
 16 29  1  0  0  0  0
 17 32  1  0  0  0  0
 18 32  1  0  0  0  0
 18 33  2  0  0  0  0
 18 34  1  0  0  0  0
 19 21  2  0  0  0  0
 19 39  1  0  0  0  0
 20 22  2  0  0  0  0
 20 40  1  0  0  0  0
 21 48  1  0  0  0  0
 22 41  1  0  0  0  0
 23 31  2  0  0  0  0
 23 56  1  0  0  0  0
 24 30  2  0  0  0  0
 24 31  1  0  0  0  0
 24 68  1  0  0  0  0
 25 78  1  0  0  0  0
 26 79  1  0  0  0  0
 27 29  2  0  0  0  0
 27 78  1  0  0  0  0
 28 80  1  0  0  0  0
 29 81  1  0  0  0  0
 30 82  1  0  0  0  0
 31 83  1  0  0  0  0
 32 62  2  0  0  0  0
 33 63  1  0  0  0  0
 33 66  1  0  0  0  0
 34 67  1  0  0  0  0
 34 73  2  0  0  0  0
 35 49  1  0  0  0  0
 35 69  1  0  0  0  0
 35 74  2  0  0  0  0
 36 59  1  0  0  0  0
 36 64  1  0  0  0  0
 36 75  2  0  0  0  0
 37 60  1  0  0  0  0
 37 70  1  0  0  0  0
 37 76  2  0  0  0  0
 38 65  1  0  0  0  0
 38 68  1  0  0  0  0
 38 77  2  0  0  0  0
 39 42  1  0  0  0  0
 40 49  1  0  0  0  0
 41 64  1  0  0  0  0
 42 44  1  0  0  0  0
 43 45  1  0  0  0  0
 43 46  1  0  0  0  0
 44 48  1  0  0  0  0
 45 50  1  0  0  0  0
 46 65  1  0  0  0  0
 47 50  1  0  0  0  0
 47 65  1  0  0  0  0
 48 69  1  0  0  0  0
 49 64  1  0  0  0  0
 50 63  1  0  0  0  0
 51 60  1  0  0  0  0
 52 61  1  0  0  0  0
 53 61  1  0  0  0  0
 54 61  1  0  0  0  0
 55 71  1  0  0  0  0
 56 72  1  0  0  0  0
 57 58  1  0  0  0  0
 57 72  1  0  0  0  0
 58 79  1  0  0  0  0
 59 61  1  0  0  0  0
 59 70  1  0  0  0  0
 60 71  1  0  0  0  0
 62 63  1  0  0  0  0
M  CHG  2  71   1  72   1
M  ISO  4  38 100  58 101  68 100  79 101
M  END
> <Batch ID>
0040

> <Smiles>
CNC(C)C(=O)NC(C(=O)N1Cc2cc([101O:1][101CH2:1]CNCc3ccc(Cl)c([100NH:0][100C:0](=O)N4CCCC(n5nc(-c6ccc(Oc7ccc(F)cc7F)cc6)c(C(N)=O)c5N)C4)c3Cl)ccc2CC1C(=O)NC1CCCc2ccccc21)C(C)(C)C

> <Shape>
0.250

> <Color>
0.087

> <Negative vol penalty>
0.000

$$$$

  -OEChem-04042322063D

 87 96  0     1  0  0  0  0  0999 V2000
  -22.7184   -8.2776   21.0984 C   0  0  0  0  0  0  0  0  0  0  0  0
  -23.5829   -8.8489   20.1702 C   0  0  0  0  0  0  0  0  0  0  0  0
  -25.3476  -26.9526   19.8280 C   0  0  0  0  0  0  0  0  0  0  0  0
  -27.3574  -28.2916   19.8986 C   0  0  0  0  0  0  0  0  0  0  0  0
  -22.1643   -9.0627   22.1086 C   0  0  0  0  0  0  0  0  0  0  0  0
  -23.8930  -10.2060   20.2510 C   0  0  0  0  0  0  0  0  0  0  0  0
  -28.8389  -11.1081   19.6431 C   0  0  0  0  0  0  0  0  0  0  0  0
  -24.5784  -28.0958   20.0451 C   0  0  0  0  0  0  0  0  0  0  0  0
  -26.5882  -29.4347   20.1157 C   0  0  0  0  0  0  0  0  0  0  0  0
  -29.3360  -11.0795   18.3409 C   0  0  0  0  0  0  0  0  0  0  0  0
  -23.7162  -30.0579   22.6587 C   0  0  0  0  0  0  0  0  0  0  0  0
  -22.6876  -29.9773   23.5973 C   0  0  0  0  0  0  0  0  0  0  0  0
  -29.2645  -13.4896   18.2670 C   0  0  0  0  0  0  0  0  0  0  0  0
  -28.2085  -17.1805   15.6572 C   0  0  0  0  0  0  0  0  0  0  0  0
  -29.6749  -18.8940   14.0152 C   0  0  0  0  0  0  0  0  0  0  0  0
  -21.0786  -30.5281   21.8813 C   0  0  0  0  0  0  0  0  0  0  0  0
  -26.7371  -27.0505   19.7548 C   0  0  0  0  0  0  0  0  0  0  0  0
  -27.5954  -24.7212   20.3423 C   0  0  0  0  0  0  0  0  0  0  0  0
  -22.4754  -10.4280   22.2077 C   0  0  0  0  0  0  0  0  0  0  0  0
  -28.5401  -12.3293   20.2642 C   0  0  0  0  0  0  0  0  0  0  0  0
  -23.3415  -11.0104   21.2627 C   0  0  0  0  0  0  0  0  0  0  0  0
  -28.7662  -13.5311   19.5781 C   0  0  0  0  0  0  0  0  0  0  0  0
  -28.5543  -16.7825   14.3658 C   0  0  0  0  0  0  0  0  0  0  0  0
  -28.5958  -18.4353   16.1275 C   0  0  0  0  0  0  0  0  0  0  0  0
  -29.2875  -17.6392   13.5448 C   0  0  0  0  0  0  0  0  0  0  0  0
  -29.3291  -19.2920   15.3065 C   0  0  0  0  0  0  0  0  0  0  0  0
  -25.1987  -29.3368   20.1889 C   0  0  0  0  0  0  0  0  0  0  0  0
  -29.5462  -12.2702   17.6516 C   0  0  0  0  0  0  0  0  0  0  0  0
  -23.4261  -30.3737   21.3314 C   0  0  0  0  0  0  0  0  0  0  0  0
  -21.3688  -30.2124   23.2086 C   0  0  0  0  0  0  0  0  0  0  0  0
  -22.1073  -30.6088   20.9427 C   0  0  0  0  0  0  0  0  0  0  0  0
  -27.5323  -25.8699   19.5311 C   0  0  0  0  0  0  0  0  0  0  0  0
  -28.4863  -23.8960   19.7005 C   0  0  0  0  0  0  0  0  0  0  0  0
  -29.9050  -13.9799   14.6785 C   0  0  0  0  0  0  0  0  0  0  0  0
  -31.0738  -14.5182   15.0638 C   0  0  0  0  0  0  0  0  0  0  0  0
  -26.9099  -24.4263   21.5666 C   0  0  0  0  0  0  0  0  0  0  0  0
  -25.9011  -13.6705   21.4221 C   0  0  0  0  0  0  0  0  0  0  0  0
  -27.9713  -15.9570   22.4263 C   0  0  0  0  0  0  0  0  0  0  0  0
  -30.8470  -17.6767   21.0883 C   0  0  0  0  0  0  0  0  0  0  0  0
  -30.4631  -21.5285   15.0648 C   0  0  0  0  0  0  0  0  0  0  0  0
  -21.8148  -11.2464   23.2886 C   0  0  0  0  0  0  0  0  0  0  0  0
  -28.0297  -12.3443   21.6790 C   0  0  0  0  0  0  0  0  0  0  0  0
  -28.4806  -14.8694   20.2075 C   0  0  0  0  0  0  0  0  0  0  0  0
  -22.4883  -12.5951   23.5289 C   0  0  0  0  0  0  0  0  0  0  0  0
  -31.6211  -24.8068   15.8320 C   0  0  0  0  0  0  0  0  0  0  0  0
  -28.1366  -12.3307   13.1382 C   0  0  0  0  0  0  0  0  0  0  0  0
  -22.7654  -13.2971   22.2033 C   0  0  0  0  0  0  0  0  0  0  0  0
  -28.8579  -11.7413   14.3452 C   0  0  0  0  0  0  0  0  0  0  0  0
  -30.6657  -25.2812   16.9295 C   0  0  0  0  0  0  0  0  0  0  0  0
  -30.9039  -23.9578   14.7838 C   0  0  0  0  0  0  0  0  0  0  0  0
  -29.1812  -23.3009   16.4178 C   0  0  0  0  0  0  0  0  0  0  0  0
  -28.9414  -13.4613   12.5057 C   0  0  0  0  0  0  0  0  0  0  0  0
  -23.7216  -12.4735   21.3321 C   0  0  1  0  0  0  0  0  0  0  0  0
  -29.2159  -12.8218   15.3645 C   0  0  1  0  0  0  0  0  0  1  0  0
  -27.2750  -13.6232   22.0285 C   0  0  1  0  0  0  0  0  0  0  0  0
  -29.8709  -24.1058   17.5314 C   0  0  2  0  0  0  0  0  0  0  0  0
  -28.2117  -18.8354   17.5151 C   0  0  0  0  0  0  0  0  0  0  0  0
  -29.6690  -17.2348   12.1586 C   0  0  0  0  0  0  0  0  0  0  0  0
  -32.8013  -18.7369   22.2519 C   0  0  0  0  0  0  0  0  0  0  0  0
  -26.3215  -18.5171   22.2419 C   0  0  0  0  0  0  0  0  0  0  0  0
  -28.4402  -19.7659   21.7729 C   0  0  0  0  0  0  0  0  0  0  0  0
  -28.1511  -18.5755   23.9460 C   0  0  0  0  0  0  0  0  0  0  0  0
  -32.7900  -16.0710   19.5374 C   0  0  0  0  0  0  0  0  0  0  0  0
  -28.1263  -15.4285   13.8816 C   0  0  0  0  0  0  0  0  0  0  0  0
  -28.5240  -17.2322   21.8368 C   0  0  1  0  0  0  0  0  0  0  0  0
  -32.2918  -17.5043   21.5213 C   0  0  2  0  0  0  0  0  0  0  0  0
  -27.8513  -18.5009   22.4329 C   0  0  0  0  0  0  0  0  0  0  0  0
  -28.3205  -25.7859   18.4560 N   0  0  0  0  0  0  0  0  0  0  0  0
  -28.8873  -24.5745   18.5873 N   0  0  0  0  0  0  0  0  0  0  0  0
  -27.9769  -14.8314   21.5904 N   0  0  0  0  0  0  0  0  0  0  0  0
  -30.1761  -22.8616   15.4269 N   0  0  0  0  0  0  0  0  0  0  0  0
  -28.9579  -22.6637   19.9854 N   0  0  0  0  0  0  0  0  0  0  0  0
  -26.0300  -25.3849   22.0873 N   0  0  0  0  0  0  0  0  0  0  0  0
  -29.7319  -20.5703   15.7662 N   0  0  0  0  0  0  0  0  0  0  0  0
  -25.0839  -12.6215   21.7979 N   0  0  0  0  0  0  0  0  0  0  0  0
  -29.9694  -17.1769   22.0270 N   0  0  0  0  0  0  0  0  0  0  0  0
  -29.2831  -14.5458   13.5013 N   0  3  1  0  0  0  0  0  0  0  0  0
  -33.1630  -17.2670   20.3358 N   0  3  0  0  0  0  0  0  0  0  0  0
  -27.0852  -23.3515   22.1891 O   0  0  0  0  0  0  0  0  0  0  0  0
  -25.6039  -14.5913   20.6701 O   0  0  0  0  0  0  0  0  0  0  0  0
  -27.5567  -15.9578   23.5880 O   0  0  0  0  0  0  0  0  0  0  0  0
  -30.5288  -18.2055   20.0255 O   0  0  0  0  0  0  0  0  0  0  0  0
  -31.3157  -21.2558   14.2159 O   0  0  0  0  0  0  0  0  0  0  0  0
  -24.4484  -30.4525   20.4006 O   0  0  0  0  0  0  0  0  0  0  0  0
  -30.0306  -12.2451   16.3801 O   0  0  0  0  0  0  0  0  0  1  0  0
  -20.3809  -30.1335   24.1097 F   0  0  0  0  0  0  0  0  0  0  0  0
  -21.8223  -30.9114   19.6687 F   0  0  0  0  0  0  0  0  0  0  0  0
  1  2  1  0  0  0  0
  1  5  2  0  0  0  0
  2  6  2  0  0  0  0
  3  8  2  0  0  0  0
  3 17  1  0  0  0  0
  4  9  1  0  0  0  0
  4 17  2  0  0  0  0
  5 19  1  0  0  0  0
  6 21  1  0  0  0  0
  7 10  2  0  0  0  0
  7 20  1  0  0  0  0
  8 27  1  0  0  0  0
  9 27  2  0  0  0  0
 10 28  1  0  0  0  0
 11 12  2  0  0  0  0
 11 29  1  0  0  0  0
 12 30  1  0  0  0  0
 13 22  1  0  0  0  0
 13 28  2  0  0  0  0
 14 23  1  0  0  0  0
 14 24  2  0  0  0  0
 15 25  1  0  0  0  0
 15 26  2  0  0  0  0
 16 30  2  0  0  0  0
 16 31  1  0  0  0  0
 17 32  1  0  0  0  0
 18 32  1  0  0  0  0
 18 33  2  0  0  0  0
 18 36  1  0  0  0  0
 19 21  2  0  0  0  0
 19 41  1  0  0  0  0
 20 22  2  0  0  0  0
 20 42  1  0  0  0  0
 21 53  1  0  0  0  0
 22 43  1  0  0  0  0
 23 25  2  0  0  0  0
 23 64  1  0  0  0  0
 24 26  1  0  0  0  0
 24 57  1  0  0  0  0
 25 58  1  0  0  0  0
 26 74  1  0  0  0  0
 27 84  1  0  0  0  0
 28 85  1  0  0  0  0
 29 31  2  0  0  0  0
 29 84  1  0  0  0  0
 30 86  1  0  0  0  0
 31 87  1  0  0  0  0
 32 68  2  0  0  0  0
 33 69  1  0  0  0  0
 33 72  1  0  0  0  0
 34 35  2  0  0  0  0
 34 54  1  0  0  0  0
 34 77  1  0  0  0  0
 36 73  1  0  0  0  0
 36 79  2  0  0  0  0
 37 55  1  0  0  0  0
 37 75  1  0  0  0  0
 37 80  2  0  0  0  0
 38 65  1  0  0  0  0
 38 70  1  0  0  0  0
 38 81  2  0  0  0  0
 39 66  1  0  0  0  0
 39 76  1  0  0  0  0
 39 82  2  0  0  0  0
 40 71  1  0  0  0  0
 40 74  1  0  0  0  0
 40 83  2  0  0  0  0
 41 44  1  0  0  0  0
 42 55  1  0  0  0  0
 43 70  1  0  0  0  0
 44 47  1  0  0  0  0
 45 49  1  0  0  0  0
 45 50  1  0  0  0  0
 46 48  1  0  0  0  0
 46 52  1  0  0  0  0
 47 53  1  0  0  0  0
 48 54  1  0  0  0  0
 49 56  1  0  0  0  0
 50 71  1  0  0  0  0
 51 56  1  0  0  0  0
 51 71  1  0  0  0  0
 52 77  1  0  0  0  0
 53 75  1  0  0  0  0
 54 85  1  0  0  0  0
 55 70  1  0  0  0  0
 56 69  1  0  0  0  0
 59 66  1  0  0  0  0
 60 67  1  0  0  0  0
 61 67  1  0  0  0  0
 62 67  1  0  0  0  0
 63 78  1  0  0  0  0
 64 77  1  0  0  0  0
 65 67  1  0  0  0  0
 65 76  1  0  0  0  0
 66 78  1  0  0  0  0
 68 69  1  0  0  0  0
M  CHG  2  77   1  78   1
M  ISO  4  40 100  54 101  74 100  85 101
M  END
> <Batch ID>
0040

> <Smiles>
C=C1N(Cc2cc(C)c([100NH:0][100C:0](=O)N3CCCC(n4nc(-c5ccc(Oc6ccc(F)cc6F)cc5)c(C(N)=O)c4N)C3)cc2C)CCC[101CH:1]1[101O:1]c1ccc2c(c1)CN(C(=O)C(NC(=O)C(C)NC)C(C)(C)C)C(C(=O)NC1CCCc3ccccc31)C2

> <Shape>
0.248

> <Color>
0.076

> <Negative vol penalty>
0.000

$$$$

  -OEChem-04042322063D

 84 92  0     1  0  0  0  0  0999 V2000
  -24.5343   -8.4974   22.0046 C   0  0  0  0  0  0  0  0  0  0  0  0
  -24.9534   -9.5249   21.1656 C   0  0  0  0  0  0  0  0  0  0  0  0
  -24.0014  -30.8152   21.7231 C   0  0  0  0  0  0  0  0  0  0  0  0
  -23.9835  -29.0573   23.3804 C   0  0  0  0  0  0  0  0  0  0  0  0
  -23.2451   -8.5143   22.5352 C   0  0  0  0  0  0  0  0  0  0  0  0
  -24.0831  -10.5694   20.8557 C   0  0  0  0  0  0  0  0  0  0  0  0
  -26.3134  -15.1067   21.1434 C   0  0  0  0  0  0  0  0  0  0  0  0
  -22.6107  -30.8961   21.7938 C   0  0  0  0  0  0  0  0  0  0  0  0
  -22.5928  -29.1382   23.4511 C   0  0  0  0  0  0  0  0  0  0  0  0
  -27.1318  -15.4826   20.0791 C   0  0  0  0  0  0  0  0  0  0  0  0
  -19.0111  -28.6322   23.8053 C   0  0  0  0  0  0  0  0  0  0  0  0
  -18.2913  -27.4374   23.8053 C   0  0  0  0  0  0  0  0  0  0  0  0
  -25.3415  -16.8304   19.1863 C   0  0  0  0  0  0  0  0  0  0  0  0
  -29.9547  -22.1833   20.7834 C   0  0  0  0  0  0  0  0  0  0  0  0
  -19.2191  -26.8785   21.6456 C   0  0  0  0  0  0  0  0  0  0  0  0
  -29.0755  -21.3972   23.3116 C   0  0  0  0  0  0  0  0  0  0  0  0
  -24.6878  -29.8958   22.5163 C   0  0  0  0  0  0  0  0  0  0  0  0
  -27.0584  -30.5287   23.2146 C   0  0  0  0  0  0  0  0  0  0  0  0
  -22.3618   -9.5645   22.2395 C   0  0  0  0  0  0  0  0  0  0  0  0
  -24.9971  -15.5821   21.2315 C   0  0  0  0  0  0  0  0  0  0  0  0
  -22.7804  -10.5996   21.3818 C   0  0  0  0  0  0  0  0  0  0  0  0
  -24.5093  -16.4612   20.2541 C   0  0  0  0  0  0  0  0  0  0  0  0
  -29.8770  -20.8281   21.1046 C   0  0  0  0  0  0  0  0  0  0  0  0
  -29.5929  -23.1454   21.7263 C   0  0  0  0  0  0  0  0  0  0  0  0
  -21.9064  -30.0576   22.6578 C   0  0  0  0  0  0  0  0  0  0  0  0
  -26.6450  -16.3422   19.0988 C   0  0  0  0  0  0  0  0  0  0  0  0
  -19.8348  -28.9502   22.7254 C   0  0  0  0  0  0  0  0  0  0  0  0
  -18.3954  -26.5605   22.7255 C   0  0  0  0  0  0  0  0  0  0  0  0
  -19.9389  -28.0734   21.6456 C   0  0  0  0  0  0  0  0  0  0  0  0
  -29.4374  -20.4351   22.3686 C   0  0  0  0  0  0  0  0  0  0  0  0
  -29.1533  -22.7523   22.9904 C   0  0  0  0  0  0  0  0  0  0  0  0
  -26.1243  -29.8114   22.4433 C   0  0  0  0  0  0  0  0  0  0  0  0
  -28.2811  -30.0924   22.7663 C   0  0  0  0  0  0  0  0  0  0  0  0
  -26.8402  -31.5023   24.2443 C   0  0  0  0  0  0  0  0  0  0  0  0
  -22.1196  -14.2318   21.2274 C   0  0  0  0  0  0  0  0  0  0  0  0
  -21.1285  -17.2557   21.8564 C   0  0  0  0  0  0  0  0  0  0  0  0
  -21.7494  -20.6062   21.6680 C   0  0  0  0  0  0  0  0  0  0  0  0
  -30.1036  -25.0404   20.1470 C   0  0  0  0  0  0  0  0  0  0  0  0
  -20.9620   -9.5150   22.7988 C   0  0  0  0  0  0  0  0  0  0  0  0
  -24.1359  -15.1885   22.4001 C   0  0  0  0  0  0  0  0  0  0  0  0
  -23.1102  -17.0156   20.3134 C   0  0  0  0  0  0  0  0  0  0  0  0
  -20.2276  -10.8510   22.7215 C   0  0  0  0  0  0  0  0  0  0  0  0
  -30.4318  -28.3442   18.8608 C   0  0  0  0  0  0  0  0  0  0  0  0
  -20.3973  -11.4743   21.3397 C   0  0  0  0  0  0  0  0  0  0  0  0
  -29.4539  -29.1618   19.7078 C   0  0  0  0  0  0  0  0  0  0  0  0
  -29.8938  -26.9454   18.5652 C   0  0  0  0  0  0  0  0  0  0  0  0
  -28.4951  -26.9973   20.5925 C   0  0  0  0  0  0  0  0  0  0  0  0
  -21.8738  -11.7627   21.0422 C   0  0  1  0  0  0  0  0  0  0  0  0
  -22.6434  -15.3250   22.1152 C   0  0  1  0  0  0  0  0  0  0  0  0
  -29.0217  -28.3913   20.9708 C   0  0  2  0  0  0  0  0  0  0  0  0
  -20.7371  -22.8320   22.2324 C   0  0  0  0  0  0  0  0  0  0  0  0
  -19.2421  -16.9998   19.4719 C   0  0  0  0  0  0  0  0  0  0  0  0
  -18.9798  -19.4895   19.5010 C   0  0  0  0  0  0  0  0  0  0  0  0
  -18.2529  -18.1375   21.4673 C   0  0  0  0  0  0  0  0  0  0  0  0
  -23.9847  -21.2932   23.4819 C   0  0  0  0  0  0  0  0  0  0  0  0
  -30.2667  -19.7955   20.0884 C   0  0  0  0  0  0  0  0  0  0  0  0
  -28.5251  -18.5245   16.9241 C   0  0  0  0  0  0  0  0  0  0  0  0
  -29.6301  -18.6499   17.9621 C   0  0  0  0  0  0  0  0  0  0  0  0
  -27.2112  -17.9977   17.4879 C   0  0  0  0  0  0  0  0  0  1  0  0
  -20.7220  -18.4437   21.0182 C   0  0  1  0  0  0  0  0  0  0  0  0
  -21.6474  -21.7095   22.7057 C   0  0  2  0  0  0  0  0  0  0  0  0
  -19.3249  -18.2558   20.3622 C   0  0  0  0  0  0  0  0  0  0  0  0
  -26.7041  -28.9824   21.5710 N   0  0  0  0  0  0  0  0  0  0  0  0
  -28.0155  -29.1763   21.7914 N   0  0  0  0  0  0  0  0  0  0  0  0
  -22.3046  -16.5963   21.4722 N   0  0  0  0  0  0  0  0  0  0  0  0
  -29.5085  -26.2741   19.8085 N   0  0  0  0  0  0  0  0  0  0  0  0
  -29.5468  -30.4070   23.1147 N   0  0  0  0  0  0  0  0  0  0  0  0
  -25.5209  -31.8343   24.5811 N   0  0  0  0  0  0  0  0  0  0  0  0
  -29.6834  -24.5132   21.3677 N   0  0  0  0  0  0  0  0  0  0  0  0
  -22.3043  -12.9592   21.7333 N   0  0  0  0  0  0  0  0  0  0  0  0
  -20.8215  -19.6104   21.8884 N   0  0  0  0  0  0  0  0  0  0  0  0
  -22.9941  -22.2830   22.9861 N   0  3  0  0  0  0  0  0  0  0  0  0
  -29.2478  -19.6174   19.0171 N   0  3  0  0  0  0  0  0  0  0  0  0
  -27.7872  -32.0732   24.8364 O   0  0  0  0  0  0  0  0  0  0  0  0
  -21.5860  -14.5214   20.1629 O   0  0  0  0  0  0  0  0  0  0  0  0
  -20.4321  -16.9295   22.8209 O   0  0  0  0  0  0  0  0  0  0  0  0
  -22.5676  -20.6277   20.7512 O   0  0  0  0  0  0  0  0  0  0  0  0
  -30.9457  -24.5053   19.4213 O   0  0  0  0  0  0  0  0  0  0  0  0
  -20.5494  -30.1364   22.7273 O   0  0  0  0  0  0  0  0  0  0  0  0
  -27.4414  -16.7101   18.0585 O   0  0  0  0  0  0  0  0  0  1  0  0
  -17.7053  -25.4125   22.7263 F   0  0  0  0  0  0  0  0  0  0  0  0
  -20.7295  -28.3729   20.6059 F   0  0  0  0  0  0  0  0  0  0  0  0
  -29.3592  -19.1352   22.6864 F   0  0  0  0  0  0  0  0  0  0  0  0
  -28.6960  -23.9101   24.1884 Cl  0  0  0  0  0  0  0  0  0  0  0  0
  1  2  1  0  0  0  0
  1  5  2  0  0  0  0
  2  6  2  0  0  0  0
  3  8  2  0  0  0  0
  3 17  1  0  0  0  0
  4  9  1  0  0  0  0
  4 17  2  0  0  0  0
  5 19  1  0  0  0  0
  6 21  1  0  0  0  0
  7 10  2  0  0  0  0
  7 20  1  0  0  0  0
  8 25  1  0  0  0  0
  9 25  2  0  0  0  0
 10 26  1  0  0  0  0
 11 12  2  0  0  0  0
 11 27  1  0  0  0  0
 12 28  1  0  0  0  0
 13 22  1  0  0  0  0
 13 26  2  0  0  0  0
 14 23  1  0  0  0  0
 14 24  2  0  0  0  0
 15 28  2  0  0  0  0
 15 29  1  0  0  0  0
 16 30  1  0  0  0  0
 16 31  2  0  0  0  0
 17 32  1  0  0  0  0
 18 32  1  0  0  0  0
 18 33  2  0  0  0  0
 18 34  1  0  0  0  0
 19 21  2  0  0  0  0
 19 39  1  0  0  0  0
 20 22  2  0  0  0  0
 20 40  1  0  0  0  0
 21 48  1  0  0  0  0
 22 41  1  0  0  0  0
 23 30  2  0  0  0  0
 23 56  1  0  0  0  0
 24 31  1  0  0  0  0
 24 69  1  0  0  0  0
 25 79  1  0  0  0  0
 26 80  1  0  0  0  0
 27 29  2  0  0  0  0
 27 79  1  0  0  0  0
 28 81  1  0  0  0  0
 29 82  1  0  0  0  0
 30 83  1  0  0  0  0
 31 84  1  0  0  0  0
 32 63  2  0  0  0  0
 33 64  1  0  0  0  0
 33 67  1  0  0  0  0
 34 68  1  0  0  0  0
 34 74  2  0  0  0  0
 35 49  1  0  0  0  0
 35 70  1  0  0  0  0
 35 75  2  0  0  0  0
 36 60  1  0  0  0  0
 36 65  1  0  0  0  0
 36 76  2  0  0  0  0
 37 61  1  0  0  0  0
 37 71  1  0  0  0  0
 37 77  2  0  0  0  0
 38 66  1  0  0  0  0
 38 69  1  0  0  0  0
 38 78  2  0  0  0  0
 39 42  1  0  0  0  0
 40 49  1  0  0  0  0
 41 65  1  0  0  0  0
 42 44  1  0  0  0  0
 43 45  1  0  0  0  0
 43 46  1  0  0  0  0
 44 48  1  0  0  0  0
 45 50  1  0  0  0  0
 46 66  1  0  0  0  0
 47 50  1  0  0  0  0
 47 66  1  0  0  0  0
 48 70  1  0  0  0  0
 49 65  1  0  0  0  0
 50 64  1  0  0  0  0
 51 61  1  0  0  0  0
 52 62  1  0  0  0  0
 53 62  1  0  0  0  0
 54 62  1  0  0  0  0
 55 72  1  0  0  0  0
 56 73  1  0  0  0  0
 57 58  1  0  0  0  0
 57 59  1  0  0  0  0
 58 73  1  0  0  0  0
 59 80  1  0  0  0  0
 60 62  1  0  0  0  0
 60 71  1  0  0  0  0
 61 72  1  0  0  0  0
 63 64  1  0  0  0  0
M  CHG  2  72   1  73   1
M  ISO  4  38 100  59 101  69 100  80 101
M  END
> <Batch ID>
0040

> <Smiles>
CNC(C)C(=O)NC(C(=O)N1Cc2cc([101O:1][101CH2:1]CCNCc3cc([100NH:0][100C:0](=O)N4CCCC(n5nc(-c6ccc(Oc7ccc(F)cc7F)cc6)c(C(N)=O)c5N)C4)c(Cl)cc3F)ccc2CC1C(=O)NC1CCCc2ccccc21)C(C)(C)C

> <Shape>
0.258

> <Color>
0.062

> <Negative vol penalty>
0.000

$$$$

  -OEChem-04042322063D

 86 94  0     1  0  0  0  0  0999 V2000
  -28.3079  -24.3867   17.5466 C   0  0  0  0  0  0  0  0  0  0  0  0
  -27.0981  -24.6409   18.1848 C   0  0  0  0  0  0  0  0  0  0  0  0
  -29.0523  -17.4330   21.8570 C   0  0  0  0  0  0  0  0  0  0  0  0
  -26.9869  -16.3852   21.1693 C   0  0  0  0  0  0  0  0  0  0  0  0
  -29.4880  -24.9338   18.0486 C   0  0  0  0  0  0  0  0  0  0  0  0
  -27.0679  -25.4416   19.3260 C   0  0  0  0  0  0  0  0  0  0  0  0
  -23.2995  -28.8231   19.2274 C   0  0  0  0  0  0  0  0  0  0  0  0
  -29.6852  -16.1900   21.8504 C   0  0  0  0  0  0  0  0  0  0  0  0
  -27.6197  -15.1422   21.1627 C   0  0  0  0  0  0  0  0  0  0  0  0
  -22.0196  -28.3590   19.5278 C   0  0  0  0  0  0  0  0  0  0  0  0
  -29.6941  -13.4159   19.1286 C   0  0  0  0  0  0  0  0  0  0  0  0
  -29.4609  -12.5775   18.0385 C   0  0  0  0  0  0  0  0  0  0  0  0
  -22.2397  -29.2216   21.7699 C   0  0  0  0  0  0  0  0  0  0  0  0
  -18.6663  -22.0109   21.7819 C   0  0  0  0  0  0  0  0  0  0  0  0
  -18.1870  -23.3325   23.7467 C   0  0  0  0  0  0  0  0  0  0  0  0
  -28.5487  -10.9027   19.5218 C   0  0  0  0  0  0  0  0  0  0  0  0
  -27.7032  -17.5306   21.5166 C   0  0  0  0  0  0  0  0  0  0  0  0
  -26.9450  -19.7216   20.4524 C   0  0  0  0  0  0  0  0  0  0  0  0
  -29.4709  -25.7495   19.1910 C   0  0  0  0  0  0  0  0  0  0  0  0
  -24.0647  -29.4813   20.2008 C   0  0  0  0  0  0  0  0  0  0  0  0
  -28.2490  -25.9991   19.8445 C   0  0  0  0  0  0  0  0  0  0  0  0
  -23.5281  -29.6952   21.4785 C   0  0  0  0  0  0  0  0  0  0  0  0
  -18.0921  -23.1385   22.3686 C   0  0  0  0  0  0  0  0  0  0  0  0
  -19.3353  -21.0771   22.5733 C   0  0  0  0  0  0  0  0  0  0  0  0
  -19.4302  -21.2711   23.9513 C   0  0  0  0  0  0  0  0  0  0  0  0
  -28.9689  -15.0446   21.5032 C   0  0  0  0  0  0  0  0  0  0  0  0
  -21.4906  -28.5557   20.8001 C   0  0  0  0  0  0  0  0  0  0  0  0
  -29.3547  -12.9977   20.4153 C   0  0  0  0  0  0  0  0  0  0  0  0
  -28.8882  -11.3209   18.2351 C   0  0  0  0  0  0  0  0  0  0  0  0
  -18.8560  -22.3988   24.5381 C   0  0  0  0  0  0  0  0  0  0  0  0
  -28.7820  -11.7411   20.6119 C   0  0  0  0  0  0  0  0  0  0  0  0
  -27.0488  -18.8143   21.5238 C   0  0  0  0  0  0  0  0  0  0  0  0
  -26.2360  -20.7799   20.9661 C   0  0  0  0  0  0  0  0  0  0  0  0
  -27.4446  -19.6171   19.1126 C   0  0  0  0  0  0  0  0  0  0  0  0
  -26.8423  -28.9084   21.6361 C   0  0  0  0  0  0  0  0  0  0  0  0
  -26.3448  -31.8487   22.9127 C   0  0  0  0  0  0  0  0  0  0  0  0
  -18.8326  -26.1639   21.2800 C   0  0  0  0  0  0  0  0  0  0  0  0
  -24.1265  -34.2911   23.7844 C   0  0  0  0  0  0  0  0  0  0  0  0
  -22.3255  -21.2636   25.4744 C   0  0  0  0  0  0  0  0  0  0  0  0
  -30.7783  -26.2800   19.7238 C   0  0  0  0  0  0  0  0  0  0  0  0
  -25.4332  -29.9994   19.8529 C   0  0  0  0  0  0  0  0  0  0  0  0
  -24.3009  -30.4140   22.5530 C   0  0  0  0  0  0  0  0  0  0  0  0
  -30.6106  -27.4239   20.7206 C   0  0  0  0  0  0  0  0  0  0  0  0
  -25.3722  -23.0634   25.0807 C   0  0  0  0  0  0  0  0  0  0  0  0
  -29.5337  -27.0846   21.7463 C   0  0  0  0  0  0  0  0  0  0  0  0
  -26.1380  -22.2604   24.0278 C   0  0  0  0  0  0  0  0  0  0  0  0
  -24.5733  -22.1549   26.0125 C   0  0  0  0  0  0  0  0  0  0  0  0
  -24.4317  -20.4098   24.2781 C   0  0  0  0  0  0  0  0  0  0  0  0
  -28.1721  -26.8829   21.0705 C   0  0  1  0  0  0  0  0  0  0  0  0
  -26.3239  -30.2021   21.0748 C   0  0  1  0  0  0  0  0  0  0  0  0
  -25.2081  -21.2859   23.2801 C   0  0  2  0  0  0  0  0  0  0  0  0
  -19.9410  -19.8768   21.9226 C   0  0  0  0  0  0  0  0  0  0  0  0
  -24.0140  -36.5637   24.8429 C   0  0  0  0  0  0  0  0  0  0  0  0
  -26.7464  -30.5858   25.6612 C   0  0  0  0  0  0  0  0  0  0  0  0
  -25.7054  -32.6254   26.6734 C   0  0  0  0  0  0  0  0  0  0  0  0
  -27.8253  -32.8236   25.3736 C   0  0  0  0  0  0  0  0  0  0  0  0
  -18.6271  -24.4979   19.4268 C   0  0  0  0  0  0  0  0  0  0  0  0
  -22.9895  -35.5031   21.3355 C   0  0  0  0  0  0  0  0  0  0  0  0
  -17.3728  -24.1445   21.5173 C   0  0  0  0  0  0  0  0  0  0  0  0
  -20.1427  -20.2834   24.8157 C   0  0  0  0  0  0  0  0  0  0  0  0
  -19.7906  -26.9410   20.4019 C   0  0  0  0  0  0  0  0  0  1  0  0
  -25.6588  -32.3747   24.1503 C   0  0  1  0  0  0  0  0  0  0  0  0
  -24.1299  -35.7892   23.5392 C   0  0  2  0  0  0  0  0  0  0  0  0
  -26.4699  -32.0871   25.4452 C   0  0  0  0  0  0  0  0  0  0  0  0
  -26.4536  -19.2575   22.6343 N   0  0  0  0  0  0  0  0  0  0  0  0
  -25.9690  -20.4550   22.2635 N   0  0  0  0  0  0  0  0  0  0  0  0
  -25.6370  -30.8962   22.1660 N   0  0  0  0  0  0  0  0  0  0  0  0
  -23.7106  -21.2569   25.2410 N   0  0  0  0  0  0  0  0  0  0  0  0
  -25.8214  -21.9474   20.4301 N   0  0  0  0  0  0  0  0  0  0  0  0
  -28.1517  -18.4621   18.7514 N   0  0  0  0  0  0  0  0  0  0  0  0
  -27.5789  -28.1603   20.7376 N   0  0  0  0  0  0  0  0  0  0  0  0
  -25.4055  -33.7906   23.9060 N   0  0  0  0  0  0  0  0  0  0  0  0
  -21.5800  -20.3868   24.6959 N   0  0  0  0  0  0  0  0  0  0  0  0
  -18.2995  -24.9833   20.7616 N   0  0  0  0  0  0  0  0  0  0  0  0
  -22.9884  -36.1731   22.6614 N   0  3  0  0  0  0  0  0  0  0  0  0
  -27.2834  -20.5283   18.2656 O   0  0  0  0  0  0  0  0  0  0  0  0
  -26.5938  -28.6116   22.7988 O   0  0  0  0  0  0  0  0  0  0  0  0
  -27.4645  -32.2726   22.6155 O   0  0  0  0  0  0  0  0  0  0  0  0
  -18.5738  -26.5997   22.4060 O   0  0  0  0  0  0  0  0  0  0  0  0
  -23.0924  -33.6316   23.8642 O   0  0  0  0  0  0  0  0  0  0  0  0
  -21.7921  -22.0006   26.3107 O   0  0  0  0  0  0  0  0  0  0  0  0
  -29.5861  -13.8315   21.4964 O   0  0  0  0  0  0  0  0  0  0  0  0
  -20.2419  -28.1032   21.0962 O   0  0  0  0  0  0  0  0  0  1  0  0
  -28.6629  -10.5165   17.1881 F   0  0  0  0  0  0  0  0  0  0  0  0
  -18.9411  -22.5944   25.8614 F   0  0  0  0  0  0  0  0  0  0  0  0
  -28.4528  -11.3343   21.8456 F   0  0  0  0  0  0  0  0  0  0  0  0
  1  2  1  0  0  0  0
  1  5  2  0  0  0  0
  2  6  2  0  0  0  0
  3  8  2  0  0  0  0
  3 17  1  0  0  0  0
  4  9  1  0  0  0  0
  4 17  2  0  0  0  0
  5 19  1  0  0  0  0
  6 21  1  0  0  0  0
  7 10  2  0  0  0  0
  7 20  1  0  0  0  0
  8 26  1  0  0  0  0
  9 26  2  0  0  0  0
 10 27  1  0  0  0  0
 11 12  2  0  0  0  0
 11 28  1  0  0  0  0
 12 29  1  0  0  0  0
 13 22  1  0  0  0  0
 13 27  2  0  0  0  0
 14 23  1  0  0  0  0
 14 24  2  0  0  0  0
 15 23  2  0  0  0  0
 15 30  1  0  0  0  0
 16 29  2  0  0  0  0
 16 31  1  0  0  0  0
 17 32  1  0  0  0  0
 18 32  1  0  0  0  0
 18 33  2  0  0  0  0
 18 34  1  0  0  0  0
 19 21  2  0  0  0  0
 19 40  1  0  0  0  0
 20 22  2  0  0  0  0
 20 41  1  0  0  0  0
 21 49  1  0  0  0  0
 22 42  1  0  0  0  0
 23 59  1  0  0  0  0
 24 25  1  0  0  0  0
 24 52  1  0  0  0  0
 25 30  2  0  0  0  0
 25 60  1  0  0  0  0
 26 82  1  0  0  0  0
 27 83  1  0  0  0  0
 28 31  2  0  0  0  0
 28 82  1  0  0  0  0
 29 84  1  0  0  0  0
 30 85  1  0  0  0  0
 31 86  1  0  0  0  0
 32 65  2  0  0  0  0
 33 66  1  0  0  0  0
 33 69  1  0  0  0  0
 34 70  1  0  0  0  0
 34 76  2  0  0  0  0
 35 50  1  0  0  0  0
 35 71  1  0  0  0  0
 35 77  2  0  0  0  0
 36 62  1  0  0  0  0
 36 67  1  0  0  0  0
 36 78  2  0  0  0  0
 37 61  1  0  0  0  0
 37 74  1  0  0  0  0
 37 79  2  0  0  0  0
 38 63  1  0  0  0  0
 38 72  1  0  0  0  0
 38 80  2  0  0  0  0
 39 68  1  0  0  0  0
 39 73  1  0  0  0  0
 39 81  2  0  0  0  0
 40 43  1  0  0  0  0
 41 50  1  0  0  0  0
 42 67  1  0  0  0  0
 43 45  1  0  0  0  0
 44 46  1  0  0  0  0
 44 47  1  0  0  0  0
 45 49  1  0  0  0  0
 46 51  1  0  0  0  0
 47 68  1  0  0  0  0
 48 51  1  0  0  0  0
 48 68  1  0  0  0  0
 49 71  1  0  0  0  0
 50 67  1  0  0  0  0
 51 66  1  0  0  0  0
 53 63  1  0  0  0  0
 54 64  1  0  0  0  0
 55 64  1  0  0  0  0
 56 64  1  0  0  0  0
 57 74  1  0  0  0  0
 58 75  1  0  0  0  0
 59 74  1  0  0  0  0
 60 73  1  0  0  0  0
 61 83  1  0  0  0  0
 62 64  1  0  0  0  0
 62 72  1  0  0  0  0
 63 75  1  0  0  0  0
 65 66  1  0  0  0  0
M  CHG  1  75   1
M  ISO  4  39 100  61 101  73 100  83 101
M  END
> <Batch ID>
0040

> <Smiles>
CNC(C)C(=O)NC(C(=O)N1Cc2cc([101O:1][101CH2:1]C(=O)N(C)Cc3cc(C)c(C[100NH:0][100C:0](=O)N4CCCC(n5nc(-c6ccc(Oc7ccc(F)cc7F)cc6)c(C(N)=O)c5N)C4)c(F)c3)ccc2CC1C(=O)NC1CCCc2ccccc21)C(C)(C)C

> <Shape>
0.287

> <Color>
0.060

> <Negative vol penalty>
0.000

$$$$

  -OEChem-04042322063D

 92101  0     1  0  0  0  0  0999 V2000
  -26.0022  -18.8631   12.1543 C   0  0  0  0  0  0  0  0  0  0  0  0
  -26.1914  -20.1100   12.7415 C   0  0  0  0  0  0  0  0  0  0  0  0
  -24.1481  -12.4400   19.6609 C   0  0  0  0  0  0  0  0  0  0  0  0
  -25.4282  -13.7829   21.2084 C   0  0  0  0  0  0  0  0  0  0  0  0
  -25.7886  -17.7419   12.9551 C   0  0  0  0  0  0  0  0  0  0  0  0
  -26.1660  -20.2366   14.1300 C   0  0  0  0  0  0  0  0  0  0  0  0
  -29.5072  -24.0739   17.5384 C   0  0  0  0  0  0  0  0  0  0  0  0
  -25.2191  -11.5542   19.5435 C   0  0  0  0  0  0  0  0  0  0  0  0
  -26.4993  -12.8971   21.0910 C   0  0  0  0  0  0  0  0  0  0  0  0
  -29.2205  -25.3127   18.1102 C   0  0  0  0  0  0  0  0  0  0  0  0
  -29.7015  -11.1860   20.9225 C   0  0  0  0  0  0  0  0  0  0  0  0
  -30.9766  -11.7281   20.7627 C   0  0  0  0  0  0  0  0  0  0  0  0
  -28.6827  -24.2203   20.1926 C   0  0  0  0  0  0  0  0  0  0  0  0
  -23.8005  -25.5224   20.8468 C   0  0  0  0  0  0  0  0  0  0  0  0
  -30.2604  -12.8122   18.7258 C   0  0  0  0  0  0  0  0  0  0  0  0
  -24.2526  -13.5544   20.4933 C   0  0  0  0  0  0  0  0  0  0  0  0
  -21.8467  -14.1775   21.0684 C   0  0  0  0  0  0  0  0  0  0  0  0
  -25.7702  -17.8532   14.3543 C   0  0  0  0  0  0  0  0  0  0  0  0
  -29.3731  -22.8961   18.2875 C   0  0  0  0  0  0  0  0  0  0  0  0
  -25.9507  -19.1161   14.9502 C   0  0  0  0  0  0  0  0  0  0  0  0
  -28.9708  -22.9680   19.6288 C   0  0  0  0  0  0  0  0  0  0  0  0
  -22.7241  -24.6977   21.1733 C   0  0  0  0  0  0  0  0  0  0  0  0
  -23.5728  -26.7658   20.2570 C   0  0  0  0  0  0  0  0  0  0  0  0
  -21.4198  -25.1162   20.9099 C   0  0  0  0  0  0  0  0  0  0  0  0
  -22.2685  -27.1843   19.9936 C   0  0  0  0  0  0  0  0  0  0  0  0
  -21.1920  -26.3596   20.3200 C   0  0  0  0  0  0  0  0  0  0  0  0
  -26.3948  -11.7827   20.2586 C   0  0  0  0  0  0  0  0  0  0  0  0
  -28.8054  -25.3858   19.4366 C   0  0  0  0  0  0  0  0  0  0  0  0
  -28.7057  -11.4568   19.9839 C   0  0  0  0  0  0  0  0  0  0  0  0
  -31.2561  -12.5413   19.6644 C   0  0  0  0  0  0  0  0  0  0  0  0
  -28.9852  -12.2700   18.8856 C   0  0  0  0  0  0  0  0  0  0  0  0
  -23.1468  -14.4700   20.6146 C   0  0  0  0  0  0  0  0  0  0  0  0
  -21.1796  -15.3758   20.9948 C   0  0  0  0  0  0  0  0  0  0  0  0
  -26.7515  -28.6484   20.8817 C   0  0  0  0  0  0  0  0  0  0  0  0
  -27.0566  -29.5067   19.8913 C   0  0  0  0  0  0  0  0  0  0  0  0
  -21.2917  -12.9337   21.5164 C   0  0  0  0  0  0  0  0  0  0  0  0
  -27.5805  -20.2815   18.0547 C   0  0  0  0  0  0  0  0  0  0  0  0
  -29.4078  -19.2794   20.5406 C   0  0  0  0  0  0  0  0  0  0  0  0
  -31.3864  -20.0996   23.1974 C   0  0  0  0  0  0  0  0  0  0  0  0
  -23.0848  -20.9590   21.2276 C   0  0  0  0  0  0  0  0  0  0  0  0
  -25.4886  -16.6209   15.1770 C   0  0  0  0  0  0  0  0  0  0  0  0
  -29.7120  -21.5699   17.6640 C   0  0  0  0  0  0  0  0  0  0  0  0
  -28.8307  -21.7348   20.4820 C   0  0  0  0  0  0  0  0  0  0  0  0
  -25.8495  -16.7776   16.6519 C   0  0  0  0  0  0  0  0  0  0  0  0
  -26.2872  -30.4400   23.3034 C   0  0  0  0  0  0  0  0  0  0  0  0
  -27.3727  -29.5211   23.8711 C   0  0  0  0  0  0  0  0  0  0  0  0
  -21.1343  -19.4930   18.5547 C   0  0  0  0  0  0  0  0  0  0  0  0
  -24.9121  -29.7956   23.1114 C   0  0  0  0  0  0  0  0  0  0  0  0
  -25.3234  -18.1035   17.1923 C   0  0  0  0  0  0  0  0  0  0  0  0
  -27.5166  -28.1182   23.2758 C   0  0  0  0  0  0  0  0  0  0  0  0
  -21.3120  -17.9992   18.8325 C   0  0  0  0  0  0  0  0  0  0  0  0
  -22.4169  -20.2661   18.8472 C   0  0  0  0  0  0  0  0  0  0  0  0
  -23.1257  -18.5880   20.5071 C   0  0  0  0  0  0  0  0  0  0  0  0
  -24.5528  -29.4387   21.6655 C   0  0  0  0  0  0  0  0  0  0  0  0
  -25.9547  -19.2897   16.4535 C   0  0  1  0  0  0  0  0  0  0  0  0
  -27.8325  -28.0587   21.7690 C   0  0  1  0  0  0  0  0  0  0  0  0
  -29.0461  -20.3913   18.3675 C   0  0  1  0  0  0  0  0  0  0  0  0
  -21.8568  -17.7542   20.2522 C   0  0  2  0  0  0  0  0  0  0  0  0
  -20.2670  -24.2298   21.2613 C   0  0  0  0  0  0  0  0  0  0  0  0
  -22.0273  -28.5180   19.3602 C   0  0  0  0  0  0  0  0  0  0  0  0
  -19.7929  -26.8088   20.0381 C   0  0  0  0  0  0  0  0  0  0  0  0
  -32.7060  -19.0650   25.0644 C   0  0  0  0  0  0  0  0  0  0  0  0
  -26.8187  -18.7079   22.0506 C   0  0  0  0  0  0  0  0  0  0  0  0
  -28.1570  -18.5994   24.1638 C   0  0  0  0  0  0  0  0  0  0  0  0
  -28.5938  -16.9682   22.3278 C   0  0  0  0  0  0  0  0  0  0  0  0
  -33.9197  -21.2685   22.2100 C   0  0  0  0  0  0  0  0  0  0  0  0
  -22.9954  -23.3709   21.8036 C   0  0  0  0  0  0  0  0  0  0  0  0
  -24.7481  -27.6339   19.9165 C   0  0  0  0  0  0  0  0  0  0  0  0
  -28.1053  -26.6077   21.3531 C   0  0  0  0  0  0  0  0  0  1  0  0
  -29.3128  -19.3754   22.0441 C   0  0  1  0  0  0  0  0  0  0  0  0
  -32.7462  -19.5874   23.6367 C   0  0  2  0  0  0  0  0  0  0  0  0
  -28.2213  -18.4360   22.6302 C   0  0  0  0  0  0  0  0  0  0  0  0
  -23.2986  -15.7535   20.2775 N   0  0  0  0  0  0  0  0  0  0  0  0
  -22.0852  -16.2781   20.5196 N   0  0  0  0  0  0  0  0  0  0  0  0
  -29.1676  -20.4610   19.8251 N   0  0  0  0  0  0  0  0  0  0  0  0
  -22.8720  -20.0037   20.2198 N   0  0  0  0  0  0  0  0  0  0  0  0
  -19.9124  -15.7352   21.2909 N   0  0  0  0  0  0  0  0  0  0  0  0
  -21.3767  -12.6164   22.8789 N   0  0  0  0  0  0  0  0  0  0  0  0
  -27.2998  -19.5256   16.9326 N   0  0  0  0  0  0  0  0  0  0  0  0
  -30.6558  -19.1226   22.5549 N   0  0  0  0  0  0  0  0  0  0  0  0
  -22.8281  -22.2775   20.8722 N   0  0  0  0  0  0  0  0  0  0  0  0
  -25.3687  -28.2887   21.1248 N   0  3  1  0  0  0  0  0  0  0  0  0
  -33.7590  -20.6783   23.5638 N   0  3  0  0  0  0  0  0  0  0  0  0
  -20.7513  -12.1202   20.7291 O   0  0  0  0  0  0  0  0  0  0  0  0
  -26.7647  -20.8399   18.7788 O   0  0  0  0  0  0  0  0  0  0  0  0
  -29.6918  -18.1975   20.0204 O   0  0  0  0  0  0  0  0  0  0  0  0
  -31.0086  -21.2502   23.4068 O   0  0  0  0  0  0  0  0  0  0  0  0
  -23.4700  -20.6584   22.3627 O   0  0  0  0  0  0  0  0  0  0  0  0
  -27.4400  -10.9185   20.1444 O   0  0  0  0  0  0  0  0  0  0  0  0
  -28.5214  -26.6056   20.0025 O   0  0  0  0  0  0  0  0  0  1  0  0
  -32.4803  -13.0631   19.5118 F   0  0  0  0  0  0  0  0  0  0  0  0
  -28.0324  -12.5347   17.9812 F   0  0  0  0  0  0  0  0  0  0  0  0
  1  2  1  0  0  0  0
  1  5  2  0  0  0  0
  2  6  2  0  0  0  0
  3  8  2  0  0  0  0
  3 16  1  0  0  0  0
  4  9  1  0  0  0  0
  4 16  2  0  0  0  0
  5 18  1  0  0  0  0
  6 20  1  0  0  0  0
  7 10  2  0  0  0  0
  7 19  1  0  0  0  0
  8 27  1  0  0  0  0
  9 27  2  0  0  0  0
 10 28  1  0  0  0  0
 11 12  2  0  0  0  0
 11 29  1  0  0  0  0
 12 30  1  0  0  0  0
 13 21  1  0  0  0  0
 13 28  2  0  0  0  0
 14 22  2  0  0  0  0
 14 23  1  0  0  0  0
 15 30  2  0  0  0  0
 15 31  1  0  0  0  0
 16 32  1  0  0  0  0
 17 32  1  0  0  0  0
 17 33  2  0  0  0  0
 17 36  1  0  0  0  0
 18 20  2  0  0  0  0
 18 41  1  0  0  0  0
 19 21  2  0  0  0  0
 19 42  1  0  0  0  0
 20 55  1  0  0  0  0
 21 43  1  0  0  0  0
 22 24  1  0  0  0  0
 22 67  1  0  0  0  0
 23 25  2  0  0  0  0
 23 68  1  0  0  0  0
 24 26  2  0  0  0  0
 24 59  1  0  0  0  0
 25 26  1  0  0  0  0
 25 60  1  0  0  0  0
 26 61  1  0  0  0  0
 27 89  1  0  0  0  0
 28 90  1  0  0  0  0
 29 31  2  0  0  0  0
 29 89  1  0  0  0  0
 30 91  1  0  0  0  0
 31 92  1  0  0  0  0
 32 73  2  0  0  0  0
 33 74  1  0  0  0  0
 33 77  1  0  0  0  0
 34 35  2  0  0  0  0
 34 56  1  0  0  0  0
 34 82  1  0  0  0  0
 36 78  1  0  0  0  0
 36 84  2  0  0  0  0
 37 57  1  0  0  0  0
 37 79  1  0  0  0  0
 37 85  2  0  0  0  0
 38 70  1  0  0  0  0
 38 75  1  0  0  0  0
 38 86  2  0  0  0  0
 39 71  1  0  0  0  0
 39 80  1  0  0  0  0
 39 87  2  0  0  0  0
 40 76  1  0  0  0  0
 40 81  1  0  0  0  0
 40 88  2  0  0  0  0
 41 44  1  0  0  0  0
 42 57  1  0  0  0  0
 43 75  1  0  0  0  0
 44 49  1  0  0  0  0
 45 46  1  0  0  0  0
 45 48  1  0  0  0  0
 46 50  1  0  0  0  0
 47 51  1  0  0  0  0
 47 52  1  0  0  0  0
 48 54  1  0  0  0  0
 49 55  1  0  0  0  0
 50 56  1  0  0  0  0
 51 58  1  0  0  0  0
 52 76  1  0  0  0  0
 53 58  1  0  0  0  0
 53 76  1  0  0  0  0
 54 82  1  0  0  0  0
 55 79  1  0  0  0  0
 56 69  1  0  0  0  0
 57 75  1  0  0  0  0
 58 74  1  0  0  0  0
 62 71  1  0  0  0  0
 63 72  1  0  0  0  0
 64 72  1  0  0  0  0
 65 72  1  0  0  0  0
 66 83  1  0  0  0  0
 67 81  1  0  0  0  0
 68 82  1  0  0  0  0
 69 90  1  0  0  0  0
 70 72  1  0  0  0  0
 70 80  1  0  0  0  0
 71 83  1  0  0  0  0
 73 74  1  0  0  0  0
M  CHG  2  82   1  83   1
M  ISO  4  40 100  69 101  81 100  90 101
M  END
> <Batch ID>
0040

> <Smiles>
C=C1C([101CH2:1][101O:1]c2ccc3c(c2)CN(C(=O)C(NC(=O)C(C)NC)C(C)(C)C)C(C(=O)NC2CCCc4ccccc42)C3)CCCCCN1Cc1cc(C[100NH:0][100C:0](=O)N2CCCC(n3nc(-c4ccc(Oc5ccc(F)cc5F)cc4)c(C(N)=O)c3N)C2)c(C)c(C)c1C

> <Shape>
0.221

> <Color>
0.057

> <Negative vol penalty>
0.000

$$$$

  -OEChem-04042322063D

 85 93  0     1  0  0  0  0  0999 V2000
  -19.2451  -22.1549   20.8374 C   0  0  0  0  0  0  0  0  0  0  0  0
  -20.6256  -21.9883   20.7945 C   0  0  0  0  0  0  0  0  0  0  0  0
  -26.9481  -12.7594   20.9113 C   0  0  0  0  0  0  0  0  0  0  0  0
  -27.1018  -12.8177   18.5009 C   0  0  0  0  0  0  0  0  0  0  0  0
  -18.6895  -23.4165   20.6288 C   0  0  0  0  0  0  0  0  0  0  0  0
  -21.4513  -23.0832   20.5419 C   0  0  0  0  0  0  0  0  0  0  0  0
  -27.0212  -24.1088   22.8721 C   0  0  0  0  0  0  0  0  0  0  0  0
  -26.4023  -11.4775   20.8455 C   0  0  0  0  0  0  0  0  0  0  0  0
  -26.5561  -11.5357   18.4351 C   0  0  0  0  0  0  0  0  0  0  0  0
  -28.3031  -23.9000   22.3652 C   0  0  0  0  0  0  0  0  0  0  0  0
  -23.3988  -10.0810   20.1725 C   0  0  0  0  0  0  0  0  0  0  0  0
  -22.2872   -9.8090   20.9699 C   0  0  0  0  0  0  0  0  0  0  0  0
  -28.3833  -26.1986   21.6378 C   0  0  0  0  0  0  0  0  0  0  0  0
  -26.1079  -22.5514   14.7476 C   0  0  0  0  0  0  0  0  0  0  0  0
  -28.3485  -23.4525   14.6791 C   0  0  0  0  0  0  0  0  0  0  0  0
  -23.5203   -8.0605   22.0922 C   0  0  0  0  0  0  0  0  0  0  0  0
  -27.2978  -13.4296   19.7390 C   0  0  0  0  0  0  0  0  0  0  0  0
  -29.2237  -15.0946   19.9013 C   0  0  0  0  0  0  0  0  0  0  0  0
  -19.5094  -24.5292   20.3830 C   0  0  0  0  0  0  0  0  0  0  0  0
  -26.4055  -25.3632   22.7558 C   0  0  0  0  0  0  0  0  0  0  0  0
  -20.9062  -24.3606   20.3284 C   0  0  0  0  0  0  0  0  0  0  0  0
  -27.0946  -26.4214   22.1463 C   0  0  0  0  0  0  0  0  0  0  0  0
  -27.2821  -22.8168   14.0431 C   0  0  0  0  0  0  0  0  0  0  0  0
  -26.0000  -22.9218   16.0881 C   0  0  0  0  0  0  0  0  0  0  0  0
  -28.2406  -23.8228   16.0196 C   0  0  0  0  0  0  0  0  0  0  0  0
  -27.0663  -23.5575   16.7241 C   0  0  0  0  0  0  0  0  0  0  0  0
  -26.2064  -10.8656   19.6074 C   0  0  0  0  0  0  0  0  0  0  0  0
  -28.9832  -24.9441   21.7453 C   0  0  0  0  0  0  0  0  0  0  0  0
  -24.5711   -9.3428   20.3348 C   0  0  0  0  0  0  0  0  0  0  0  0
  -22.3479   -8.7987   21.9298 C   0  0  0  0  0  0  0  0  0  0  0  0
  -24.6318   -8.3325   21.2947 C   0  0  0  0  0  0  0  0  0  0  0  0
  -27.8611  -14.7541   19.8063 C   0  0  0  0  0  0  0  0  0  0  0  0
  -29.2331  -16.4676   19.9342 C   0  0  0  0  0  0  0  0  0  0  0  0
  -30.3779  -14.2456   19.9548 C   0  0  0  0  0  0  0  0  0  0  0  0
  -23.7860  -26.4518   21.3216 C   0  0  0  0  0  0  0  0  0  0  0  0
  -24.5685  -29.2072   22.8441 C   0  0  0  0  0  0  0  0  0  0  0  0
  -26.9881  -31.1336   24.2869 C   0  0  0  0  0  0  0  0  0  0  0  0
  -25.4378  -20.4782   17.8447 C   0  0  0  0  0  0  0  0  0  0  0  0
  -18.8605  -25.8644   20.1166 C   0  0  0  0  0  0  0  0  0  0  0  0
  -25.0328  -25.5795   23.3316 C   0  0  0  0  0  0  0  0  0  0  0  0
  -26.4858  -27.7927   22.0142 C   0  0  0  0  0  0  0  0  0  0  0  0
  -19.8245  -27.0429   20.2265 C   0  0  0  0  0  0  0  0  0  0  0  0
  -26.5537  -20.1996   21.2761 C   0  0  0  0  0  0  0  0  0  0  0  0
  -21.1206  -26.7438   19.4797 C   0  0  0  0  0  0  0  0  0  0  0  0
  -27.1486  -18.7903   21.2890 C   0  0  0  0  0  0  0  0  0  0  0  0
  -25.3061  -20.2650   20.4001 C   0  0  0  0  0  0  0  0  0  0  0  0
  -26.1072  -18.3952   19.0089 C   0  0  0  0  0  0  0  0  0  0  0  0
  -21.8363  -25.5286   20.0817 C   0  0  1  0  0  0  0  0  0  0  0  0
  -24.2989  -26.7585   22.7002 C   0  0  1  0  0  0  0  0  0  0  0  0
  -27.3843  -18.2685   19.8592 C   0  0  2  0  0  0  0  0  0  0  0  0
  -27.3973  -22.4215   12.6098 C   0  0  0  0  0  0  0  0  0  0  0  0
  -26.9505  -23.9540   18.1615 C   0  0  0  0  0  0  0  0  0  0  0  0
  -27.3312  -33.3513   25.4099 C   0  0  0  0  0  0  0  0  0  0  0  0
  -24.4236  -30.5997   20.1331 C   0  0  0  0  0  0  0  0  0  0  0  0
  -25.6715  -32.5257   21.1338 C   0  0  0  0  0  0  0  0  0  0  0  0
  -23.4288  -31.8961   22.0262 C   0  0  0  0  0  0  0  0  0  0  0  0
  -27.8945  -29.8533   26.7965 C   0  0  0  0  0  0  0  0  0  0  0  0
  -24.7320  -22.6252   16.8203 C   0  0  0  0  0  0  0  0  0  0  0  0
  -29.4019  -24.5051   16.6804 C   0  0  0  0  0  0  0  0  0  0  0  0
  -31.5823  -23.5354   19.6749 C   0  0  0  0  0  0  0  0  0  0  0  0
  -31.1218  -24.3658   18.4864 C   0  0  0  0  0  0  0  0  0  0  0  0
  -30.5461  -23.4292   20.7870 C   0  0  0  0  0  0  0  0  0  1  0  0
  -25.4166  -30.4102   22.5088 C   0  0  1  0  0  0  0  0  0  0  0  0
  -27.0292  -31.8745   25.6112 C   0  0  2  0  0  0  0  0  0  0  0  0
  -24.7461  -31.3317   21.4511 C   0  0  0  0  0  0  0  0  0  0  0  0
  -27.0627  -15.8246   19.7808 N   0  0  0  0  0  0  0  0  0  0  0  0
  -27.9263  -16.8512   19.8602 N   0  0  0  0  0  0  0  0  0  0  0  0
  -25.1391  -27.9524   22.5874 N   0  0  0  0  0  0  0  0  0  0  0  0
  -25.6028  -19.7719   19.0477 N   0  0  0  0  0  0  0  0  0  0  0  0
  -30.2315  -17.3722   20.0191 N   0  0  0  0  0  0  0  0  0  0  0  0
  -30.1889  -12.8575   19.9099 N   0  0  0  0  0  0  0  0  0  0  0  0
  -22.5200  -25.8983   21.3025 N   0  0  0  0  0  0  0  0  0  0  0  0
  -25.7086  -31.0700   23.7768 N   0  0  0  0  0  0  0  0  0  0  0  0
  -24.9491  -21.7731   17.9682 N   0  0  0  0  0  0  0  0  0  0  0  0
  -28.0800  -31.2963   26.4958 N   0  3  0  0  0  0  0  0  0  0  0  0
  -29.9338  -23.7509   17.8491 N   0  3  0  0  0  0  0  0  0  0  0  0
  -31.5411  -14.7038   20.0565 O   0  0  0  0  0  0  0  0  0  0  0  0
  -24.4863  -26.7005   20.3472 O   0  0  0  0  0  0  0  0  0  0  0  0
  -23.4441  -29.3744   23.3231 O   0  0  0  0  0  0  0  0  0  0  0  0
  -27.9912  -30.6619   23.7561 O   0  0  0  0  0  0  0  0  0  0  0  0
  -25.7110  -19.9926   16.7417 O   0  0  0  0  0  0  0  0  0  0  0  0
  -25.6741   -9.6146   19.5428 O   0  0  0  0  0  0  0  0  0  0  0  0
  -30.2343  -24.7428   21.2491 O   0  0  0  0  0  0  0  0  0  1  0  0
  -21.2809   -8.5386   22.6966 F   0  0  0  0  0  0  0  0  0  0  0  0
  -25.7557   -7.6207   21.4561 F   0  0  0  0  0  0  0  0  0  0  0  0
  1  2  1  0  0  0  0
  1  5  2  0  0  0  0
  2  6  2  0  0  0  0
  3  8  2  0  0  0  0
  3 17  1  0  0  0  0
  4  9  1  0  0  0  0
  4 17  2  0  0  0  0
  5 19  1  0  0  0  0
  6 21  1  0  0  0  0
  7 10  2  0  0  0  0
  7 20  1  0  0  0  0
  8 27  1  0  0  0  0
  9 27  2  0  0  0  0
 10 28  1  0  0  0  0
 11 12  2  0  0  0  0
 11 29  1  0  0  0  0
 12 30  1  0  0  0  0
 13 22  1  0  0  0  0
 13 28  2  0  0  0  0
 14 23  1  0  0  0  0
 14 24  2  0  0  0  0
 15 23  2  0  0  0  0
 15 25  1  0  0  0  0
 16 30  2  0  0  0  0
 16 31  1  0  0  0  0
 17 32  1  0  0  0  0
 18 32  1  0  0  0  0
 18 33  2  0  0  0  0
 18 34  1  0  0  0  0
 19 21  2  0  0  0  0
 19 39  1  0  0  0  0
 20 22  2  0  0  0  0
 20 40  1  0  0  0  0
 21 48  1  0  0  0  0
 22 41  1  0  0  0  0
 23 51  1  0  0  0  0
 24 26  1  0  0  0  0
 24 58  1  0  0  0  0
 25 26  2  0  0  0  0
 25 59  1  0  0  0  0
 26 52  1  0  0  0  0
 27 82  1  0  0  0  0
 28 83  1  0  0  0  0
 29 31  2  0  0  0  0
 29 82  1  0  0  0  0
 30 84  1  0  0  0  0
 31 85  1  0  0  0  0
 32 66  2  0  0  0  0
 33 67  1  0  0  0  0
 33 70  1  0  0  0  0
 34 71  1  0  0  0  0
 34 77  2  0  0  0  0
 35 49  1  0  0  0  0
 35 72  1  0  0  0  0
 35 78  2  0  0  0  0
 36 63  1  0  0  0  0
 36 68  1  0  0  0  0
 36 79  2  0  0  0  0
 37 64  1  0  0  0  0
 37 73  1  0  0  0  0
 37 80  2  0  0  0  0
 38 69  1  0  0  0  0
 38 74  1  0  0  0  0
 38 81  2  0  0  0  0
 39 42  1  0  0  0  0
 40 49  1  0  0  0  0
 41 68  1  0  0  0  0
 42 44  1  0  0  0  0
 43 45  1  0  0  0  0
 43 46  1  0  0  0  0
 44 48  1  0  0  0  0
 45 50  1  0  0  0  0
 46 69  1  0  0  0  0
 47 50  1  0  0  0  0
 47 69  1  0  0  0  0
 48 72  1  0  0  0  0
 49 68  1  0  0  0  0
 50 67  1  0  0  0  0
 53 64  1  0  0  0  0
 54 65  1  0  0  0  0
 55 65  1  0  0  0  0
 56 65  1  0  0  0  0
 57 75  1  0  0  0  0
 58 74  1  0  0  0  0
 59 76  1  0  0  0  0
 60 61  1  0  0  0  0
 60 62  1  0  0  0  0
 61 76  1  0  0  0  0
 62 83  1  0  0  0  0
 63 65  1  0  0  0  0
 63 73  1  0  0  0  0
 64 75  1  0  0  0  0
 66 67  1  0  0  0  0
M  CHG  2  75   1  76   1
M  ISO  4  38 100  62 101  74 100  83 101
M  END
> <Batch ID>
0040

> <Smiles>
CNC(C)C(=O)NC(C(=O)N1Cc2cc([101O:1][101CH2:1]CCNCc3cc(C)cc(C[100NH:0][100C:0](=O)N4CCCC(n5nc(-c6ccc(Oc7ccc(F)cc7F)cc6)c(C(N)=O)c5N)C4)c3C)ccc2CC1C(=O)NC1CCCc2ccccc21)C(C)(C)C

> <Shape>
0.219

> <Color>
0.068

> <Negative vol penalty>
0.000

$$$$

  -OEChem-04042322063D

 85 93  0     1  0  0  0  0  0999 V2000
  -27.5031  -12.0580   17.5532 C   0  0  0  0  0  0  0  0  0  0  0  0
  -26.6421  -13.0357   17.0653 C   0  0  0  0  0  0  0  0  0  0  0  0
  -28.9581  -25.7069   19.5219 C   0  0  0  0  0  0  0  0  0  0  0  0
  -26.9232  -24.4105   19.3972 C   0  0  0  0  0  0  0  0  0  0  0  0
  -27.3956  -11.6336   18.8769 C   0  0  0  0  0  0  0  0  0  0  0  0
  -25.6722  -13.5889   17.9006 C   0  0  0  0  0  0  0  0  0  0  0  0
  -23.6393  -19.3657   17.8598 C   0  0  0  0  0  0  0  0  0  0  0  0
  -29.6794  -24.5474   19.8063 C   0  0  0  0  0  0  0  0  0  0  0  0
  -27.6445  -23.2510   19.6816 C   0  0  0  0  0  0  0  0  0  0  0  0
  -22.5077  -19.9580   17.3006 C   0  0  0  0  0  0  0  0  0  0  0  0
  -29.6484  -21.0958   18.0203 C   0  0  0  0  0  0  0  0  0  0  0  0
  -29.3805  -19.9629   17.2520 C   0  0  0  0  0  0  0  0  0  0  0  0
  -21.3673  -19.7636   19.4174 C   0  0  0  0  0  0  0  0  0  0  0  0
  -19.0020  -26.9354   21.4977 C   0  0  0  0  0  0  0  0  0  0  0  0
  -18.8967  -24.8120   22.6451 C   0  0  0  0  0  0  0  0  0  0  0  0
  -28.7361  -18.7623   19.2472 C   0  0  0  0  0  0  0  0  0  0  0  0
  -27.5800  -25.6385   19.3174 C   0  0  0  0  0  0  0  0  0  0  0  0
  -26.5651  -27.3802   17.7541 C   0  0  0  0  0  0  0  0  0  0  0  0
  -26.4302  -12.1889   19.7316 C   0  0  0  0  0  0  0  0  0  0  0  0
  -23.6396  -18.9573   19.2013 C   0  0  0  0  0  0  0  0  0  0  0  0
  -25.5508  -13.1707   19.2366 C   0  0  0  0  0  0  0  0  0  0  0  0
  -22.5010  -19.1687   19.9919 C   0  0  0  0  0  0  0  0  0  0  0  0
  -18.5847  -25.6052   21.5410 C   0  0  0  0  0  0  0  0  0  0  0  0
  -19.7315  -27.4725   22.5584 C   0  0  0  0  0  0  0  0  0  0  0  0
  -20.0435  -26.6792   23.6626 C   0  0  0  0  0  0  0  0  0  0  0  0
  -29.0226  -23.3194   19.8861 C   0  0  0  0  0  0  0  0  0  0  0  0
  -21.3705  -20.1543   18.0786 C   0  0  0  0  0  0  0  0  0  0  0  0
  -29.4604  -21.0619   19.4021 C   0  0  0  0  0  0  0  0  0  0  0  0
  -28.9243  -18.7962   17.8654 C   0  0  0  0  0  0  0  0  0  0  0  0
  -29.0042  -19.8952   20.0155 C   0  0  0  0  0  0  0  0  0  0  0  0
  -19.6261  -25.3490   23.7059 C   0  0  0  0  0  0  0  0  0  0  0  0
  -26.8342  -26.8360   19.0242 C   0  0  0  0  0  0  0  0  0  0  0  0
  -25.8285  -28.5100   18.0137 C   0  0  0  0  0  0  0  0  0  0  0  0
  -26.9468  -26.9068   16.4557 C   0  0  0  0  0  0  0  0  0  0  0  0
  -23.9681  -16.1726   20.6983 C   0  0  0  0  0  0  0  0  0  0  0  0
  -23.9376  -18.0385   23.3516 C   0  0  0  0  0  0  0  0  0  0  0  0
  -23.0165  -20.9815   24.8134 C   0  0  0  0  0  0  0  0  0  0  0  0
  -22.3205  -30.1283   22.5882 C   0  0  0  0  0  0  0  0  0  0  0  0
  -26.3212  -11.6643   21.1415 C   0  0  0  0  0  0  0  0  0  0  0  0
  -24.8773  -18.3443   19.7968 C   0  0  0  0  0  0  0  0  0  0  0  0
  -22.4572  -18.7667   21.4428 C   0  0  0  0  0  0  0  0  0  0  0  0
  -25.5119  -12.5691   22.0671 C   0  0  0  0  0  0  0  0  0  0  0  0
  -25.1744  -31.8668   21.3597 C   0  0  0  0  0  0  0  0  0  0  0  0
  -24.2160  -13.0036   21.3898 C   0  0  0  0  0  0  0  0  0  0  0  0
  -25.8992  -30.8237   20.5072 C   0  0  0  0  0  0  0  0  0  0  0  0
  -24.5346  -31.2393   22.5961 C   0  0  0  0  0  0  0  0  0  0  0  0
  -24.3670  -29.0548   21.4675 C   0  0  0  0  0  0  0  0  0  0  0  0
  -24.5021  -13.8125   20.1188 C   0  0  1  0  0  0  0  0  0  0  0  0
  -24.5897  -17.4988   21.0336 C   0  0  1  0  0  0  0  0  0  0  0  0
  -24.9809  -29.6308   20.1800 C   0  0  2  0  0  0  0  0  0  0  0  0
  -20.8276  -27.2709   24.7923 C   0  0  0  0  0  0  0  0  0  0  0  0
  -23.0968  -22.2028   27.0041 C   0  0  0  0  0  0  0  0  0  0  0  0
  -21.6915  -16.2695   24.4173 C   0  0  0  0  0  0  0  0  0  0  0  0
  -21.1819  -18.0508   26.1012 C   0  0  0  0  0  0  0  0  0  0  0  0
  -23.4048  -16.9190   26.1195 C   0  0  0  0  0  0  0  0  0  0  0  0
  -24.6072  -23.1922   23.6551 C   0  0  0  0  0  0  0  0  0  0  0  0
  -20.1667  -28.8997   22.4844 C   0  0  0  0  0  0  0  0  0  0  0  0
  -17.7992  -25.0286   20.4001 C   0  0  0  0  0  0  0  0  0  0  0  0
  -18.7480  -22.5886   17.6060 C   0  0  0  0  0  0  0  0  0  0  0  0
  -17.8420  -23.4836   18.4380 C   0  0  0  0  0  0  0  0  0  0  0  0
  -19.4307  -21.4894   18.4108 C   0  0  0  0  0  0  0  0  0  1  0  0
  -22.8666  -18.5641   24.2766 C   0  0  1  0  0  0  0  0  0  0  0  0
  -23.7907  -21.9655   25.6718 C   0  0  2  0  0  0  0  0  0  0  0  0
  -22.2860  -17.4568   25.2008 C   0  0  0  0  0  0  0  0  0  0  0  0
  -26.3113  -27.5605   20.0170 N   0  0  0  0  0  0  0  0  0  0  0  0
  -25.7062  -28.5716   19.3707 N   0  0  0  0  0  0  0  0  0  0  0  0
  -23.6902  -18.1655   21.9773 N   0  0  0  0  0  0  0  0  0  0  0  0
  -23.6751  -30.1154   22.2168 N   0  0  0  0  0  0  0  0  0  0  0  0
  -25.2799  -29.4469   17.2114 N   0  0  0  0  0  0  0  0  0  0  0  0
  -27.7028  -25.7298   16.3693 N   0  0  0  0  0  0  0  0  0  0  0  0
  -24.8844  -15.1667   20.4570 N   0  0  0  0  0  0  0  0  0  0  0  0
  -23.4607  -19.6884   24.9917 N   0  0  0  0  0  0  0  0  0  0  0  0
  -21.5751  -29.0278   22.1833 N   0  0  0  0  0  0  0  0  0  0  0  0
  -23.9213  -23.2738   24.9703 N   0  3  0  0  0  0  0  0  0  0  0  0
  -18.6043  -24.1200   19.5377 N   0  3  0  0  0  0  0  0  0  0  0  0
  -26.6409  -27.5186   15.4042 O   0  0  0  0  0  0  0  0  0  0  0  0
  -22.7476  -16.0691   20.6626 O   0  0  0  0  0  0  0  0  0  0  0  0
  -24.9593  -17.5402   23.8306 O   0  0  0  0  0  0  0  0  0  0  0  0
  -22.1060  -21.3251   24.0626 O   0  0  0  0  0  0  0  0  0  0  0  0
  -21.8117  -31.0548   23.2284 O   0  0  0  0  0  0  0  0  0  0  0  0
  -29.7262  -22.1878   20.1634 O   0  0  0  0  0  0  0  0  0  0  0  0
  -20.2645  -20.7316   17.5352 O   0  0  0  0  0  0  0  0  0  1  0  0
  -28.6655  -17.7088   17.1273 F   0  0  0  0  0  0  0  0  0  0  0  0
  -28.8205  -19.8570   21.3423 F   0  0  0  0  0  0  0  0  0  0  0  0
  -19.9906  -24.3353   25.0553 Cl  0  0  0  0  0  0  0  0  0  0  0  0
  1  2  1  0  0  0  0
  1  5  2  0  0  0  0
  2  6  2  0  0  0  0
  3  8  2  0  0  0  0
  3 17  1  0  0  0  0
  4  9  1  0  0  0  0
  4 17  2  0  0  0  0
  5 19  1  0  0  0  0
  6 21  1  0  0  0  0
  7 10  2  0  0  0  0
  7 20  1  0  0  0  0
  8 26  1  0  0  0  0
  9 26  2  0  0  0  0
 10 27  1  0  0  0  0
 11 12  2  0  0  0  0
 11 28  1  0  0  0  0
 12 29  1  0  0  0  0
 13 22  1  0  0  0  0
 13 27  2  0  0  0  0
 14 23  2  0  0  0  0
 14 24  1  0  0  0  0
 15 23  1  0  0  0  0
 15 31  2  0  0  0  0
 16 29  2  0  0  0  0
 16 30  1  0  0  0  0
 17 32  1  0  0  0  0
 18 32  1  0  0  0  0
 18 33  2  0  0  0  0
 18 34  1  0  0  0  0
 19 21  2  0  0  0  0
 19 39  1  0  0  0  0
 20 22  2  0  0  0  0
 20 40  1  0  0  0  0
 21 48  1  0  0  0  0
 22 41  1  0  0  0  0
 23 58  1  0  0  0  0
 24 25  2  0  0  0  0
 24 57  1  0  0  0  0
 25 31  1  0  0  0  0
 25 51  1  0  0  0  0
 26 81  1  0  0  0  0
 27 82  1  0  0  0  0
 28 30  2  0  0  0  0
 28 81  1  0  0  0  0
 29 83  1  0  0  0  0
 30 84  1  0  0  0  0
 31 85  1  0  0  0  0
 32 65  2  0  0  0  0
 33 66  1  0  0  0  0
 33 69  1  0  0  0  0
 34 70  1  0  0  0  0
 34 76  2  0  0  0  0
 35 49  1  0  0  0  0
 35 71  1  0  0  0  0
 35 77  2  0  0  0  0
 36 62  1  0  0  0  0
 36 67  1  0  0  0  0
 36 78  2  0  0  0  0
 37 63  1  0  0  0  0
 37 72  1  0  0  0  0
 37 79  2  0  0  0  0
 38 68  1  0  0  0  0
 38 73  1  0  0  0  0
 38 80  2  0  0  0  0
 39 42  1  0  0  0  0
 40 49  1  0  0  0  0
 41 67  1  0  0  0  0
 42 44  1  0  0  0  0
 43 45  1  0  0  0  0
 43 46  1  0  0  0  0
 44 48  1  0  0  0  0
 45 50  1  0  0  0  0
 46 68  1  0  0  0  0
 47 50  1  0  0  0  0
 47 68  1  0  0  0  0
 48 71  1  0  0  0  0
 49 67  1  0  0  0  0
 50 66  1  0  0  0  0
 52 63  1  0  0  0  0
 53 64  1  0  0  0  0
 54 64  1  0  0  0  0
 55 64  1  0  0  0  0
 56 74  1  0  0  0  0
 57 73  1  0  0  0  0
 58 75  1  0  0  0  0
 59 60  1  0  0  0  0
 59 61  1  0  0  0  0
 60 75  1  0  0  0  0
 61 82  1  0  0  0  0
 62 64  1  0  0  0  0
 62 72  1  0  0  0  0
 63 74  1  0  0  0  0
 65 66  1  0  0  0  0
M  CHG  2  74   1  75   1
M  ISO  4  38 100  61 101  73 100  82 101
M  END
> <Batch ID>
0040

> <Smiles>
CNC(C)C(=O)NC(C(=O)N1Cc2cc([101O:1][101CH2:1]CCNCc3cc(Cl)c(C)c(C[100NH:0][100C:0](=O)N4CCCC(n5nc(-c6ccc(Oc7ccc(F)cc7F)cc6)c(C(N)=O)c5N)C4)c3)ccc2CC1C(=O)NC1CCCc2ccccc21)C(C)(C)C

> <Shape>
0.204

> <Color>
0.073

> <Negative vol penalty>
0.000

$$$$

  -OEChem-04042322063D

 83 91  0     1  0  0  0  0  0999 V2000
  -24.7396  -37.0989   21.1146 C   0  0  0  0  0  0  0  0  0  0  0  0
  -25.4504  -36.0178   20.6032 C   0  0  0  0  0  0  0  0  0  0  0  0
  -24.4298   -9.3805   21.7114 C   0  0  0  0  0  0  0  0  0  0  0  0
  -22.5958  -10.4722   20.5794 C   0  0  0  0  0  0  0  0  0  0  0  0
  -24.1567  -37.0135   22.3783 C   0  0  0  0  0  0  0  0  0  0  0  0
  -25.5796  -34.8510   21.3558 C   0  0  0  0  0  0  0  0  0  0  0  0
  -25.7577  -29.1066   19.2402 C   0  0  0  0  0  0  0  0  0  0  0  0
  -23.7036   -8.1900   21.7400 C   0  0  0  0  0  0  0  0  0  0  0  0
  -21.8695   -9.2817   20.6079 C   0  0  0  0  0  0  0  0  0  0  0  0
  -26.8144  -28.2350   18.9804 C   0  0  0  0  0  0  0  0  0  0  0  0
  -21.1924   -6.8479   23.5612 C   0  0  0  0  0  0  0  0  0  0  0  0
  -21.1764   -6.1279   24.7557 C   0  0  0  0  0  0  0  0  0  0  0  0
  -26.5137  -27.2322   21.1537 C   0  0  0  0  0  0  0  0  0  0  0  0
  -27.0363  -20.4810   18.7946 C   0  0  0  0  0  0  0  0  0  0  0  0
  -26.8651  -20.3703   21.5769 C   0  0  0  0  0  0  0  0  0  0  0  0
  -22.1733   -4.2372   23.6294 C   0  0  0  0  0  0  0  0  0  0  0  0
  -23.8759  -10.5217   21.1311 C   0  0  0  0  0  0  0  0  0  0  0  0
  -25.5063  -12.1868   20.0935 C   0  0  0  0  0  0  0  0  0  0  0  0
  -24.2707  -35.8416   23.1427 C   0  0  0  0  0  0  0  0  0  0  0  0
  -25.0769  -29.0547   20.4651 C   0  0  0  0  0  0  0  0  0  0  0  0
  -24.9988  -34.7503   22.6314 C   0  0  0  0  0  0  0  0  0  0  0  0
  -25.4470  -28.1025   21.4255 C   0  0  0  0  0  0  0  0  0  0  0  0
  -26.1828  -19.5619   19.4048 C   0  0  0  0  0  0  0  0  0  0  0  0
  -27.8044  -21.3447   19.5756 C   0  0  0  0  0  0  0  0  0  0  0  0
  -26.0971  -19.5066   20.7959 C   0  0  0  0  0  0  0  0  0  0  0  0
  -22.4234   -8.1406   21.1882 C   0  0  0  0  0  0  0  0  0  0  0  0
  -27.1944  -27.2996   19.9383 C   0  0  0  0  0  0  0  0  0  0  0  0
  -21.6987   -6.2626   22.4007 C   0  0  0  0  0  0  0  0  0  0  0  0
  -21.6669   -4.8226   24.7899 C   0  0  0  0  0  0  0  0  0  0  0  0
  -22.1892   -4.9572   22.4349 C   0  0  0  0  0  0  0  0  0  0  0  0
  -27.7187  -21.2894   20.9667 C   0  0  0  0  0  0  0  0  0  0  0  0
  -24.6254  -11.7519   21.1018 C   0  0  0  0  0  0  0  0  0  0  0  0
  -25.9584  -13.4063   20.5351 C   0  0  0  0  0  0  0  0  0  0  0  0
  -25.8822  -11.5459   18.8673 C   0  0  0  0  0  0  0  0  0  0  0  0
  -24.6360  -31.0812   22.8739 C   0  0  0  0  0  0  0  0  0  0  0  0
  -22.6560  -28.7520   23.9586 C   0  0  0  0  0  0  0  0  0  0  0  0
  -21.7948  -25.4497   23.9596 C   0  0  0  0  0  0  0  0  0  0  0  0
  -25.0473  -18.4082   22.8053 C   0  0  0  0  0  0  0  0  0  0  0  0
  -23.6635  -35.8133   24.5230 C   0  0  0  0  0  0  0  0  0  0  0  0
  -23.9219  -29.9839   20.7193 C   0  0  0  0  0  0  0  0  0  0  0  0
  -24.7353  -27.9924   22.7483 C   0  0  0  0  0  0  0  0  0  0  0  0
  -23.5292  -34.4066   25.1006 C   0  0  0  0  0  0  0  0  0  0  0  0
  -25.4700  -15.6668   25.0377 C   0  0  0  0  0  0  0  0  0  0  0  0
  -24.8209  -33.6209   24.8982 C   0  0  0  0  0  0  0  0  0  0  0  0
  -25.3604  -14.4397   24.1298 C   0  0  0  0  0  0  0  0  0  0  0  0
  -24.5164  -16.7792   24.6052 C   0  0  0  0  0  0  0  0  0  0  0  0
  -24.5119  -15.9465   22.2867 C   0  0  0  0  0  0  0  0  0  0  0  0
  -25.1401  -33.4587   23.4072 C   0  0  1  0  0  0  0  0  0  0  0  0
  -23.6328  -30.1856   22.2036 C   0  0  1  0  0  0  0  0  0  0  0  0
  -25.5000  -14.8239   22.6437 C   0  0  2  0  0  0  0  0  0  0  0  0
  -25.3733  -18.6474   18.5435 C   0  0  0  0  0  0  0  0  0  0  0  0
  -20.1567  -23.8414   24.9733 C   0  0  0  0  0  0  0  0  0  0  0  0
  -24.2113  -28.8254   26.5826 C   0  0  0  0  0  0  0  0  0  0  0  0
  -23.1878  -26.6175   27.1704 C   0  0  0  0  0  0  0  0  0  0  0  0
  -21.7329  -28.6174   26.8445 C   0  0  0  0  0  0  0  0  0  0  0  0
  -20.6925  -24.7226   21.3110 C   0  0  0  0  0  0  0  0  0  0  0  0
  -28.7107  -22.3179   18.8811 C   0  0  0  0  0  0  0  0  0  0  0  0
  -29.0964  -24.7095   18.2726 C   0  0  0  0  0  0  0  0  0  0  0  0
  -28.4466  -26.0781   18.3271 C   0  0  0  0  0  0  0  0  0  1  0  0
  -22.8181  -27.5333   24.8347 C   0  0  1  0  0  0  0  0  0  0  0  0
  -20.4530  -24.7586   23.7970 C   0  0  2  0  0  0  0  0  0  0  0  0
  -23.0024  -27.9015   26.3340 C   0  0  0  0  0  0  0  0  0  0  0  0
  -24.5227  -12.6241   22.1082 N   0  0  0  0  0  0  0  0  0  0  0  0
  -25.3450  -13.6192   21.7345 N   0  0  0  0  0  0  0  0  0  0  0  0
  -23.6164  -28.9273   22.9523 N   0  0  0  0  0  0  0  0  0  0  0  0
  -24.7086  -17.0929   23.1877 N   0  0  0  0  0  0  0  0  0  0  0  0
  -26.8170  -14.3064   20.0107 N   0  0  0  0  0  0  0  0  0  0  0  0
  -25.3237  -10.2957   18.5683 N   0  0  0  0  0  0  0  0  0  0  0  0
  -25.2367  -18.5794   21.4344 N   0  0  0  0  0  0  0  0  0  0  0  0
  -24.3138  -32.4240   22.8231 N   0  0  0  0  0  0  0  0  0  0  0  0
  -21.6648  -26.6812   24.5661 N   0  0  0  0  0  0  0  0  0  0  0  0
  -20.4382  -23.9430   22.5498 N   0  3  0  0  0  0  0  0  0  0  0  0
  -28.1927  -23.7126   18.9001 N   0  3  0  0  0  0  0  0  0  0  0  0
  -26.7021  -12.0589   18.0685 O   0  0  0  0  0  0  0  0  0  0  0  0
  -25.6280  -30.5902   23.3996 O   0  0  0  0  0  0  0  0  0  0  0  0
  -21.7079  -29.5163   24.1552 O   0  0  0  0  0  0  0  0  0  0  0  0
  -22.8528  -24.9458   23.5893 O   0  0  0  0  0  0  0  0  0  0  0  0
  -25.1876  -19.3096   23.6358 O   0  0  0  0  0  0  0  0  0  0  0  0
  -21.7146   -6.9790   21.2158 O   0  0  0  0  0  0  0  0  0  0  0  0
  -28.2260  -26.4481   19.6875 O   0  0  0  0  0  0  0  0  0  1  0  0
  -21.6530   -4.1318   25.9374 F   0  0  0  0  0  0  0  0  0  0  0  0
  -22.6780   -4.3900   21.3235 F   0  0  0  0  0  0  0  0  0  0  0  0
  -28.6539  -22.3420   21.9653 Cl  0  0  0  0  0  0  0  0  0  0  0  0
  1  2  1  0  0  0  0
  1  5  2  0  0  0  0
  2  6  2  0  0  0  0
  3  8  2  0  0  0  0
  3 17  1  0  0  0  0
  4  9  1  0  0  0  0
  4 17  2  0  0  0  0
  5 19  1  0  0  0  0
  6 21  1  0  0  0  0
  7 10  2  0  0  0  0
  7 20  1  0  0  0  0
  8 26  1  0  0  0  0
  9 26  2  0  0  0  0
 10 27  1  0  0  0  0
 11 12  2  0  0  0  0
 11 28  1  0  0  0  0
 12 29  1  0  0  0  0
 13 22  1  0  0  0  0
 13 27  2  0  0  0  0
 14 23  2  0  0  0  0
 14 24  1  0  0  0  0
 15 25  2  0  0  0  0
 15 31  1  0  0  0  0
 16 29  2  0  0  0  0
 16 30  1  0  0  0  0
 17 32  1  0  0  0  0
 18 32  1  0  0  0  0
 18 33  2  0  0  0  0
 18 34  1  0  0  0  0
 19 21  2  0  0  0  0
 19 39  1  0  0  0  0
 20 22  2  0  0  0  0
 20 40  1  0  0  0  0
 21 48  1  0  0  0  0
 22 41  1  0  0  0  0
 23 25  1  0  0  0  0
 23 51  1  0  0  0  0
 24 31  2  0  0  0  0
 24 57  1  0  0  0  0
 25 69  1  0  0  0  0
 26 79  1  0  0  0  0
 27 80  1  0  0  0  0
 28 30  2  0  0  0  0
 28 79  1  0  0  0  0
 29 81  1  0  0  0  0
 30 82  1  0  0  0  0
 31 83  1  0  0  0  0
 32 63  2  0  0  0  0
 33 64  1  0  0  0  0
 33 67  1  0  0  0  0
 34 68  1  0  0  0  0
 34 74  2  0  0  0  0
 35 49  1  0  0  0  0
 35 70  1  0  0  0  0
 35 75  2  0  0  0  0
 36 60  1  0  0  0  0
 36 65  1  0  0  0  0
 36 76  2  0  0  0  0
 37 61  1  0  0  0  0
 37 71  1  0  0  0  0
 37 77  2  0  0  0  0
 38 66  1  0  0  0  0
 38 69  1  0  0  0  0
 38 78  2  0  0  0  0
 39 42  1  0  0  0  0
 40 49  1  0  0  0  0
 41 65  1  0  0  0  0
 42 44  1  0  0  0  0
 43 45  1  0  0  0  0
 43 46  1  0  0  0  0
 44 48  1  0  0  0  0
 45 50  1  0  0  0  0
 46 66  1  0  0  0  0
 47 50  1  0  0  0  0
 47 66  1  0  0  0  0
 48 70  1  0  0  0  0
 49 65  1  0  0  0  0
 50 64  1  0  0  0  0
 52 61  1  0  0  0  0
 53 62  1  0  0  0  0
 54 62  1  0  0  0  0
 55 62  1  0  0  0  0
 56 72  1  0  0  0  0
 57 73  1  0  0  0  0
 58 59  1  0  0  0  0
 58 73  1  0  0  0  0
 59 80  1  0  0  0  0
 60 62  1  0  0  0  0
 60 71  1  0  0  0  0
 61 72  1  0  0  0  0
 63 64  1  0  0  0  0
M  CHG  2  72   1  73   1
M  ISO  4  38 100  59 101  69 100  80 101
M  END
> <Batch ID>
0040

> <Smiles>
CNC(C)C(=O)NC(C(=O)N1Cc2cc([101O:1][101CH2:1]CNCc3cc(C)c([100NH:0][100C:0](=O)N4CCCC(n5nc(-c6ccc(Oc7ccc(F)cc7F)cc6)c(C(N)=O)c5N)C4)cc3Cl)ccc2CC1C(=O)NC1CCCc2ccccc21)C(C)(C)C

> <Shape>
0.269

> <Color>
0.113

> <Negative vol penalty>
0.000

$$$$

  -OEChem-04042322063D

 87 96  0     1  0  0  0  0  0999 V2000
  -23.3609  -32.2622   14.3829 C   0  0  0  0  0  0  0  0  0  0  0  0
  -24.3744  -31.5207   14.9815 C   0  0  0  0  0  0  0  0  0  0  0  0
  -24.5082   -9.9577   22.3725 C   0  0  0  0  0  0  0  0  0  0  0  0
  -24.1451   -9.9910   19.9842 C   0  0  0  0  0  0  0  0  0  0  0  0
  -22.7138  -33.2652   15.1035 C   0  0  0  0  0  0  0  0  0  0  0  0
  -24.7422  -31.7825   16.3008 C   0  0  0  0  0  0  0  0  0  0  0  0
  -25.3226  -27.5570   19.0308 C   0  0  0  0  0  0  0  0  0  0  0  0
  -29.5136  -21.1478   23.9597 C   0  0  0  0  0  0  0  0  0  0  0  0
  -29.7849  -19.9119   24.5466 C   0  0  0  0  0  0  0  0  0  0  0  0
  -24.2569   -8.5858   22.3917 C   0  0  0  0  0  0  0  0  0  0  0  0
  -23.8938   -8.6191   20.0033 C   0  0  0  0  0  0  0  0  0  0  0  0
  -26.5048  -26.8401   18.8511 C   0  0  0  0  0  0  0  0  0  0  0  0
  -21.5625   -6.5464   22.3212 C   0  0  0  0  0  0  0  0  0  0  0  0
  -20.7271   -6.0552   23.3244 C   0  0  0  0  0  0  0  0  0  0  0  0
  -27.3994  -27.8223   20.8646 C   0  0  0  0  0  0  0  0  0  0  0  0
  -22.5194   -4.6486   24.1281 C   0  0  0  0  0  0  0  0  0  0  0  0
  -24.4523  -10.6604   21.1688 C   0  0  0  0  0  0  0  0  0  0  0  0
  -24.0035  -13.0810   21.8371 C   0  0  0  0  0  0  0  0  0  0  0  0
  -23.0673  -33.5329   16.4355 C   0  0  0  0  0  0  0  0  0  0  0  0
  -25.1738  -28.4217   20.1247 C   0  0  0  0  0  0  0  0  0  0  0  0
  -24.1002  -32.7909   17.0395 C   0  0  0  0  0  0  0  0  0  0  0  0
  -26.2133  -28.5471   21.0573 C   0  0  0  0  0  0  0  0  0  0  0  0
  -28.9820  -21.2064   22.6714 C   0  0  0  0  0  0  0  0  0  0  0  0
  -29.5248  -18.7346   23.8453 C   0  0  0  0  0  0  0  0  0  0  0  0
  -28.7219  -20.0291   21.9700 C   0  0  0  0  0  0  0  0  0  0  0  0
  -28.9932  -18.7932   22.5569 C   0  0  0  0  0  0  0  0  0  0  0  0
  -23.9497   -7.9165   21.2070 C   0  0  0  0  0  0  0  0  0  0  0  0
  -27.5445  -26.9749   19.7664 C   0  0  0  0  0  0  0  0  0  0  0  0
  -22.8763   -6.0886   22.2213 C   0  0  0  0  0  0  0  0  0  0  0  0
  -21.2056   -5.1063   24.2279 C   0  0  0  0  0  0  0  0  0  0  0  0
  -23.3548   -5.1397   23.1248 C   0  0  0  0  0  0  0  0  0  0  0  0
  -24.7112  -12.0776   21.1486 C   0  0  0  0  0  0  0  0  0  0  0  0
  -24.6373  -14.2487   21.4889 C   0  0  0  0  0  0  0  0  0  0  0  0
  -29.1562  -23.9485   20.1326 C   0  0  0  0  0  0  0  0  0  0  0  0
  -28.7775  -23.5350   18.9119 C   0  0  0  0  0  0  0  0  0  0  0  0
  -22.8742  -12.9677   22.7133 C   0  0  0  0  0  0  0  0  0  0  0  0
  -24.7030  -31.5466   20.4661 C   0  0  0  0  0  0  0  0  0  0  0  0
  -24.4152  -30.7659   23.6014 C   0  0  0  0  0  0  0  0  0  0  0  0
  -26.0835  -28.5763   25.9337 C   0  0  0  0  0  0  0  0  0  0  0  0
  -29.2782  -17.2015   20.6252 C   0  0  0  0  0  0  0  0  0  0  0  0
  -22.3716  -34.6587   17.1589 C   0  0  0  0  0  0  0  0  0  0  0  0
  -23.8821  -29.1675   20.3190 C   0  0  0  0  0  0  0  0  0  0  0  0
  -26.0959  -29.4467   22.2595 C   0  0  0  0  0  0  0  0  0  0  0  0
  -22.5651  -34.6215   18.6727 C   0  0  0  0  0  0  0  0  0  0  0  0
  -28.1239  -15.1716   17.9374 C   0  0  0  0  0  0  0  0  0  0  0  0
  -30.9625  -24.7881   22.1946 C   0  0  0  0  0  0  0  0  0  0  0  0
  -24.0314  -34.3809   19.0176 C   0  0  0  0  0  0  0  0  0  0  0  0
  -30.4197  -25.8123   21.2043 C   0  0  0  0  0  0  0  0  0  0  0  0
  -27.0750  -14.2683   18.5898 C   0  0  0  0  0  0  0  0  0  0  0  0
  -29.3018  -15.4401   18.8725 C   0  0  0  0  0  0  0  0  0  0  0  0
  -27.8878  -15.0495   20.8517 C   0  0  0  0  0  0  0  0  0  0  0  0
  -31.0380  -23.3976   21.5726 C   0  0  0  0  0  0  0  0  0  0  0  0
  -24.5107  -33.0285   18.4766 C   0  0  1  0  0  0  0  0  0  0  0  0
  -29.0735  -25.3745   20.6292 C   0  0  1  0  0  0  0  0  0  1  0  0
  -24.0353  -30.4112   21.1890 C   0  0  1  0  0  0  0  0  0  0  0  0
  -26.6513  -14.8035   19.9717 C   0  0  2  0  0  0  0  0  0  0  0  0
  -29.8267  -17.4258   24.5009 C   0  0  0  0  0  0  0  0  0  0  0  0
  -28.1527  -20.0997   20.5874 C   0  0  0  0  0  0  0  0  0  0  0  0
  -25.2354  -27.4571   28.0135 C   0  0  0  0  0  0  0  0  0  0  0  0
  -25.5595  -33.2056   25.0326 C   0  0  0  0  0  0  0  0  0  0  0  0
  -26.2976  -31.6878   26.8818 C   0  0  0  0  0  0  0  0  0  0  0  0
  -23.8706  -31.9182   26.3534 C   0  0  0  0  0  0  0  0  0  0  0  0
  -26.8748  -25.8978   24.9545 C   0  0  0  0  0  0  0  0  0  0  0  0
  -28.7001  -22.5491   22.0641 C   0  0  0  0  0  0  0  0  0  0  0  0
  -25.3695  -30.6447   24.7649 C   0  0  1  0  0  0  0  0  0  0  0  0
  -25.5316  -27.2943   26.5307 C   0  0  2  0  0  0  0  0  0  0  0  0
  -25.2828  -31.8595   25.7314 C   0  0  0  0  0  0  0  0  0  0  0  0
  -25.7174  -12.5652   20.4180 N   0  0  0  0  0  0  0  0  0  0  0  0
  -25.6465  -13.8878   20.6455 N   0  0  0  0  0  0  0  0  0  0  0  0
  -24.8157  -30.1597   22.4022 N   0  0  0  0  0  0  0  0  0  0  0  0
  -28.8245  -15.9490   20.1601 N   0  0  0  0  0  0  0  0  0  0  0  0
  -24.4241  -15.5387   21.8249 N   0  0  0  0  0  0  0  0  0  0  0  0
  -21.5889  -13.0398   22.1593 N   0  0  0  0  0  0  0  0  0  0  0  0
  -28.7310  -17.5961   21.8456 N   0  0  0  0  0  0  0  0  0  0  0  0
  -24.0422  -31.9512   19.3219 N   0  0  0  0  0  0  0  0  0  0  0  0
  -25.0853  -29.3593   25.3937 N   0  0  0  0  0  0  0  0  0  0  0  0
  -29.7061  -22.9462   21.0191 N   0  3  1  0  0  0  0  0  0  0  0  0
  -26.5107  -26.1829   26.3663 N   0  3  0  0  0  0  0  0  0  0  0  0
  -23.0013  -12.8236   23.9529 O   0  0  0  0  0  0  0  0  0  0  0  0
  -25.7401  -32.0215   20.9140 O   0  0  0  0  0  0  0  0  0  0  0  0
  -23.3504  -31.3699   23.7530 O   0  0  0  0  0  0  0  0  0  0  0  0
  -27.2800  -28.8568   25.9484 O   0  0  0  0  0  0  0  0  0  0  0  0
  -30.0714  -17.8868   19.9747 O   0  0  0  0  0  0  0  0  0  0  0  0
  -23.7047   -6.5778   21.2253 O   0  0  0  0  0  0  0  0  0  0  0  0
  -28.6997  -26.2769   19.5930 O   0  0  0  0  0  0  0  0  0  1  0  0
  -20.4037   -4.6359   25.1922 F   0  0  0  0  0  0  0  0  0  0  0  0
  -24.6164   -4.6970   23.0347 F   0  0  0  0  0  0  0  0  0  0  0  0
  1  2  1  0  0  0  0
  1  5  2  0  0  0  0
  2  6  2  0  0  0  0
  3 10  2  0  0  0  0
  3 17  1  0  0  0  0
  4 11  1  0  0  0  0
  4 17  2  0  0  0  0
  5 19  1  0  0  0  0
  6 21  1  0  0  0  0
  7 12  2  0  0  0  0
  7 20  1  0  0  0  0
  8  9  2  0  0  0  0
  8 23  1  0  0  0  0
  9 24  1  0  0  0  0
 10 27  1  0  0  0  0
 11 27  2  0  0  0  0
 12 28  1  0  0  0  0
 13 14  2  0  0  0  0
 13 29  1  0  0  0  0
 14 30  1  0  0  0  0
 15 22  1  0  0  0  0
 15 28  2  0  0  0  0
 16 30  2  0  0  0  0
 16 31  1  0  0  0  0
 17 32  1  0  0  0  0
 18 32  1  0  0  0  0
 18 33  2  0  0  0  0
 18 36  1  0  0  0  0
 19 21  2  0  0  0  0
 19 41  1  0  0  0  0
 20 22  2  0  0  0  0
 20 42  1  0  0  0  0
 21 53  1  0  0  0  0
 22 43  1  0  0  0  0
 23 25  2  0  0  0  0
 23 64  1  0  0  0  0
 24 26  2  0  0  0  0
 24 57  1  0  0  0  0
 25 26  1  0  0  0  0
 25 58  1  0  0  0  0
 26 74  1  0  0  0  0
 27 84  1  0  0  0  0
 28 85  1  0  0  0  0
 29 31  2  0  0  0  0
 29 84  1  0  0  0  0
 30 86  1  0  0  0  0
 31 87  1  0  0  0  0
 32 68  2  0  0  0  0
 33 69  1  0  0  0  0
 33 72  1  0  0  0  0
 34 35  2  0  0  0  0
 34 54  1  0  0  0  0
 34 77  1  0  0  0  0
 36 73  1  0  0  0  0
 36 79  2  0  0  0  0
 37 55  1  0  0  0  0
 37 75  1  0  0  0  0
 37 80  2  0  0  0  0
 38 65  1  0  0  0  0
 38 70  1  0  0  0  0
 38 81  2  0  0  0  0
 39 66  1  0  0  0  0
 39 76  1  0  0  0  0
 39 82  2  0  0  0  0
 40 71  1  0  0  0  0
 40 74  1  0  0  0  0
 40 83  2  0  0  0  0
 41 44  1  0  0  0  0
 42 55  1  0  0  0  0
 43 70  1  0  0  0  0
 44 47  1  0  0  0  0
 45 49  1  0  0  0  0
 45 50  1  0  0  0  0
 46 48  1  0  0  0  0
 46 52  1  0  0  0  0
 47 53  1  0  0  0  0
 48 54  1  0  0  0  0
 49 56  1  0  0  0  0
 50 71  1  0  0  0  0
 51 56  1  0  0  0  0
 51 71  1  0  0  0  0
 52 77  1  0  0  0  0
 53 75  1  0  0  0  0
 54 85  1  0  0  0  0
 55 70  1  0  0  0  0
 56 69  1  0  0  0  0
 59 66  1  0  0  0  0
 60 67  1  0  0  0  0
 61 67  1  0  0  0  0
 62 67  1  0  0  0  0
 63 78  1  0  0  0  0
 64 77  1  0  0  0  0
 65 67  1  0  0  0  0
 65 76  1  0  0  0  0
 66 78  1  0  0  0  0
 68 69  1  0  0  0  0
M  CHG  2  77   1  78   1
M  ISO  4  40 100  54 101  74 100  85 101
M  END
> <Batch ID>
0040

> <Smiles>
C=C1N(Cc2ccc(C)c([100NH:0][100C:0](=O)N3CCCC(n4nc(-c5ccc(Oc6ccc(F)cc6F)cc5)c(C(N)=O)c4N)C3)c2C)CCC[101CH:1]1[101O:1]c1ccc2c(c1)CN(C(=O)C(NC(=O)C(C)NC)C(C)(C)C)C(C(=O)NC1CCCc3ccccc31)C2

> <Shape>
0.285

> <Color>
0.119

> <Negative vol penalty>
0.000

$$$$

  -OEChem-04042322063D

 91100  0     1  0  0  0  0  0999 V2000
  -27.7424  -37.1869   21.3843 C   0  0  0  0  0  0  0  0  0  0  0  0
  -28.1936  -35.9179   21.0357 C   0  0  0  0  0  0  0  0  0  0  0  0
  -23.3486   -9.9610   19.9198 C   0  0  0  0  0  0  0  0  0  0  0  0
  -23.5991  -10.1595   22.3146 C   0  0  0  0  0  0  0  0  0  0  0  0
  -26.7580  -37.3316   22.3610 C   0  0  0  0  0  0  0  0  0  0  0  0
  -27.6614  -34.7929   21.6646 C   0  0  0  0  0  0  0  0  0  0  0  0
  -26.6900  -29.2895   19.1597 C   0  0  0  0  0  0  0  0  0  0  0  0
  -22.4754   -8.8884   20.1000 C   0  0  0  0  0  0  0  0  0  0  0  0
  -22.7258   -9.0868   22.4948 C   0  0  0  0  0  0  0  0  0  0  0  0
  -27.4243  -28.1046   19.1848 C   0  0  0  0  0  0  0  0  0  0  0  0
  -22.8521   -5.7133   22.3101 C   0  0  0  0  0  0  0  0  0  0  0  0
  -23.2127   -4.7321   23.2336 C   0  0  0  0  0  0  0  0  0  0  0  0
  -26.0679  -27.3097   21.0144 C   0  0  0  0  0  0  0  0  0  0  0  0
  -25.6119  -20.6620   16.4627 C   0  0  0  0  0  0  0  0  0  0  0  0
  -24.1991  -20.7996   18.4176 C   0  0  0  0  0  0  0  0  0  0  0  0
  -21.2065   -5.1872   24.5005 C   0  0  0  0  0  0  0  0  0  0  0  0
  -23.9105  -10.5965   21.0271 C   0  0  0  0  0  0  0  0  0  0  0  0
  -26.0385  -11.6955   20.1488 C   0  0  0  0  0  0  0  0  0  0  0  0
  -26.2066  -36.2072   22.9952 C   0  0  0  0  0  0  0  0  0  0  0  0
  -25.6443  -29.4982   20.0705 C   0  0  0  0  0  0  0  0  0  0  0  0
  -26.6697  -34.9228   22.6517 C   0  0  0  0  0  0  0  0  0  0  0  0
  -25.3201  -28.4970   20.9971 C   0  0  0  0  0  0  0  0  0  0  0  0
  -25.1641  -21.3627   17.5825 C   0  0  0  0  0  0  0  0  0  0  0  0
  -25.0948  -19.3982   16.1779 C   0  0  0  0  0  0  0  0  0  0  0  0
  -23.6819  -19.5358   18.1328 C   0  0  0  0  0  0  0  0  0  0  0  0
  -22.1639   -8.4513   21.3875 C   0  0  0  0  0  0  0  0  0  0  0  0
  -27.1152  -27.1157   20.1142 C   0  0  0  0  0  0  0  0  0  0  0  0
  -21.6687   -6.4315   22.4819 C   0  0  0  0  0  0  0  0  0  0  0  0
  -22.3899   -4.4691   24.3288 C   0  0  0  0  0  0  0  0  0  0  0  0
  -20.8459   -6.1685   23.5771 C   0  0  0  0  0  0  0  0  0  0  0  0
  -24.1298  -18.8351   17.0129 C   0  0  0  0  0  0  0  0  0  0  0  0
  -24.8131  -11.7043   20.8416 C   0  0  0  0  0  0  0  0  0  0  0  0
  -26.5054  -12.9824   20.2607 C   0  0  0  0  0  0  0  0  0  0  0  0
  -27.6124  -24.0103   18.6999 C   0  0  0  0  0  0  0  0  0  0  0  0
  -28.5100  -24.4906   17.8236 C   0  0  0  0  0  0  0  0  0  0  0  0
  -28.9582  -23.7526   16.6696 C   0  0  0  0  0  0  0  0  0  0  0  0
  -29.8547  -24.2363   15.7973 C   0  0  0  0  0  0  0  0  0  0  0  0
  -26.6959  -10.6204   19.4650 C   0  0  0  0  0  0  0  0  0  0  0  0
  -25.0696  -31.6031   22.3819 C   0  0  0  0  0  0  0  0  0  0  0  0
  -22.1910  -30.1117   22.4905 C   0  0  0  0  0  0  0  0  0  0  0  0
  -20.9751  -26.7190   22.3220 C   0  0  0  0  0  0  0  0  0  0  0  0
  -23.7867  -18.2445   21.1378 C   0  0  0  0  0  0  0  0  0  0  0  0
  -25.1784  -36.4163   24.0787 C   0  0  0  0  0  0  0  0  0  0  0  0
  -24.8444  -30.7707   20.0129 C   0  0  0  0  0  0  0  0  0  0  0  0
  -24.1939  -28.6637   21.9831 C   0  0  0  0  0  0  0  0  0  0  0  0
  -24.3985  -35.1521   24.4304 C   0  0  0  0  0  0  0  0  0  0  0  0
  -26.3350  -16.7891   23.1539 C   0  0  0  0  0  0  0  0  0  0  0  0
  -26.6514  -22.4804   20.9260 C   0  0  0  0  0  0  0  0  0  0  0  0
  -25.3467  -33.9689   24.5974 C   0  0  0  0  0  0  0  0  0  0  0  0
  -27.2453  -23.8645   21.1622 C   0  0  0  0  0  0  0  0  0  0  0  0
  -26.3445  -15.3201   22.7274 C   0  0  0  0  0  0  0  0  0  0  0  0
  -24.9213  -17.3666   23.1573 C   0  0  0  0  0  0  0  0  0  0  0  0
  -24.1900  -15.7294   21.4666 C   0  0  0  0  0  0  0  0  0  0  0  0
  -27.2559  -21.8179   19.6923 C   0  0  0  0  0  0  0  0  0  0  0  0
  -26.0992  -33.6767   23.2936 C   0  0  1  0  0  0  0  0  0  0  0  0
  -27.1139  -24.7478   19.9224 C   0  0  1  0  0  0  0  0  0  1  0  0
  -24.1337  -31.0896   21.3246 C   0  0  1  0  0  0  0  0  0  0  0  0
  -25.5999  -15.1186   21.3939 C   0  0  2  0  0  0  0  0  0  0  0  0
  -25.6039  -18.6840   14.9671 C   0  0  0  0  0  0  0  0  0  0  0  0
  -30.3308  -23.4861   14.5968 C   0  0  0  0  0  0  0  0  0  0  0  0
  -18.7611  -25.8152   21.5613 C   0  0  0  0  0  0  0  0  0  0  0  0
  -21.4421  -30.2615   25.4445 C   0  0  0  0  0  0  0  0  0  0  0  0
  -20.1950  -28.1084   25.1658 C   0  0  0  0  0  0  0  0  0  0  0  0
  -19.4954  -30.1284   23.8802 C   0  0  0  0  0  0  0  0  0  0  0  0
  -22.2560  -24.9128   20.3584 C   0  0  0  0  0  0  0  0  0  0  0  0
  -22.6494  -18.9717   19.0553 C   0  0  0  0  0  0  0  0  0  0  0  0
  -25.7204  -22.7219   17.8889 C   0  0  0  0  0  0  0  0  0  0  0  0
  -21.6273  -28.9292   23.2407 C   0  0  1  0  0  0  0  0  0  0  0  0
  -20.2075  -26.0845   21.1763 C   0  0  2  0  0  0  0  0  0  0  0  0
  -20.7176  -29.3586   24.4263 C   0  0  0  0  0  0  0  0  0  0  0  0
  -24.5200  -12.9016   21.3559 N   0  0  0  0  0  0  0  0  0  0  0  0
  -25.5680  -13.6573   20.9859 N   0  0  0  0  0  0  0  0  0  0  0  0
  -23.4453  -29.9281   21.8913 N   0  0  0  0  0  0  0  0  0  0  0  0
  -24.2711  -17.1438   21.8637 N   0  0  0  0  0  0  0  0  0  0  0  0
  -27.6223  -13.5911   19.8087 N   0  0  0  0  0  0  0  0  0  0  0  0
  -26.0774   -9.3628   19.4468 N   0  0  0  0  0  0  0  0  0  0  0  0
  -25.2427  -32.9739   22.3624 N   0  0  0  0  0  0  0  0  0  0  0  0
  -20.9597  -28.0957   22.2467 N   0  0  0  0  0  0  0  0  0  0  0  0
  -23.1900  -17.9458   19.9190 N   0  0  0  0  0  0  0  0  0  0  0  0
  -27.1127  -22.6748   18.4557 N   0  3  1  0  0  0  0  0  0  0  0  0
  -20.8376  -24.7925   20.7833 N   0  3  0  0  0  0  0  0  0  0  0  0
  -27.8069  -10.7663   18.9013 O   0  0  0  0  0  0  0  0  0  0  0  0
  -25.5946  -30.8143   23.1589 O   0  0  0  0  0  0  0  0  0  0  0  0
  -21.5393  -31.1574   22.4320 O   0  0  0  0  0  0  0  0  0  0  0  0
  -21.5296  -26.0593   23.1984 O   0  0  0  0  0  0  0  0  0  0  0  0
  -23.8839  -19.4078   21.5432 O   0  0  0  0  0  0  0  0  0  0  0  0
  -21.3117   -7.4048   21.5637 O   0  0  0  0  0  0  0  0  0  0  0  0
  -27.8309  -25.9586   20.1413 O   0  0  0  0  0  0  0  0  0  1  0  0
  -22.7356   -3.5257   25.2147 F   0  0  0  0  0  0  0  0  0  0  0  0
  -19.7072   -6.8544   23.7467 F   0  0  0  0  0  0  0  0  0  0  0  0
  -23.4875  -17.2662   16.6592 Cl  0  0  0  0  0  0  0  0  0  0  0  0
  1  2  1  0  0  0  0
  1  5  2  0  0  0  0
  2  6  2  0  0  0  0
  3  8  2  0  0  0  0
  3 17  1  0  0  0  0
  4  9  1  0  0  0  0
  4 17  2  0  0  0  0
  5 19  1  0  0  0  0
  6 21  1  0  0  0  0
  7 10  2  0  0  0  0
  7 20  1  0  0  0  0
  8 26  1  0  0  0  0
  9 26  2  0  0  0  0
 10 27  1  0  0  0  0
 11 12  2  0  0  0  0
 11 28  1  0  0  0  0
 12 29  1  0  0  0  0
 13 22  1  0  0  0  0
 13 27  2  0  0  0  0
 14 23  1  0  0  0  0
 14 24  2  0  0  0  0
 15 23  2  0  0  0  0
 15 25  1  0  0  0  0
 16 29  2  0  0  0  0
 16 30  1  0  0  0  0
 17 32  1  0  0  0  0
 18 32  1  0  0  0  0
 18 33  2  0  0  0  0
 18 38  1  0  0  0  0
 19 21  2  0  0  0  0
 19 43  1  0  0  0  0
 20 22  2  0  0  0  0
 20 44  1  0  0  0  0
 21 55  1  0  0  0  0
 22 45  1  0  0  0  0
 23 67  1  0  0  0  0
 24 31  1  0  0  0  0
 24 59  1  0  0  0  0
 25 31  2  0  0  0  0
 25 66  1  0  0  0  0
 26 87  1  0  0  0  0
 27 88  1  0  0  0  0
 28 30  2  0  0  0  0
 28 87  1  0  0  0  0
 29 89  1  0  0  0  0
 30 90  1  0  0  0  0
 31 91  1  0  0  0  0
 32 71  2  0  0  0  0
 33 72  1  0  0  0  0
 33 75  1  0  0  0  0
 34 35  2  0  0  0  0
 34 56  1  0  0  0  0
 34 80  1  0  0  0  0
 35 36  1  0  0  0  0
 36 37  2  0  0  0  0
 37 60  1  0  0  0  0
 38 76  1  0  0  0  0
 38 82  2  0  0  0  0
 39 57  1  0  0  0  0
 39 77  1  0  0  0  0
 39 83  2  0  0  0  0
 40 68  1  0  0  0  0
 40 73  1  0  0  0  0
 40 84  2  0  0  0  0
 41 69  1  0  0  0  0
 41 78  1  0  0  0  0
 41 85  2  0  0  0  0
 42 74  1  0  0  0  0
 42 79  1  0  0  0  0
 42 86  2  0  0  0  0
 43 46  1  0  0  0  0
 44 57  1  0  0  0  0
 45 73  1  0  0  0  0
 46 49  1  0  0  0  0
 47 51  1  0  0  0  0
 47 52  1  0  0  0  0
 48 50  1  0  0  0  0
 48 54  1  0  0  0  0
 49 55  1  0  0  0  0
 50 56  1  0  0  0  0
 51 58  1  0  0  0  0
 52 74  1  0  0  0  0
 53 58  1  0  0  0  0
 53 74  1  0  0  0  0
 54 80  1  0  0  0  0
 55 77  1  0  0  0  0
 56 88  1  0  0  0  0
 57 73  1  0  0  0  0
 58 72  1  0  0  0  0
 61 69  1  0  0  0  0
 62 70  1  0  0  0  0
 63 70  1  0  0  0  0
 64 70  1  0  0  0  0
 65 81  1  0  0  0  0
 66 79  1  0  0  0  0
 67 80  1  0  0  0  0
 68 70  1  0  0  0  0
 68 78  1  0  0  0  0
 69 81  1  0  0  0  0
 71 72  1  0  0  0  0
M  CHG  2  80   1  81   1
M  ISO  4  42 100  56 101  79 100  88 101
M  END
> <Batch ID>
0040

> <Smiles>
CC=CC=C1N(Cc2cc(C)c(Cl)c(C[100NH:0][100C:0](=O)N3CCCC(n4nc(-c5ccc(Oc6ccc(F)cc6F)cc5)c(C(N)=O)c4N)C3)c2)CCC[101CH:1]1[101O:1]c1ccc2c(c1)CN(C(=O)C(NC(=O)C(C)NC)C(C)(C)C)C(C(=O)NC1CCCc3ccccc31)C2

> <Shape>
0.293

> <Color>
0.107

> <Negative vol penalty>
0.000

$$$$

  -OEChem-04042322063D

 87 96  0     1  0  0  0  0  0999 V2000
  -32.4790  -28.7176   31.4183 C   0  0  0  0  0  0  0  0  0  0  0  0
  -32.4357  -27.4847   30.7754 C   0  0  0  0  0  0  0  0  0  0  0  0
  -22.6589  -10.2446   20.1731 C   0  0  0  0  0  0  0  0  0  0  0  0
  -24.3116   -9.4324   21.7371 C   0  0  0  0  0  0  0  0  0  0  0  0
  -31.4139  -29.6080   31.2884 C   0  0  0  0  0  0  0  0  0  0  0  0
  -31.3268  -27.1409   30.0030 C   0  0  0  0  0  0  0  0  0  0  0  0
  -30.9306  -24.9653   22.5106 C   0  0  0  0  0  0  0  0  0  0  0  0
  -21.9119   -9.0813   20.3583 C   0  0  0  0  0  0  0  0  0  0  0  0
  -23.5646   -8.2691   21.9224 C   0  0  0  0  0  0  0  0  0  0  0  0
  -30.7160  -24.7220   21.1538 C   0  0  0  0  0  0  0  0  0  0  0  0
  -20.8164   -7.3239   23.6471 C   0  0  0  0  0  0  0  0  0  0  0  0
  -20.6344   -6.8738   24.9547 C   0  0  0  0  0  0  0  0  0  0  0  0
  -28.4865  -25.6419   21.3304 C   0  0  0  0  0  0  0  0  0  0  0  0
  -29.2732  -19.6865   20.3838 C   0  0  0  0  0  0  0  0  0  0  0  0
  -31.6999  -18.3123   20.3092 C   0  0  0  0  0  0  0  0  0  0  0  0
  -21.7302   -4.7955   24.3918 C   0  0  0  0  0  0  0  0  0  0  0  0
  -23.8588  -10.4201   20.8624 C   0  0  0  0  0  0  0  0  0  0  0  0
  -24.2221  -12.9444   20.9241 C   0  0  0  0  0  0  0  0  0  0  0  0
  -30.2957  -29.2789   30.5062 C   0  0  0  0  0  0  0  0  0  0  0  0
  -29.9282  -25.5626   23.2800 C   0  0  0  0  0  0  0  0  0  0  0  0
  -30.2452  -28.0271   29.8636 C   0  0  0  0  0  0  0  0  0  0  0  0
  -28.7002  -25.8994   22.6872 C   0  0  0  0  0  0  0  0  0  0  0  0
  -29.4780  -18.5871   21.2175 C   0  0  0  0  0  0  0  0  0  0  0  0
  -30.6914  -17.9001   21.1802 C   0  0  0  0  0  0  0  0  0  0  0  0
  -30.2817  -20.0988   19.5127 C   0  0  0  0  0  0  0  0  0  0  0  0
  -22.3647   -8.0936   21.2330 C   0  0  0  0  0  0  0  0  0  0  0  0
  -29.4969  -25.0592   20.5653 C   0  0  0  0  0  0  0  0  0  0  0  0
  -21.4553   -6.5098   22.7118 C   0  0  0  0  0  0  0  0  0  0  0  0
  -21.0913   -5.6096   25.3270 C   0  0  0  0  0  0  0  0  0  0  0  0
  -21.9122   -5.2456   23.0841 C   0  0  0  0  0  0  0  0  0  0  0  0
  -31.4950  -19.4117   19.4755 C   0  0  0  0  0  0  0  0  0  0  0  0
  -24.6312  -11.6213   20.6711 C   0  0  0  0  0  0  0  0  0  0  0  0
  -25.3096  -13.7111   20.5833 C   0  0  0  0  0  0  0  0  0  0  0  0
  -30.0807  -21.1639   17.2703 C   0  0  0  0  0  0  0  0  0  0  0  0
  -29.8676  -20.0650   16.5203 C   0  0  0  0  0  0  0  0  0  0  0  0
  -22.9711  -13.4363   21.4226 C   0  0  0  0  0  0  0  0  0  0  0  0
  -28.8714  -26.8474   26.6428 C   0  0  0  0  0  0  0  0  0  0  0  0
  -27.8232  -28.8391   24.5583 C   0  0  0  0  0  0  0  0  0  0  0  0
  -27.2100  -30.9991   21.9901 C   0  0  0  0  0  0  0  0  0  0  0  0
  -30.8066  -14.6709   20.6684 C   0  0  0  0  0  0  0  0  0  0  0  0
  -29.1478  -30.2545   30.4339 C   0  0  0  0  0  0  0  0  0  0  0  0
  -30.0929  -25.7870   24.7586 C   0  0  0  0  0  0  0  0  0  0  0  0
  -27.6382  -26.5084   23.5614 C   0  0  0  0  0  0  0  0  0  0  0  0
  -30.3559  -22.4664   16.5441 C   0  0  0  0  0  0  0  0  0  0  0  0
  -28.1751  -29.9672   29.2930 C   0  0  0  0  0  0  0  0  0  0  0  0
  -29.6470  -23.6501   17.1854 C   0  0  0  0  0  0  0  0  0  0  0  0
  -29.5687  -12.4847   18.1455 C   0  0  0  0  0  0  0  0  0  0  0  0
  -27.8237  -28.4834   29.2520 C   0  0  0  0  0  0  0  0  0  0  0  0
  -28.1430  -12.1697   18.6018 C   0  0  0  0  0  0  0  0  0  0  0  0
  -30.5261  -12.6060   19.3290 C   0  0  0  0  0  0  0  0  0  0  0  0
  -28.6775  -13.2434   20.8290 C   0  0  0  0  0  0  0  0  0  0  0  0
  -29.5781  -22.4324   19.3807 C   0  0  0  0  0  0  0  0  0  0  0  0
  -29.0707  -27.6280   28.9969 C   0  0  1  0  0  0  0  0  0  0  0  0
  -29.3991  -27.0679   25.2556 C   0  0  1  0  0  0  0  0  0  0  0  0
  -27.6642  -13.1668   19.6741 C   0  0  2  0  0  0  0  0  0  0  0  0
  -29.9883  -23.7187   18.6662 C   0  0  2  0  0  0  0  0  0  1  0  0
  -28.3838  -18.1629   22.1410 C   0  0  0  0  0  0  0  0  0  0  0  0
  -26.1602  -33.2241   21.4957 C   0  0  0  0  0  0  0  0  0  0  0  0
  -25.0549  -27.5771   24.7760 C   0  0  0  0  0  0  0  0  0  0  0  0
  -24.1628  -29.4671   23.3976 C   0  0  0  0  0  0  0  0  0  0  0  0
  -25.1997  -29.9271   25.6192 C   0  0  0  0  0  0  0  0  0  0  0  0
  -29.7703  -32.1216   21.0186 C   0  0  0  0  0  0  0  0  0  0  0  0
  -30.9339  -16.7199   22.0628 C   0  0  0  0  0  0  0  0  0  0  0  0
  -26.6748  -29.2606   23.6770 C   0  0  1  0  0  0  0  0  0  0  0  0
  -27.4450  -32.4924   21.8517 C   0  0  2  0  0  0  0  0  0  0  0  0
  -25.2941  -29.0416   24.3576 C   0  0  0  0  0  0  0  0  0  0  0  0
  -25.8809  -11.5481   20.2054 N   0  0  0  0  0  0  0  0  0  0  0  0
  -26.2665  -12.8349   20.1629 N   0  0  0  0  0  0  0  0  0  0  0  0
  -30.0429  -21.2249   18.6739 N   0  0  0  0  0  0  0  0  0  0  0  0
  -28.2390  -27.5056   24.4610 N   0  0  0  0  0  0  0  0  0  0  0  0
  -30.0148  -13.5679   20.3084 N   0  0  0  0  0  0  0  0  0  0  0  0
  -25.5310  -15.0426   20.6051 N   0  0  0  0  0  0  0  0  0  0  0  0
  -22.8125  -13.5763   22.8081 N   0  0  0  0  0  0  0  0  0  0  0  0
  -29.4359  -27.6719   27.5972 N   0  0  0  0  0  0  0  0  0  0  0  0
  -26.9398  -30.6433   23.2946 N   0  0  0  0  0  0  0  0  0  0  0  0
  -30.2442  -15.5371   21.5980 N   0  0  0  0  0  0  0  0  0  0  0  0
  -28.4503  -32.7619   20.7851 N   0  3  0  0  0  0  0  0  0  0  0  0
  -22.0162  -13.7271   20.6629 O   0  0  0  0  0  0  0  0  0  0  0  0
  -28.0138  -25.9932   26.8343 O   0  0  0  0  0  0  0  0  0  0  0  0
  -28.3360  -29.6661   25.3176 O   0  0  0  0  0  0  0  0  0  0  0  0
  -27.2575  -30.2260   21.0358 O   0  0  0  0  0  0  0  0  0  0  0  0
  -31.9290  -14.8719   20.1924 O   0  0  0  0  0  0  0  0  0  0  0  0
  -21.6359   -6.9584   21.4142 O   0  0  0  0  0  0  0  0  0  0  0  0
  -29.2958  -24.8231   19.2392 O   0  0  0  0  0  0  0  0  0  1  0  0
  -20.9178   -5.1781   26.5832 F   0  0  0  0  0  0  0  0  0  0  0  0
  -22.5278   -4.4595   22.1903 F   0  0  0  0  0  0  0  0  0  0  0  0
  -32.7700  -19.8896   18.4122 Cl  0  0  0  0  0  0  0  0  0  0  0  0
  1  2  1  0  0  0  0
  1  5  2  0  0  0  0
  2  6  2  0  0  0  0
  3  8  2  0  0  0  0
  3 17  1  0  0  0  0
  4  9  1  0  0  0  0
  4 17  2  0  0  0  0
  5 19  1  0  0  0  0
  6 21  1  0  0  0  0
  7 10  2  0  0  0  0
  7 20  1  0  0  0  0
  8 26  1  0  0  0  0
  9 26  2  0  0  0  0
 10 27  1  0  0  0  0
 11 12  2  0  0  0  0
 11 28  1  0  0  0  0
 12 29  1  0  0  0  0
 13 22  1  0  0  0  0
 13 27  2  0  0  0  0
 14 23  2  0  0  0  0
 14 25  1  0  0  0  0
 15 24  2  0  0  0  0
 15 31  1  0  0  0  0
 16 29  2  0  0  0  0
 16 30  1  0  0  0  0
 17 32  1  0  0  0  0
 18 32  1  0  0  0  0
 18 33  2  0  0  0  0
 18 36  1  0  0  0  0
 19 21  2  0  0  0  0
 19 41  1  0  0  0  0
 20 22  2  0  0  0  0
 20 42  1  0  0  0  0
 21 53  1  0  0  0  0
 22 43  1  0  0  0  0
 23 24  1  0  0  0  0
 23 57  1  0  0  0  0
 24 63  1  0  0  0  0
 25 31  2  0  0  0  0
 25 69  1  0  0  0  0
 26 83  1  0  0  0  0
 27 84  1  0  0  0  0
 28 30  2  0  0  0  0
 28 83  1  0  0  0  0
 29 85  1  0  0  0  0
 30 86  1  0  0  0  0
 31 87  1  0  0  0  0
 32 67  2  0  0  0  0
 33 68  1  0  0  0  0
 33 72  1  0  0  0  0
 34 35  2  0  0  0  0
 34 44  1  0  0  0  0
 34 69  1  0  0  0  0
 36 73  1  0  0  0  0
 36 78  2  0  0  0  0
 37 54  1  0  0  0  0
 37 74  1  0  0  0  0
 37 79  2  0  0  0  0
 38 64  1  0  0  0  0
 38 70  1  0  0  0  0
 38 80  2  0  0  0  0
 39 65  1  0  0  0  0
 39 75  1  0  0  0  0
 39 81  2  0  0  0  0
 40 71  1  0  0  0  0
 40 76  1  0  0  0  0
 40 82  2  0  0  0  0
 41 45  1  0  0  0  0
 42 54  1  0  0  0  0
 43 70  1  0  0  0  0
 44 46  1  0  0  0  0
 45 48  1  0  0  0  0
 46 56  1  0  0  0  0
 47 49  1  0  0  0  0
 47 50  1  0  0  0  0
 48 53  1  0  0  0  0
 49 55  1  0  0  0  0
 50 71  1  0  0  0  0
 51 55  1  0  0  0  0
 51 71  1  0  0  0  0
 52 56  1  0  0  0  0
 52 69  1  0  0  0  0
 53 74  1  0  0  0  0
 54 70  1  0  0  0  0
 55 68  1  0  0  0  0
 56 84  1  0  0  0  0
 58 65  1  0  0  0  0
 59 66  1  0  0  0  0
 60 66  1  0  0  0  0
 61 66  1  0  0  0  0
 62 77  1  0  0  0  0
 63 76  1  0  0  0  0
 64 66  1  0  0  0  0
 64 75  1  0  0  0  0
 65 77  1  0  0  0  0
 67 68  1  0  0  0  0
M  CHG  1  77   1
M  ISO  4  40 100  56 101  76 100  84 101
M  END
> <Batch ID>
0040

> <Smiles>
C=C1CC[101CH:1]([101O:1]c2ccc3c(c2)CN(C(=O)C(NC(=O)C(C)NC)C(C)(C)C)C(C(=O)NC2CCCc4ccccc42)C3)CN1c1cc(C)c(C[100NH:0][100C:0](=O)N2CCCC(n3nc(-c4ccc(Oc5ccc(F)cc5F)cc4)c(C(N)=O)c3N)C2)cc1Cl

> <Shape>
0.300

> <Color>
0.186

> <Negative vol penalty>
0.000

$$$$

  -OEChem-04042322063D

 93102  0     1  0  0  0  0  0999 V2000
  -27.9549  -37.3453   23.2440 C   0  0  0  0  0  0  0  0  0  0  0  0
  -28.4120  -36.1745   22.6475 C   0  0  0  0  0  0  0  0  0  0  0  0
  -22.7496  -10.9425   21.2661 C   0  0  0  0  0  0  0  0  0  0  0  0
  -24.2514   -9.1887   20.5550 C   0  0  0  0  0  0  0  0  0  0  0  0
  -26.9663  -37.2864   24.2254 C   0  0  0  0  0  0  0  0  0  0  0  0
  -27.8813  -34.9439   23.0329 C   0  0  0  0  0  0  0  0  0  0  0  0
  -26.9390  -30.0599   19.4602 C   0  0  0  0  0  0  0  0  0  0  0  0
  -21.7818   -9.9876   21.5776 C   0  0  0  0  0  0  0  0  0  0  0  0
  -23.2836   -8.2337   20.8665 C   0  0  0  0  0  0  0  0  0  0  0  0
  -27.6774  -28.8966   19.2479 C   0  0  0  0  0  0  0  0  0  0  0  0
  -21.1473   -7.8102   24.0854 C   0  0  0  0  0  0  0  0  0  0  0  0
  -20.4737   -7.9421   25.2997 C   0  0  0  0  0  0  0  0  0  0  0  0
  -26.3168  -27.7437   20.8723 C   0  0  0  0  0  0  0  0  0  0  0  0
  -31.3053  -19.5022   20.9632 C   0  0  0  0  0  0  0  0  0  0  0  0
  -18.3748   -8.1189   24.1162 C   0  0  0  0  0  0  0  0  0  0  0  0
  -23.9844  -10.5431   20.7548 C   0  0  0  0  0  0  0  0  0  0  0  0
  -24.8722  -12.5815   19.5041 C   0  0  0  0  0  0  0  0  0  0  0  0
  -26.4164  -36.0553   24.6161 C   0  0  0  0  0  0  0  0  0  0  0  0
  -25.8891  -30.0769   20.3897 C   0  0  0  0  0  0  0  0  0  0  0  0
  -26.8854  -34.8684   24.0214 C   0  0  0  0  0  0  0  0  0  0  0  0
  -25.5649  -28.9078   21.0927 C   0  0  0  0  0  0  0  0  0  0  0  0
  -30.5996  -20.4812   21.6626 C   0  0  0  0  0  0  0  0  0  0  0  0
  -30.9443  -18.1604   21.0861 C   0  0  0  0  0  0  0  0  0  0  0  0
  -29.5330  -20.1184   22.4850 C   0  0  0  0  0  0  0  0  0  0  0  0
  -29.1720  -18.7767   22.6080 C   0  0  0  0  0  0  0  0  0  0  0  0
  -29.8776  -17.7977   21.9085 C   0  0  0  0  0  0  0  0  0  0  0  0
  -22.0488   -8.6332   21.3778 C   0  0  0  0  0  0  0  0  0  0  0  0
  -27.3683  -27.7390   19.9561 C   0  0  0  0  0  0  0  0  0  0  0  0
  -20.4347   -7.8328   22.8865 C   0  0  0  0  0  0  0  0  0  0  0  0
  -19.0875   -8.0964   25.3151 C   0  0  0  0  0  0  0  0  0  0  0  0
  -19.0485   -7.9871   22.9019 C   0  0  0  0  0  0  0  0  0  0  0  0
  -24.9843  -11.5291   20.4323 C   0  0  0  0  0  0  0  0  0  0  0  0
  -26.0829  -13.2269   19.5687 C   0  0  0  0  0  0  0  0  0  0  0  0
  -31.3741  -23.7772   20.0136 C   0  0  0  0  0  0  0  0  0  0  0  0
  -34.9226  -22.8634   19.6311 C   0  0  0  0  0  0  0  0  0  0  0  0
  -33.5927  -22.8232   19.7812 C   0  0  0  0  0  0  0  0  0  0  0  0
  -23.7719  -12.9434   18.6590 C   0  0  0  0  0  0  0  0  0  0  0  0
  -32.6965  -23.9669   19.8617 C   0  0  0  0  0  0  0  0  0  0  0  0
  -25.2981  -31.6681   23.0772 C   0  0  0  0  0  0  0  0  0  0  0  0
  -22.4244  -30.1778   22.8683 C   0  0  0  0  0  0  0  0  0  0  0  0
  -20.6043  -27.5483   21.6769 C   0  0  0  0  0  0  0  0  0  0  0  0
  -30.3028  -15.3840   22.4915 C   0  0  0  0  0  0  0  0  0  0  0  0
  -25.3834  -36.0376   25.7148 C   0  0  0  0  0  0  0  0  0  0  0  0
  -25.0850  -31.3325   20.5876 C   0  0  0  0  0  0  0  0  0  0  0  0
  -24.4343  -28.8681   22.0869 C   0  0  0  0  0  0  0  0  0  0  0  0
  -30.4209  -24.9392   20.1001 C   0  0  0  0  0  0  0  0  0  0  0  0
  -24.6066  -34.7262   25.7995 C   0  0  0  0  0  0  0  0  0  0  0  0
  -30.4127  -11.8885   21.8233 C   0  0  0  0  0  0  0  0  0  0  0  0
  -29.3672  -22.8192   18.1330 C   0  0  0  0  0  0  0  0  0  0  0  0
  -25.5584  -33.5364   25.7274 C   0  0  0  0  0  0  0  0  0  0  0  0
  -28.8459  -24.2567   18.1862 C   0  0  0  0  0  0  0  0  0  0  0  0
  -29.0011  -11.5700   21.3255 C   0  0  0  0  0  0  0  0  0  0  0  0
  -30.3996  -12.9402   22.9312 C   0  0  0  0  0  0  0  0  0  0  0  0
  -28.2677  -13.8589   22.1064 C   0  0  0  0  0  0  0  0  0  0  0  0
  -29.5375  -22.1951   19.5152 C   0  0  0  0  0  0  0  0  0  0  0  0
  -26.3168  -33.5165   24.3948 C   0  0  1  0  0  0  0  0  0  0  0  0
  -24.3681  -31.3770   21.9335 C   0  0  1  0  0  0  0  0  0  0  0  0
  -29.8375  -25.3010   18.7241 C   0  0  1  0  0  0  0  0  0  0  0  0
  -28.2350  -12.8521   20.9450 C   0  0  2  0  0  0  0  0  0  0  0  0
  -31.7188  -17.1349   20.3231 C   0  0  0  0  0  0  0  0  0  0  0  0
  -28.7783  -21.1709   23.2338 C   0  0  0  0  0  0  0  0  0  0  0  0
  -28.0265  -18.3927   23.4920 C   0  0  0  0  0  0  0  0  0  0  0  0
  -33.2619  -25.3569   19.7735 C   0  0  0  0  0  0  0  0  0  0  0  0
  -18.2882  -26.5827   21.7039 C   0  0  0  0  0  0  0  0  0  0  0  0
  -22.8784  -29.1749   25.7140 C   0  0  0  0  0  0  0  0  0  0  0  0
  -21.0597  -27.4959   25.3379 C   0  0  0  0  0  0  0  0  0  0  0  0
  -20.5442  -29.9344   25.2355 C   0  0  0  0  0  0  0  0  0  0  0  0
  -20.3458  -27.7856   18.7382 C   0  0  0  0  0  0  0  0  0  0  0  0
  -31.0074  -21.9171   21.5116 C   0  0  0  0  0  0  0  0  0  0  0  0
  -29.1460  -26.6668   18.7960 C   0  0  0  0  0  0  0  0  0  1  0  0
  -21.8620  -28.8663   23.3608 C   0  0  1  0  0  0  0  0  0  0  0  0
  -19.2624  -27.4904   20.9693 C   0  0  2  0  0  0  0  0  0  0  0  0
  -21.6087  -28.8688   24.8948 C   0  0  0  0  0  0  0  0  0  0  0  0
  -26.1725  -11.5037   21.0419 N   0  0  0  0  0  0  0  0  0  0  0  0
  -26.8181  -12.5480   20.4954 N   0  0  0  0  0  0  0  0  0  0  0  0
  -23.6816  -30.1229   22.2499 N   0  0  0  0  0  0  0  0  0  0  0  0
  -29.6603  -14.1278   22.4979 N   0  0  0  0  0  0  0  0  0  0  0  0
  -26.5797  -14.3031   18.9226 N   0  0  0  0  0  0  0  0  0  0  0  0
  -23.6981  -12.3772   17.3790 N   0  0  0  0  0  0  0  0  0  0  0  0
  -29.5107  -16.4344   22.0290 N   0  0  0  0  0  0  0  0  0  0  0  0
  -25.4665  -33.0148   23.3367 N   0  0  0  0  0  0  0  0  0  0  0  0
  -20.6713  -28.6060   22.5589 N   0  0  0  0  0  0  0  0  0  0  0  0
  -30.9172  -22.4108   20.0887 N   0  3  2  0  0  0  0  0  0  0  0  0
  -19.4306  -26.9743   19.5814 N   0  3  0  0  0  0  0  0  0  0  0  0
  -22.8895  -13.7578   19.0219 O   0  0  0  0  0  0  0  0  0  0  0  0
  -25.8229  -30.7395   23.6805 O   0  0  0  0  0  0  0  0  0  0  0  0
  -21.7692  -31.2119   23.0201 O   0  0  0  0  0  0  0  0  0  0  0  0
  -21.5017  -26.7344   21.4707 O   0  0  0  0  0  0  0  0  0  0  0  0
  -31.4783  -15.5135   22.8428 O   0  0  0  0  0  0  0  0  0  0  0  0
  -21.1048   -7.7010   21.6818 O   0  0  0  0  0  0  0  0  0  0  0  0
  -28.0879  -26.6023   19.7512 O   0  0  0  0  0  0  0  0  0  1  0  0
  -18.4406   -8.2214   26.4813 F   0  0  0  0  0  0  0  0  0  0  0  0
  -18.3583   -8.0084   21.7534 F   0  0  0  0  0  0  0  0  0  0  0  0
  1  2  1  0  0  0  0
  1  5  2  0  0  0  0
  2  6  2  0  0  0  0
  3  8  2  0  0  0  0
  3 16  1  0  0  0  0
  4  9  1  0  0  0  0
  4 16  2  0  0  0  0
  5 18  1  0  0  0  0
  6 20  1  0  0  0  0
  7 10  2  0  0  0  0
  7 19  1  0  0  0  0
  8 27  1  0  0  0  0
  9 27  2  0  0  0  0
 10 28  1  0  0  0  0
 11 12  2  0  0  0  0
 11 29  1  0  0  0  0
 12 30  1  0  0  0  0
 13 21  1  0  0  0  0
 13 28  2  0  0  0  0
 14 22  1  0  0  0  0
 14 23  2  0  0  0  0
 15 30  2  0  0  0  0
 15 31  1  0  0  0  0
 16 32  1  0  0  0  0
 17 32  1  0  0  0  0
 17 33  2  0  0  0  0
 17 37  1  0  0  0  0
 18 20  2  0  0  0  0
 18 43  1  0  0  0  0
 19 21  2  0  0  0  0
 19 44  1  0  0  0  0
 20 56  1  0  0  0  0
 21 45  1  0  0  0  0
 22 24  2  0  0  0  0
 22 69  1  0  0  0  0
 23 26  1  0  0  0  0
 23 60  1  0  0  0  0
 24 25  1  0  0  0  0
 24 61  1  0  0  0  0
 25 26  2  0  0  0  0
 25 62  1  0  0  0  0
 26 80  1  0  0  0  0
 27 90  1  0  0  0  0
 28 91  1  0  0  0  0
 29 31  2  0  0  0  0
 29 90  1  0  0  0  0
 30 92  1  0  0  0  0
 31 93  1  0  0  0  0
 32 74  2  0  0  0  0
 33 75  1  0  0  0  0
 33 78  1  0  0  0  0
 34 38  2  0  0  0  0
 34 46  1  0  0  0  0
 34 83  1  0  0  0  0
 35 36  2  0  0  0  0
 36 38  1  0  0  0  0
 37 79  1  0  0  0  0
 37 85  2  0  0  0  0
 38 63  1  0  0  0  0
 39 57  1  0  0  0  0
 39 81  1  0  0  0  0
 39 86  2  0  0  0  0
 40 71  1  0  0  0  0
 40 76  1  0  0  0  0
 40 87  2  0  0  0  0
 41 72  1  0  0  0  0
 41 82  1  0  0  0  0
 41 88  2  0  0  0  0
 42 77  1  0  0  0  0
 42 80  1  0  0  0  0
 42 89  2  0  0  0  0
 43 47  1  0  0  0  0
 44 57  1  0  0  0  0
 45 76  1  0  0  0  0
 46 58  1  0  0  0  0
 47 50  1  0  0  0  0
 48 52  1  0  0  0  0
 48 53  1  0  0  0  0
 49 51  1  0  0  0  0
 49 55  1  0  0  0  0
 50 56  1  0  0  0  0
 51 58  1  0  0  0  0
 52 59  1  0  0  0  0
 53 77  1  0  0  0  0
 54 59  1  0  0  0  0
 54 77  1  0  0  0  0
 55 83  1  0  0  0  0
 56 81  1  0  0  0  0
 57 76  1  0  0  0  0
 58 70  1  0  0  0  0
 59 75  1  0  0  0  0
 64 72  1  0  0  0  0
 65 73  1  0  0  0  0
 66 73  1  0  0  0  0
 67 73  1  0  0  0  0
 68 84  1  0  0  0  0
 69 83  1  0  0  0  0
 70 91  1  0  0  0  0
 71 73  1  0  0  0  0
 71 82  1  0  0  0  0
 72 84  1  0  0  0  0
 74 75  1  0  0  0  0
M  CHG  2  83   1  84   1
M  ISO  4  42 100  70 101  80 100  91 101
M  END
> <Batch ID>
0040

> <Smiles>
C=CC(C)=C1CC([101CH2:1][101O:1]c2ccc3c(c2)CN(C(=O)C(NC(=O)C(C)NC)C(C)(C)C)C(C(=O)NC2CCCc4ccccc42)C3)CCCN1Cc1cc(C)c([100NH:0][100C:0](=O)N2CCCC(n3nc(-c4ccc(Oc5ccc(F)cc5F)cc4)c(C(N)=O)c3N)C2)c(C)c1C

> <Shape>
0.336

> <Color>
0.098

> <Negative vol penalty>
0.000

$$$$

  -OEChem-04042322063D

 87 96  0     1  0  0  0  0  0999 V2000
  -29.2260  -32.3698   24.5546 C   0  0  0  0  0  0  0  0  0  0  0  0
  -29.0539  -31.0932   24.0291 C   0  0  0  0  0  0  0  0  0  0  0  0
  -23.8797  -11.9881   23.9806 C   0  0  0  0  0  0  0  0  0  0  0  0
  -24.6437  -14.2791   24.0489 C   0  0  0  0  0  0  0  0  0  0  0  0
  -28.1301  -33.0679   25.0600 C   0  0  0  0  0  0  0  0  0  0  0  0
  -27.7858  -30.5136   24.0096 C   0  0  0  0  0  0  0  0  0  0  0  0
  -26.7382  -28.2802   19.5870 C   0  0  0  0  0  0  0  0  0  0  0  0
  -23.4886  -12.0787   25.3164 C   0  0  0  0  0  0  0  0  0  0  0  0
  -24.2526  -14.3697   25.3847 C   0  0  0  0  0  0  0  0  0  0  0  0
  -27.3061  -27.0281   19.3557 C   0  0  0  0  0  0  0  0  0  0  0  0
  -21.3820  -14.8055   27.1139 C   0  0  0  0  0  0  0  0  0  0  0  0
  -20.6843  -15.9474   27.5074 C   0  0  0  0  0  0  0  0  0  0  0  0
  -25.2201  -25.9772   19.9587 C   0  0  0  0  0  0  0  0  0  0  0  0
  -29.9002  -19.4091   16.5819 C   0  0  0  0  0  0  0  0  0  0  0  0
  -29.8758  -20.2701   18.8390 C   0  0  0  0  0  0  0  0  0  0  0  0
  -22.4255  -16.4622   29.1012 C   0  0  0  0  0  0  0  0  0  0  0  0
  -24.4573  -13.0883   23.3468 C   0  0  0  0  0  0  0  0  0  0  0  0
  -24.0428  -12.7100   20.8583 C   0  0  0  0  0  0  0  0  0  0  0  0
  -26.8463  -32.5004   25.0379 C   0  0  0  0  0  0  0  0  0  0  0  0
  -25.4080  -28.3899   20.0171 C   0  0  0  0  0  0  0  0  0  0  0  0
  -26.6719  -31.2043   24.5164 C   0  0  0  0  0  0  0  0  0  0  0  0
  -24.6369  -27.2320   20.1923 C   0  0  0  0  0  0  0  0  0  0  0  0
  -30.0050  -20.4824   17.4665 C   0  0  0  0  0  0  0  0  0  0  0  0
  -29.6660  -18.1234   17.0698 C   0  0  0  0  0  0  0  0  0  0  0  0
  -29.6416  -18.9845   19.3270 C   0  0  0  0  0  0  0  0  0  0  0  0
  -29.5368  -17.9112   18.4423 C   0  0  0  0  0  0  0  0  0  0  0  0
  -23.6751  -13.2694   26.0185 C   0  0  0  0  0  0  0  0  0  0  0  0
  -26.5480  -25.8763   19.5443 C   0  0  0  0  0  0  0  0  0  0  0  0
  -22.6015  -14.4919   27.7142 C   0  0  0  0  0  0  0  0  0  0  0  0
  -21.2060  -16.7758   28.5009 C   0  0  0  0  0  0  0  0  0  0  0  0
  -23.1232  -15.3203   28.7078 C   0  0  0  0  0  0  0  0  0  0  0  0
  -24.8620  -12.9952   21.9671 C   0  0  0  0  0  0  0  0  0  0  0  0
  -24.8978  -12.7369   19.7837 C   0  0  0  0  0  0  0  0  0  0  0  0
  -28.8006  -23.4831   18.0978 C   0  0  0  0  0  0  0  0  0  0  0  0
  -22.6348  -12.4447   20.8045 C   0  0  0  0  0  0  0  0  0  0  0  0
  -23.9769  -29.5444   22.6099 C   0  0  0  0  0  0  0  0  0  0  0  0
  -21.2774  -28.9054   20.9285 C   0  0  0  0  0  0  0  0  0  0  0  0
  -20.0638  -26.2534   18.8046 C   0  0  0  0  0  0  0  0  0  0  0  0
  -30.1101  -15.4817   18.7820 C   0  0  0  0  0  0  0  0  0  0  0  0
  -25.6999  -33.2747   25.6388 C   0  0  0  0  0  0  0  0  0  0  0  0
  -24.8020  -29.7490   20.2365 C   0  0  0  0  0  0  0  0  0  0  0  0
  -23.1982  -27.2965   20.6334 C   0  0  0  0  0  0  0  0  0  0  0  0
  -24.3274  -32.7393   25.2390 C   0  0  0  0  0  0  0  0  0  0  0  0
  -26.9683  -23.4593   15.8111 C   0  0  0  0  0  0  0  0  0  0  0  0
  -29.4829  -11.9803   18.6267 C   0  0  0  0  0  0  0  0  0  0  0  0
  -24.2847  -31.2211   25.3805 C   0  0  0  0  0  0  0  0  0  0  0  0
  -26.4479  -23.8110   17.1891 C   0  0  0  0  0  0  0  0  0  0  0  0
  -28.1492  -11.8180   19.3595 C   0  0  0  0  0  0  0  0  0  0  0  0
  -28.0686  -22.4202   15.9307 C   0  0  0  0  0  0  0  0  0  0  0  0
  -30.3555  -13.0573   19.2689 C   0  0  0  0  0  0  0  0  0  0  0  0
  -28.3702  -14.1994   20.1764 C   0  0  0  0  0  0  0  0  0  0  0  0
  -25.3079  -30.5517   24.4551 C   0  0  1  0  0  0  0  0  0  0  0  0
  -27.5810  -24.3920   18.0117 C   0  0  1  0  0  0  0  0  0  1  0  0
  -23.5940  -29.7214   21.1678 C   0  0  1  0  0  0  0  0  0  0  0  0
  -27.4299  -13.1709   19.5269 C   0  0  2  0  0  0  0  0  0  0  0  0
  -29.5581  -16.9937   16.0971 C   0  0  0  0  0  0  0  0  0  0  0  0
  -29.5081  -18.7885   20.8027 C   0  0  0  0  0  0  0  0  0  0  0  0
  -18.3863  -26.2958   16.9387 C   0  0  0  0  0  0  0  0  0  0  0  0
  -19.2786  -28.1202   23.0959 C   0  0  0  0  0  0  0  0  0  0  0  0
  -18.1640  -26.6225   21.4278 C   0  0  0  0  0  0  0  0  0  0  0  0
  -18.2515  -29.0834   21.0291 C   0  0  0  0  0  0  0  0  0  0  0  0
  -21.9829  -25.0552   16.8966 C   0  0  0  0  0  0  0  0  0  0  0  0
  -30.2568  -21.8662   16.9413 C   0  0  0  0  0  0  0  0  0  0  0  0
  -20.3624  -27.7130   20.7882 C   0  0  1  0  0  0  0  0  0  0  0  0
  -19.8632  -26.3130   17.3011 C   0  0  2  0  0  0  0  0  0  0  0  0
  -19.0418  -27.8817   21.5913 C   0  0  0  0  0  0  0  0  0  0  0  0
  -26.1393  -13.1888   21.6282 N   0  0  0  0  0  0  0  0  0  0  0  0
  -26.1293  -13.0250   20.2944 N   0  0  0  0  0  0  0  0  0  0  0  0
  -29.0557  -22.6899   16.9775 N   0  0  0  0  0  0  0  0  0  0  0  0
  -22.6529  -28.6481   20.8411 N   0  0  0  0  0  0  0  0  0  0  0  0
  -29.6095  -14.3117   19.3913 N   0  0  0  0  0  0  0  0  0  0  0  0
  -24.7089  -12.5419   18.4614 N   0  0  0  0  0  0  0  0  0  0  0  0
  -21.9065  -12.4561   22.0019 N   0  0  0  0  0  0  0  0  0  0  0  0
  -29.2990  -16.6053   18.9382 N   0  0  0  0  0  0  0  0  0  0  0  0
  -24.8183  -30.5281   23.0934 N   0  0  0  0  0  0  0  0  0  0  0  0
  -20.1694  -27.5127   19.3561 N   0  0  0  0  0  0  0  0  0  0  0  0
  -20.5219  -25.1488   16.6440 N   0  3  0  0  0  0  0  0  0  0  0  0
  -29.5307  -23.5269   19.0914 O   0  0  0  0  0  0  0  0  0  0  0  0
  -22.0432  -12.1883   19.7285 O   0  0  0  0  0  0  0  0  0  0  0  0
  -23.5399  -28.5872   23.2380 O   0  0  0  0  0  0  0  0  0  0  0  0
  -20.7895  -30.0250   21.1019 O   0  0  0  0  0  0  0  0  0  0  0  0
  -20.1175  -25.1956   19.4280 O   0  0  0  0  0  0  0  0  0  0  0  0
  -31.1659  -15.4803   18.1439 O   0  0  0  0  0  0  0  0  0  0  0  0
  -23.2934  -13.3583   27.3220 O   0  0  0  0  0  0  0  0  0  0  0  0
  -27.1000  -24.6529   19.3199 O   0  0  0  0  0  0  0  0  0  1  0  0
  -20.5366  -17.8731   28.8775 F   0  0  0  0  0  0  0  0  0  0  0  0
  -24.2949  -15.0248   29.2872 F   0  0  0  0  0  0  0  0  0  0  0  0
  1  2  1  0  0  0  0
  1  5  2  0  0  0  0
  2  6  2  0  0  0  0
  3  8  2  0  0  0  0
  3 17  1  0  0  0  0
  4  9  1  0  0  0  0
  4 17  2  0  0  0  0
  5 19  1  0  0  0  0
  6 21  1  0  0  0  0
  7 10  2  0  0  0  0
  7 20  1  0  0  0  0
  8 27  1  0  0  0  0
  9 27  2  0  0  0  0
 10 28  1  0  0  0  0
 11 12  2  0  0  0  0
 11 29  1  0  0  0  0
 12 30  1  0  0  0  0
 13 22  1  0  0  0  0
 13 28  2  0  0  0  0
 14 23  1  0  0  0  0
 14 24  2  0  0  0  0
 15 23  2  0  0  0  0
 15 25  1  0  0  0  0
 16 30  2  0  0  0  0
 16 31  1  0  0  0  0
 17 32  1  0  0  0  0
 18 32  1  0  0  0  0
 18 33  2  0  0  0  0
 18 35  1  0  0  0  0
 19 21  2  0  0  0  0
 19 40  1  0  0  0  0
 20 22  2  0  0  0  0
 20 41  1  0  0  0  0
 21 52  1  0  0  0  0
 22 42  1  0  0  0  0
 23 63  1  0  0  0  0
 24 26  1  0  0  0  0
 24 56  1  0  0  0  0
 25 26  2  0  0  0  0
 25 57  1  0  0  0  0
 26 74  1  0  0  0  0
 27 84  1  0  0  0  0
 28 85  1  0  0  0  0
 29 31  2  0  0  0  0
 29 84  1  0  0  0  0
 30 86  1  0  0  0  0
 31 87  1  0  0  0  0
 32 67  2  0  0  0  0
 33 68  1  0  0  0  0
 33 72  1  0  0  0  0
 34 53  1  0  0  0  0
 34 69  1  0  0  0  0
 34 78  2  0  0  0  0
 35 73  1  0  0  0  0
 35 79  2  0  0  0  0
 36 54  1  0  0  0  0
 36 75  1  0  0  0  0
 36 80  2  0  0  0  0
 37 64  1  0  0  0  0
 37 70  1  0  0  0  0
 37 81  2  0  0  0  0
 38 65  1  0  0  0  0
 38 76  1  0  0  0  0
 38 82  2  0  0  0  0
 39 71  1  0  0  0  0
 39 74  1  0  0  0  0
 39 83  2  0  0  0  0
 40 43  1  0  0  0  0
 41 54  1  0  0  0  0
 42 70  1  0  0  0  0
 43 46  1  0  0  0  0
 44 47  1  0  0  0  0
 44 49  1  0  0  0  0
 45 48  1  0  0  0  0
 45 50  1  0  0  0  0
 46 52  1  0  0  0  0
 47 53  1  0  0  0  0
 48 55  1  0  0  0  0
 49 69  1  0  0  0  0
 50 71  1  0  0  0  0
 51 55  1  0  0  0  0
 51 71  1  0  0  0  0
 52 75  1  0  0  0  0
 53 85  1  0  0  0  0
 54 70  1  0  0  0  0
 55 68  1  0  0  0  0
 58 65  1  0  0  0  0
 59 66  1  0  0  0  0
 60 66  1  0  0  0  0
 61 66  1  0  0  0  0
 62 77  1  0  0  0  0
 63 69  1  0  0  0  0
 64 66  1  0  0  0  0
 64 76  1  0  0  0  0
 65 77  1  0  0  0  0
 67 68  1  0  0  0  0
M  CHG  1  77   1
M  ISO  4  39 100  53 101  74 100  85 101
M  END
> <Batch ID>
0040

> <Smiles>
CNC(C)C(=O)NC(C(=O)N1Cc2cc([101O:1][101CH:1]3CCCN(Cc4cc(C)c([100NH:0][100C:0](=O)N5CCCC(n6nc(-c7ccc(Oc8ccc(F)cc8F)cc7)c(C(N)=O)c6N)C5)c(C)c4)C3=O)ccc2CC1C(=O)NC1CCCc2ccccc21)C(C)(C)C

> <Shape>
0.262

> <Color>
0.085

> <Negative vol penalty>
0.000

$$$$

  -OEChem-04042322063D

 94103  0     1  0  0  0  0  0999 V2000
  -18.0721  -25.1068   22.3955 C   0  0  0  0  0  0  0  0  0  0  0  0
  -18.6248  -25.5454   21.1965 C   0  0  0  0  0  0  0  0  0  0  0  0
  -22.6290  -10.2905   20.2455 C   0  0  0  0  0  0  0  0  0  0  0  0
  -24.2442   -9.5641   21.8889 C   0  0  0  0  0  0  0  0  0  0  0  0
  -18.7437  -25.3346   23.5959 C   0  0  0  0  0  0  0  0  0  0  0  0
  -19.8490  -26.2130   21.1974 C   0  0  0  0  0  0  0  0  0  0  0  0
  -25.4650  -23.6655   17.4743 C   0  0  0  0  0  0  0  0  0  0  0  0
  -31.7068  -18.3158   20.1065 C   0  0  0  0  0  0  0  0  0  0  0  0
  -31.5270  -19.3652   19.2054 C   0  0  0  0  0  0  0  0  0  0  0  0
  -21.8723   -9.1429   20.4819 C   0  0  0  0  0  0  0  0  0  0  0  0
  -23.4874   -8.4165   22.1253 C   0  0  0  0  0  0  0  0  0  0  0  0
  -26.5231  -23.3560   16.6194 C   0  0  0  0  0  0  0  0  0  0  0  0
  -19.6799   -8.0401   22.8080 C   0  0  0  0  0  0  0  0  0  0  0  0
  -18.3004   -8.1909   22.9488 C   0  0  0  0  0  0  0  0  0  0  0  0
  -27.8108  -25.1879   17.5326 C   0  0  0  0  0  0  0  0  0  0  0  0
  -17.9478   -6.7318   21.0557 C   0  0  0  0  0  0  0  0  0  0  0  0
  -23.8150  -10.5011   20.9489 C   0  0  0  0  0  0  0  0  0  0  0  0
  -24.1899  -13.0232   20.8718 C   0  0  0  0  0  0  0  0  0  0  0  0
  -19.9814  -25.9968   23.6106 C   0  0  0  0  0  0  0  0  0  0  0  0
  -25.5820  -24.7291   18.3735 C   0  0  0  0  0  0  0  0  0  0  0  0
  -20.5372  -26.4511   22.3993 C   0  0  0  0  0  0  0  0  0  0  0  0
  -26.7591  -25.4948   18.4000 C   0  0  0  0  0  0  0  0  0  0  0  0
  -30.6770  -17.9603   20.9777 C   0  0  0  0  0  0  0  0  0  0  0  0
  -30.3175  -20.0593   19.1756 C   0  0  0  0  0  0  0  0  0  0  0  0
  -29.4675  -18.6544   20.9478 C   0  0  0  0  0  0  0  0  0  0  0  0
  -29.2877  -19.7039   20.0468 C   0  0  0  0  0  0  0  0  0  0  0  0
  -22.3015   -8.2059   21.4219 C   0  0  0  0  0  0  0  0  0  0  0  0
  -27.6930  -24.1155   16.6483 C   0  0  0  0  0  0  0  0  0  0  0  0
  -20.1934   -7.2353   21.7910 C   0  0  0  0  0  0  0  0  0  0  0  0
  -17.4343   -7.5367   22.0727 C   0  0  0  0  0  0  0  0  0  0  0  0
  -19.3273   -6.5811   20.9149 C   0  0  0  0  0  0  0  0  0  0  0  0
  -24.5974  -11.6861   20.7047 C   0  0  0  0  0  0  0  0  0  0  0  0
  -25.2882  -13.7646   20.5103 C   0  0  0  0  0  0  0  0  0  0  0  0
  -30.2048  -21.9028   15.8978 C   0  0  0  0  0  0  0  0  0  0  0  0
  -36.2508  -22.6768   15.6409 C   0  0  0  0  0  0  0  0  0  0  0  0
  -31.3625  -22.4834   15.5336 C   0  0  0  0  0  0  0  0  0  0  0  0
  -35.0994  -22.0998   16.0029 C   0  0  0  0  0  0  0  0  0  0  0  0
  -32.6528  -21.9976   15.9528 C   0  0  0  0  0  0  0  0  0  0  0  0
  -33.8029  -22.5824   15.5852 C   0  0  0  0  0  0  0  0  0  0  0  0
  -22.9311  -13.5482   21.3142 C   0  0  0  0  0  0  0  0  0  0  0  0
  -23.9863  -26.7438   21.1067 C   0  0  0  0  0  0  0  0  0  0  0  0
  -26.9295  -26.3627   21.8828 C   0  0  0  0  0  0  0  0  0  0  0  0
  -30.1163  -25.3610   22.5743 C   0  0  0  0  0  0  0  0  0  0  0  0
  -30.7870  -14.7062   20.6568 C   0  0  0  0  0  0  0  0  0  0  0  0
  -20.6472  -26.2618   24.9376 C   0  0  0  0  0  0  0  0  0  0  0  0
  -24.4443  -25.1367   19.2698 C   0  0  0  0  0  0  0  0  0  0  0  0
  -26.8270  -26.6513   19.3596 C   0  0  0  0  0  0  0  0  0  0  0  0
  -22.1196  -26.6456   24.8145 C   0  0  0  0  0  0  0  0  0  0  0  0
  -28.5731  -19.7210   13.9473 C   0  0  0  0  0  0  0  0  0  0  0  0
  -29.0750  -21.0004   13.2790 C   0  0  0  0  0  0  0  0  0  0  0  0
  -29.5913  -12.3820   18.2392 C   0  0  0  0  0  0  0  0  0  0  0  0
  -29.5268  -19.1105   14.9840 C   0  0  0  0  0  0  0  0  0  0  0  0
  -22.3079  -27.6968   23.7253 C   0  0  0  0  0  0  0  0  0  0  0  0
  -28.6376  -22.3100   13.9391 C   0  0  0  0  0  0  0  0  0  0  0  0
  -28.1547  -12.0997   18.6825 C   0  0  0  0  0  0  0  0  0  0  0  0
  -30.5242  -12.5681   19.4337 C   0  0  0  0  0  0  0  0  0  0  0  0
  -28.6477  -13.2988   20.8545 C   0  0  0  0  0  0  0  0  0  0  0  0
  -29.3574  -19.6262   16.4117 C   0  0  0  0  0  0  0  0  0  0  0  0
  -21.8750  -27.1570   22.3568 C   0  0  1  0  0  0  0  0  0  0  0  0
  -28.8626  -22.4257   15.4489 C   0  0  2  0  0  0  0  0  0  1  0  0
  -24.9129  -25.6601   20.6394 C   0  0  1  0  0  0  0  0  0  0  0  0
  -27.6586  -13.1592   19.6847 C   0  0  2  0  0  0  0  0  0  0  0  0
  -28.3645  -18.2702   21.8823 C   0  0  0  0  0  0  0  0  0  0  0  0
  -27.9917  -20.4504   20.0144 C   0  0  0  0  0  0  0  0  0  0  0  0
  -31.9167  -25.5779   24.3090 C   0  0  0  0  0  0  0  0  0  0  0  0
  -27.5324  -29.1861   20.8986 C   0  0  0  0  0  0  0  0  0  0  0  0
  -29.8097  -28.9789   21.9182 C   0  0  0  0  0  0  0  0  0  0  0  0
  -27.7817  -28.8657   23.3664 C   0  0  0  0  0  0  0  0  0  0  0  0
  -30.1411  -22.4451   23.0805 C   0  0  0  0  0  0  0  0  0  0  0  0
  -30.8955  -16.8323   21.9324 C   0  0  0  0  0  0  0  0  0  0  0  0
  -30.1510  -21.1852   18.1981 C   0  0  0  0  0  0  0  0  0  0  0  0
  -28.3297  -26.9208   21.8467 C   0  0  1  0  0  0  0  0  0  0  0  0
  -30.7338  -24.7555   23.8219 C   0  0  2  0  0  0  0  0  0  0  0  0
  -28.3544  -28.4690   21.9882 C   0  0  0  0  0  0  0  0  0  0  0  0
  -25.8562  -11.5811   20.2708 N   0  0  0  0  0  0  0  0  0  0  0  0
  -26.2492  -12.8617   20.1620 N   0  0  0  0  0  0  0  0  0  0  0  0
  -26.2576  -26.2603   20.6587 N   0  0  0  0  0  0  0  0  0  0  0  0
  -29.9974  -13.5873   20.3446 N   0  0  0  0  0  0  0  0  0  0  0  0
  -25.5159  -15.0943   20.4596 N   0  0  0  0  0  0  0  0  0  0  0  0
  -22.7442  -13.7691   22.6855 N   0  0  0  0  0  0  0  0  0  0  0  0
  -22.8922  -26.2826   21.8136 N   0  0  0  0  0  0  0  0  0  0  0  0
  -29.0776  -26.2143   22.8811 N   0  0  0  0  0  0  0  0  0  0  0  0
  -30.2097  -15.6272   21.5224 N   0  0  0  0  0  0  0  0  0  0  0  0
  -30.3070  -20.7492   16.7618 N   0  3  2  0  0  0  0  0  0  0  0  0
  -31.2070  -23.3696   23.5454 N   0  3  0  0  0  0  0  0  0  0  0  0
  -21.9940  -13.7981   20.5187 O   0  0  0  0  0  0  0  0  0  0  0  0
  -24.2446  -27.9132   20.8469 O   0  0  0  0  0  0  0  0  0  0  0  0
  -26.4402  -26.0309   22.9663 O   0  0  0  0  0  0  0  0  0  0  0  0
  -30.5179  -25.1056   21.4411 O   0  0  0  0  0  0  0  0  0  0  0  0
  -31.9203  -14.8748   20.1940 O   0  0  0  0  0  0  0  0  0  0  0  0
  -21.5632   -7.0860   21.6530 O   0  0  0  0  0  0  0  0  0  0  0  0
  -28.7282  -23.8038   15.8105 O   0  0  0  0  0  0  0  0  0  1  0  0
  -16.1096   -7.6803   22.2090 F   0  0  0  0  0  0  0  0  0  0  0  0
  -19.8147   -5.8056   19.9367 F   0  0  0  0  0  0  0  0  0  0  0  0
  1  2  1  0  0  0  0
  1  5  2  0  0  0  0
  2  6  2  0  0  0  0
  3 10  2  0  0  0  0
  3 17  1  0  0  0  0
  4 11  1  0  0  0  0
  4 17  2  0  0  0  0
  5 19  1  0  0  0  0
  6 21  1  0  0  0  0
  7 12  2  0  0  0  0
  7 20  1  0  0  0  0
  8  9  2  0  0  0  0
  8 23  1  0  0  0  0
  9 24  1  0  0  0  0
 10 27  1  0  0  0  0
 11 27  2  0  0  0  0
 12 28  1  0  0  0  0
 13 14  2  0  0  0  0
 13 29  1  0  0  0  0
 14 30  1  0  0  0  0
 15 22  1  0  0  0  0
 15 28  2  0  0  0  0
 16 30  2  0  0  0  0
 16 31  1  0  0  0  0
 17 32  1  0  0  0  0
 18 32  1  0  0  0  0
 18 33  2  0  0  0  0
 18 40  1  0  0  0  0
 19 21  2  0  0  0  0
 19 45  1  0  0  0  0
 20 22  2  0  0  0  0
 20 46  1  0  0  0  0
 21 59  1  0  0  0  0
 22 47  1  0  0  0  0
 23 25  2  0  0  0  0
 23 70  1  0  0  0  0
 24 26  2  0  0  0  0
 24 71  1  0  0  0  0
 25 26  1  0  0  0  0
 25 63  1  0  0  0  0
 26 64  1  0  0  0  0
 27 91  1  0  0  0  0
 28 92  1  0  0  0  0
 29 31  2  0  0  0  0
 29 91  1  0  0  0  0
 30 93  1  0  0  0  0
 31 94  1  0  0  0  0
 32 75  2  0  0  0  0
 33 76  1  0  0  0  0
 33 79  1  0  0  0  0
 34 36  2  0  0  0  0
 34 60  1  0  0  0  0
 34 84  1  0  0  0  0
 35 37  2  0  0  0  0
 36 38  1  0  0  0  0
 37 39  1  0  0  0  0
 38 39  2  0  0  0  0
 40 80  1  0  0  0  0
 40 86  2  0  0  0  0
 41 61  1  0  0  0  0
 41 81  1  0  0  0  0
 41 87  2  0  0  0  0
 42 72  1  0  0  0  0
 42 77  1  0  0  0  0
 42 88  2  0  0  0  0
 43 73  1  0  0  0  0
 43 82  1  0  0  0  0
 43 89  2  0  0  0  0
 44 78  1  0  0  0  0
 44 83  1  0  0  0  0
 44 90  2  0  0  0  0
 45 48  1  0  0  0  0
 46 61  1  0  0  0  0
 47 77  1  0  0  0  0
 48 53  1  0  0  0  0
 49 50  1  0  0  0  0
 49 52  1  0  0  0  0
 50 54  1  0  0  0  0
 51 55  1  0  0  0  0
 51 56  1  0  0  0  0
 52 58  1  0  0  0  0
 53 59  1  0  0  0  0
 54 60  1  0  0  0  0
 55 62  1  0  0  0  0
 56 78  1  0  0  0  0
 57 62  1  0  0  0  0
 57 78  1  0  0  0  0
 58 84  1  0  0  0  0
 59 81  1  0  0  0  0
 60 92  1  0  0  0  0
 61 77  1  0  0  0  0
 62 76  1  0  0  0  0
 65 73  1  0  0  0  0
 66 74  1  0  0  0  0
 67 74  1  0  0  0  0
 68 74  1  0  0  0  0
 69 85  1  0  0  0  0
 70 83  1  0  0  0  0
 71 84  1  0  0  0  0
 72 74  1  0  0  0  0
 72 82  1  0  0  0  0
 73 85  1  0  0  0  0
 75 76  1  0  0  0  0
M  CHG  2  84   1  85   1
M  ISO  4  44 100  60 101  83 100  92 101
M  END
> <Batch ID>
0040

> <Smiles>
C=CC=CC=C1N(Cc2ccc(C[100NH:0][100C:0](=O)N3CCCC(n4nc(-c5ccc(Oc6ccc(F)cc6F)cc5)c(C(N)=O)c4N)C3)c(C)c2C)CCCCC[101CH:1]1[101O:1]c1ccc2c(c1)CN(C(=O)C(NC(=O)C(C)NC)C(C)(C)C)C(C(=O)NC1CCCc3ccccc31)C2

> <Shape>
0.262

> <Color>
0.170

> <Negative vol penalty>
0.000

$$$$

  -OEChem-04042322063D

 88 97  0     1  0  0  0  0  0999 V2000
  -29.1538   -6.8627   23.9740 C   0  0  0  0  0  0  0  0  0  0  0  0
  -29.6754   -7.9122   23.2245 C   0  0  0  0  0  0  0  0  0  0  0  0
  -23.4423  -29.9010   23.3012 C   0  0  0  0  0  0  0  0  0  0  0  0
  -23.6579  -30.6338   21.0092 C   0  0  0  0  0  0  0  0  0  0  0  0
  -27.7765   -6.6487   24.0077 C   0  0  0  0  0  0  0  0  0  0  0  0
  -28.8200   -8.7478   22.5073 C   0  0  0  0  0  0  0  0  0  0  0  0
  -29.5236  -14.7476   21.5006 C   0  0  0  0  0  0  0  0  0  0  0  0
  -22.0552  -29.8632   23.1587 C   0  0  0  0  0  0  0  0  0  0  0  0
  -22.2709  -30.5961   20.8666 C   0  0  0  0  0  0  0  0  0  0  0  0
  -30.0171  -15.4644   20.4114 C   0  0  0  0  0  0  0  0  0  0  0  0
  -19.7453  -27.7961   21.8082 C   0  0  0  0  0  0  0  0  0  0  0  0
  -19.0724  -26.6809   22.3072 C   0  0  0  0  0  0  0  0  0  0  0  0
  -27.7653  -15.7781   19.6051 C   0  0  0  0  0  0  0  0  0  0  0  0
  -27.2616  -23.0340   20.9837 C   0  0  0  0  0  0  0  0  0  0  0  0
  -29.4428  -22.7256   19.9914 C   0  0  0  0  0  0  0  0  0  0  0  0
  -17.8045  -28.1083   23.7877 C   0  0  0  0  0  0  0  0  0  0  0  0
  -24.2436  -30.2863   22.2265 C   0  0  0  0  0  0  0  0  0  0  0  0
  -26.4165  -31.1050   23.2828 C   0  0  0  0  0  0  0  0  0  0  0  0
  -26.9030   -7.4880   23.2983 C   0  0  0  0  0  0  0  0  0  0  0  0
  -28.1456  -14.5309   21.6447 C   0  0  0  0  0  0  0  0  0  0  0  0
  -27.4298   -8.5440   22.5304 C   0  0  0  0  0  0  0  0  0  0  0  0
  -27.2566  -15.0604   20.6984 C   0  0  0  0  0  0  0  0  0  0  0  0
  -27.0504  -21.6557   20.9478 C   0  0  0  0  0  0  0  0  0  0  0  0
  -29.2315  -21.3472   19.9556 C   0  0  0  0  0  0  0  0  0  0  0  0
  -28.0353  -20.8123   20.4338 C   0  0  0  0  0  0  0  0  0  0  0  0
  -28.4578  -23.5690   20.5055 C   0  0  0  0  0  0  0  0  0  0  0  0
  -21.4695  -30.2108   21.9414 C   0  0  0  0  0  0  0  0  0  0  0  0
  -29.1382  -15.9773   19.4619 C   0  0  0  0  0  0  0  0  0  0  0  0
  -19.4478  -29.0675   22.2989 C   0  0  0  0  0  0  0  0  0  0  0  0
  -18.1020  -26.8370   23.2970 C   0  0  0  0  0  0  0  0  0  0  0  0
  -18.4774  -29.2236   23.2887 C   0  0  0  0  0  0  0  0  0  0  0  0
  -25.6764  -30.3260   22.3733 C   0  0  0  0  0  0  0  0  0  0  0  0
  -27.7265  -30.7834   23.0238 C   0  0  0  0  0  0  0  0  0  0  0  0
  -25.9607  -32.0361   24.2733 C   0  0  0  0  0  0  0  0  0  0  0  0
  -26.2758  -11.9619   21.7306 C   0  0  0  0  0  0  0  0  0  0  0  0
  -23.9773  -14.1389   22.4377 C   0  0  0  0  0  0  0  0  0  0  0  0
  -22.9007  -17.3731   22.2716 C   0  0  0  0  0  0  0  0  0  0  0  0
  -29.8011  -25.6712   20.1106 C   0  0  0  0  0  0  0  0  0  0  0  0
  -25.4251   -7.1885   23.3271 C   0  0  0  0  0  0  0  0  0  0  0  0
  -27.6272  -13.7785   22.8395 C   0  0  0  0  0  0  0  0  0  0  0  0
  -25.7670  -14.8730   20.8180 C   0  0  0  0  0  0  0  0  0  0  0  0
  -24.5592   -8.3474   22.8399 C   0  0  0  0  0  0  0  0  0  0  0  0
  -31.3043  -20.8378   15.7215 C   0  0  0  0  0  0  0  0  0  0  0  0
  -32.4278  -20.4624   16.6787 C   0  0  0  0  0  0  0  0  0  0  0  0
  -30.3275  -29.2249   19.2430 C   0  0  0  0  0  0  0  0  0  0  0  0
  -30.1021  -21.4618   16.4263 C   0  0  0  0  0  0  0  0  0  0  0  0
  -25.1212   -8.9263   21.5454 C   0  0  0  0  0  0  0  0  0  0  0  0
  -29.4417  -30.0295   20.1955 C   0  0  0  0  0  0  0  0  0  0  0  0
  -32.2450  -19.1669   17.4692 C   0  0  0  0  0  0  0  0  0  0  0  0
  -30.8213  -27.9204   19.8531 C   0  0  0  0  0  0  0  0  0  0  0  0
  -28.5541  -27.7527   20.9031 C   0  0  0  0  0  0  0  0  0  0  0  0
  -29.1802  -20.4835   17.1363 C   0  0  0  0  0  0  0  0  0  0  0  0
  -26.5324   -9.4872   21.7588 C   0  0  1  0  0  0  0  0  0  0  0  0
  -26.2433  -13.1777   22.6129 C   0  0  1  0  0  0  0  0  0  0  0  0
  -28.8771  -29.1867   21.3513 C   0  0  2  0  0  0  0  0  0  0  0  0
  -30.8265  -18.6289   17.6675 C   0  0  1  0  0  0  0  0  0  0  0  0
  -25.7606  -21.1082   21.4654 C   0  0  0  0  0  0  0  0  0  0  0  0
  -27.8088  -19.3343   20.3959 C   0  0  0  0  0  0  0  0  0  0  0  0
  -21.4362  -19.3648   22.7029 C   0  0  0  0  0  0  0  0  0  0  0  0
  -22.3543  -12.9914   20.1227 C   0  0  0  0  0  0  0  0  0  0  0  0
  -20.9273  -15.0473   20.1955 C   0  0  0  0  0  0  0  0  0  0  0  0
  -21.0194  -13.5246   22.1692 C   0  0  0  0  0  0  0  0  0  0  0  0
  -24.3490  -18.0439   24.7638 C   0  0  0  0  0  0  0  0  0  0  0  0
  -30.3069  -20.4622   19.3978 C   0  0  0  0  0  0  0  0  0  0  0  0
  -30.8272  -17.4081   18.5923 C   0  0  0  0  0  0  0  0  0  1  0  0
  -23.0163  -14.9790   21.6316 C   0  0  1  0  0  0  0  0  0  0  0  0
  -22.3214  -18.2974   23.3273 C   0  0  2  0  0  0  0  0  0  0  0  0
  -21.8575  -14.1376   21.0262 C   0  0  0  0  0  0  0  0  0  0  0  0
  -26.4518  -29.5668   21.5946 N   0  0  0  0  0  0  0  0  0  0  0  0
  -27.6927  -29.8672   22.0140 N   0  0  0  0  0  0  0  0  0  0  0  0
  -25.3094  -14.1248   22.0005 N   0  0  0  0  0  0  0  0  0  0  0  0
  -29.7059  -27.0734   20.2854 N   0  0  0  0  0  0  0  0  0  0  0  0
  -28.8924  -31.1978   23.5635 N   0  0  0  0  0  0  0  0  0  0  0  0
  -25.8079  -33.3802   23.9067 N   0  0  0  0  0  0  0  0  0  0  0  0
  -28.6732  -24.9691   20.5428 N   0  0  0  0  0  0  0  0  0  0  0  0
  -26.4702  -10.7764   22.4135 N   0  0  0  0  0  0  0  0  0  0  0  0
  -22.5762  -16.0549   22.5132 N   0  0  0  0  0  0  0  0  0  0  0  0
  -29.8526  -19.6606   18.2069 N   0  3  1  0  0  0  0  0  0  0  0  0
  -23.4153  -18.9748   24.0792 N   0  3  0  0  0  0  0  0  0  0  0  0
  -25.7123  -31.6895   25.4530 O   0  0  0  0  0  0  0  0  0  0  0  0
  -26.1334  -12.0897   20.5202 O   0  0  0  0  0  0  0  0  0  0  0  0
  -23.5627  -13.5236   23.4232 O   0  0  0  0  0  0  0  0  0  0  0  0
  -23.5706  -17.7802   21.3250 O   0  0  0  0  0  0  0  0  0  0  0  0
  -30.7964  -25.1478   19.6051 O   0  0  0  0  0  0  0  0  0  0  0  0
  -20.1161  -30.1738   21.8019 O   0  0  0  0  0  0  0  0  0  0  0  0
  -29.6174  -16.6767   18.3975 O   0  0  0  0  0  0  0  0  0  1  0  0
  -17.4549  -25.7661   23.7750 F   0  0  0  0  0  0  0  0  0  0  0  0
  -18.1864  -30.4426   23.7632 F   0  0  0  0  0  0  0  0  0  0  0  0
  1  2  1  0  0  0  0
  1  5  2  0  0  0  0
  2  6  2  0  0  0  0
  3  8  2  0  0  0  0
  3 17  1  0  0  0  0
  4  9  1  0  0  0  0
  4 17  2  0  0  0  0
  5 19  1  0  0  0  0
  6 21  1  0  0  0  0
  7 10  2  0  0  0  0
  7 20  1  0  0  0  0
  8 27  1  0  0  0  0
  9 27  2  0  0  0  0
 10 28  1  0  0  0  0
 11 12  2  0  0  0  0
 11 29  1  0  0  0  0
 12 30  1  0  0  0  0
 13 22  1  0  0  0  0
 13 28  2  0  0  0  0
 14 23  2  0  0  0  0
 14 26  1  0  0  0  0
 15 24  1  0  0  0  0
 15 26  2  0  0  0  0
 16 30  2  0  0  0  0
 16 31  1  0  0  0  0
 17 32  1  0  0  0  0
 18 32  1  0  0  0  0
 18 33  2  0  0  0  0
 18 34  1  0  0  0  0
 19 21  2  0  0  0  0
 19 39  1  0  0  0  0
 20 22  2  0  0  0  0
 20 40  1  0  0  0  0
 21 53  1  0  0  0  0
 22 41  1  0  0  0  0
 23 25  1  0  0  0  0
 23 57  1  0  0  0  0
 24 25  2  0  0  0  0
 24 64  1  0  0  0  0
 25 58  1  0  0  0  0
 26 75  1  0  0  0  0
 27 85  1  0  0  0  0
 28 86  1  0  0  0  0
 29 31  2  0  0  0  0
 29 85  1  0  0  0  0
 30 87  1  0  0  0  0
 31 88  1  0  0  0  0
 32 69  2  0  0  0  0
 33 70  1  0  0  0  0
 33 73  1  0  0  0  0
 34 74  1  0  0  0  0
 34 80  2  0  0  0  0
 35 54  1  0  0  0  0
 35 76  1  0  0  0  0
 35 81  2  0  0  0  0
 36 66  1  0  0  0  0
 36 71  1  0  0  0  0
 36 82  2  0  0  0  0
 37 67  1  0  0  0  0
 37 77  1  0  0  0  0
 37 83  2  0  0  0  0
 38 72  1  0  0  0  0
 38 75  1  0  0  0  0
 38 84  2  0  0  0  0
 39 42  1  0  0  0  0
 40 54  1  0  0  0  0
 41 71  1  0  0  0  0
 42 47  1  0  0  0  0
 43 44  1  0  0  0  0
 43 46  1  0  0  0  0
 44 49  1  0  0  0  0
 45 48  1  0  0  0  0
 45 50  1  0  0  0  0
 46 52  1  0  0  0  0
 47 53  1  0  0  0  0
 48 55  1  0  0  0  0
 49 56  1  0  0  0  0
 50 72  1  0  0  0  0
 51 55  1  0  0  0  0
 51 72  1  0  0  0  0
 52 78  1  0  0  0  0
 53 76  1  0  0  0  0
 54 71  1  0  0  0  0
 55 70  1  0  0  0  0
 56 65  1  0  0  0  0
 56 78  1  0  0  0  0
 59 67  1  0  0  0  0
 60 68  1  0  0  0  0
 61 68  1  0  0  0  0
 62 68  1  0  0  0  0
 63 79  1  0  0  0  0
 64 78  1  0  0  0  0
 65 86  1  0  0  0  0
 66 68  1  0  0  0  0
 66 77  1  0  0  0  0
 67 79  1  0  0  0  0
 69 70  1  0  0  0  0
M  CHG  2  78   1  79   1
M  ISO  4  38 100  65 101  75 100  86 101
M  END
> <Batch ID>
0040

> <Smiles>
CNC(C)C(=O)NC(C(=O)N1Cc2cc([101O:1][101CH2:1]C3CCCCCN3Cc3cc([100NH:0][100C:0](=O)N4CCCC(n5nc(-c6ccc(Oc7ccc(F)cc7F)cc6)c(C(N)=O)c5N)C4)cc(C)c3C)ccc2CC1C(=O)NC1CCCc2ccccc21)C(C)(C)C

> <Shape>
0.284

> <Color>
0.057

> <Negative vol penalty>
0.000

$$$$

  -OEChem-04042322063D

 84 92  0     1  0  0  0  0  0999 V2000
  -28.1040  -12.4558   17.8415 C   0  0  0  0  0  0  0  0  0  0  0  0
  -27.6071  -13.6983   17.4612 C   0  0  0  0  0  0  0  0  0  0  0  0
  -28.6260  -24.5891   18.6556 C   0  0  0  0  0  0  0  0  0  0  0  0
  -27.4113  -23.5590   20.4723 C   0  0  0  0  0  0  0  0  0  0  0  0
  -27.5339  -11.7782   18.9184 C   0  0  0  0  0  0  0  0  0  0  0  0
  -26.5389  -14.2634   18.1569 C   0  0  0  0  0  0  0  0  0  0  0  0
  -23.9405  -20.6211   20.1927 C   0  0  0  0  0  0  0  0  0  0  0  0
  -17.8641  -28.2049   21.7676 C   0  0  0  0  0  0  0  0  0  0  0  0
  -17.8393  -26.8583   22.1305 C   0  0  0  0  0  0  0  0  0  0  0  0
  -29.6794  -23.6966   18.8538 C   0  0  0  0  0  0  0  0  0  0  0  0
  -28.4647  -22.6665   20.6706 C   0  0  0  0  0  0  0  0  0  0  0  0
  -22.7658  -21.3703   20.1435 C   0  0  0  0  0  0  0  0  0  0  0  0
  -30.6808  -19.8836   21.4209 C   0  0  0  0  0  0  0  0  0  0  0  0
  -30.3650  -18.5381   21.6089 C   0  0  0  0  0  0  0  0  0  0  0  0
  -21.9117  -20.1442   22.0373 C   0  0  0  0  0  0  0  0  0  0  0  0
  -29.3110  -18.4818   19.4357 C   0  0  0  0  0  0  0  0  0  0  0  0
  -27.4919  -24.5203   19.4648 C   0  0  0  0  0  0  0  0  0  0  0  0
  -25.2894  -25.2693   18.4180 C   0  0  0  0  0  0  0  0  0  0  0  0
  -26.4644  -12.3396   19.6337 C   0  0  0  0  0  0  0  0  0  0  0  0
  -24.1055  -19.6187   21.1593 C   0  0  0  0  0  0  0  0  0  0  0  0
  -25.9530  -13.5920   19.2435 C   0  0  0  0  0  0  0  0  0  0  0  0
  -23.0905  -19.3854   22.0982 C   0  0  0  0  0  0  0  0  0  0  0  0
  -18.8774  -29.0370   22.2436 C   0  0  0  0  0  0  0  0  0  0  0  0
  -18.8277  -26.3439   22.9695 C   0  0  0  0  0  0  0  0  0  0  0  0
  -19.8658  -28.5225   23.0827 C   0  0  0  0  0  0  0  0  0  0  0  0
  -29.5988  -22.7353   19.8613 C   0  0  0  0  0  0  0  0  0  0  0  0
  -21.7500  -21.1300   21.0641 C   0  0  0  0  0  0  0  0  0  0  0  0
  -30.3115  -20.5283   20.2404 C   0  0  0  0  0  0  0  0  0  0  0  0
  -29.6802  -17.8371   20.6163 C   0  0  0  0  0  0  0  0  0  0  0  0
  -29.6267  -19.8274   19.2477 C   0  0  0  0  0  0  0  0  0  0  0  0
  -19.8410  -27.1760   23.4457 C   0  0  0  0  0  0  0  0  0  0  0  0
  -26.4036  -25.4424   19.2609 C   0  0  0  0  0  0  0  0  0  0  0  0
  -24.5548  -26.4185   18.5796 C   0  0  0  0  0  0  0  0  0  0  0  0
  -24.9488  -24.1680   17.5654 C   0  0  0  0  0  0  0  0  0  0  0  0
  -24.5340  -16.4702   21.0753 C   0  0  0  0  0  0  0  0  0  0  0  0
  -24.9222  -16.8296   24.2756 C   0  0  0  0  0  0  0  0  0  0  0  0
  -24.3068  -18.6752   27.0796 C   0  0  0  0  0  0  0  0  0  0  0  0
  -23.0971  -30.2540   22.6635 C   0  0  0  0  0  0  0  0  0  0  0  0
  -25.8500  -11.5482   20.7610 C   0  0  0  0  0  0  0  0  0  0  0  0
  -25.3896  -18.8375   21.2157 C   0  0  0  0  0  0  0  0  0  0  0  0
  -23.2267  -18.3345   23.1685 C   0  0  0  0  0  0  0  0  0  0  0  0
  -24.9647  -12.3850   21.6809 C   0  0  0  0  0  0  0  0  0  0  0  0
  -25.5439  -30.9892   20.1837 C   0  0  0  0  0  0  0  0  0  0  0  0
  -24.0249  -13.2644   20.8623 C   0  0  0  0  0  0  0  0  0  0  0  0
  -25.9114  -29.6177   19.6146 C   0  0  0  0  0  0  0  0  0  0  0  0
  -25.2723  -30.9229   21.6850 C   0  0  0  0  0  0  0  0  0  0  0  0
  -24.6384  -28.5470   21.5203 C   0  0  0  0  0  0  0  0  0  0  0  0
  -24.8116  -14.2491   19.9889 C   0  0  1  0  0  0  0  0  0  0  0  0
  -25.2403  -17.4925   21.9200 C   0  0  1  0  0  0  0  0  0  0  0  0
  -24.8667  -28.5528   19.9991 C   0  0  2  0  0  0  0  0  0  0  0  0
  -18.8788  -30.4749   21.8390 C   0  0  0  0  0  0  0  0  0  0  0  0
  -24.7208  -18.6956   29.5546 C   0  0  0  0  0  0  0  0  0  0  0  0
  -22.7783  -14.6909   24.6495 C   0  0  0  0  0  0  0  0  0  0  0  0
  -22.5598  -15.4256   27.0329 C   0  0  0  0  0  0  0  0  0  0  0  0
  -24.7247  -14.5006   26.2083 C   0  0  0  0  0  0  0  0  0  0  0  0
  -25.8045  -21.2231   26.9252 C   0  0  0  0  0  0  0  0  0  0  0  0
  -20.9430  -29.4341   23.5836 C   0  0  0  0  0  0  0  0  0  0  0  0
  -18.7593  -24.8900   23.3338 C   0  0  0  0  0  0  0  0  0  0  0  0
  -19.6042  -24.0438   21.1409 C   0  0  0  0  0  0  0  0  0  0  0  0
  -20.7009  -23.1958   20.5275 C   0  0  0  0  0  0  0  0  0  1  0  0
  -24.0030  -16.8094   25.4730 C   0  0  1  0  0  0  0  0  0  0  0  0
  -25.2221  -19.1513   28.1930 C   0  0  2  0  0  0  0  0  0  0  0  0
  -23.5128  -15.3752   25.8197 C   0  0  0  0  0  0  0  0  0  0  0  0
  -26.3830  -26.6097   19.9096 N   0  0  0  0  0  0  0  0  0  0  0  0
  -25.2469  -27.1806   19.4743 N   0  0  0  0  0  0  0  0  0  0  0  0
  -24.4984  -17.5928   23.1785 N   0  0  0  0  0  0  0  0  0  0  0  0
  -24.2718  -29.8950   21.9823 N   0  0  0  0  0  0  0  0  0  0  0  0
  -23.3909  -26.8415   18.0422 N   0  0  0  0  0  0  0  0  0  0  0  0
  -25.8143  -23.0667   17.5186 N   0  0  0  0  0  0  0  0  0  0  0  0
  -25.2971  -15.3552   20.7859 N   0  0  0  0  0  0  0  0  0  0  0  0
  -24.7257  -17.4713   26.5537 N   0  0  0  0  0  0  0  0  0  0  0  0
  -22.1988  -29.2205   22.8995 N   0  0  0  0  0  0  0  0  0  0  0  0
  -25.3033  -20.6394   28.1961 N   0  3  0  0  0  0  0  0  0  0  0  0
  -19.7657  -24.0614   22.6166 N   0  3  0  0  0  0  0  0  0  0  0  0
  -23.9162  -24.1680   16.8532 O   0  0  0  0  0  0  0  0  0  0  0  0
  -23.3814  -16.6771   20.7140 O   0  0  0  0  0  0  0  0  0  0  0  0
  -25.9807  -16.1975   24.3151 O   0  0  0  0  0  0  0  0  0  0  0  0
  -23.3168  -19.3060   26.7154 O   0  0  0  0  0  0  0  0  0  0  0  0
  -22.8635  -31.4110   23.0292 O   0  0  0  0  0  0  0  0  0  0  0  0
  -30.6264  -21.8640   20.0549 O   0  0  0  0  0  0  0  0  0  0  0  0
  -20.6020  -21.8593   21.0179 O   0  0  0  0  0  0  0  0  0  1  0  0
  -29.3784  -16.5446   20.7963 F   0  0  0  0  0  0  0  0  0  0  0  0
  -29.2704  -20.4410   18.1109 F   0  0  0  0  0  0  0  0  0  0  0  0
  -21.0644  -26.5343   24.4909 Cl  0  0  0  0  0  0  0  0  0  0  0  0
  1  2  1  0  0  0  0
  1  5  2  0  0  0  0
  2  6  2  0  0  0  0
  3 10  2  0  0  0  0
  3 17  1  0  0  0  0
  4 11  1  0  0  0  0
  4 17  2  0  0  0  0
  5 19  1  0  0  0  0
  6 21  1  0  0  0  0
  7 12  2  0  0  0  0
  7 20  1  0  0  0  0
  8  9  2  0  0  0  0
  8 23  1  0  0  0  0
  9 24  1  0  0  0  0
 10 26  1  0  0  0  0
 11 26  2  0  0  0  0
 12 27  1  0  0  0  0
 13 14  2  0  0  0  0
 13 28  1  0  0  0  0
 14 29  1  0  0  0  0
 15 22  1  0  0  0  0
 15 27  2  0  0  0  0
 16 29  2  0  0  0  0
 16 30  1  0  0  0  0
 17 32  1  0  0  0  0
 18 32  1  0  0  0  0
 18 33  2  0  0  0  0
 18 34  1  0  0  0  0
 19 21  2  0  0  0  0
 19 39  1  0  0  0  0
 20 22  2  0  0  0  0
 20 40  1  0  0  0  0
 21 48  1  0  0  0  0
 22 41  1  0  0  0  0
 23 25  2  0  0  0  0
 23 51  1  0  0  0  0
 24 31  2  0  0  0  0
 24 58  1  0  0  0  0
 25 31  1  0  0  0  0
 25 57  1  0  0  0  0
 26 80  1  0  0  0  0
 27 81  1  0  0  0  0
 28 30  2  0  0  0  0
 28 80  1  0  0  0  0
 29 82  1  0  0  0  0
 30 83  1  0  0  0  0
 31 84  1  0  0  0  0
 32 64  2  0  0  0  0
 33 65  1  0  0  0  0
 33 68  1  0  0  0  0
 34 69  1  0  0  0  0
 34 75  2  0  0  0  0
 35 49  1  0  0  0  0
 35 70  1  0  0  0  0
 35 76  2  0  0  0  0
 36 61  1  0  0  0  0
 36 66  1  0  0  0  0
 36 77  2  0  0  0  0
 37 62  1  0  0  0  0
 37 71  1  0  0  0  0
 37 78  2  0  0  0  0
 38 67  1  0  0  0  0
 38 72  1  0  0  0  0
 38 79  2  0  0  0  0
 39 42  1  0  0  0  0
 40 49  1  0  0  0  0
 41 66  1  0  0  0  0
 42 44  1  0  0  0  0
 43 45  1  0  0  0  0
 43 46  1  0  0  0  0
 44 48  1  0  0  0  0
 45 50  1  0  0  0  0
 46 67  1  0  0  0  0
 47 50  1  0  0  0  0
 47 67  1  0  0  0  0
 48 70  1  0  0  0  0
 49 66  1  0  0  0  0
 50 65  1  0  0  0  0
 52 62  1  0  0  0  0
 53 63  1  0  0  0  0
 54 63  1  0  0  0  0
 55 63  1  0  0  0  0
 56 73  1  0  0  0  0
 57 72  1  0  0  0  0
 58 74  1  0  0  0  0
 59 60  1  0  0  0  0
 59 74  1  0  0  0  0
 60 81  1  0  0  0  0
 61 63  1  0  0  0  0
 61 71  1  0  0  0  0
 62 73  1  0  0  0  0
 64 65  1  0  0  0  0
M  CHG  2  73   1  74   1
M  ISO  4  38 100  60 101  72 100  81 101
M  END
> <Batch ID>
0040

> <Smiles>
CNC(C)C(=O)NC(C(=O)N1Cc2cc([101O:1][101CH2:1]CNCc3ccc(C)c(C[100NH:0][100C:0](=O)N4CCCC(n5nc(-c6ccc(Oc7ccc(F)cc7F)cc6)c(C(N)=O)c5N)C4)c3Cl)ccc2CC1C(=O)NC1CCCc2ccccc21)C(C)(C)C

> <Shape>
0.228

> <Color>
0.075

> <Negative vol penalty>
0.000

$$$$

  -OEChem-04042322063D

 85 93  0     1  0  0  0  0  0999 V2000
  -27.5435  -24.7022   16.6612 C   0  0  0  0  0  0  0  0  0  0  0  0
  -26.3664  -25.0011   17.3399 C   0  0  0  0  0  0  0  0  0  0  0  0
  -26.9781  -17.9364   21.8538 C   0  0  0  0  0  0  0  0  0  0  0  0
  -24.6596  -18.3880   21.3462 C   0  0  0  0  0  0  0  0  0  0  0  0
  -28.7726  -25.0802   17.1999 C   0  0  0  0  0  0  0  0  0  0  0  0
  -26.4179  -25.6773   18.5583 C   0  0  0  0  0  0  0  0  0  0  0  0
  -22.9883  -29.3905   18.8660 C   0  0  0  0  0  0  0  0  0  0  0  0
  -26.8338  -16.6401   21.3596 C   0  0  0  0  0  0  0  0  0  0  0  0
  -24.5153  -17.0916   20.8519 C   0  0  0  0  0  0  0  0  0  0  0  0
  -21.6715  -29.0202   19.1354 C   0  0  0  0  0  0  0  0  0  0  0  0
  -26.7325  -15.1225   18.3397 C   0  0  0  0  0  0  0  0  0  0  0  0
  -27.7308  -14.6356   17.4960 C   0  0  0  0  0  0  0  0  0  0  0  0
  -18.9973  -23.8072   24.1713 C   0  0  0  0  0  0  0  0  0  0  0  0
  -21.9833  -29.6188   21.4514 C   0  0  0  0  0  0  0  0  0  0  0  0
  -20.3316  -25.5201   25.9229 C   0  0  0  0  0  0  0  0  0  0  0  0
  -28.1709  -12.8409   19.0525 C   0  0  0  0  0  0  0  0  0  0  0  0
  -25.8909  -18.8104   21.8472 C   0  0  0  0  0  0  0  0  0  0  0  0
  -18.9664  -25.1853   23.9578 C   0  0  0  0  0  0  0  0  0  0  0  0
  -26.4203  -21.2970   21.6373 C   0  0  0  0  0  0  0  0  0  0  0  0
  -28.8387  -25.7699   18.4208 C   0  0  0  0  0  0  0  0  0  0  0  0
  -23.8173  -29.8682   19.8912 C   0  0  0  0  0  0  0  0  0  0  0  0
  -27.6492  -26.0637   19.1145 C   0  0  0  0  0  0  0  0  0  0  0  0
  -23.3095  -29.9969   21.1919 C   0  0  0  0  0  0  0  0  0  0  0  0
  -19.6952  -23.2856   25.2605 C   0  0  0  0  0  0  0  0  0  0  0  0
  -19.6336  -26.0417   24.8336 C   0  0  0  0  0  0  0  0  0  0  0  0
  -20.3624  -24.1420   26.1363 C   0  0  0  0  0  0  0  0  0  0  0  0
  -25.6025  -16.2177   20.8586 C   0  0  0  0  0  0  0  0  0  0  0  0
  -21.1696  -29.1316   20.4288 C   0  0  0  0  0  0  0  0  0  0  0  0
  -26.4534  -14.4687   19.5398 C   0  0  0  0  0  0  0  0  0  0  0  0
  -28.4500  -13.4948   17.8524 C   0  0  0  0  0  0  0  0  0  0  0  0
  -27.1725  -13.3278   19.8962 C   0  0  0  0  0  0  0  0  0  0  0  0
  -26.0392  -20.1494   22.3581 C   0  0  0  0  0  0  0  0  0  0  0  0
  -26.4120  -22.3062   22.5690 C   0  0  0  0  0  0  0  0  0  0  0  0
  -18.2217  -25.7157   22.7983 C   0  0  0  0  0  0  0  0  0  0  0  0
  -26.7520  -21.4382   20.2496 C   0  0  0  0  0  0  0  0  0  0  0  0
  -26.5345  -28.8891   21.2186 C   0  0  0  0  0  0  0  0  0  0  0  0
  -26.3253  -31.7134   22.8003 C   0  0  0  0  0  0  0  0  0  0  0  0
  -24.3537  -34.2494   23.9530 C   0  0  0  0  0  0  0  0  0  0  0  0
  -23.4963  -23.0530   27.7451 C   0  0  0  0  0  0  0  0  0  0  0  0
  -30.1932  -26.1161   18.9866 C   0  0  0  0  0  0  0  0  0  0  0  0
  -25.2273  -30.2886   19.5789 C   0  0  0  0  0  0  0  0  0  0  0  0
  -24.1523  -30.5232   22.3237 C   0  0  0  0  0  0  0  0  0  0  0  0
  -30.1399  -27.1601   20.0990 C   0  0  0  0  0  0  0  0  0  0  0  0
  -27.0220  -23.0860   27.2499 C   0  0  0  0  0  0  0  0  0  0  0  0
  -29.0404  -26.8184   21.0996 C   0  0  0  0  0  0  0  0  0  0  0  0
  -27.2043  -22.4406   25.8750 C   0  0  0  0  0  0  0  0  0  0  0  0
  -25.8794  -22.4393   28.0298 C   0  0  0  0  0  0  0  0  0  0  0  0
  -24.7727  -21.7463   25.9396 C   0  0  0  0  0  0  0  0  0  0  0  0
  -27.6626  -26.8177   20.4265 C   0  0  1  0  0  0  0  0  0  0  0  0
  -26.1389  -30.2776   20.8021 C   0  0  1  0  0  0  0  0  0  0  0  0
  -25.8773  -22.4020   25.0933 C   0  0  2  0  0  0  0  0  0  0  0  0
  -19.7149  -21.8069   25.4690 C   0  0  0  0  0  0  0  0  0  0  0  0
  -19.6154  -27.5206   24.6252 C   0  0  0  0  0  0  0  0  0  0  0  0
  -24.4632  -36.3991   25.2429 C   0  0  0  0  0  0  0  0  0  0  0  0
  -26.6177  -30.1377   25.3968 C   0  0  0  0  0  0  0  0  0  0  0  0
  -25.7804  -32.1492   26.6302 C   0  0  0  0  0  0  0  0  0  0  0  0
  -27.9034  -32.2817   25.3271 C   0  0  0  0  0  0  0  0  0  0  0  0
  -23.3258  -35.8126   21.6598 C   0  0  0  0  0  0  0  0  0  0  0  0
  -21.1168  -23.6064   27.3086 C   0  0  0  0  0  0  0  0  0  0  0  0
  -18.2651  -27.0003   20.6900 C   0  0  0  0  0  0  0  0  0  0  0  0
  -19.3217  -27.7349   19.8902 C   0  0  0  0  0  0  0  0  0  1  0  0
  -25.6982  -32.1694   24.0957 C   0  0  1  0  0  0  0  0  0  0  0  0
  -24.4987  -35.7579   23.8644 C   0  0  2  0  0  0  0  0  0  0  0  0
  -26.4844  -31.6727   25.3417 C   0  0  0  0  0  0  0  0  0  0  0  0
  -25.8059  -20.4047   23.6483 N   0  0  0  0  0  0  0  0  0  0  0  0
  -26.0412  -21.7243   23.7455 N   0  0  0  0  0  0  0  0  0  0  0  0
  -25.5264  -30.9153   21.9693 N   0  0  0  0  0  0  0  0  0  0  0  0
  -24.6498  -22.4359   27.2335 N   0  0  0  0  0  0  0  0  0  0  0  0
  -26.6858  -23.6256   22.4885 N   0  0  0  0  0  0  0  0  0  0  0  0
  -16.9149  -25.4639   22.7225 N   0  0  0  0  0  0  0  0  0  0  0  0
  -26.7098  -20.2997   19.4334 N   0  0  0  0  0  0  0  0  0  0  0  0
  -27.1922  -28.1731   20.2367 N   0  0  0  0  0  0  0  0  0  0  0  0
  -25.5798  -33.6206   24.0032 N   0  0  0  0  0  0  0  0  0  0  0  0
  -22.3764  -23.0099   26.9237 N   0  0  0  0  0  0  0  0  0  0  0  0
  -18.8932  -26.4205   21.8798 N   0  3  0  0  0  0  0  0  0  0  0  0
  -23.3947  -36.3373   23.0480 N   0  3  0  0  0  0  0  0  0  0  0  0
  -27.0923  -22.5382   19.7518 O   0  0  0  0  0  0  0  0  0  0  0  0
  -26.2643  -28.4970   22.3477 O   0  0  0  0  0  0  0  0  0  0  0  0
  -27.4788  -32.0588   22.5324 O   0  0  0  0  0  0  0  0  0  0  0  0
  -23.2620  -33.6855   23.9791 O   0  0  0  0  0  0  0  0  0  0  0  0
  -23.4682  -23.6062   28.8497 O   0  0  0  0  0  0  0  0  0  0  0  0
  -25.4614  -14.9529   20.3760 O   0  0  0  0  0  0  0  0  0  0  0  0
  -19.8849  -28.7703   20.6946 O   0  0  0  0  0  0  0  0  0  1  0  0
  -29.4076  -13.0264   17.0413 F   0  0  0  0  0  0  0  0  0  0  0  0
  -26.9081  -12.6947   21.0473 F   0  0  0  0  0  0  0  0  0  0  0  0
  1  2  1  0  0  0  0
  1  5  2  0  0  0  0
  2  6  2  0  0  0  0
  3  8  2  0  0  0  0
  3 17  1  0  0  0  0
  4  9  1  0  0  0  0
  4 17  2  0  0  0  0
  5 20  1  0  0  0  0
  6 22  1  0  0  0  0
  7 10  2  0  0  0  0
  7 21  1  0  0  0  0
  8 27  1  0  0  0  0
  9 27  2  0  0  0  0
 10 28  1  0  0  0  0
 11 12  2  0  0  0  0
 11 29  1  0  0  0  0
 12 30  1  0  0  0  0
 13 18  1  0  0  0  0
 13 24  2  0  0  0  0
 14 23  1  0  0  0  0
 14 28  2  0  0  0  0
 15 25  1  0  0  0  0
 15 26  2  0  0  0  0
 16 30  2  0  0  0  0
 16 31  1  0  0  0  0
 17 32  1  0  0  0  0
 18 25  2  0  0  0  0
 18 34  1  0  0  0  0
 19 32  1  0  0  0  0
 19 33  2  0  0  0  0
 19 35  1  0  0  0  0
 20 22  2  0  0  0  0
 20 40  1  0  0  0  0
 21 23  2  0  0  0  0
 21 41  1  0  0  0  0
 22 49  1  0  0  0  0
 23 42  1  0  0  0  0
 24 26  1  0  0  0  0
 24 52  1  0  0  0  0
 25 53  1  0  0  0  0
 26 59  1  0  0  0  0
 27 82  1  0  0  0  0
 28 83  1  0  0  0  0
 29 31  2  0  0  0  0
 29 82  1  0  0  0  0
 30 84  1  0  0  0  0
 31 85  1  0  0  0  0
 32 65  2  0  0  0  0
 33 66  1  0  0  0  0
 33 69  1  0  0  0  0
 34 70  1  0  0  0  0
 34 75  2  0  0  0  0
 35 71  1  0  0  0  0
 35 77  2  0  0  0  0
 36 50  1  0  0  0  0
 36 72  1  0  0  0  0
 36 78  2  0  0  0  0
 37 62  1  0  0  0  0
 37 67  1  0  0  0  0
 37 79  2  0  0  0  0
 38 63  1  0  0  0  0
 38 73  1  0  0  0  0
 38 80  2  0  0  0  0
 39 68  1  0  0  0  0
 39 74  1  0  0  0  0
 39 81  2  0  0  0  0
 40 43  1  0  0  0  0
 41 50  1  0  0  0  0
 42 67  1  0  0  0  0
 43 45  1  0  0  0  0
 44 46  1  0  0  0  0
 44 47  1  0  0  0  0
 45 49  1  0  0  0  0
 46 51  1  0  0  0  0
 47 68  1  0  0  0  0
 48 51  1  0  0  0  0
 48 68  1  0  0  0  0
 49 72  1  0  0  0  0
 50 67  1  0  0  0  0
 51 66  1  0  0  0  0
 54 63  1  0  0  0  0
 55 64  1  0  0  0  0
 56 64  1  0  0  0  0
 57 64  1  0  0  0  0
 58 76  1  0  0  0  0
 59 74  1  0  0  0  0
 60 61  1  0  0  0  0
 60 75  1  0  0  0  0
 61 83  1  0  0  0  0
 62 64  1  0  0  0  0
 62 73  1  0  0  0  0
 63 76  1  0  0  0  0
 65 66  1  0  0  0  0
M  CHG  2  75   1  76   1
M  ISO  4  39 100  61 101  74 100  83 101
M  END
> <Batch ID>
0040

> <Smiles>
CNC(C)C(=O)NC(C(=O)N1Cc2cc([101O:1][101CH2:1]CNC(=N)c3cc(C)c(C[100NH:0][100C:0](=O)N4CCCC(n5nc(-c6ccc(Oc7ccc(F)cc7F)cc6)c(C(N)=O)c5N)C4)cc3C)ccc2CC1C(=O)NC1CCCc2ccccc21)C(C)(C)C

> <Shape>
0.259

> <Color>
0.071

> <Negative vol penalty>
0.000

$$$$

  -OEChem-04042322063D

 84 92  0     1  0  0  0  0  0999 V2000
  -21.5462  -19.4869   22.0347 C   0  0  0  0  0  0  0  0  0  0  0  0
  -22.8606  -19.9229   22.1682 C   0  0  0  0  0  0  0  0  0  0  0  0
  -22.9585   -9.8931   20.1095 C   0  0  0  0  0  0  0  0  0  0  0  0
  -23.5843  -10.1799   22.4254 C   0  0  0  0  0  0  0  0  0  0  0  0
  -20.5576  -20.3752   21.6135 C   0  0  0  0  0  0  0  0  0  0  0  0
  -23.1873  -21.2474   21.8795 C   0  0  0  0  0  0  0  0  0  0  0  0
  -26.2252  -23.3043   25.3702 C   0  0  0  0  0  0  0  0  0  0  0  0
  -22.1527   -8.8103   20.4613 C   0  0  0  0  0  0  0  0  0  0  0  0
  -22.7784   -9.0970   22.7772 C   0  0  0  0  0  0  0  0  0  0  0  0
  -27.5768  -22.9667   25.3165 C   0  0  0  0  0  0  0  0  0  0  0  0
  -22.9585   -5.7223   22.6799 C   0  0  0  0  0  0  0  0  0  0  0  0
  -23.4870   -4.7812   23.5635 C   0  0  0  0  0  0  0  0  0  0  0  0
  -28.0486  -25.0571   24.2087 C   0  0  0  0  0  0  0  0  0  0  0  0
  -31.6182  -18.9904   20.9196 C   0  0  0  0  0  0  0  0  0  0  0  0
  -21.6989   -5.2403   25.1220 C   0  0  0  0  0  0  0  0  0  0  0  0
  -23.6743  -10.5779   21.0916 C   0  0  0  0  0  0  0  0  0  0  0  0
  -24.1304  -13.0510   20.6630 C   0  0  0  0  0  0  0  0  0  0  0  0
  -20.8706  -21.7137   21.3288 C   0  0  0  0  0  0  0  0  0  0  0  0
  -25.7727  -24.5180   24.8329 C   0  0  0  0  0  0  0  0  0  0  0  0
  -22.2022  -22.1542   21.4528 C   0  0  0  0  0  0  0  0  0  0  0  0
  -26.6911  -25.4088   24.2592 C   0  0  0  0  0  0  0  0  0  0  0  0
  -31.6745  -19.4102   22.2486 C   0  0  0  0  0  0  0  0  0  0  0  0
  -31.0990  -17.7341   20.6064 C   0  0  0  0  0  0  0  0  0  0  0  0
  -31.2117  -18.5737   23.2644 C   0  0  0  0  0  0  0  0  0  0  0  0
  -30.6926  -17.3175   22.9512 C   0  0  0  0  0  0  0  0  0  0  0  0
  -30.6363  -16.8977   21.6222 C   0  0  0  0  0  0  0  0  0  0  0  0
  -22.0627   -8.4122   21.7951 C   0  0  0  0  0  0  0  0  0  0  0  0
  -28.4883  -23.8419   24.7331 C   0  0  0  0  0  0  0  0  0  0  0  0
  -21.8002   -6.4224   23.0174 C   0  0  0  0  0  0  0  0  0  0  0  0
  -22.8572   -4.5402   24.7845 C   0  0  0  0  0  0  0  0  0  0  0  0
  -21.1704   -6.1814   24.2385 C   0  0  0  0  0  0  0  0  0  0  0  0
  -24.5073  -11.6962   20.7287 C   0  0  0  0  0  0  0  0  0  0  0  0
  -25.2728  -13.7067   20.2740 C   0  0  0  0  0  0  0  0  0  0  0  0
  -22.8611  -13.6620   20.9299 C   0  0  0  0  0  0  0  0  0  0  0  0
  -23.7688  -25.3314   22.5035 C   0  0  0  0  0  0  0  0  0  0  0  0
  -24.3073  -28.3301   23.6171 C   0  0  0  0  0  0  0  0  0  0  0  0
  -26.3643  -30.4685   25.3032 C   0  0  0  0  0  0  0  0  0  0  0  0
  -30.7595  -14.5754   20.6536 C   0  0  0  0  0  0  0  0  0  0  0  0
  -19.7767  -22.6250   20.8312 C   0  0  0  0  0  0  0  0  0  0  0  0
  -24.3154  -24.8792   24.9227 C   0  0  0  0  0  0  0  0  0  0  0  0
  -26.2593  -26.7331   23.6862 C   0  0  0  0  0  0  0  0  0  0  0  0
  -20.1373  -24.1065   20.9055 C   0  0  0  0  0  0  0  0  0  0  0  0
  -29.6814  -11.9072   18.5571 C   0  0  0  0  0  0  0  0  0  0  0  0
  -21.5386  -24.3433   20.3513 C   0  0  0  0  0  0  0  0  0  0  0  0
  -28.2081  -11.7259   18.9298 C   0  0  0  0  0  0  0  0  0  0  0  0
  -30.5345  -12.2624   19.7735 C   0  0  0  0  0  0  0  0  0  0  0  0
  -28.5838  -13.2308   20.9251 C   0  0  0  0  0  0  0  0  0  0  0  0
  -22.5914  -23.5895   21.1728 C   0  0  1  0  0  0  0  0  0  0  0  0
  -23.8908  -25.9124   23.8837 C   0  0  1  0  0  0  0  0  0  0  0  0
  -27.6740  -12.9358   19.7213 C   0  0  2  0  0  0  0  0  0  0  0  0
  -31.0508  -17.3133   19.1731 C   0  0  0  0  0  0  0  0  0  0  0  0
  -31.2737  -19.0270   24.6887 C   0  0  0  0  0  0  0  0  0  0  0  0
  -30.1975  -16.4236   24.0452 C   0  0  0  0  0  0  0  0  0  0  0  0
  -26.5531  -32.8663   26.0189 C   0  0  0  0  0  0  0  0  0  0  0  0
  -25.0555  -29.1196   20.7663 C   0  0  0  0  0  0  0  0  0  0  0  0
  -26.1194  -31.1880   21.6926 C   0  0  0  0  0  0  0  0  0  0  0  0
  -23.6717  -30.8075   21.9872 C   0  0  0  0  0  0  0  0  0  0  0  0
  -26.4100  -29.7305   28.1689 C   0  0  0  0  0  0  0  0  0  0  0  0
  -32.2360  -20.7666   22.5580 C   0  0  0  0  0  0  0  0  0  0  0  0
  -31.7189  -23.1016   23.2784 C   0  0  0  0  0  0  0  0  0  0  0  0
  -30.5609  -24.0316   23.5823 C   0  0  0  0  0  0  0  0  0  1  0  0
  -25.3111  -29.4173   23.3182 C   0  0  1  0  0  0  0  0  0  0  0  0
  -26.0867  -31.4721   26.4079 C   0  0  2  0  0  0  0  0  0  0  0  0
  -25.0476  -30.1073   21.9501 C   0  0  0  0  0  0  0  0  0  0  0  0
  -25.7889  -11.5014   20.4071 N   0  0  0  0  0  0  0  0  0  0  0  0
  -26.2273  -12.7424   20.1354 N   0  0  0  0  0  0  0  0  0  0  0  0
  -24.8229  -27.0380   23.7923 N   0  0  0  0  0  0  0  0  0  0  0  0
  -29.9705  -13.4200   20.4712 N   0  0  0  0  0  0  0  0  0  0  0  0
  -25.5439  -15.0084   20.0403 N   0  0  0  0  0  0  0  0  0  0  0  0
  -21.7934  -12.8418   21.3192 N   0  0  0  0  0  0  0  0  0  0  0  0
  -30.1062  -15.6234   21.3012 N   0  0  0  0  0  0  0  0  0  0  0  0
  -22.8648  -24.2906   22.4091 N   0  0  0  0  0  0  0  0  0  0  0  0
  -25.2825  -30.3245   24.4603 N   0  0  0  0  0  0  0  0  0  0  0  0
  -26.7908  -31.0730   27.6592 N   0  3  0  0  0  0  0  0  0  0  0  0
  -31.1897  -21.7646   22.9088 N   0  3  0  0  0  0  0  0  0  0  0  0
  -22.6748  -14.8967   20.8103 O   0  0  0  0  0  0  0  0  0  0  0  0
  -24.4438  -25.7941   21.5913 O   0  0  0  0  0  0  0  0  0  0  0  0
  -23.1107  -28.6179   23.6994 O   0  0  0  0  0  0  0  0  0  0  0  0
  -27.4350  -29.8748   25.1963 O   0  0  0  0  0  0  0  0  0  0  0  0
  -31.9199  -14.6408   20.2399 O   0  0  0  0  0  0  0  0  0  0  0  0
  -21.2763   -7.3558   22.1388 O   0  0  0  0  0  0  0  0  0  0  0  0
  -29.8081  -23.5146   24.6788 O   0  0  0  0  0  0  0  0  0  1  0  0
  -23.3640   -3.6354   25.6323 F   0  0  0  0  0  0  0  0  0  0  0  0
  -20.0567   -6.8501   24.5677 F   0  0  0  0  0  0  0  0  0  0  0  0
  1  2  1  0  0  0  0
  1  5  2  0  0  0  0
  2  6  2  0  0  0  0
  3  8  2  0  0  0  0
  3 16  1  0  0  0  0
  4  9  1  0  0  0  0
  4 16  2  0  0  0  0
  5 18  1  0  0  0  0
  6 20  1  0  0  0  0
  7 10  2  0  0  0  0
  7 19  1  0  0  0  0
  8 27  1  0  0  0  0
  9 27  2  0  0  0  0
 10 28  1  0  0  0  0
 11 12  2  0  0  0  0
 11 29  1  0  0  0  0
 12 30  1  0  0  0  0
 13 21  1  0  0  0  0
 13 28  2  0  0  0  0
 14 22  1  0  0  0  0
 14 23  2  0  0  0  0
 15 30  2  0  0  0  0
 15 31  1  0  0  0  0
 16 32  1  0  0  0  0
 17 32  1  0  0  0  0
 17 33  2  0  0  0  0
 17 34  1  0  0  0  0
 18 20  2  0  0  0  0
 18 39  1  0  0  0  0
 19 21  2  0  0  0  0
 19 40  1  0  0  0  0
 20 48  1  0  0  0  0
 21 41  1  0  0  0  0
 22 24  2  0  0  0  0
 22 59  1  0  0  0  0
 23 26  1  0  0  0  0
 23 51  1  0  0  0  0
 24 25  1  0  0  0  0
 24 52  1  0  0  0  0
 25 26  2  0  0  0  0
 25 53  1  0  0  0  0
 26 71  1  0  0  0  0
 27 81  1  0  0  0  0
 28 82  1  0  0  0  0
 29 31  2  0  0  0  0
 29 81  1  0  0  0  0
 30 83  1  0  0  0  0
 31 84  1  0  0  0  0
 32 65  2  0  0  0  0
 33 66  1  0  0  0  0
 33 69  1  0  0  0  0
 34 70  1  0  0  0  0
 34 76  2  0  0  0  0
 35 49  1  0  0  0  0
 35 72  1  0  0  0  0
 35 77  2  0  0  0  0
 36 62  1  0  0  0  0
 36 67  1  0  0  0  0
 36 78  2  0  0  0  0
 37 63  1  0  0  0  0
 37 73  1  0  0  0  0
 37 79  2  0  0  0  0
 38 68  1  0  0  0  0
 38 71  1  0  0  0  0
 38 80  2  0  0  0  0
 39 42  1  0  0  0  0
 40 49  1  0  0  0  0
 41 67  1  0  0  0  0
 42 44  1  0  0  0  0
 43 45  1  0  0  0  0
 43 46  1  0  0  0  0
 44 48  1  0  0  0  0
 45 50  1  0  0  0  0
 46 68  1  0  0  0  0
 47 50  1  0  0  0  0
 47 68  1  0  0  0  0
 48 72  1  0  0  0  0
 49 67  1  0  0  0  0
 50 66  1  0  0  0  0
 54 63  1  0  0  0  0
 55 64  1  0  0  0  0
 56 64  1  0  0  0  0
 57 64  1  0  0  0  0
 58 74  1  0  0  0  0
 59 75  1  0  0  0  0
 60 61  1  0  0  0  0
 60 75  1  0  0  0  0
 61 82  1  0  0  0  0
 62 64  1  0  0  0  0
 62 73  1  0  0  0  0
 63 74  1  0  0  0  0
 65 66  1  0  0  0  0
M  CHG  2  74   1  75   1
M  ISO  4  38 100  61 101  71 100  82 101
M  END
> <Batch ID>
0040

> <Smiles>
CNC(C)C(=O)NC(C(=O)N1Cc2cc([101O:1][101CH2:1]CNCc3cc(C)c([100NH:0][100C:0](=O)N4CCCC(n5nc(-c6ccc(Oc7ccc(F)cc7F)cc6)c(C(N)=O)c5N)C4)c(C)c3C)ccc2CC1C(=O)NC1CCCc2ccccc21)C(C)(C)C

> <Shape>
0.258

> <Color>
0.199

> <Negative vol penalty>
0.000

$$$$

  -OEChem-04042322063D

 84 92  0     1  0  0  0  0  0999 V2000
  -36.9301  -28.8233   26.8597 C   0  0  0  0  0  0  0  0  0  0  0  0
  -35.7054  -28.1723   26.9682 C   0  0  0  0  0  0  0  0  0  0  0  0
  -23.1245   -9.7531   20.1688 C   0  0  0  0  0  0  0  0  0  0  0  0
  -23.8208  -10.0432   22.4641 C   0  0  0  0  0  0  0  0  0  0  0  0
  -37.2410  -29.5323   25.7001 C   0  0  0  0  0  0  0  0  0  0  0  0
  -34.7905  -28.2307   25.9176 C   0  0  0  0  0  0  0  0  0  0  0  0
  -32.7221  -23.7240   24.8896 C   0  0  0  0  0  0  0  0  0  0  0  0
  -31.9297  -16.9215   22.1939 C   0  0  0  0  0  0  0  0  0  0  0  0
  -22.3922   -8.6234   20.5337 C   0  0  0  0  0  0  0  0  0  0  0  0
  -23.0884   -8.9136   22.8290 C   0  0  0  0  0  0  0  0  0  0  0  0
  -31.7087  -23.2802   25.7380 C   0  0  0  0  0  0  0  0  0  0  0  0
  -19.8578   -8.1313   23.4387 C   0  0  0  0  0  0  0  0  0  0  0  0
  -19.0696   -8.2147   24.5865 C   0  0  0  0  0  0  0  0  0  0  0  0
  -32.4784  -17.9153   23.0042 C   0  0  0  0  0  0  0  0  0  0  0  0
  -29.7173  -17.7913   22.6249 C   0  0  0  0  0  0  0  0  0  0  0  0
  -30.0584  -23.9907   24.1283 C   0  0  0  0  0  0  0  0  0  0  0  0
  -20.3205   -6.4007   25.5773 C   0  0  0  0  0  0  0  0  0  0  0  0
  -23.8389  -10.4630   21.1340 C   0  0  0  0  0  0  0  0  0  0  0  0
  -30.2660  -18.7852   23.4353 C   0  0  0  0  0  0  0  0  0  0  0  0
  -24.1442  -12.9626   20.7263 C   0  0  0  0  0  0  0  0  0  0  0  0
  -36.3333  -29.5914   24.6309 C   0  0  0  0  0  0  0  0  0  0  0  0
  -32.4104  -24.3155   23.6570 C   0  0  0  0  0  0  0  0  0  0  0  0
  -35.0890  -28.9423   24.7432 C   0  0  0  0  0  0  0  0  0  0  0  0
  -31.0698  -24.4389   23.2650 C   0  0  0  0  0  0  0  0  0  0  0  0
  -30.5491  -16.8595   22.0042 C   0  0  0  0  0  0  0  0  0  0  0  0
  -22.3741   -8.2037   21.8638 C   0  0  0  0  0  0  0  0  0  0  0  0
  -30.3765  -23.4161   25.3586 C   0  0  0  0  0  0  0  0  0  0  0  0
  -20.8773   -7.1825   23.3602 C   0  0  0  0  0  0  0  0  0  0  0  0
  -19.3010   -7.3494   25.6558 C   0  0  0  0  0  0  0  0  0  0  0  0
  -21.1087   -6.3173   24.4295 C   0  0  0  0  0  0  0  0  0  0  0  0
  -31.6465  -18.8472   23.6250 C   0  0  0  0  0  0  0  0  0  0  0  0
  -24.5960  -11.6297   20.7576 C   0  0  0  0  0  0  0  0  0  0  0  0
  -25.2341  -13.6848   20.3053 C   0  0  0  0  0  0  0  0  0  0  0  0
  -29.3474  -19.7389   24.0647 C   0  0  0  0  0  0  0  0  0  0  0  0
  -22.8548  -13.5000   21.0491 C   0  0  0  0  0  0  0  0  0  0  0  0
  -28.7867  -19.5864   25.2763 C   0  0  0  0  0  0  0  0  0  0  0  0
  -32.8893  -27.1762   22.3567 C   0  0  0  0  0  0  0  0  0  0  0  0
  -31.6443  -25.7548   19.7201 C   0  0  0  0  0  0  0  0  0  0  0  0
  -29.6906  -23.2813   18.4116 C   0  0  0  0  0  0  0  0  0  0  0  0
  -30.6763  -14.8463   20.4951 C   0  0  0  0  0  0  0  0  0  0  0  0
  -36.6945  -30.4096   23.4164 C   0  0  0  0  0  0  0  0  0  0  0  0
  -33.5161  -24.7648   22.7415 C   0  0  0  0  0  0  0  0  0  0  0  0
  -30.6830  -25.0484   21.9432 C   0  0  0  0  0  0  0  0  0  0  0  0
  -35.8232  -30.1104   22.1993 C   0  0  0  0  0  0  0  0  0  0  0  0
  -29.6655  -12.1509   18.3998 C   0  0  0  0  0  0  0  0  0  0  0  0
  -34.3501  -30.0731   22.5935 C   0  0  0  0  0  0  0  0  0  0  0  0
  -28.2194  -11.8847   18.8238 C   0  0  0  0  0  0  0  0  0  0  0  0
  -30.5435  -12.5362   19.5891 C   0  0  0  0  0  0  0  0  0  0  0  0
  -28.5881  -13.3816   20.8264 C   0  0  0  0  0  0  0  0  0  0  0  0
  -34.0803  -28.9618   23.6152 C   0  0  1  0  0  0  0  0  0  0  0  0
  -33.0671  -25.8198   21.7352 C   0  0  1  0  0  0  0  0  0  0  0  0
  -27.6509  -13.0532   19.6527 C   0  0  2  0  0  0  0  0  0  0  0  0
  -28.8321  -22.3980   16.2253 C   0  0  0  0  0  0  0  0  0  0  0  0
  -29.6385  -28.0500   19.5831 C   0  0  0  0  0  0  0  0  0  0  0  0
  -28.2600  -26.6600   18.0224 C   0  0  0  0  0  0  0  0  0  0  0  0
  -30.5689  -27.3443   17.3716 C   0  0  0  0  0  0  0  0  0  0  0  0
  -31.0177  -20.6668   18.8142 C   0  0  0  0  0  0  0  0  0  0  0  0
  -27.8396  -20.5335   25.9660 C   0  0  0  0  0  0  0  0  0  0  0  0
  -28.4109  -21.0811   27.2754 C   0  0  0  0  0  0  0  0  0  0  0  0
  -29.6853  -21.8798   27.0374 C   0  0  0  0  0  0  0  0  0  1  0  0
  -30.2554  -25.5798   19.1549 C   0  0  1  0  0  0  0  0  0  0  0  0
  -29.9293  -22.3047   17.2742 C   0  0  2  0  0  0  0  0  0  0  0  0
  -29.6876  -26.8987   18.5588 C   0  0  0  0  0  0  0  0  0  0  0  0
  -25.8732  -11.5093   20.3859 N   0  0  0  0  0  0  0  0  0  0  0  0
  -26.2333  -12.7758   20.1170 N   0  0  0  0  0  0  0  0  0  0  0  0
  -31.7999  -25.4783   21.0858 N   0  0  0  0  0  0  0  0  0  0  0  0
  -29.9445  -13.6521   20.3245 N   0  0  0  0  0  0  0  0  0  0  0  0
  -25.4255  -15.0022   20.0815 N   0  0  0  0  0  0  0  0  0  0  0  0
  -21.8483  -12.6178   21.4651 N   0  0  0  0  0  0  0  0  0  0  0  0
  -29.9922  -15.8485   21.1822 N   0  0  0  0  0  0  0  0  0  0  0  0
  -34.0296  -27.6731   22.9586 N   0  0  0  0  0  0  0  0  0  0  0  0
  -30.3388  -24.4798   18.2002 N   0  0  0  0  0  0  0  0  0  0  0  0
  -29.9679  -20.9073   17.7908 N   0  3  0  0  0  0  0  0  0  0  0  0
  -22.5977  -14.7242   20.9551 O   0  0  0  0  0  0  0  0  0  0  0  0
  -31.7987  -27.7315   22.2934 O   0  0  0  0  0  0  0  0  0  0  0  0
  -32.5590  -26.1164   18.9756 O   0  0  0  0  0  0  0  0  0  0  0  0
  -28.9955  -23.0096   19.3881 O   0  0  0  0  0  0  0  0  0  0  0  0
  -31.8151  -14.9802   20.0399 O   0  0  0  0  0  0  0  0  0  0  0  0
  -21.6595   -7.1015   22.2203 O   0  0  0  0  0  0  0  0  0  0  0  0
  -29.3853  -22.9843   26.1851 O   0  0  0  0  0  0  0  0  0  1  0  0
  -18.5450   -7.4307   26.7585 F   0  0  0  0  0  0  0  0  0  0  0  0
  -22.0874   -5.4045   24.3603 F   0  0  0  0  0  0  0  0  0  0  0  0
  -32.3788  -20.0605   24.6156 Cl  0  0  0  0  0  0  0  0  0  0  0  0
  -29.1005  -18.1137   26.1514 Cl  0  0  0  0  0  0  0  0  0  0  0  0
  1  2  1  0  0  0  0
  1  5  2  0  0  0  0
  2  6  2  0  0  0  0
  3  9  2  0  0  0  0
  3 18  1  0  0  0  0
  4 10  1  0  0  0  0
  4 18  2  0  0  0  0
  5 21  1  0  0  0  0
  6 23  1  0  0  0  0
  7 11  2  0  0  0  0
  7 22  1  0  0  0  0
  8 14  2  0  0  0  0
  8 25  1  0  0  0  0
  9 26  1  0  0  0  0
 10 26  2  0  0  0  0
 11 27  1  0  0  0  0
 12 13  2  0  0  0  0
 12 28  1  0  0  0  0
 13 29  1  0  0  0  0
 14 31  1  0  0  0  0
 15 19  1  0  0  0  0
 15 25  2  0  0  0  0
 16 24  1  0  0  0  0
 16 27  2  0  0  0  0
 17 29  2  0  0  0  0
 17 30  1  0  0  0  0
 18 32  1  0  0  0  0
 19 31  2  0  0  0  0
 19 34  1  0  0  0  0
 20 32  1  0  0  0  0
 20 33  2  0  0  0  0
 20 35  1  0  0  0  0
 21 23  2  0  0  0  0
 21 41  1  0  0  0  0
 22 24  2  0  0  0  0
 22 42  1  0  0  0  0
 23 50  1  0  0  0  0
 24 43  1  0  0  0  0
 25 70  1  0  0  0  0
 26 79  1  0  0  0  0
 27 80  1  0  0  0  0
 28 30  2  0  0  0  0
 28 79  1  0  0  0  0
 29 81  1  0  0  0  0
 30 82  1  0  0  0  0
 31 83  1  0  0  0  0
 32 64  2  0  0  0  0
 33 65  1  0  0  0  0
 33 68  1  0  0  0  0
 34 36  2  0  0  0  0
 35 69  1  0  0  0  0
 35 74  2  0  0  0  0
 36 58  1  0  0  0  0
 36 84  1  0  0  0  0
 37 51  1  0  0  0  0
 37 71  1  0  0  0  0
 37 75  2  0  0  0  0
 38 61  1  0  0  0  0
 38 66  1  0  0  0  0
 38 76  2  0  0  0  0
 39 62  1  0  0  0  0
 39 72  1  0  0  0  0
 39 77  2  0  0  0  0
 40 67  1  0  0  0  0
 40 70  1  0  0  0  0
 40 78  2  0  0  0  0
 41 44  1  0  0  0  0
 42 51  1  0  0  0  0
 43 66  1  0  0  0  0
 44 46  1  0  0  0  0
 45 47  1  0  0  0  0
 45 48  1  0  0  0  0
 46 50  1  0  0  0  0
 47 52  1  0  0  0  0
 48 67  1  0  0  0  0
 49 52  1  0  0  0  0
 49 67  1  0  0  0  0
 50 71  1  0  0  0  0
 51 66  1  0  0  0  0
 52 65  1  0  0  0  0
 53 62  1  0  0  0  0
 54 63  1  0  0  0  0
 55 63  1  0  0  0  0
 56 63  1  0  0  0  0
 57 73  1  0  0  0  0
 58 59  1  0  0  0  0
 59 60  1  0  0  0  0
 60 80  1  0  0  0  0
 61 63  1  0  0  0  0
 61 72  1  0  0  0  0
 62 73  1  0  0  0  0
 64 65  1  0  0  0  0
M  CHG  1  73   1
M  ISO  4  40 100  60 101  70 100  80 101
M  END
> <Batch ID>
0040

> <Smiles>
CNC(C)C(=O)NC(C(=O)N1Cc2cc([101O:1][101CH2:1]CCC(Cl)=Cc3cc([100NH:0][100C:0](=O)N4CCCC(n5nc(-c6ccc(Oc7ccc(F)cc7F)cc6)c(C(N)=O)c5N)C4)ccc3Cl)ccc2CC1C(=O)NC1CCCc2ccccc21)C(C)(C)C

> <Shape>
0.228

> <Color>
0.207

> <Negative vol penalty>
0.000

$$$$

  -OEChem-04042322063D

 85 93  0     1  0  0  0  0  0999 V2000
  -16.8845  -28.0512   23.9350 C   0  0  0  0  0  0  0  0  0  0  0  0
  -17.5751  -27.3782   22.9322 C   0  0  0  0  0  0  0  0  0  0  0  0
  -25.3216  -14.2611   20.5582 C   0  0  0  0  0  0  0  0  0  0  0  0
  -26.0441  -12.7042   22.2585 C   0  0  0  0  0  0  0  0  0  0  0  0
  -17.2837  -29.3316   24.3160 C   0  0  0  0  0  0  0  0  0  0  0  0
  -18.6647  -27.9856   22.3092 C   0  0  0  0  0  0  0  0  0  0  0  0
  -22.6037  -24.8458   21.7886 C   0  0  0  0  0  0  0  0  0  0  0  0
  -27.3142  -20.7134   22.0871 C   0  0  0  0  0  0  0  0  0  0  0  0
  -24.7603  -13.2096   19.8339 C   0  0  0  0  0  0  0  0  0  0  0  0
  -25.4827  -11.6526   21.5342 C   0  0  0  0  0  0  0  0  0  0  0  0
  -22.5418  -23.9127   20.7546 C   0  0  0  0  0  0  0  0  0  0  0  0
  -23.9247   -8.6045   20.3095 C   0  0  0  0  0  0  0  0  0  0  0  0
  -23.1701   -7.6635   21.0101 C   0  0  0  0  0  0  0  0  0  0  0  0
  -28.5128  -20.9187   22.7703 C   0  0  0  0  0  0  0  0  0  0  0  0
  -23.9608  -25.3221   19.4058 C   0  0  0  0  0  0  0  0  0  0  0  0
  -21.6523   -9.4059   21.7155 C   0  0  0  0  0  0  0  0  0  0  0  0
  -25.9636  -14.0084   21.7706 C   0  0  0  0  0  0  0  0  0  0  0  0
  -25.9160  -15.8787   23.5047 C   0  0  0  0  0  0  0  0  0  0  0  0
  -18.3847  -29.9512   23.7040 C   0  0  0  0  0  0  0  0  0  0  0  0
  -23.3369  -26.0312   21.6347 C   0  0  0  0  0  0  0  0  0  0  0  0
  -19.0782  -29.2760   22.6814 C   0  0  0  0  0  0  0  0  0  0  0  0
  -24.0324  -26.2675   20.4404 C   0  0  0  0  0  0  0  0  0  0  0  0
  -27.3250  -20.1338   20.8184 C   0  0  0  0  0  0  0  0  0  0  0  0
  -28.5344  -19.7594   20.2329 C   0  0  0  0  0  0  0  0  0  0  0  0
  -29.7331  -19.9647   20.9161 C   0  0  0  0  0  0  0  0  0  0  0  0
  -24.8408  -11.9053   20.3218 C   0  0  0  0  0  0  0  0  0  0  0  0
  -23.2180  -24.1521   19.5619 C   0  0  0  0  0  0  0  0  0  0  0  0
  -23.5431   -9.9462   20.3120 C   0  0  0  0  0  0  0  0  0  0  0  0
  -22.0339   -8.0642   21.7130 C   0  0  0  0  0  0  0  0  0  0  0  0
  -22.4069  -10.3468   21.0149 C   0  0  0  0  0  0  0  0  0  0  0  0
  -29.7222  -20.5444   22.1848 C   0  0  0  0  0  0  0  0  0  0  0  0
  -26.5442  -15.0941   22.5190 C   0  0  0  0  0  0  0  0  0  0  0  0
  -26.8847  -16.7657   23.9065 C   0  0  0  0  0  0  0  0  0  0  0  0
  -24.5766  -15.8117   24.0119 C   0  0  0  0  0  0  0  0  0  0  0  0
  -22.6222  -29.1284   21.6465 C   0  0  0  0  0  0  0  0  0  0  0  0
  -25.8430  -29.4738   21.4748 C   0  0  0  0  0  0  0  0  0  0  0  0
  -28.8577  -28.1355   20.5990 C   0  0  0  0  0  0  0  0  0  0  0  0
  -31.8573  -18.6321   20.8628 C   0  0  0  0  0  0  0  0  0  0  0  0
  -18.7496  -31.3552   24.1167 C   0  0  0  0  0  0  0  0  0  0  0  0
  -23.4155  -27.0153   22.7695 C   0  0  0  0  0  0  0  0  0  0  0  0
  -24.8502  -27.5151   20.2325 C   0  0  0  0  0  0  0  0  0  0  0  0
  -20.1454  -31.7789   23.6669 C   0  0  0  0  0  0  0  0  0  0  0  0
  -31.6246  -17.2513   24.2880 C   0  0  0  0  0  0  0  0  0  0  0  0
  -20.3703  -31.4087   22.2043 C   0  0  0  0  0  0  0  0  0  0  0  0
  -30.2749  -16.5361   24.2745 C   0  0  0  0  0  0  0  0  0  0  0  0
  -32.2594  -17.2892   22.9012 C   0  0  0  0  0  0  0  0  0  0  0  0
  -30.0215  -17.1726   21.8430 C   0  0  0  0  0  0  0  0  0  0  0  0
  -20.2804  -29.8917   21.9991 C   0  0  1  0  0  0  0  0  0  0  0  0
  -23.7716  -28.4267   22.3129 C   0  0  1  0  0  0  0  0  0  0  0  0
  -29.3428  -17.1565   23.2208 C   0  0  1  0  0  0  0  0  0  0  0  0
  -28.5366  -19.1362   18.8718 C   0  0  0  0  0  0  0  0  0  0  0  0
  -31.3088  -28.6707   20.5425 C   0  0  0  0  0  0  0  0  0  0  0  0
  -25.3970  -31.2476   19.0325 C   0  0  0  0  0  0  0  0  0  0  0  0
  -27.8211  -30.9673   18.4730 C   0  0  0  0  0  0  0  0  0  0  0  0
  -27.1554  -32.0678   20.6104 C   0  0  0  0  0  0  0  0  0  0  0  0
  -31.4685  -20.3804   19.1823 C   0  0  0  0  0  0  0  0  0  0  0  0
  -29.5063  -25.8995   22.4262 C   0  0  0  0  0  0  0  0  0  0  0  0
  -26.0214  -19.9252   20.1056 C   0  0  0  0  0  0  0  0  0  0  0  0
  -24.3942  -21.7374   17.1510 C   0  0  0  0  0  0  0  0  0  0  0  0
  -24.5454  -20.6854   18.2395 C   0  0  0  0  0  0  0  0  0  0  0  0
  -24.2897  -23.1609   17.6844 C   0  0  0  0  0  0  0  0  0  1  0  0
  -26.8495  -29.5713   20.3539 C   0  0  1  0  0  0  0  0  0  0  0  0
  -30.1766  -28.0494   21.3456 C   0  0  2  0  0  0  0  0  0  0  0  0
  -26.7888  -30.9408   19.6203 C   0  0  0  0  0  0  0  0  0  0  0  0
  -27.8137  -15.4513   22.3074 N   0  0  0  0  0  0  0  0  0  0  0  0
  -27.9911  -16.4702   23.1656 N   0  0  0  0  0  0  0  0  0  0  0  0
  -24.8910  -28.4499   21.3692 N   0  0  0  0  0  0  0  0  0  0  0  0
  -31.3393  -17.8264   21.8975 N   0  0  0  0  0  0  0  0  0  0  0  0
  -26.8896  -17.7618   24.8176 N   0  0  0  0  0  0  0  0  0  0  0  0
  -23.7120  -14.8405   23.4889 N   0  0  0  0  0  0  0  0  0  0  0  0
  -21.4989  -29.2487   22.4422 N   0  0  0  0  0  0  0  0  0  0  0  0
  -28.1484  -29.2665   20.9440 N   0  0  0  0  0  0  0  0  0  0  0  0
  -30.9779  -19.5763   20.2994 N   0  0  0  0  0  0  0  0  0  0  0  0
  -30.5228  -26.6267   21.6231 N   0  3  0  0  0  0  0  0  0  0  0  0
  -25.7950  -20.9029   19.0054 N   0  3  0  0  0  0  0  0  0  0  0  0
  -24.1540  -16.6007   24.8907 O   0  0  0  0  0  0  0  0  0  0  0  0
  -22.7458  -29.5321   20.4961 O   0  0  0  0  0  0  0  0  0  0  0  0
  -25.9037  -30.2722   22.4131 O   0  0  0  0  0  0  0  0  0  0  0  0
  -28.4948  -27.2865   19.7878 O   0  0  0  0  0  0  0  0  0  0  0  0
  -33.0072  -18.4836   20.4311 O   0  0  0  0  0  0  0  0  0  0  0  0
  -24.2929  -10.8791   19.6153 O   0  0  0  0  0  0  0  0  0  0  0  0
  -23.1588  -23.2432   18.5508 O   0  0  0  0  0  0  0  0  0  1  0  0
  -21.3085   -7.1602   22.3844 F   0  0  0  0  0  0  0  0  0  0  0  0
  -22.0347  -11.6342   21.0200 F   0  0  0  0  0  0  0  0  0  0  0  0
  -31.1808  -20.8142   23.0716 Cl  0  0  0  0  0  0  0  0  0  0  0  0
  1  2  1  0  0  0  0
  1  5  2  0  0  0  0
  2  6  2  0  0  0  0
  3  9  2  0  0  0  0
  3 17  1  0  0  0  0
  4 10  1  0  0  0  0
  4 17  2  0  0  0  0
  5 19  1  0  0  0  0
  6 21  1  0  0  0  0
  7 11  2  0  0  0  0
  7 20  1  0  0  0  0
  8 14  2  0  0  0  0
  8 23  1  0  0  0  0
  9 26  1  0  0  0  0
 10 26  2  0  0  0  0
 11 27  1  0  0  0  0
 12 13  2  0  0  0  0
 12 28  1  0  0  0  0
 13 29  1  0  0  0  0
 14 31  1  0  0  0  0
 15 22  1  0  0  0  0
 15 27  2  0  0  0  0
 16 29  2  0  0  0  0
 16 30  1  0  0  0  0
 17 32  1  0  0  0  0
 18 32  1  0  0  0  0
 18 33  2  0  0  0  0
 18 34  1  0  0  0  0
 19 21  2  0  0  0  0
 19 39  1  0  0  0  0
 20 22  2  0  0  0  0
 20 40  1  0  0  0  0
 21 48  1  0  0  0  0
 22 41  1  0  0  0  0
 23 24  2  0  0  0  0
 23 58  1  0  0  0  0
 24 25  1  0  0  0  0
 24 51  1  0  0  0  0
 25 31  2  0  0  0  0
 25 73  1  0  0  0  0
 26 81  1  0  0  0  0
 27 82  1  0  0  0  0
 28 30  2  0  0  0  0
 28 81  1  0  0  0  0
 29 83  1  0  0  0  0
 30 84  1  0  0  0  0
 31 85  1  0  0  0  0
 32 65  2  0  0  0  0
 33 66  1  0  0  0  0
 33 69  1  0  0  0  0
 34 70  1  0  0  0  0
 34 76  2  0  0  0  0
 35 49  1  0  0  0  0
 35 71  1  0  0  0  0
 35 77  2  0  0  0  0
 36 62  1  0  0  0  0
 36 67  1  0  0  0  0
 36 78  2  0  0  0  0
 37 63  1  0  0  0  0
 37 72  1  0  0  0  0
 37 79  2  0  0  0  0
 38 68  1  0  0  0  0
 38 73  1  0  0  0  0
 38 80  2  0  0  0  0
 39 42  1  0  0  0  0
 40 49  1  0  0  0  0
 41 67  1  0  0  0  0
 42 44  1  0  0  0  0
 43 45  1  0  0  0  0
 43 46  1  0  0  0  0
 44 48  1  0  0  0  0
 45 50  1  0  0  0  0
 46 68  1  0  0  0  0
 47 50  1  0  0  0  0
 47 68  1  0  0  0  0
 48 71  1  0  0  0  0
 49 67  1  0  0  0  0
 50 66  1  0  0  0  0
 52 63  1  0  0  0  0
 53 64  1  0  0  0  0
 54 64  1  0  0  0  0
 55 64  1  0  0  0  0
 56 73  1  0  0  0  0
 57 74  1  0  0  0  0
 58 75  1  0  0  0  0
 59 60  1  0  0  0  0
 59 61  1  0  0  0  0
 60 75  1  0  0  0  0
 61 82  1  0  0  0  0
 62 64  1  0  0  0  0
 62 72  1  0  0  0  0
 63 74  1  0  0  0  0
 65 66  1  0  0  0  0
M  CHG  2  74   1  75   1
M  ISO  4  38 100  61 101  73 100  82 101
M  END
> <Batch ID>
0040

> <Smiles>
CNC(C)C(=O)NC(C(=O)N1Cc2cc([101O:1][101CH2:1]CCNCc3ccc(Cl)c([100N:0](C)[100C:0](=O)N4CCCC(n5nc(-c6ccc(Oc7ccc(F)cc7F)cc6)c(C(N)=O)c5N)C4)c3C)ccc2CC1C(=O)NC1CCCc2ccccc21)C(C)(C)C

> <Shape>
0.241

> <Color>
0.075

> <Negative vol penalty>
0.000

$$$$

  -OEChem-04042322063D

 89 98  0     1  0  0  0  0  0999 V2000
  -27.1645  -31.8848   26.8640 C   0  0  0  0  0  0  0  0  0  0  0  0
  -26.8313  -30.5586   27.1199 C   0  0  0  0  0  0  0  0  0  0  0  0
  -20.9788  -20.1348   21.7592 C   0  0  0  0  0  0  0  0  0  0  0  0
  -23.2185  -19.9048   20.8829 C   0  0  0  0  0  0  0  0  0  0  0  0
  -27.1582  -32.3637   25.5546 C   0  0  0  0  0  0  0  0  0  0  0  0
  -26.4905  -29.7107   26.0666 C   0  0  0  0  0  0  0  0  0  0  0  0
  -30.2109  -23.6705   24.8155 C   0  0  0  0  0  0  0  0  0  0  0  0
  -21.2954  -21.4075   22.2343 C   0  0  0  0  0  0  0  0  0  0  0  0
  -23.5351  -21.1775   21.3580 C   0  0  0  0  0  0  0  0  0  0  0  0
  -30.7408  -22.3920   24.6403 C   0  0  0  0  0  0  0  0  0  0  0  0
  -21.6068  -24.5301   20.9753 C   0  0  0  0  0  0  0  0  0  0  0  0
  -20.6846  -25.5528   20.7534 C   0  0  0  0  0  0  0  0  0  0  0  0
  -29.3248  -22.0581   22.7087 C   0  0  0  0  0  0  0  0  0  0  0  0
  -29.0175  -11.8240   19.3727 C   0  0  0  0  0  0  0  0  0  0  0  0
  -28.6376  -14.2078   19.2709 C   0  0  0  0  0  0  0  0  0  0  0  0
  -20.4816  -25.8870   23.1376 C   0  0  0  0  0  0  0  0  0  0  0  0
  -21.9404  -19.3834   21.0836 C   0  0  0  0  0  0  0  0  0  0  0  0
  -20.6113  -17.7323   19.6642 C   0  0  0  0  0  0  0  0  0  0  0  0
  -26.8266  -31.5188   24.4837 C   0  0  0  0  0  0  0  0  0  0  0  0
  -29.2458  -24.1541   23.9277 C   0  0  0  0  0  0  0  0  0  0  0  0
  -26.4784  -30.1792   24.7418 C   0  0  0  0  0  0  0  0  0  0  0  0
  -28.7994  -23.3426   22.8717 C   0  0  0  0  0  0  0  0  0  0  0  0
  -28.1892  -12.9031   19.0645 C   0  0  0  0  0  0  0  0  0  0  0  0
  -30.2943  -12.0495   19.8873 C   0  0  0  0  0  0  0  0  0  0  0  0
  -29.9144  -14.4333   19.7854 C   0  0  0  0  0  0  0  0  0  0  0  0
  -30.7427  -13.3541   20.0936 C   0  0  0  0  0  0  0  0  0  0  0  0
  -22.5735  -21.9288   22.0337 C   0  0  0  0  0  0  0  0  0  0  0  0
  -30.2987  -21.5877   23.5896 C   0  0  0  0  0  0  0  0  0  0  0  0
  -21.9664  -24.1858   22.2783 C   0  0  0  0  0  0  0  0  0  0  0  0
  -20.1220  -26.2313   21.8345 C   0  0  0  0  0  0  0  0  0  0  0  0
  -21.4038  -24.8643   23.3594 C   0  0  0  0  0  0  0  0  0  0  0  0
  -21.6142  -18.0685   20.5931 C   0  0  0  0  0  0  0  0  0  0  0  0
  -20.7068  -16.3683   19.5344 C   0  0  0  0  0  0  0  0  0  0  0  0
  -29.6460  -18.0306   20.7319 C   0  0  0  0  0  0  0  0  0  0  0  0
  -28.8778  -18.5738   19.7716 C   0  0  0  0  0  0  0  0  0  0  0  0
  -19.6769  -18.5774   18.9798 C   0  0  0  0  0  0  0  0  0  0  0  0
  -27.0048  -26.9963   22.9402 C   0  0  0  0  0  0  0  0  0  0  0  0
  -28.1376  -25.8123   20.3469 C   0  0  0  0  0  0  0  0  0  0  0  0
  -30.1826  -24.8906   18.1399 C   0  0  0  0  0  0  0  0  0  0  0  0
  -25.1949  -12.4963   20.3800 C   0  0  0  0  0  0  0  0  0  0  0  0
  -26.7878  -32.0942   23.0901 C   0  0  0  0  0  0  0  0  0  0  0  0
  -28.6026  -25.5014   24.1144 C   0  0  0  0  0  0  0  0  0  0  0  0
  -27.7345  -23.8914   21.9618 C   0  0  0  0  0  0  0  0  0  0  0  0
  -30.6053  -18.8672   21.5313 C   0  0  0  0  0  0  0  0  0  0  0  0
  -26.7787  -31.0328   21.9930 C   0  0  0  0  0  0  0  0  0  0  0  0
  -22.0069  -12.4575   21.9647 C   0  0  0  0  0  0  0  0  0  0  0  0
  -28.9837  -17.0349   23.4025 C   0  0  0  0  0  0  0  0  0  0  0  0
  -25.7661  -29.9390   22.3168 C   0  0  0  0  0  0  0  0  0  0  0  0
  -21.4542  -13.8608   21.7091 C   0  0  0  0  0  0  0  0  0  0  0  0
  -29.7721  -18.2536   23.8806 C   0  0  0  0  0  0  0  0  0  0  0  0
  -23.5154  -12.4795   22.2009 C   0  0  0  0  0  0  0  0  0  0  0  0
  -23.7450  -14.5540   20.8903 C   0  0  0  0  0  0  0  0  0  0  0  0
  -29.7507  -16.1901   22.3884 C   0  0  0  0  0  0  0  0  0  0  0  0
  -26.1272  -29.2221   23.6234 C   0  0  1  0  0  0  0  0  0  0  0  0
  -28.2663  -26.1990   22.7842 C   0  0  1  0  0  0  0  0  0  0  0  0
  -22.2363  -14.5764   20.5912 C   0  0  2  0  0  0  0  0  0  0  0  0
  -29.9739  -19.3528   22.8382 C   0  0  1  0  0  0  0  0  0  1  0  0
  -31.1621  -10.8766   20.2080 C   0  0  0  0  0  0  0  0  0  0  0  0
  -32.1118  -13.5956   20.6449 C   0  0  0  0  0  0  0  0  0  0  0  0
  -31.5530  -24.3493   16.1085 C   0  0  0  0  0  0  0  0  0  0  0  0
  -25.5175  -24.3121   19.9127 C   0  0  0  0  0  0  0  0  0  0  0  0
  -26.3254  -23.7081   17.6212 C   0  0  0  0  0  0  0  0  0  0  0  0
  -25.9857  -26.1030   18.2310 C   0  0  0  0  0  0  0  0  0  0  0  0
  -31.4969  -27.5420   18.1772 C   0  0  0  0  0  0  0  0  0  0  0  0
  -26.8239  -12.6621   18.5150 C   0  0  0  0  0  0  0  0  0  0  0  0
  -30.3728  -15.8459   19.9979 C   0  0  0  0  0  0  0  0  0  0  0  0
  -27.9451  -24.8405   19.2103 C   0  0  1  0  0  0  0  0  0  0  0  0
  -30.9146  -25.4545   16.9355 C   0  0  2  0  0  0  0  0  0  0  0  0
  -26.4587  -24.7341   18.7668 C   0  0  0  0  0  0  0  0  0  0  0  0
  -22.2966  -17.0038   21.0231 N   0  0  0  0  0  0  0  0  0  0  0  0
  -21.7214  -15.9853   20.3615 N   0  0  0  0  0  0  0  0  0  0  0  0
  -28.0214  -25.2990   21.6444 N   0  0  0  0  0  0  0  0  0  0  0  0
  -24.1981  -13.1706   21.1044 N   0  0  0  0  0  0  0  0  0  0  0  0
  -20.0210  -15.4712   18.7946 N   0  0  0  0  0  0  0  0  0  0  0  0
  -18.4363  -18.8273   19.5823 N   0  0  0  0  0  0  0  0  0  0  0  0
  -27.2059  -28.2827   23.4030 N   0  0  0  0  0  0  0  0  0  0  0  0
  -28.8555  -25.2647   18.1521 N   0  0  0  0  0  0  0  0  0  0  0  0
  -25.7871  -13.2216   19.3534 N   0  0  0  0  0  0  0  0  0  0  0  0
  -29.4989  -16.6128   20.9601 N   0  3  2  0  0  0  0  0  0  0  0  0
  -31.9866  -26.3926   17.3734 N   0  3  0  0  0  0  0  0  0  0  0  0
  -19.9280  -19.0824   17.8593 O   0  0  0  0  0  0  0  0  0  0  0  0
  -25.9275  -26.4837   22.6602 O   0  0  0  0  0  0  0  0  0  0  0  0
  -28.3787  -26.9961   20.0941 O   0  0  0  0  0  0  0  0  0  0  0  0
  -30.7321  -24.1855   18.9833 O   0  0  0  0  0  0  0  0  0  0  0  0
  -25.5285  -11.3322   20.6263 O   0  0  0  0  0  0  0  0  0  0  0  0
  -22.8827  -23.1708   22.4969 O   0  0  0  0  0  0  0  0  0  0  0  0
  -30.8236  -20.3423   23.4217 O   0  0  0  0  0  0  0  0  0  1  0  0
  -19.2376  -27.2144   21.6212 F   0  0  0  0  0  0  0  0  0  0  0  0
  -21.7463  -24.5388   24.6134 F   0  0  0  0  0  0  0  0  0  0  0  0
  1  2  1  0  0  0  0
  1  5  2  0  0  0  0
  2  6  2  0  0  0  0
  3  8  2  0  0  0  0
  3 17  1  0  0  0  0
  4  9  1  0  0  0  0
  4 17  2  0  0  0  0
  5 19  1  0  0  0  0
  6 21  1  0  0  0  0
  7 10  2  0  0  0  0
  7 20  1  0  0  0  0
  8 27  1  0  0  0  0
  9 27  2  0  0  0  0
 10 28  1  0  0  0  0
 11 12  2  0  0  0  0
 11 29  1  0  0  0  0
 12 30  1  0  0  0  0
 13 22  1  0  0  0  0
 13 28  2  0  0  0  0
 14 23  1  0  0  0  0
 14 24  2  0  0  0  0
 15 23  2  0  0  0  0
 15 25  1  0  0  0  0
 16 30  2  0  0  0  0
 16 31  1  0  0  0  0
 17 32  1  0  0  0  0
 18 32  1  0  0  0  0
 18 33  2  0  0  0  0
 18 36  1  0  0  0  0
 19 21  2  0  0  0  0
 19 41  1  0  0  0  0
 20 22  2  0  0  0  0
 20 42  1  0  0  0  0
 21 54  1  0  0  0  0
 22 43  1  0  0  0  0
 23 65  1  0  0  0  0
 24 26  1  0  0  0  0
 24 58  1  0  0  0  0
 25 26  2  0  0  0  0
 25 66  1  0  0  0  0
 26 59  1  0  0  0  0
 27 86  1  0  0  0  0
 28 87  1  0  0  0  0
 29 31  2  0  0  0  0
 29 86  1  0  0  0  0
 30 88  1  0  0  0  0
 31 89  1  0  0  0  0
 32 70  2  0  0  0  0
 33 71  1  0  0  0  0
 33 74  1  0  0  0  0
 34 35  2  0  0  0  0
 34 44  1  0  0  0  0
 34 79  1  0  0  0  0
 36 75  1  0  0  0  0
 36 81  2  0  0  0  0
 37 55  1  0  0  0  0
 37 76  1  0  0  0  0
 37 82  2  0  0  0  0
 38 67  1  0  0  0  0
 38 72  1  0  0  0  0
 38 83  2  0  0  0  0
 39 68  1  0  0  0  0
 39 77  1  0  0  0  0
 39 84  2  0  0  0  0
 40 73  1  0  0  0  0
 40 78  1  0  0  0  0
 40 85  2  0  0  0  0
 41 45  1  0  0  0  0
 42 55  1  0  0  0  0
 43 72  1  0  0  0  0
 44 57  1  0  0  0  0
 45 48  1  0  0  0  0
 46 49  1  0  0  0  0
 46 51  1  0  0  0  0
 47 50  1  0  0  0  0
 47 53  1  0  0  0  0
 48 54  1  0  0  0  0
 49 56  1  0  0  0  0
 50 57  1  0  0  0  0
 51 73  1  0  0  0  0
 52 56  1  0  0  0  0
 52 73  1  0  0  0  0
 53 79  1  0  0  0  0
 54 76  1  0  0  0  0
 55 72  1  0  0  0  0
 56 71  1  0  0  0  0
 57 87  1  0  0  0  0
 60 68  1  0  0  0  0
 61 69  1  0  0  0  0
 62 69  1  0  0  0  0
 63 69  1  0  0  0  0
 64 80  1  0  0  0  0
 65 78  1  0  0  0  0
 66 79  1  0  0  0  0
 67 69  1  0  0  0  0
 67 77  1  0  0  0  0
 68 80  1  0  0  0  0
 70 71  1  0  0  0  0
M  CHG  2  79   1  80   1
M  ISO  4  40 100  57 101  78 100  87 101
M  END
> <Batch ID>
0040

> <Smiles>
C=C1C[101CH:1]([101O:1]c2ccc3c(c2)CN(C(=O)C(NC(=O)C(C)NC)C(C)(C)C)C(C(=O)NC2CCCc4ccccc42)C3)CCCN1Cc1cc(C[100NH:0][100C:0](=O)N2CCCC(n3nc(-c4ccc(Oc5ccc(F)cc5F)cc4)c(C(N)=O)c3N)C2)cc(C)c1C

> <Shape>
0.244

> <Color>
0.049

> <Negative vol penalty>
0.000

$$$$

  -OEChem-04042322063D

 88 97  0     1  0  0  0  0  0999 V2000
  -24.7985  -38.3453   20.2322 C   0  0  0  0  0  0  0  0  0  0  0  0
  -25.5799  -37.3784   19.6077 C   0  0  0  0  0  0  0  0  0  0  0  0
  -24.1485   -9.2151   21.1420 C   0  0  0  0  0  0  0  0  0  0  0  0
  -24.2572  -10.6943   23.0491 C   0  0  0  0  0  0  0  0  0  0  0  0
  -24.2295  -38.0824   21.4776 C   0  0  0  0  0  0  0  0  0  0  0  0
  -25.7936  -36.1484   20.2288 C   0  0  0  0  0  0  0  0  0  0  0  0
  -26.7683  -29.2177   18.7018 C   0  0  0  0  0  0  0  0  0  0  0  0
  -24.0218   -8.1210   21.9978 C   0  0  0  0  0  0  0  0  0  0  0  0
  -24.1305   -9.6002   23.9050 C   0  0  0  0  0  0  0  0  0  0  0  0
  -27.6471  -28.1690   18.9697 C   0  0  0  0  0  0  0  0  0  0  0  0
  -23.3072   -4.9748   23.6727 C   0  0  0  0  0  0  0  0  0  0  0  0
  -22.3413   -4.0174   23.3627 C   0  0  0  0  0  0  0  0  0  0  0  0
  -26.5487  -27.7968   21.0849 C   0  0  0  0  0  0  0  0  0  0  0  0
  -30.5669  -21.1570   22.3729 C   0  0  0  0  0  0  0  0  0  0  0  0
  -28.6257  -19.3780   23.2946 C   0  0  0  0  0  0  0  0  0  0  0  0
  -20.6185   -5.7037   23.5225 C   0  0  0  0  0  0  0  0  0  0  0  0
  -24.2663  -10.5018   21.6677 C   0  0  0  0  0  0  0  0  0  0  0  0
  -23.4834  -12.0528   19.7997 C   0  0  0  0  0  0  0  0  0  0  0  0
  -24.4284  -36.8450   22.1099 C   0  0  0  0  0  0  0  0  0  0  0  0
  -25.7784  -29.5714   19.6299 C   0  0  0  0  0  0  0  0  0  0  0  0
  -25.2278  -35.8692   21.4845 C   0  0  0  0  0  0  0  0  0  0  0  0
  -25.6569  -28.8487   20.8253 C   0  0  0  0  0  0  0  0  0  0  0  0
  -29.9031  -21.4097   23.5734 C   0  0  0  0  0  0  0  0  0  0  0  0
  -30.2601  -20.0149   21.6332 C   0  0  0  0  0  0  0  0  0  0  0  0
  -28.9326  -20.5201   24.0343 C   0  0  0  0  0  0  0  0  0  0  0  0
  -29.2895  -19.1254   22.0941 C   0  0  0  0  0  0  0  0  0  0  0  0
  -24.0128   -8.3135   23.3792 C   0  0  0  0  0  0  0  0  0  0  0  0
  -27.5393  -27.4603   20.1627 C   0  0  0  0  0  0  0  0  0  0  0  0
  -22.9287   -6.2966   23.9077 C   0  0  0  0  0  0  0  0  0  0  0  0
  -20.9970   -4.3818   23.2876 C   0  0  0  0  0  0  0  0  0  0  0  0
  -21.5844   -6.6611   23.8326 C   0  0  0  0  0  0  0  0  0  0  0  0
  -24.3977  -11.6324   20.7841 C   0  0  0  0  0  0  0  0  0  0  0  0
  -24.0670  -13.1637   19.2412 C   0  0  0  0  0  0  0  0  0  0  0  0
  -22.2197  -11.4896   19.4238 C   0  0  0  0  0  0  0  0  0  0  0  0
  -25.1215  -32.1792   21.3245 C   0  0  0  0  0  0  0  0  0  0  0  0
  -22.4731  -30.4998   22.1540 C   0  0  0  0  0  0  0  0  0  0  0  0
  -20.9698  -27.4588   22.5272 C   0  0  0  0  0  0  0  0  0  0  0  0
  -28.0233  -16.9782   21.6812 C   0  0  0  0  0  0  0  0  0  0  0  0
  -23.8317  -36.6243   23.4774 C   0  0  0  0  0  0  0  0  0  0  0  0
  -24.8211  -30.6878   19.3141 C   0  0  0  0  0  0  0  0  0  0  0  0
  -24.5984  -29.1757   21.8456 C   0  0  0  0  0  0  0  0  0  0  0  0
  -23.7983  -35.1572   23.8979 C   0  0  0  0  0  0  0  0  0  0  0  0
  -28.7049  -14.4853   18.8447 C   0  0  0  0  0  0  0  0  0  0  0  0
  -30.6074  -26.3882   23.4789 C   0  0  0  0  0  0  0  0  0  0  0  0
  -25.1403  -34.4899   23.6142 C   0  0  0  0  0  0  0  0  0  0  0  0
  -27.2748  -14.0381   18.5511 C   0  0  0  0  0  0  0  0  0  0  0  0
  -30.2091  -26.3926   22.0069 C   0  0  0  0  0  0  0  0  0  0  0  0
  -28.1907  -24.7870   22.1274 C   0  0  0  0  0  0  0  0  0  0  0  0
  -28.7565  -15.8530   19.5139 C   0  0  0  0  0  0  0  0  0  0  0  0
  -26.9942  -14.8302   20.9645 C   0  0  0  0  0  0  0  0  0  0  0  0
  -30.8935  -25.0225   24.0907 C   0  0  0  0  0  0  0  0  0  0  0  0
  -28.5366  -24.2595   23.5132 C   0  0  0  0  0  0  0  0  0  0  0  0
  -25.4623  -34.5137   22.1151 C   0  0  1  0  0  0  0  0  0  0  0  0
  -24.1794  -31.2944   20.5581 C   0  0  1  0  0  0  0  0  0  0  0  0
  -26.2815  -14.4224   19.6656 C   0  0  2  0  0  0  0  0  0  0  0  0
  -28.7071  -26.1862   21.8001 C   0  0  2  0  0  0  0  0  0  1  0  0
  -30.9869  -19.7695   20.3509 C   0  0  0  0  0  0  0  0  0  0  0  0
  -29.0605  -20.4335   26.5368 C   0  0  0  0  0  0  0  0  0  0  0  0
  -18.8136  -26.4038   23.2587 C   0  0  0  0  0  0  0  0  0  0  0  0
  -23.2152  -31.0102   25.0692 C   0  0  0  0  0  0  0  0  0  0  0  0
  -21.6270  -29.1875   25.7200 C   0  0  0  0  0  0  0  0  0  0  0  0
  -20.7761  -31.2257   24.5605 C   0  0  0  0  0  0  0  0  0  0  0  0
  -20.5213  -26.2525   19.8622 C   0  0  0  0  0  0  0  0  0  0  0  0
  -28.2087  -20.7700   25.3165 C   0  0  0  0  0  0  0  0  0  0  0  0
  -30.2497  -22.6447   24.3515 C   0  0  0  0  0  0  0  0  0  0  0  0
  -22.1241  -29.5299   23.2569 C   0  0  1  0  0  0  0  0  0  0  0  0
  -19.6121  -26.9450   22.0831 C   0  0  2  0  0  0  0  0  0  0  0  0
  -21.9569  -30.2332   24.6335 C   0  0  0  0  0  0  0  0  0  0  0  0
  -25.4799  -12.4125   20.8496 N   0  0  0  0  0  0  0  0  0  0  0  0
  -25.2494  -13.3343   19.8992 N   0  0  0  0  0  0  0  0  0  0  0  0
  -23.6903  -30.2797   21.4937 N   0  0  0  0  0  0  0  0  0  0  0  0
  -27.9350  -15.9318   20.7306 N   0  0  0  0  0  0  0  0  0  0  0  0
  -23.6789  -14.0014   18.2563 N   0  0  0  0  0  0  0  0  0  0  0  0
  -21.0656  -11.9413   20.0784 N   0  0  0  0  0  0  0  0  0  0  0  0
  -28.9639  -17.9595   21.3569 N   0  0  0  0  0  0  0  0  0  0  0  0
  -24.7067  -33.4939   21.4196 N   0  0  0  0  0  0  0  0  0  0  0  0
  -20.9386  -28.8088   22.8064 N   0  0  0  0  0  0  0  0  0  0  0  0
  -30.0077  -23.9185   23.5782 N   0  3  2  0  0  0  0  0  0  0  0  0
  -19.7738  -25.8528   21.0821 N   0  3  0  0  0  0  0  0  0  0  0  0
  -22.1187  -10.6000   18.5452 O   0  0  0  0  0  0  0  0  0  0  0  0
  -26.1479  -31.7040   21.7959 O   0  0  0  0  0  0  0  0  0  0  0  0
  -21.6911  -31.4146   21.8832 O   0  0  0  0  0  0  0  0  0  0  0  0
  -21.9581  -26.7343   22.6210 O   0  0  0  0  0  0  0  0  0  0  0  0
  -27.3120  -17.0006   22.6878 O   0  0  0  0  0  0  0  0  0  0  0  0
  -23.8889   -7.2461   24.2146 O   0  0  0  0  0  0  0  0  0  0  0  0
  -28.3962  -26.4367   20.4269 O   0  0  0  0  0  0  0  0  0  1  0  0
  -20.0698   -3.4627   22.9883 F   0  0  0  0  0  0  0  0  0  0  0  0
  -21.2149   -7.9296   24.0562 F   0  0  0  0  0  0  0  0  0  0  0  0
  1  2  1  0  0  0  0
  1  5  2  0  0  0  0
  2  6  2  0  0  0  0
  3  8  2  0  0  0  0
  3 17  1  0  0  0  0
  4  9  1  0  0  0  0
  4 17  2  0  0  0  0
  5 19  1  0  0  0  0
  6 21  1  0  0  0  0
  7 10  2  0  0  0  0
  7 20  1  0  0  0  0
  8 27  1  0  0  0  0
  9 27  2  0  0  0  0
 10 28  1  0  0  0  0
 11 12  2  0  0  0  0
 11 29  1  0  0  0  0
 12 30  1  0  0  0  0
 13 22  1  0  0  0  0
 13 28  2  0  0  0  0
 14 23  1  0  0  0  0
 14 24  2  0  0  0  0
 15 25  1  0  0  0  0
 15 26  2  0  0  0  0
 16 30  2  0  0  0  0
 16 31  1  0  0  0  0
 17 32  1  0  0  0  0
 18 32  1  0  0  0  0
 18 33  2  0  0  0  0
 18 34  1  0  0  0  0
 19 21  2  0  0  0  0
 19 39  1  0  0  0  0
 20 22  2  0  0  0  0
 20 40  1  0  0  0  0
 21 53  1  0  0  0  0
 22 41  1  0  0  0  0
 23 25  2  0  0  0  0
 23 65  1  0  0  0  0
 24 26  1  0  0  0  0
 24 57  1  0  0  0  0
 25 64  1  0  0  0  0
 26 75  1  0  0  0  0
 27 85  1  0  0  0  0
 28 86  1  0  0  0  0
 29 31  2  0  0  0  0
 29 85  1  0  0  0  0
 30 87  1  0  0  0  0
 31 88  1  0  0  0  0
 32 69  2  0  0  0  0
 33 70  1  0  0  0  0
 33 73  1  0  0  0  0
 34 74  1  0  0  0  0
 34 80  2  0  0  0  0
 35 54  1  0  0  0  0
 35 76  1  0  0  0  0
 35 81  2  0  0  0  0
 36 66  1  0  0  0  0
 36 71  1  0  0  0  0
 36 82  2  0  0  0  0
 37 67  1  0  0  0  0
 37 77  1  0  0  0  0
 37 83  2  0  0  0  0
 38 72  1  0  0  0  0
 38 75  1  0  0  0  0
 38 84  2  0  0  0  0
 39 42  1  0  0  0  0
 40 54  1  0  0  0  0
 41 71  1  0  0  0  0
 42 45  1  0  0  0  0
 43 46  1  0  0  0  0
 43 49  1  0  0  0  0
 44 47  1  0  0  0  0
 44 51  1  0  0  0  0
 45 53  1  0  0  0  0
 46 55  1  0  0  0  0
 47 56  1  0  0  0  0
 48 52  1  0  0  0  0
 48 56  1  0  0  0  0
 49 72  1  0  0  0  0
 50 55  1  0  0  0  0
 50 72  1  0  0  0  0
 51 78  1  0  0  0  0
 52 78  1  0  0  0  0
 53 76  1  0  0  0  0
 54 71  1  0  0  0  0
 55 70  1  0  0  0  0
 56 86  1  0  0  0  0
 58 64  1  0  0  0  0
 59 67  1  0  0  0  0
 60 68  1  0  0  0  0
 61 68  1  0  0  0  0
 62 68  1  0  0  0  0
 63 79  1  0  0  0  0
 65 78  1  0  0  0  0
 66 68  1  0  0  0  0
 66 77  1  0  0  0  0
 67 79  1  0  0  0  0
 69 70  1  0  0  0  0
M  CHG  2  78   1  79   1
M  ISO  4  38 100  56 101  75 100  86 101
M  END
> <Batch ID>
0040

> <Smiles>
CCc1cc([100NH:0][100C:0](=O)N2CCCC(n3nc(-c4ccc(Oc5ccc(F)cc5F)cc4)c(C(N)=O)c3N)C2)c(C)cc1CN1CCC[101CH:1]([101O:1]c2ccc3c(c2)CN(C(=O)C(NC(=O)C(C)NC)C(C)(C)C)C(C(=O)NC2CCCc4ccccc42)C3)CC1

> <Shape>
0.272

> <Color>
0.085

> <Negative vol penalty>
0.000

$$$$

  -OEChem-04042322063D

 90 99  0     1  0  0  0  0  0999 V2000
  -29.7246  -10.1772   41.5384 C   0  0  0  0  0  0  0  0  0  0  0  0
  -29.4475  -10.8148   40.3334 C   0  0  0  0  0  0  0  0  0  0  0  0
  -22.8632  -10.0502   20.0421 C   0  0  0  0  0  0  0  0  0  0  0  0
  -24.3079   -9.4508   21.8835 C   0  0  0  0  0  0  0  0  0  0  0  0
  -30.8296   -9.3333   41.6412 C   0  0  0  0  0  0  0  0  0  0  0  0
  -30.2760  -10.6097   39.2307 C   0  0  0  0  0  0  0  0  0  0  0  0
  -27.6685   -9.8113   34.9635 C   0  0  0  0  0  0  0  0  0  0  0  0
  -22.1699   -8.8496   20.1952 C   0  0  0  0  0  0  0  0  0  0  0  0
  -23.6145   -8.2502   22.0367 C   0  0  0  0  0  0  0  0  0  0  0  0
  -27.1197  -10.9279   34.3343 C   0  0  0  0  0  0  0  0  0  0  0  0
  -20.7011   -7.2146   23.4005 C   0  0  0  0  0  0  0  0  0  0  0  0
  -20.3520   -6.8302   24.6951 C   0  0  0  0  0  0  0  0  0  0  0  0
  -28.9573  -10.9429   32.7715 C   0  0  0  0  0  0  0  0  0  0  0  0
  -30.7825  -14.0470   25.7638 C   0  0  0  0  0  0  0  0  0  0  0  0
  -21.6462   -4.8057   24.4429 C   0  0  0  0  0  0  0  0  0  0  0  0
  -23.9322  -10.3508   20.8863 C   0  0  0  0  0  0  0  0  0  0  0  0
  -24.1258  -12.8938   20.8271 C   0  0  0  0  0  0  0  0  0  0  0  0
  -31.6665   -9.1101   40.5365 C   0  0  0  0  0  0  0  0  0  0  0  0
  -28.8735   -9.2578   34.5074 C   0  0  0  0  0  0  0  0  0  0  0  0
  -31.3940   -9.7629   39.3192 C   0  0  0  0  0  0  0  0  0  0  0  0
  -29.5179   -9.8177   33.3950 C   0  0  0  0  0  0  0  0  0  0  0  0
  -31.0906  -12.9071   25.0214 C   0  0  0  0  0  0  0  0  0  0  0  0
  -30.8207  -11.6416   25.5422 C   0  0  0  0  0  0  0  0  0  0  0  0
  -30.2427  -11.5160   26.8055 C   0  0  0  0  0  0  0  0  0  0  0  0
  -29.9347  -12.6560   27.5479 C   0  0  0  0  0  0  0  0  0  0  0  0
  -22.5455   -7.9496   21.1925 C   0  0  0  0  0  0  0  0  0  0  0  0
  -27.7656  -11.4956   33.2399 C   0  0  0  0  0  0  0  0  0  0  0  0
  -21.5228   -6.3946   22.6271 C   0  0  0  0  0  0  0  0  0  0  0  0
  -20.8246   -5.6257   25.2163 C   0  0  0  0  0  0  0  0  0  0  0  0
  -21.9953   -5.1901   23.1483 C   0  0  0  0  0  0  0  0  0  0  0  0
  -30.2046  -13.9215   27.0271 C   0  0  0  0  0  0  0  0  0  0  0  0
  -24.6491  -11.5906   20.7283 C   0  0  0  0  0  0  0  0  0  0  0  0
  -25.2029  -13.7146   20.5977 C   0  0  0  0  0  0  0  0  0  0  0  0
  -27.6609  -13.4477   30.3984 C   0  0  0  0  0  0  0  0  0  0  0  0
  -28.0909  -14.6340   30.8667 C   0  0  0  0  0  0  0  0  0  0  0  0
  -22.7860  -13.3238   21.1020 C   0  0  0  0  0  0  0  0  0  0  0  0
  -31.7610   -8.8254   35.7640 C   0  0  0  0  0  0  0  0  0  0  0  0
  -32.2980   -7.2215   32.9961 C   0  0  0  0  0  0  0  0  0  0  0  0
  -31.4632   -6.7297   29.7238 C   0  0  0  0  0  0  0  0  0  0  0  0
  -31.1072  -12.9767   21.2655 C   0  0  0  0  0  0  0  0  0  0  0  0
  -32.8764   -8.2262   40.7092 C   0  0  0  0  0  0  0  0  0  0  0  0
  -29.4385   -8.0371   35.1804 C   0  0  0  0  0  0  0  0  0  0  0  0
  -30.8033   -9.2490   32.8537 C   0  0  0  0  0  0  0  0  0  0  0  0
  -33.4898   -7.7685   39.3884 C   0  0  0  0  0  0  0  0  0  0  0  0
  -24.7986  -12.2919   29.7562 C   0  0  0  0  0  0  0  0  0  0  0  0
  -29.3831  -13.8455   18.2739 C   0  0  0  0  0  0  0  0  0  0  0  0
  -25.4869  -12.9118   28.5392 C   0  0  0  0  0  0  0  0  0  0  0  0
  -33.6257   -8.9449   38.4269 C   0  0  0  0  0  0  0  0  0  0  0  0
  -25.3868  -12.6739   31.1126 C   0  0  0  0  0  0  0  0  0  0  0  0
  -27.9271  -13.4837   18.5726 C   0  0  0  0  0  0  0  0  0  0  0  0
  -30.3532  -12.8518   18.9091 C   0  0  0  0  0  0  0  0  0  0  0  0
  -28.7108  -12.2820   20.6560 C   0  0  0  0  0  0  0  0  0  0  0  0
  -26.8931  -12.3647   28.3048 C   0  0  0  0  0  0  0  0  0  0  0  0
  -32.2550   -9.5463   38.0937 C   0  0  1  0  0  0  0  0  0  0  0  0
  -26.8955  -12.4525   31.2410 C   0  0  2  0  0  0  0  0  0  1  0  0
  -30.9371   -7.8677   34.9505 C   0  0  1  0  0  0  0  0  0  0  0  0
  -27.6968  -13.2869   20.0831 C   0  0  2  0  0  0  0  0  0  0  0  0
  -31.1526  -10.4208   24.7435 C   0  0  0  0  0  0  0  0  0  0  0  0
  -29.9535  -10.1575   27.3626 C   0  0  0  0  0  0  0  0  0  0  0  0
  -32.1050   -5.3788   27.7087 C   0  0  0  0  0  0  0  0  0  0  0  0
  -34.7449   -8.9980   32.5875 C   0  0  0  0  0  0  0  0  0  0  0  0
  -34.7784   -8.2810   30.1890 C   0  0  0  0  0  0  0  0  0  0  0  0
  -35.0921   -6.5925   31.9982 C   0  0  0  0  0  0  0  0  0  0  0  0
  -28.7891   -5.4706   29.5722 C   0  0  0  0  0  0  0  0  0  0  0  0
  -31.7090  -13.0687   23.6714 C   0  0  0  0  0  0  0  0  0  0  0  0
  -29.3133  -12.5062   28.9053 C   0  0  0  0  0  0  0  0  0  0  0  0
  -32.8023   -7.5968   31.6236 C   0  0  1  0  0  0  0  0  0  0  0  0
  -31.2029   -5.4620   28.9302 C   0  0  2  0  0  0  0  0  0  0  0  0
  -34.3312   -7.8792   31.6107 C   0  0  0  0  0  0  0  0  0  0  0  0
  -25.9569  -11.5793   20.4569 N   0  0  0  0  0  0  0  0  0  0  0  0
  -26.2644  -12.8855   20.3833 N   0  0  0  0  0  0  0  0  0  0  0  0
  -31.3193   -8.0588   33.5499 N   0  0  0  0  0  0  0  0  0  0  0  0
  -30.0824  -12.7122   20.3419 N   0  0  0  0  0  0  0  0  0  0  0  0
  -25.3360  -15.0575   20.5603 N   0  0  0  0  0  0  0  0  0  0  0  0
  -22.4119  -13.5332   22.4363 N   0  0  0  0  0  0  0  0  0  0  0  0
  -31.5623   -8.7209   37.1275 N   0  0  0  0  0  0  0  0  0  0  0  0
  -32.3854   -6.5234   30.7279 N   0  0  0  0  0  0  0  0  0  0  0  0
  -30.7645  -12.8265   22.6036 N   0  0  0  0  0  0  0  0  0  0  0  0
  -27.9609  -13.1656   29.0123 N   0  3  2  0  0  0  0  0  0  0  0  0
  -29.7856   -5.4199   28.4716 N   0  3  0  0  0  0  0  0  0  0  0  0
  -21.9405  -13.5009   20.1923 O   0  0  0  0  0  0  0  0  0  0  0  0
  -32.5218   -9.6008   35.1967 O   0  0  0  0  0  0  0  0  0  0  0  0
  -32.7505   -6.2183   33.5532 O   0  0  0  0  0  0  0  0  0  0  0  0
  -30.9070   -7.7971   29.4753 O   0  0  0  0  0  0  0  0  0  0  0  0
  -32.2418  -13.3264   20.9230 O   0  0  0  0  0  0  0  0  0  0  0  0
  -21.8691   -6.7780   21.3423 O   0  0  0  0  0  0  0  0  0  0  0  0
  -27.2324  -12.5859   32.6244 O   0  0  0  0  0  0  0  0  0  1  0  0
  -20.4905   -5.2574   26.4600 F   0  0  0  0  0  0  0  0  0  0  0  0
  -22.7859   -4.3987   22.4105 F   0  0  0  0  0  0  0  0  0  0  0  0
  -29.8378  -15.3572   27.9134 Cl  0  0  0  0  0  0  0  0  0  0  0  0
  1  2  1  0  0  0  0
  1  5  2  0  0  0  0
  2  6  2  0  0  0  0
  3  8  2  0  0  0  0
  3 16  1  0  0  0  0
  4  9  1  0  0  0  0
  4 16  2  0  0  0  0
  5 18  1  0  0  0  0
  6 20  1  0  0  0  0
  7 10  2  0  0  0  0
  7 19  1  0  0  0  0
  8 26  1  0  0  0  0
  9 26  2  0  0  0  0
 10 27  1  0  0  0  0
 11 12  2  0  0  0  0
 11 28  1  0  0  0  0
 12 29  1  0  0  0  0
 13 21  1  0  0  0  0
 13 27  2  0  0  0  0
 14 22  1  0  0  0  0
 14 31  2  0  0  0  0
 15 29  2  0  0  0  0
 15 30  1  0  0  0  0
 16 32  1  0  0  0  0
 17 32  1  0  0  0  0
 17 33  2  0  0  0  0
 17 36  1  0  0  0  0
 18 20  2  0  0  0  0
 18 41  1  0  0  0  0
 19 21  2  0  0  0  0
 19 42  1  0  0  0  0
 20 54  1  0  0  0  0
 21 43  1  0  0  0  0
 22 23  2  0  0  0  0
 22 65  1  0  0  0  0
 23 24  1  0  0  0  0
 23 58  1  0  0  0  0
 24 25  2  0  0  0  0
 24 59  1  0  0  0  0
 25 31  1  0  0  0  0
 25 66  1  0  0  0  0
 26 86  1  0  0  0  0
 27 87  1  0  0  0  0
 28 30  2  0  0  0  0
 28 86  1  0  0  0  0
 29 88  1  0  0  0  0
 30 89  1  0  0  0  0
 31 90  1  0  0  0  0
 32 70  2  0  0  0  0
 33 71  1  0  0  0  0
 33 74  1  0  0  0  0
 34 35  2  0  0  0  0
 34 55  1  0  0  0  0
 34 79  1  0  0  0  0
 36 75  1  0  0  0  0
 36 81  2  0  0  0  0
 37 56  1  0  0  0  0
 37 76  1  0  0  0  0
 37 82  2  0  0  0  0
 38 67  1  0  0  0  0
 38 72  1  0  0  0  0
 38 83  2  0  0  0  0
 39 68  1  0  0  0  0
 39 77  1  0  0  0  0
 39 84  2  0  0  0  0
 40 73  1  0  0  0  0
 40 78  1  0  0  0  0
 40 85  2  0  0  0  0
 41 44  1  0  0  0  0
 42 56  1  0  0  0  0
 43 72  1  0  0  0  0
 44 48  1  0  0  0  0
 45 47  1  0  0  0  0
 45 49  1  0  0  0  0
 46 50  1  0  0  0  0
 46 51  1  0  0  0  0
 47 53  1  0  0  0  0
 48 54  1  0  0  0  0
 49 55  1  0  0  0  0
 50 57  1  0  0  0  0
 51 73  1  0  0  0  0
 52 57  1  0  0  0  0
 52 73  1  0  0  0  0
 53 79  1  0  0  0  0
 54 76  1  0  0  0  0
 55 87  1  0  0  0  0
 56 72  1  0  0  0  0
 57 71  1  0  0  0  0
 60 68  1  0  0  0  0
 61 69  1  0  0  0  0
 62 69  1  0  0  0  0
 63 69  1  0  0  0  0
 64 80  1  0  0  0  0
 65 78  1  0  0  0  0
 66 79  1  0  0  0  0
 67 69  1  0  0  0  0
 67 77  1  0  0  0  0
 68 80  1  0  0  0  0
 70 71  1  0  0  0  0
M  CHG  2  79   1  80   1
M  ISO  4  40 100  55 101  78 100  87 101
M  END
> <Batch ID>
0040

> <Smiles>
C=C1N(Cc2c(Cl)cc(C[100NH:0][100C:0](=O)N3CCCC(n4nc(-c5ccc(Oc6ccc(F)cc6F)cc5)c(C(N)=O)c4N)C3)c(C)c2C)CCCC[101CH:1]1[101O:1]c1ccc2c(c1)CN(C(=O)C(NC(=O)C(C)NC)C(C)(C)C)C(C(=O)NC1CCCc3ccccc31)C2

> <Shape>
0.147

> <Color>
0.157

> <Negative vol penalty>
0.000

$$$$

  -OEChem-04042322063D

 86 95  0     1  0  0  0  0  0999 V2000
  -26.7182  -32.6306   20.3271 C   0  0  0  0  0  0  0  0  0  0  0  0
  -27.4846  -31.4792   20.4758 C   0  0  0  0  0  0  0  0  0  0  0  0
  -23.0137   -9.9786   19.9600 C   0  0  0  0  0  0  0  0  0  0  0  0
  -23.8048   -9.9387   22.2425 C   0  0  0  0  0  0  0  0  0  0  0  0
  -25.3336  -32.5696   20.4797 C   0  0  0  0  0  0  0  0  0  0  0  0
  -26.8669  -30.2661   20.7783 C   0  0  0  0  0  0  0  0  0  0  0  0
  -28.6389  -26.4335   17.9826 C   0  0  0  0  0  0  0  0  0  0  0  0
  -22.2375   -8.8468   20.2092 C   0  0  0  0  0  0  0  0  0  0  0  0
  -23.0285   -8.8068   22.4917 C   0  0  0  0  0  0  0  0  0  0  0  0
  -29.8689  -25.8912   18.3523 C   0  0  0  0  0  0  0  0  0  0  0  0
  -19.7855   -8.1042   23.1316 C   0  0  0  0  0  0  0  0  0  0  0  0
  -19.0438   -8.0761   24.3125 C   0  0  0  0  0  0  0  0  0  0  0  0
  -28.7291  -24.0732   19.4547 C   0  0  0  0  0  0  0  0  0  0  0  0
  -29.9731  -19.1598   22.3722 C   0  0  0  0  0  0  0  0  0  0  0  0
  -31.3425  -17.5272   20.5716 C   0  0  0  0  0  0  0  0  0  0  0  0
  -20.2337   -6.0935   25.0127 C   0  0  0  0  0  0  0  0  0  0  0  0
  -23.7974  -10.5245   20.9767 C   0  0  0  0  0  0  0  0  0  0  0  0
  -24.2167  -13.0388   20.8763 C   0  0  0  0  0  0  0  0  0  0  0  0
  -24.6978  -31.3534   20.7747 C   0  0  0  0  0  0  0  0  0  0  0  0
  -27.4425  -25.8045   18.3561 C   0  0  0  0  0  0  0  0  0  0  0  0
  -25.4727  -30.1891   20.9363 C   0  0  0  0  0  0  0  0  0  0  0  0
  -27.4853  -24.6082   19.0863 C   0  0  0  0  0  0  0  0  0  0  0  0
  -29.7481  -17.7832   22.3687 C   0  0  0  0  0  0  0  0  0  0  0  0
  -30.8828  -19.7201   21.4753 C   0  0  0  0  0  0  0  0  0  0  0  0
  -30.4329  -16.9669   21.4685 C   0  0  0  0  0  0  0  0  0  0  0  0
  -22.2449   -8.2609   21.4750 C   0  0  0  0  0  0  0  0  0  0  0  0
  -29.9141  -24.7124   19.0910 C   0  0  0  0  0  0  0  0  0  0  0  0
  -20.7513   -7.1269   22.8912 C   0  0  0  0  0  0  0  0  0  0  0  0
  -19.2679   -7.0708   25.2531 C   0  0  0  0  0  0  0  0  0  0  0  0
  -20.9754   -6.1216   23.8318 C   0  0  0  0  0  0  0  0  0  0  0  0
  -31.5675  -18.9038   20.5751 C   0  0  0  0  0  0  0  0  0  0  0  0
  -24.5999  -11.6933   20.7197 C   0  0  0  0  0  0  0  0  0  0  0  0
  -25.3267  -13.7575   20.5051 C   0  0  0  0  0  0  0  0  0  0  0  0
  -30.8393  -21.9710   20.3889 C   0  0  0  0  0  0  0  0  0  0  0  0
  -22.9688  -13.5898   21.3179 C   0  0  0  0  0  0  0  0  0  0  0  0
  -24.9419  -26.6200   20.1410 C   0  0  0  0  0  0  0  0  0  0  0  0
  -23.7460  -23.8051   19.0600 C   0  0  0  0  0  0  0  0  0  0  0  0
  -24.3533  -20.6933   17.7972 C   0  0  0  0  0  0  0  0  0  0  0  0
  -30.8249  -14.6299   20.6133 C   0  0  0  0  0  0  0  0  0  0  0  0
  -23.2032  -31.3460   20.9771 C   0  0  0  0  0  0  0  0  0  0  0  0
  -26.1244  -26.3880   17.9265 C   0  0  0  0  0  0  0  0  0  0  0  0
  -26.2299  -23.8832   19.4948 C   0  0  0  0  0  0  0  0  0  0  0  0
  -22.5888  -29.9495   20.9277 C   0  0  0  0  0  0  0  0  0  0  0  0
  -32.7211  -22.7096   22.5146 C   0  0  0  0  0  0  0  0  0  0  0  0
  -29.6030  -12.2762   18.2376 C   0  0  0  0  0  0  0  0  0  0  0  0
  -23.4049  -28.9769   21.7732 C   0  0  0  0  0  0  0  0  0  0  0  0
  -32.5498  -23.5627   21.2590 C   0  0  0  0  0  0  0  0  0  0  0  0
  -28.1609  -12.0254   18.6845 C   0  0  0  0  0  0  0  0  0  0  0  0
  -31.5319  -21.7848   22.7500 C   0  0  0  0  0  0  0  0  0  0  0  0
  -30.5412  -12.4641   19.4285 C   0  0  0  0  0  0  0  0  0  0  0  0
  -28.6770  -13.2338   20.8433 C   0  0  0  0  0  0  0  0  0  0  0  0
  -24.8370  -28.8498   21.2400 C   0  0  1  0  0  0  0  0  0  0  0  0
  -31.1521  -23.4419   20.6614 C   0  0  1  0  0  0  0  0  0  1  0  0
  -24.9584  -25.9388   18.8018 C   0  0  1  0  0  0  0  0  0  0  0  0
  -27.6832  -13.1030   19.6776 C   0  0  2  0  0  0  0  0  0  0  0  0
  -28.7680  -17.2103   23.3402 C   0  0  0  0  0  0  0  0  0  0  0  0
  -23.1767  -18.6070   17.0485 C   0  0  0  0  0  0  0  0  0  0  0  0
  -23.2613  -23.0361   21.9726 C   0  0  0  0  0  0  0  0  0  0  0  0
  -22.9982  -20.6600   21.2289 C   0  0  0  0  0  0  0  0  0  0  0  0
  -21.4167  -22.4050   20.4062 C   0  0  0  0  0  0  0  0  0  0  0  0
  -25.4172  -20.9413   15.0466 C   0  0  0  0  0  0  0  0  0  0  0  0
  -23.7895  -22.3725   19.5341 C   0  0  1  0  0  0  0  0  0  0  0  0
  -23.7503  -19.9487   16.6198 C   0  0  2  0  0  0  0  0  0  0  0  0
  -22.8902  -22.1329   20.7796 C   0  0  0  0  0  0  0  0  0  0  0  0
  -25.8553  -11.5623   20.2829 N   0  0  0  0  0  0  0  0  0  0  0  0
  -26.2705  -12.8347   20.1617 N   0  0  0  0  0  0  0  0  0  0  0  0
  -31.0910  -21.1426   21.5054 N   0  0  0  0  0  0  0  0  0  0  0  0
  -24.9655  -24.4968   19.0563 N   0  0  0  0  0  0  0  0  0  0  0  0
  -30.0269  -13.5030   20.3236 N   0  0  0  0  0  0  0  0  0  0  0  0
  -25.5778  -15.0824   20.4420 N   0  0  0  0  0  0  0  0  0  0  0  0
  -21.9336  -12.7094   21.6605 N   0  0  0  0  0  0  0  0  0  0  0  0
  -30.2181  -15.5664   21.4496 N   0  0  0  0  0  0  0  0  0  0  0  0
  -24.8670  -27.9980   20.0704 N   0  0  0  0  0  0  0  0  0  0  0  0
  -23.4435  -21.5499   18.3800 N   0  0  0  0  0  0  0  0  0  0  0  0
  -24.7854  -19.7052   15.5757 N   0  3  0  0  0  0  0  0  0  0  0  0
  -30.4523  -21.6120   19.2782 O   0  0  0  0  0  0  0  0  0  0  0  0
  -22.7721  -14.8266   21.3905 O   0  0  0  0  0  0  0  0  0  0  0  0
  -24.9918  -25.9452   21.1627 O   0  0  0  0  0  0  0  0  0  0  0  0
  -22.6707  -24.2902   18.6992 O   0  0  0  0  0  0  0  0  0  0  0  0
  -25.5142  -20.5285   18.1656 O   0  0  0  0  0  0  0  0  0  0  0  0
  -31.9522  -14.7680   20.1316 O   0  0  0  0  0  0  0  0  0  0  0  0
  -21.4874   -7.1566   21.7186 O   0  0  0  0  0  0  0  0  0  0  0  0
  -31.1133  -24.1812   19.4537 O   0  0  0  0  0  0  0  0  0  1  0  0
  -18.5566   -7.0448   26.3878 F   0  0  0  0  0  0  0  0  0  0  0  0
  -21.9028   -5.1807   23.6069 F   0  0  0  0  0  0  0  0  0  0  0  0
  -32.7017  -19.5568   19.4471 Cl  0  0  0  0  0  0  0  0  0  0  0  0
  1  2  1  0  0  0  0
  1  5  2  0  0  0  0
  2  6  2  0  0  0  0
  3  8  2  0  0  0  0
  3 17  1  0  0  0  0
  4  9  1  0  0  0  0
  4 17  2  0  0  0  0
  5 19  1  0  0  0  0
  6 21  1  0  0  0  0
  7 10  2  0  0  0  0
  7 20  1  0  0  0  0
  8 26  1  0  0  0  0
  9 26  2  0  0  0  0
 10 27  1  0  0  0  0
 11 12  2  0  0  0  0
 11 28  1  0  0  0  0
 12 29  1  0  0  0  0
 13 22  1  0  0  0  0
 13 27  2  0  0  0  0
 14 23  2  0  0  0  0
 14 24  1  0  0  0  0
 15 25  2  0  0  0  0
 15 31  1  0  0  0  0
 16 29  2  0  0  0  0
 16 30  1  0  0  0  0
 17 32  1  0  0  0  0
 18 32  1  0  0  0  0
 18 33  2  0  0  0  0
 18 35  1  0  0  0  0
 19 21  2  0  0  0  0
 19 40  1  0  0  0  0
 20 22  2  0  0  0  0
 20 41  1  0  0  0  0
 21 52  1  0  0  0  0
 22 42  1  0  0  0  0
 23 25  1  0  0  0  0
 23 56  1  0  0  0  0
 24 31  2  0  0  0  0
 24 67  1  0  0  0  0
 25 72  1  0  0  0  0
 26 82  1  0  0  0  0
 27 83  1  0  0  0  0
 28 30  2  0  0  0  0
 28 82  1  0  0  0  0
 29 84  1  0  0  0  0
 30 85  1  0  0  0  0
 31 86  1  0  0  0  0
 32 65  2  0  0  0  0
 33 66  1  0  0  0  0
 33 70  1  0  0  0  0
 34 53  1  0  0  0  0
 34 67  1  0  0  0  0
 34 76  2  0  0  0  0
 35 71  1  0  0  0  0
 35 77  2  0  0  0  0
 36 54  1  0  0  0  0
 36 73  1  0  0  0  0
 36 78  2  0  0  0  0
 37 62  1  0  0  0  0
 37 68  1  0  0  0  0
 37 79  2  0  0  0  0
 38 63  1  0  0  0  0
 38 74  1  0  0  0  0
 38 80  2  0  0  0  0
 39 69  1  0  0  0  0
 39 72  1  0  0  0  0
 39 81  2  0  0  0  0
 40 43  1  0  0  0  0
 41 54  1  0  0  0  0
 42 68  1  0  0  0  0
 43 46  1  0  0  0  0
 44 47  1  0  0  0  0
 44 49  1  0  0  0  0
 45 48  1  0  0  0  0
 45 50  1  0  0  0  0
 46 52  1  0  0  0  0
 47 53  1  0  0  0  0
 48 55  1  0  0  0  0
 49 67  1  0  0  0  0
 50 69  1  0  0  0  0
 51 55  1  0  0  0  0
 51 69  1  0  0  0  0
 52 73  1  0  0  0  0
 53 83  1  0  0  0  0
 54 68  1  0  0  0  0
 55 66  1  0  0  0  0
 57 63  1  0  0  0  0
 58 64  1  0  0  0  0
 59 64  1  0  0  0  0
 60 64  1  0  0  0  0
 61 75  1  0  0  0  0
 62 64  1  0  0  0  0
 62 74  1  0  0  0  0
 63 75  1  0  0  0  0
 65 66  1  0  0  0  0
M  CHG  1  75   1
M  ISO  4  39 100  53 101  72 100  83 101
M  END
> <Batch ID>
0040

> <Smiles>
CNC(C)C(=O)NC(C(=O)N1Cc2cc([101O:1][101CH:1]3CCCN(c4cc(C)c([100NH:0][100C:0](=O)N5CCCC(n6nc(-c7ccc(Oc8ccc(F)cc8F)cc7)c(C(N)=O)c6N)C5)cc4Cl)C3=O)ccc2CC1C(=O)NC1CCCc2ccccc21)C(C)(C)C

> <Shape>
0.287

> <Color>
0.213

> <Negative vol penalty>
0.000

$$$$

  -OEChem-04042322063D

 93102  0     1  0  0  0  0  0999 V2000
  -26.1292  -20.4005   16.8608 C   0  0  0  0  0  0  0  0  0  0  0  0
  -25.8565  -19.0766   17.1865 C   0  0  0  0  0  0  0  0  0  0  0  0
  -26.5947  -28.9002   21.3423 C   0  0  0  0  0  0  0  0  0  0  0  0
  -26.2713  -28.1932   19.0548 C   0  0  0  0  0  0  0  0  0  0  0  0
  -25.9630  -21.3983   17.8189 C   0  0  0  0  0  0  0  0  0  0  0  0
  -25.4063  -18.7517   18.4666 C   0  0  0  0  0  0  0  0  0  0  0  0
  -24.0091  -14.0967   19.2295 C   0  0  0  0  0  0  0  0  0  0  0  0
  -25.3349  -29.4989   21.3353 C   0  0  0  0  0  0  0  0  0  0  0  0
  -25.0114  -28.7918   19.0478 C   0  0  0  0  0  0  0  0  0  0  0  0
  -24.9156  -13.0399   19.3023 C   0  0  0  0  0  0  0  0  0  0  0  0
  -22.1107  -28.5208   21.6202 C   0  0  0  0  0  0  0  0  0  0  0  0
  -21.2851  -28.3066   22.7239 C   0  0  0  0  0  0  0  0  0  0  0  0
  -24.6805  -13.0116   21.7030 C   0  0  0  0  0  0  0  0  0  0  0  0
  -31.6964  -16.8845   21.4884 C   0  0  0  0  0  0  0  0  0  0  0  0
  -21.2275  -30.6854   23.1424 C   0  0  0  0  0  0  0  0  0  0  0  0
  -27.0630  -28.2474   20.2019 C   0  0  0  0  0  0  0  0  0  0  0  0
  -29.6037  -28.2594   20.4303 C   0  0  0  0  0  0  0  0  0  0  0  0
  -25.5223  -21.0830   19.1148 C   0  0  0  0  0  0  0  0  0  0  0  0
  -23.4388  -14.6269   20.3958 C   0  0  0  0  0  0  0  0  0  0  0  0
  -25.2094  -19.7475   19.4402 C   0  0  0  0  0  0  0  0  0  0  0  0
  -23.7651  -14.0733   21.6421 C   0  0  0  0  0  0  0  0  0  0  0  0
  -30.6344  -17.7876   21.4414 C   0  0  0  0  0  0  0  0  0  0  0  0
  -31.5264  -15.5829   21.0163 C   0  0  0  0  0  0  0  0  0  0  0  0
  -29.4025  -17.3892   20.9225 C   0  0  0  0  0  0  0  0  0  0  0  0
  -29.2325  -16.0877   20.4505 C   0  0  0  0  0  0  0  0  0  0  0  0
  -30.2945  -15.1845   20.4974 C   0  0  0  0  0  0  0  0  0  0  0  0
  -24.5432  -29.4446   20.1882 C   0  0  0  0  0  0  0  0  0  0  0  0
  -25.2537  -12.4991   20.5394 C   0  0  0  0  0  0  0  0  0  0  0  0
  -22.4947  -29.8174   21.2776 C   0  0  0  0  0  0  0  0  0  0  0  0
  -20.8435  -29.3889   23.4850 C   0  0  0  0  0  0  0  0  0  0  0  0
  -22.0531  -30.8996   22.0387 C   0  0  0  0  0  0  0  0  0  0  0  0
  -28.3645  -27.6294   20.2083 C   0  0  0  0  0  0  0  0  0  0  0  0
  -30.5262  -27.2464   20.3331 C   0  0  0  0  0  0  0  0  0  0  0  0
  -29.8949  -29.6370   20.7005 C   0  0  0  0  0  0  0  0  0  0  0  0
  -23.4820  -17.4668   21.8229 C   0  0  0  0  0  0  0  0  0  0  0  0
  -21.3188  -16.0727   23.7976 C   0  0  0  0  0  0  0  0  0  0  0  0
  -20.8988  -12.8678   25.4007 C   0  0  0  0  0  0  0  0  0  0  0  0
  -30.0899  -21.4287   21.2384 C   0  0  0  0  0  0  0  0  0  0  0  0
  -25.3523  -22.2034   20.1103 C   0  0  0  0  0  0  0  0  0  0  0  0
  -22.4422  -15.7492   20.2981 C   0  0  0  0  0  0  0  0  0  0  0  0
  -23.1653  -14.5931   22.9221 C   0  0  0  0  0  0  0  0  0  0  0  0
  -25.3005  -21.7134   21.5537 C   0  0  0  0  0  0  0  0  0  0  0  0
  -32.7493  -10.9594   23.8856 C   0  0  0  0  0  0  0  0  0  0  0  0
  -31.7475  -11.9552   24.4673 C   0  0  0  0  0  0  0  0  0  0  0  0
  -31.2382  -23.0221   18.1987 C   0  0  0  0  0  0  0  0  0  0  0  0
  -33.1602  -11.2125   22.4383 C   0  0  0  0  0  0  0  0  0  0  0  0
  -32.3606  -13.3332   24.6972 C   0  0  0  0  0  0  0  0  0  0  0  0
  -24.3058  -20.5691   21.6788 C   0  0  0  0  0  0  0  0  0  0  0  0
  -30.7416  -24.4550   18.4000 C   0  0  0  0  0  0  0  0  0  0  0  0
  -30.2354  -22.0081   18.7412 C   0  0  0  0  0  0  0  0  0  0  0  0
  -29.3738  -23.6390   20.3757 C   0  0  0  0  0  0  0  0  0  0  0  0
  -33.6876  -12.6115   22.1417 C   0  0  0  0  0  0  0  0  0  0  0  0
  -32.3325  -14.2813   23.5044 C   0  0  0  0  0  0  0  0  0  0  0  0
  -24.7478  -19.3665   20.8353 C   0  0  1  0  0  0  0  0  0  0  0  0
  -22.3149  -16.5493   21.5908 C   0  0  1  0  0  0  0  0  0  0  0  0
  -30.3537  -24.7124   19.8682 C   0  0  2  0  0  0  0  0  0  0  0  0
  -28.2652  -18.3599   20.8731 C   0  0  0  0  0  0  0  0  0  0  0  0
  -27.9112  -15.6605   19.8933 C   0  0  0  0  0  0  0  0  0  0  0  0
  -18.8204  -11.6801   26.1536 C   0  0  0  0  0  0  0  0  0  0  0  0
  -21.9000  -17.3753   26.4949 C   0  0  0  0  0  0  0  0  0  0  0  0
  -21.1424  -15.2608   27.6008 C   0  0  0  0  0  0  0  0  0  0  0  0
  -19.5472  -16.5780   26.2069 C   0  0  0  0  0  0  0  0  0  0  0  0
  -21.5616  -10.4585   23.8149 C   0  0  0  0  0  0  0  0  0  0  0  0
  -30.8427  -19.1752   21.9538 C   0  0  0  0  0  0  0  0  0  0  0  0
  -32.6799  -14.6357   21.0771 C   0  0  0  0  0  0  0  0  0  0  0  0
  -30.1143  -13.7837   19.9911 C   0  0  0  0  0  0  0  0  0  0  0  0
  -28.2755  -10.7508   21.4338 C   0  0  0  0  0  0  0  0  0  0  0  0
  -29.0738  -11.5535   20.4175 C   0  0  0  0  0  0  0  0  0  0  0  0
  -26.9347  -11.3788   21.7943 C   0  0  0  0  0  0  0  0  0  1  0  0
  -21.3974  -15.2765   25.0778 C   0  0  1  0  0  0  0  0  0  0  0  0
  -19.8670  -11.8085   25.0578 C   0  0  2  0  0  0  0  0  0  0  0  0
  -21.0178  -16.1222   26.3260 C   0  0  0  0  0  0  0  0  0  0  0  0
  -28.4853  -26.3178   19.9864 N   0  0  0  0  0  0  0  0  0  0  0  0
  -29.8113  -26.1154   20.0686 N   0  0  0  0  0  0  0  0  0  0  0  0
  -22.2008  -15.6956   22.7750 N   0  0  0  0  0  0  0  0  0  0  0  0
  -29.9229  -22.2982   20.1478 N   0  0  0  0  0  0  0  0  0  0  0  0
  -31.8710  -27.2218   20.4487 N   0  0  0  0  0  0  0  0  0  0  0  0
  -30.1382  -30.4932   19.6179 N   0  0  0  0  0  0  0  0  0  0  0  0
  -23.6826  -18.3884   20.8131 N   0  0  0  0  0  0  0  0  0  0  0  0
  -20.5609  -14.0981   24.8776 N   0  0  0  0  0  0  0  0  0  0  0  0
  -30.6089  -20.1757   20.9363 N   0  0  0  0  0  0  0  0  0  0  0  0
  -32.5512  -13.6078   22.1751 N   0  3  0  0  0  0  0  0  0  0  0  0
  -20.5249  -10.4833   24.8788 N   0  3  0  0  0  0  0  0  0  0  0  0
  -29.3243  -12.9258   20.9170 N   0  3  0  0  0  0  0  0  0  0  0  0
  -29.9542  -30.0916   21.8681 O   0  0  0  0  0  0  0  0  0  0  0  0
  -24.1500  -17.3483   22.8434 O   0  0  0  0  0  0  0  0  0  0  0  0
  -20.4999  -16.9907   23.7057 O   0  0  0  0  0  0  0  0  0  0  0  0
  -21.9021  -12.6288   26.0691 O   0  0  0  0  0  0  0  0  0  0  0  0
  -29.8027  -21.7475   22.3973 O   0  0  0  0  0  0  0  0  0  0  0  0
  -23.3137  -30.0285   20.1811 O   0  0  0  0  0  0  0  0  0  0  0  0
  -26.1387  -11.4680   20.6133 O   0  0  0  0  0  0  0  0  0  1  0  0
  -20.0495  -29.1831   24.5439 F   0  0  0  0  0  0  0  0  0  0  0  0
  -22.4177  -32.1475   21.7139 F   0  0  0  0  0  0  0  0  0  0  0  0
  1  2  1  0  0  0  0
  1  5  2  0  0  0  0
  2  6  2  0  0  0  0
  3  8  2  0  0  0  0
  3 16  1  0  0  0  0
  4  9  1  0  0  0  0
  4 16  2  0  0  0  0
  5 18  1  0  0  0  0
  6 20  1  0  0  0  0
  7 10  2  0  0  0  0
  7 19  1  0  0  0  0
  8 27  1  0  0  0  0
  9 27  2  0  0  0  0
 10 28  1  0  0  0  0
 11 12  2  0  0  0  0
 11 29  1  0  0  0  0
 12 30  1  0  0  0  0
 13 21  1  0  0  0  0
 13 28  2  0  0  0  0
 14 22  1  0  0  0  0
 14 23  2  0  0  0  0
 15 30  2  0  0  0  0
 15 31  1  0  0  0  0
 16 32  1  0  0  0  0
 17 32  1  0  0  0  0
 17 33  2  0  0  0  0
 17 34  1  0  0  0  0
 18 20  2  0  0  0  0
 18 39  1  0  0  0  0
 19 21  2  0  0  0  0
 19 40  1  0  0  0  0
 20 54  1  0  0  0  0
 21 41  1  0  0  0  0
 22 24  2  0  0  0  0
 22 64  1  0  0  0  0
 23 26  1  0  0  0  0
 23 65  1  0  0  0  0
 24 25  1  0  0  0  0
 24 57  1  0  0  0  0
 25 26  2  0  0  0  0
 25 58  1  0  0  0  0
 26 66  1  0  0  0  0
 27 90  1  0  0  0  0
 28 91  1  0  0  0  0
 29 31  2  0  0  0  0
 29 90  1  0  0  0  0
 30 92  1  0  0  0  0
 31 93  1  0  0  0  0
 32 73  2  0  0  0  0
 33 74  1  0  0  0  0
 33 77  1  0  0  0  0
 34 78  1  0  0  0  0
 34 85  2  0  0  0  0
 35 55  1  0  0  0  0
 35 79  1  0  0  0  0
 35 86  2  0  0  0  0
 36 70  1  0  0  0  0
 36 75  1  0  0  0  0
 36 87  2  0  0  0  0
 37 71  1  0  0  0  0
 37 80  1  0  0  0  0
 37 88  2  0  0  0  0
 38 76  1  0  0  0  0
 38 81  1  0  0  0  0
 38 89  2  0  0  0  0
 39 42  1  0  0  0  0
 40 55  1  0  0  0  0
 41 75  1  0  0  0  0
 42 48  1  0  0  0  0
 43 44  1  0  0  0  0
 43 46  1  0  0  0  0
 44 47  1  0  0  0  0
 45 49  1  0  0  0  0
 45 50  1  0  0  0  0
 46 52  1  0  0  0  0
 47 53  1  0  0  0  0
 48 54  1  0  0  0  0
 49 56  1  0  0  0  0
 50 76  1  0  0  0  0
 51 56  1  0  0  0  0
 51 76  1  0  0  0  0
 52 82  1  0  0  0  0
 53 82  1  0  0  0  0
 54 79  1  0  0  0  0
 55 75  1  0  0  0  0
 56 74  1  0  0  0  0
 59 71  1  0  0  0  0
 60 72  1  0  0  0  0
 61 72  1  0  0  0  0
 62 72  1  0  0  0  0
 63 83  1  0  0  0  0
 64 81  1  0  0  0  0
 65 82  1  0  0  0  0
 66 84  1  0  0  0  0
 67 68  1  0  0  0  0
 67 69  1  0  0  0  0
 68 84  1  0  0  0  0
 69 91  1  0  0  0  0
 70 72  1  0  0  0  0
 70 80  1  0  0  0  0
 71 83  1  0  0  0  0
 73 74  1  0  0  0  0
M  CHG  3  82   1  83   1  84   1
M  ISO  4  38 100  69 101  81 100  91 101
M  END
> <Batch ID>
0040

> <Smiles>
CNC(C)C(=O)NC(C(=O)N1Cc2cc([101O:1][101CH2:1]CCNCc3c(CN4CCCCCC4)cc(C[100NH:0][100C:0](=O)N4CCCC(n5nc(-c6ccc(Oc7ccc(F)cc7F)cc6)c(C(N)=O)c5N)C4)c(C)c3C)ccc2CC1C(=O)NC1CCCc2ccccc21)C(C)(C)C

> <Shape>
0.236

> <Color>
0.046

> <Negative vol penalty>
0.000

$$$$

  -OEChem-04042322063D

 87 96  0     1  0  0  0  0  0999 V2000
  -27.0228  -38.6161   23.6750 C   0  0  0  0  0  0  0  0  0  0  0  0
  -27.6904  -37.6786   22.8935 C   0  0  0  0  0  0  0  0  0  0  0  0
  -24.4742   -9.0545   21.5328 C   0  0  0  0  0  0  0  0  0  0  0  0
  -22.6118  -10.2292   20.5384 C   0  0  0  0  0  0  0  0  0  0  0  0
  -26.2686  -38.1984   24.7707 C   0  0  0  0  0  0  0  0  0  0  0  0
  -27.6050  -36.3228   23.2079 C   0  0  0  0  0  0  0  0  0  0  0  0
  -25.2650  -30.3063   18.8087 C   0  0  0  0  0  0  0  0  0  0  0  0
  -20.7497  -20.2644   17.9272 C   0  0  0  0  0  0  0  0  0  0  0  0
  -20.8632  -18.9273   17.5465 C   0  0  0  0  0  0  0  0  0  0  0  0
  -23.6933   -7.9033   21.6355 C   0  0  0  0  0  0  0  0  0  0  0  0
  -21.8309   -9.0779   20.6411 C   0  0  0  0  0  0  0  0  0  0  0  0
  -24.7239  -29.1845   18.1802 C   0  0  0  0  0  0  0  0  0  0  0  0
  -21.2738   -6.7088   23.6710 C   0  0  0  0  0  0  0  0  0  0  0  0
  -21.3185   -6.0012   24.8722 C   0  0  0  0  0  0  0  0  0  0  0  0
  -24.1774  -28.2286   20.3332 C   0  0  0  0  0  0  0  0  0  0  0  0
  -21.8982  -19.7732   19.9952 C   0  0  0  0  0  0  0  0  0  0  0  0
  -22.1235   -4.0517   23.6939 C   0  0  0  0  0  0  0  0  0  0  0  0
  -23.9334  -10.2175   20.9843 C   0  0  0  0  0  0  0  0  0  0  0  0
  -25.9432  -11.5576   20.1643 C   0  0  0  0  0  0  0  0  0  0  0  0
  -26.1660  -36.8359   25.0929 C   0  0  0  0  0  0  0  0  0  0  0  0
  -25.2505  -30.4004   20.2031 C   0  0  0  0  0  0  0  0  0  0  0  0
  -26.8498  -35.8865   24.3097 C   0  0  0  0  0  0  0  0  0  0  0  0
  -24.7067  -29.3554   20.9679 C   0  0  0  0  0  0  0  0  0  0  0  0
  -21.2673  -20.6874   19.1515 C   0  0  0  0  0  0  0  0  0  0  0  0
  -21.4942  -18.0131   18.3903 C   0  0  0  0  0  0  0  0  0  0  0  0
  -22.0117  -18.4361   19.6146 C   0  0  0  0  0  0  0  0  0  0  0  0
  -22.3717   -7.9150   21.1897 C   0  0  0  0  0  0  0  0  0  0  0  0
  -24.1816  -28.1482   18.9406 C   0  0  0  0  0  0  0  0  0  0  0  0
  -21.6537   -6.0878   22.4812 C   0  0  0  0  0  0  0  0  0  0  0  0
  -21.7434   -4.6727   24.8837 C   0  0  0  0  0  0  0  0  0  0  0  0
  -22.0786   -4.7592   22.4926 C   0  0  0  0  0  0  0  0  0  0  0  0
  -24.7394  -11.4071   20.8784 C   0  0  0  0  0  0  0  0  0  0  0  0
  -26.3085  -12.8642   20.3785 C   0  0  0  0  0  0  0  0  0  0  0  0
  -22.2804  -24.1516   20.2283 C   0  0  0  0  0  0  0  0  0  0  0  0
  -22.0852  -24.3401   21.5451 C   0  0  0  0  0  0  0  0  0  0  0  0
  -26.6665  -10.6018   19.3775 C   0  0  0  0  0  0  0  0  0  0  0  0
  -26.1105  -32.4277   23.2406 C   0  0  0  0  0  0  0  0  0  0  0  0
  -23.3551  -31.1803   23.7527 C   0  0  0  0  0  0  0  0  0  0  0  0
  -20.1681  -29.9637   23.7507 C   0  0  0  0  0  0  0  0  0  0  0  0
  -23.2196  -17.7972   21.7310 C   0  0  0  0  0  0  0  0  0  0  0  0
  -25.3774  -36.4363   26.3149 C   0  0  0  0  0  0  0  0  0  0  0  0
  -25.8777  -31.5622   20.9247 C   0  0  0  0  0  0  0  0  0  0  0  0
  -24.7440  -29.4843   22.4662 C   0  0  0  0  0  0  0  0  0  0  0  0
  -22.2961  -25.3075   19.2676 C   0  0  0  0  0  0  0  0  0  0  0  0
  -25.0331  -34.9497   26.3583 C   0  0  0  0  0  0  0  0  0  0  0  0
  -25.9030  -16.3862   23.5980 C   0  0  0  0  0  0  0  0  0  0  0  0
  -24.6803  -23.4373   18.7142 C   0  0  0  0  0  0  0  0  0  0  0  0
  -26.2597  -34.1076   26.0223 C   0  0  0  0  0  0  0  0  0  0  0  0
  -26.0227  -14.9649   23.0433 C   0  0  0  0  0  0  0  0  0  0  0  0
  -24.5840  -24.8692   18.1892 C   0  0  0  0  0  0  0  0  0  0  0  0
  -24.4480  -16.8461   23.6705 C   0  0  0  0  0  0  0  0  0  0  0  0
  -23.8133  -15.2980   21.8622 C   0  0  0  0  0  0  0  0  0  0  0  0
  -23.3722  -22.6629   18.5748 C   0  0  0  0  0  0  0  0  0  0  0  0
  -26.7612  -34.4047   24.6040 C   0  0  1  0  0  0  0  0  0  0  0  0
  -25.1283  -31.9485   22.2125 C   0  0  1  0  0  0  0  0  0  0  0  0
  -25.2649  -14.8149   21.7095 C   0  0  2  0  0  0  0  0  0  0  0  0
  -23.7189  -25.8149   19.0215 C   0  0  1  0  0  0  0  0  0  1  0  0
  -21.6006  -16.5869   17.9571 C   0  0  0  0  0  0  0  0  0  0  0  0
  -18.1033  -29.8472   25.1720 C   0  0  0  0  0  0  0  0  0  0  0  0
  -24.6699  -29.0379   25.4806 C   0  0  0  0  0  0  0  0  0  0  0  0
  -22.3831  -28.3122   26.1961 C   0  0  0  0  0  0  0  0  0  0  0  0
  -23.1817  -30.6152   26.7263 C   0  0  0  0  0  0  0  0  0  0  0  0
  -18.5610  -31.4239   21.7397 C   0  0  0  0  0  0  0  0  0  0  0  0
  -21.1449  -22.1258   19.5600 C   0  0  0  0  0  0  0  0  0  0  0  0
  -22.5764  -30.0315   24.3420 C   0  0  1  0  0  0  0  0  0  0  0  0
  -18.8399  -30.6173   24.0872 C   0  0  2  0  0  0  0  0  0  0  0  0
  -23.2098  -29.4998   25.6587 C   0  0  0  0  0  0  0  0  0  0  0  0
  -24.3650  -12.5285   21.5000 N   0  0  0  0  0  0  0  0  0  0  0  0
  -25.3392  -13.3961   21.1772 N   0  0  0  0  0  0  0  0  0  0  0  0
  -24.3851  -30.8552   22.8616 N   0  0  0  0  0  0  0  0  0  0  0  0
  -23.7952  -16.6788   22.3702 N   0  0  0  0  0  0  0  0  0  0  0  0
  -27.3611  -13.5985   19.9598 N   0  0  0  0  0  0  0  0  0  0  0  0
  -26.1503   -9.3039   19.2621 N   0  0  0  0  0  0  0  0  0  0  0  0
  -22.6566  -17.5228   20.4851 N   0  0  0  0  0  0  0  0  0  0  0  0
  -25.9273  -33.7426   23.6239 N   0  0  0  0  0  0  0  0  0  0  0  0
  -21.2028  -30.5011   24.4868 N   0  0  0  0  0  0  0  0  0  0  0  0
  -22.4800  -22.7917   19.7871 N   0  3  2  0  0  0  0  0  0  0  0  0
  -17.9700  -30.6749   22.8785 N   0  3  0  0  0  0  0  0  0  0  0  0
  -27.7473  -10.8856   18.8075 O   0  0  0  0  0  0  0  0  0  0  0  0
  -26.9710  -31.6612   23.6576 O   0  0  0  0  0  0  0  0  0  0  0  0
  -23.0640  -32.3352   24.0762 O   0  0  0  0  0  0  0  0  0  0  0  0
  -20.2763  -29.0637   22.9208 O   0  0  0  0  0  0  0  0  0  0  0  0
  -23.2497  -18.9213   22.2384 O   0  0  0  0  0  0  0  0  0  0  0  0
  -21.6095   -6.7918   21.2895 O   0  0  0  0  0  0  0  0  0  0  0  0
  -23.6509  -27.0580   18.3204 O   0  0  0  0  0  0  0  0  0  1  0  0
  -21.7879   -3.9938   26.0375 F   0  0  0  0  0  0  0  0  0  0  0  0
  -22.4461   -4.1577   21.3529 F   0  0  0  0  0  0  0  0  0  0  0  0
  1  2  1  0  0  0  0
  1  5  2  0  0  0  0
  2  6  2  0  0  0  0
  3 10  2  0  0  0  0
  3 18  1  0  0  0  0
  4 11  1  0  0  0  0
  4 18  2  0  0  0  0
  5 20  1  0  0  0  0
  6 22  1  0  0  0  0
  7 12  2  0  0  0  0
  7 21  1  0  0  0  0
  8  9  2  0  0  0  0
  8 24  1  0  0  0  0
  9 25  1  0  0  0  0
 10 27  1  0  0  0  0
 11 27  2  0  0  0  0
 12 28  1  0  0  0  0
 13 14  2  0  0  0  0
 13 29  1  0  0  0  0
 14 30  1  0  0  0  0
 15 23  1  0  0  0  0
 15 28  2  0  0  0  0
 16 24  2  0  0  0  0
 16 26  1  0  0  0  0
 17 30  2  0  0  0  0
 17 31  1  0  0  0  0
 18 32  1  0  0  0  0
 19 32  1  0  0  0  0
 19 33  2  0  0  0  0
 19 36  1  0  0  0  0
 20 22  2  0  0  0  0
 20 41  1  0  0  0  0
 21 23  2  0  0  0  0
 21 42  1  0  0  0  0
 22 54  1  0  0  0  0
 23 43  1  0  0  0  0
 24 64  1  0  0  0  0
 25 26  2  0  0  0  0
 25 58  1  0  0  0  0
 26 74  1  0  0  0  0
 27 84  1  0  0  0  0
 28 85  1  0  0  0  0
 29 31  2  0  0  0  0
 29 84  1  0  0  0  0
 30 86  1  0  0  0  0
 31 87  1  0  0  0  0
 32 68  2  0  0  0  0
 33 69  1  0  0  0  0
 33 72  1  0  0  0  0
 34 35  2  0  0  0  0
 34 44  1  0  0  0  0
 34 77  1  0  0  0  0
 36 73  1  0  0  0  0
 36 79  2  0  0  0  0
 37 55  1  0  0  0  0
 37 75  1  0  0  0  0
 37 80  2  0  0  0  0
 38 65  1  0  0  0  0
 38 70  1  0  0  0  0
 38 81  2  0  0  0  0
 39 66  1  0  0  0  0
 39 76  1  0  0  0  0
 39 82  2  0  0  0  0
 40 71  1  0  0  0  0
 40 74  1  0  0  0  0
 40 83  2  0  0  0  0
 41 45  1  0  0  0  0
 42 55  1  0  0  0  0
 43 70  1  0  0  0  0
 44 57  1  0  0  0  0
 45 48  1  0  0  0  0
 46 49  1  0  0  0  0
 46 51  1  0  0  0  0
 47 50  1  0  0  0  0
 47 53  1  0  0  0  0
 48 54  1  0  0  0  0
 49 56  1  0  0  0  0
 50 57  1  0  0  0  0
 51 71  1  0  0  0  0
 52 56  1  0  0  0  0
 52 71  1  0  0  0  0
 53 77  1  0  0  0  0
 54 75  1  0  0  0  0
 55 70  1  0  0  0  0
 56 69  1  0  0  0  0
 57 85  1  0  0  0  0
 59 66  1  0  0  0  0
 60 67  1  0  0  0  0
 61 67  1  0  0  0  0
 62 67  1  0  0  0  0
 63 78  1  0  0  0  0
 64 77  1  0  0  0  0
 65 67  1  0  0  0  0
 65 76  1  0  0  0  0
 66 78  1  0  0  0  0
 68 69  1  0  0  0  0
M  CHG  2  77   1  78   1
M  ISO  4  40 100  57 101  74 100  85 101
M  END
> <Batch ID>
0040

> <Smiles>
C=C1C[101CH:1]([101O:1]c2ccc3c(c2)CN(C(=O)C(NC(=O)C(C)NC)C(C)(C)C)C(C(=O)NC2CCCc4ccccc42)C3)CCCN1Cc1ccc(C)c([100NH:0][100C:0](=O)N2CCCC(n3nc(-c4ccc(Oc5ccc(F)cc5F)cc4)c(C(N)=O)c3N)C2)c1

> <Shape>
0.265

> <Color>
0.112

> <Negative vol penalty>
0.000

$$$$

  -OEChem-04042322063D

 86 94  0     1  0  0  0  0  0999 V2000
  -22.0105  -23.5584   13.4263 C   0  0  0  0  0  0  0  0  0  0  0  0
  -22.0666  -24.6577   14.2770 C   0  0  0  0  0  0  0  0  0  0  0  0
  -22.6000  -14.2046   22.3289 C   0  0  0  0  0  0  0  0  0  0  0  0
  -23.4278  -15.0408   20.2188 C   0  0  0  0  0  0  0  0  0  0  0  0
  -22.4918  -22.3218   13.8544 C   0  0  0  0  0  0  0  0  0  0  0  0
  -22.6030  -24.5209   15.5568 C   0  0  0  0  0  0  0  0  0  0  0  0
  -25.8255  -28.7002   18.6641 C   0  0  0  0  0  0  0  0  0  0  0  0
  -22.3524  -12.9645   21.7403 C   0  0  0  0  0  0  0  0  0  0  0  0
  -23.1803  -13.8007   19.6302 C   0  0  0  0  0  0  0  0  0  0  0  0
  -25.4693  -29.6095   19.6591 C   0  0  0  0  0  0  0  0  0  0  0  0
  -24.1324  -10.2332   20.8433 C   0  0  0  0  0  0  0  0  0  0  0  0
  -24.5256   -9.0930   21.5439 C   0  0  0  0  0  0  0  0  0  0  0  0
  -26.2132  -28.0499   21.3423 C   0  0  0  0  0  0  0  0  0  0  0  0
  -18.0243  -27.6472   21.9361 C   0  0  0  0  0  0  0  0  0  0  0  0
  -22.2346   -8.3271   21.5835 C   0  0  0  0  0  0  0  0  0  0  0  0
  -23.1376  -15.2428   21.5681 C   0  0  0  0  0  0  0  0  0  0  0  0
  -24.5789  -16.9444   22.8070 C   0  0  0  0  0  0  0  0  0  0  0  0
  -23.0432  -22.1720   15.1367 C   0  0  0  0  0  0  0  0  0  0  0  0
  -26.3690  -27.4524   19.0017 C   0  0  0  0  0  0  0  0  0  0  0  0
  -23.0909  -23.2809   16.0030 C   0  0  0  0  0  0  0  0  0  0  0  0
  -26.5778  -27.1275   20.3496 C   0  0  0  0  0  0  0  0  0  0  0  0
  -18.2788  -26.4630   21.2444 C   0  0  0  0  0  0  0  0  0  0  0  0
  -19.0316  -28.2410   22.6966 C   0  0  0  0  0  0  0  0  0  0  0  0
  -20.5480  -26.4663   22.0737 C   0  0  0  0  0  0  0  0  0  0  0  0
  -19.5406  -25.8725   21.3132 C   0  0  0  0  0  0  0  0  0  0  0  0
  -20.2935  -27.6506   22.7654 C   0  0  0  0  0  0  0  0  0  0  0  0
  -22.6426  -12.7625   20.3910 C   0  0  0  0  0  0  0  0  0  0  0  0
  -25.6605  -29.2833   20.9985 C   0  0  0  0  0  0  0  0  0  0  0  0
  -22.7902  -10.4204   20.5128 C   0  0  0  0  0  0  0  0  0  0  0  0
  -23.5768   -8.1400   21.9140 C   0  0  0  0  0  0  0  0  0  0  0  0
  -21.8413   -9.4673   20.8828 C   0  0  0  0  0  0  0  0  0  0  0  0
  -23.3930  -16.5243   22.1754 C   0  0  0  0  0  0  0  0  0  0  0  0
  -24.3153  -18.2301   23.2121 C   0  0  0  0  0  0  0  0  0  0  0  0
  -25.8089  -16.2360   23.0093 C   0  0  0  0  0  0  0  0  0  0  0  0
  -25.4827  -24.4299   18.5743 C   0  0  0  0  0  0  0  0  0  0  0  0
  -28.4003  -23.8029   19.8459 C   0  0  0  0  0  0  0  0  0  0  0  0
  -30.9984  -24.8534   21.7935 C   0  0  0  0  0  0  0  0  0  0  0  0
  -20.5887  -22.3180   21.1489 C   0  0  0  0  0  0  0  0  0  0  0  0
  -23.5074  -20.8047   15.5720 C   0  0  0  0  0  0  0  0  0  0  0  0
  -26.7728  -26.4933   17.9156 C   0  0  0  0  0  0  0  0  0  0  0  0
  -27.1766  -25.8091   20.7640 C   0  0  0  0  0  0  0  0  0  0  0  0
  -24.4033  -20.8304   16.8078 C   0  0  0  0  0  0  0  0  0  0  0  0
  -20.6999  -21.0696   24.5440 C   0  0  0  0  0  0  0  0  0  0  0  0
  -23.8036  -21.7308   17.8832 C   0  0  0  0  0  0  0  0  0  0  0  0
  -21.5243  -19.7925   24.3716 C   0  0  0  0  0  0  0  0  0  0  0  0
  -19.7694  -21.2916   23.3553 C   0  0  0  0  0  0  0  0  0  0  0  0
  -21.2801  -20.0462   21.8584 C   0  0  0  0  0  0  0  0  0  0  0  0
  -23.6882  -23.1781   17.3896 C   0  0  1  0  0  0  0  0  0  0  0  0
  -26.8411  -25.0456   18.3919 C   0  0  1  0  0  0  0  0  0  0  0  0
  -22.2574  -19.7774   23.0172 C   0  0  2  0  0  0  0  0  0  0  0  0
  -17.1828  -25.8472   20.4376 C   0  0  0  0  0  0  0  0  0  0  0  0
  -18.7330  -29.5094   23.4272 C   0  0  0  0  0  0  0  0  0  0  0  0
  -21.9017  -25.8328   22.1474 C   0  0  0  0  0  0  0  0  0  0  0  0
  -33.2253  -24.1069   22.6772 C   0  0  0  0  0  0  0  0  0  0  0  0
  -26.9919  -22.0150   21.8780 C   0  0  0  0  0  0  0  0  0  0  0  0
  -29.0747  -22.0706   23.2663 C   0  0  0  0  0  0  0  0  0  0  0  0
  -29.1307  -21.0847   20.9755 C   0  0  0  0  0  0  0  0  0  0  0  0
  -32.4115  -27.0690   20.4322 C   0  0  0  0  0  0  0  0  0  0  0  0
  -19.8107  -24.6022   20.5707 C   0  0  0  0  0  0  0  0  0  0  0  0
  -21.3757  -28.2919   23.5829 C   0  0  0  0  0  0  0  0  0  0  0  0
  -23.5307  -31.4025   22.9983 C   0  0  0  0  0  0  0  0  0  0  0  0
  -22.9860  -30.1944   23.7454 C   0  0  0  0  0  0  0  0  0  0  0  0
  -24.2276  -31.0511   21.6897 C   0  0  0  0  0  0  0  0  0  1  0  0
  -28.9352  -23.5913   21.2416 C   0  0  1  0  0  0  0  0  0  0  0  0
  -32.4987  -24.8433   21.5625 C   0  0  2  0  0  0  0  0  0  0  0  0
  -28.5200  -22.2145   21.8330 C   0  0  0  0  0  0  0  0  0  0  0  0
  -22.4463  -17.4665   22.1768 N   0  0  0  0  0  0  0  0  0  0  0  0
  -23.0371  -18.4915   22.8143 N   0  0  0  0  0  0  0  0  0  0  0  0
  -27.5493  -24.9025   19.6656 N   0  0  0  0  0  0  0  0  0  0  0  0
  -20.5320  -21.2847   22.0989 N   0  0  0  0  0  0  0  0  0  0  0  0
  -25.0543  -19.1511   23.8663 N   0  0  0  0  0  0  0  0  0  0  0  0
  -25.9104  -14.9230   22.5297 N   0  0  0  0  0  0  0  0  0  0  0  0
  -24.9784  -23.8320   17.4352 N   0  0  0  0  0  0  0  0  0  0  0  0
  -30.3773  -23.7968   21.1617 N   0  0  0  0  0  0  0  0  0  0  0  0
  -19.8466  -23.4538   21.4488 N   0  0  0  0  0  0  0  0  0  0  0  0
  -33.0226  -26.2371   21.5007 N   0  3  0  0  0  0  0  0  0  0  0  0
  -21.9578  -29.4999   22.9353 N   0  3  0  0  0  0  0  0  0  0  0  0
  -26.7832  -16.7463   23.6125 O   0  0  0  0  0  0  0  0  0  0  0  0
  -24.9335  -24.4913   19.6681 O   0  0  0  0  0  0  0  0  0  0  0  0
  -28.7313  -23.0255   18.9471 O   0  0  0  0  0  0  0  0  0  0  0  0
  -30.4343  -25.7105   22.4701 O   0  0  0  0  0  0  0  0  0  0  0  0
  -21.2559  -22.2367   20.1120 O   0  0  0  0  0  0  0  0  0  0  0  0
  -22.4014  -11.5525   19.8164 O   0  0  0  0  0  0  0  0  0  0  0  0
  -25.3131  -30.1688   21.9717 O   0  0  0  0  0  0  0  0  0  1  0  0
  -23.9548   -7.0444   22.5855 F   0  0  0  0  0  0  0  0  0  0  0  0
  -20.5506   -9.6410   20.5671 F   0  0  0  0  0  0  0  0  0  0  0  0
  1  2  1  0  0  0  0
  1  5  2  0  0  0  0
  2  6  2  0  0  0  0
  3  8  2  0  0  0  0
  3 16  1  0  0  0  0
  4  9  1  0  0  0  0
  4 16  2  0  0  0  0
  5 18  1  0  0  0  0
  6 20  1  0  0  0  0
  7 10  2  0  0  0  0
  7 19  1  0  0  0  0
  8 27  1  0  0  0  0
  9 27  2  0  0  0  0
 10 28  1  0  0  0  0
 11 12  2  0  0  0  0
 11 29  1  0  0  0  0
 12 30  1  0  0  0  0
 13 21  1  0  0  0  0
 13 28  2  0  0  0  0
 14 22  1  0  0  0  0
 14 23  2  0  0  0  0
 15 30  2  0  0  0  0
 15 31  1  0  0  0  0
 16 32  1  0  0  0  0
 17 32  1  0  0  0  0
 17 33  2  0  0  0  0
 17 34  1  0  0  0  0
 18 20  2  0  0  0  0
 18 39  1  0  0  0  0
 19 21  2  0  0  0  0
 19 40  1  0  0  0  0
 20 48  1  0  0  0  0
 21 41  1  0  0  0  0
 22 25  2  0  0  0  0
 22 51  1  0  0  0  0
 23 26  1  0  0  0  0
 23 52  1  0  0  0  0
 24 25  1  0  0  0  0
 24 26  2  0  0  0  0
 24 53  1  0  0  0  0
 25 59  1  0  0  0  0
 26 60  1  0  0  0  0
 27 83  1  0  0  0  0
 28 84  1  0  0  0  0
 29 31  2  0  0  0  0
 29 83  1  0  0  0  0
 30 85  1  0  0  0  0
 31 86  1  0  0  0  0
 32 67  2  0  0  0  0
 33 68  1  0  0  0  0
 33 71  1  0  0  0  0
 34 72  1  0  0  0  0
 34 78  2  0  0  0  0
 35 49  1  0  0  0  0
 35 73  1  0  0  0  0
 35 79  2  0  0  0  0
 36 64  1  0  0  0  0
 36 69  1  0  0  0  0
 36 80  2  0  0  0  0
 37 65  1  0  0  0  0
 37 74  1  0  0  0  0
 37 81  2  0  0  0  0
 38 70  1  0  0  0  0
 38 75  1  0  0  0  0
 38 82  2  0  0  0  0
 39 42  1  0  0  0  0
 40 49  1  0  0  0  0
 41 69  1  0  0  0  0
 42 44  1  0  0  0  0
 43 45  1  0  0  0  0
 43 46  1  0  0  0  0
 44 48  1  0  0  0  0
 45 50  1  0  0  0  0
 46 70  1  0  0  0  0
 47 50  1  0  0  0  0
 47 70  1  0  0  0  0
 48 73  1  0  0  0  0
 49 69  1  0  0  0  0
 50 68  1  0  0  0  0
 54 65  1  0  0  0  0
 55 66  1  0  0  0  0
 56 66  1  0  0  0  0
 57 66  1  0  0  0  0
 58 76  1  0  0  0  0
 59 75  1  0  0  0  0
 60 77  1  0  0  0  0
 61 62  1  0  0  0  0
 61 63  1  0  0  0  0
 62 77  1  0  0  0  0
 63 84  1  0  0  0  0
 64 66  1  0  0  0  0
 64 74  1  0  0  0  0
 65 76  1  0  0  0  0
 67 68  1  0  0  0  0
M  CHG  2  76   1  77   1
M  ISO  4  38 100  63 101  75 100  84 101
M  END
> <Batch ID>
0040

> <Smiles>
CNC(C)C(=O)NC(C(=O)N1Cc2cc([101O:1][101CH2:1]CCNCc3c(C)cc(C)c(C[100NH:0][100C:0](=O)N4CCCC(n5nc(-c6ccc(Oc7ccc(F)cc7F)cc6)c(C(N)=O)c5N)C4)c3C)ccc2CC1C(=O)NC1CCCc2ccccc21)C(C)(C)C

> <Shape>
0.208

> <Color>
0.076

> <Negative vol penalty>
0.000

$$$$

  -OEChem-04042322063D

 93102  0     1  0  0  0  0  0999 V2000
  -36.0805  -16.8700   23.5682 C   0  0  0  0  0  0  0  0  0  0  0  0
  -35.2548  -17.9869   23.4903 C   0  0  0  0  0  0  0  0  0  0  0  0
  -20.5953  -23.8751   16.5623 C   0  0  0  0  0  0  0  0  0  0  0  0
  -18.2529  -24.0000   17.1407 C   0  0  0  0  0  0  0  0  0  0  0  0
  -35.8428  -15.7699   22.7453 C   0  0  0  0  0  0  0  0  0  0  0  0
  -34.1914  -18.0047   22.5885 C   0  0  0  0  0  0  0  0  0  0  0  0
  -28.7341  -20.6677   23.3841 C   0  0  0  0  0  0  0  0  0  0  0  0
  -24.1344  -31.3407   20.9403 C   0  0  0  0  0  0  0  0  0  0  0  0
  -20.2587  -23.8270   15.2095 C   0  0  0  0  0  0  0  0  0  0  0  0
  -17.9163  -23.9519   15.7880 C   0  0  0  0  0  0  0  0  0  0  0  0
  -28.2155  -21.8895   22.9575 C   0  0  0  0  0  0  0  0  0  0  0  0
  -17.8416  -26.0806   13.1643 C   0  0  0  0  0  0  0  0  0  0  0  0
  -16.8756  -26.9764   12.7062 C   0  0  0  0  0  0  0  0  0  0  0  0
  -25.2376  -31.2973   20.0879 C   0  0  0  0  0  0  0  0  0  0  0  0
  -27.2003  -20.7911   21.0649 C   0  0  0  0  0  0  0  0  0  0  0  0
  -15.4875  -25.1246   12.0124 C   0  0  0  0  0  0  0  0  0  0  0  0
  -19.5924  -23.9616   17.5279 C   0  0  0  0  0  0  0  0  0  0  0  0
  -20.6473  -23.0407   19.6603 C   0  0  0  0  0  0  0  0  0  0  0  0
  -34.7701  -15.7704   21.8398 C   0  0  0  0  0  0  0  0  0  0  0  0
  -28.4984  -19.4982   22.6470 C   0  0  0  0  0  0  0  0  0  0  0  0
  -33.9398  -16.9042   21.7517 C   0  0  0  0  0  0  0  0  0  0  0  0
  -27.7149  -19.5552   21.4856 C   0  0  0  0  0  0  0  0  0  0  0  0
  -23.8192  -30.2349   21.7299 C   0  0  0  0  0  0  0  0  0  0  0  0
  -24.6072  -29.0857   21.6671 C   0  0  0  0  0  0  0  0  0  0  0  0
  -25.7105  -29.0423   20.8147 C   0  0  0  0  0  0  0  0  0  0  0  0
  -18.9193  -23.8654   14.8224 C   0  0  0  0  0  0  0  0  0  0  0  0
  -27.4509  -21.9519   21.7962 C   0  0  0  0  0  0  0  0  0  0  0  0
  -17.6307  -24.7068   13.0464 C   0  0  0  0  0  0  0  0  0  0  0  0
  -15.6985  -26.4984   12.1303 C   0  0  0  0  0  0  0  0  0  0  0  0
  -16.4536  -24.2288   12.4705 C   0  0  0  0  0  0  0  0  0  0  0  0
  -26.0257  -30.1481   20.0251 C   0  0  0  0  0  0  0  0  0  0  0  0
  -19.9395  -24.0107   18.9255 C   0  0  0  0  0  0  0  0  0  0  0  0
  -20.7154  -23.5553   20.9319 C   0  0  0  0  0  0  0  0  0  0  0  0
  -26.7491  -25.6149   19.7010 C   0  0  0  0  0  0  0  0  0  0  0  0
  -32.6588  -27.0053   19.1009 C   0  0  0  0  0  0  0  0  0  0  0  0
  -28.0705  -25.3829   19.6208 C   0  0  0  0  0  0  0  0  0  0  0  0
  -31.3434  -27.2358   19.1808 C   0  0  0  0  0  0  0  0  0  0  0  0
  -29.0453  -26.4297   19.4407 C   0  0  0  0  0  0  0  0  0  0  0  0
  -30.3629  -26.1898   19.3615 C   0  0  0  0  0  0  0  0  0  0  0  0
  -21.1944  -21.7867   19.2317 C   0  0  0  0  0  0  0  0  0  0  0  0
  -30.3345  -17.4037   21.1155 C   0  0  0  0  0  0  0  0  0  0  0  0
  -27.5350  -15.8063   20.7498 C   0  0  0  0  0  0  0  0  0  0  0  0
  -24.1268  -15.9254   20.6212 C   0  0  0  0  0  0  0  0  0  0  0  0
  -20.4939  -29.1364   23.0892 C   0  0  0  0  0  0  0  0  0  0  0  0
  -34.5812  -14.5768   20.9374 C   0  0  0  0  0  0  0  0  0  0  0  0
  -29.0425  -18.1836   23.1350 C   0  0  0  0  0  0  0  0  0  0  0  0
  -27.4158  -18.3252   20.6696 C   0  0  0  0  0  0  0  0  0  0  0  0
  -33.2075  -14.5264   20.2735 C   0  0  0  0  0  0  0  0  0  0  0  0
  -18.3494  -26.4250   23.9416 C   0  0  0  0  0  0  0  0  0  0  0  0
  -24.5592  -25.9581   18.0594 C   0  0  0  0  0  0  0  0  0  0  0  0
  -32.8420  -15.8913   19.6988 C   0  0  0  0  0  0  0  0  0  0  0  0
  -24.7604  -24.5607   18.6565 C   0  0  0  0  0  0  0  0  0  0  0  0
  -18.5777  -25.4113   22.8190 C   0  0  0  0  0  0  0  0  0  0  0  0
  -18.3968  -27.8608   23.4237 C   0  0  0  0  0  0  0  0  0  0  0  0
  -19.8421  -27.1921   21.5428 C   0  0  0  0  0  0  0  0  0  0  0  0
  -24.8669  -27.0614   19.0614 C   0  0  0  0  0  0  0  0  0  0  0  0
  -32.7612  -16.9516   20.8037 C   0  0  1  0  0  0  0  0  0  0  0  0
  -25.6820  -24.5564   19.8895 C   0  0  1  0  0  0  0  0  0  0  0  0
  -29.1698  -17.1417   22.0280 C   0  0  1  0  0  0  0  0  0  0  0  0
  -19.8590  -25.7317   22.0260 C   0  0  2  0  0  0  0  0  0  0  0  0
  -24.2660  -27.9016   22.5159 C   0  0  0  0  0  0  0  0  0  0  0  0
  -22.1165  -14.4648   20.2708 C   0  0  0  0  0  0  0  0  0  0  0  0
  -28.1092  -15.7389   17.7539 C   0  0  0  0  0  0  0  0  0  0  0  0
  -25.7048  -15.1516   17.3770 C   0  0  0  0  0  0  0  0  0  0  0  0
  -27.1720  -13.6152   18.6845 C   0  0  0  0  0  0  0  0  0  0  0  0
  -23.0645  -16.5429   23.3136 C   0  0  0  0  0  0  0  0  0  0  0  0
  -22.6333  -30.3092   22.6350 C   0  0  0  0  0  0  0  0  0  0  0  0
  -26.5493  -27.7997   20.7567 C   0  0  0  0  0  0  0  0  0  0  0  0
  -26.1696  -23.1342   20.1788 C   0  0  0  0  0  0  0  0  0  1  0  0
  -26.4338  -15.8016   19.7173 C   0  0  1  0  0  0  0  0  0  0  0  0
  -23.0631  -15.0754   21.2924 C   0  0  2  0  0  0  0  0  0  0  0  0
  -26.8620  -15.1005   18.3972 C   0  0  0  0  0  0  0  0  0  0  0  0
  -19.5832  -25.0619   19.6685 N   0  0  0  0  0  0  0  0  0  0  0  0
  -20.0691  -24.7554   20.8835 N   0  0  0  0  0  0  0  0  0  0  0  0
  -27.9754  -17.0645   21.1844 N   0  0  0  0  0  0  0  0  0  0  0  0
  -19.6375  -28.1000   22.6824 N   0  0  0  0  0  0  0  0  0  0  0  0
  -21.2643  -23.0938   22.0756 N   0  0  0  0  0  0  0  0  0  0  0  0
  -20.3888  -20.6428   19.3150 N   0  0  0  0  0  0  0  0  0  0  0  0
  -31.5182  -16.8266   21.5342 N   0  0  0  0  0  0  0  0  0  0  0  0
  -25.2714  -15.2012   20.3629 N   0  0  0  0  0  0  0  0  0  0  0  0
  -21.6513  -29.2909   22.3361 N   0  0  0  0  0  0  0  0  0  0  0  0
  -26.3158  -26.9876   19.5095 N   0  3  1  0  0  0  0  0  0  0  0  0
  -22.2626  -15.9008   22.2405 N   0  3  0  0  0  0  0  0  0  0  0  0
  -22.3686  -21.6807   18.8033 O   0  0  0  0  0  0  0  0  0  0  0  0
  -30.1709  -18.0782   20.1055 O   0  0  0  0  0  0  0  0  0  0  0  0
  -27.9829  -14.7330   21.1611 O   0  0  0  0  0  0  0  0  0  0  0  0
  -23.9577  -17.1120   20.3495 O   0  0  0  0  0  0  0  0  0  0  0  0
  -20.2480  -29.8662   24.0556 O   0  0  0  0  0  0  0  0  0  0  0  0
  -18.5904  -23.8187   13.5024 O   0  0  0  0  0  0  0  0  0  0  0  0
  -26.9441  -23.1433   21.3773 O   0  0  0  0  0  0  0  0  0  1  0  0
  -14.7702  -27.3587   11.6918 F   0  0  0  0  0  0  0  0  0  0  0  0
  -16.2448  -22.9101   12.3556 F   0  0  0  0  0  0  0  0  0  0  0  0
  -27.3824  -30.1345   18.9574 Cl  0  0  0  0  0  0  0  0  0  0  0  0
  1  2  1  0  0  0  0
  1  5  2  0  0  0  0
  2  6  2  0  0  0  0
  3  9  2  0  0  0  0
  3 17  1  0  0  0  0
  4 10  1  0  0  0  0
  4 17  2  0  0  0  0
  5 19  1  0  0  0  0
  6 21  1  0  0  0  0
  7 11  2  0  0  0  0
  7 20  1  0  0  0  0
  8 14  1  0  0  0  0
  8 23  2  0  0  0  0
  9 26  1  0  0  0  0
 10 26  2  0  0  0  0
 11 27  1  0  0  0  0
 12 13  2  0  0  0  0
 12 28  1  0  0  0  0
 13 29  1  0  0  0  0
 14 31  2  0  0  0  0
 15 22  1  0  0  0  0
 15 27  2  0  0  0  0
 16 29  2  0  0  0  0
 16 30  1  0  0  0  0
 17 32  1  0  0  0  0
 18 32  1  0  0  0  0
 18 33  2  0  0  0  0
 18 40  1  0  0  0  0
 19 21  2  0  0  0  0
 19 45  1  0  0  0  0
 20 22  2  0  0  0  0
 20 46  1  0  0  0  0
 21 57  1  0  0  0  0
 22 47  1  0  0  0  0
 23 24  1  0  0  0  0
 23 67  1  0  0  0  0
 24 25  2  0  0  0  0
 24 61  1  0  0  0  0
 25 31  1  0  0  0  0
 25 68  1  0  0  0  0
 26 89  1  0  0  0  0
 27 90  1  0  0  0  0
 28 30  2  0  0  0  0
 28 89  1  0  0  0  0
 29 91  1  0  0  0  0
 30 92  1  0  0  0  0
 31 93  1  0  0  0  0
 32 73  2  0  0  0  0
 33 74  1  0  0  0  0
 33 77  1  0  0  0  0
 34 36  2  0  0  0  0
 34 58  1  0  0  0  0
 34 82  1  0  0  0  0
 35 37  2  0  0  0  0
 36 38  1  0  0  0  0
 37 39  1  0  0  0  0
 38 39  2  0  0  0  0
 40 78  1  0  0  0  0
 40 84  2  0  0  0  0
 41 59  1  0  0  0  0
 41 79  1  0  0  0  0
 41 85  2  0  0  0  0
 42 70  1  0  0  0  0
 42 75  1  0  0  0  0
 42 86  2  0  0  0  0
 43 71  1  0  0  0  0
 43 80  1  0  0  0  0
 43 87  2  0  0  0  0
 44 76  1  0  0  0  0
 44 81  1  0  0  0  0
 44 88  2  0  0  0  0
 45 48  1  0  0  0  0
 46 59  1  0  0  0  0
 47 75  1  0  0  0  0
 48 51  1  0  0  0  0
 49 53  1  0  0  0  0
 49 54  1  0  0  0  0
 50 52  1  0  0  0  0
 50 56  1  0  0  0  0
 51 57  1  0  0  0  0
 52 58  1  0  0  0  0
 53 60  1  0  0  0  0
 54 76  1  0  0  0  0
 55 60  1  0  0  0  0
 55 76  1  0  0  0  0
 56 82  1  0  0  0  0
 57 79  1  0  0  0  0
 58 69  1  0  0  0  0
 59 75  1  0  0  0  0
 60 74  1  0  0  0  0
 62 71  1  0  0  0  0
 63 72  1  0  0  0  0
 64 72  1  0  0  0  0
 65 72  1  0  0  0  0
 66 83  1  0  0  0  0
 67 81  1  0  0  0  0
 68 82  1  0  0  0  0
 69 90  1  0  0  0  0
 70 72  1  0  0  0  0
 70 80  1  0  0  0  0
 71 83  1  0  0  0  0
 73 74  1  0  0  0  0
M  CHG  2  82   1  83   1
M  ISO  4  44 100  69 101  81 100  90 101
M  END
> <Batch ID>
0040

> <Smiles>
C=CC=CC=C1C([101CH2:1][101O:1]c2ccc3c(c2)CN(C(=O)C(NC(=O)C(C)NC)C(C)(C)C)C(C(=O)NC2CCCc4ccccc42)C3)CCCN1Cc1c(Cl)ccc(C[100NH:0][100C:0](=O)N2CCCC(n3nc(-c4ccc(Oc5ccc(F)cc5F)cc4)c(C(N)=O)c3N)C2)c1C

> <Shape>
0.199

> <Color>
0.077

> <Negative vol penalty>
0.000

$$$$

  -OEChem-04042322063D

 83 91  0     1  0  0  0  0  0999 V2000
  -19.8709  -23.6681   23.2149 C   0  0  0  0  0  0  0  0  0  0  0  0
  -21.0245  -23.9592   22.4939 C   0  0  0  0  0  0  0  0  0  0  0  0
  -23.3372  -14.2467   25.4915 C   0  0  0  0  0  0  0  0  0  0  0  0
  -22.0552  -16.2247   24.9613 C   0  0  0  0  0  0  0  0  0  0  0  0
  -18.9733  -24.6865   23.5329 C   0  0  0  0  0  0  0  0  0  0  0  0
  -21.2806  -25.2689   22.0895 C   0  0  0  0  0  0  0  0  0  0  0  0
  -26.0842  -26.6496   22.9046 C   0  0  0  0  0  0  0  0  0  0  0  0
  -22.5124  -14.0067   26.5905 C   0  0  0  0  0  0  0  0  0  0  0  0
  -21.2304  -15.9847   26.0603 C   0  0  0  0  0  0  0  0  0  0  0  0
  -27.0408  -26.1908   22.0000 C   0  0  0  0  0  0  0  0  0  0  0  0
  -18.6336  -13.9634   26.8293 C   0  0  0  0  0  0  0  0  0  0  0  0
  -17.2568  -14.0880   26.6439 C   0  0  0  0  0  0  0  0  0  0  0  0
  -27.0036  -28.3298   20.8853 C   0  0  0  0  0  0  0  0  0  0  0  0
  -26.8290  -22.3003   15.9733 C   0  0  0  0  0  0  0  0  0  0  0  0
  -27.9496  -21.7210   18.0338 C   0  0  0  0  0  0  0  0  0  0  0  0
  -17.1863  -15.8180   28.3289 C   0  0  0  0  0  0  0  0  0  0  0  0
  -23.1086  -15.3557   24.6769 C   0  0  0  0  0  0  0  0  0  0  0  0
  -23.7821  -15.1364   22.2262 C   0  0  0  0  0  0  0  0  0  0  0  0
  -19.2234  -26.0109   23.1406 C   0  0  0  0  0  0  0  0  0  0  0  0
  -25.5712  -27.9504   22.7995 C   0  0  0  0  0  0  0  0  0  0  0  0
  -20.3849  -26.3058   22.4014 C   0  0  0  0  0  0  0  0  0  0  0  0
  -26.0425  -28.8035   21.7913 C   0  0  0  0  0  0  0  0  0  0  0  0
  -27.7686  -22.5944   16.9614 C   0  0  0  0  0  0  0  0  0  0  0  0
  -26.0703  -21.1328   16.0577 C   0  0  0  0  0  0  0  0  0  0  0  0
  -26.2514  -20.2594   17.1301 C   0  0  0  0  0  0  0  0  0  0  0  0
  -27.1910  -20.5535   18.1182 C   0  0  0  0  0  0  0  0  0  0  0  0
  -21.4590  -14.8757   26.8749 C   0  0  0  0  0  0  0  0  0  0  0  0
  -27.4985  -27.0300   20.9884 C   0  0  0  0  0  0  0  0  0  0  0  0
  -19.2868  -14.7661   27.7647 C   0  0  0  0  0  0  0  0  0  0  0  0
  -16.5331  -15.0153   27.3936 C   0  0  0  0  0  0  0  0  0  0  0  0
  -18.5632  -15.6934   28.5144 C   0  0  0  0  0  0  0  0  0  0  0  0
  -23.9605  -15.6045   23.5419 C   0  0  0  0  0  0  0  0  0  0  0  0
  -24.8527  -15.6454   21.5325 C   0  0  0  0  0  0  0  0  0  0  0  0
  -22.7416  -14.3151   21.6800 C   0  0  0  0  0  0  0  0  0  0  0  0
  -22.6905  -29.1908   22.2835 C   0  0  0  0  0  0  0  0  0  0  0  0
  -24.2211  -31.9916   22.8622 C   0  0  0  0  0  0  0  0  0  0  0  0
  -27.1546  -33.7351   22.9048 C   0  0  0  0  0  0  0  0  0  0  0  0
  -28.2893  -19.8406   20.2703 C   0  0  0  0  0  0  0  0  0  0  0  0
  -18.2004  -27.0701   23.4667 C   0  0  0  0  0  0  0  0  0  0  0  0
  -24.5594  -28.4391   23.7994 C   0  0  0  0  0  0  0  0  0  0  0  0
  -25.5386  -30.2155   21.6476 C   0  0  0  0  0  0  0  0  0  0  0  0
  -18.7316  -28.4942   23.3246 C   0  0  0  0  0  0  0  0  0  0  0  0
  -29.0565  -17.9348   23.1783 C   0  0  0  0  0  0  0  0  0  0  0  0
  -19.4940  -28.6512   22.0128 C   0  0  0  0  0  0  0  0  0  0  0  0
  -27.7844  -17.1201   23.4239 C   0  0  0  0  0  0  0  0  0  0  0  0
  -28.7409  -19.3373   22.6615 C   0  0  0  0  0  0  0  0  0  0  0  0
  -26.5949  -18.5676   21.7278 C   0  0  0  0  0  0  0  0  0  0  0  0
  -20.7101  -27.7183   21.9664 C   0  0  1  0  0  0  0  0  0  0  0  0
  -23.7288  -29.6108   23.2851 C   0  0  1  0  0  0  0  0  0  0  0  0
  -26.8643  -17.1255   22.1874 C   0  0  2  0  0  0  0  0  0  0  0  0
  -25.0697  -20.8426   14.9873 C   0  0  0  0  0  0  0  0  0  0  0  0
  -25.4341  -19.0085   17.2163 C   0  0  0  0  0  0  0  0  0  0  0  0
  -28.0836  -36.0161   23.3856 C   0  0  0  0  0  0  0  0  0  0  0  0
  -23.1235  -32.9974   20.1989 C   0  0  0  0  0  0  0  0  0  0  0  0
  -24.8098  -34.8462   20.2816 C   0  0  0  0  0  0  0  0  0  0  0  0
  -23.0617  -34.6747   22.0529 C   0  0  0  0  0  0  0  0  0  0  0  0
  -28.8781  -32.7022   25.0777 C   0  0  0  0  0  0  0  0  0  0  0  0
  -28.5836  -23.8508   16.8715 C   0  0  0  0  0  0  0  0  0  0  0  0
  -28.9648  -26.1372   17.8020 C   0  0  0  0  0  0  0  0  0  0  0  0
  -28.3964  -27.1378   18.7889 C   0  0  0  0  0  0  0  0  0  1  0  0
  -24.9573  -33.0022   22.0163 C   0  0  1  0  0  0  0  0  0  0  0  0
  -27.7732  -34.6404   23.9547 C   0  0  2  0  0  0  0  0  0  0  0  0
  -23.9963  -33.8529   21.1387 C   0  0  0  0  0  0  0  0  0  0  0  0
  -25.0582  -16.3531   23.6784 N   0  0  0  0  0  0  0  0  0  0  0  0
  -25.5792  -16.3593   22.4396 N   0  0  0  0  0  0  0  0  0  0  0  0
  -24.5451  -30.6448   22.6458 N   0  0  0  0  0  0  0  0  0  0  0  0
  -27.8688  -19.2635   21.4873 N   0  0  0  0  0  0  0  0  0  0  0  0
  -25.2342  -15.5474   20.2413 N   0  0  0  0  0  0  0  0  0  0  0  0
  -21.7178  -13.8790   22.5321 N   0  0  0  0  0  0  0  0  0  0  0  0
  -27.3918  -19.6796   19.2153 N   0  0  0  0  0  0  0  0  0  0  0  0
  -21.7914  -28.2574   22.7630 N   0  0  0  0  0  0  0  0  0  0  0  0
  -25.7770  -33.7843   22.9355 N   0  0  0  0  0  0  0  0  0  0  0  0
  -29.0402  -34.0474   24.4685 N   0  3  0  0  0  0  0  0  0  0  0  0
  -28.1398  -24.9031   17.8252 N   0  3  0  0  0  0  0  0  0  0  0  0
  -22.7291  -13.9642   20.4757 O   0  0  0  0  0  0  0  0  0  0  0  0
  -22.7031  -29.6786   21.1594 O   0  0  0  0  0  0  0  0  0  0  0  0
  -23.3944  -32.3832   23.6897 O   0  0  0  0  0  0  0  0  0  0  0  0
  -27.8264  -33.0553   22.1321 O   0  0  0  0  0  0  0  0  0  0  0  0
  -29.3784  -20.4103   20.1644 O   0  0  0  0  0  0  0  0  0  0  0  0
  -20.6539  -14.6417   27.9471 O   0  0  0  0  0  0  0  0  0  0  0  0
  -28.4317  -26.5845   20.1038 O   0  0  0  0  0  0  0  0  0  1  0  0
  -15.2112  -15.1359   27.2143 F   0  0  0  0  0  0  0  0  0  0  0  0
  -19.1854  -16.4680   29.4136 F   0  0  0  0  0  0  0  0  0  0  0  0
  1  2  1  0  0  0  0
  1  5  2  0  0  0  0
  2  6  2  0  0  0  0
  3  8  2  0  0  0  0
  3 17  1  0  0  0  0
  4  9  1  0  0  0  0
  4 17  2  0  0  0  0
  5 19  1  0  0  0  0
  6 21  1  0  0  0  0
  7 10  2  0  0  0  0
  7 20  1  0  0  0  0
  8 27  1  0  0  0  0
  9 27  2  0  0  0  0
 10 28  1  0  0  0  0
 11 12  2  0  0  0  0
 11 29  1  0  0  0  0
 12 30  1  0  0  0  0
 13 22  1  0  0  0  0
 13 28  2  0  0  0  0
 14 23  1  0  0  0  0
 14 24  2  0  0  0  0
 15 23  2  0  0  0  0
 15 26  1  0  0  0  0
 16 30  2  0  0  0  0
 16 31  1  0  0  0  0
 17 32  1  0  0  0  0
 18 32  1  0  0  0  0
 18 33  2  0  0  0  0
 18 34  1  0  0  0  0
 19 21  2  0  0  0  0
 19 39  1  0  0  0  0
 20 22  2  0  0  0  0
 20 40  1  0  0  0  0
 21 48  1  0  0  0  0
 22 41  1  0  0  0  0
 23 58  1  0  0  0  0
 24 25  1  0  0  0  0
 24 51  1  0  0  0  0
 25 26  2  0  0  0  0
 25 52  1  0  0  0  0
 26 70  1  0  0  0  0
 27 80  1  0  0  0  0
 28 81  1  0  0  0  0
 29 31  2  0  0  0  0
 29 80  1  0  0  0  0
 30 82  1  0  0  0  0
 31 83  1  0  0  0  0
 32 64  2  0  0  0  0
 33 65  1  0  0  0  0
 33 68  1  0  0  0  0
 34 69  1  0  0  0  0
 34 75  2  0  0  0  0
 35 49  1  0  0  0  0
 35 71  1  0  0  0  0
 35 76  2  0  0  0  0
 36 61  1  0  0  0  0
 36 66  1  0  0  0  0
 36 77  2  0  0  0  0
 37 62  1  0  0  0  0
 37 72  1  0  0  0  0
 37 78  2  0  0  0  0
 38 67  1  0  0  0  0
 38 70  1  0  0  0  0
 38 79  2  0  0  0  0
 39 42  1  0  0  0  0
 40 49  1  0  0  0  0
 41 66  1  0  0  0  0
 42 44  1  0  0  0  0
 43 45  1  0  0  0  0
 43 46  1  0  0  0  0
 44 48  1  0  0  0  0
 45 50  1  0  0  0  0
 46 67  1  0  0  0  0
 47 50  1  0  0  0  0
 47 67  1  0  0  0  0
 48 71  1  0  0  0  0
 49 66  1  0  0  0  0
 50 65  1  0  0  0  0
 53 62  1  0  0  0  0
 54 63  1  0  0  0  0
 55 63  1  0  0  0  0
 56 63  1  0  0  0  0
 57 73  1  0  0  0  0
 58 74  1  0  0  0  0
 59 60  1  0  0  0  0
 59 74  1  0  0  0  0
 60 81  1  0  0  0  0
 61 63  1  0  0  0  0
 61 72  1  0  0  0  0
 62 73  1  0  0  0  0
 64 65  1  0  0  0  0
M  CHG  2  73   1  74   1
M  ISO  4  38 100  60 101  70 100  81 101
M  END
> <Batch ID>
0040

> <Smiles>
CNC(C)C(=O)NC(C(=O)N1Cc2cc([101O:1][101CH2:1]CNCc3cc(C)c(C)c([100NH:0][100C:0](=O)N4CCCC(n5nc(-c6ccc(Oc7ccc(F)cc7F)cc6)c(C(N)=O)c5N)C4)c3)ccc2CC1C(=O)NC1CCCc2ccccc21)C(C)(C)C

> <Shape>
0.180

> <Color>
0.135

> <Negative vol penalty>
0.000

$$$$

  -OEChem-04042322063D

 87 95  0     1  0  0  0  0  0999 V2000
  -17.0064  -30.0327   24.5756 C   0  0  0  0  0  0  0  0  0  0  0  0
  -17.1087  -28.7204   24.1254 C   0  0  0  0  0  0  0  0  0  0  0  0
  -26.1499  -14.7640   20.7521 C   0  0  0  0  0  0  0  0  0  0  0  0
  -25.1652  -13.9927   22.8191 C   0  0  0  0  0  0  0  0  0  0  0  0
  -17.7912  -31.0299   23.9980 C   0  0  0  0  0  0  0  0  0  0  0  0
  -17.9952  -28.4046   23.0964 C   0  0  0  0  0  0  0  0  0  0  0  0
  -22.2410  -23.1050   20.8152 C   0  0  0  0  0  0  0  0  0  0  0  0
  -26.1852  -13.4522   20.2794 C   0  0  0  0  0  0  0  0  0  0  0  0
  -25.2005  -12.6808   22.3464 C   0  0  0  0  0  0  0  0  0  0  0  0
  -22.5005  -22.3486   19.6731 C   0  0  0  0  0  0  0  0  0  0  0  0
  -24.6987   -9.1710   21.5416 C   0  0  0  0  0  0  0  0  0  0  0  0
  -23.5629   -8.3830   21.7278 C   0  0  0  0  0  0  0  0  0  0  0  0
  -23.8635  -24.1393   18.8043 C   0  0  0  0  0  0  0  0  0  0  0  0
  -28.8544  -18.4388   20.1523 C   0  0  0  0  0  0  0  0  0  0  0  0
  -28.7914  -20.6630   21.8351 C   0  0  0  0  0  0  0  0  0  0  0  0
  -22.2617   -9.9520   20.4307 C   0  0  0  0  0  0  0  0  0  0  0  0
  -25.6399  -15.0343   22.0221 C   0  0  0  0  0  0  0  0  0  0  0  0
  -24.5581  -17.3196   22.3605 C   0  0  0  0  0  0  0  0  0  0  0  0
  -18.6948  -30.7245   22.9680 C   0  0  0  0  0  0  0  0  0  0  0  0
  -22.7828  -24.3907   20.9557 C   0  0  0  0  0  0  0  0  0  0  0  0
  -18.7919  -29.3989   22.5035 C   0  0  0  0  0  0  0  0  0  0  0  0
  -23.6114  -24.9089   19.9503 C   0  0  0  0  0  0  0  0  0  0  0  0
  -27.7708  -19.3160   20.1085 C   0  0  0  0  0  0  0  0  0  0  0  0
  -29.9066  -18.6737   21.0375 C   0  0  0  0  0  0  0  0  0  0  0  0
  -27.7393  -20.4280   20.9499 C   0  0  0  0  0  0  0  0  0  0  0  0
  -29.8750  -19.7858   21.8789 C   0  0  0  0  0  0  0  0  0  0  0  0
  -25.7105  -12.4106   21.0765 C   0  0  0  0  0  0  0  0  0  0  0  0
  -23.3095  -22.8669   18.6661 C   0  0  0  0  0  0  0  0  0  0  0  0
  -24.6160  -10.3496   20.8000 C   0  0  0  0  0  0  0  0  0  0  0  0
  -22.3444   -8.7735   21.1723 C   0  0  0  0  0  0  0  0  0  0  0  0
  -23.3975  -10.7401   20.2446 C   0  0  0  0  0  0  0  0  0  0  0  0
  -25.6037  -16.3891   22.5112 C   0  0  0  0  0  0  0  0  0  0  0  0
  -25.0093  -18.4494   22.9981 C   0  0  0  0  0  0  0  0  0  0  0  0
  -23.2920  -17.1756   21.7032 C   0  0  0  0  0  0  0  0  0  0  0  0
  -21.5726  -27.3155   21.2462 C   0  0  0  0  0  0  0  0  0  0  0  0
  -24.6772  -28.1319   21.7123 C   0  0  0  0  0  0  0  0  0  0  0  0
  -27.9726  -27.3858   21.2322 C   0  0  0  0  0  0  0  0  0  0  0  0
  -30.7765  -20.1163   24.1961 C   0  0  0  0  0  0  0  0  0  0  0  0
  -19.4879  -31.8444   22.3423 C   0  0  0  0  0  0  0  0  0  0  0  0
  -22.5151  -25.1832   22.2058 C   0  0  0  0  0  0  0  0  0  0  0  0
  -24.2339  -26.2759   20.0619 C   0  0  0  0  0  0  0  0  0  0  0  0
  -20.6742  -31.3608   21.5121 C   0  0  0  0  0  0  0  0  0  0  0  0
  -27.9051  -19.8869   26.5189 C   0  0  0  0  0  0  0  0  0  0  0  0
  -20.2531  -30.2168   20.5952 C   0  0  0  0  0  0  0  0  0  0  0  0
  -26.9367  -18.9717   25.7719 C   0  0  0  0  0  0  0  0  0  0  0  0
  -29.3571  -19.5938   26.1538 C   0  0  0  0  0  0  0  0  0  0  0  0
  -28.6562  -18.7387   23.9360 C   0  0  0  0  0  0  0  0  0  0  0  0
  -19.7600  -29.0125   21.4064 C   0  0  1  0  0  0  0  0  0  0  0  0
  -22.7008  -26.6850   22.0125 C   0  0  1  0  0  0  0  0  0  0  0  0
  -27.1846  -19.0412   24.2560 C   0  0  1  0  0  0  0  0  0  0  0  0
  -31.0547  -17.7176   21.0629 C   0  0  0  0  0  0  0  0  0  0  0  0
  -26.5894  -21.3807   20.9209 C   0  0  0  0  0  0  0  0  0  0  0  0
  -30.2783  -28.2614   21.6952 C   0  0  0  0  0  0  0  0  0  0  0  0
  -24.3397  -30.1909   19.4859 C   0  0  0  0  0  0  0  0  0  0  0  0
  -26.8346  -30.3457   19.3461 C   0  0  0  0  0  0  0  0  0  0  0  0
  -25.6630  -30.9883   21.4525 C   0  0  0  0  0  0  0  0  0  0  0  0
  -28.6820  -25.0012   22.8352 C   0  0  0  0  0  0  0  0  0  0  0  0
  -26.6506  -19.0426   19.1486 C   0  0  0  0  0  0  0  0  0  0  0  0
  -25.2391  -21.0549   16.2127 C   0  0  0  0  0  0  0  0  0  0  0  0
  -32.2256  -20.5108   22.2529 C   0  0  0  0  0  0  0  0  0  0  0  0
  -25.3865  -19.8751   17.1617 C   0  0  0  0  0  0  0  0  0  0  0  0
  -24.8165  -22.3467   16.9014 C   0  0  0  0  0  0  0  0  0  1  0  0
  -32.1987  -21.9888   21.9040 C   0  0  0  0  0  0  0  0  0  0  0  0
  -25.8197  -28.5463   20.8168 C   0  0  1  0  0  0  0  0  0  0  0  0
  -29.1510  -27.3679   22.1890 C   0  0  2  0  0  0  0  0  0  0  0  0
  -25.6511  -29.9928   20.2720 C   0  0  0  0  0  0  0  0  0  0  0  0
  -26.6411  -16.8848   23.1909 N   0  0  0  0  0  0  0  0  0  0  0  0
  -26.2496  -18.1391   23.4731 N   0  0  0  0  0  0  0  0  0  0  0  0
  -23.9372  -27.0145   21.3004 N   0  0  0  0  0  0  0  0  0  0  0  0
  -29.5653  -19.6042   24.7049 N   0  0  0  0  0  0  0  0  0  0  0  0
  -24.4622  -19.6680   23.1931 N   0  0  0  0  0  0  0  0  0  0  0  0
  -22.9886  -15.9476   21.0995 N   0  0  0  0  0  0  0  0  0  0  0  0
  -20.8808  -28.2793   21.9547 N   0  0  0  0  0  0  0  0  0  0  0  0
  -27.0399  -28.3368   21.5885 N   0  0  0  0  0  0  0  0  0  0  0  0
  -30.9533  -20.0462   22.8011 N   0  0  0  0  0  0  0  0  0  0  0  0
  -29.6792  -25.9819   22.3344 N   0  3  0  0  0  0  0  0  0  0  0  0
  -26.4442  -20.1411   18.1647 N   0  3  0  0  0  0  0  0  0  0  0  0
  -22.4615  -18.1134   21.6384 O   0  0  0  0  0  0  0  0  0  0  0  0
  -21.3473  -26.9553   20.0968 O   0  0  0  0  0  0  0  0  0  0  0  0
  -24.4541  -28.7716   22.7432 O   0  0  0  0  0  0  0  0  0  0  0  0
  -27.8896  -26.6340   20.2635 O   0  0  0  0  0  0  0  0  0  0  0  0
  -31.6642  -20.5553   24.9376 O   0  0  0  0  0  0  0  0  0  0  0  0
  -25.7446  -11.1305   20.6154 O   0  0  0  0  0  0  0  0  0  0  0  0
  -23.5639  -22.1310   17.5501 O   0  0  0  0  0  0  0  0  0  1  0  0
  -21.2542   -8.0158   21.3499 F   0  0  0  0  0  0  0  0  0  0  0  0
  -23.3121  -11.8706   19.5302 F   0  0  0  0  0  0  0  0  0  0  0  0
  -33.7519  -22.5197   21.2131 Cl  0  0  0  0  0  0  0  0  0  0  0  0
  1  2  1  0  0  0  0
  1  5  2  0  0  0  0
  2  6  2  0  0  0  0
  3  8  2  0  0  0  0
  3 17  1  0  0  0  0
  4  9  1  0  0  0  0
  4 17  2  0  0  0  0
  5 19  1  0  0  0  0
  6 21  1  0  0  0  0
  7 10  2  0  0  0  0
  7 20  1  0  0  0  0
  8 27  1  0  0  0  0
  9 27  2  0  0  0  0
 10 28  1  0  0  0  0
 11 12  2  0  0  0  0
 11 29  1  0  0  0  0
 12 30  1  0  0  0  0
 13 22  1  0  0  0  0
 13 28  2  0  0  0  0
 14 23  1  0  0  0  0
 14 24  2  0  0  0  0
 15 25  1  0  0  0  0
 15 26  2  0  0  0  0
 16 30  2  0  0  0  0
 16 31  1  0  0  0  0
 17 32  1  0  0  0  0
 18 32  1  0  0  0  0
 18 33  2  0  0  0  0
 18 34  1  0  0  0  0
 19 21  2  0  0  0  0
 19 39  1  0  0  0  0
 20 22  2  0  0  0  0
 20 40  1  0  0  0  0
 21 48  1  0  0  0  0
 22 41  1  0  0  0  0
 23 25  2  0  0  0  0
 23 58  1  0  0  0  0
 24 26  1  0  0  0  0
 24 51  1  0  0  0  0
 25 52  1  0  0  0  0
 26 75  1  0  0  0  0
 27 83  1  0  0  0  0
 28 84  1  0  0  0  0
 29 31  2  0  0  0  0
 29 83  1  0  0  0  0
 30 85  1  0  0  0  0
 31 86  1  0  0  0  0
 32 67  2  0  0  0  0
 33 68  1  0  0  0  0
 33 71  1  0  0  0  0
 34 72  1  0  0  0  0
 34 78  2  0  0  0  0
 35 49  1  0  0  0  0
 35 73  1  0  0  0  0
 35 79  2  0  0  0  0
 36 64  1  0  0  0  0
 36 69  1  0  0  0  0
 36 80  2  0  0  0  0
 37 65  1  0  0  0  0
 37 74  1  0  0  0  0
 37 81  2  0  0  0  0
 38 70  1  0  0  0  0
 38 75  1  0  0  0  0
 38 82  2  0  0  0  0
 39 42  1  0  0  0  0
 40 49  1  0  0  0  0
 41 69  1  0  0  0  0
 42 44  1  0  0  0  0
 43 45  1  0  0  0  0
 43 46  1  0  0  0  0
 44 48  1  0  0  0  0
 45 50  1  0  0  0  0
 46 70  1  0  0  0  0
 47 50  1  0  0  0  0
 47 70  1  0  0  0  0
 48 73  1  0  0  0  0
 49 69  1  0  0  0  0
 50 68  1  0  0  0  0
 53 65  1  0  0  0  0
 54 66  1  0  0  0  0
 55 66  1  0  0  0  0
 56 66  1  0  0  0  0
 57 76  1  0  0  0  0
 58 77  1  0  0  0  0
 59 61  1  0  0  0  0
 59 62  1  0  0  0  0
 60 63  1  0  0  0  0
 60 75  1  0  0  0  0
 61 77  1  0  0  0  0
 62 84  1  0  0  0  0
 63 87  1  0  0  0  0
 64 66  1  0  0  0  0
 64 74  1  0  0  0  0
 65 76  1  0  0  0  0
 67 68  1  0  0  0  0
M  CHG  2  76   1  77   1
M  ISO  4  38 100  62 101  75 100  84 101
M  END
> <Batch ID>
0040

> <Smiles>
CNC(C)C(=O)NC(C(=O)N1Cc2cc([101O:1][101CH2:1]CCNCc3cc(C)c([100N:0](CCCl)[100C:0](=O)N4CCCC(n5nc(-c6ccc(Oc7ccc(F)cc7F)cc6)c(C(N)=O)c5N)C4)cc3C)ccc2CC1C(=O)NC1CCCc2ccccc21)C(C)(C)C

> <Shape>
0.205

> <Color>
0.072

> <Negative vol penalty>
0.000

$$$$

  -OEChem-04042322063D

 90 99  0     1  0  0  0  0  0999 V2000
  -17.3543  -26.3969   22.2483 C   0  0  0  0  0  0  0  0  0  0  0  0
  -18.6058  -26.0351   21.7602 C   0  0  0  0  0  0  0  0  0  0  0  0
  -24.0167  -12.5063   20.5965 C   0  0  0  0  0  0  0  0  0  0  0  0
  -26.1260  -13.4442   21.3095 C   0  0  0  0  0  0  0  0  0  0  0  0
  -17.0211  -27.7444   22.3789 C   0  0  0  0  0  0  0  0  0  0  0  0
  -19.5245  -27.0209   21.4014 C   0  0  0  0  0  0  0  0  0  0  0  0
  -25.6141  -26.7715   22.0016 C   0  0  0  0  0  0  0  0  0  0  0  0
  -27.9914  -23.0960   18.0036 C   0  0  0  0  0  0  0  0  0  0  0  0
  -26.8205  -22.3924   18.2855 C   0  0  0  0  0  0  0  0  0  0  0  0
  -24.6639  -11.3242   20.2367 C   0  0  0  0  0  0  0  0  0  0  0  0
  -26.7732  -12.2620   20.9498 C   0  0  0  0  0  0  0  0  0  0  0  0
  -26.6336  -26.4654   21.1012 C   0  0  0  0  0  0  0  0  0  0  0  0
  -25.8744   -8.5753   21.7894 C   0  0  0  0  0  0  0  0  0  0  0  0
  -25.2828   -7.3708   22.1697 C   0  0  0  0  0  0  0  0  0  0  0  0
  -26.9542  -28.8178   20.6737 C   0  0  0  0  0  0  0  0  0  0  0  0
  -25.1139   -6.7208   19.8489 C   0  0  0  0  0  0  0  0  0  0  0  0
  -24.7478  -13.5663   21.1328 C   0  0  0  0  0  0  0  0  0  0  0  0
  -23.5172  -15.1026   22.7555 C   0  0  0  0  0  0  0  0  0  0  0  0
  -17.9397  -28.7471   22.0306 C   0  0  0  0  0  0  0  0  0  0  0  0
  -25.2490  -28.1048   22.2370 C   0  0  0  0  0  0  0  0  0  0  0  0
  -19.2028  -28.3831   21.5262 C   0  0  0  0  0  0  0  0  0  0  0  0
  -25.9315  -29.1383   21.5794 C   0  0  0  0  0  0  0  0  0  0  0  0
  -29.1255  -22.9079   18.7937 C   0  0  0  0  0  0  0  0  0  0  0  0
  -29.0885  -22.0164   19.8658 C   0  0  0  0  0  0  0  0  0  0  0  0
  -27.9176  -21.3128   20.1478 C   0  0  0  0  0  0  0  0  0  0  0  0
  -26.7835  -21.5008   19.3576 C   0  0  0  0  0  0  0  0  0  0  0  0
  -26.0421  -11.2021   20.4134 C   0  0  0  0  0  0  0  0  0  0  0  0
  -27.3019  -27.4884   20.4350 C   0  0  0  0  0  0  0  0  0  0  0  0
  -26.0857   -8.8527   20.4387 C   0  0  0  0  0  0  0  0  0  0  0  0
  -24.9026   -6.4435   21.1995 C   0  0  0  0  0  0  0  0  0  0  0  0
  -25.7055   -7.9254   19.4685 C   0  0  0  0  0  0  0  0  0  0  0  0
  -24.0799  -14.7879   21.5041 C   0  0  0  0  0  0  0  0  0  0  0  0
  -23.0095  -16.3687   22.5951 C   0  0  0  0  0  0  0  0  0  0  0  0
  -31.1959  -25.8203   17.7386 C   0  0  0  0  0  0  0  0  0  0  0  0
  -30.8701  -26.1131   16.4672 C   0  0  0  0  0  0  0  0  0  0  0  0
  -23.4587  -14.3205   23.9557 C   0  0  0  0  0  0  0  0  0  0  0  0
  -22.5976  -29.8100   21.8292 C   0  0  0  0  0  0  0  0  0  0  0  0
  -24.3029  -32.1044   23.3622 C   0  0  0  0  0  0  0  0  0  0  0  0
  -27.3603  -33.3608   24.2113 C   0  0  0  0  0  0  0  0  0  0  0  0
  -24.3799  -20.8818   18.9265 C   0  0  0  0  0  0  0  0  0  0  0  0
  -17.5169  -30.1904   22.1447 C   0  0  0  0  0  0  0  0  0  0  0  0
  -24.1652  -28.4197   23.2313 C   0  0  0  0  0  0  0  0  0  0  0  0
  -25.5914  -30.5869   21.8122 C   0  0  0  0  0  0  0  0  0  0  0  0
  -32.5771  -26.0959   18.2758 C   0  0  0  0  0  0  0  0  0  0  0  0
  -18.6843  -31.1727   22.0952 C   0  0  0  0  0  0  0  0  0  0  0  0
  -32.8260  -27.5630   18.6383 C   0  0  0  0  0  0  0  0  0  0  0  0
  -31.9769  -28.1269   19.7820 C   0  0  0  0  0  0  0  0  0  0  0  0
  -21.2131  -19.2868   19.2496 C   0  0  0  0  0  0  0  0  0  0  0  0
  -19.6317  -30.8189   20.9532 C   0  0  0  0  0  0  0  0  0  0  0  0
  -21.5368  -17.9836   19.9837 C   0  0  0  0  0  0  0  0  0  0  0  0
  -30.4826  -28.2200   19.4700 C   0  0  0  0  0  0  0  0  0  0  0  0
  -22.3143  -19.6704   18.2627 C   0  0  0  0  0  0  0  0  0  0  0  0
  -23.9906  -18.4211   19.5659 C   0  0  0  0  0  0  0  0  0  0  0  0
  -30.1112  -25.6670   19.9612 C   0  0  0  0  0  0  0  0  0  0  0  0
  -20.2356  -29.4231   21.1497 C   0  0  1  0  0  0  0  0  0  0  0  0
  -23.5289  -29.7882   23.0082 C   0  0  1  0  0  0  0  0  0  0  0  0
  -22.9408  -18.0278   20.6181 C   0  0  2  0  0  0  0  0  0  0  0  0
  -29.6239  -27.1106   20.0867 C   0  0  2  0  0  0  0  0  0  1  0  0
  -30.3064  -21.8168   20.7114 C   0  0  0  0  0  0  0  0  0  0  0  0
  -27.8802  -20.3565   21.2988 C   0  0  0  0  0  0  0  0  0  0  0  0
  -29.5260  -25.8653   15.8792 C   0  0  0  0  0  0  0  0  0  0  0  0
  -28.4346  -35.2687   25.4373 C   0  0  0  0  0  0  0  0  0  0  0  0
  -23.6740  -33.9590   21.0223 C   0  0  0  0  0  0  0  0  0  0  0  0
  -25.5062  -35.4688   21.8171 C   0  0  0  0  0  0  0  0  0  0  0  0
  -23.5289  -35.0355   23.2749 C   0  0  0  0  0  0  0  0  0  0  0  0
  -28.6693  -31.5367   26.1395 C   0  0  0  0  0  0  0  0  0  0  0  0
  -30.3718  -23.6772   18.4686 C   0  0  0  0  0  0  0  0  0  0  0  0
  -25.2404  -33.2066   22.9319 C   0  0  1  0  0  0  0  0  0  0  0  0
  -27.9183  -33.8418   25.5386 C   0  0  2  0  0  0  0  0  0  0  0  0
  -24.4927  -34.3902   22.2555 C   0  0  0  0  0  0  0  0  0  0  0  0
  -23.9427  -15.7745   20.6142 N   0  0  0  0  0  0  0  0  0  0  0  0
  -23.2878  -16.7215   21.3073 N   0  0  0  0  0  0  0  0  0  0  0  0
  -24.5201  -30.8434   22.7890 N   0  0  0  0  0  0  0  0  0  0  0  0
  -23.6151  -19.6962   18.9351 N   0  0  0  0  0  0  0  0  0  0  0  0
  -22.3565  -17.2035   23.4312 N   0  0  0  0  0  0  0  0  0  0  0  0
  -24.0297  -13.0405   23.9476 N   0  0  0  0  0  0  0  0  0  0  0  0
  -25.5835  -20.7966   19.6256 N   0  0  0  0  0  0  0  0  0  0  0  0
  -21.2950  -29.4649   22.1348 N   0  0  0  0  0  0  0  0  0  0  0  0
  -26.0023  -33.5810   24.1184 N   0  0  0  0  0  0  0  0  0  0  0  0
  -30.1779  -25.1734   18.5349 N   0  3  2  0  0  0  0  0  0  0  0  0
  -29.0415  -32.9656   25.9763 N   0  3  0  0  0  0  0  0  0  0  0  0
  -22.9018  -14.7376   24.9994 O   0  0  0  0  0  0  0  0  0  0  0  0
  -23.0287  -30.1186   20.7244 O   0  0  0  0  0  0  0  0  0  0  0  0
  -23.4152  -32.3514   24.1823 O   0  0  0  0  0  0  0  0  0  0  0  0
  -28.0597  -32.8450   23.3423 O   0  0  0  0  0  0  0  0  0  0  0  0
  -23.9830  -21.9061   18.3650 O   0  0  0  0  0  0  0  0  0  0  0  0
  -26.6739  -10.0486   20.0627 O   0  0  0  0  0  0  0  0  0  0  0  0
  -28.3016  -27.1909   19.5510 O   0  0  0  0  0  0  0  0  0  1  0  0
  -24.3359   -5.2862   21.5651 F   0  0  0  0  0  0  0  0  0  0  0  0
  -25.9070   -8.1858   18.1695 F   0  0  0  0  0  0  0  0  0  0  0  0
  1  2  1  0  0  0  0
  1  5  2  0  0  0  0
  2  6  2  0  0  0  0
  3 10  2  0  0  0  0
  3 17  1  0  0  0  0
  4 11  1  0  0  0  0
  4 17  2  0  0  0  0
  5 19  1  0  0  0  0
  6 21  1  0  0  0  0
  7 12  2  0  0  0  0
  7 20  1  0  0  0  0
  8  9  2  0  0  0  0
  8 23  1  0  0  0  0
  9 26  1  0  0  0  0
 10 27  1  0  0  0  0
 11 27  2  0  0  0  0
 12 28  1  0  0  0  0
 13 14  2  0  0  0  0
 13 29  1  0  0  0  0
 14 30  1  0  0  0  0
 15 22  1  0  0  0  0
 15 28  2  0  0  0  0
 16 30  2  0  0  0  0
 16 31  1  0  0  0  0
 17 32  1  0  0  0  0
 18 32  1  0  0  0  0
 18 33  2  0  0  0  0
 18 36  1  0  0  0  0
 19 21  2  0  0  0  0
 19 41  1  0  0  0  0
 20 22  2  0  0  0  0
 20 42  1  0  0  0  0
 21 55  1  0  0  0  0
 22 43  1  0  0  0  0
 23 24  2  0  0  0  0
 23 67  1  0  0  0  0
 24 25  1  0  0  0  0
 24 59  1  0  0  0  0
 25 26  2  0  0  0  0
 25 60  1  0  0  0  0
 26 77  1  0  0  0  0
 27 87  1  0  0  0  0
 28 88  1  0  0  0  0
 29 31  2  0  0  0  0
 29 87  1  0  0  0  0
 30 89  1  0  0  0  0
 31 90  1  0  0  0  0
 32 71  2  0  0  0  0
 33 72  1  0  0  0  0
 33 75  1  0  0  0  0
 34 35  2  0  0  0  0
 34 44  1  0  0  0  0
 34 80  1  0  0  0  0
 35 61  1  0  0  0  0
 36 76  1  0  0  0  0
 36 82  2  0  0  0  0
 37 56  1  0  0  0  0
 37 78  1  0  0  0  0
 37 83  2  0  0  0  0
 38 68  1  0  0  0  0
 38 73  1  0  0  0  0
 38 84  2  0  0  0  0
 39 69  1  0  0  0  0
 39 79  1  0  0  0  0
 39 85  2  0  0  0  0
 40 74  1  0  0  0  0
 40 77  1  0  0  0  0
 40 86  2  0  0  0  0
 41 45  1  0  0  0  0
 42 56  1  0  0  0  0
 43 73  1  0  0  0  0
 44 46  1  0  0  0  0
 45 49  1  0  0  0  0
 46 47  1  0  0  0  0
 47 51  1  0  0  0  0
 48 50  1  0  0  0  0
 48 52  1  0  0  0  0
 49 55  1  0  0  0  0
 50 57  1  0  0  0  0
 51 58  1  0  0  0  0
 52 74  1  0  0  0  0
 53 57  1  0  0  0  0
 53 74  1  0  0  0  0
 54 58  1  0  0  0  0
 54 80  1  0  0  0  0
 55 78  1  0  0  0  0
 56 73  1  0  0  0  0
 57 72  1  0  0  0  0
 58 88  1  0  0  0  0
 62 69  1  0  0  0  0
 63 70  1  0  0  0  0
 64 70  1  0  0  0  0
 65 70  1  0  0  0  0
 66 81  1  0  0  0  0
 67 80  1  0  0  0  0
 68 70  1  0  0  0  0
 68 79  1  0  0  0  0
 69 81  1  0  0  0  0
 71 72  1  0  0  0  0
M  CHG  2  80   1  81   1
M  ISO  4  40 100  58 101  77 100  88 101
M  END
> <Batch ID>
0040

> <Smiles>
CC=C1CCCC[101CH:1]([101O:1]c2ccc3c(c2)CN(C(=O)C(NC(=O)C(C)NC)C(C)(C)C)C(C(=O)NC2CCCc4ccccc42)C3)CN1Cc1ccc([100NH:0][100C:0](=O)N2CCCC(n3nc(-c4ccc(Oc5ccc(F)cc5F)cc4)c(C(N)=O)c3N)C2)c(C)c1C

> <Shape>
0.267

> <Color>
0.088

> <Negative vol penalty>
0.000

$$$$

  -OEChem-04042322063D

 89 98  0     1  0  0  0  0  0999 V2000
  -19.2984  -29.5182   25.7576 C   0  0  0  0  0  0  0  0  0  0  0  0
  -20.6256  -29.1650   25.5360 C   0  0  0  0  0  0  0  0  0  0  0  0
  -24.7643  -13.2493   25.7026 C   0  0  0  0  0  0  0  0  0  0  0  0
  -25.9879  -11.4007   24.7422 C   0  0  0  0  0  0  0  0  0  0  0  0
  -18.3184  -29.1562   24.8344 C   0  0  0  0  0  0  0  0  0  0  0  0
  -20.9735  -28.4486   24.3913 C   0  0  0  0  0  0  0  0  0  0  0  0
  -26.1577  -28.9477   21.1695 C   0  0  0  0  0  0  0  0  0  0  0  0
  -24.5570  -12.5079   26.8657 C   0  0  0  0  0  0  0  0  0  0  0  0
  -25.7806  -10.6592   25.9054 C   0  0  0  0  0  0  0  0  0  0  0  0
  -27.3320  -28.1963   21.1597 C   0  0  0  0  0  0  0  0  0  0  0  0
  -23.2800   -8.8628   27.3022 C   0  0  0  0  0  0  0  0  0  0  0  0
  -22.8826   -7.5333   27.1609 C   0  0  0  0  0  0  0  0  0  0  0  0
  -26.5003  -26.9320   19.2812 C   0  0  0  0  0  0  0  0  0  0  0  0
  -27.9655  -22.8142   19.2319 C   0  0  0  0  0  0  0  0  0  0  0  0
  -29.3608  -20.8615   19.5085 C   0  0  0  0  0  0  0  0  0  0  0  0
  -24.8657   -6.8153   28.3395 C   0  0  0  0  0  0  0  0  0  0  0  0
  -25.4798  -12.6957   24.6408 C   0  0  0  0  0  0  0  0  0  0  0  0
  -24.7105  -13.9885   22.5806 C   0  0  0  0  0  0  0  0  0  0  0  0
  -18.6558  -28.4434   23.6730 C   0  0  0  0  0  0  0  0  0  0  0  0
  -25.1395  -28.6892   20.2405 C   0  0  0  0  0  0  0  0  0  0  0  0
  -19.9968  -28.0756   23.4523 C   0  0  0  0  0  0  0  0  0  0  0  0
  -25.3151  -27.6832   19.2796 C   0  0  0  0  0  0  0  0  0  0  0  0
  -29.2323  -22.2337   19.2941 C   0  0  0  0  0  0  0  0  0  0  0  0
  -26.8272  -22.0225   19.3842 C   0  0  0  0  0  0  0  0  0  0  0  0
  -26.9557  -20.6502   19.5986 C   0  0  0  0  0  0  0  0  0  0  0  0
  -28.2225  -20.0697   19.6607 C   0  0  0  0  0  0  0  0  0  0  0  0
  -25.0651  -11.2128   26.9671 C   0  0  0  0  0  0  0  0  0  0  0  0
  -27.5022  -27.1863   20.2173 C   0  0  0  0  0  0  0  0  0  0  0  0
  -24.4704   -9.1686   27.9620 C   0  0  0  0  0  0  0  0  0  0  0  0
  -23.6753   -6.5095   27.6796 C   0  0  0  0  0  0  0  0  0  0  0  0
  -25.2631   -8.1448   28.4806 C   0  0  0  0  0  0  0  0  0  0  0  0
  -25.6938  -13.4609   23.4389 C   0  0  0  0  0  0  0  0  0  0  0  0
  -25.4222  -14.6258   21.5938 C   0  0  0  0  0  0  0  0  0  0  0  0
  -30.4790  -24.3547   21.1908 C   0  0  0  0  0  0  0  0  0  0  0  0
  -29.5400  -23.9029   22.0430 C   0  0  0  0  0  0  0  0  0  0  0  0
  -23.2815  -13.9096   22.6676 C   0  0  0  0  0  0  0  0  0  0  0  0
  -22.1083  -27.7530   20.4373 C   0  0  0  0  0  0  0  0  0  0  0  0
  -22.1389  -28.3002   17.2401 C   0  0  0  0  0  0  0  0  0  0  0  0
  -23.9546  -28.5564   14.3618 C   0  0  0  0  0  0  0  0  0  0  0  0
  -29.5699  -17.9622   19.9604 C   0  0  0  0  0  0  0  0  0  0  0  0
  -17.5548  -28.0333   22.7274 C   0  0  0  0  0  0  0  0  0  0  0  0
  -23.8900  -29.5265   20.2473 C   0  0  0  0  0  0  0  0  0  0  0  0
  -24.2608  -27.3796   18.2478 C   0  0  0  0  0  0  0  0  0  0  0  0
  -18.0614  -27.5999   21.3541 C   0  0  0  0  0  0  0  0  0  0  0  0
  -33.3168  -25.6088   21.6796 C   0  0  0  0  0  0  0  0  0  0  0  0
  -30.3678  -14.5376   20.5190 C   0  0  0  0  0  0  0  0  0  0  0  0
  -33.3504  -24.0917   21.4882 C   0  0  0  0  0  0  0  0  0  0  0  0
  -19.2404  -26.6428   21.4977 C   0  0  0  0  0  0  0  0  0  0  0  0
  -31.9479  -26.2109   22.0016 C   0  0  0  0  0  0  0  0  0  0  0  0
  -29.1420  -13.9956   21.2578 C   0  0  0  0  0  0  0  0  0  0  0  0
  -30.6927  -15.9711   20.9349 C   0  0  0  0  0  0  0  0  0  0  0  0
  -28.3474  -16.3739   21.5723 C   0  0  0  0  0  0  0  0  0  0  0  0
  -32.6420  -23.6336   20.2155 C   0  0  0  0  0  0  0  0  0  0  0  0
  -20.4172  -27.3201   22.2103 C   0  0  1  0  0  0  0  0  0  0  0  0
  -30.8307  -25.8227   21.0182 C   0  0  2  0  0  0  0  0  0  0  0  0
  -22.7039  -28.8352   19.5819 C   0  0  1  0  0  0  0  0  0  0  0  0
  -27.9422  -14.9556   21.1388 C   0  0  2  0  0  0  0  0  0  0  0  0
  -25.4827  -22.6696   19.3152 C   0  0  0  0  0  0  0  0  0  0  0  0
  -25.7312  -19.8054   19.7622 C   0  0  0  0  0  0  0  0  0  0  0  0
  -23.6971  -28.9746   11.9009 C   0  0  0  0  0  0  0  0  0  0  0  0
  -21.0837  -25.4612   16.8705 C   0  0  0  0  0  0  0  0  0  0  0  0
  -21.7431  -25.6046   14.4595 C   0  0  0  0  0  0  0  0  0  0  0  0
  -20.0300  -27.1684   15.3774 C   0  0  0  0  0  0  0  0  0  0  0  0
  -25.6429  -30.9843   14.4799 C   0  0  0  0  0  0  0  0  0  0  0  0
  -30.4566  -23.0855   19.1318 C   0  0  0  0  0  0  0  0  0  0  0  0
  -29.6325  -26.7680   21.1884 C   0  0  0  0  0  0  0  0  0  1  0  0
  -22.4568  -27.4743   16.0171 C   0  0  1  0  0  0  0  0  0  0  0  0
  -23.9562  -29.6024   13.2616 C   0  0  2  0  0  0  0  0  0  0  0  0
  -21.3476  -26.4313   15.7017 C   0  0  0  0  0  0  0  0  0  0  0  0
  -26.9355  -13.7388   23.0328 N   0  0  0  0  0  0  0  0  0  0  0  0
  -26.7373  -14.4478   21.9085 N   0  0  0  0  0  0  0  0  0  0  0  0
  -23.0541  -28.2215   18.2993 N   0  0  0  0  0  0  0  0  0  0  0  0
  -29.5106  -16.8238   20.7917 N   0  0  0  0  0  0  0  0  0  0  0  0
  -25.0451  -15.3153   20.4962 N   0  0  0  0  0  0  0  0  0  0  0  0
  -22.6329  -12.8323   22.0488 N   0  0  0  0  0  0  0  0  0  0  0  0
  -28.3758  -18.6777   19.8764 N   0  0  0  0  0  0  0  0  0  0  0  0
  -21.1234  -28.1955   21.2996 N   0  0  0  0  0  0  0  0  0  0  0  0
  -22.7090  -28.4231   14.9380 N   0  0  0  0  0  0  0  0  0  0  0  0
  -31.1767  -23.3389   20.4320 N   0  3  2  0  0  0  0  0  0  0  0  0
  -25.2714  -30.3017   13.2138 N   0  3  0  0  0  0  0  0  0  0  0  0
  -22.5987  -14.7778   23.2622 O   0  0  0  0  0  0  0  0  0  0  0  0
  -22.5114  -26.6014   20.3223 O   0  0  0  0  0  0  0  0  0  0  0  0
  -21.1199  -28.9953   17.2523 O   0  0  0  0  0  0  0  0  0  0  0  0
  -24.9571  -27.9186   14.6760 O   0  0  0  0  0  0  0  0  0  0  0  0
  -30.5958  -18.2639   19.3452 O   0  0  0  0  0  0  0  0  0  0  0  0
  -24.8632  -10.4891   28.1020 O   0  0  0  0  0  0  0  0  0  0  0  0
  -28.6472  -26.4509   20.2060 O   0  0  0  0  0  0  0  0  0  1  0  0
  -23.2927   -5.2329   27.5453 F   0  0  0  0  0  0  0  0  0  0  0  0
  -26.4071   -8.4324   29.1166 F   0  0  0  0  0  0  0  0  0  0  0  0
  1  2  1  0  0  0  0
  1  5  2  0  0  0  0
  2  6  2  0  0  0  0
  3  8  2  0  0  0  0
  3 17  1  0  0  0  0
  4  9  1  0  0  0  0
  4 17  2  0  0  0  0
  5 19  1  0  0  0  0
  6 21  1  0  0  0  0
  7 10  2  0  0  0  0
  7 20  1  0  0  0  0
  8 27  1  0  0  0  0
  9 27  2  0  0  0  0
 10 28  1  0  0  0  0
 11 12  2  0  0  0  0
 11 29  1  0  0  0  0
 12 30  1  0  0  0  0
 13 22  1  0  0  0  0
 13 28  2  0  0  0  0
 14 23  1  0  0  0  0
 14 24  2  0  0  0  0
 15 23  2  0  0  0  0
 15 26  1  0  0  0  0
 16 30  2  0  0  0  0
 16 31  1  0  0  0  0
 17 32  1  0  0  0  0
 18 32  1  0  0  0  0
 18 33  2  0  0  0  0
 18 36  1  0  0  0  0
 19 21  2  0  0  0  0
 19 41  1  0  0  0  0
 20 22  2  0  0  0  0
 20 42  1  0  0  0  0
 21 54  1  0  0  0  0
 22 43  1  0  0  0  0
 23 65  1  0  0  0  0
 24 25  1  0  0  0  0
 24 58  1  0  0  0  0
 25 26  2  0  0  0  0
 25 59  1  0  0  0  0
 26 76  1  0  0  0  0
 27 86  1  0  0  0  0
 28 87  1  0  0  0  0
 29 31  2  0  0  0  0
 29 86  1  0  0  0  0
 30 88  1  0  0  0  0
 31 89  1  0  0  0  0
 32 70  2  0  0  0  0
 33 71  1  0  0  0  0
 33 74  1  0  0  0  0
 34 35  2  0  0  0  0
 34 55  1  0  0  0  0
 34 79  1  0  0  0  0
 36 75  1  0  0  0  0
 36 81  2  0  0  0  0
 37 56  1  0  0  0  0
 37 77  1  0  0  0  0
 37 82  2  0  0  0  0
 38 67  1  0  0  0  0
 38 72  1  0  0  0  0
 38 83  2  0  0  0  0
 39 68  1  0  0  0  0
 39 78  1  0  0  0  0
 39 84  2  0  0  0  0
 40 73  1  0  0  0  0
 40 76  1  0  0  0  0
 40 85  2  0  0  0  0
 41 44  1  0  0  0  0
 42 56  1  0  0  0  0
 43 72  1  0  0  0  0
 44 48  1  0  0  0  0
 45 47  1  0  0  0  0
 45 49  1  0  0  0  0
 46 50  1  0  0  0  0
 46 51  1  0  0  0  0
 47 53  1  0  0  0  0
 48 54  1  0  0  0  0
 49 55  1  0  0  0  0
 50 57  1  0  0  0  0
 51 73  1  0  0  0  0
 52 57  1  0  0  0  0
 52 73  1  0  0  0  0
 53 79  1  0  0  0  0
 54 77  1  0  0  0  0
 55 66  1  0  0  0  0
 56 72  1  0  0  0  0
 57 71  1  0  0  0  0
 60 68  1  0  0  0  0
 61 69  1  0  0  0  0
 62 69  1  0  0  0  0
 63 69  1  0  0  0  0
 64 80  1  0  0  0  0
 65 79  1  0  0  0  0
 66 87  1  0  0  0  0
 67 69  1  0  0  0  0
 67 78  1  0  0  0  0
 68 80  1  0  0  0  0
 70 71  1  0  0  0  0
M  CHG  2  79   1  80   1
M  ISO  4  40 100  66 101  76 100  87 101
M  END
> <Batch ID>
0040

> <Smiles>
C=C1C([101CH2:1][101O:1]c2ccc3c(c2)CN(C(=O)C(NC(=O)C(C)NC)C(C)(C)C)C(C(=O)NC2CCCc4ccccc42)C3)CCCCN1Cc1cc(C)c(C)c([100NH:0][100C:0](=O)N2CCCC(n3nc(-c4ccc(Oc5ccc(F)cc5F)cc4)c(C(N)=O)c3N)C2)c1

> <Shape>
0.216

> <Color>
0.108

> <Negative vol penalty>
0.000

$$$$

  -OEChem-04042322063D

 88 97  0     1  0  0  0  0  0999 V2000
  -16.9696  -30.4326   20.8402 C   0  0  0  0  0  0  0  0  0  0  0  0
  -18.0526  -31.2685   21.0924 C   0  0  0  0  0  0  0  0  0  0  0  0
  -24.2780  -13.1950   19.6136 C   0  0  0  0  0  0  0  0  0  0  0  0
  -26.1887  -13.8339   20.9470 C   0  0  0  0  0  0  0  0  0  0  0  0
  -16.9934  -29.1103   21.2818 C   0  0  0  0  0  0  0  0  0  0  0  0
  -19.1597  -30.7829   21.7873 C   0  0  0  0  0  0  0  0  0  0  0  0
  -25.7284  -30.8808   18.8319 C   0  0  0  0  0  0  0  0  0  0  0  0
  -24.5236  -11.8532   19.9045 C   0  0  0  0  0  0  0  0  0  0  0  0
  -26.4344  -12.4920   21.2379 C   0  0  0  0  0  0  0  0  0  0  0  0
  -27.0487  -31.0584   18.4180 C   0  0  0  0  0  0  0  0  0  0  0  0
  -24.0025   -9.7271   22.4815 C   0  0  0  0  0  0  0  0  0  0  0  0
  -22.9145   -8.9322   22.8419 C   0  0  0  0  0  0  0  0  0  0  0  0
  -27.8357  -29.9400   20.4124 C   0  0  0  0  0  0  0  0  0  0  0  0
  -31.5862  -24.1260   17.1300 C   0  0  0  0  0  0  0  0  0  0  0  0
  -29.4207  -24.6263   18.0771 C   0  0  0  0  0  0  0  0  0  0  0  0
  -23.3438   -7.4882   20.9531 C   0  0  0  0  0  0  0  0  0  0  0  0
  -25.1106  -14.1854   20.1348 C   0  0  0  0  0  0  0  0  0  0  0  0
  -23.6950  -16.3076   20.1316 C   0  0  0  0  0  0  0  0  0  0  0  0
  -18.1054  -28.6055   21.9741 C   0  0  0  0  0  0  0  0  0  0  0  0
  -25.4559  -30.2176   20.0316 C   0  0  0  0  0  0  0  0  0  0  0  0
  -19.1979  -29.4531   22.2398 C   0  0  0  0  0  0  0  0  0  0  0  0
  -26.5147  -29.7481   20.8260 C   0  0  0  0  0  0  0  0  0  0  0  0
  -30.5056  -23.7615   17.9332 C   0  0  0  0  0  0  0  0  0  0  0  0
  -31.5820  -25.3553   16.4708 C   0  0  0  0  0  0  0  0  0  0  0  0
  -29.4164  -25.8556   17.4178 C   0  0  0  0  0  0  0  0  0  0  0  0
  -30.4970  -26.2201   16.6147 C   0  0  0  0  0  0  0  0  0  0  0  0
  -25.6018  -11.5016   20.7166 C   0  0  0  0  0  0  0  0  0  0  0  0
  -28.0997  -30.5894   19.2064 C   0  0  0  0  0  0  0  0  0  0  0  0
  -24.7612   -9.4026   21.3569 C   0  0  0  0  0  0  0  0  0  0  0  0
  -22.5851   -7.8128   22.0778 C   0  0  0  0  0  0  0  0  0  0  0  0
  -24.4319   -8.2831   20.5927 C   0  0  0  0  0  0  0  0  0  0  0  0
  -24.8577  -15.5717   19.8343 C   0  0  0  0  0  0  0  0  0  0  0  0
  -23.9508  -17.5657   19.6434 C   0  0  0  0  0  0  0  0  0  0  0  0
  -31.7548  -29.5884   15.5969 C   0  0  0  0  0  0  0  0  0  0  0  0
  -32.9805  -29.5492   15.0530 C   0  0  0  0  0  0  0  0  0  0  0  0
  -22.4915  -15.8913   20.7903 C   0  0  0  0  0  0  0  0  0  0  0  0
  -22.8541  -28.9501   22.4191 C   0  0  0  0  0  0  0  0  0  0  0  0
  -25.0381  -26.8019   22.2584 C   0  0  0  0  0  0  0  0  0  0  0  0
  -26.8227  -23.8947   22.2414 C   0  0  0  0  0  0  0  0  0  0  0  0
  -29.0045  -20.4776   18.7286 C   0  0  0  0  0  0  0  0  0  0  0  0
  -18.0654  -27.1828   22.4730 C   0  0  0  0  0  0  0  0  0  0  0  0
  -24.0512  -30.0582   20.5467 C   0  0  0  0  0  0  0  0  0  0  0  0
  -26.1752  -29.0712   22.1259 C   0  0  0  0  0  0  0  0  0  0  0  0
  -30.7573  -30.6733   15.2938 C   0  0  0  0  0  0  0  0  0  0  0  0
  -19.4342  -26.6396   22.8751 C   0  0  0  0  0  0  0  0  0  0  0  0
  -30.2090  -31.2657   16.5863 C   0  0  0  0  0  0  0  0  0  0  0  0
  -26.4518  -19.8277   16.2470 C   0  0  0  0  0  0  0  0  0  0  0  0
  -20.1783  -27.6534   23.7384 C   0  0  0  0  0  0  0  0  0  0  0  0
  -25.6408  -18.7230   16.9269 C   0  0  0  0  0  0  0  0  0  0  0  0
  -27.9427  -19.6747   16.5330 C   0  0  0  0  0  0  0  0  0  0  0  0
  -27.4812  -18.5237   18.6627 C   0  0  0  0  0  0  0  0  0  0  0  0
  -30.8681  -29.1624   17.8137 C   0  0  0  0  0  0  0  0  0  0  0  0
  -20.4274  -28.9561   22.9687 C   0  0  1  0  0  0  0  0  0  0  0  0
  -23.8318  -28.7348   21.3015 C   0  0  1  0  0  0  0  0  0  0  0  0
  -25.9634  -18.6356   18.4303 C   0  0  2  0  0  0  0  0  0  0  0  0
  -29.7527  -30.1708   17.5505 C   0  0  1  0  0  0  0  0  0  1  0  0
  -32.7510  -25.7212   15.6158 C   0  0  0  0  0  0  0  0  0  0  0  0
  -28.2424  -26.7636   17.5883 C   0  0  0  0  0  0  0  0  0  0  0  0
  -27.6251  -21.6505   23.0270 C   0  0  0  0  0  0  0  0  0  0  0  0
  -26.9011  -28.4814   23.9939 C   0  0  0  0  0  0  0  0  0  0  0  0
  -28.0372  -26.3646   24.6986 C   0  0  0  0  0  0  0  0  0  0  0  0
  -25.6265  -26.7212   25.2314 C   0  0  0  0  0  0  0  0  0  0  0  0
  -24.6315  -22.4891   20.8336 C   0  0  0  0  0  0  0  0  0  0  0  0
  -30.5105  -22.4475   18.6385 C   0  0  0  0  0  0  0  0  0  0  0  0
  -30.4925  -27.5420   15.9052 C   0  0  0  0  0  0  0  0  0  0  0  0
  -26.3112  -26.2461   22.8445 C   0  0  1  0  0  0  0  0  0  0  0  0
  -26.4259  -22.4669   22.5710 C   0  0  2  0  0  0  0  0  0  0  0  0
  -26.7171  -26.9602   24.1646 C   0  0  0  0  0  0  0  0  0  0  0  0
  -25.7832  -16.3014   19.2057 N   0  0  0  0  0  0  0  0  0  0  0  0
  -25.2022  -17.5090   19.1041 N   0  0  0  0  0  0  0  0  0  0  0  0
  -25.0321  -28.1646   21.9365 N   0  0  0  0  0  0  0  0  0  0  0  0
  -28.1835  -19.6165   17.9817 N   0  0  0  0  0  0  0  0  0  0  0  0
  -23.2250  -18.7039   19.6272 N   0  0  0  0  0  0  0  0  0  0  0  0
  -22.4133  -16.0208   22.1837 N   0  0  0  0  0  0  0  0  0  0  0  0
  -21.5321  -28.7956   22.0477 N   0  0  0  0  0  0  0  0  0  0  0  0
  -26.1036  -24.8086   22.9823 N   0  0  0  0  0  0  0  0  0  0  0  0
  -29.6390  -21.4815   18.0074 N   0  0  0  0  0  0  0  0  0  0  0  0
  -31.4044  -28.5548   16.5406 N   0  3  1  0  0  0  0  0  0  0  0  0
  -25.8339  -21.8045   21.3744 N   0  3  0  0  0  0  0  0  0  0  0  0
  -21.5206  -15.4032   20.1637 O   0  0  0  0  0  0  0  0  0  0  0  0
  -23.2675  -29.2342   23.5372 O   0  0  0  0  0  0  0  0  0  0  0  0
  -24.0717  -26.0518   22.0945 O   0  0  0  0  0  0  0  0  0  0  0  0
  -27.6869  -24.1714   21.4125 O   0  0  0  0  0  0  0  0  0  0  0  0
  -29.1567  -20.3636   19.9497 O   0  0  0  0  0  0  0  0  0  0  0  0
  -25.8416  -10.1923   21.0008 O   0  0  0  0  0  0  0  0  0  0  0  0
  -29.3862  -30.7622   18.7942 O   0  0  0  0  0  0  0  0  0  1  0  0
  -21.5412   -7.0487   22.4248 F   0  0  0  0  0  0  0  0  0  0  0  0
  -25.1577   -7.9657   19.5119 F   0  0  0  0  0  0  0  0  0  0  0  0
  1  2  1  0  0  0  0
  1  5  2  0  0  0  0
  2  6  2  0  0  0  0
  3  8  2  0  0  0  0
  3 17  1  0  0  0  0
  4  9  1  0  0  0  0
  4 17  2  0  0  0  0
  5 19  1  0  0  0  0
  6 21  1  0  0  0  0
  7 10  2  0  0  0  0
  7 20  1  0  0  0  0
  8 27  1  0  0  0  0
  9 27  2  0  0  0  0
 10 28  1  0  0  0  0
 11 12  2  0  0  0  0
 11 29  1  0  0  0  0
 12 30  1  0  0  0  0
 13 22  1  0  0  0  0
 13 28  2  0  0  0  0
 14 23  1  0  0  0  0
 14 24  2  0  0  0  0
 15 23  2  0  0  0  0
 15 25  1  0  0  0  0
 16 30  2  0  0  0  0
 16 31  1  0  0  0  0
 17 32  1  0  0  0  0
 18 32  1  0  0  0  0
 18 33  2  0  0  0  0
 18 36  1  0  0  0  0
 19 21  2  0  0  0  0
 19 41  1  0  0  0  0
 20 22  2  0  0  0  0
 20 42  1  0  0  0  0
 21 53  1  0  0  0  0
 22 43  1  0  0  0  0
 23 64  1  0  0  0  0
 24 26  1  0  0  0  0
 24 57  1  0  0  0  0
 25 26  2  0  0  0  0
 25 58  1  0  0  0  0
 26 65  1  0  0  0  0
 27 85  1  0  0  0  0
 28 86  1  0  0  0  0
 29 31  2  0  0  0  0
 29 85  1  0  0  0  0
 30 87  1  0  0  0  0
 31 88  1  0  0  0  0
 32 69  2  0  0  0  0
 33 70  1  0  0  0  0
 33 73  1  0  0  0  0
 34 35  2  0  0  0  0
 34 44  1  0  0  0  0
 34 78  1  0  0  0  0
 36 74  1  0  0  0  0
 36 80  2  0  0  0  0
 37 54  1  0  0  0  0
 37 75  1  0  0  0  0
 37 81  2  0  0  0  0
 38 66  1  0  0  0  0
 38 71  1  0  0  0  0
 38 82  2  0  0  0  0
 39 67  1  0  0  0  0
 39 76  1  0  0  0  0
 39 83  2  0  0  0  0
 40 72  1  0  0  0  0
 40 77  1  0  0  0  0
 40 84  2  0  0  0  0
 41 45  1  0  0  0  0
 42 54  1  0  0  0  0
 43 71  1  0  0  0  0
 44 46  1  0  0  0  0
 45 48  1  0  0  0  0
 46 56  1  0  0  0  0
 47 49  1  0  0  0  0
 47 50  1  0  0  0  0
 48 53  1  0  0  0  0
 49 55  1  0  0  0  0
 50 72  1  0  0  0  0
 51 55  1  0  0  0  0
 51 72  1  0  0  0  0
 52 56  1  0  0  0  0
 52 78  1  0  0  0  0
 53 75  1  0  0  0  0
 54 71  1  0  0  0  0
 55 70  1  0  0  0  0
 56 86  1  0  0  0  0
 59 67  1  0  0  0  0
 60 68  1  0  0  0  0
 61 68  1  0  0  0  0
 62 68  1  0  0  0  0
 63 79  1  0  0  0  0
 64 77  1  0  0  0  0
 65 78  1  0  0  0  0
 66 68  1  0  0  0  0
 66 76  1  0  0  0  0
 67 79  1  0  0  0  0
 69 70  1  0  0  0  0
M  CHG  2  78   1  79   1
M  ISO  4  40 100  56 101  77 100  86 101
M  END
> <Batch ID>
0040

> <Smiles>
C=C1CC[101CH:1]([101O:1]c2ccc3c(c2)CN(C(=O)C(NC(=O)C(C)NC)C(C)(C)C)C(C(=O)NC2CCCc4ccccc42)C3)CN1Cc1c(C)cc(C[100NH:0][100C:0](=O)N2CCCC(n3nc(-c4ccc(Oc5ccc(F)cc5F)cc4)c(C(N)=O)c3N)C2)cc1C

> <Shape>
0.204

> <Color>
0.103

> <Negative vol penalty>
0.000

$$$$

  -OEChem-04042322063D

 89 98  0     1  0  0  0  0  0999 V2000
  -27.3968  -37.6491   25.2193 C   0  0  0  0  0  0  0  0  0  0  0  0
  -28.0331  -36.8794   24.2508 C   0  0  0  0  0  0  0  0  0  0  0  0
  -23.4605   -9.3464   20.1807 C   0  0  0  0  0  0  0  0  0  0  0  0
  -23.2348  -11.6485   20.8782 C   0  0  0  0  0  0  0  0  0  0  0  0
  -26.5441  -37.0427   26.1407 C   0  0  0  0  0  0  0  0  0  0  0  0
  -27.8179  -35.5024   24.2039 C   0  0  0  0  0  0  0  0  0  0  0  0
  -27.3931  -30.0736   19.5495 C   0  0  0  0  0  0  0  0  0  0  0  0
  -22.1662   -9.0836   20.6295 C   0  0  0  0  0  0  0  0  0  0  0  0
  -21.9405  -11.3857   21.3270 C   0  0  0  0  0  0  0  0  0  0  0  0
  -27.9240  -28.8043   19.3238 C   0  0  0  0  0  0  0  0  0  0  0  0
  -20.6228   -8.5067   23.5806 C   0  0  0  0  0  0  0  0  0  0  0  0
  -20.4193   -7.3450   24.3253 C   0  0  0  0  0  0  0  0  0  0  0  0
  -26.3681  -27.8770   20.9172 C   0  0  0  0  0  0  0  0  0  0  0  0
  -30.7109  -18.9837   20.9639 C   0  0  0  0  0  0  0  0  0  0  0  0
  -28.6941  -19.3111   22.2531 C   0  0  0  0  0  0  0  0  0  0  0  0
  -18.8494   -6.5567   22.6666 C   0  0  0  0  0  0  0  0  0  0  0  0
  -23.9948  -10.6289   20.3051 C   0  0  0  0  0  0  0  0  0  0  0  0
  -25.8230  -10.7579   18.5307 C   0  0  0  0  0  0  0  0  0  0  0  0
  -26.3108  -35.6591   26.0991 C   0  0  0  0  0  0  0  0  0  0  0  0
  -26.3514  -30.2560   20.4703 C   0  0  0  0  0  0  0  0  0  0  0  0
  -26.9624  -34.8767   25.1265 C   0  0  0  0  0  0  0  0  0  0  0  0
  -25.8241  -29.1492   21.1508 C   0  0  0  0  0  0  0  0  0  0  0  0
  -29.7922  -19.8381   21.5734 C   0  0  0  0  0  0  0  0  0  0  0  0
  -30.5314  -17.6021   21.0340 C   0  0  0  0  0  0  0  0  0  0  0  0
  -28.5146  -17.9296   22.3233 C   0  0  0  0  0  0  0  0  0  0  0  0
  -29.4333  -17.0751   21.7137 C   0  0  0  0  0  0  0  0  0  0  0  0
  -21.4062  -10.1032   21.2026 C   0  0  0  0  0  0  0  0  0  0  0  0
  -27.4134  -27.7062   20.0098 C   0  0  0  0  0  0  0  0  0  0  0  0
  -19.9395   -8.6935   22.3790 C   0  0  0  0  0  0  0  0  0  0  0  0
  -19.5326   -6.3700   23.8683 C   0  0  0  0  0  0  0  0  0  0  0  0
  -19.0528   -7.7185   21.9220 C   0  0  0  0  0  0  0  0  0  0  0  0
  -25.3319  -10.9009   19.8422 C   0  0  0  0  0  0  0  0  0  0  0  0
  -27.1396  -11.1405   18.6134 C   0  0  0  0  0  0  0  0  0  0  0  0
  -30.6813  -23.1164   20.0343 C   0  0  0  0  0  0  0  0  0  0  0  0
  -32.0182  -23.0790   19.8967 C   0  0  0  0  0  0  0  0  0  0  0  0
  -25.1494  -10.3186   17.3437 C   0  0  0  0  0  0  0  0  0  0  0  0
  -26.0114  -31.8840   23.1791 C   0  0  0  0  0  0  0  0  0  0  0  0
  -22.9277  -30.9113   22.9211 C   0  0  0  0  0  0  0  0  0  0  0  0
  -20.6978  -28.6508   21.6704 C   0  0  0  0  0  0  0  0  0  0  0  0
  -30.1195  -14.7343   22.3430 C   0  0  0  0  0  0  0  0  0  0  0  0
  -25.4176  -35.0416   27.1458 C   0  0  0  0  0  0  0  0  0  0  0  0
  -25.7718  -31.6277   20.6826 C   0  0  0  0  0  0  0  0  0  0  0  0
  -24.6923  -29.2887   22.1347 C   0  0  0  0  0  0  0  0  0  0  0  0
  -29.9401  -24.4230   20.1324 C   0  0  0  0  0  0  0  0  0  0  0  0
  -24.9511  -33.6315   26.7935 C   0  0  0  0  0  0  0  0  0  0  0  0
  -30.8060  -11.3022   21.6900 C   0  0  0  0  0  0  0  0  0  0  0  0
  -28.5612  -22.5448   18.1211 C   0  0  0  0  0  0  0  0  0  0  0  0
  -26.1235  -32.7885   26.3019 C   0  0  0  0  0  0  0  0  0  0  0  0
  -28.2930  -24.0494   18.1941 C   0  0  0  0  0  0  0  0  0  0  0  0
  -29.5271  -10.7983   21.0172 C   0  0  0  0  0  0  0  0  0  0  0  0
  -30.5056  -12.3203   22.7886 C   0  0  0  0  0  0  0  0  0  0  0  0
  -28.3852  -12.9464   21.7018 C   0  0  0  0  0  0  0  0  0  0  0  0
  -28.6068  -21.8800   19.4940 C   0  0  0  0  0  0  0  0  0  0  0  0
  -26.7350  -33.3839   25.0278 C   0  0  1  0  0  0  0  0  0  0  0  0
  -25.0581  -31.7739   22.0230 C   0  0  1  0  0  0  0  0  0  0  0  0
  -29.4426  -24.9002   18.7578 C   0  0  1  0  0  0  0  0  0  0  0  0
  -28.6409  -11.9673   20.5443 C   0  0  2  0  0  0  0  0  0  0  0  0
  -31.5324  -16.7124   20.3705 C   0  0  0  0  0  0  0  0  0  0  0  0
  -27.3286  -17.3948   23.0591 C   0  0  0  0  0  0  0  0  0  0  0  0
  -18.2505  -28.0958   21.6617 C   0  0  0  0  0  0  0  0  0  0  0  0
  -23.1715  -29.8025   25.7532 C   0  0  0  0  0  0  0  0  0  0  0  0
  -21.0966  -28.4657   25.3337 C   0  0  0  0  0  0  0  0  0  0  0  0
  -21.0072  -30.9577   25.2680 C   0  0  0  0  0  0  0  0  0  0  0  0
  -20.5165  -28.9733   18.7340 C   0  0  0  0  0  0  0  0  0  0  0  0
  -29.9851  -21.3241   21.4977 C   0  0  0  0  0  0  0  0  0  0  0  0
  -28.9943  -26.3630   18.8468 C   0  0  0  0  0  0  0  0  0  1  0  0
  -22.1436  -29.7082   23.3867 C   0  0  1  0  0  0  0  0  0  0  0  0
  -19.3738  -28.8343   20.9507 C   0  0  2  0  0  0  0  0  0  0  0  0
  -21.8774  -29.7309   24.9184 C   0  0  0  0  0  0  0  0  0  0  0  0
  -26.2608  -11.3400   20.6957 N   0  0  0  0  0  0  0  0  0  0  0  0
  -27.3489  -11.4761   19.9187 N   0  0  0  0  0  0  0  0  0  0  0  0
  -24.1637  -30.6512   22.3125 N   0  0  0  0  0  0  0  0  0  0  0  0
  -29.6657  -13.4005   22.2666 N   0  0  0  0  0  0  0  0  0  0  0  0
  -28.1270  -11.2192   17.6963 N   0  0  0  0  0  0  0  0  0  0  0  0
  -24.5131  -11.2769   16.5431 N   0  0  0  0  0  0  0  0  0  0  0  0
  -29.2509  -15.6718   21.7852 N   0  0  0  0  0  0  0  0  0  0  0  0
  -25.9125  -33.0715   23.8788 N   0  0  0  0  0  0  0  0  0  0  0  0
  -20.9350  -29.6679   22.5706 N   0  0  0  0  0  0  0  0  0  0  0  0
  -29.9965  -21.8474   20.0826 N   0  3  2  0  0  0  0  0  0  0  0  0
  -19.4666  -28.3181   19.5558 N   0  3  0  0  0  0  0  0  0  0  0  0
  -25.0988   -9.1099   17.0119 O   0  0  0  0  0  0  0  0  0  0  0  0
  -26.7788  -30.9594   23.4196 O   0  0  0  0  0  0  0  0  0  0  0  0
  -22.4574  -32.0399   23.0847 O   0  0  0  0  0  0  0  0  0  0  0  0
  -21.4449  -27.6983   21.4580 O   0  0  0  0  0  0  0  0  0  0  0  0
  -31.2116  -15.0207   22.8404 O   0  0  0  0  0  0  0  0  0  0  0  0
  -20.1432   -9.8471   21.6404 O   0  0  0  0  0  0  0  0  0  0  0  0
  -27.9301  -26.4663   19.7920 O   0  0  0  0  0  0  0  0  0  1  0  0
  -19.3385   -5.2537   24.5828 F   0  0  0  0  0  0  0  0  0  0  0  0
  -18.3945   -7.8918   20.7677 F   0  0  0  0  0  0  0  0  0  0  0  0
  1  2  1  0  0  0  0
  1  5  2  0  0  0  0
  2  6  2  0  0  0  0
  3  8  2  0  0  0  0
  3 17  1  0  0  0  0
  4  9  1  0  0  0  0
  4 17  2  0  0  0  0
  5 19  1  0  0  0  0
  6 21  1  0  0  0  0
  7 10  2  0  0  0  0
  7 20  1  0  0  0  0
  8 27  1  0  0  0  0
  9 27  2  0  0  0  0
 10 28  1  0  0  0  0
 11 12  2  0  0  0  0
 11 29  1  0  0  0  0
 12 30  1  0  0  0  0
 13 22  1  0  0  0  0
 13 28  2  0  0  0  0
 14 23  1  0  0  0  0
 14 24  2  0  0  0  0
 15 23  2  0  0  0  0
 15 25  1  0  0  0  0
 16 30  2  0  0  0  0
 16 31  1  0  0  0  0
 17 32  1  0  0  0  0
 18 32  1  0  0  0  0
 18 33  2  0  0  0  0
 18 36  1  0  0  0  0
 19 21  2  0  0  0  0
 19 41  1  0  0  0  0
 20 22  2  0  0  0  0
 20 42  1  0  0  0  0
 21 54  1  0  0  0  0
 22 43  1  0  0  0  0
 23 65  1  0  0  0  0
 24 26  1  0  0  0  0
 24 58  1  0  0  0  0
 25 26  2  0  0  0  0
 25 59  1  0  0  0  0
 26 76  1  0  0  0  0
 27 86  1  0  0  0  0
 28 87  1  0  0  0  0
 29 31  2  0  0  0  0
 29 86  1  0  0  0  0
 30 88  1  0  0  0  0
 31 89  1  0  0  0  0
 32 70  2  0  0  0  0
 33 71  1  0  0  0  0
 33 74  1  0  0  0  0
 34 35  2  0  0  0  0
 34 44  1  0  0  0  0
 34 79  1  0  0  0  0
 36 75  1  0  0  0  0
 36 81  2  0  0  0  0
 37 55  1  0  0  0  0
 37 77  1  0  0  0  0
 37 82  2  0  0  0  0
 38 67  1  0  0  0  0
 38 72  1  0  0  0  0
 38 83  2  0  0  0  0
 39 68  1  0  0  0  0
 39 78  1  0  0  0  0
 39 84  2  0  0  0  0
 40 73  1  0  0  0  0
 40 76  1  0  0  0  0
 40 85  2  0  0  0  0
 41 45  1  0  0  0  0
 42 55  1  0  0  0  0
 43 72  1  0  0  0  0
 44 56  1  0  0  0  0
 45 48  1  0  0  0  0
 46 50  1  0  0  0  0
 46 51  1  0  0  0  0
 47 49  1  0  0  0  0
 47 53  1  0  0  0  0
 48 54  1  0  0  0  0
 49 56  1  0  0  0  0
 50 57  1  0  0  0  0
 51 73  1  0  0  0  0
 52 57  1  0  0  0  0
 52 73  1  0  0  0  0
 53 79  1  0  0  0  0
 54 77  1  0  0  0  0
 55 72  1  0  0  0  0
 56 66  1  0  0  0  0
 57 71  1  0  0  0  0
 60 68  1  0  0  0  0
 61 69  1  0  0  0  0
 62 69  1  0  0  0  0
 63 69  1  0  0  0  0
 64 80  1  0  0  0  0
 65 79  1  0  0  0  0
 66 87  1  0  0  0  0
 67 69  1  0  0  0  0
 67 78  1  0  0  0  0
 68 80  1  0  0  0  0
 70 71  1  0  0  0  0
M  CHG  2  79   1  80   1
M  ISO  4  40 100  66 101  76 100  87 101
M  END
> <Batch ID>
0040

> <Smiles>
C=C1CC([101CH2:1][101O:1]c2ccc3c(c2)CN(C(=O)C(NC(=O)C(C)NC)C(C)(C)C)C(C(=O)NC2CCCc4ccccc42)C3)CCCN1Cc1cc(C)c([100NH:0][100C:0](=O)N2CCCC(n3nc(-c4ccc(Oc5ccc(F)cc5F)cc4)c(C(N)=O)c3N)C2)c(C)c1

> <Shape>
0.311

> <Color>
0.071

> <Negative vol penalty>
0.000

$$$$

  -OEChem-04042322063D

 86 94  0     1  0  0  0  0  0999 V2000
  -25.8898  -35.5745   22.0213 C   0  0  0  0  0  0  0  0  0  0  0  0
  -26.4657  -34.3088   21.9803 C   0  0  0  0  0  0  0  0  0  0  0  0
  -26.5572  -24.1212   14.6483 C   0  0  0  0  0  0  0  0  0  0  0  0
  -25.9189  -14.3951   21.1032 C   0  0  0  0  0  0  0  0  0  0  0  0
  -25.7643  -14.6636   18.7072 C   0  0  0  0  0  0  0  0  0  0  0  0
  -24.5971  -35.7352   22.5184 C   0  0  0  0  0  0  0  0  0  0  0  0
  -25.7496  -33.2031   22.4374 C   0  0  0  0  0  0  0  0  0  0  0  0
  -26.1020  -29.2334   19.3130 C   0  0  0  0  0  0  0  0  0  0  0  0
  -27.8137  -24.4173   14.1201 C   0  0  0  0  0  0  0  0  0  0  0  0
  -26.4525  -23.3802   15.8255 C   0  0  0  0  0  0  0  0  0  0  0  0
  -24.9568  -13.3865   21.0523 C   0  0  0  0  0  0  0  0  0  0  0  0
  -24.8023  -13.6549   18.6562 C   0  0  0  0  0  0  0  0  0  0  0  0
  -27.2770  -28.4847   19.3647 C   0  0  0  0  0  0  0  0  0  0  0  0
  -24.8272  -10.1065   20.2414 C   0  0  0  0  0  0  0  0  0  0  0  0
  -25.0669   -8.9445   20.9748 C   0  0  0  0  0  0  0  0  0  0  0  0
  -26.1615  -26.8397   20.7318 C   0  0  0  0  0  0  0  0  0  0  0  0
  -23.0457   -9.3273   22.2418 C   0  0  0  0  0  0  0  0  0  0  0  0
  -26.3226  -15.0338   19.9307 C   0  0  0  0  0  0  0  0  0  0  0  0
  -28.7116  -15.9266   19.8757 C   0  0  0  0  0  0  0  0  0  0  0  0
  -23.8611  -34.6295   22.9728 C   0  0  0  0  0  0  0  0  0  0  0  0
  -24.9491  -28.7955   19.9804 C   0  0  0  0  0  0  0  0  0  0  0  0
  -24.4463  -33.3493   22.9422 C   0  0  0  0  0  0  0  0  0  0  0  0
  -24.9724  -27.5834   20.6848 C   0  0  0  0  0  0  0  0  0  0  0  0
  -28.9656  -23.9724   14.7689 C   0  0  0  0  0  0  0  0  0  0  0  0
  -28.8609  -23.2314   15.9461 C   0  0  0  0  0  0  0  0  0  0  0  0
  -27.6043  -22.9353   16.4744 C   0  0  0  0  0  0  0  0  0  0  0  0
  -24.3985  -13.0163   19.8288 C   0  0  0  0  0  0  0  0  0  0  0  0
  -27.3077  -27.2891   20.0766 C   0  0  0  0  0  0  0  0  0  0  0  0
  -23.6968  -10.8790   20.5082 C   0  0  0  0  0  0  0  0  0  0  0  0
  -24.1761   -8.5548   21.9750 C   0  0  0  0  0  0  0  0  0  0  0  0
  -22.8061  -10.4894   21.5084 C   0  0  0  0  0  0  0  0  0  0  0  0
  -27.3159  -16.0762   19.9827 C   0  0  0  0  0  0  0  0  0  0  0  0
  -29.2034  -17.2043   19.9863 C   0  0  0  0  0  0  0  0  0  0  0  0
  -29.4936  -14.7389   19.6927 C   0  0  0  0  0  0  0  0  0  0  0  0
  -23.1456  -29.9451   22.3319 C   0  0  0  0  0  0  0  0  0  0  0  0
  -21.2651  -27.4032   21.6075 C   0  0  0  0  0  0  0  0  0  0  0  0
  -30.0744  -25.3377   18.8099 C   0  0  0  0  0  0  0  0  0  0  0  0
  -21.0097  -24.2804   20.2548 C   0  0  0  0  0  0  0  0  0  0  0  0
  -26.8698  -22.5884   18.8590 C   0  0  0  0  0  0  0  0  0  0  0  0
  -22.4849  -34.8592   23.5453 C   0  0  0  0  0  0  0  0  0  0  0  0
  -23.6820  -29.6012   19.8927 C   0  0  0  0  0  0  0  0  0  0  0  0
  -23.7560  -27.0592   21.4017 C   0  0  0  0  0  0  0  0  0  0  0  0
  -21.6533  -33.5844   23.6623 C   0  0  0  0  0  0  0  0  0  0  0  0
  -28.1923  -21.4480   21.9618 C   0  0  0  0  0  0  0  0  0  0  0  0
  -22.4804  -32.4625   24.2819 C   0  0  0  0  0  0  0  0  0  0  0  0
  -28.2504  -19.9279   21.7944 C   0  0  0  0  0  0  0  0  0  0  0  0
  -26.9620  -22.0468   21.2825 C   0  0  0  0  0  0  0  0  0  0  0  0
  -26.8496  -20.1590   19.7036 C   0  0  0  0  0  0  0  0  0  0  0  0
  -23.6921  -32.1220   23.4059 C   0  0  1  0  0  0  0  0  0  0  0  0
  -22.7133  -29.3180   21.0367 C   0  0  1  0  0  0  0  0  0  0  0  0
  -28.1058  -19.5179   20.3157 C   0  0  2  0  0  0  0  0  0  0  0  0
  -30.2985  -24.3034   14.1818 C   0  0  0  0  0  0  0  0  0  0  0  0
  -19.3522  -22.4421   19.8418 C   0  0  0  0  0  0  0  0  0  0  0  0
  -29.8607  -21.9342   17.9506 C   0  0  0  0  0  0  0  0  0  0  0  0
  -30.9039  -21.7955   15.7055 C   0  0  0  0  0  0  0  0  0  0  0  0
  -21.4014  -26.6216   24.5537 C   0  0  0  0  0  0  0  0  0  0  0  0
  -20.5682  -24.3481   23.9173 C   0  0  0  0  0  0  0  0  0  0  0  0
  -19.1456  -26.3558   23.5073 C   0  0  0  0  0  0  0  0  0  0  0  0
  -21.3792  -24.4481   17.3232 C   0  0  0  0  0  0  0  0  0  0  0  0
  -29.3305  -26.6413   19.0067 C   0  0  0  0  0  0  0  0  0  1  0  0
  -31.0669  -23.9353   17.0117 C   0  0  0  0  0  0  0  0  0  0  0  0
  -21.1858  -25.9670   22.0656 C   0  0  1  0  0  0  0  0  0  0  0  0
  -20.0162  -23.6863   19.2727 C   0  0  2  0  0  0  0  0  0  0  0  0
  -30.1353  -22.7426   16.6587 C   0  0  0  0  0  0  0  0  0  0  0  0
  -20.5989  -25.8337   23.4992 C   0  0  0  0  0  0  0  0  0  0  0  0
  -26.9449  -17.3486   20.1487 N   0  0  0  0  0  0  0  0  0  0  0  0
  -28.1148  -18.0101   20.1469 N   0  0  0  0  0  0  0  0  0  0  0  0
  -22.5429  -27.8861   21.2916 N   0  0  0  0  0  0  0  0  0  0  0  0
  -26.8932  -21.6187   19.8836 N   0  0  0  0  0  0  0  0  0  0  0  0
  -30.4565  -17.7058   19.9610 N   0  0  0  0  0  0  0  0  0  0  0  0
  -28.8285  -13.5089   19.5985 N   0  0  0  0  0  0  0  0  0  0  0  0
  -27.4746  -22.1846   17.6691 N   0  0  0  0  0  0  0  0  0  0  0  0
  -23.2866  -31.3184   22.2726 N   0  0  0  0  0  0  0  0  0  0  0  0
  -30.3638  -25.1096   17.4737 N   0  0  0  0  0  0  0  0  0  0  0  0
  -20.4303  -25.2531   21.0419 N   0  0  0  0  0  0  0  0  0  0  0  0
  -20.7023  -23.3139   18.0032 N   0  3  0  0  0  0  0  0  0  0  0  0
  -30.7463  -14.7657   19.6313 O   0  0  0  0  0  0  0  0  0  0  0  0
  -23.3356  -29.2357   23.3129 O   0  0  0  0  0  0  0  0  0  0  0  0
  -20.2304  -28.0699   21.5258 O   0  0  0  0  0  0  0  0  0  0  0  0
  -30.3695  -24.5940   19.7414 O   0  0  0  0  0  0  0  0  0  0  0  0
  -22.1814  -23.9154   20.3199 O   0  0  0  0  0  0  0  0  0  0  0  0
  -26.3756  -23.7052   19.0336 O   0  0  0  0  0  0  0  0  0  0  0  0
  -23.4599  -12.0319   19.7787 O   0  0  0  0  0  0  0  0  0  0  0  0
  -28.4535  -26.5568   20.1292 O   0  0  0  0  0  0  0  0  0  1  0  0
  -24.4055   -7.4381   22.6781 F   0  0  0  0  0  0  0  0  0  0  0  0
  -21.7178  -11.2268   21.7685 F   0  0  0  0  0  0  0  0  0  0  0  0
  1  2  1  0  0  0  0
  1  6  2  0  0  0  0
  2  7  2  0  0  0  0
  3  9  1  0  0  0  0
  3 10  2  0  0  0  0
  4 11  2  0  0  0  0
  4 18  1  0  0  0  0
  5 12  1  0  0  0  0
  5 18  2  0  0  0  0
  6 20  1  0  0  0  0
  7 22  1  0  0  0  0
  8 13  2  0  0  0  0
  8 21  1  0  0  0  0
  9 24  2  0  0  0  0
 10 26  1  0  0  0  0
 11 27  1  0  0  0  0
 12 27  2  0  0  0  0
 13 28  1  0  0  0  0
 14 15  2  0  0  0  0
 14 29  1  0  0  0  0
 15 30  1  0  0  0  0
 16 23  1  0  0  0  0
 16 28  2  0  0  0  0
 17 30  2  0  0  0  0
 17 31  1  0  0  0  0
 18 32  1  0  0  0  0
 19 32  1  0  0  0  0
 19 33  2  0  0  0  0
 19 34  1  0  0  0  0
 20 22  2  0  0  0  0
 20 40  1  0  0  0  0
 21 23  2  0  0  0  0
 21 41  1  0  0  0  0
 22 49  1  0  0  0  0
 23 42  1  0  0  0  0
 24 25  1  0  0  0  0
 24 52  1  0  0  0  0
 25 26  2  0  0  0  0
 25 64  1  0  0  0  0
 26 72  1  0  0  0  0
 27 83  1  0  0  0  0
 28 84  1  0  0  0  0
 29 31  2  0  0  0  0
 29 83  1  0  0  0  0
 30 85  1  0  0  0  0
 31 86  1  0  0  0  0
 32 66  2  0  0  0  0
 33 67  1  0  0  0  0
 33 70  1  0  0  0  0
 34 71  1  0  0  0  0
 34 77  2  0  0  0  0
 35 50  1  0  0  0  0
 35 73  1  0  0  0  0
 35 78  2  0  0  0  0
 36 62  1  0  0  0  0
 36 68  1  0  0  0  0
 36 79  2  0  0  0  0
 37 60  1  0  0  0  0
 37 74  1  0  0  0  0
 37 80  2  0  0  0  0
 38 63  1  0  0  0  0
 38 75  1  0  0  0  0
 38 81  2  0  0  0  0
 39 69  1  0  0  0  0
 39 72  1  0  0  0  0
 39 82  2  0  0  0  0
 40 43  1  0  0  0  0
 41 50  1  0  0  0  0
 42 68  1  0  0  0  0
 43 45  1  0  0  0  0
 44 46  1  0  0  0  0
 44 47  1  0  0  0  0
 45 49  1  0  0  0  0
 46 51  1  0  0  0  0
 47 69  1  0  0  0  0
 48 51  1  0  0  0  0
 48 69  1  0  0  0  0
 49 73  1  0  0  0  0
 50 68  1  0  0  0  0
 51 67  1  0  0  0  0
 53 63  1  0  0  0  0
 54 64  1  0  0  0  0
 55 64  1  0  0  0  0
 56 65  1  0  0  0  0
 57 65  1  0  0  0  0
 58 65  1  0  0  0  0
 59 76  1  0  0  0  0
 60 84  1  0  0  0  0
 61 64  1  0  0  0  0
 61 74  1  0  0  0  0
 62 65  1  0  0  0  0
 62 75  1  0  0  0  0
 63 76  1  0  0  0  0
 66 67  1  0  0  0  0
M  CHG  1  76   1
M  ISO  4  39 100  60 101  72 100  84 101
M  END
> <Batch ID>
0040

> <Smiles>
CNC(C)C(=O)NC(C(=O)N1Cc2cc([101O:1][101CH2:1]C(=O)NCC(C)(C)c3c(C)cccc3[100NH:0][100C:0](=O)N3CCCC(n4nc(-c5ccc(Oc6ccc(F)cc6F)cc5)c(C(N)=O)c4N)C3)ccc2CC1C(=O)NC1CCCc2ccccc21)C(C)(C)C

> <Shape>
0.276

> <Color>
0.096

> <Negative vol penalty>
0.000

$$$$

  -OEChem-04042322063D

 85 93  0     1  0  0  0  0  0999 V2000
  -27.1530  -38.9802   19.5722 C   0  0  0  0  0  0  0  0  0  0  0  0
  -27.8791  -37.7977   19.6711 C   0  0  0  0  0  0  0  0  0  0  0  0
  -22.6369  -10.1323   20.3726 C   0  0  0  0  0  0  0  0  0  0  0  0
  -24.2381   -9.5197   22.0750 C   0  0  0  0  0  0  0  0  0  0  0  0
  -26.0007  -39.1554   20.3374 C   0  0  0  0  0  0  0  0  0  0  0  0
  -27.4540  -36.7901   20.5363 C   0  0  0  0  0  0  0  0  0  0  0  0
  -27.9468  -30.7470   19.6739 C   0  0  0  0  0  0  0  0  0  0  0  0
  -22.1783   -8.8157   20.3302 C   0  0  0  0  0  0  0  0  0  0  0  0
  -23.7794   -8.2031   22.0327 C   0  0  0  0  0  0  0  0  0  0  0  0
  -28.8653  -29.8054   20.1359 C   0  0  0  0  0  0  0  0  0  0  0  0
  -21.1571   -6.4409   23.2323 C   0  0  0  0  0  0  0  0  0  0  0  0
  -20.9348   -5.7943   24.4480 C   0  0  0  0  0  0  0  0  0  0  0  0
  -27.3698  -29.2420   21.9429 C   0  0  0  0  0  0  0  0  0  0  0  0
  -30.5455  -19.8697   24.1220 C   0  0  0  0  0  0  0  0  0  0  0  0
  -29.9799  -18.8520   22.0051 C   0  0  0  0  0  0  0  0  0  0  0  0
  -22.5620   -4.1113   23.8504 C   0  0  0  0  0  0  0  0  0  0  0  0
  -23.6669  -10.4843   21.2449 C   0  0  0  0  0  0  0  0  0  0  0  0
  -23.6665  -12.8842   22.1100 C   0  0  0  0  0  0  0  0  0  0  0  0
  -25.5559  -38.1456   21.2052 C   0  0  0  0  0  0  0  0  0  0  0  0
  -26.7355  -30.9512   20.3504 C   0  0  0  0  0  0  0  0  0  0  0  0
  -26.2955  -36.9525   21.3148 C   0  0  0  0  0  0  0  0  0  0  0  0
  -26.4365  -30.1850   21.4859 C   0  0  0  0  0  0  0  0  0  0  0  0
  -30.4857  -19.9312   22.7298 C   0  0  0  0  0  0  0  0  0  0  0  0
  -30.0997  -18.7289   24.7895 C   0  0  0  0  0  0  0  0  0  0  0  0
  -29.5939  -17.6497   24.0648 C   0  0  0  0  0  0  0  0  0  0  0  0
  -29.5340  -17.7112   22.6726 C   0  0  0  0  0  0  0  0  0  0  0  0
  -22.7495   -7.8511   21.1602 C   0  0  0  0  0  0  0  0  0  0  0  0
  -28.5782  -29.0548   21.2722 C   0  0  0  0  0  0  0  0  0  0  0  0
  -22.0818   -5.9228   22.3256 C   0  0  0  0  0  0  0  0  0  0  0  0
  -21.6372   -4.6295   24.7571 C   0  0  0  0  0  0  0  0  0  0  0  0
  -22.7842   -4.7580   22.6347 C   0  0  0  0  0  0  0  0  0  0  0  0
  -24.1415  -11.8440   21.2888 C   0  0  0  0  0  0  0  0  0  0  0  0
  -24.4403  -13.9679   21.7734 C   0  0  0  0  0  0  0  0  0  0  0  0
  -29.5551  -24.6939   21.6421 C   0  0  0  0  0  0  0  0  0  0  0  0
  -29.8907  -25.8526   22.2279 C   0  0  0  0  0  0  0  0  0  0  0  0
  -22.6196  -12.8718   23.0895 C   0  0  0  0  0  0  0  0  0  0  0  0
  -25.3906  -33.4102   21.8497 C   0  0  0  0  0  0  0  0  0  0  0  0
  -22.8535  -31.3988   22.0496 C   0  0  0  0  0  0  0  0  0  0  0  0
  -21.6958  -28.1885   22.0677 C   0  0  0  0  0  0  0  0  0  0  0  0
  -29.3860  -16.2530   20.6237 C   0  0  0  0  0  0  0  0  0  0  0  0
  -24.3308  -38.3997   22.0473 C   0  0  0  0  0  0  0  0  0  0  0  0
  -25.7437  -31.9519   19.8237 C   0  0  0  0  0  0  0  0  0  0  0  0
  -25.1413  -30.3517   22.2365 C   0  0  0  0  0  0  0  0  0  0  0  0
  -23.7402  -37.1330   22.6613 C   0  0  0  0  0  0  0  0  0  0  0  0
  -27.6839  -14.6380   17.9457 C   0  0  0  0  0  0  0  0  0  0  0  0
  -24.8401  -36.2782   23.2828 C   0  0  0  0  0  0  0  0  0  0  0  0
  -26.5715  -13.8527   18.6442 C   0  0  0  0  0  0  0  0  0  0  0  0
  -28.9708  -14.6525   18.7687 C   0  0  0  0  0  0  0  0  0  0  0  0
  -27.7028  -14.3219   20.8549 C   0  0  0  0  0  0  0  0  0  0  0  0
  -25.8526  -35.8263   22.2235 C   0  0  1  0  0  0  0  0  0  0  0  0
  -24.7653  -32.4401   20.8876 C   0  0  1  0  0  0  0  0  0  0  0  0
  -26.3669  -14.3340   20.0941 C   0  0  2  0  0  0  0  0  0  0  0  0
  -30.1766  -18.6881   26.2807 C   0  0  0  0  0  0  0  0  0  0  0  0
  -29.1177  -16.4277   24.7859 C   0  0  0  0  0  0  0  0  0  0  0  0
  -19.5786  -26.8591   22.2851 C   0  0  0  0  0  0  0  0  0  0  0  0
  -22.8435  -31.9114   25.0574 C   0  0  0  0  0  0  0  0  0  0  0  0
  -21.3889  -29.8915   25.3264 C   0  0  0  0  0  0  0  0  0  0  0  0
  -20.5767  -31.8439   24.0031 C   0  0  0  0  0  0  0  0  0  0  0  0
  -22.0193  -27.0138   19.3706 C   0  0  0  0  0  0  0  0  0  0  0  0
  -30.9666  -21.1576   22.0117 C   0  0  0  0  0  0  0  0  0  0  0  0
  -30.5001  -23.5498   21.4656 C   0  0  0  0  0  0  0  0  0  0  0  0
  -28.9467  -26.9965   22.4053 C   0  0  0  0  0  0  0  0  0  1  0  0
  -22.3865  -30.3624   23.0430 C   0  0  1  0  0  0  0  0  0  0  0  0
  -20.5497  -27.5268   21.3240 C   0  0  2  0  0  0  0  0  0  0  0  0
  -21.8242  -31.0003   24.3447 C   0  0  0  0  0  0  0  0  0  0  0  0
  -25.1395  -12.2322   20.4905 N   0  0  0  0  0  0  0  0  0  0  0  0
  -25.2980  -13.5283   20.8084 N   0  0  0  0  0  0  0  0  0  0  0  0
  -24.2066  -31.3471   21.6860 N   0  0  0  0  0  0  0  0  0  0  0  0
  -28.7006  -15.1233   20.1289 N   0  0  0  0  0  0  0  0  0  0  0  0
  -24.4638  -15.2446   22.2116 N   0  0  0  0  0  0  0  0  0  0  0  0
  -21.9255  -11.6744   23.3105 N   0  0  0  0  0  0  0  0  0  0  0  0
  -29.0228  -16.6270   21.9171 N   0  0  0  0  0  0  0  0  0  0  0  0
  -25.3158  -34.7298   21.4465 N   0  0  0  0  0  0  0  0  0  0  0  0
  -21.4340  -29.5161   22.3325 N   0  0  0  0  0  0  0  0  0  0  0  0
  -21.0697  -26.4915   20.3866 N   0  3  0  0  0  0  0  0  0  0  0  0
  -30.0236  -22.3028   22.1183 N   0  3  0  0  0  0  0  0  0  0  0  0
  -22.2979  -13.8965   23.7376 O   0  0  0  0  0  0  0  0  0  0  0  0
  -25.9017  -32.9926   22.8822 O   0  0  0  0  0  0  0  0  0  0  0  0
  -22.0458  -32.2194   21.6070 O   0  0  0  0  0  0  0  0  0  0  0  0
  -22.7193  -27.5868   22.3854 O   0  0  0  0  0  0  0  0  0  0  0  0
  -30.2129  -16.8614   19.9396 O   0  0  0  0  0  0  0  0  0  0  0  0
  -22.3020   -6.5663   21.1193 O   0  0  0  0  0  0  0  0  0  0  0  0
  -29.4732  -28.1355   21.7257 O   0  0  0  0  0  0  0  0  0  1  0  0
  -21.4248   -4.0095   25.9253 F   0  0  0  0  0  0  0  0  0  0  0  0
  -23.6747   -4.2561   21.7681 F   0  0  0  0  0  0  0  0  0  0  0  0
  1  2  1  0  0  0  0
  1  5  2  0  0  0  0
  2  6  2  0  0  0  0
  3  8  2  0  0  0  0
  3 17  1  0  0  0  0
  4  9  1  0  0  0  0
  4 17  2  0  0  0  0
  5 19  1  0  0  0  0
  6 21  1  0  0  0  0
  7 10  2  0  0  0  0
  7 20  1  0  0  0  0
  8 27  1  0  0  0  0
  9 27  2  0  0  0  0
 10 28  1  0  0  0  0
 11 12  2  0  0  0  0
 11 29  1  0  0  0  0
 12 30  1  0  0  0  0
 13 22  1  0  0  0  0
 13 28  2  0  0  0  0
 14 23  1  0  0  0  0
 14 24  2  0  0  0  0
 15 23  2  0  0  0  0
 15 26  1  0  0  0  0
 16 30  2  0  0  0  0
 16 31  1  0  0  0  0
 17 32  1  0  0  0  0
 18 32  1  0  0  0  0
 18 33  2  0  0  0  0
 18 36  1  0  0  0  0
 19 21  2  0  0  0  0
 19 41  1  0  0  0  0
 20 22  2  0  0  0  0
 20 42  1  0  0  0  0
 21 50  1  0  0  0  0
 22 43  1  0  0  0  0
 23 60  1  0  0  0  0
 24 25  1  0  0  0  0
 24 53  1  0  0  0  0
 25 26  2  0  0  0  0
 25 54  1  0  0  0  0
 26 72  1  0  0  0  0
 27 82  1  0  0  0  0
 28 83  1  0  0  0  0
 29 31  2  0  0  0  0
 29 82  1  0  0  0  0
 30 84  1  0  0  0  0
 31 85  1  0  0  0  0
 32 66  2  0  0  0  0
 33 67  1  0  0  0  0
 33 70  1  0  0  0  0
 34 35  2  0  0  0  0
 34 61  1  0  0  0  0
 35 62  1  0  0  0  0
 36 71  1  0  0  0  0
 36 77  2  0  0  0  0
 37 51  1  0  0  0  0
 37 73  1  0  0  0  0
 37 78  2  0  0  0  0
 38 63  1  0  0  0  0
 38 68  1  0  0  0  0
 38 79  2  0  0  0  0
 39 64  1  0  0  0  0
 39 74  1  0  0  0  0
 39 80  2  0  0  0  0
 40 69  1  0  0  0  0
 40 72  1  0  0  0  0
 40 81  2  0  0  0  0
 41 44  1  0  0  0  0
 42 51  1  0  0  0  0
 43 68  1  0  0  0  0
 44 46  1  0  0  0  0
 45 47  1  0  0  0  0
 45 48  1  0  0  0  0
 46 50  1  0  0  0  0
 47 52  1  0  0  0  0
 48 69  1  0  0  0  0
 49 52  1  0  0  0  0
 49 69  1  0  0  0  0
 50 73  1  0  0  0  0
 51 68  1  0  0  0  0
 52 67  1  0  0  0  0
 55 64  1  0  0  0  0
 56 65  1  0  0  0  0
 57 65  1  0  0  0  0
 58 65  1  0  0  0  0
 59 75  1  0  0  0  0
 60 76  1  0  0  0  0
 61 76  1  0  0  0  0
 62 83  1  0  0  0  0
 63 65  1  0  0  0  0
 63 74  1  0  0  0  0
 64 75  1  0  0  0  0
 66 67  1  0  0  0  0
M  CHG  2  75   1  76   1
M  ISO  4  40 100  62 101  72 100  83 101
M  END
> <Batch ID>
0040

> <Smiles>
CNC(C)C(=O)NC(C(=O)N1Cc2cc([101O:1][101CH2:1]C=CCNCc3cc(C)c(C)c([100NH:0][100C:0](=O)N4CCCC(n5nc(-c6ccc(Oc7ccc(F)cc7F)cc6)c(C(N)=O)c5N)C4)c3)ccc2CC1C(=O)NC1CCCc2ccccc21)C(C)(C)C

> <Shape>
0.288

> <Color>
0.099

> <Negative vol penalty>
0.000

$$$$

  -OEChem-04042322063D

 94104  0     1  0  0  0  0  0999 V2000
  -25.8820  -36.8244   22.7804 C   0  0  0  0  0  0  0  0  0  0  0  0
  -26.3573  -35.7821   21.9911 C   0  0  0  0  0  0  0  0  0  0  0  0
  -22.7800  -10.4251   20.4988 C   0  0  0  0  0  0  0  0  0  0  0  0
  -24.5474   -9.0812   21.4513 C   0  0  0  0  0  0  0  0  0  0  0  0
  -25.5300  -36.5871   24.1084 C   0  0  0  0  0  0  0  0  0  0  0  0
  -26.4820  -34.5019   22.5298 C   0  0  0  0  0  0  0  0  0  0  0  0
  -25.6011  -29.1833   19.6243 C   0  0  0  0  0  0  0  0  0  0  0  0
  -21.8696   -9.8614   21.3925 C   0  0  0  0  0  0  0  0  0  0  0  0
  -23.6369   -8.5175   22.3451 C   0  0  0  0  0  0  0  0  0  0  0  0
  -26.4841  -28.2755   19.0412 C   0  0  0  0  0  0  0  0  0  0  0  0
  -21.2419   -6.1318   22.2887 C   0  0  0  0  0  0  0  0  0  0  0  0
  -21.2845   -4.7496   22.4717 C   0  0  0  0  0  0  0  0  0  0  0  0
  -26.4636  -26.9643   21.0659 C   0  0  0  0  0  0  0  0  0  0  0  0
  -29.0968  -18.4894   20.2759 C   0  0  0  0  0  0  0  0  0  0  0  0
  -21.7498   -5.0749   24.8201 C   0  0  0  0  0  0  0  0  0  0  0  0
  -24.1189  -10.0350   20.5281 C   0  0  0  0  0  0  0  0  0  0  0  0
  -26.7046  -18.2095   20.0861 C   0  0  0  0  0  0  0  0  0  0  0  0
  -25.0129  -10.5660   18.1986 C   0  0  0  0  0  0  0  0  0  0  0  0
  -25.6413  -35.3014   24.6609 C   0  0  0  0  0  0  0  0  0  0  0  0
  -25.1504  -28.9939   20.9386 C   0  0  0  0  0  0  0  0  0  0  0  0
  -26.1324  -34.2475   23.8668 C   0  0  0  0  0  0  0  0  0  0  0  0
  -25.5729  -27.8697   21.6624 C   0  0  0  0  0  0  0  0  0  0  0  0
  -28.9370  -19.8748   20.2477 C   0  0  0  0  0  0  0  0  0  0  0  0
  -26.5448  -19.5949   20.0579 C   0  0  0  0  0  0  0  0  0  0  0  0
  -27.6610  -20.4275   20.1388 C   0  0  0  0  0  0  0  0  0  0  0  0
  -27.9807  -17.6568   20.1950 C   0  0  0  0  0  0  0  0  0  0  0  0
  -22.2980   -8.9076   22.3157 C   0  0  0  0  0  0  0  0  0  0  0  0
  -26.9178  -27.1674   19.7630 C   0  0  0  0  0  0  0  0  0  0  0  0
  -21.4533   -6.9855   23.3714 C   0  0  0  0  0  0  0  0  0  0  0  0
  -21.5384   -4.2212   23.7374 C   0  0  0  0  0  0  0  0  0  0  0  0
  -21.7072   -6.4571   24.6371 C   0  0  0  0  0  0  0  0  0  0  0  0
  -25.0597  -10.6166   19.6046 C   0  0  0  0  0  0  0  0  0  0  0  0
  -26.1243  -11.2634   17.7927 C   0  0  0  0  0  0  0  0  0  0  0  0
  -24.8652  -16.9257   21.1086 C   0  0  0  0  0  0  0  0  0  0  0  0
  -25.5156  -17.3268   19.9993 C   0  0  0  0  0  0  0  0  0  0  0  0
  -27.4547  -22.4113   17.7345 C   0  0  0  0  0  0  0  0  0  0  0  0
  -27.8813  -21.4982   16.8490 C   0  0  0  0  0  0  0  0  0  0  0  0
  -24.0507   -9.9442   17.3365 C   0  0  0  0  0  0  0  0  0  0  0  0
  -25.3909  -30.6342   23.6507 C   0  0  0  0  0  0  0  0  0  0  0  0
  -23.3789  -28.3439   24.7592 C   0  0  0  0  0  0  0  0  0  0  0  0
  -23.0246  -24.7681   24.4342 C   0  0  0  0  0  0  0  0  0  0  0  0
  -29.3914  -15.5741   20.3321 C   0  0  0  0  0  0  0  0  0  0  0  0
  -25.2932  -35.1035   26.1150 C   0  0  0  0  0  0  0  0  0  0  0  0
  -24.1771  -29.9679   21.5438 C   0  0  0  0  0  0  0  0  0  0  0  0
  -25.1028  -27.6100   23.0696 C   0  0  0  0  0  0  0  0  0  0  0  0
  -23.6649  -16.0232   21.0943 C   0  0  0  0  0  0  0  0  0  0  0  0
  -25.0678  -16.8869   18.6234 C   0  0  0  0  0  0  0  0  0  0  0  0
  -26.2595  -23.2925   17.4927 C   0  0  0  0  0  0  0  0  0  0  0  0
  -25.1009  -33.6393   26.5014 C   0  0  0  0  0  0  0  0  0  0  0  0
  -23.4127  -15.3594   19.7415 C   0  0  0  0  0  0  0  0  0  0  0  0
  -23.6367  -16.3423   18.5992 C   0  0  0  0  0  0  0  0  0  0  0  0
  -26.6188  -24.7528   17.7391 C   0  0  0  0  0  0  0  0  0  0  0  0
  -30.5550  -12.4019   19.2095 C   0  0  0  0  0  0  0  0  0  0  0  0
  -26.2338  -32.7858   25.9402 C   0  0  0  0  0  0  0  0  0  0  0  0
  -29.2731  -11.5814   19.0496 C   0  0  0  0  0  0  0  0  0  0  0  0
  -30.4805  -13.3419   20.4114 C   0  0  0  0  0  0  0  0  0  0  0  0
  -28.0209  -13.3982   20.2819 C   0  0  0  0  0  0  0  0  0  0  0  0
  -28.5568  -24.0189   19.1778 C   0  0  0  0  0  0  0  0  0  0  0  0
  -26.2583  -32.8399   24.4079 C   0  0  1  0  0  0  0  0  0  0  0  0
  -24.1855  -29.9511   23.0693 C   0  0  1  0  0  0  0  0  0  0  0  0
  -28.0233  -12.4834   19.0462 C   0  0  2  0  0  0  0  0  0  0  0  0
  -27.3370  -24.9311   19.0766 C   0  0  1  0  0  0  0  0  0  1  0  0
  -30.1489  -20.7436   20.3337 C   0  0  0  0  0  0  0  0  0  0  0  0
  -25.1802  -20.2025   19.9424 C   0  0  0  0  0  0  0  0  0  0  0  0
  -29.0615  -20.6163   17.0685 C   0  0  0  0  0  0  0  0  0  0  0  0
  -20.9930  -23.3066   24.6177 C   0  0  0  0  0  0  0  0  0  0  0  0
  -24.2305  -28.0214   27.6713 C   0  0  0  0  0  0  0  0  0  0  0  0
  -23.5226  -25.6235   27.5401 C   0  0  0  0  0  0  0  0  0  0  0  0
  -21.8424  -27.4379   27.2121 C   0  0  0  0  0  0  0  0  0  0  0  0
  -23.4835  -23.5954   21.7559 C   0  0  0  0  0  0  0  0  0  0  0  0
  -27.4932  -21.9181   20.1076 C   0  0  0  0  0  0  0  0  0  0  0  0
  -23.5517  -26.9899   25.4039 C   0  0  1  0  0  0  0  0  0  0  0  0
  -21.9405  -24.0279   23.6719 C   0  0  2  0  0  0  0  0  0  0  0  0
  -23.3061  -27.0286   26.9387 C   0  0  0  0  0  0  0  0  0  0  0  0
  -26.1173  -11.2926   20.0613 N   0  0  0  0  0  0  0  0  0  0  0  0
  -26.7454  -11.6731   18.9358 N   0  0  0  0  0  0  0  0  0  0  0  0
  -24.1565  -28.5945   23.6197 N   0  0  0  0  0  0  0  0  0  0  0  0
  -29.2735  -14.1681   20.3382 N   0  0  0  0  0  0  0  0  0  0  0  0
  -26.6213  -11.5599   16.5730 N   0  0  0  0  0  0  0  0  0  0  0  0
  -24.2610   -8.6135   16.9502 N   0  0  0  0  0  0  0  0  0  0  0  0
  -28.1785  -16.2540   20.2266 N   0  0  0  0  0  0  0  0  0  0  0  0
  -25.2248  -31.9906   23.8557 N   0  0  0  0  0  0  0  0  0  0  0  0
  -22.6719  -26.0781   24.6808 N   0  0  0  0  0  0  0  0  0  0  0  0
  -28.2080  -22.5675   18.9551 N   0  3  1  0  0  0  0  0  0  0  0  0
  -22.5469  -23.0209   22.7558 N   0  3  0  0  0  0  0  0  0  0  0  0
  -23.0429  -10.5559   16.9077 O   0  0  0  0  0  0  0  0  0  0  0  0
  -26.3968  -29.9788   23.8966 O   0  0  0  0  0  0  0  0  0  0  0  0
  -22.5780  -29.1469   25.2444 O   0  0  0  0  0  0  0  0  0  0  0  0
  -24.0773  -24.2364   24.7799 O   0  0  0  0  0  0  0  0  0  0  0  0
  -30.4897  -16.1335   20.3870 O   0  0  0  0  0  0  0  0  0  0  0  0
  -21.4099   -8.3574   23.1882 O   0  0  0  0  0  0  0  0  0  0  0  0
  -27.7801  -26.2801   19.1964 O   0  0  0  0  0  0  0  0  0  1  0  0
  -21.5778   -2.8939   23.9133 F   0  0  0  0  0  0  0  0  0  0  0  0
  -21.9099   -7.2722   25.6812 F   0  0  0  0  0  0  0  0  0  0  0  0
  1  2  1  0  0  0  0
  1  5  2  0  0  0  0
  2  6  2  0  0  0  0
  3  8  2  0  0  0  0
  3 16  1  0  0  0  0
  4  9  1  0  0  0  0
  4 16  2  0  0  0  0
  5 19  1  0  0  0  0
  6 21  1  0  0  0  0
  7 10  2  0  0  0  0
  7 20  1  0  0  0  0
  8 27  1  0  0  0  0
  9 27  2  0  0  0  0
 10 28  1  0  0  0  0
 11 12  2  0  0  0  0
 11 29  1  0  0  0  0
 12 30  1  0  0  0  0
 13 22  1  0  0  0  0
 13 28  2  0  0  0  0
 14 23  2  0  0  0  0
 14 26  1  0  0  0  0
 15 30  2  0  0  0  0
 15 31  1  0  0  0  0
 16 32  1  0  0  0  0
 17 24  1  0  0  0  0
 17 26  2  0  0  0  0
 17 35  1  0  0  0  0
 18 32  1  0  0  0  0
 18 33  2  0  0  0  0
 18 38  1  0  0  0  0
 19 21  2  0  0  0  0
 19 43  1  0  0  0  0
 20 22  2  0  0  0  0
 20 44  1  0  0  0  0
 21 59  1  0  0  0  0
 22 45  1  0  0  0  0
 23 25  1  0  0  0  0
 23 63  1  0  0  0  0
 24 25  2  0  0  0  0
 24 64  1  0  0  0  0
 25 71  1  0  0  0  0
 26 81  1  0  0  0  0
 27 91  1  0  0  0  0
 28 92  1  0  0  0  0
 29 31  2  0  0  0  0
 29 91  1  0  0  0  0
 30 93  1  0  0  0  0
 31 94  1  0  0  0  0
 32 75  2  0  0  0  0
 33 76  1  0  0  0  0
 33 79  1  0  0  0  0
 34 35  2  0  0  0  0
 34 46  1  0  0  0  0
 35 47  1  0  0  0  0
 36 37  2  0  0  0  0
 36 48  1  0  0  0  0
 36 84  1  0  0  0  0
 37 65  1  0  0  0  0
 38 80  1  0  0  0  0
 38 86  2  0  0  0  0
 39 60  1  0  0  0  0
 39 82  1  0  0  0  0
 39 87  2  0  0  0  0
 40 72  1  0  0  0  0
 40 77  1  0  0  0  0
 40 88  2  0  0  0  0
 41 73  1  0  0  0  0
 41 83  1  0  0  0  0
 41 89  2  0  0  0  0
 42 78  1  0  0  0  0
 42 81  1  0  0  0  0
 42 90  2  0  0  0  0
 43 49  1  0  0  0  0
 44 60  1  0  0  0  0
 45 77  1  0  0  0  0
 46 50  1  0  0  0  0
 47 51  1  0  0  0  0
 48 52  1  0  0  0  0
 49 54  1  0  0  0  0
 50 51  1  0  0  0  0
 52 62  1  0  0  0  0
 53 55  1  0  0  0  0
 53 56  1  0  0  0  0
 54 59  1  0  0  0  0
 55 61  1  0  0  0  0
 56 78  1  0  0  0  0
 57 61  1  0  0  0  0
 57 78  1  0  0  0  0
 58 62  1  0  0  0  0
 58 84  1  0  0  0  0
 59 82  1  0  0  0  0
 60 77  1  0  0  0  0
 61 76  1  0  0  0  0
 62 92  1  0  0  0  0
 66 73  1  0  0  0  0
 67 74  1  0  0  0  0
 68 74  1  0  0  0  0
 69 74  1  0  0  0  0
 70 85  1  0  0  0  0
 71 84  1  0  0  0  0
 72 74  1  0  0  0  0
 72 83  1  0  0  0  0
 73 85  1  0  0  0  0
 75 76  1  0  0  0  0
M  CHG  2  84   1  85   1
M  ISO  4  42 100  62 101  81 100  92 101
M  END
> <Batch ID>
0040

> <Smiles>
CC=C1CC[101CH:1]([101O:1]c2ccc3c(c2)CN(C(=O)C(NC(=O)C(C)NC)C(C)(C)C)C(C(=O)NC2CCCc4ccccc42)C3)CN1Cc1c(C)cc([100NH:0][100C:0](=O)N2CCCC(n3nc(-c4ccc(Oc5ccc(F)cc5F)cc4)c(C(N)=O)c3N)C2)c(C2=CCCCC2)c1C

> <Shape>
0.297

> <Color>
0.086

> <Negative vol penalty>
0.000

$$$$

  -OEChem-04042322063D

 85 93  0     1  0  0  0  0  0999 V2000
  -15.8692  -26.4937   19.3067 C   0  0  0  0  0  0  0  0  0  0  0  0
  -16.6286  -25.9040   20.3123 C   0  0  0  0  0  0  0  0  0  0  0  0
  -23.0001   -9.8949   19.9822 C   0  0  0  0  0  0  0  0  0  0  0  0
  -23.7311   -9.9442   22.2844 C   0  0  0  0  0  0  0  0  0  0  0  0
  -15.4144  -25.7246   18.2364 C   0  0  0  0  0  0  0  0  0  0  0  0
  -16.9326  -24.5446   20.2487 C   0  0  0  0  0  0  0  0  0  0  0  0
  -22.0856  -21.8319   22.1443 C   0  0  0  0  0  0  0  0  0  0  0  0
  -29.8287  -18.9629   21.0340 C   0  0  0  0  0  0  0  0  0  0  0  0
  -22.2351   -8.7595   20.2494 C   0  0  0  0  0  0  0  0  0  0  0  0
  -22.9662   -8.8089   22.5516 C   0  0  0  0  0  0  0  0  0  0  0  0
  -22.4084  -21.1447   23.3136 C   0  0  0  0  0  0  0  0  0  0  0  0
  -23.2119   -5.4706   22.0758 C   0  0  0  0  0  0  0  0  0  0  0  0
  -28.9565  -20.0448   21.1538 C   0  0  0  0  0  0  0  0  0  0  0  0
  -23.8022   -4.4531   22.8254 C   0  0  0  0  0  0  0  0  0  0  0  0
  -21.9290  -19.0539   22.2100 C   0  0  0  0  0  0  0  0  0  0  0  0
  -22.0824   -4.6930   24.5053 C   0  0  0  0  0  0  0  0  0  0  0  0
  -23.7481  -10.4872   20.9997 C   0  0  0  0  0  0  0  0  0  0  0  0
  -24.1310  -13.0033   20.8251 C   0  0  0  0  0  0  0  0  0  0  0  0
  -15.7211  -24.3572   18.1547 C   0  0  0  0  0  0  0  0  0  0  0  0
  -21.6709  -21.1348   21.0004 C   0  0  0  0  0  0  0  0  0  0  0  0
  -16.4803  -23.7563   19.1769 C   0  0  0  0  0  0  0  0  0  0  0  0
  -21.6040  -19.7345   21.0266 C   0  0  0  0  0  0  0  0  0  0  0  0
  -29.8768  -17.9918   22.0342 C   0  0  0  0  0  0  0  0  0  0  0  0
  -29.0529  -18.1027   23.1542 C   0  0  0  0  0  0  0  0  0  0  0  0
  -28.1807  -19.1846   23.2741 C   0  0  0  0  0  0  0  0  0  0  0  0
  -22.2181   -8.2165   21.5341 C   0  0  0  0  0  0  0  0  0  0  0  0
  -22.3274  -19.7557   23.3475 C   0  0  0  0  0  0  0  0  0  0  0  0
  -22.0569   -6.0994   22.5410 C   0  0  0  0  0  0  0  0  0  0  0  0
  -23.2375   -4.0643   24.0401 C   0  0  0  0  0  0  0  0  0  0  0  0
  -28.1325  -20.1557   22.2738 C   0  0  0  0  0  0  0  0  0  0  0  0
  -21.4922   -5.7106   23.7557 C   0  0  0  0  0  0  0  0  0  0  0  0
  -24.5390  -11.6597   20.7241 C   0  0  0  0  0  0  0  0  0  0  0  0
  -25.2393  -13.7271   20.4586 C   0  0  0  0  0  0  0  0  0  0  0  0
  -22.8636  -13.5483   21.2154 C   0  0  0  0  0  0  0  0  0  0  0  0
  -19.0175  -21.0712   19.2513 C   0  0  0  0  0  0  0  0  0  0  0  0
  -20.7915  -19.1461   17.3358 C   0  0  0  0  0  0  0  0  0  0  0  0
  -23.4240  -16.9961   17.0283 C   0  0  0  0  0  0  0  0  0  0  0  0
  -30.7355  -14.6658   20.6939 C   0  0  0  0  0  0  0  0  0  0  0  0
  -15.1673  -23.5566   17.0027 C   0  0  0  0  0  0  0  0  0  0  0  0
  -21.3519  -21.8892   19.7389 C   0  0  0  0  0  0  0  0  0  0  0  0
  -21.1838  -18.9379   19.8194 C   0  0  0  0  0  0  0  0  0  0  0  0
  -15.8492  -22.2034   16.8179 C   0  0  0  0  0  0  0  0  0  0  0  0
  -29.5907  -12.2435   18.3490 C   0  0  0  0  0  0  0  0  0  0  0  0
  -15.9822  -21.4853   18.1570 C   0  0  0  0  0  0  0  0  0  0  0  0
  -28.1435  -11.9822   18.7700 C   0  0  0  0  0  0  0  0  0  0  0  0
  -30.4961  -12.4784   19.5561 C   0  0  0  0  0  0  0  0  0  0  0  0
  -28.5888  -13.2711   20.9006 C   0  0  0  0  0  0  0  0  0  0  0  0
  -16.8517  -22.2900   19.1306 C   0  0  1  0  0  0  0  0  0  0  0  0
  -20.4468  -21.1102   18.7895 C   0  0  1  0  0  0  0  0  0  0  0  0
  -27.6268  -13.0839   19.7149 C   0  0  2  0  0  0  0  0  0  0  0  0
  -29.1045  -17.0610   24.2263 C   0  0  0  0  0  0  0  0  0  0  0  0
  -24.6024  -15.5524   15.3476 C   0  0  0  0  0  0  0  0  0  0  0  0
  -18.5390  -17.0963   17.5208 C   0  0  0  0  0  0  0  0  0  0  0  0
  -20.1329  -15.3700   16.6563 C   0  0  0  0  0  0  0  0  0  0  0  0
  -19.5436  -17.3397   15.2435 C   0  0  0  0  0  0  0  0  0  0  0  0
  -25.9565  -18.4946   17.3442 C   0  0  0  0  0  0  0  0  0  0  0  0
  -30.8196  -16.8436   21.8809 C   0  0  0  0  0  0  0  0  0  0  0  0
  -27.2848  -19.3245   24.4694 C   0  0  0  0  0  0  0  0  0  0  0  0
  -24.0979  -17.4788   25.5172 C   0  0  0  0  0  0  0  0  0  0  0  0
  -25.2567  -18.4566   25.6408 C   0  0  0  0  0  0  0  0  0  0  0  0
  -23.1752  -17.7674   24.3394 C   0  0  0  0  0  0  0  0  0  1  0  0
  -21.0442  -17.6601   17.2529 C   0  0  1  0  0  0  0  0  0  0  0  0
  -24.5486  -16.9196   16.0115 C   0  0  2  0  0  0  0  0  0  0  0  0
  -19.8210  -16.8813   16.6919 C   0  0  0  0  0  0  0  0  0  0  0  0
  -25.8073  -11.5346   20.3246 N   0  0  0  0  0  0  0  0  0  0  0  0
  -26.2059  -12.8088   20.1712 N   0  0  0  0  0  0  0  0  0  0  0  0
  -20.8760  -19.7215   18.6116 N   0  0  0  0  0  0  0  0  0  0  0  0
  -29.9506  -13.5359   20.4106 N   0  0  0  0  0  0  0  0  0  0  0  0
  -25.4714  -15.0531   20.3572 N   0  0  0  0  0  0  0  0  0  0  0  0
  -21.8334  -12.6630   21.5607 N   0  0  0  0  0  0  0  0  0  0  0  0
  -18.2531  -22.1324   18.8054 N   0  0  0  0  0  0  0  0  0  0  0  0
  -22.2658  -17.4967   16.4722 N   0  0  0  0  0  0  0  0  0  0  0  0
  -30.1405  -15.6233   21.5062 N   0  0  0  0  0  0  0  0  0  0  0  0
  -25.8608  -17.1740   16.6705 N   0  3  0  0  0  0  0  0  0  0  0  0
  -26.1270  -18.3884   24.4435 N   0  3  0  0  0  0  0  0  0  0  0  0
  -22.6460  -14.7834   21.2409 O   0  0  0  0  0  0  0  0  0  0  0  0
  -18.6361  -20.1460   19.9586 O   0  0  0  0  0  0  0  0  0  0  0  0
  -20.5359  -19.7745   16.3056 O   0  0  0  0  0  0  0  0  0  0  0  0
  -23.5583  -16.6433   18.1979 O   0  0  0  0  0  0  0  0  0  0  0  0
  -31.8797  -14.8130   20.2510 O   0  0  0  0  0  0  0  0  0  0  0  0
  -21.4716   -7.1088   21.7952 O   0  0  0  0  0  0  0  0  0  0  0  0
  -22.6413  -19.0824   24.4877 O   0  0  0  0  0  0  0  0  0  1  0  0
  -23.8035   -3.0862   24.7591 F   0  0  0  0  0  0  0  0  0  0  0  0
  -27.2976  -21.1992   22.3790 F   0  0  0  0  0  0  0  0  0  0  0  0
  -20.3820   -6.3101   24.2072 F   0  0  0  0  0  0  0  0  0  0  0  0
  1  2  1  0  0  0  0
  1  5  2  0  0  0  0
  2  6  2  0  0  0  0
  3  9  2  0  0  0  0
  3 17  1  0  0  0  0
  4 10  1  0  0  0  0
  4 17  2  0  0  0  0
  5 19  1  0  0  0  0
  6 21  1  0  0  0  0
  7 11  2  0  0  0  0
  7 20  1  0  0  0  0
  8 13  1  0  0  0  0
  8 23  2  0  0  0  0
  9 26  1  0  0  0  0
 10 26  2  0  0  0  0
 11 27  1  0  0  0  0
 12 14  2  0  0  0  0
 12 28  1  0  0  0  0
 13 30  2  0  0  0  0
 14 29  1  0  0  0  0
 15 22  1  0  0  0  0
 15 27  2  0  0  0  0
 16 29  2  0  0  0  0
 16 31  1  0  0  0  0
 17 32  1  0  0  0  0
 18 32  1  0  0  0  0
 18 33  2  0  0  0  0
 18 34  1  0  0  0  0
 19 21  2  0  0  0  0
 19 39  1  0  0  0  0
 20 22  2  0  0  0  0
 20 40  1  0  0  0  0
 21 48  1  0  0  0  0
 22 41  1  0  0  0  0
 23 24  1  0  0  0  0
 23 57  1  0  0  0  0
 24 25  2  0  0  0  0
 24 51  1  0  0  0  0
 25 30  1  0  0  0  0
 25 58  1  0  0  0  0
 26 81  1  0  0  0  0
 27 82  1  0  0  0  0
 28 31  2  0  0  0  0
 28 81  1  0  0  0  0
 29 83  1  0  0  0  0
 30 84  1  0  0  0  0
 31 85  1  0  0  0  0
 32 65  2  0  0  0  0
 33 66  1  0  0  0  0
 33 69  1  0  0  0  0
 34 70  1  0  0  0  0
 34 76  2  0  0  0  0
 35 49  1  0  0  0  0
 35 71  1  0  0  0  0
 35 77  2  0  0  0  0
 36 62  1  0  0  0  0
 36 67  1  0  0  0  0
 36 78  2  0  0  0  0
 37 63  1  0  0  0  0
 37 72  1  0  0  0  0
 37 79  2  0  0  0  0
 38 68  1  0  0  0  0
 38 73  1  0  0  0  0
 38 80  2  0  0  0  0
 39 42  1  0  0  0  0
 40 49  1  0  0  0  0
 41 67  1  0  0  0  0
 42 44  1  0  0  0  0
 43 45  1  0  0  0  0
 43 46  1  0  0  0  0
 44 48  1  0  0  0  0
 45 50  1  0  0  0  0
 46 68  1  0  0  0  0
 47 50  1  0  0  0  0
 47 68  1  0  0  0  0
 48 71  1  0  0  0  0
 49 67  1  0  0  0  0
 50 66  1  0  0  0  0
 52 63  1  0  0  0  0
 53 64  1  0  0  0  0
 54 64  1  0  0  0  0
 55 64  1  0  0  0  0
 56 74  1  0  0  0  0
 57 73  1  0  0  0  0
 58 75  1  0  0  0  0
 59 60  1  0  0  0  0
 59 61  1  0  0  0  0
 60 75  1  0  0  0  0
 61 82  1  0  0  0  0
 62 64  1  0  0  0  0
 62 72  1  0  0  0  0
 63 74  1  0  0  0  0
 65 66  1  0  0  0  0
M  CHG  2  74   1  75   1
M  ISO  4  38 100  61 101  73 100  82 101
M  END
> <Batch ID>
0040

> <Smiles>
CNC(C)C(=O)NC(C(=O)N1Cc2cc([101O:1][101CH2:1]CCNCc3c(F)ccc(C[100NH:0][100C:0](=O)N4CCCC(n5nc(-c6ccc(Oc7ccc(F)cc7F)cc6)c(C(N)=O)c5N)C4)c3C)ccc2CC1C(=O)NC1CCCc2ccccc21)C(C)(C)C

> <Shape>
0.188

> <Color>
0.197

> <Negative vol penalty>
0.000

$$$$

  -OEChem-04042322063D

 88 97  0     1  0  0  0  0  0999 V2000
  -18.5346  -28.5818   22.7572 C   0  0  0  0  0  0  0  0  0  0  0  0
  -19.9114  -28.6735   22.9346 C   0  0  0  0  0  0  0  0  0  0  0  0
  -24.6187  -15.0342   20.6311 C   0  0  0  0  0  0  0  0  0  0  0  0
  -23.4725  -14.3068   22.6296 C   0  0  0  0  0  0  0  0  0  0  0  0
  -17.9693  -27.3911   22.3027 C   0  0  0  0  0  0  0  0  0  0  0  0
  -20.7236  -27.5742   22.6586 C   0  0  0  0  0  0  0  0  0  0  0  0
  -24.8680  -28.8309   20.0337 C   0  0  0  0  0  0  0  0  0  0  0  0
  -24.1651  -13.8998   19.9581 C   0  0  0  0  0  0  0  0  0  0  0  0
  -23.0188  -13.1724   21.9566 C   0  0  0  0  0  0  0  0  0  0  0  0
  -25.9159  -29.4184   20.7412 C   0  0  0  0  0  0  0  0  0  0  0  0
  -24.2542  -10.1648   21.0299 C   0  0  0  0  0  0  0  0  0  0  0  0
  -24.3451   -8.9397   21.6904 C   0  0  0  0  0  0  0  0  0  0  0  0
  -27.0538  -27.2924   20.8091 C   0  0  0  0  0  0  0  0  0  0  0  0
  -25.8531  -24.8409   25.3737 C   0  0  0  0  0  0  0  0  0  0  0  0
  -27.2630  -24.0816   23.5647 C   0  0  0  0  0  0  0  0  0  0  0  0
  -21.9486   -8.6766   21.5322 C   0  0  0  0  0  0  0  0  0  0  0  0
  -24.2724  -15.2377   21.9670 C   0  0  0  0  0  0  0  0  0  0  0  0
  -26.0788  -16.7848   22.8894 C   0  0  0  0  0  0  0  0  0  0  0  0
  -18.7759  -26.2797   22.0117 C   0  0  0  0  0  0  0  0  0  0  0  0
  -24.9001  -27.4651   19.7176 C   0  0  0  0  0  0  0  0  0  0  0  0
  -20.1684  -26.3671   22.2010 C   0  0  0  0  0  0  0  0  0  0  0  0
  -26.0062  -26.6906   20.0954 C   0  0  0  0  0  0  0  0  0  0  0  0
  -26.8683  -25.6936   25.8071 C   0  0  0  0  0  0  0  0  0  0  0  0
  -28.2783  -24.9343   23.9980 C   0  0  0  0  0  0  0  0  0  0  0  0
  -28.0809  -25.7403   25.1193 C   0  0  0  0  0  0  0  0  0  0  0  0
  -26.0504  -24.0348   24.2525 C   0  0  0  0  0  0  0  0  0  0  0  0
  -23.3651  -12.9690   20.6207 C   0  0  0  0  0  0  0  0  0  0  0  0
  -27.0077  -28.6485   21.1315 C   0  0  0  0  0  0  0  0  0  0  0  0
  -23.0105  -10.6459   20.6206 C   0  0  0  0  0  0  0  0  0  0  0  0
  -23.1923   -8.1955   21.9416 C   0  0  0  0  0  0  0  0  0  0  0  0
  -21.8578   -9.9018   20.8717 C   0  0  0  0  0  0  0  0  0  0  0  0
  -24.7412  -16.4090   22.6630 C   0  0  0  0  0  0  0  0  0  0  0  0
  -25.9906  -17.9639   23.5884 C   0  0  0  0  0  0  0  0  0  0  0  0
  -27.2926  -16.1270   22.5025 C   0  0  0  0  0  0  0  0  0  0  0  0
  -23.0931  -24.9521   20.4411 C   0  0  0  0  0  0  0  0  0  0  0  0
  -25.0375  -23.4378   18.3320 C   0  0  0  0  0  0  0  0  0  0  0  0
  -28.5612  -23.3998   17.5579 C   0  0  0  0  0  0  0  0  0  0  0  0
  -23.7560  -23.0023   24.3787 C   0  0  0  0  0  0  0  0  0  0  0  0
  -18.1145  -24.9989   21.5679 C   0  0  0  0  0  0  0  0  0  0  0  0
  -23.7742  -26.8523   18.9307 C   0  0  0  0  0  0  0  0  0  0  0  0
  -26.0985  -25.2245   19.7629 C   0  0  0  0  0  0  0  0  0  0  0  0
  -19.0826  -23.9991   20.9406 C   0  0  0  0  0  0  0  0  0  0  0  0
  -27.9548  -30.8690   25.2409 C   0  0  0  0  0  0  0  0  0  0  0  0
  -22.0096  -20.2202   25.7524 C   0  0  0  0  0  0  0  0  0  0  0  0
  -20.3405  -23.8671   21.7933 C   0  0  0  0  0  0  0  0  0  0  0  0
  -22.6746  -19.0115   25.0897 C   0  0  0  0  0  0  0  0  0  0  0  0
  -27.8913  -30.6672   23.7286 C   0  0  0  0  0  0  0  0  0  0  0  0
  -29.3337  -30.5472   25.8146 C   0  0  0  0  0  0  0  0  0  0  0  0
  -21.8991  -21.4037   24.7927 C   0  0  0  0  0  0  0  0  0  0  0  0
  -23.8227  -20.5912   23.4855 C   0  0  0  0  0  0  0  0  0  0  0  0
  -29.1040  -28.3925   23.7805 C   0  0  0  0  0  0  0  0  0  0  0  0
  -21.0851  -25.2042   21.8887 C   0  0  1  0  0  0  0  0  0  0  0  0
  -23.6729  -25.3408   19.1106 C   0  0  1  0  0  0  0  0  0  0  0  0
  -24.0149  -19.3956   24.4327 C   0  0  2  0  0  0  0  0  0  0  0  0
  -27.9350  -29.2166   23.2500 C   0  0  2  0  0  0  0  0  0  1  0  0
  -29.5739  -29.0818   26.2094 C   0  0  2  0  0  0  0  0  0  0  0  0
  -26.6320  -26.5459   27.0108 C   0  0  0  0  0  0  0  0  0  0  0  0
  -29.5672  -24.9654   23.2438 C   0  0  0  0  0  0  0  0  0  0  0  0
  -31.0709  -28.8051   26.3587 C   0  0  0  0  0  0  0  0  0  0  0  0
  -29.7551  -22.8744   15.4140 C   0  0  0  0  0  0  0  0  0  0  0  0
  -25.2299  -20.6130   19.4692 C   0  0  0  0  0  0  0  0  0  0  0  0
  -27.5308  -20.4526   18.4955 C   0  0  0  0  0  0  0  0  0  0  0  0
  -25.5626  -20.7665   16.9954 C   0  0  0  0  0  0  0  0  0  0  0  0
  -29.9849  -25.9943   17.5796 C   0  0  0  0  0  0  0  0  0  0  0  0
  -29.1726  -26.6579   25.5852 C   0  0  0  0  0  0  0  0  0  0  0  0
  -26.3481  -22.6949   18.4294 C   0  0  1  0  0  0  0  0  0  0  0  0
  -29.2261  -23.9751   16.3204 C   0  0  2  0  0  0  0  0  0  0  0  0
  -26.1612  -21.1527   18.3655 C   0  0  0  0  0  0  0  0  0  0  0  0
  -23.8672  -17.2787   23.1766 N   0  0  0  0  0  0  0  0  0  0  0  0
  -24.6574  -18.2127   23.7328 N   0  0  0  0  0  0  0  0  0  0  0  0
  -24.9696  -24.6700   18.9975 N   0  0  0  0  0  0  0  0  0  0  0  0
  -23.2076  -21.7129   24.2122 N   0  0  0  0  0  0  0  0  0  0  0  0
  -26.9241  -18.8016   24.0875 N   0  0  0  0  0  0  0  0  0  0  0  0
  -27.8610  -16.4490   21.2625 N   0  0  0  0  0  0  0  0  0  0  0  0
  -25.0189  -23.1693   23.8113 N   0  0  0  0  0  0  0  0  0  0  0  0
  -21.8278  -25.4571   20.6726 N   0  0  0  0  0  0  0  0  0  0  0  0
  -27.2037  -23.2372   17.3795 N   0  0  0  0  0  0  0  0  0  0  0  0
  -28.9097  -28.1070   25.2524 N   0  3  2  0  0  0  0  0  0  0  0  0
  -30.3657  -24.8546   16.7061 N   0  3  0  0  0  0  0  0  0  0  0  0
  -27.8476  -15.2668   23.2274 O   0  0  0  0  0  0  0  0  0  0  0  0
  -23.7448  -24.2452   21.2009 O   0  0  0  0  0  0  0  0  0  0  0  0
  -24.1106  -22.9464   17.6832 O   0  0  0  0  0  0  0  0  0  0  0  0
  -29.1845  -23.1189   18.5793 O   0  0  0  0  0  0  0  0  0  0  0  0
  -23.1619  -23.8845   25.0037 O   0  0  0  0  0  0  0  0  0  0  0  0
  -22.9221  -11.8621   19.9642 O   0  0  0  0  0  0  0  0  0  0  0  0
  -28.0316  -29.2193   21.8227 O   0  0  0  0  0  0  0  0  0  1  0  0
  -23.2799   -7.0183   22.5745 F   0  0  0  0  0  0  0  0  0  0  0  0
  -20.6603  -10.3583   20.4798 F   0  0  0  0  0  0  0  0  0  0  0  0
  1  2  1  0  0  0  0
  1  5  2  0  0  0  0
  2  6  2  0  0  0  0
  3  8  2  0  0  0  0
  3 17  1  0  0  0  0
  4  9  1  0  0  0  0
  4 17  2  0  0  0  0
  5 19  1  0  0  0  0
  6 21  1  0  0  0  0
  7 10  2  0  0  0  0
  7 20  1  0  0  0  0
  8 27  1  0  0  0  0
  9 27  2  0  0  0  0
 10 28  1  0  0  0  0
 11 12  2  0  0  0  0
 11 29  1  0  0  0  0
 12 30  1  0  0  0  0
 13 22  1  0  0  0  0
 13 28  2  0  0  0  0
 14 23  2  0  0  0  0
 14 26  1  0  0  0  0
 15 24  1  0  0  0  0
 15 26  2  0  0  0  0
 16 30  2  0  0  0  0
 16 31  1  0  0  0  0
 17 32  1  0  0  0  0
 18 32  1  0  0  0  0
 18 33  2  0  0  0  0
 18 34  1  0  0  0  0
 19 21  2  0  0  0  0
 19 39  1  0  0  0  0
 20 22  2  0  0  0  0
 20 40  1  0  0  0  0
 21 52  1  0  0  0  0
 22 41  1  0  0  0  0
 23 25  1  0  0  0  0
 23 57  1  0  0  0  0
 24 25  2  0  0  0  0
 24 58  1  0  0  0  0
 25 65  1  0  0  0  0
 26 75  1  0  0  0  0
 27 85  1  0  0  0  0
 28 86  1  0  0  0  0
 29 31  2  0  0  0  0
 29 85  1  0  0  0  0
 30 87  1  0  0  0  0
 31 88  1  0  0  0  0
 32 69  2  0  0  0  0
 33 70  1  0  0  0  0
 33 73  1  0  0  0  0
 34 74  1  0  0  0  0
 34 80  2  0  0  0  0
 35 53  1  0  0  0  0
 35 76  1  0  0  0  0
 35 81  2  0  0  0  0
 36 66  1  0  0  0  0
 36 71  1  0  0  0  0
 36 82  2  0  0  0  0
 37 67  1  0  0  0  0
 37 77  1  0  0  0  0
 37 83  2  0  0  0  0
 38 72  1  0  0  0  0
 38 75  1  0  0  0  0
 38 84  2  0  0  0  0
 39 42  1  0  0  0  0
 40 53  1  0  0  0  0
 41 71  1  0  0  0  0
 42 45  1  0  0  0  0
 43 47  1  0  0  0  0
 43 48  1  0  0  0  0
 44 46  1  0  0  0  0
 44 49  1  0  0  0  0
 45 52  1  0  0  0  0
 46 54  1  0  0  0  0
 47 55  1  0  0  0  0
 48 56  1  0  0  0  0
 49 72  1  0  0  0  0
 50 54  1  0  0  0  0
 50 72  1  0  0  0  0
 51 55  1  0  0  0  0
 51 78  1  0  0  0  0
 52 76  1  0  0  0  0
 53 71  1  0  0  0  0
 54 70  1  0  0  0  0
 55 86  1  0  0  0  0
 56 59  1  0  0  0  0
 56 78  1  0  0  0  0
 60 67  1  0  0  0  0
 61 68  1  0  0  0  0
 62 68  1  0  0  0  0
 63 68  1  0  0  0  0
 64 79  1  0  0  0  0
 65 78  1  0  0  0  0
 66 68  1  0  0  0  0
 66 77  1  0  0  0  0
 67 79  1  0  0  0  0
 69 70  1  0  0  0  0
M  CHG  2  78   1  79   1
M  ISO  4  38 100  55 101  75 100  86 101
M  END
> <Batch ID>
0040

> <Smiles>
CNC(C)C(=O)NC(C(=O)N1Cc2cc([101O:1][101CH:1]3CCCC(C)N(Cc4c(C)cc([100NH:0][100C:0](=O)N5CCCC(n6nc(-c7ccc(Oc8ccc(F)cc8F)cc7)c(C(N)=O)c6N)C5)cc4C)C3)ccc2CC1C(=O)NC1CCCc2ccccc21)C(C)(C)C

> <Shape>
0.189

> <Color>
0.069

> <Negative vol penalty>
0.000

$$$$

  -OEChem-04042322063D

 86 94  0     1  0  0  0  0  0999 V2000
  -30.3269  -32.0689   26.3937 C   0  0  0  0  0  0  0  0  0  0  0  0
  -30.7656  -30.8200   26.8218 C   0  0  0  0  0  0  0  0  0  0  0  0
  -23.0025   -9.8900   19.9825 C   0  0  0  0  0  0  0  0  0  0  0  0
  -23.7234   -9.9478   22.2878 C   0  0  0  0  0  0  0  0  0  0  0  0
  -29.0557  -32.5190   26.7478 C   0  0  0  0  0  0  0  0  0  0  0  0
  -29.9336  -30.0209   27.6052 C   0  0  0  0  0  0  0  0  0  0  0  0
  -29.8810  -25.1918   26.0814 C   0  0  0  0  0  0  0  0  0  0  0  0
  -32.6365  -17.4587   23.4553 C   0  0  0  0  0  0  0  0  0  0  0  0
  -32.0506  -16.5601   22.5639 C   0  0  0  0  0  0  0  0  0  0  0  0
  -22.2362   -8.7558   20.2506 C   0  0  0  0  0  0  0  0  0  0  0  0
  -22.9570   -8.8136   22.5559 C   0  0  0  0  0  0  0  0  0  0  0  0
  -30.9697  -24.3987   26.4413 C   0  0  0  0  0  0  0  0  0  0  0  0
  -23.2043   -5.4735   22.0937 C   0  0  0  0  0  0  0  0  0  0  0  0
  -23.7911   -4.4588   22.8497 C   0  0  0  0  0  0  0  0  0  0  0  0
  -29.6782  -23.4563   28.2477 C   0  0  0  0  0  0  0  0  0  0  0  0
  -29.8705  -17.4573   23.0926 C   0  0  0  0  0  0  0  0  0  0  0  0
  -22.0639   -4.7053   24.5210 C   0  0  0  0  0  0  0  0  0  0  0  0
  -23.7462  -10.4860   21.0011 C   0  0  0  0  0  0  0  0  0  0  0  0
  -24.1302  -13.0014   20.8188 C   0  0  0  0  0  0  0  0  0  0  0  0
  -28.2041  -31.7210   27.5278 C   0  0  0  0  0  0  0  0  0  0  0  0
  -28.6843  -25.1310   26.8099 C   0  0  0  0  0  0  0  0  0  0  0  0
  -28.6504  -30.4613   27.9712 C   0  0  0  0  0  0  0  0  0  0  0  0
  -28.5750  -24.2479   27.8935 C   0  0  0  0  0  0  0  0  0  0  0  0
  -31.8395  -18.3566   24.1655 C   0  0  0  0  0  0  0  0  0  0  0  0
  -30.6675  -16.5594   22.3825 C   0  0  0  0  0  0  0  0  0  0  0  0
  -22.2134   -8.2176   21.5373 C   0  0  0  0  0  0  0  0  0  0  0  0
  -30.8693  -23.5329   27.5264 C   0  0  0  0  0  0  0  0  0  0  0  0
  -22.0473   -6.1042   22.5513 C   0  0  0  0  0  0  0  0  0  0  0  0
  -23.2209   -4.0746   24.0633 C   0  0  0  0  0  0  0  0  0  0  0  0
  -21.4772   -5.7201   23.7650 C   0  0  0  0  0  0  0  0  0  0  0  0
  -30.4565  -18.3559   23.9841 C   0  0  0  0  0  0  0  0  0  0  0  0
  -24.5384  -11.6574   20.7247 C   0  0  0  0  0  0  0  0  0  0  0  0
  -25.2402  -13.7236   20.4545 C   0  0  0  0  0  0  0  0  0  0  0  0
  -31.9360  -19.7815   28.8056 C   0  0  0  0  0  0  0  0  0  0  0  0
  -30.6920  -19.3408   29.0334 C   0  0  0  0  0  0  0  0  0  0  0  0
  -22.8612  -13.5481   21.2015 C   0  0  0  0  0  0  0  0  0  0  0  0
  -32.4434  -19.9385   27.4089 C   0  0  0  0  0  0  0  0  0  0  0  0
  -26.9995  -27.2037   28.5329 C   0  0  0  0  0  0  0  0  0  0  0  0
  -24.8642  -24.7652   28.6620 C   0  0  0  0  0  0  0  0  0  0  0  0
  -24.2868  -21.4069   28.4751 C   0  0  0  0  0  0  0  0  0  0  0  0
  -30.7187  -14.6887   20.6959 C   0  0  0  0  0  0  0  0  0  0  0  0
  -26.8567  -32.2700   27.9249 C   0  0  0  0  0  0  0  0  0  0  0  0
  -27.5104  -25.9736   26.3924 C   0  0  0  0  0  0  0  0  0  0  0  0
  -27.3057  -24.1303   28.6957 C   0  0  0  0  0  0  0  0  0  0  0  0
  -25.8939  -31.2052   28.4441 C   0  0  0  0  0  0  0  0  0  0  0  0
  -29.6062  -12.2287   18.3747 C   0  0  0  0  0  0  0  0  0  0  0  0
  -26.5939  -30.2980   29.4510 C   0  0  0  0  0  0  0  0  0  0  0  0
  -28.1550  -11.9713   18.7869 C   0  0  0  0  0  0  0  0  0  0  0  0
  -30.5043  -12.4760   19.5855 C   0  0  0  0  0  0  0  0  0  0  0  0
  -28.5860  -13.2674   20.9133 C   0  0  0  0  0  0  0  0  0  0  0  0
  -27.7676  -29.5550   28.8015 C   0  0  1  0  0  0  0  0  0  0  0  0
  -26.5106  -26.2064   27.5210 C   0  0  1  0  0  0  0  0  0  0  0  0
  -27.6307  -13.0772   19.7238 C   0  0  2  0  0  0  0  0  0  0  0  0
  -30.1136  -19.1867   30.4017 C   0  0  0  0  0  0  0  0  0  0  0  0
  -22.4461  -19.7113   28.6596 C   0  0  0  0  0  0  0  0  0  0  0  0
  -24.9000  -25.0604   31.6987 C   0  0  0  0  0  0  0  0  0  0  0  0
  -23.8340  -22.8009   31.8611 C   0  0  0  0  0  0  0  0  0  0  0  0
  -22.6348  -24.6643   30.7157 C   0  0  0  0  0  0  0  0  0  0  0  0
  -24.6889  -20.4960   25.6880 C   0  0  0  0  0  0  0  0  0  0  0  0
  -32.5099  -19.3086   25.1160 C   0  0  0  0  0  0  0  0  0  0  0  0
  -33.4817  -21.0385   27.2122 C   0  0  0  0  0  0  0  0  0  0  0  0
  -32.8181  -22.3567   26.8373 C   0  0  0  0  0  0  0  0  0  1  0  0
  -24.6304  -23.5968   29.5889 C   0  0  1  0  0  0  0  0  0  0  0  0
  -23.2416  -20.6049   27.7208 C   0  0  2  0  0  0  0  0  0  0  0  0
  -24.0245  -24.0340   30.9524 C   0  0  0  0  0  0  0  0  0  0  0  0
  -25.8085  -11.5305   20.3312 N   0  0  0  0  0  0  0  0  0  0  0  0
  -32.0064  -19.1642   26.4711 N   0  0  0  0  0  0  0  0  0  0  0  0
  -26.2080  -12.8041   20.1748 N   0  0  0  0  0  0  0  0  0  0  0  0
  -26.1878  -24.9794   28.2522 N   0  0  0  0  0  0  0  0  0  0  0  0
  -29.9471  -13.5390   20.4248 N   0  0  0  0  0  0  0  0  0  0  0  0
  -25.4731  -15.0492   20.3492 N   0  0  0  0  0  0  0  0  0  0  0  0
  -21.8294  -12.6642   21.5456 N   0  0  0  0  0  0  0  0  0  0  0  0
  -30.0724  -15.6457   21.4776 N   0  0  0  0  0  0  0  0  0  0  0  0
  -27.2856  -28.4478   28.0039 N   0  0  0  0  0  0  0  0  0  0  0  0
  -23.8094  -22.6456   28.8476 N   0  0  0  0  0  0  0  0  0  0  0  0
  -23.8916  -19.7451   26.6918 N   0  3  0  0  0  0  0  0  0  0  0  0
  -22.6437  -14.7833   21.2214 O   0  0  0  0  0  0  0  0  0  0  0  0
  -27.1075  -26.8697   29.7070 O   0  0  0  0  0  0  0  0  0  0  0  0
  -23.9065  -25.4579   28.3087 O   0  0  0  0  0  0  0  0  0  0  0  0
  -25.4129  -20.9760   28.7134 O   0  0  0  0  0  0  0  0  0  0  0  0
  -31.8581  -14.8271   20.2436 O   0  0  0  0  0  0  0  0  0  0  0  0
  -21.4655   -7.1110   21.7993 O   0  0  0  0  0  0  0  0  0  0  0  0
  -31.9306  -22.7581   27.8802 O   0  0  0  0  0  0  0  0  0  1  0  0
  -23.7836   -3.0991   24.7885 F   0  0  0  0  0  0  0  0  0  0  0  0
  -20.3651   -6.3215   24.2093 F   0  0  0  0  0  0  0  0  0  0  0  0
  -29.4386  -19.4518   24.8458 Cl  0  0  0  0  0  0  0  0  0  0  0  0
  1  2  1  0  0  0  0
  1  5  2  0  0  0  0
  2  6  2  0  0  0  0
  3 10  2  0  0  0  0
  3 18  1  0  0  0  0
  4 11  1  0  0  0  0
  4 18  2  0  0  0  0
  5 20  1  0  0  0  0
  6 22  1  0  0  0  0
  7 12  2  0  0  0  0
  7 21  1  0  0  0  0
  8  9  2  0  0  0  0
  8 24  1  0  0  0  0
  9 25  1  0  0  0  0
 10 26  1  0  0  0  0
 11 26  2  0  0  0  0
 12 27  1  0  0  0  0
 13 14  2  0  0  0  0
 13 28  1  0  0  0  0
 14 29  1  0  0  0  0
 15 23  1  0  0  0  0
 15 27  2  0  0  0  0
 16 25  2  0  0  0  0
 16 31  1  0  0  0  0
 17 29  2  0  0  0  0
 17 30  1  0  0  0  0
 18 32  1  0  0  0  0
 19 32  1  0  0  0  0
 19 33  2  0  0  0  0
 19 36  1  0  0  0  0
 20 22  2  0  0  0  0
 20 42  1  0  0  0  0
 21 23  2  0  0  0  0
 21 43  1  0  0  0  0
 22 51  1  0  0  0  0
 23 44  1  0  0  0  0
 24 31  2  0  0  0  0
 24 60  1  0  0  0  0
 25 73  1  0  0  0  0
 26 82  1  0  0  0  0
 27 83  1  0  0  0  0
 28 30  2  0  0  0  0
 28 82  1  0  0  0  0
 29 84  1  0  0  0  0
 30 85  1  0  0  0  0
 31 86  1  0  0  0  0
 32 66  2  0  0  0  0
 33 68  1  0  0  0  0
 33 71  1  0  0  0  0
 34 35  2  0  0  0  0
 34 37  1  0  0  0  0
 35 54  1  0  0  0  0
 36 72  1  0  0  0  0
 36 77  2  0  0  0  0
 37 61  1  0  0  0  0
 37 67  2  0  0  0  0
 38 52  1  0  0  0  0
 38 74  1  0  0  0  0
 38 78  2  0  0  0  0
 39 63  1  0  0  0  0
 39 69  1  0  0  0  0
 39 79  2  0  0  0  0
 40 64  1  0  0  0  0
 40 75  1  0  0  0  0
 40 80  2  0  0  0  0
 41 70  1  0  0  0  0
 41 73  1  0  0  0  0
 41 81  2  0  0  0  0
 42 45  1  0  0  0  0
 43 52  1  0  0  0  0
 44 69  1  0  0  0  0
 45 47  1  0  0  0  0
 46 48  1  0  0  0  0
 46 49  1  0  0  0  0
 47 51  1  0  0  0  0
 48 53  1  0  0  0  0
 49 70  1  0  0  0  0
 50 53  1  0  0  0  0
 50 70  1  0  0  0  0
 51 74  1  0  0  0  0
 52 69  1  0  0  0  0
 53 68  1  0  0  0  0
 55 64  1  0  0  0  0
 56 65  1  0  0  0  0
 57 65  1  0  0  0  0
 58 65  1  0  0  0  0
 59 76  1  0  0  0  0
 60 67  1  0  0  0  0
 61 62  1  0  0  0  0
 62 83  1  0  0  0  0
 63 65  1  0  0  0  0
 63 75  1  0  0  0  0
 64 76  1  0  0  0  0
 66 68  1  0  0  0  0
M  CHG  1  76   1
M  ISO  4  41 100  62 101  73 100  83 101
M  END
> <Batch ID>
0040

> <Smiles>
CC=CC(=C[101CH2:1][101O:1]c1ccc2c(c1)CN(C(=O)C(NC(=O)C(C)NC)C(C)(C)C)C(C(=O)NC1CCCc3ccccc31)C2)NCc1ccc([100NH:0][100C:0](=O)N2CCCC(n3nc(-c4ccc(Oc5ccc(F)cc5F)cc4)c(C(N)=O)c3N)C2)cc1Cl

> <Shape>
0.181

> <Color>
0.198

> <Negative vol penalty>
0.000

$$$$

  -OEChem-04042322063D

 90 99  0     1  0  0  0  0  0999 V2000
  -27.3761  -33.8664   25.5574 C   0  0  0  0  0  0  0  0  0  0  0  0
  -27.6501  -32.6312   24.9790 C   0  0  0  0  0  0  0  0  0  0  0  0
  -23.9907   -9.6004   20.0033 C   0  0  0  0  0  0  0  0  0  0  0  0
  -22.8795  -10.3883   21.9987 C   0  0  0  0  0  0  0  0  0  0  0  0
  -26.0714  -34.1856   25.9314 C   0  0  0  0  0  0  0  0  0  0  0  0
  -26.6197  -31.7140   24.7753 C   0  0  0  0  0  0  0  0  0  0  0  0
  -26.8085  -29.5657   20.1934 C   0  0  0  0  0  0  0  0  0  0  0  0
  -23.3513   -8.3677   20.1340 C   0  0  0  0  0  0  0  0  0  0  0  0
  -22.2400   -9.1556   22.1293 C   0  0  0  0  0  0  0  0  0  0  0  0
  -27.7422  -28.5475   20.0055 C   0  0  0  0  0  0  0  0  0  0  0  0
  -23.0081   -6.0559   23.2397 C   0  0  0  0  0  0  0  0  0  0  0  0
  -22.9750   -5.4741   24.5069 C   0  0  0  0  0  0  0  0  0  0  0  0
  -26.0002  -26.9044   20.2969 C   0  0  0  0  0  0  0  0  0  0  0  0
  -26.7574  -19.9886   17.9384 C   0  0  0  0  0  0  0  0  0  0  0  0
  -20.5597   -5.5118   24.4610 C   0  0  0  0  0  0  0  0  0  0  0  0
  -23.7549  -10.6107   20.9357 C   0  0  0  0  0  0  0  0  0  0  0  0
  -25.8023  -12.1264   20.7997 C   0  0  0  0  0  0  0  0  0  0  0  0
  -25.0229  -33.2757   25.7234 C   0  0  0  0  0  0  0  0  0  0  0  0
  -25.4634  -29.2602   20.4456 C   0  0  0  0  0  0  0  0  0  0  0  0
  -25.3000  -32.0208   25.1482 C   0  0  0  0  0  0  0  0  0  0  0  0
  -25.0509  -27.9206   20.4850 C   0  0  0  0  0  0  0  0  0  0  0  0
  -27.8806  -20.8072   17.8197 C   0  0  0  0  0  0  0  0  0  0  0  0
  -29.0635  -20.2952   17.2866 C   0  0  0  0  0  0  0  0  0  0  0  0
  -29.1232  -18.9646   16.8722 C   0  0  0  0  0  0  0  0  0  0  0  0
  -26.8172  -18.6580   17.5241 C   0  0  0  0  0  0  0  0  0  0  0  0
  -22.4760   -8.1453   21.1969 C   0  0  0  0  0  0  0  0  0  0  0  0
  -27.3387  -27.2166   20.0601 C   0  0  0  0  0  0  0  0  0  0  0  0
  -21.8171   -6.3657   22.5831 C   0  0  0  0  0  0  0  0  0  0  0  0
  -21.7508   -5.2020   25.1176 C   0  0  0  0  0  0  0  0  0  0  0  0
  -20.5929   -6.0936   23.1938 C   0  0  0  0  0  0  0  0  0  0  0  0
  -28.0001  -18.1460   16.9910 C   0  0  0  0  0  0  0  0  0  0  0  0
  -24.4156  -11.8842   20.8016 C   0  0  0  0  0  0  0  0  0  0  0  0
  -25.9131  -13.4866   20.6452 C   0  0  0  0  0  0  0  0  0  0  0  0
  -26.8929  -11.2042   20.9261 C   0  0  0  0  0  0  0  0  0  0  0  0
  -23.4581  -29.7836   22.8557 C   0  0  0  0  0  0  0  0  0  0  0  0
  -21.2856  -28.5061   20.8136 C   0  0  0  0  0  0  0  0  0  0  0  0
  -20.6700  -26.5062   18.1176 C   0  0  0  0  0  0  0  0  0  0  0  0
  -24.4178  -18.2457   18.1716 C   0  0  0  0  0  0  0  0  0  0  0  0
  -23.6367  -33.6469   26.1875 C   0  0  0  0  0  0  0  0  0  0  0  0
  -24.4636  -30.3704   20.6196 C   0  0  0  0  0  0  0  0  0  0  0  0
  -23.6149  -27.5399   20.7326 C   0  0  0  0  0  0  0  0  0  0  0  0
  -22.5397  -32.7667   25.5943 C   0  0  0  0  0  0  0  0  0  0  0  0
  -31.0284  -22.0853   21.9684 C   0  0  0  0  0  0  0  0  0  0  0  0
  -29.8634  -21.0971   21.8886 C   0  0  0  0  0  0  0  0  0  0  0  0
  -31.1585  -23.0949   20.8258 C   0  0  0  0  0  0  0  0  0  0  0  0
  -22.4029  -17.1257   20.8851 C   0  0  0  0  0  0  0  0  0  0  0  0
  -28.4778  -21.7310   22.0286 C   0  0  0  0  0  0  0  0  0  0  0  0
  -22.9278  -31.2944   25.6874 C   0  0  0  0  0  0  0  0  0  0  0  0
  -22.8610  -15.6821   21.1051 C   0  0  0  0  0  0  0  0  0  0  0  0
  -30.0433  -24.1419   20.7823 C   0  0  0  0  0  0  0  0  0  0  0  0
  -22.3933  -17.4981   19.4036 C   0  0  0  0  0  0  0  0  0  0  0  0
  -24.1106  -15.8016   18.9117 C   0  0  0  0  0  0  0  0  0  0  0  0
  -27.6992  -21.8899   20.7275 C   0  0  0  0  0  0  0  0  0  0  0  0
  -24.2051  -31.0090   24.8883 C   0  0  1  0  0  0  0  0  0  0  0  0
  -23.2149  -29.9362   21.3809 C   0  0  1  0  0  0  0  0  0  0  0  0
  -24.1988  -15.4007   20.3933 C   0  0  2  0  0  0  0  0  0  0  0  0
  -28.9525  -23.9317   19.7191 C   0  0  2  0  0  0  0  0  0  0  0  0
  -30.2667  -21.1763   17.1635 C   0  0  0  0  0  0  0  0  0  0  0  0
  -30.4033  -18.4337   16.3042 C   0  0  0  0  0  0  0  0  0  0  0  0
  -18.7912  -25.6257   16.7061 C   0  0  0  0  0  0  0  0  0  0  0  0
  -20.5479  -26.5394   23.0267 C   0  0  0  0  0  0  0  0  0  0  0  0
  -19.4051  -25.1323   21.2997 C   0  0  0  0  0  0  0  0  0  0  0  0
  -18.6006  -27.4504   21.7489 C   0  0  0  0  0  0  0  0  0  0  0  0
  -21.7469  -27.7897   15.6779 C   0  0  0  0  0  0  0  0  0  0  0  0
  -27.7899  -22.2343   18.2736 C   0  0  0  0  0  0  0  0  0  0  0  0
  -27.7771  -24.8820   19.9447 C   0  0  0  0  0  0  0  0  0  1  0  0
  -20.7843  -27.1126   20.5204 C   0  0  1  0  0  0  0  0  0  0  0  0
  -19.8293  -26.7245   16.8725 C   0  0  2  0  0  0  0  0  0  0  0  0
  -19.8620  -26.5655   21.6462 C   0  0  0  0  0  0  0  0  0  0  0  0
  -23.6969  -13.0010   20.6598 N   0  0  0  0  0  0  0  0  0  0  0  0
  -24.6357  -13.9582   20.5674 N   0  0  0  0  0  0  0  0  0  0  0  0
  -22.6762  -28.6613   20.9028 N   0  0  0  0  0  0  0  0  0  0  0  0
  -23.6943  -17.2081   18.7967 N   0  0  0  0  0  0  0  0  0  0  0  0
  -26.9776  -14.3134   20.5697 N   0  0  0  0  0  0  0  0  0  0  0  0
  -27.3782  -10.9152   22.2088 N   0  0  0  0  0  0  0  0  0  0  0  0
  -25.6555  -17.8581   17.6593 N   0  0  0  0  0  0  0  0  0  0  0  0
  -23.9099  -30.9341   23.4735 N   0  0  0  0  0  0  0  0  0  0  0  0
  -20.1521  -27.1741   19.2071 N   0  0  0  0  0  0  0  0  0  0  0  0
  -28.4972  -22.4848   19.5928 N   0  3  2  0  0  0  0  0  0  0  0  0
  -20.6949  -26.7410   15.6595 N   0  3  0  0  0  0  0  0  0  0  0  0
  -27.4320  -10.6653   19.9299 O   0  0  0  0  0  0  0  0  0  0  0  0
  -23.2497  -28.7025   23.3938 O   0  0  0  0  0  0  0  0  0  0  0  0
  -20.4735  -29.4244   20.9511 O   0  0  0  0  0  0  0  0  0  0  0  0
  -21.6826  -25.8097   18.1239 O   0  0  0  0  0  0  0  0  0  0  0  0
  -23.9842  -19.3995   18.1202 O   0  0  0  0  0  0  0  0  0  0  0  0
  -21.8516   -6.9426   21.3246 O   0  0  0  0  0  0  0  0  0  0  0  0
  -28.2566  -26.2116   19.8761 O   0  0  0  0  0  0  0  0  0  1  0  0
  -21.7191   -4.6419   26.3340 F   0  0  0  0  0  0  0  0  0  0  0  0
  -19.4453   -6.3879   22.5674 F   0  0  0  0  0  0  0  0  0  0  0  0
  -28.0757  -16.4921   16.4741 Cl  0  0  0  0  0  0  0  0  0  0  0  0
  1  2  1  0  0  0  0
  1  5  2  0  0  0  0
  2  6  2  0  0  0  0
  3  8  2  0  0  0  0
  3 16  1  0  0  0  0
  4  9  1  0  0  0  0
  4 16  2  0  0  0  0
  5 18  1  0  0  0  0
  6 20  1  0  0  0  0
  7 10  2  0  0  0  0
  7 19  1  0  0  0  0
  8 26  1  0  0  0  0
  9 26  2  0  0  0  0
 10 27  1  0  0  0  0
 11 12  2  0  0  0  0
 11 28  1  0  0  0  0
 12 29  1  0  0  0  0
 13 21  1  0  0  0  0
 13 27  2  0  0  0  0
 14 22  1  0  0  0  0
 14 25  2  0  0  0  0
 15 29  2  0  0  0  0
 15 30  1  0  0  0  0
 16 32  1  0  0  0  0
 17 32  1  0  0  0  0
 17 33  2  0  0  0  0
 17 34  1  0  0  0  0
 18 20  2  0  0  0  0
 18 39  1  0  0  0  0
 19 21  2  0  0  0  0
 19 40  1  0  0  0  0
 20 54  1  0  0  0  0
 21 41  1  0  0  0  0
 22 23  2  0  0  0  0
 22 65  1  0  0  0  0
 23 24  1  0  0  0  0
 23 58  1  0  0  0  0
 24 31  2  0  0  0  0
 24 59  1  0  0  0  0
 25 31  1  0  0  0  0
 25 76  1  0  0  0  0
 26 86  1  0  0  0  0
 27 87  1  0  0  0  0
 28 30  2  0  0  0  0
 28 86  1  0  0  0  0
 29 88  1  0  0  0  0
 30 89  1  0  0  0  0
 31 90  1  0  0  0  0
 32 70  2  0  0  0  0
 33 71  1  0  0  0  0
 33 74  1  0  0  0  0
 34 75  1  0  0  0  0
 34 81  2  0  0  0  0
 35 55  1  0  0  0  0
 35 77  1  0  0  0  0
 35 82  2  0  0  0  0
 36 67  1  0  0  0  0
 36 72  1  0  0  0  0
 36 83  2  0  0  0  0
 37 68  1  0  0  0  0
 37 78  1  0  0  0  0
 37 84  2  0  0  0  0
 38 73  1  0  0  0  0
 38 76  1  0  0  0  0
 38 85  2  0  0  0  0
 39 42  1  0  0  0  0
 40 55  1  0  0  0  0
 41 72  1  0  0  0  0
 42 48  1  0  0  0  0
 43 44  1  0  0  0  0
 43 45  1  0  0  0  0
 44 47  1  0  0  0  0
 45 50  1  0  0  0  0
 46 49  1  0  0  0  0
 46 51  1  0  0  0  0
 47 53  1  0  0  0  0
 48 54  1  0  0  0  0
 49 56  1  0  0  0  0
 50 57  1  0  0  0  0
 51 73  1  0  0  0  0
 52 56  1  0  0  0  0
 52 73  1  0  0  0  0
 53 79  1  0  0  0  0
 54 77  1  0  0  0  0
 55 72  1  0  0  0  0
 56 71  1  0  0  0  0
 57 66  1  0  0  0  0
 57 79  1  0  0  0  0
 60 68  1  0  0  0  0
 61 69  1  0  0  0  0
 62 69  1  0  0  0  0
 63 69  1  0  0  0  0
 64 80  1  0  0  0  0
 65 79  1  0  0  0  0
 66 87  1  0  0  0  0
 67 69  1  0  0  0  0
 67 78  1  0  0  0  0
 68 80  1  0  0  0  0
 70 71  1  0  0  0  0
M  CHG  2  79   1  80   1
M  ISO  4  38 100  66 101  76 100  87 101
M  END
> <Batch ID>
0040

> <Smiles>
CNC(C)C(=O)NC(C(=O)N1Cc2cc([101O:1][101CH2:1]C3CCCCCCN3Cc3cc([100NH:0][100C:0](=O)N4CCCC(n5nc(-c6ccc(Oc7ccc(F)cc7F)cc6)c(C(N)=O)c5N)C4)c(Cl)c(C)c3C)ccc2CC1C(=O)NC1CCCc2ccccc21)C(C)(C)C

> <Shape>
0.296

> <Color>
0.125

> <Negative vol penalty>
0.000

$$$$

  -OEChem-04042322063D

 84 92  0     1  0  0  0  0  0999 V2000
  -35.7627  -25.5543   28.9643 C   0  0  0  0  0  0  0  0  0  0  0  0
  -35.4515  -24.9542   27.7483 C   0  0  0  0  0  0  0  0  0  0  0  0
  -23.0765   -9.8669   19.9383 C   0  0  0  0  0  0  0  0  0  0  0  0
  -23.8414   -9.8694   22.2300 C   0  0  0  0  0  0  0  0  0  0  0  0
  -35.2502  -26.8144   29.2698 C   0  0  0  0  0  0  0  0  0  0  0  0
  -34.6266  -25.6135   26.8377 C   0  0  0  0  0  0  0  0  0  0  0  0
  -35.0057  -25.4346   20.7278 C   0  0  0  0  0  0  0  0  0  0  0  0
  -22.3361   -8.7112   20.1867 C   0  0  0  0  0  0  0  0  0  0  0  0
  -23.1009   -8.7137   22.4784 C   0  0  0  0  0  0  0  0  0  0  0  0
  -34.3161  -24.6970   19.7664 C   0  0  0  0  0  0  0  0  0  0  0  0
  -19.8760   -7.9063   23.0858 C   0  0  0  0  0  0  0  0  0  0  0  0
  -19.1217   -7.8612   24.2582 C   0  0  0  0  0  0  0  0  0  0  0  0
  -32.8062  -26.5493   19.4370 C   0  0  0  0  0  0  0  0  0  0  0  0
  -29.1575  -19.7157   19.9606 C   0  0  0  0  0  0  0  0  0  0  0  0
  -31.6015  -18.3744   20.0616 C   0  0  0  0  0  0  0  0  0  0  0  0
  -20.3695   -5.9248   24.9865 C   0  0  0  0  0  0  0  0  0  0  0  0
  -23.8293  -10.4459   20.9600 C   0  0  0  0  0  0  0  0  0  0  0  0
  -24.1646  -12.9722   20.8462 C   0  0  0  0  0  0  0  0  0  0  0  0
  -34.4265  -27.4937   28.3584 C   0  0  0  0  0  0  0  0  0  0  0  0
  -34.5933  -26.7333   21.0594 C   0  0  0  0  0  0  0  0  0  0  0  0
  -34.1015  -26.8833   27.1319 C   0  0  0  0  0  0  0  0  0  0  0  0
  -33.4938  -27.3022   20.4010 C   0  0  0  0  0  0  0  0  0  0  0  0
  -29.3496  -18.6845   20.8799 C   0  0  0  0  0  0  0  0  0  0  0  0
  -30.1874  -20.0763   19.0917 C   0  0  0  0  0  0  0  0  0  0  0  0
  -30.5716  -18.0138   20.9305 C   0  0  0  0  0  0  0  0  0  0  0  0
  -22.3482   -8.1346   21.4567 C   0  0  0  0  0  0  0  0  0  0  0  0
  -33.2145  -25.2532   19.1229 C   0  0  0  0  0  0  0  0  0  0  0  0
  -20.8770   -6.9605   22.8637 C   0  0  0  0  0  0  0  0  0  0  0  0
  -19.3685   -6.8705   25.2086 C   0  0  0  0  0  0  0  0  0  0  0  0
  -21.1238   -5.9698   23.8141 C   0  0  0  0  0  0  0  0  0  0  0  0
  -31.4095  -19.4057   19.1422 C   0  0  0  0  0  0  0  0  0  0  0  0
  -24.5949  -11.6394   20.7039 C   0  0  0  0  0  0  0  0  0  0  0  0
  -25.2541  -13.7254   20.4826 C   0  0  0  0  0  0  0  0  0  0  0  0
  -22.8938  -13.4838   21.2693 C   0  0  0  0  0  0  0  0  0  0  0  0
  -33.5393  -28.1453   23.7049 C   0  0  0  0  0  0  0  0  0  0  0  0
  -33.7180  -30.8219   21.8810 C   0  0  0  0  0  0  0  0  0  0  0  0
  -33.7313  -32.2068   18.7619 C   0  0  0  0  0  0  0  0  0  0  0  0
  -30.7358  -14.7574   20.6619 C   0  0  0  0  0  0  0  0  0  0  0  0
  -33.8578  -28.8337   28.7529 C   0  0  0  0  0  0  0  0  0  0  0  0
  -35.3640  -27.5257   22.0794 C   0  0  0  0  0  0  0  0  0  0  0  0
  -33.0231  -28.7000   20.7062 C   0  0  0  0  0  0  0  0  0  0  0  0
  -33.2953  -29.6269   27.5762 C   0  0  0  0  0  0  0  0  0  0  0  0
  -29.5988  -12.3768   18.2710 C   0  0  0  0  0  0  0  0  0  0  0  0
  -32.4194  -28.7356   26.7015 C   0  0  0  0  0  0  0  0  0  0  0  0
  -28.1631  -12.0783   18.7062 C   0  0  0  0  0  0  0  0  0  0  0  0
  -30.5180  -12.5965   19.4705 C   0  0  0  0  0  0  0  0  0  0  0  0
  -28.6175  -13.3191   20.8632 C   0  0  0  0  0  0  0  0  0  0  0  0
  -33.2302  -27.5775   26.1076 C   0  0  1  0  0  0  0  0  0  0  0  0
  -34.5442  -28.6485   22.7076 C   0  0  1  0  0  0  0  0  0  0  0  0
  -27.6412  -13.1453   19.6872 C   0  0  2  0  0  0  0  0  0  0  0  0
  -28.2324  -18.3135   21.7991 C   0  0  0  0  0  0  0  0  0  0  0  0
  -33.8522  -34.4231   17.5912 C   0  0  0  0  0  0  0  0  0  0  0  0
  -30.8074  -31.3666   22.6168 C   0  0  0  0  0  0  0  0  0  0  0  0
  -30.7059  -32.9978   20.7202 C   0  0  0  0  0  0  0  0  0  0  0  0
  -32.2792  -33.3885   22.6162 C   0  0  0  0  0  0  0  0  0  0  0  0
  -36.2361  -31.4660   17.3704 C   0  0  0  0  0  0  0  0  0  0  0  0
  -30.7990  -16.9047   21.9046 C   0  0  0  0  0  0  0  0  0  0  0  0
  -29.9406  -21.1906   18.1178 C   0  0  0  0  0  0  0  0  0  0  0  0
  -30.4402  -23.5649   17.5249 C   0  0  0  0  0  0  0  0  0  0  0  0
  -31.1453  -24.8042   18.0400 C   0  0  0  0  0  0  0  0  0  1  0  0
  -32.7740  -31.5489   20.9540 C   0  0  1  0  0  0  0  0  0  0  0  0
  -34.6434  -33.2375   18.1213 C   0  0  2  0  0  0  0  0  0  0  0  0
  -31.6491  -32.2984   21.7222 C   0  0  0  0  0  0  0  0  0  0  0  0
  -25.8590  -11.5478   20.2826 N   0  0  0  0  0  0  0  0  0  0  0  0
  -26.2325  -12.8327   20.1570 N   0  0  0  0  0  0  0  0  0  0  0  0
  -33.8057  -29.4323   21.7155 N   0  0  0  0  0  0  0  0  0  0  0  0
  -29.9669  -13.6212   20.3605 N   0  0  0  0  0  0  0  0  0  0  0  0
  -25.4611  -15.0576   20.4129 N   0  0  0  0  0  0  0  0  0  0  0  0
  -21.8849  -12.5712   21.6063 N   0  0  0  0  0  0  0  0  0  0  0  0
  -34.0291  -28.0393   24.9927 N   0  0  0  0  0  0  0  0  0  0  0  0
  -33.6044  -32.4108   20.1197 N   0  0  0  0  0  0  0  0  0  0  0  0
  -30.1362  -15.6824   21.5078 N   0  0  0  0  0  0  0  0  0  0  0  0
  -35.3959  -32.6298   16.9876 N   0  3  0  0  0  0  0  0  0  0  0  0
  -30.6166  -22.4597   18.5003 N   0  3  0  0  0  0  0  0  0  0  0  0
  -22.6547  -14.7136   21.3306 O   0  0  0  0  0  0  0  0  0  0  0  0
  -32.4031  -27.8748   23.3338 O   0  0  0  0  0  0  0  0  0  0  0  0
  -34.3595  -31.4641   22.7163 O   0  0  0  0  0  0  0  0  0  0  0  0
  -33.1832  -31.3126   18.1213 O   0  0  0  0  0  0  0  0  0  0  0  0
  -31.8703  -14.9370   20.2063 O   0  0  0  0  0  0  0  0  0  0  0  0
  -21.6256   -7.0070   21.6995 O   0  0  0  0  0  0  0  0  0  0  0  0
  -32.5392  -24.5352   18.1847 O   0  0  0  0  0  0  0  0  0  1  0  0
  -18.6451   -6.8283   26.3351 F   0  0  0  0  0  0  0  0  0  0  0  0
  -22.0849   -5.0593   23.6068 F   0  0  0  0  0  0  0  0  0  0  0  0
  -32.7065  -19.8239   18.0830 Cl  0  0  0  0  0  0  0  0  0  0  0  0
  1  2  1  0  0  0  0
  1  5  2  0  0  0  0
  2  6  2  0  0  0  0
  3  8  2  0  0  0  0
  3 17  1  0  0  0  0
  4  9  1  0  0  0  0
  4 17  2  0  0  0  0
  5 19  1  0  0  0  0
  6 21  1  0  0  0  0
  7 10  2  0  0  0  0
  7 20  1  0  0  0  0
  8 26  1  0  0  0  0
  9 26  2  0  0  0  0
 10 27  1  0  0  0  0
 11 12  2  0  0  0  0
 11 28  1  0  0  0  0
 12 29  1  0  0  0  0
 13 22  1  0  0  0  0
 13 27  2  0  0  0  0
 14 23  2  0  0  0  0
 14 24  1  0  0  0  0
 15 25  2  0  0  0  0
 15 31  1  0  0  0  0
 16 29  2  0  0  0  0
 16 30  1  0  0  0  0
 17 32  1  0  0  0  0
 18 32  1  0  0  0  0
 18 33  2  0  0  0  0
 18 34  1  0  0  0  0
 19 21  2  0  0  0  0
 19 39  1  0  0  0  0
 20 22  2  0  0  0  0
 20 40  1  0  0  0  0
 21 48  1  0  0  0  0
 22 41  1  0  0  0  0
 23 25  1  0  0  0  0
 23 51  1  0  0  0  0
 24 31  2  0  0  0  0
 24 58  1  0  0  0  0
 25 57  1  0  0  0  0
 26 80  1  0  0  0  0
 27 81  1  0  0  0  0
 28 30  2  0  0  0  0
 28 80  1  0  0  0  0
 29 82  1  0  0  0  0
 30 83  1  0  0  0  0
 31 84  1  0  0  0  0
 32 64  2  0  0  0  0
 33 65  1  0  0  0  0
 33 68  1  0  0  0  0
 34 69  1  0  0  0  0
 34 75  2  0  0  0  0
 35 49  1  0  0  0  0
 35 70  1  0  0  0  0
 35 76  2  0  0  0  0
 36 61  1  0  0  0  0
 36 66  1  0  0  0  0
 36 77  2  0  0  0  0
 37 62  1  0  0  0  0
 37 71  1  0  0  0  0
 37 78  2  0  0  0  0
 38 67  1  0  0  0  0
 38 72  1  0  0  0  0
 38 79  2  0  0  0  0
 39 42  1  0  0  0  0
 40 49  1  0  0  0  0
 41 66  1  0  0  0  0
 42 44  1  0  0  0  0
 43 45  1  0  0  0  0
 43 46  1  0  0  0  0
 44 48  1  0  0  0  0
 45 50  1  0  0  0  0
 46 67  1  0  0  0  0
 47 50  1  0  0  0  0
 47 67  1  0  0  0  0
 48 70  1  0  0  0  0
 49 66  1  0  0  0  0
 50 65  1  0  0  0  0
 52 62  1  0  0  0  0
 53 63  1  0  0  0  0
 54 63  1  0  0  0  0
 55 63  1  0  0  0  0
 56 73  1  0  0  0  0
 57 72  1  0  0  0  0
 58 74  1  0  0  0  0
 59 60  1  0  0  0  0
 59 74  1  0  0  0  0
 60 81  1  0  0  0  0
 61 63  1  0  0  0  0
 61 71  1  0  0  0  0
 62 73  1  0  0  0  0
 64 65  1  0  0  0  0
M  CHG  2  73   1  74   1
M  ISO  4  38 100  60 101  72 100  81 101
M  END
> <Batch ID>
0040

> <Smiles>
CNC(C)C(=O)NC(C(=O)N1Cc2cc([101O:1][101CH2:1]CNCc3cc(C)c(C[100NH:0][100C:0](=O)N4CCCC(n5nc(-c6ccc(Oc7ccc(F)cc7F)cc6)c(C(N)=O)c5N)C4)cc3Cl)ccc2CC1C(=O)NC1CCCc2ccccc21)C(C)(C)C

> <Shape>
0.213

> <Color>
0.192

> <Negative vol penalty>
0.000

$$$$

  -OEChem-04042322063D

 91100  0     1  0  0  0  0  0999 V2000
  -27.4199  -24.5075   13.9404 C   0  0  0  0  0  0  0  0  0  0  0  0
  -26.4420  -24.6354   14.9217 C   0  0  0  0  0  0  0  0  0  0  0  0
  -27.5330  -12.5405   22.2757 C   0  0  0  0  0  0  0  0  0  0  0  0
  -25.7526  -13.2339   20.7971 C   0  0  0  0  0  0  0  0  0  0  0  0
  -28.7639  -24.6760   14.2711 C   0  0  0  0  0  0  0  0  0  0  0  0
  -26.8077  -24.9308   16.2345 C   0  0  0  0  0  0  0  0  0  0  0  0
  -23.8801  -28.5043   18.3091 C   0  0  0  0  0  0  0  0  0  0  0  0
  -24.0353  -23.4561   20.4643 C   0  0  0  0  0  0  0  0  0  0  0  0
  -25.1708  -22.6871   20.7191 C   0  0  0  0  0  0  0  0  0  0  0  0
  -26.7128  -11.5380   22.7933 C   0  0  0  0  0  0  0  0  0  0  0  0
  -24.9323  -12.2314   21.3146 C   0  0  0  0  0  0  0  0  0  0  0  0
  -22.6185  -28.1137   18.7560 C   0  0  0  0  0  0  0  0  0  0  0  0
  -24.5444   -8.8947   20.9451 C   0  0  0  0  0  0  0  0  0  0  0  0
  -23.8122   -8.1268   20.0397 C   0  0  0  0  0  0  0  0  0  0  0  0
  -23.4573  -28.0112   21.0154 C   0  0  0  0  0  0  0  0  0  0  0  0
  -23.3286  -21.8596   18.7943 C   0  0  0  0  0  0  0  0  0  0  0  0
  -21.7583   -8.8549   21.0831 C   0  0  0  0  0  0  0  0  0  0  0  0
  -27.0529  -13.3885   21.2777 C   0  0  0  0  0  0  0  0  0  0  0  0
  -28.7735  -14.3255   19.6439 C   0  0  0  0  0  0  0  0  0  0  0  0
  -29.1454  -24.9832   15.5867 C   0  0  0  0  0  0  0  0  0  0  0  0
  -24.9442  -28.6410   19.2120 C   0  0  0  0  0  0  0  0  0  0  0  0
  -28.1581  -25.1023   16.5833 C   0  0  0  0  0  0  0  0  0  0  0  0
  -24.7307  -28.4062   20.5778 C   0  0  0  0  0  0  0  0  0  0  0  0
  -23.1142  -23.0423   19.5020 C   0  0  0  0  0  0  0  0  0  0  0  0
  -24.4641  -21.0905   19.0491 C   0  0  0  0  0  0  0  0  0  0  0  0
  -25.3852  -21.5043   20.0114 C   0  0  0  0  0  0  0  0  0  0  0  0
  -25.4125  -11.3834   22.3127 C   0  0  0  0  0  0  0  0  0  0  0  0
  -22.4077  -27.8643   20.1089 C   0  0  0  0  0  0  0  0  0  0  0  0
  -23.8836   -9.6427   21.9196 C   0  0  0  0  0  0  0  0  0  0  0  0
  -22.4192   -8.1069   20.1087 C   0  0  0  0  0  0  0  0  0  0  0  0
  -22.4906   -9.6228   21.9886 C   0  0  0  0  0  0  0  0  0  0  0  0
  -27.8995  -14.4246   20.7431 C   0  0  0  0  0  0  0  0  0  0  0  0
  -29.3414  -15.5720   19.5433 C   0  0  0  0  0  0  0  0  0  0  0  0
  -19.9705  -24.9100   20.3192 C   0  0  0  0  0  0  0  0  0  0  0  0
  -18.5702  -24.7533   16.9281 C   0  0  0  0  0  0  0  0  0  0  0  0
  -19.2423  -25.2142   19.2294 C   0  0  0  0  0  0  0  0  0  0  0  0
  -19.2944  -24.4503   18.0112 C   0  0  0  0  0  0  0  0  0  0  0  0
  -29.0475  -13.2067   18.7901 C   0  0  0  0  0  0  0  0  0  0  0  0
  -27.7729  -27.2372   19.5744 C   0  0  0  0  0  0  0  0  0  0  0  0
  -28.1615  -29.4927   21.8731 C   0  0  0  0  0  0  0  0  0  0  0  0
  -26.7180  -31.6508   24.0880 C   0  0  0  0  0  0  0  0  0  0  0  0
  -27.5471  -21.0220   21.2115 C   0  0  0  0  0  0  0  0  0  0  0  0
  -30.6140  -25.1096   15.9058 C   0  0  0  0  0  0  0  0  0  0  0  0
  -26.2923  -29.0891   18.7177 C   0  0  0  0  0  0  0  0  0  0  0  0
  -25.8350  -28.5584   21.5907 C   0  0  0  0  0  0  0  0  0  0  0  0
  -30.8902  -25.7910   17.2436 C   0  0  0  0  0  0  0  0  0  0  0  0
  -18.1794  -23.0252   21.9095 C   0  0  0  0  0  0  0  0  0  0  0  0
  -18.4322  -24.0955   22.9752 C   0  0  0  0  0  0  0  0  0  0  0  0
  -30.5386  -19.3676   22.2068 C   0  0  0  0  0  0  0  0  0  0  0  0
  -19.3756  -22.1294   21.5782 C   0  0  0  0  0  0  0  0  0  0  0  0
  -29.9943  -25.2106   18.3333 C   0  0  0  0  0  0  0  0  0  0  0  0
  -19.7133  -24.9274   22.8749 C   0  0  0  0  0  0  0  0  0  0  0  0
  -30.2833  -17.9043   21.8388 C   0  0  0  0  0  0  0  0  0  0  0  0
  -29.2721  -20.0538   22.7155 C   0  0  0  0  0  0  0  0  0  0  0  0
  -27.8518  -18.4802   21.4601 C   0  0  0  0  0  0  0  0  0  0  0  0
  -20.0871  -22.4491   20.2597 C   0  0  0  0  0  0  0  0  0  0  0  0
  -28.5132  -25.4466   18.0135 C   0  0  1  0  0  0  0  0  0  0  0  0
  -19.8802  -25.7478   21.5815 C   0  0  1  0  0  0  0  0  0  0  0  0
  -27.4320  -28.6984   19.6536 C   0  0  1  0  0  0  0  0  0  0  0  0
  -29.0836  -17.7650   20.8813 C   0  0  2  0  0  0  0  0  0  0  0  0
  -24.6698  -19.8295   18.2738 C   0  0  0  0  0  0  0  0  0  0  0  0
  -27.2933  -33.3345   25.8576 C   0  0  0  0  0  0  0  0  0  0  0  0
  -28.8352  -27.2289   23.8047 C   0  0  0  0  0  0  0  0  0  0  0  0
  -28.4637  -28.8261   25.6966 C   0  0  0  0  0  0  0  0  0  0  0  0
  -30.2743  -29.2610   24.0366 C   0  0  0  0  0  0  0  0  0  0  0  0
  -25.3896  -33.8386   22.6021 C   0  0  0  0  0  0  0  0  0  0  0  0
  -21.8941  -23.8709   19.2264 C   0  0  0  0  0  0  0  0  0  0  0  0
  -21.1186  -26.6459   21.6931 C   0  0  0  0  0  0  0  0  0  1  0  0
  -27.8615  -29.5765   23.3503 C   0  0  1  0  0  0  0  0  0  0  0  0
  -26.9825  -33.1158   24.3851 C   0  0  2  0  0  0  0  0  0  0  0  0
  -28.8381  -28.7183   24.2029 C   0  0  0  0  0  0  0  0  0  0  0  0
  -27.9082  -15.6381   21.3009 N   0  0  0  0  0  0  0  0  0  0  0  0
  -28.7947  -16.3130   20.5494 N   0  0  0  0  0  0  0  0  0  0  0  0
  -27.1367  -28.9926   21.0573 N   0  0  0  0  0  0  0  0  0  0  0  0
  -28.1796  -19.8839   21.7550 N   0  0  0  0  0  0  0  0  0  0  0  0
  -30.2502  -16.0956   18.6934 N   0  0  0  0  0  0  0  0  0  0  0  0
  -28.3766  -12.0005   19.0335 N   0  0  0  0  0  0  0  0  0  0  0  0
  -26.5447  -20.7372   20.2847 N   0  0  0  0  0  0  0  0  0  0  0  0
  -28.1432  -26.8134   18.3124 N   0  0  0  0  0  0  0  0  0  0  0  0
  -27.8634  -30.9960   23.6873 N   0  0  0  0  0  0  0  0  0  0  0  0
  -20.8452  -23.7544   20.3034 N   0  3  1  0  0  0  0  0  0  0  0  0
  -25.7930  -33.9396   24.0283 N   0  3  0  0  0  0  0  0  0  0  0  0
  -29.8752  -13.2699   17.8497 O   0  0  0  0  0  0  0  0  0  0  0  0
  -27.7065  -26.5457   20.5840 O   0  0  0  0  0  0  0  0  0  0  0  0
  -29.2619  -29.8643   21.4575 O   0  0  0  0  0  0  0  0  0  0  0  0
  -25.6072  -31.1377   24.2038 O   0  0  0  0  0  0  0  0  0  0  0  0
  -27.8892  -22.1656   21.5232 O   0  0  0  0  0  0  0  0  0  0  0  0
  -24.6119  -10.4052   22.8173 O   0  0  0  0  0  0  0  0  0  0  0  0
  -21.1653  -27.4784   20.5521 O   0  0  0  0  0  0  0  0  0  1  0  0
  -21.7162   -7.3706   19.2381 F   0  0  0  0  0  0  0  0  0  0  0  0
  -21.8501  -10.3402   22.9218 F   0  0  0  0  0  0  0  0  0  0  0  0
  1  2  1  0  0  0  0
  1  5  2  0  0  0  0
  2  6  2  0  0  0  0
  3 10  2  0  0  0  0
  3 18  1  0  0  0  0
  4 11  1  0  0  0  0
  4 18  2  0  0  0  0
  5 20  1  0  0  0  0
  6 22  1  0  0  0  0
  7 12  2  0  0  0  0
  7 21  1  0  0  0  0
  8  9  2  0  0  0  0
  8 24  1  0  0  0  0
  9 26  1  0  0  0  0
 10 27  1  0  0  0  0
 11 27  2  0  0  0  0
 12 28  1  0  0  0  0
 13 14  2  0  0  0  0
 13 29  1  0  0  0  0
 14 30  1  0  0  0  0
 15 23  1  0  0  0  0
 15 28  2  0  0  0  0
 16 24  2  0  0  0  0
 16 25  1  0  0  0  0
 17 30  2  0  0  0  0
 17 31  1  0  0  0  0
 18 32  1  0  0  0  0
 19 32  1  0  0  0  0
 19 33  2  0  0  0  0
 19 38  1  0  0  0  0
 20 22  2  0  0  0  0
 20 43  1  0  0  0  0
 21 23  2  0  0  0  0
 21 44  1  0  0  0  0
 22 57  1  0  0  0  0
 23 45  1  0  0  0  0
 24 67  1  0  0  0  0
 25 26  2  0  0  0  0
 25 61  1  0  0  0  0
 26 78  1  0  0  0  0
 27 88  1  0  0  0  0
 28 89  1  0  0  0  0
 29 31  2  0  0  0  0
 29 88  1  0  0  0  0
 30 90  1  0  0  0  0
 31 91  1  0  0  0  0
 32 72  2  0  0  0  0
 33 73  1  0  0  0  0
 33 76  1  0  0  0  0
 34 36  2  0  0  0  0
 34 58  1  0  0  0  0
 34 81  1  0  0  0  0
 35 37  2  0  0  0  0
 36 37  1  0  0  0  0
 38 77  1  0  0  0  0
 38 83  2  0  0  0  0
 39 59  1  0  0  0  0
 39 79  1  0  0  0  0
 39 84  2  0  0  0  0
 40 69  1  0  0  0  0
 40 74  1  0  0  0  0
 40 85  2  0  0  0  0
 41 70  1  0  0  0  0
 41 80  1  0  0  0  0
 41 86  2  0  0  0  0
 42 75  1  0  0  0  0
 42 78  1  0  0  0  0
 42 87  2  0  0  0  0
 43 46  1  0  0  0  0
 44 59  1  0  0  0  0
 45 74  1  0  0  0  0
 46 51  1  0  0  0  0
 47 48  1  0  0  0  0
 47 50  1  0  0  0  0
 48 52  1  0  0  0  0
 49 53  1  0  0  0  0
 49 54  1  0  0  0  0
 50 56  1  0  0  0  0
 51 57  1  0  0  0  0
 52 58  1  0  0  0  0
 53 60  1  0  0  0  0
 54 75  1  0  0  0  0
 55 60  1  0  0  0  0
 55 75  1  0  0  0  0
 56 81  1  0  0  0  0
 57 79  1  0  0  0  0
 58 68  1  0  0  0  0
 59 74  1  0  0  0  0
 60 73  1  0  0  0  0
 62 70  1  0  0  0  0
 63 71  1  0  0  0  0
 64 71  1  0  0  0  0
 65 71  1  0  0  0  0
 66 82  1  0  0  0  0
 67 81  1  0  0  0  0
 68 89  1  0  0  0  0
 69 71  1  0  0  0  0
 69 80  1  0  0  0  0
 70 82  1  0  0  0  0
 72 73  1  0  0  0  0
M  CHG  2  81   1  82   1
M  ISO  4  42 100  68 101  78 100  89 101
M  END
> <Batch ID>
0040

> <Smiles>
C=CC=C1C([101CH2:1][101O:1]c2ccc3c(c2)CN(C(=O)C(NC(=O)C(C)NC)C(C)(C)C)C(C(=O)NC2CCCc4ccccc42)C3)CCCCCN1Cc1ccc([100NH:0][100C:0](=O)N2CCCC(n3nc(-c4ccc(Oc5ccc(F)cc5F)cc4)c(C(N)=O)c3N)C2)c(C)c1

> <Shape>
0.250

> <Color>
0.058

> <Negative vol penalty>
0.000

$$$$

  -OEChem-04042322063D

 90 99  0     1  0  0  0  0  0999 V2000
  -23.3368  -37.5934   24.1652 C   0  0  0  0  0  0  0  0  0  0  0  0
  -24.2872  -37.0665   23.2966 C   0  0  0  0  0  0  0  0  0  0  0  0
  -23.4762  -13.0298   23.8535 C   0  0  0  0  0  0  0  0  0  0  0  0
  -25.7111  -13.5182   23.0765 C   0  0  0  0  0  0  0  0  0  0  0  0
  -22.7346  -36.7732   25.1185 C   0  0  0  0  0  0  0  0  0  0  0  0
  -24.6369  -35.7193   23.3815 C   0  0  0  0  0  0  0  0  0  0  0  0
  -26.6961  -30.2171   19.2825 C   0  0  0  0  0  0  0  0  0  0  0  0
  -23.6496  -11.6892   23.5096 C   0  0  0  0  0  0  0  0  0  0  0  0
  -25.8845  -12.1775   22.7326 C   0  0  0  0  0  0  0  0  0  0  0  0
  -27.6985  -29.2517   19.1997 C   0  0  0  0  0  0  0  0  0  0  0  0
  -23.5679   -9.8073   20.7031 C   0  0  0  0  0  0  0  0  0  0  0  0
  -22.5270   -9.1732   20.0249 C   0  0  0  0  0  0  0  0  0  0  0  0
  -26.5347  -27.9118   20.8335 C   0  0  0  0  0  0  0  0  0  0  0  0
  -30.5545  -18.5841   18.4955 C   0  0  0  0  0  0  0  0  0  0  0  0
  -28.7562  -20.7135   18.6162 C   0  0  0  0  0  0  0  0  0  0  0  0
  -22.3310   -7.5716   21.8232 C   0  0  0  0  0  0  0  0  0  0  0  0
  -24.5070  -13.9443   23.6368 C   0  0  0  0  0  0  0  0  0  0  0  0
  -24.0523  -15.8511   25.2694 C   0  0  0  0  0  0  0  0  0  0  0  0
  -23.0700  -35.4130   25.2087 C   0  0  0  0  0  0  0  0  0  0  0  0
  -25.6091  -30.0418   20.1510 C   0  0  0  0  0  0  0  0  0  0  0  0
  -24.0396  -34.8805   24.3377 C   0  0  0  0  0  0  0  0  0  0  0  0
  -25.5185  -28.8752   20.9236 C   0  0  0  0  0  0  0  0  0  0  0  0
  -30.8077  -19.7524   17.7768 C   0  0  0  0  0  0  0  0  0  0  0  0
  -29.4020  -18.4805   19.2745 C   0  0  0  0  0  0  0  0  0  0  0  0
  -29.9086  -20.8171   17.8372 C   0  0  0  0  0  0  0  0  0  0  0  0
  -28.5030  -19.5452   19.3349 C   0  0  0  0  0  0  0  0  0  0  0  0
  -24.8538  -11.2630   22.9492 C   0  0  0  0  0  0  0  0  0  0  0  0
  -27.6194  -28.1002   19.9774 C   0  0  0  0  0  0  0  0  0  0  0  0
  -23.9904   -9.3237   21.9414 C   0  0  0  0  0  0  0  0  0  0  0  0
  -21.9086   -8.0553   20.5850 C   0  0  0  0  0  0  0  0  0  0  0  0
  -23.3720   -8.2058   22.5014 C   0  0  0  0  0  0  0  0  0  0  0  0
  -24.3282  -15.3294   23.9913 C   0  0  0  0  0  0  0  0  0  0  0  0
  -23.9757  -17.2088   25.0769 C   0  0  0  0  0  0  0  0  0  0  0  0
  -30.6766  -23.6520   18.8278 C   0  0  0  0  0  0  0  0  0  0  0  0
  -30.8456  -23.0818   20.0339 C   0  0  0  0  0  0  0  0  0  0  0  0
  -23.8807  -15.1692   26.5190 C   0  0  0  0  0  0  0  0  0  0  0  0
  -24.4775  -31.6109   22.6731 C   0  0  0  0  0  0  0  0  0  0  0  0
  -22.0525  -29.4704   22.4274 C   0  0  0  0  0  0  0  0  0  0  0  0
  -20.9836  -26.4148   21.3468 C   0  0  0  0  0  0  0  0  0  0  0  0
  -26.3361  -20.4308   20.2839 C   0  0  0  0  0  0  0  0  0  0  0  0
  -22.4268  -34.5767   26.2864 C   0  0  0  0  0  0  0  0  0  0  0  0
  -24.5224  -31.0802   20.2089 C   0  0  0  0  0  0  0  0  0  0  0  0
  -24.3619  -28.6299   21.8567 C   0  0  0  0  0  0  0  0  0  0  0  0
  -29.8840  -24.9257   18.6679 C   0  0  0  0  0  0  0  0  0  0  0  0
  -22.5792  -33.0742   26.0638 C   0  0  0  0  0  0  0  0  0  0  0  0
  -33.0289  -25.5127   18.3511 C   0  0  0  0  0  0  0  0  0  0  0  0
  -22.8393  -20.2322   21.4635 C   0  0  0  0  0  0  0  0  0  0  0  0
  -33.1528  -24.5183   17.1943 C   0  0  0  0  0  0  0  0  0  0  0  0
  -24.0186  -32.7330   25.6918 C   0  0  0  0  0  0  0  0  0  0  0  0
  -31.8876  -26.5251   18.2173 C   0  0  0  0  0  0  0  0  0  0  0  0
  -22.8197  -19.1586   22.5527 C   0  0  0  0  0  0  0  0  0  0  0  0
  -24.1714  -20.9642   21.3772 C   0  0  0  0  0  0  0  0  0  0  0  0
  -25.2274  -18.7421   21.8443 C   0  0  0  0  0  0  0  0  0  0  0  0
  -31.8809  -23.8518   16.6785 C   0  0  0  0  0  0  0  0  0  0  0  0
  -24.4273  -33.4183   24.3823 C   0  0  1  0  0  0  0  0  0  0  0  0
  -23.7230  -31.0366   21.5075 C   0  0  1  0  0  0  0  0  0  0  0  0
  -30.6413  -26.2079   19.0707 C   0  0  1  0  0  0  0  0  0  0  0  0
  -24.2262  -18.7373   23.0101 C   0  0  2  0  0  0  0  0  0  0  0  0
  -32.0479  -19.8402   16.9492 C   0  0  0  0  0  0  0  0  0  0  0  0
  -29.1562  -17.2173   20.0341 C   0  0  0  0  0  0  0  0  0  0  0  0
  -18.9607  -24.9300   21.3251 C   0  0  0  0  0  0  0  0  0  0  0  0
  -22.5286  -28.7830   25.3618 C   0  0  0  0  0  0  0  0  0  0  0  0
  -21.1826  -26.6998   25.0200 C   0  0  0  0  0  0  0  0  0  0  0  0
  -20.1208  -28.9347   24.7032 C   0  0  0  0  0  0  0  0  0  0  0  0
  -20.8823  -26.4007   18.3890 C   0  0  0  0  0  0  0  0  0  0  0  0
  -30.1599  -22.0833   17.0726 C   0  0  0  0  0  0  0  0  0  0  0  0
  -29.6743  -27.3982   19.0074 C   0  0  0  0  0  0  0  0  0  1  0  0
  -21.7787  -28.0960   22.9887 C   0  0  1  0  0  0  0  0  0  0  0  0
  -19.7450  -25.9958   20.5756 C   0  0  2  0  0  0  0  0  0  0  0  0
  -21.4256  -28.1336   24.5024 C   0  0  0  0  0  0  0  0  0  0  0  0
  -24.4205  -16.2784   23.0560 N   0  0  0  0  0  0  0  0  0  0  0  0
  -24.2012  -17.4101   23.7469 N   0  0  0  0  0  0  0  0  0  0  0  0
  -23.3278  -29.6774   21.8826 N   0  0  0  0  0  0  0  0  0  0  0  0
  -25.2805  -20.0354   21.1413 N   0  0  0  0  0  0  0  0  0  0  0  0
  -23.7380  -18.2383   25.9172 N   0  0  0  0  0  0  0  0  0  0  0  0
  -25.0089  -14.9510   27.3214 N   0  0  0  0  0  0  0  0  0  0  0  0
  -27.3269  -19.4592   20.1208 N   0  0  0  0  0  0  0  0  0  0  0  0
  -23.8721  -32.7122   23.2476 N   0  0  0  0  0  0  0  0  0  0  0  0
  -20.7404  -27.5109   22.1472 N   0  0  0  0  0  0  0  0  0  0  0  0
  -31.2309  -22.9471   17.6942 N   0  3  2  0  0  0  0  0  0  0  0  0
  -20.1252  -25.4491   19.2424 N   0  3  0  0  0  0  0  0  0  0  0  0
  -22.7628  -14.7510   26.9046 O   0  0  0  0  0  0  0  0  0  0  0  0
  -25.5301  -31.0922   23.0262 O   0  0  0  0  0  0  0  0  0  0  0  0
  -21.1652  -30.3265   22.4642 O   0  0  0  0  0  0  0  0  0  0  0  0
  -22.0584  -25.8262   21.2516 O   0  0  0  0  0  0  0  0  0  0  0  0
  -26.3444  -21.5338   19.7331 O   0  0  0  0  0  0  0  0  0  0  0  0
  -25.0234   -9.9549   22.6138 O   0  0  0  0  0  0  0  0  0  0  0  0
  -28.6067  -27.1471   19.8982 O   0  0  0  0  0  0  0  0  0  1  0  0
  -20.9080   -7.4473   19.9343 F   0  0  0  0  0  0  0  0  0  0  0  0
  -23.7727   -7.7373   23.6912 F   0  0  0  0  0  0  0  0  0  0  0  0
  1  2  1  0  0  0  0
  1  5  2  0  0  0  0
  2  6  2  0  0  0  0
  3  8  2  0  0  0  0
  3 17  1  0  0  0  0
  4  9  1  0  0  0  0
  4 17  2  0  0  0  0
  5 19  1  0  0  0  0
  6 21  1  0  0  0  0
  7 10  2  0  0  0  0
  7 20  1  0  0  0  0
  8 27  1  0  0  0  0
  9 27  2  0  0  0  0
 10 28  1  0  0  0  0
 11 12  2  0  0  0  0
 11 29  1  0  0  0  0
 12 30  1  0  0  0  0
 13 22  1  0  0  0  0
 13 28  2  0  0  0  0
 14 23  1  0  0  0  0
 14 24  2  0  0  0  0
 15 25  1  0  0  0  0
 15 26  2  0  0  0  0
 16 30  2  0  0  0  0
 16 31  1  0  0  0  0
 17 32  1  0  0  0  0
 18 32  1  0  0  0  0
 18 33  2  0  0  0  0
 18 36  1  0  0  0  0
 19 21  2  0  0  0  0
 19 41  1  0  0  0  0
 20 22  2  0  0  0  0
 20 42  1  0  0  0  0
 21 55  1  0  0  0  0
 22 43  1  0  0  0  0
 23 25  2  0  0  0  0
 23 59  1  0  0  0  0
 24 26  1  0  0  0  0
 24 60  1  0  0  0  0
 25 66  1  0  0  0  0
 26 77  1  0  0  0  0
 27 87  1  0  0  0  0
 28 88  1  0  0  0  0
 29 31  2  0  0  0  0
 29 87  1  0  0  0  0
 30 89  1  0  0  0  0
 31 90  1  0  0  0  0
 32 71  2  0  0  0  0
 33 72  1  0  0  0  0
 33 75  1  0  0  0  0
 34 35  2  0  0  0  0
 34 44  1  0  0  0  0
 34 80  1  0  0  0  0
 36 76  1  0  0  0  0
 36 82  2  0  0  0  0
 37 56  1  0  0  0  0
 37 78  1  0  0  0  0
 37 83  2  0  0  0  0
 38 68  1  0  0  0  0
 38 73  1  0  0  0  0
 38 84  2  0  0  0  0
 39 69  1  0  0  0  0
 39 79  1  0  0  0  0
 39 85  2  0  0  0  0
 40 74  1  0  0  0  0
 40 77  1  0  0  0  0
 40 86  2  0  0  0  0
 41 45  1  0  0  0  0
 42 56  1  0  0  0  0
 43 73  1  0  0  0  0
 44 57  1  0  0  0  0
 45 49  1  0  0  0  0
 46 48  1  0  0  0  0
 46 50  1  0  0  0  0
 47 51  1  0  0  0  0
 47 52  1  0  0  0  0
 48 54  1  0  0  0  0
 49 55  1  0  0  0  0
 50 57  1  0  0  0  0
 51 58  1  0  0  0  0
 52 74  1  0  0  0  0
 53 58  1  0  0  0  0
 53 74  1  0  0  0  0
 54 80  1  0  0  0  0
 55 78  1  0  0  0  0
 56 73  1  0  0  0  0
 57 67  1  0  0  0  0
 58 72  1  0  0  0  0
 61 69  1  0  0  0  0
 62 70  1  0  0  0  0
 63 70  1  0  0  0  0
 64 70  1  0  0  0  0
 65 81  1  0  0  0  0
 66 80  1  0  0  0  0
 67 88  1  0  0  0  0
 68 70  1  0  0  0  0
 68 79  1  0  0  0  0
 69 81  1  0  0  0  0
 71 72  1  0  0  0  0
M  CHG  2  80   1  81   1
M  ISO  4  40 100  67 101  77 100  88 101
M  END
> <Batch ID>
0040

> <Smiles>
C=C1CC([101CH2:1][101O:1]c2ccc3c(c2)CN(C(=O)C(NC(=O)C(C)NC)C(C)(C)C)C(C(=O)NC2CCCc4ccccc42)C3)CCCCN1Cc1cc([100NH:0][100C:0](=O)N2CCCC(n3nc(-c4ccc(Oc5ccc(F)cc5F)cc4)c(C(N)=O)c3N)C2)c(C)cc1C

> <Shape>
0.263

> <Color>
0.053

> <Negative vol penalty>
0.000

$$$$

  -OEChem-04042322063D

 91100  0     1  0  0  0  0  0999 V2000
  -13.7849  -27.6549   12.5311 C   0  0  0  0  0  0  0  0  0  0  0  0
  -13.7552  -26.3390   12.9815 C   0  0  0  0  0  0  0  0  0  0  0  0
  -23.3412  -10.1553   22.2391 C   0  0  0  0  0  0  0  0  0  0  0  0
  -23.5778   -9.5458   19.9133 C   0  0  0  0  0  0  0  0  0  0  0  0
  -14.8492  -28.0983   11.7472 C   0  0  0  0  0  0  0  0  0  0  0  0
  -14.7894  -25.4654   12.6474 C   0  0  0  0  0  0  0  0  0  0  0  0
  -19.4499  -21.2309   17.2708 C   0  0  0  0  0  0  0  0  0  0  0  0
  -22.5980   -8.9971   22.4671 C   0  0  0  0  0  0  0  0  0  0  0  0
  -22.8346   -8.3876   20.1412 C   0  0  0  0  0  0  0  0  0  0  0  0
  -20.4372  -20.5569   17.9900 C   0  0  0  0  0  0  0  0  0  0  0  0
  -19.4311   -7.9303   21.9606 C   0  0  0  0  0  0  0  0  0  0  0  0
  -18.2657   -8.0475   22.7181 C   0  0  0  0  0  0  0  0  0  0  0  0
  -21.9532  -20.7564   16.1165 C   0  0  0  0  0  0  0  0  0  0  0  0
  -31.6311  -18.3381   20.1404 C   0  0  0  0  0  0  0  0  0  0  0  0
  -30.2132  -20.0816   19.2536 C   0  0  0  0  0  0  0  0  0  0  0  0
  -19.1647   -6.4994   24.3406 C   0  0  0  0  0  0  0  0  0  0  0  0
  -23.8310  -10.4297   20.9622 C   0  0  0  0  0  0  0  0  0  0  0  0
  -24.1790  -12.9564   20.9170 C   0  0  0  0  0  0  0  0  0  0  0  0
  -15.9018  -27.2324   11.4113 C   0  0  0  0  0  0  0  0  0  0  0  0
  -19.7160  -21.6843   15.9758 C   0  0  0  0  0  0  0  0  0  0  0  0
  -15.8682  -25.8973   11.8571 C   0  0  0  0  0  0  0  0  0  0  0  0
  -20.9724  -21.4430   15.3959 C   0  0  0  0  0  0  0  0  0  0  0  0
  -31.4298  -19.3993   19.2579 C   0  0  0  0  0  0  0  0  0  0  0  0
  -30.6158  -17.9590   21.0186 C   0  0  0  0  0  0  0  0  0  0  0  0
  -29.1979  -19.7026   20.1318 C   0  0  0  0  0  0  0  0  0  0  0  0
  -29.3992  -18.6413   21.0143 C   0  0  0  0  0  0  0  0  0  0  0  0
  -22.3448   -8.1132   21.4181 C   0  0  0  0  0  0  0  0  0  0  0  0
  -21.6856  -20.3201   17.4141 C   0  0  0  0  0  0  0  0  0  0  0  0
  -20.4632   -7.0976   22.3930 C   0  0  0  0  0  0  0  0  0  0  0  0
  -18.1325   -7.3321   23.9081 C   0  0  0  0  0  0  0  0  0  0  0  0
  -20.3300   -6.3822   23.5830 C   0  0  0  0  0  0  0  0  0  0  0  0
  -24.5983  -11.6262   20.7260 C   0  0  0  0  0  0  0  0  0  0  0  0
  -25.2653  -13.7143   20.5536 C   0  0  0  0  0  0  0  0  0  0  0  0
  -25.9953  -21.1768   18.8065 C   0  0  0  0  0  0  0  0  0  0  0  0
  -26.1184  -22.4925   18.5590 C   0  0  0  0  0  0  0  0  0  0  0  0
  -22.9203  -13.4618   21.3815 C   0  0  0  0  0  0  0  0  0  0  0  0
  -18.4500  -23.4848   12.9375 C   0  0  0  0  0  0  0  0  0  0  0  0
  -21.3557  -24.3755   13.3548 C   0  0  0  0  0  0  0  0  0  0  0  0
  -24.4303  -25.4147   14.4053 C   0  0  0  0  0  0  0  0  0  0  0  0
  -30.7555  -14.7112   20.6497 C   0  0  0  0  0  0  0  0  0  0  0  0
  -17.0073  -27.7442   10.5222 C   0  0  0  0  0  0  0  0  0  0  0  0
  -18.6622  -22.3605   15.1415 C   0  0  0  0  0  0  0  0  0  0  0  0
  -21.2023  -21.9185   13.9873 C   0  0  0  0  0  0  0  0  0  0  0  0
  -24.6569  -20.5593   19.1012 C   0  0  0  0  0  0  0  0  0  0  0  0
  -18.2507  -26.8586   10.5252 C   0  0  0  0  0  0  0  0  0  0  0  0
  -29.5554  -12.4093   18.2129 C   0  0  0  0  0  0  0  0  0  0  0  0
  -26.1799  -18.8530   17.0380 C   0  0  0  0  0  0  0  0  0  0  0  0
  -17.8619  -25.3919   10.3687 C   0  0  0  0  0  0  0  0  0  0  0  0
  -28.1271  -12.1056   18.6687 C   0  0  0  0  0  0  0  0  0  0  0  0
  -24.6780  -18.7358   17.2945 C   0  0  0  0  0  0  0  0  0  0  0  0
  -30.5004  -12.5881   19.3991 C   0  0  0  0  0  0  0  0  0  0  0  0
  -28.6333  -13.2787   20.8519 C   0  0  0  0  0  0  0  0  0  0  0  0
  -26.9966  -18.9619   18.3230 C   0  0  0  0  0  0  0  0  0  0  0  0
  -16.9838  -24.9263   11.5364 C   0  0  1  0  0  0  0  0  0  0  0  0
  -19.2323  -23.4516   14.2175 C   0  0  1  0  0  0  0  0  0  0  0  0
  -27.6320  -13.1456   19.6918 C   0  0  2  0  0  0  0  0  0  0  0  0
  -24.0059  -19.9974   17.8352 C   0  0  1  0  0  0  0  0  0  1  0  0
  -32.5151  -19.8042   18.3186 C   0  0  0  0  0  0  0  0  0  0  0  0
  -28.3109  -18.2350   21.9562 C   0  0  0  0  0  0  0  0  0  0  0  0
  -27.2333  -24.6548   18.0249 C   0  0  0  0  0  0  0  0  0  0  0  0
  -26.5321  -26.7847   14.4596 C   0  0  0  0  0  0  0  0  0  0  0  0
  -22.2402  -22.4403   11.1693 C   0  0  0  0  0  0  0  0  0  0  0  0
  -24.5122  -23.4882   11.2596 C   0  0  0  0  0  0  0  0  0  0  0  0
  -22.5338  -24.8586   10.6034 C   0  0  0  0  0  0  0  0  0  0  0  0
  -23.2040  -27.4374   16.1840 C   0  0  0  0  0  0  0  0  0  0  0  0
  -30.8572  -16.8199   21.9544 C   0  0  0  0  0  0  0  0  0  0  0  0
  -27.8988  -20.4527   20.1073 C   0  0  0  0  0  0  0  0  0  0  0  0
  -27.4207  -23.1641   18.2598 C   0  0  0  0  0  0  0  0  0  0  0  0
  -22.8079  -24.1533   13.0158 C   0  0  1  0  0  0  0  0  0  0  0  0
  -25.0168  -26.8030   14.5871 C   0  0  2  0  0  0  0  0  0  0  0  0
  -23.0118  -23.7239   11.5354 C   0  0  0  0  0  0  0  0  0  0  0  0
  -25.8530  -11.5405   20.2760 N   0  0  0  0  0  0  0  0  0  0  0  0
  -26.2314  -12.8265   20.1811 N   0  0  0  0  0  0  0  0  0  0  0  0
  -20.6361  -23.2652   13.8130 N   0  0  0  0  0  0  0  0  0  0  0  0
  -29.9738  -13.5886   20.3306 N   0  0  0  0  0  0  0  0  0  0  0  0
  -25.4788  -15.0468   20.5193 N   0  0  0  0  0  0  0  0  0  0  0  0
  -21.9202  -13.7335   20.4379 N   0  0  0  0  0  0  0  0  0  0  0  0
  -17.7934  -24.6792   12.7103 N   0  0  0  0  0  0  0  0  0  0  0  0
  -23.5053  -25.3808   13.3834 N   0  0  0  0  0  0  0  0  0  0  0  0
  -30.1790  -15.6136   21.5351 N   0  0  0  0  0  0  0  0  0  0  0  0
  -27.2051  -20.3903   18.7685 N   0  3  2  0  0  0  0  0  0  0  0  0
  -24.6648  -27.3421   15.9312 N   0  3  0  0  0  0  0  0  0  0  0  0
  -22.6949  -13.6819   22.5957 O   0  0  0  0  0  0  0  0  0  0  0  0
  -18.4431  -22.5002   12.2079 O   0  0  0  0  0  0  0  0  0  0  0  0
  -20.8684  -25.5005   13.2129 O   0  0  0  0  0  0  0  0  0  0  0  0
  -24.7625  -24.4553   15.0980 O   0  0  0  0  0  0  0  0  0  0  0  0
  -31.8815  -14.8982   20.1762 O   0  0  0  0  0  0  0  0  0  0  0  0
  -21.6199   -6.9829   21.6402 O   0  0  0  0  0  0  0  0  0  0  0  0
  -22.6464  -19.6655   18.1235 O   0  0  0  0  0  0  0  0  0  1  0  0
  -17.0141   -7.4459   24.6362 F   0  0  0  0  0  0  0  0  0  0  0  0
  -21.3187   -5.5815   24.0041 F   0  0  0  0  0  0  0  0  0  0  0  0
  1  2  1  0  0  0  0
  1  5  2  0  0  0  0
  2  6  2  0  0  0  0
  3  8  2  0  0  0  0
  3 17  1  0  0  0  0
  4  9  1  0  0  0  0
  4 17  2  0  0  0  0
  5 19  1  0  0  0  0
  6 21  1  0  0  0  0
  7 10  2  0  0  0  0
  7 20  1  0  0  0  0
  8 27  1  0  0  0  0
  9 27  2  0  0  0  0
 10 28  1  0  0  0  0
 11 12  2  0  0  0  0
 11 29  1  0  0  0  0
 12 30  1  0  0  0  0
 13 22  1  0  0  0  0
 13 28  2  0  0  0  0
 14 23  1  0  0  0  0
 14 24  2  0  0  0  0
 15 23  2  0  0  0  0
 15 25  1  0  0  0  0
 16 30  2  0  0  0  0
 16 31  1  0  0  0  0
 17 32  1  0  0  0  0
 18 32  1  0  0  0  0
 18 33  2  0  0  0  0
 18 36  1  0  0  0  0
 19 21  2  0  0  0  0
 19 41  1  0  0  0  0
 20 22  2  0  0  0  0
 20 42  1  0  0  0  0
 21 54  1  0  0  0  0
 22 43  1  0  0  0  0
 23 58  1  0  0  0  0
 24 26  1  0  0  0  0
 24 66  1  0  0  0  0
 25 26  2  0  0  0  0
 25 67  1  0  0  0  0
 26 59  1  0  0  0  0
 27 88  1  0  0  0  0
 28 89  1  0  0  0  0
 29 31  2  0  0  0  0
 29 88  1  0  0  0  0
 30 90  1  0  0  0  0
 31 91  1  0  0  0  0
 32 72  2  0  0  0  0
 33 73  1  0  0  0  0
 33 76  1  0  0  0  0
 34 35  2  0  0  0  0
 34 44  1  0  0  0  0
 34 81  1  0  0  0  0
 35 68  1  0  0  0  0
 36 77  1  0  0  0  0
 36 83  2  0  0  0  0
 37 55  1  0  0  0  0
 37 78  1  0  0  0  0
 37 84  2  0  0  0  0
 38 69  1  0  0  0  0
 38 74  1  0  0  0  0
 38 85  2  0  0  0  0
 39 70  1  0  0  0  0
 39 79  1  0  0  0  0
 39 86  2  0  0  0  0
 40 75  1  0  0  0  0
 40 80  1  0  0  0  0
 40 87  2  0  0  0  0
 41 45  1  0  0  0  0
 42 55  1  0  0  0  0
 43 74  1  0  0  0  0
 44 57  1  0  0  0  0
 45 48  1  0  0  0  0
 46 49  1  0  0  0  0
 46 51  1  0  0  0  0
 47 50  1  0  0  0  0
 47 53  1  0  0  0  0
 48 54  1  0  0  0  0
 49 56  1  0  0  0  0
 50 57  1  0  0  0  0
 51 75  1  0  0  0  0
 52 56  1  0  0  0  0
 52 75  1  0  0  0  0
 53 81  1  0  0  0  0
 54 78  1  0  0  0  0
 55 74  1  0  0  0  0
 56 73  1  0  0  0  0
 57 89  1  0  0  0  0
 60 68  1  0  0  0  0
 61 70  1  0  0  0  0
 62 71  1  0  0  0  0
 63 71  1  0  0  0  0
 64 71  1  0  0  0  0
 65 82  1  0  0  0  0
 66 80  1  0  0  0  0
 67 81  1  0  0  0  0
 69 71  1  0  0  0  0
 69 79  1  0  0  0  0
 70 82  1  0  0  0  0
 72 73  1  0  0  0  0
M  CHG  2  81   1  82   1
M  ISO  4  40 100  57 101  80 100  89 101
M  END
> <Batch ID>
0040

> <Smiles>
CCC=C1C[101CH:1]([101O:1]c2ccc3c(c2)CN(C(=O)C(NC(=O)C(C)NC)C(C)(C)C)C(C(=O)NC2CCCc4ccccc42)C3)CCCN1Cc1cc(C)cc(C[100NH:0][100C:0](=O)N2CCCC(n3nc(-c4ccc(Oc5ccc(F)cc5F)cc4)c(C(N)=O)c3N)C2)c1C

> <Shape>
0.181

> <Color>
0.153

> <Negative vol penalty>
0.000

$$$$

  -OEChem-04042322063D

 91100  0     1  0  0  0  0  0999 V2000
  -29.1051  -23.1803   18.3895 C   0  0  0  0  0  0  0  0  0  0  0  0
  -27.9296  -23.3703   19.1089 C   0  0  0  0  0  0  0  0  0  0  0  0
  -22.3410  -10.3527   20.5917 C   0  0  0  0  0  0  0  0  0  0  0  0
  -24.1165   -9.5642   22.0280 C   0  0  0  0  0  0  0  0  0  0  0  0
  -30.2300  -23.9517   18.6782 C   0  0  0  0  0  0  0  0  0  0  0  0
  -27.8787  -24.3311   20.1182 C   0  0  0  0  0  0  0  0  0  0  0  0
  -23.6591  -27.1247   19.9303 C   0  0  0  0  0  0  0  0  0  0  0  0
  -21.1403  -20.3402   25.1549 C   0  0  0  0  0  0  0  0  0  0  0  0
  -21.9193  -19.2093   25.3994 C   0  0  0  0  0  0  0  0  0  0  0  0
  -21.8025   -9.0667   20.5514 C   0  0  0  0  0  0  0  0  0  0  0  0
  -23.5780   -8.2781   21.9877 C   0  0  0  0  0  0  0  0  0  0  0  0
  -22.4916  -26.5490   20.4294 C   0  0  0  0  0  0  0  0  0  0  0  0
  -21.0394   -6.5955   23.4523 C   0  0  0  0  0  0  0  0  0  0  0  0
  -20.9439   -5.8965   24.6556 C   0  0  0  0  0  0  0  0  0  0  0  0
  -22.7717  -27.7784   22.4859 C   0  0  0  0  0  0  0  0  0  0  0  0
  -20.2512  -17.8287   24.3276 C   0  0  0  0  0  0  0  0  0  0  0  0
  -22.3719   -4.1643   23.7627 C   0  0  0  0  0  0  0  0  0  0  0  0
  -23.4981  -10.6015   21.3300 C   0  0  0  0  0  0  0  0  0  0  0  0
  -24.5136  -12.6938   20.2817 C   0  0  0  0  0  0  0  0  0  0  0  0
  -30.1901  -24.9291   19.6850 C   0  0  0  0  0  0  0  0  0  0  0  0
  -24.3988  -28.0248   20.7107 C   0  0  0  0  0  0  0  0  0  0  0  0
  -29.0046  -25.1153   20.4216 C   0  0  0  0  0  0  0  0  0  0  0  0
  -23.9469  -28.3661   21.9934 C   0  0  0  0  0  0  0  0  0  0  0  0
  -19.9168  -20.2155   24.4968 C   0  0  0  0  0  0  0  0  0  0  0  0
  -21.4747  -17.9535   24.9857 C   0  0  0  0  0  0  0  0  0  0  0  0
  -22.4209   -8.0294   21.2494 C   0  0  0  0  0  0  0  0  0  0  0  0
  -22.0492  -26.8736   21.7085 C   0  0  0  0  0  0  0  0  0  0  0  0
  -21.8011   -6.0788   22.4042 C   0  0  0  0  0  0  0  0  0  0  0  0
  -21.6102   -4.6810   24.8108 C   0  0  0  0  0  0  0  0  0  0  0  0
  -22.4674   -4.8633   22.5594 C   0  0  0  0  0  0  0  0  0  0  0  0
  -19.4722  -18.9597   24.0832 C   0  0  0  0  0  0  0  0  0  0  0  0
  -24.0552  -11.9296   21.3716 C   0  0  0  0  0  0  0  0  0  0  0  0
  -24.9423  -13.8712   20.8441 C   0  0  0  0  0  0  0  0  0  0  0  0
  -20.4078  -22.5945   22.5724 C   0  0  0  0  0  0  0  0  0  0  0  0
  -21.4078  -21.8496   22.0692 C   0  0  0  0  0  0  0  0  0  0  0  0
  -21.2554  -20.4606   21.7194 C   0  0  0  0  0  0  0  0  0  0  0  0
  -22.2558  -19.7216   21.2178 C   0  0  0  0  0  0  0  0  0  0  0  0
  -24.5486  -12.3683   18.8858 C   0  0  0  0  0  0  0  0  0  0  0  0
  -27.3422  -28.0603   21.9104 C   0  0  0  0  0  0  0  0  0  0  0  0
  -26.5275  -31.0740   22.7914 C   0  0  0  0  0  0  0  0  0  0  0  0
  -24.0558  -33.3084   23.5296 C   0  0  0  0  0  0  0  0  0  0  0  0
  -23.5029  -16.7537   25.8764 C   0  0  0  0  0  0  0  0  0  0  0  0
  -31.4456  -25.7059   19.9929 C   0  0  0  0  0  0  0  0  0  0  0  0
  -25.6417  -28.6576   20.1475 C   0  0  0  0  0  0  0  0  0  0  0  0
  -24.6938  -29.3425   22.8636 C   0  0  0  0  0  0  0  0  0  0  0  0
  -20.6135  -24.0448   22.9240 C   0  0  0  0  0  0  0  0  0  0  0  0
  -31.1965  -26.9613   20.8249 C   0  0  0  0  0  0  0  0  0  0  0  0
  -18.8545  -23.8001   20.2360 C   0  0  0  0  0  0  0  0  0  0  0  0
  -26.7446  -15.6398   24.9132 C   0  0  0  0  0  0  0  0  0  0  0  0
  -17.7917  -22.9641   20.9528 C   0  0  0  0  0  0  0  0  0  0  0  0
  -30.2722  -26.6498   21.9977 C   0  0  0  0  0  0  0  0  0  0  0  0
  -26.4648  -14.6361   23.7924 C   0  0  0  0  0  0  0  0  0  0  0  0
  -19.2601  -25.0869   20.9556 C   0  0  0  0  0  0  0  0  0  0  0  0
  -25.6852  -15.5730   26.0119 C   0  0  0  0  0  0  0  0  0  0  0  0
  -24.0186  -14.6941   24.4246 C   0  0  0  0  0  0  0  0  0  0  0  0
  -17.9419  -22.7399   22.4549 C   0  0  0  0  0  0  0  0  0  0  0  0
  -28.9027  -26.1648   21.5071 C   0  0  1  0  0  0  0  0  0  0  0  0
  -26.5932  -29.1681   21.2252 C   0  0  1  0  0  0  0  0  0  0  0  0
  -25.0233  -14.7693   23.2633 C   0  0  2  0  0  0  0  0  0  0  0  0
  -20.5863  -24.9990   21.7231 C   0  0  1  0  0  0  0  0  0  1  0  0
  -22.1175  -18.2808   20.8495 C   0  0  0  0  0  0  0  0  0  0  0  0
  -23.7003  -35.6851   24.2522 C   0  0  0  0  0  0  0  0  0  0  0  0
  -27.3421  -30.3285   25.6358 C   0  0  0  0  0  0  0  0  0  0  0  0
  -26.1019  -32.3470   26.4456 C   0  0  0  0  0  0  0  0  0  0  0  0
  -28.0516  -32.6150   24.9128 C   0  0  0  0  0  0  0  0  0  0  0  0
  -22.5493  -33.9543   21.0654 C   0  0  0  0  0  0  0  0  0  0  0  0
  -19.1094  -21.4563   24.2530 C   0  0  0  0  0  0  0  0  0  0  0  0
  -25.8789  -31.6945   24.0052 C   0  0  1  0  0  0  0  0  0  0  0  0
  -23.8179  -34.7356   23.0701 C   0  0  2  0  0  0  0  0  0  0  0  0
  -26.8304  -31.7264   25.2344 C   0  0  0  0  0  0  0  0  0  0  0  0
  -24.1811  -12.5680   22.5381 N   0  0  0  0  0  0  0  0  0  0  0  0
  -24.7235  -13.7456   22.1844 N   0  0  0  0  0  0  0  0  0  0  0  0
  -25.9067  -29.9297   22.2707 N   0  0  0  0  0  0  0  0  0  0  0  0
  -24.3453  -15.7107   25.4369 N   0  0  0  0  0  0  0  0  0  0  0  0
  -25.4814  -14.9915   20.3178 N   0  0  0  0  0  0  0  0  0  0  0  0
  -24.0686  -11.1157   18.4796 N   0  0  0  0  0  0  0  0  0  0  0  0
  -22.2657  -16.8046   25.2351 N   0  0  0  0  0  0  0  0  0  0  0  0
  -28.1019  -27.2831   21.0570 N   0  0  0  0  0  0  0  0  0  0  0  0
  -25.4002  -33.0073   23.5859 N   0  0  0  0  0  0  0  0  0  0  0  0
  -19.1538  -21.9182   22.8160 N   0  3  2  0  0  0  0  0  0  0  0  0
  -22.5620  -34.8204   22.2724 N   0  3  0  0  0  0  0  0  0  0  0  0
  -25.0075  -13.1582   18.0262 O   0  0  0  0  0  0  0  0  0  0  0  0
  -27.2396  -27.9218   23.1236 O   0  0  0  0  0  0  0  0  0  0  0  0
  -27.5432  -31.5898   22.3183 O   0  0  0  0  0  0  0  0  0  0  0  0
  -23.1406  -32.5389   23.8140 O   0  0  0  0  0  0  0  0  0  0  0  0
  -23.8637  -17.5601   26.7375 O   0  0  0  0  0  0  0  0  0  0  0  0
  -21.8956   -6.7744   21.2104 O   0  0  0  0  0  0  0  0  0  0  0  0
  -20.9061  -26.3105   22.2002 O   0  0  0  0  0  0  0  0  0  1  0  0
  -21.5196   -4.0106   25.9669 F   0  0  0  0  0  0  0  0  0  0  0  0
  -23.2016   -4.3624   21.5564 F   0  0  0  0  0  0  0  0  0  0  0  0
  -17.9636  -18.7668   23.2668 Cl  0  0  0  0  0  0  0  0  0  0  0  0
  1  2  1  0  0  0  0
  1  5  2  0  0  0  0
  2  6  2  0  0  0  0
  3 10  2  0  0  0  0
  3 18  1  0  0  0  0
  4 11  1  0  0  0  0
  4 18  2  0  0  0  0
  5 20  1  0  0  0  0
  6 22  1  0  0  0  0
  7 12  2  0  0  0  0
  7 21  1  0  0  0  0
  8  9  2  0  0  0  0
  8 24  1  0  0  0  0
  9 25  1  0  0  0  0
 10 26  1  0  0  0  0
 11 26  2  0  0  0  0
 12 27  1  0  0  0  0
 13 14  2  0  0  0  0
 13 28  1  0  0  0  0
 14 29  1  0  0  0  0
 15 23  1  0  0  0  0
 15 27  2  0  0  0  0
 16 25  2  0  0  0  0
 16 31  1  0  0  0  0
 17 29  2  0  0  0  0
 17 30  1  0  0  0  0
 18 32  1  0  0  0  0
 19 32  1  0  0  0  0
 19 33  2  0  0  0  0
 19 38  1  0  0  0  0
 20 22  2  0  0  0  0
 20 43  1  0  0  0  0
 21 23  2  0  0  0  0
 21 44  1  0  0  0  0
 22 57  1  0  0  0  0
 23 45  1  0  0  0  0
 24 31  2  0  0  0  0
 24 67  1  0  0  0  0
 25 77  1  0  0  0  0
 26 87  1  0  0  0  0
 27 88  1  0  0  0  0
 28 30  2  0  0  0  0
 28 87  1  0  0  0  0
 29 89  1  0  0  0  0
 30 90  1  0  0  0  0
 31 91  1  0  0  0  0
 32 71  2  0  0  0  0
 33 72  1  0  0  0  0
 33 75  1  0  0  0  0
 34 35  2  0  0  0  0
 34 46  1  0  0  0  0
 34 80  1  0  0  0  0
 35 36  1  0  0  0  0
 36 37  2  0  0  0  0
 37 61  1  0  0  0  0
 38 76  1  0  0  0  0
 38 82  2  0  0  0  0
 39 58  1  0  0  0  0
 39 78  1  0  0  0  0
 39 83  2  0  0  0  0
 40 68  1  0  0  0  0
 40 73  1  0  0  0  0
 40 84  2  0  0  0  0
 41 69  1  0  0  0  0
 41 79  1  0  0  0  0
 41 85  2  0  0  0  0
 42 74  1  0  0  0  0
 42 77  1  0  0  0  0
 42 86  2  0  0  0  0
 43 47  1  0  0  0  0
 44 58  1  0  0  0  0
 45 73  1  0  0  0  0
 46 60  1  0  0  0  0
 47 51  1  0  0  0  0
 48 50  1  0  0  0  0
 48 53  1  0  0  0  0
 49 52  1  0  0  0  0
 49 54  1  0  0  0  0
 50 56  1  0  0  0  0
 51 57  1  0  0  0  0
 52 59  1  0  0  0  0
 53 60  1  0  0  0  0
 54 74  1  0  0  0  0
 55 59  1  0  0  0  0
 55 74  1  0  0  0  0
 56 80  1  0  0  0  0
 57 78  1  0  0  0  0
 58 73  1  0  0  0  0
 59 72  1  0  0  0  0
 60 88  1  0  0  0  0
 62 69  1  0  0  0  0
 63 70  1  0  0  0  0
 64 70  1  0  0  0  0
 65 70  1  0  0  0  0
 66 81  1  0  0  0  0
 67 80  1  0  0  0  0
 68 70  1  0  0  0  0
 68 79  1  0  0  0  0
 69 81  1  0  0  0  0
 71 72  1  0  0  0  0
M  CHG  2  80   1  81   1
M  ISO  4  42 100  60 101  77 100  88 101
M  END
> <Batch ID>
0040

> <Smiles>
CC=CC=C1C[101CH:1]([101O:1]c2ccc3c(c2)CN(C(=O)C(NC(=O)C(C)NC)C(C)(C)C)C(C(=O)NC2CCCc4ccccc42)C3)CCCCN1Cc1ccc([100NH:0][100C:0](=O)N2CCCC(n3nc(-c4ccc(Oc5ccc(F)cc5F)cc4)c(C(N)=O)c3N)C2)cc1Cl

> <Shape>
0.266

> <Color>
0.137

> <Negative vol penalty>
0.000

$$$$

  -OEChem-04042322063D

 91100  0     1  0  0  0  0  0999 V2000
  -28.8056  -34.4135   19.1642 C   0  0  0  0  0  0  0  0  0  0  0  0
  -29.0009  -33.0374   19.2245 C   0  0  0  0  0  0  0  0  0  0  0  0
  -23.1810   -9.8795   19.9529 C   0  0  0  0  0  0  0  0  0  0  0  0
  -23.8985   -9.9434   22.2590 C   0  0  0  0  0  0  0  0  0  0  0  0
  -27.8563  -35.0184   19.9869 C   0  0  0  0  0  0  0  0  0  0  0  0
  -28.2477  -32.2655   20.1084 C   0  0  0  0  0  0  0  0  0  0  0  0
  -26.2384  -26.5500   19.2129 C   0  0  0  0  0  0  0  0  0  0  0  0
  -22.4779   -8.7014   20.2042 C   0  0  0  0  0  0  0  0  0  0  0  0
  -23.1953   -8.7653   22.5104 C   0  0  0  0  0  0  0  0  0  0  0  0
  -26.7229  -25.3098   19.6265 C   0  0  0  0  0  0  0  0  0  0  0  0
  -19.9901   -7.8497   23.0661 C   0  0  0  0  0  0  0  0  0  0  0  0
  -19.2142   -7.7943   24.2239 C   0  0  0  0  0  0  0  0  0  0  0  0
  -25.2111  -25.3528   21.5058 C   0  0  0  0  0  0  0  0  0  0  0  0
  -30.7929  -19.0544   22.7217 C   0  0  0  0  0  0  0  0  0  0  0  0
  -29.2242  -18.1305   24.3099 C   0  0  0  0  0  0  0  0  0  0  0  0
  -20.5162   -5.9156   25.0065 C   0  0  0  0  0  0  0  0  0  0  0  0
  -23.8913  -10.5005   20.9802 C   0  0  0  0  0  0  0  0  0  0  0  0
  -24.1373  -13.0354   20.8343 C   0  0  0  0  0  0  0  0  0  0  0  0
  -27.0843  -34.2522   20.8745 C   0  0  0  0  0  0  0  0  0  0  0  0
  -25.2427  -27.2070   19.9500 C   0  0  0  0  0  0  0  0  0  0  0  0
  -27.2882  -32.8609   20.9447 C   0  0  0  0  0  0  0  0  0  0  0  0
  -24.7139  -26.6000   21.0981 C   0  0  0  0  0  0  0  0  0  0  0  0
  -29.7354  -19.2265   23.6149 C   0  0  0  0  0  0  0  0  0  0  0  0
  -30.8279  -16.6903   23.2186 C   0  0  0  0  0  0  0  0  0  0  0  0
  -22.4850   -8.1442   21.4830 C   0  0  0  0  0  0  0  0  0  0  0  0
  -26.2113  -24.7123   20.7747 C   0  0  0  0  0  0  0  0  0  0  0  0
  -21.0290   -6.9380   22.8784 C   0  0  0  0  0  0  0  0  0  0  0  0
  -19.4773   -6.8273   25.1941 C   0  0  0  0  0  0  0  0  0  0  0  0
  -21.2920   -5.9709   23.8486 C   0  0  0  0  0  0  0  0  0  0  0  0
  -31.3391  -17.7862   22.5235 C   0  0  0  0  0  0  0  0  0  0  0  0
  -29.7704  -16.8624   24.1118 C   0  0  0  0  0  0  0  0  0  0  0  0
  -24.6183  -11.7173   20.7210 C   0  0  0  0  0  0  0  0  0  0  0  0
  -25.2061  -13.8224   20.4809 C   0  0  0  0  0  0  0  0  0  0  0  0
  -25.2845  -22.6550   26.8405 C   0  0  0  0  0  0  0  0  0  0  0  0
  -25.2263  -22.1250   25.6137 C   0  0  0  0  0  0  0  0  0  0  0  0
  -22.8405  -13.5064   21.2243 C   0  0  0  0  0  0  0  0  0  0  0  0
  -25.0655  -29.9656   21.5192 C   0  0  0  0  0  0  0  0  0  0  0  0
  -21.9471  -29.1332   21.8439 C   0  0  0  0  0  0  0  0  0  0  0  0
  -19.6025  -26.6544   21.9155 C   0  0  0  0  0  0  0  0  0  0  0  0
  -30.9731  -14.0033   20.9535 C   0  0  0  0  0  0  0  0  0  0  0  0
  -26.1035  -34.9569   21.7778 C   0  0  0  0  0  0  0  0  0  0  0  0
  -24.7119  -28.5320   19.4757 C   0  0  0  0  0  0  0  0  0  0  0  0
  -23.6298  -27.2545   21.9133 C   0  0  0  0  0  0  0  0  0  0  0  0
  -25.0836  -34.0192   22.4189 C   0  0  0  0  0  0  0  0  0  0  0  0
  -29.3654  -13.0994   17.9080 C   0  0  0  0  0  0  0  0  0  0  0  0
  -25.7761  -32.7826   22.9827 C   0  0  0  0  0  0  0  0  0  0  0  0
  -27.9327  -12.7734   18.3335 C   0  0  0  0  0  0  0  0  0  0  0  0
  -28.3536  -23.8035   22.9300 C   0  0  0  0  0  0  0  0  0  0  0  0
  -27.5133  -23.1498   24.0289 C   0  0  0  0  0  0  0  0  0  0  0  0
  -28.6189  -22.0407   21.1039 C   0  0  0  0  0  0  0  0  0  0  0  0
  -30.3807  -12.6578   18.9597 C   0  0  0  0  0  0  0  0  0  0  0  0
  -28.6921  -12.8412   20.7454 C   0  0  0  0  0  0  0  0  0  0  0  0
  -27.8810  -20.8278   21.6516 C   0  0  0  0  0  0  0  0  0  0  0  0
  -26.4733  -31.9865   21.8729 C   0  0  1  0  0  0  0  0  0  0  0  0
  -24.0607  -29.3477   20.5884 C   0  0  1  0  0  0  0  0  0  0  0  0
  -27.6283  -13.3182   19.7419 C   0  0  2  0  0  0  0  0  0  0  0  0
  -28.0684  -23.4162   21.4823 C   0  0  1  0  0  0  0  0  0  1  0  0
  -26.8705  -21.7866   23.7675 C   0  0  2  0  0  0  0  0  0  0  0  0
  -17.1423  -26.2786   22.2376 C   0  0  0  0  0  0  0  0  0  0  0  0
  -22.2807  -29.5417   24.8492 C   0  0  0  0  0  0  0  0  0  0  0  0
  -20.1526  -28.2670   25.1882 C   0  0  0  0  0  0  0  0  0  0  0  0
  -20.1311  -30.4095   23.9106 C   0  0  0  0  0  0  0  0  0  0  0  0
  -19.3048  -25.5072   19.2036 C   0  0  0  0  0  0  0  0  0  0  0  0
  -31.4141  -15.3280   23.0053 C   0  0  0  0  0  0  0  0  0  0  0  0
  -29.1475  -20.5903   23.8275 C   0  0  0  0  0  0  0  0  0  0  0  0
  -26.2672  -21.2103   25.0525 C   0  0  0  0  0  0  0  0  0  0  0  0
  -21.1500  -28.3489   22.8580 C   0  0  1  0  0  0  0  0  0  0  0  0
  -18.2546  -26.5227   21.2296 C   0  0  2  0  0  0  0  0  0  0  0  0
  -20.9504  -29.1301   24.1874 C   0  0  0  0  0  0  0  0  0  0  0  0
  -25.8933  -11.6657   20.3263 N   0  0  0  0  0  0  0  0  0  0  0  0
  -26.2225  -12.9613   20.1884 N   0  0  0  0  0  0  0  0  0  0  0  0
  -23.1481  -28.5524   21.4123 N   0  0  0  0  0  0  0  0  0  0  0  0
  -30.0356  -13.2096   20.2721 N   0  0  0  0  0  0  0  0  0  0  0  0
  -25.3661  -15.1601   20.3948 N   0  0  0  0  0  0  0  0  0  0  0  0
  -21.8586  -12.5626   21.5552 N   0  0  0  0  0  0  0  0  0  0  0  0
  -25.5072  -31.2133   21.1223 N   0  0  0  0  0  0  0  0  0  0  0  0
  -19.9068  -27.9698   22.1953 N   0  0  0  0  0  0  0  0  0  0  0  0
  -30.5634  -14.4917   22.1882 N   0  0  0  0  0  0  0  0  0  0  0  0
  -27.8115  -20.7678   23.1571 N   0  3  2  0  0  0  0  0  0  0  0  0
  -18.2729  -25.3864   20.2655 N   0  3  0  0  0  0  0  0  0  0  0  0
  -22.5558  -14.7275   21.2619 O   0  0  0  0  0  0  0  0  0  0  0  0
  -25.4131  -29.3562   22.5239 O   0  0  0  0  0  0  0  0  0  0  0  0
  -21.5165  -30.2177   21.4439 O   0  0  0  0  0  0  0  0  0  0  0  0
  -20.3126  -25.6868   22.1801 O   0  0  0  0  0  0  0  0  0  0  0  0
  -32.0902  -14.2622   20.4932 O   0  0  0  0  0  0  0  0  0  0  0  0
  -21.7989   -6.9947   21.7287 O   0  0  0  0  0  0  0  0  0  0  0  0
  -26.6829  -23.5022   21.1809 O   0  0  0  0  0  0  0  0  0  1  0  0
  -18.7331   -6.7752   26.3066 F   0  0  0  0  0  0  0  0  0  0  0  0
  -22.2895   -5.0931   23.6744 F   0  0  0  0  0  0  0  0  0  0  0  0
  -32.6470  -17.6181   21.4082 Cl  0  0  0  0  0  0  0  0  0  0  0  0
  -29.1066  -15.5332   24.9922 Cl  0  0  0  0  0  0  0  0  0  0  0  0
  1  2  1  0  0  0  0
  1  5  2  0  0  0  0
  2  6  2  0  0  0  0
  3  8  2  0  0  0  0
  3 17  1  0  0  0  0
  4  9  1  0  0  0  0
  4 17  2  0  0  0  0
  5 19  1  0  0  0  0
  6 21  1  0  0  0  0
  7 10  2  0  0  0  0
  7 20  1  0  0  0  0
  8 25  1  0  0  0  0
  9 25  2  0  0  0  0
 10 26  1  0  0  0  0
 11 12  2  0  0  0  0
 11 27  1  0  0  0  0
 12 28  1  0  0  0  0
 13 22  1  0  0  0  0
 13 26  2  0  0  0  0
 14 23  1  0  0  0  0
 14 30  2  0  0  0  0
 15 23  2  0  0  0  0
 15 31  1  0  0  0  0
 16 28  2  0  0  0  0
 16 29  1  0  0  0  0
 17 32  1  0  0  0  0
 18 32  1  0  0  0  0
 18 33  2  0  0  0  0
 18 36  1  0  0  0  0
 19 21  2  0  0  0  0
 19 41  1  0  0  0  0
 20 22  2  0  0  0  0
 20 42  1  0  0  0  0
 21 54  1  0  0  0  0
 22 43  1  0  0  0  0
 23 65  1  0  0  0  0
 24 30  1  0  0  0  0
 24 31  2  0  0  0  0
 24 64  1  0  0  0  0
 25 86  1  0  0  0  0
 26 87  1  0  0  0  0
 27 29  2  0  0  0  0
 27 86  1  0  0  0  0
 28 88  1  0  0  0  0
 29 89  1  0  0  0  0
 30 90  1  0  0  0  0
 31 91  1  0  0  0  0
 32 70  2  0  0  0  0
 33 71  1  0  0  0  0
 33 74  1  0  0  0  0
 34 35  2  0  0  0  0
 35 66  1  0  0  0  0
 36 75  1  0  0  0  0
 36 81  2  0  0  0  0
 37 55  1  0  0  0  0
 37 76  1  0  0  0  0
 37 82  2  0  0  0  0
 38 67  1  0  0  0  0
 38 72  1  0  0  0  0
 38 83  2  0  0  0  0
 39 68  1  0  0  0  0
 39 77  1  0  0  0  0
 39 84  2  0  0  0  0
 40 73  1  0  0  0  0
 40 78  1  0  0  0  0
 40 85  2  0  0  0  0
 41 44  1  0  0  0  0
 42 55  1  0  0  0  0
 43 72  1  0  0  0  0
 44 46  1  0  0  0  0
 45 47  1  0  0  0  0
 45 51  1  0  0  0  0
 46 54  1  0  0  0  0
 47 56  1  0  0  0  0
 48 49  1  0  0  0  0
 48 57  1  0  0  0  0
 49 58  1  0  0  0  0
 50 53  1  0  0  0  0
 50 57  1  0  0  0  0
 51 73  1  0  0  0  0
 52 56  1  0  0  0  0
 52 73  1  0  0  0  0
 53 79  1  0  0  0  0
 54 76  1  0  0  0  0
 55 72  1  0  0  0  0
 56 71  1  0  0  0  0
 57 87  1  0  0  0  0
 58 66  1  0  0  0  0
 58 79  1  0  0  0  0
 59 68  1  0  0  0  0
 60 69  1  0  0  0  0
 61 69  1  0  0  0  0
 62 69  1  0  0  0  0
 63 80  1  0  0  0  0
 64 78  1  0  0  0  0
 65 79  1  0  0  0  0
 67 69  1  0  0  0  0
 67 77  1  0  0  0  0
 68 80  1  0  0  0  0
 70 71  1  0  0  0  0
M  CHG  2  79   1  80   1
M  ISO  4  40 100  57 101  78 100  87 101
M  END
> <Batch ID>
0040

> <Smiles>
C=CCC1CC[101CH:1]([101O:1]c2ccc3c(c2)CN(C(=O)C(NC(=O)C(C)NC)C(C)(C)C)C(C(=O)NC2CCCc4ccccc42)C3)CCN1Cc1cc(Cl)c(C[100NH:0][100C:0](=O)N2CCCC(n3nc(-c4ccc(Oc5ccc(F)cc5F)cc4)c(C(N)=O)c3N)C2)c(Cl)c1

> <Shape>
0.332

> <Color>
0.178

> <Negative vol penalty>
0.000

$$$$

  -OEChem-04042322063D

 85 93  0     1  0  0  0  0  0999 V2000
  -21.1921  -23.8876   17.0943 C   0  0  0  0  0  0  0  0  0  0  0  0
  -21.9873  -22.7725   17.3387 C   0  0  0  0  0  0  0  0  0  0  0  0
  -29.0594  -14.4164   23.3273 C   0  0  0  0  0  0  0  0  0  0  0  0
  -26.2833  -27.7695   18.8765 C   0  0  0  0  0  0  0  0  0  0  0  0
  -26.4908  -27.5113   21.2697 C   0  0  0  0  0  0  0  0  0  0  0  0
  -21.2043  -24.9598   17.9855 C   0  0  0  0  0  0  0  0  0  0  0  0
  -22.7959  -22.7294   18.4739 C   0  0  0  0  0  0  0  0  0  0  0  0
  -22.5472  -18.2742   20.8685 C   0  0  0  0  0  0  0  0  0  0  0  0
  -29.6240  -15.6160   22.8943 C   0  0  0  0  0  0  0  0  0  0  0  0
  -25.3806  -28.8156   19.0676 C   0  0  0  0  0  0  0  0  0  0  0  0
  -25.5882  -28.5574   21.4608 C   0  0  0  0  0  0  0  0  0  0  0  0
  -23.2714  -17.2159   20.3213 C   0  0  0  0  0  0  0  0  0  0  0  0
  -25.6374  -31.9353   21.3711 C   0  0  0  0  0  0  0  0  0  0  0  0
  -25.9565  -32.8978   22.3288 C   0  0  0  0  0  0  0  0  0  0  0  0
  -28.5211  -13.5241   22.4000 C   0  0  0  0  0  0  0  0  0  0  0  0
  -25.0146  -17.5750   21.9496 C   0  0  0  0  0  0  0  0  0  0  0  0
  -23.9361  -32.3620   23.5405 C   0  0  0  0  0  0  0  0  0  0  0  0
  -26.8383  -27.1173   19.9775 C   0  0  0  0  0  0  0  0  0  0  0  0
  -29.1706  -26.1307   19.6697 C   0  0  0  0  0  0  0  0  0  0  0  0
  -22.0062  -24.9258   19.1372 C   0  0  0  0  0  0  0  0  0  0  0  0
  -23.0571  -18.9990   21.9552 C   0  0  0  0  0  0  0  0  0  0  0  0
  -22.8198  -23.8028   19.3806 C   0  0  0  0  0  0  0  0  0  0  0  0
  -24.2938  -18.6403   22.5103 C   0  0  0  0  0  0  0  0  0  0  0  0
  -29.6503  -15.9236   21.5340 C   0  0  0  0  0  0  0  0  0  0  0  0
  -29.1120  -15.0313   20.6067 C   0  0  0  0  0  0  0  0  0  0  0  0
  -25.0331  -29.2096   20.3597 C   0  0  0  0  0  0  0  0  0  0  0  0
  -24.5066  -16.8680   20.8600 C   0  0  0  0  0  0  0  0  0  0  0  0
  -24.4676  -31.1862   21.4979 C   0  0  0  0  0  0  0  0  0  0  0  0
  -25.1059  -33.1111   23.4136 C   0  0  0  0  0  0  0  0  0  0  0  0
  -23.6170  -31.3995   22.5826 C   0  0  0  0  0  0  0  0  0  0  0  0
  -28.5474  -13.8316   21.0397 C   0  0  0  0  0  0  0  0  0  0  0  0
  -27.7704  -26.0363   19.7807 C   0  0  0  0  0  0  0  0  0  0  0  0
  -29.5893  -24.8344   19.4944 C   0  0  0  0  0  0  0  0  0  0  0  0
  -30.0171  -27.2868   19.7206 C   0  0  0  0  0  0  0  0  0  0  0  0
  -23.8978  -22.0265   22.4360 C   0  0  0  0  0  0  0  0  0  0  0  0
  -24.2766  -21.0272   25.4988 C   0  0  0  0  0  0  0  0  0  0  0  0
  -24.8455  -18.4428   27.6537 C   0  0  0  0  0  0  0  0  0  0  0  0
  -29.4548  -19.5564   20.9338 C   0  0  0  0  0  0  0  0  0  0  0  0
  -22.0217  -26.1288   20.0467 C   0  0  0  0  0  0  0  0  0  0  0  0
  -22.2513  -20.1207   22.5509 C   0  0  0  0  0  0  0  0  0  0  0  0
  -24.8761  -19.3737   23.6900 C   0  0  0  0  0  0  0  0  0  0  0  0
  -22.6233  -25.8457   21.4208 C   0  0  0  0  0  0  0  0  0  0  0  0
  -26.9552  -20.6215   18.5432 C   0  0  0  0  0  0  0  0  0  0  0  0
  -23.9281  -25.0679   21.2824 C   0  0  0  0  0  0  0  0  0  0  0  0
  -27.0644  -22.1438   18.6468 C   0  0  0  0  0  0  0  0  0  0  0  0
  -27.1367  -19.9602   19.9062 C   0  0  0  0  0  0  0  0  0  0  0  0
  -28.5169  -21.8391   20.7053 C   0  0  0  0  0  0  0  0  0  0  0  0
  -23.6916  -23.7082   20.6139 C   0  0  1  0  0  0  0  0  0  0  0  0
  -23.1018  -21.1188   23.3306 C   0  0  1  0  0  0  0  0  0  0  0  0
  -28.3648  -22.5653   19.3564 C   0  0  2  0  0  0  0  0  0  0  0  0
  -29.1448  -15.3698   19.1497 C   0  0  0  0  0  0  0  0  0  0  0  0
  -25.1398  -17.9419   30.0950 C   0  0  0  0  0  0  0  0  0  0  0  0
  -27.1037  -22.1699   25.3899 C   0  0  0  0  0  0  0  0  0  0  0  0
  -27.6480  -20.8327   27.4354 C   0  0  0  0  0  0  0  0  0  0  0  0
  -25.8875  -22.5973   27.5330 C   0  0  0  0  0  0  0  0  0  0  0  0
  -22.4842  -16.6590   27.6913 C   0  0  0  0  0  0  0  0  0  0  0  0
  -30.2608  -17.2154   21.0981 C   0  0  0  0  0  0  0  0  0  0  0  0
  -25.2167  -13.4666   19.9170 C   0  0  0  0  0  0  0  0  0  0  0  0
  -24.4707  -14.7754   19.7305 C   0  0  0  0  0  0  0  0  0  1  0  0
  -25.4147  -20.4418   26.2993 C   0  0  1  0  0  0  0  0  0  0  0  0
  -24.1532  -18.0339   28.9414 C   0  0  2  0  0  0  0  0  0  0  0  0
  -26.5037  -21.4976   26.6409 C   0  0  0  0  0  0  0  0  0  0  0  0
  -27.3290  -24.7794   19.6839 N   0  0  0  0  0  0  0  0  0  0  0  0
  -28.4584  -24.0720   19.5101 N   0  0  0  0  0  0  0  0  0  0  0  0
  -24.0532  -20.4671   24.2330 N   0  0  0  0  0  0  0  0  0  0  0  0
  -28.4016  -20.3887   20.5196 N   0  0  0  0  0  0  0  0  0  0  0  0
  -30.8108  -24.2836   19.3298 N   0  0  0  0  0  0  0  0  0  0  0  0
  -29.4228  -28.5423   19.9068 N   0  0  0  0  0  0  0  0  0  0  0  0
  -23.1287  -22.7703   21.5615 N   0  0  0  0  0  0  0  0  0  0  0  0
  -24.8097  -19.8083   27.4660 N   0  0  0  0  0  0  0  0  0  0  0  0
  -29.2637  -18.1954   20.7290 N   0  0  0  0  0  0  0  0  0  0  0  0
  -26.5432  -13.5510   19.2640 N   0  0  0  0  0  0  0  0  0  0  0  0
  -23.4966  -16.7062   28.7774 N   0  3  0  0  0  0  0  0  0  0  0  0
  -31.2621  -27.2104   19.5879 O   0  0  0  0  0  0  0  0  0  0  0  0
  -25.1191  -22.0513   22.5331 O   0  0  0  0  0  0  0  0  0  0  0  0
  -23.6058  -21.9429   25.9818 O   0  0  0  0  0  0  0  0  0  0  0  0
  -25.3691  -17.6322   26.8926 O   0  0  0  0  0  0  0  0  0  0  0  0
  -30.4918  -19.9942   21.4437 O   0  0  0  0  0  0  0  0  0  0  0  0
  -28.8305  -12.4452   18.8471 O   0  0  0  0  0  0  0  0  0  0  0  0
  -27.3449  -11.5636   20.6746 O   0  0  0  0  0  0  0  0  0  0  0  0
  -24.1525  -30.2305   20.5466 O   0  0  0  0  0  0  0  0  0  0  0  0
  -25.2159  -15.8360   20.3274 O   0  0  0  0  0  0  0  0  0  1  0  0
  -25.4133  -34.0343   24.3341 F   0  0  0  0  0  0  0  0  0  0  0  0
  -22.4923  -30.6821   22.7105 F   0  0  0  0  0  0  0  0  0  0  0  0
  -27.8552  -12.6755   19.8956 S   0  0  0  0  0  0  0  0  0  0  0  0
  1  2  1  0  0  0  0
  1  6  2  0  0  0  0
  2  7  2  0  0  0  0
  3  9  1  0  0  0  0
  3 15  2  0  0  0  0
  4 10  2  0  0  0  0
  4 18  1  0  0  0  0
  5 11  1  0  0  0  0
  5 18  2  0  0  0  0
  6 20  1  0  0  0  0
  7 22  1  0  0  0  0
  8 12  2  0  0  0  0
  8 21  1  0  0  0  0
  9 24  2  0  0  0  0
 10 26  1  0  0  0  0
 11 26  2  0  0  0  0
 12 27  1  0  0  0  0
 13 14  2  0  0  0  0
 13 28  1  0  0  0  0
 14 29  1  0  0  0  0
 15 31  1  0  0  0  0
 16 23  1  0  0  0  0
 16 27  2  0  0  0  0
 17 29  2  0  0  0  0
 17 30  1  0  0  0  0
 18 32  1  0  0  0  0
 19 32  1  0  0  0  0
 19 33  2  0  0  0  0
 19 34  1  0  0  0  0
 20 22  2  0  0  0  0
 20 39  1  0  0  0  0
 21 23  2  0  0  0  0
 21 40  1  0  0  0  0
 22 48  1  0  0  0  0
 23 41  1  0  0  0  0
 24 25  1  0  0  0  0
 24 57  1  0  0  0  0
 25 31  2  0  0  0  0
 25 51  1  0  0  0  0
 26 81  1  0  0  0  0
 27 82  1  0  0  0  0
 28 30  2  0  0  0  0
 28 81  1  0  0  0  0
 29 83  1  0  0  0  0
 30 84  1  0  0  0  0
 31 85  1  0  0  0  0
 32 63  2  0  0  0  0
 33 64  1  0  0  0  0
 33 67  1  0  0  0  0
 34 68  1  0  0  0  0
 34 74  2  0  0  0  0
 35 49  1  0  0  0  0
 35 69  1  0  0  0  0
 35 75  2  0  0  0  0
 36 60  1  0  0  0  0
 36 65  1  0  0  0  0
 36 76  2  0  0  0  0
 37 61  1  0  0  0  0
 37 70  1  0  0  0  0
 37 77  2  0  0  0  0
 38 66  1  0  0  0  0
 38 71  1  0  0  0  0
 38 78  2  0  0  0  0
 39 42  1  0  0  0  0
 40 49  1  0  0  0  0
 41 65  1  0  0  0  0
 42 44  1  0  0  0  0
 43 45  1  0  0  0  0
 43 46  1  0  0  0  0
 44 48  1  0  0  0  0
 45 50  1  0  0  0  0
 46 66  1  0  0  0  0
 47 50  1  0  0  0  0
 47 66  1  0  0  0  0
 48 69  1  0  0  0  0
 49 65  1  0  0  0  0
 50 64  1  0  0  0  0
 52 61  1  0  0  0  0
 53 62  1  0  0  0  0
 54 62  1  0  0  0  0
 55 62  1  0  0  0  0
 56 73  1  0  0  0  0
 57 71  1  0  0  0  0
 58 59  1  0  0  0  0
 58 72  1  0  0  0  0
 59 82  1  0  0  0  0
 60 62  1  0  0  0  0
 60 70  1  0  0  0  0
 61 73  1  0  0  0  0
 63 64  1  0  0  0  0
 72 85  1  0  0  0  0
 79 85  2  0  0  0  0
 80 85  2  0  0  0  0
M  CHG  1  73   1
M  ISO  4  38 100  59 101  71 100  82 101
M  END
> <Batch ID>
0040

> <Smiles>
CNC(C)C(=O)NC(C(=O)N1Cc2cc([101O:1][101CH2:1]CNS(=O)(=O)c3cccc(C[100NH:0][100C:0](=O)N4CCCC(n5nc(-c6ccc(Oc7ccc(F)cc7F)cc6)c(C(N)=O)c5N)C4)c3C)ccc2CC1C(=O)NC1CCCc2ccccc21)C(C)(C)C

> <Shape>
0.221

> <Color>
0.039

> <Negative vol penalty>
0.000

$$$$

  -OEChem-04042322063D

 84 92  0     1  0  0  0  0  0999 V2000
  -33.1411  -27.7455   19.1225 C   0  0  0  0  0  0  0  0  0  0  0  0
  -31.9331  -27.3448   18.5606 C   0  0  0  0  0  0  0  0  0  0  0  0
  -29.0149  -21.0909   21.4508 C   0  0  0  0  0  0  0  0  0  0  0  0
  -27.1543  -19.9186   20.4505 C   0  0  0  0  0  0  0  0  0  0  0  0
  -33.1959  -28.1119   20.4666 C   0  0  0  0  0  0  0  0  0  0  0  0
  -30.7794  -27.3091   19.3430 C   0  0  0  0  0  0  0  0  0  0  0  0
  -23.6969  -28.2855   18.8935 C   0  0  0  0  0  0  0  0  0  0  0  0
  -18.2111  -22.7917   25.4092 C   0  0  0  0  0  0  0  0  0  0  0  0
  -17.3352  -23.7405   24.8820 C   0  0  0  0  0  0  0  0  0  0  0  0
  -29.8752  -20.0697   21.0476 C   0  0  0  0  0  0  0  0  0  0  0  0
  -28.0145  -18.8973   20.0472 C   0  0  0  0  0  0  0  0  0  0  0  0
  -22.4993  -27.6408   19.1994 C   0  0  0  0  0  0  0  0  0  0  0  0
  -29.5303  -16.2188   21.4467 C   0  0  0  0  0  0  0  0  0  0  0  0
  -29.1159  -14.9031   21.6532 C   0  0  0  0  0  0  0  0  0  0  0  0
  -18.8729  -22.1599   23.1732 C   0  0  0  0  0  0  0  0  0  0  0  0
  -22.6977  -28.3716   21.4897 C   0  0  0  0  0  0  0  0  0  0  0  0
  -29.2451  -14.4895   19.2763 C   0  0  0  0  0  0  0  0  0  0  0  0
  -27.6544  -21.0154   21.1523 C   0  0  0  0  0  0  0  0  0  0  0  0
  -17.9969  -23.1088   22.6459 C   0  0  0  0  0  0  0  0  0  0  0  0
  -26.4232  -23.2286   20.8467 C   0  0  0  0  0  0  0  0  0  0  0  0
  -32.0403  -28.0900   21.2633 C   0  0  0  0  0  0  0  0  0  0  0  0
  -24.4108  -28.9702   19.8876 C   0  0  0  0  0  0  0  0  0  0  0  0
  -30.8191  -27.6743   20.6994 C   0  0  0  0  0  0  0  0  0  0  0  0
  -23.9028  -29.0264   21.1933 C   0  0  0  0  0  0  0  0  0  0  0  0
  -18.9800  -22.0014   24.5548 C   0  0  0  0  0  0  0  0  0  0  0  0
  -17.2280  -23.8991   23.5003 C   0  0  0  0  0  0  0  0  0  0  0  0
  -29.3750  -18.9729   20.3457 C   0  0  0  0  0  0  0  0  0  0  0  0
  -22.0009  -27.6813   20.4983 C   0  0  0  0  0  0  0  0  0  0  0  0
  -29.8021  -16.6700   20.1551 C   0  0  0  0  0  0  0  0  0  0  0  0
  -28.9733  -14.0384   20.5680 C   0  0  0  0  0  0  0  0  0  0  0  0
  -29.6595  -15.8053   19.0699 C   0  0  0  0  0  0  0  0  0  0  0  0
  -26.7652  -22.0697   21.5691 C   0  0  0  0  0  0  0  0  0  0  0  0
  -25.5548  -23.9026   21.6700 C   0  0  0  0  0  0  0  0  0  0  0  0
  -16.9890  -22.4825   20.5650 C   0  0  0  0  0  0  0  0  0  0  0  0
  -18.7373  -24.1594   20.3950 C   0  0  0  0  0  0  0  0  0  0  0  0
  -19.6830  -24.9755   20.8877 C   0  0  0  0  0  0  0  0  0  0  0  0
  -17.9058  -23.2524   21.1784 C   0  0  0  0  0  0  0  0  0  0  0  0
  -26.8521  -23.6573   19.5475 C   0  0  0  0  0  0  0  0  0  0  0  0
  -27.2938  -28.6659   21.1912 C   0  0  0  0  0  0  0  0  0  0  0  0
  -26.4788  -31.4245   22.6906 C   0  0  0  0  0  0  0  0  0  0  0  0
  -24.0052  -33.4954   23.8040 C   0  0  0  0  0  0  0  0  0  0  0  0
  -21.9031  -22.1299   26.0716 C   0  0  0  0  0  0  0  0  0  0  0  0
  -32.1583  -28.4496   22.7233 C   0  0  0  0  0  0  0  0  0  0  0  0
  -25.6875  -29.6831   19.5355 C   0  0  0  0  0  0  0  0  0  0  0  0
  -24.6206  -29.7651   22.2923 C   0  0  0  0  0  0  0  0  0  0  0  0
  -30.8161  -28.7432   23.3887 C   0  0  0  0  0  0  0  0  0  0  0  0
  -24.5137  -24.5405   26.2961 C   0  0  0  0  0  0  0  0  0  0  0  0
  -29.7929  -27.6730   23.0216 C   0  0  0  0  0  0  0  0  0  0  0  0
  -25.3559  -24.2852   25.0449 C   0  0  0  0  0  0  0  0  0  0  0  0
  -23.9637  -23.2414   26.8809 C   0  0  0  0  0  0  0  0  0  0  0  0
  -24.0590  -22.1449   24.6758 C   0  0  0  0  0  0  0  0  0  0  0  0
  -29.5410  -27.6463   21.5092 C   0  0  1  0  0  0  0  0  0  0  0  0
  -26.5934  -29.9166   20.7407 C   0  0  1  0  0  0  0  0  0  0  0  0
  -24.5894  -23.4302   24.0178 C   0  0  2  0  0  0  0  0  0  0  0  0
  -16.2776  -24.9242   22.9704 C   0  0  0  0  0  0  0  0  0  0  0  0
  -23.6479  -35.6579   25.0260 C   0  0  0  0  0  0  0  0  0  0  0  0
  -27.1468  -30.0421   25.3274 C   0  0  0  0  0  0  0  0  0  0  0  0
  -25.8968  -31.8572   26.5154 C   0  0  0  0  0  0  0  0  0  0  0  0
  -27.9208  -32.4148   25.1682 C   0  0  0  0  0  0  0  0  0  0  0  0
  -22.6268  -34.7123   21.4849 C   0  0  0  0  0  0  0  0  0  0  0  0
  -19.9162  -20.9872   25.1199 C   0  0  0  0  0  0  0  0  0  0  0  0
  -20.5048  -25.8909   20.0379 C   0  0  0  0  0  0  0  0  0  1  0  0
  -25.7816  -31.7730   23.9835 C   0  0  1  0  0  0  0  0  0  0  0  0
  -23.8089  -34.9945   23.6671 C   0  0  2  0  0  0  0  0  0  0  0  0
  -26.6737  -31.5061   25.2286 C   0  0  0  0  0  0  0  0  0  0  0  0
  -26.1633  -22.0080   22.7599 N   0  0  0  0  0  0  0  0  0  0  0  0
  -25.4344  -23.1366   22.7920 N   0  0  0  0  0  0  0  0  0  0  0  0
  -25.8682  -30.4410   21.8997 N   0  0  0  0  0  0  0  0  0  0  0  0
  -23.2466  -22.4786   25.8563 N   0  0  0  0  0  0  0  0  0  0  0  0
  -24.8901  -25.0700   21.5366 N   0  0  0  0  0  0  0  0  0  0  0  0
  -27.7466  -22.8450   18.8374 N   0  0  0  0  0  0  0  0  0  0  0  0
  -28.6720  -28.7370   21.1223 N   0  0  0  0  0  0  0  0  0  0  0  0
  -25.3412  -33.1574   23.8495 N   0  0  0  0  0  0  0  0  0  0  0  0
  -21.2963  -21.4126   25.0478 N   0  0  0  0  0  0  0  0  0  0  0  0
  -22.5937  -35.2857   22.8550 N   0  3  0  0  0  0  0  0  0  0  0  0
  -26.4666  -24.7371   19.0385 O   0  0  0  0  0  0  0  0  0  0  0  0
  -26.6327  -27.7079   21.5746 O   0  0  0  0  0  0  0  0  0  0  0  0
  -27.5229  -32.0087   22.3901 O   0  0  0  0  0  0  0  0  0  0  0  0
  -23.0672  -32.7039   23.8682 O   0  0  0  0  0  0  0  0  0  0  0  0
  -21.2882  -22.4397   27.0977 O   0  0  0  0  0  0  0  0  0  0  0  0
  -30.2142  -17.9763   19.9519 O   0  0  0  0  0  0  0  0  0  0  0  0
  -20.8324  -27.0522   20.7996 O   0  0  0  0  0  0  0  0  0  1  0  0
  -28.5768  -12.7744   20.7665 F   0  0  0  0  0  0  0  0  0  0  0  0
  -29.9202  -16.2326   17.8268 F   0  0  0  0  0  0  0  0  0  0  0  0
  1  2  1  0  0  0  0
  1  5  2  0  0  0  0
  2  6  2  0  0  0  0
  3 10  2  0  0  0  0
  3 18  1  0  0  0  0
  4 11  1  0  0  0  0
  4 18  2  0  0  0  0
  5 21  1  0  0  0  0
  6 23  1  0  0  0  0
  7 12  2  0  0  0  0
  7 22  1  0  0  0  0
  8  9  2  0  0  0  0
  8 25  1  0  0  0  0
  9 26  1  0  0  0  0
 10 27  1  0  0  0  0
 11 27  2  0  0  0  0
 12 28  1  0  0  0  0
 13 14  2  0  0  0  0
 13 29  1  0  0  0  0
 14 30  1  0  0  0  0
 15 19  1  0  0  0  0
 15 25  2  0  0  0  0
 16 24  1  0  0  0  0
 16 28  2  0  0  0  0
 17 30  2  0  0  0  0
 17 31  1  0  0  0  0
 18 32  1  0  0  0  0
 19 26  2  0  0  0  0
 19 37  1  0  0  0  0
 20 32  1  0  0  0  0
 20 33  2  0  0  0  0
 20 38  1  0  0  0  0
 21 23  2  0  0  0  0
 21 43  1  0  0  0  0
 22 24  2  0  0  0  0
 22 44  1  0  0  0  0
 23 52  1  0  0  0  0
 24 45  1  0  0  0  0
 25 61  1  0  0  0  0
 26 55  1  0  0  0  0
 27 81  1  0  0  0  0
 28 82  1  0  0  0  0
 29 31  2  0  0  0  0
 29 81  1  0  0  0  0
 30 83  1  0  0  0  0
 31 84  1  0  0  0  0
 32 66  2  0  0  0  0
 33 67  1  0  0  0  0
 33 70  1  0  0  0  0
 34 37  2  0  0  0  0
 35 36  2  0  0  0  0
 35 37  1  0  0  0  0
 36 62  1  0  0  0  0
 38 71  1  0  0  0  0
 38 76  2  0  0  0  0
 39 53  1  0  0  0  0
 39 72  1  0  0  0  0
 39 77  2  0  0  0  0
 40 63  1  0  0  0  0
 40 68  1  0  0  0  0
 40 78  2  0  0  0  0
 41 64  1  0  0  0  0
 41 73  1  0  0  0  0
 41 79  2  0  0  0  0
 42 69  1  0  0  0  0
 42 74  1  0  0  0  0
 42 80  2  0  0  0  0
 43 46  1  0  0  0  0
 44 53  1  0  0  0  0
 45 68  1  0  0  0  0
 46 48  1  0  0  0  0
 47 49  1  0  0  0  0
 47 50  1  0  0  0  0
 48 52  1  0  0  0  0
 49 54  1  0  0  0  0
 50 69  1  0  0  0  0
 51 54  1  0  0  0  0
 51 69  1  0  0  0  0
 52 72  1  0  0  0  0
 53 68  1  0  0  0  0
 54 67  1  0  0  0  0
 56 64  1  0  0  0  0
 57 65  1  0  0  0  0
 58 65  1  0  0  0  0
 59 65  1  0  0  0  0
 60 75  1  0  0  0  0
 61 74  1  0  0  0  0
 62 82  1  0  0  0  0
 63 65  1  0  0  0  0
 63 73  1  0  0  0  0
 64 75  1  0  0  0  0
 66 67  1  0  0  0  0
M  CHG  1  75   1
M  ISO  4  42 100  62 101  74 100  82 101
M  END
> <Batch ID>
0040

> <Smiles>
C=C(C=C[101CH2:1][101O:1]c1ccc2c(c1)CN(C(=O)C(NC(=O)C(C)NC)C(C)(C)C)C(C(=O)NC1CCCc3ccccc31)C2)c1cc(C[100NH:0][100C:0](=O)N2CCCC(n3nc(-c4ccc(Oc5ccc(F)cc5F)cc4)c(C(N)=O)c3N)C2)ccc1C

> <Shape>
0.222

> <Color>
0.069

> <Negative vol penalty>
0.000

$$$$

  -OEChem-04042322063D

 88 96  0     1  0  0  0  0  0999 V2000
  -19.7149  -33.9200   21.2591 C   0  0  0  0  0  0  0  0  0  0  0  0
  -20.9700  -33.4552   20.8793 C   0  0  0  0  0  0  0  0  0  0  0  0
  -22.2589   -9.8614   20.8592 C   0  0  0  0  0  0  0  0  0  0  0  0
  -24.0537  -10.6781   22.2553 C   0  0  0  0  0  0  0  0  0  0  0  0
  -19.0293  -33.2991   22.3023 C   0  0  0  0  0  0  0  0  0  0  0  0
  -21.5405  -32.3698   21.5433 C   0  0  0  0  0  0  0  0  0  0  0  0
  -25.1063  -28.0259   19.1099 C   0  0  0  0  0  0  0  0  0  0  0  0
  -22.5397   -8.5558   21.2619 C   0  0  0  0  0  0  0  0  0  0  0  0
  -24.3345   -9.3724   22.6581 C   0  0  0  0  0  0  0  0  0  0  0  0
  -26.4896  -27.8540   19.0830 C   0  0  0  0  0  0  0  0  0  0  0  0
  -21.9425   -6.5958   23.9516 C   0  0  0  0  0  0  0  0  0  0  0  0
  -20.8668   -5.7802   24.3028 C   0  0  0  0  0  0  0  0  0  0  0  0
  -26.3403  -26.4007   21.0026 C   0  0  0  0  0  0  0  0  0  0  0  0
  -30.7552  -21.3934   18.3775 C   0  0  0  0  0  0  0  0  0  0  0  0
  -30.4904  -22.0200   20.6957 C   0  0  0  0  0  0  0  0  0  0  0  0
  -21.4734   -4.2272   22.5543 C   0  0  0  0  0  0  0  0  0  0  0  0
  -23.0160  -10.9225   21.3559 C   0  0  0  0  0  0  0  0  0  0  0  0
  -21.8395  -13.1777   21.5507 C   0  0  0  0  0  0  0  0  0  0  0  0
  -19.5875  -32.1995   22.9731 C   0  0  0  0  0  0  0  0  0  0  0  0
  -24.3295  -27.3941   20.0916 C   0  0  0  0  0  0  0  0  0  0  0  0
  -20.8623  -31.7345   22.5973 C   0  0  0  0  0  0  0  0  0  0  0  0
  -24.9471  -26.5642   21.0382 C   0  0  0  0  0  0  0  0  0  0  0  0
  -30.7990  -22.3629   19.3794 C   0  0  0  0  0  0  0  0  0  0  0  0
  -30.4028  -20.0809   18.6920 C   0  0  0  0  0  0  0  0  0  0  0  0
  -30.1379  -20.7075   21.0102 C   0  0  0  0  0  0  0  0  0  0  0  0
  -30.0941  -19.7380   20.0084 C   0  0  0  0  0  0  0  0  0  0  0  0
  -23.5775   -8.3113   22.1614 C   0  0  0  0  0  0  0  0  0  0  0  0
  -27.1072  -27.0437   20.0312 C   0  0  0  0  0  0  0  0  0  0  0  0
  -22.7836   -6.2271   22.9017 C   0  0  0  0  0  0  0  0  0  0  0  0
  -20.6323   -4.5959   23.6042 C   0  0  0  0  0  0  0  0  0  0  0  0
  -22.5491   -5.0428   22.2030 C   0  0  0  0  0  0  0  0  0  0  0  0
  -22.7268  -12.2714   20.9398 C   0  0  0  0  0  0  0  0  0  0  0  0
  -21.9233  -14.3120   20.7808 C   0  0  0  0  0  0  0  0  0  0  0  0
  -21.0134  -13.0092   22.7104 C   0  0  0  0  0  0  0  0  0  0  0  0
  -22.4332  -28.3938   22.4386 C   0  0  0  0  0  0  0  0  0  0  0  0
  -21.7971  -25.2280   22.7474 C   0  0  0  0  0  0  0  0  0  0  0  0
  -22.8099  -22.0073   22.2490 C   0  0  0  0  0  0  0  0  0  0  0  0
  -26.1958  -16.5071   17.2061 C   0  0  0  0  0  0  0  0  0  0  0  0
  -18.8290  -31.5908   24.1258 C   0  0  0  0  0  0  0  0  0  0  0  0
  -22.8355  -27.5683   20.0907 C   0  0  0  0  0  0  0  0  0  0  0  0
  -24.1559  -25.8474   22.1006 C   0  0  0  0  0  0  0  0  0  0  0  0
  -19.3406  -30.2107   24.5306 C   0  0  0  0  0  0  0  0  0  0  0  0
  -22.8366  -15.7423   16.3075 C   0  0  0  0  0  0  0  0  0  0  0  0
  -20.8627  -30.2137   24.6303 C   0  0  0  0  0  0  0  0  0  0  0  0
  -22.3475  -14.8478   17.4479 C   0  0  0  0  0  0  0  0  0  0  0  0
  -24.3047  -15.4830   15.9767 C   0  0  0  0  0  0  0  0  0  0  0  0
  -24.7350  -14.6802   18.2667 C   0  0  0  0  0  0  0  0  0  0  0  0
  -21.5036  -30.5441   23.2770 C   0  0  1  0  0  0  0  0  0  0  0  0
  -22.2003  -27.2874   21.4490 C   0  0  1  0  0  0  0  0  0  0  0  0
  -23.2753  -14.9446   18.6739 C   0  0  2  0  0  0  0  0  0  0  0  0
  -30.3645  -19.0613   17.6008 C   0  0  0  0  0  0  0  0  0  0  0  0
  -29.8120  -20.3659   22.4276 C   0  0  0  0  0  0  0  0  0  0  0  0
  -22.0943  -19.6343   22.6411 C   0  0  0  0  0  0  0  0  0  0  0  0
  -22.5366  -25.4948   25.6956 C   0  0  0  0  0  0  0  0  0  0  0  0
  -22.7277  -23.0007   25.8015 C   0  0  0  0  0  0  0  0  0  0  0  0
  -20.5382  -24.0596   25.2470 C   0  0  0  0  0  0  0  0  0  0  0  0
  -27.2492  -19.0107   20.3594 C   0  0  0  0  0  0  0  0  0  0  0  0
  -22.7931  -21.4112   19.3502 C   0  0  0  0  0  0  0  0  0  0  0  0
  -29.7167  -18.3306   20.3453 C   0  0  0  0  0  0  0  0  0  0  0  0
  -31.1774  -23.7747   19.0410 C   0  0  0  0  0  0  0  0  0  0  0  0
  -28.0451  -17.4465   18.5688 C   0  0  0  0  0  0  0  0  0  0  0  0
  -30.3652  -26.1193   18.7541 C   0  0  0  0  0  0  0  0  0  0  0  0
  -29.0996  -26.9536   18.7359 C   0  0  0  0  0  0  0  0  0  1  0  0
  -22.3980  -24.0887   23.5346 C   0  0  1  0  0  0  0  0  0  0  0  0
  -22.0901  -20.8034   21.6686 C   0  0  2  0  0  0  0  0  0  0  0  0
  -22.0655  -24.1758   25.0510 C   0  0  0  0  0  0  0  0  0  0  0  0
  -28.2538  -17.8978   20.0275 C   0  0  2  0  0  0  0  0  0  0  0  0
  -23.3298  -12.7856   19.8647 N   0  0  0  0  0  0  0  0  0  0  0  0
  -22.8205  -14.0272   19.7939 N   0  0  0  0  0  0  0  0  0  0  0  0
  -22.6988  -26.0545   22.0619 N   0  0  0  0  0  0  0  0  0  0  0  0
  -25.1308  -15.5916   17.1816 N   0  0  0  0  0  0  0  0  0  0  0  0
  -21.3163  -15.5153   20.8585 N   0  0  0  0  0  0  0  0  0  0  0  0
  -21.0485  -11.7801   23.3829 N   0  0  0  0  0  0  0  0  0  0  0  0
  -21.4734  -29.3875   22.4076 N   0  0  0  0  0  0  0  0  0  0  0  0
  -21.9395  -22.8619   22.8919 N   0  0  0  0  0  0  0  0  0  0  0  0
  -26.9241  -16.5511   18.3886 N   0  0  0  0  0  0  0  0  0  0  0  0
  -22.7481  -20.3661   20.4050 N   0  3  0  0  0  0  0  0  0  0  0  0
  -30.0144  -24.7027   19.0271 N   0  3  0  0  0  0  0  0  0  0  0  0
  -20.2539  -13.9160   23.1280 O   0  0  0  0  0  0  0  0  0  0  0  0
  -23.4104  -28.3486   23.1766 O   0  0  0  0  0  0  0  0  0  0  0  0
  -20.5724  -25.3749   22.7351 O   0  0  0  0  0  0  0  0  0  0  0  0
  -24.0236  -22.1713   22.1458 O   0  0  0  0  0  0  0  0  0  0  0  0
  -26.4734  -17.2355   16.2473 O   0  0  0  0  0  0  0  0  0  0  0  0
  -23.8516   -7.0375   22.5547 O   0  0  0  0  0  0  0  0  0  0  0  0
  -28.4573  -26.8748   20.0077 O   0  0  0  0  0  0  0  0  0  1  0  0
  -19.6002   -3.8120   23.9425 F   0  0  0  0  0  0  0  0  0  0  0  0
  -23.3544   -4.6828   21.1943 F   0  0  0  0  0  0  0  0  0  0  0  0
  -27.8532  -16.4988   21.1150 Cl  0  0  0  0  0  0  0  0  0  0  0  0
  1  2  1  0  0  0  0
  1  5  2  0  0  0  0
  2  6  2  0  0  0  0
  3  8  2  0  0  0  0
  3 17  1  0  0  0  0
  4  9  1  0  0  0  0
  4 17  2  0  0  0  0
  5 19  1  0  0  0  0
  6 21  1  0  0  0  0
  7 10  2  0  0  0  0
  7 20  1  0  0  0  0
  8 27  1  0  0  0  0
  9 27  2  0  0  0  0
 10 28  1  0  0  0  0
 11 12  2  0  0  0  0
 11 29  1  0  0  0  0
 12 30  1  0  0  0  0
 13 22  1  0  0  0  0
 13 28  2  0  0  0  0
 14 23  1  0  0  0  0
 14 24  2  0  0  0  0
 15 23  2  0  0  0  0
 15 25  1  0  0  0  0
 16 30  2  0  0  0  0
 16 31  1  0  0  0  0
 17 32  1  0  0  0  0
 18 32  1  0  0  0  0
 18 33  2  0  0  0  0
 18 34  1  0  0  0  0
 19 21  2  0  0  0  0
 19 39  1  0  0  0  0
 20 22  2  0  0  0  0
 20 40  1  0  0  0  0
 21 48  1  0  0  0  0
 22 41  1  0  0  0  0
 23 60  1  0  0  0  0
 24 26  1  0  0  0  0
 24 51  1  0  0  0  0
 25 26  2  0  0  0  0
 25 52  1  0  0  0  0
 26 59  1  0  0  0  0
 27 84  1  0  0  0  0
 28 85  1  0  0  0  0
 29 31  2  0  0  0  0
 29 84  1  0  0  0  0
 30 86  1  0  0  0  0
 31 87  1  0  0  0  0
 32 68  2  0  0  0  0
 33 69  1  0  0  0  0
 33 72  1  0  0  0  0
 34 73  1  0  0  0  0
 34 79  2  0  0  0  0
 35 49  1  0  0  0  0
 35 74  1  0  0  0  0
 35 80  2  0  0  0  0
 36 64  1  0  0  0  0
 36 70  1  0  0  0  0
 36 81  2  0  0  0  0
 37 65  1  0  0  0  0
 37 75  1  0  0  0  0
 37 82  2  0  0  0  0
 38 71  1  0  0  0  0
 38 76  1  0  0  0  0
 38 83  2  0  0  0  0
 39 42  1  0  0  0  0
 40 49  1  0  0  0  0
 41 70  1  0  0  0  0
 42 44  1  0  0  0  0
 43 45  1  0  0  0  0
 43 46  1  0  0  0  0
 44 48  1  0  0  0  0
 45 50  1  0  0  0  0
 46 71  1  0  0  0  0
 47 50  1  0  0  0  0
 47 71  1  0  0  0  0
 48 74  1  0  0  0  0
 49 70  1  0  0  0  0
 50 69  1  0  0  0  0
 53 65  1  0  0  0  0
 54 66  1  0  0  0  0
 55 66  1  0  0  0  0
 56 66  1  0  0  0  0
 57 67  1  0  0  0  0
 58 77  1  0  0  0  0
 59 67  1  0  0  0  0
 60 78  1  0  0  0  0
 61 67  1  0  0  0  0
 61 76  1  0  0  0  0
 62 63  1  0  0  0  0
 62 78  1  0  0  0  0
 63 85  1  0  0  0  0
 64 66  1  0  0  0  0
 64 75  1  0  0  0  0
 65 77  1  0  0  0  0
 67 88  1  0  0  0  0
 68 69  1  0  0  0  0
M  CHG  2  77   1  78   1
M  ISO  4  38 100  63 101  76 100  85 101
M  END
> <Batch ID>
0040

> <Smiles>
CNC(C)C(=O)NC(C(=O)N1Cc2cc([101O:1][101CH2:1]CNCc3cc(C)c(CC(C)(Cl)C[100NH:0][100C:0](=O)N4CCCC(n5nc(-c6ccc(Oc7ccc(F)cc7F)cc6)c(C(N)=O)c5N)C4)c(C)c3)ccc2CC1C(=O)NC1CCCc2ccccc21)C(C)(C)C

> <Shape>
0.225

> <Color>
0.091

> <Negative vol penalty>
0.000

$$$$

  -OEChem-04042322063D

 92101  0     1  0  0  0  0  0999 V2000
  -25.4720  -35.7797   22.0515 C   0  0  0  0  0  0  0  0  0  0  0  0
  -26.1193  -34.5498   21.9909 C   0  0  0  0  0  0  0  0  0  0  0  0
  -25.2264  -12.7512   21.8465 C   0  0  0  0  0  0  0  0  0  0  0  0
  -25.8326  -12.9915   19.5202 C   0  0  0  0  0  0  0  0  0  0  0  0
  -24.1899  -35.8656   22.5926 C   0  0  0  0  0  0  0  0  0  0  0  0
  -25.4852  -33.4050   22.4725 C   0  0  0  0  0  0  0  0  0  0  0  0
  -25.9620  -29.4560   19.3384 C   0  0  0  0  0  0  0  0  0  0  0  0
  -24.3034  -11.7632   21.5040 C   0  0  0  0  0  0  0  0  0  0  0  0
  -24.9096  -12.0034   19.1776 C   0  0  0  0  0  0  0  0  0  0  0  0
  -27.1798  -28.7774   19.3498 C   0  0  0  0  0  0  0  0  0  0  0  0
  -24.3516   -8.4764   20.7118 C   0  0  0  0  0  0  0  0  0  0  0  0
  -24.3220   -7.3192   21.4900 C   0  0  0  0  0  0  0  0  0  0  0  0
  -26.2100  -27.0730   20.7546 C   0  0  0  0  0  0  0  0  0  0  0  0
  -31.9847  -18.5828   14.8710 C   0  0  0  0  0  0  0  0  0  0  0  0
  -32.7429  -20.1278   16.5665 C   0  0  0  0  0  0  0  0  0  0  0  0
  -22.0168   -7.7625   22.0615 C   0  0  0  0  0  0  0  0  0  0  0  0
  -25.9910  -13.3655   20.8546 C   0  0  0  0  0  0  0  0  0  0  0  0
  -28.0527  -14.2547   22.0655 C   0  0  0  0  0  0  0  0  0  0  0  0
  -23.5360  -34.7197   23.0722 C   0  0  0  0  0  0  0  0  0  0  0  0
  -24.8602  -28.9529   20.0451 C   0  0  0  0  0  0  0  0  0  0  0  0
  -24.1937  -33.4759   23.0217 C   0  0  0  0  0  0  0  0  0  0  0  0
  -24.9786  -27.7457   20.7484 C   0  0  0  0  0  0  0  0  0  0  0  0
  -32.9755  -19.4164   15.3895 C   0  0  0  0  0  0  0  0  0  0  0  0
  -30.7611  -18.4606   15.5296 C   0  0  0  0  0  0  0  0  0  0  0  0
  -31.5194  -20.0056   17.2251 C   0  0  0  0  0  0  0  0  0  0  0  0
  -30.5285  -19.1720   16.7066 C   0  0  0  0  0  0  0  0  0  0  0  0
  -24.1450  -11.3892   20.1695 C   0  0  0  0  0  0  0  0  0  0  0  0
  -27.3048  -27.5872   20.0604 C   0  0  0  0  0  0  0  0  0  0  0  0
  -23.2139   -9.2767   20.6085 C   0  0  0  0  0  0  0  0  0  0  0  0
  -23.1546   -6.9622   22.1648 C   0  0  0  0  0  0  0  0  0  0  0  0
  -22.0465   -8.9198   21.2834 C   0  0  0  0  0  0  0  0  0  0  0  0
  -26.9442  -14.3866   21.2078 C   0  0  0  0  0  0  0  0  0  0  0  0
  -28.6336  -15.4994   22.0697 C   0  0  0  0  0  0  0  0  0  0  0  0
  -31.2438  -22.9498   19.5572 C   0  0  0  0  0  0  0  0  0  0  0  0
  -32.3414  -23.0932   20.3205 C   0  0  0  0  0  0  0  0  0  0  0  0
  -33.6407  -22.6093   19.9297 C   0  0  0  0  0  0  0  0  0  0  0  0
  -34.7328  -22.7546   20.6945 C   0  0  0  0  0  0  0  0  0  0  0  0
  -28.5159  -13.1096   22.7933 C   0  0  0  0  0  0  0  0  0  0  0  0
  -23.0742  -30.0001   22.4570 C   0  0  0  0  0  0  0  0  0  0  0  0
  -21.3219  -27.3511   21.7979 C   0  0  0  0  0  0  0  0  0  0  0  0
  -21.9750  -23.9069   20.9443 C   0  0  0  0  0  0  0  0  0  0  0  0
  -28.6449  -20.0121   18.1531 C   0  0  0  0  0  0  0  0  0  0  0  0
  -22.1690  -34.8698   23.6916 C   0  0  0  0  0  0  0  0  0  0  0  0
  -23.5459  -29.6830   20.0008 C   0  0  0  0  0  0  0  0  0  0  0  0
  -23.8202  -27.1528   21.5068 C   0  0  0  0  0  0  0  0  0  0  0  0
  -29.9046  -23.4714   20.0051 C   0  0  0  0  0  0  0  0  0  0  0  0
  -21.4180  -33.5488   23.8373 C   0  0  0  0  0  0  0  0  0  0  0  0
  -27.5575  -20.1359   21.5413 C   0  0  0  0  0  0  0  0  0  0  0  0
  -30.4626  -24.2843   17.0893 C   0  0  0  0  0  0  0  0  0  0  0  0
  -22.3301  -32.4785   24.4283 C   0  0  0  0  0  0  0  0  0  0  0  0
  -29.3859  -24.9378   17.9581 C   0  0  0  0  0  0  0  0  0  0  0  0
  -27.3836  -18.6634   21.9202 C   0  0  0  0  0  0  0  0  0  0  0  0
  -27.1440  -20.4020   20.0949 C   0  0  0  0  0  0  0  0  0  0  0  0
  -27.6107  -18.0636   19.4757 C   0  0  0  0  0  0  0  0  0  0  0  0
  -30.4838  -22.7631   17.2095 C   0  0  0  0  0  0  0  0  0  0  0  0
  -23.5289  -32.2075   23.5112 C   0  0  1  0  0  0  0  0  0  0  0  0
  -22.6352  -29.3460   21.1775 C   0  0  1  0  0  0  0  0  0  0  0  0
  -29.6390  -24.8897   19.4737 C   0  0  1  0  0  0  0  0  0  0  0  0
  -28.0757  -17.7343   20.9036 C   0  0  2  0  0  0  0  0  0  0  0  0
  -34.2835  -19.5473   14.6853 C   0  0  0  0  0  0  0  0  0  0  0  0
  -29.7189  -17.5601   14.9492 C   0  0  0  0  0  0  0  0  0  0  0  0
  -36.0876  -22.2597   20.3069 C   0  0  0  0  0  0  0  0  0  0  0  0
  -20.5966  -22.2573   19.6497 C   0  0  0  0  0  0  0  0  0  0  0  0
  -20.2870  -26.5028   24.5401 C   0  0  0  0  0  0  0  0  0  0  0  0
  -20.3101  -24.1313   23.7379 C   0  0  0  0  0  0  0  0  0  0  0  0
  -18.8424  -25.8100   22.6198 C   0  0  0  0  0  0  0  0  0  0  0  0
  -24.1843  -23.3725   19.0489 C   0  0  0  0  0  0  0  0  0  0  0  0
  -31.2991  -20.7830   18.4892 C   0  0  0  0  0  0  0  0  0  0  0  0
  -28.4415  -25.5034   20.2073 C   0  0  0  0  0  0  0  0  0  1  0  0
  -21.3426  -25.9136   22.2587 C   0  0  1  0  0  0  0  0  0  0  0  0
  -21.7504  -23.2465   19.5960 C   0  0  2  0  0  0  0  0  0  0  0  0
  -20.2192  -25.6052   23.2884 C   0  0  0  0  0  0  0  0  0  0  0  0
  -26.8258  -15.6179   20.7039 N   0  0  0  0  0  0  0  0  0  0  0  0
  -27.8673  -16.2711   21.2466 N   0  0  0  0  0  0  0  0  0  0  0  0
  -22.5577  -27.9072   21.4382 N   0  0  0  0  0  0  0  0  0  0  0  0
  -27.8426  -19.4879   19.1887 N   0  0  0  0  0  0  0  0  0  0  0  0
  -29.7198  -15.9980   22.6972 N   0  0  0  0  0  0  0  0  0  0  0  0
  -29.4347  -12.2512   22.1742 N   0  0  0  0  0  0  0  0  0  0  0  0
  -29.2857  -19.0479   17.3758 N   0  0  0  0  0  0  0  0  0  0  0  0
  -23.1325  -31.3792   22.3926 N   0  0  0  0  0  0  0  0  0  0  0  0
  -21.2869  -25.0970   21.0510 N   0  0  0  0  0  0  0  0  0  0  0  0
  -31.4138  -22.2747   18.2935 N   0  3  2  0  0  0  0  0  0  0  0  0
  -22.9762  -22.5159   19.1665 N   0  3  0  0  0  0  0  0  0  0  0  0
  -28.1141  -12.8461   23.9521 O   0  0  0  0  0  0  0  0  0  0  0  0
  -23.3389  -29.3052   23.4310 O   0  0  0  0  0  0  0  0  0  0  0  0
  -20.2478  -27.9559   21.7518 O   0  0  0  0  0  0  0  0  0  0  0  0
  -22.6865  -23.4143   21.8171 O   0  0  0  0  0  0  0  0  0  0  0  0
  -28.7768  -21.2274   17.9864 O   0  0  0  0  0  0  0  0  0  0  0  0
  -23.2446  -10.4249   19.8349 O   0  0  0  0  0  0  0  0  0  0  0  0
  -28.4926  -26.9233   20.0738 O   0  0  0  0  0  0  0  0  0  1  0  0
  -23.1259   -5.8501   22.9108 F   0  0  0  0  0  0  0  0  0  0  0  0
  -20.9499   -9.6841   21.1870 F   0  0  0  0  0  0  0  0  0  0  0  0
  1  2  1  0  0  0  0
  1  5  2  0  0  0  0
  2  6  2  0  0  0  0
  3  8  2  0  0  0  0
  3 17  1  0  0  0  0
  4  9  1  0  0  0  0
  4 17  2  0  0  0  0
  5 19  1  0  0  0  0
  6 21  1  0  0  0  0
  7 10  2  0  0  0  0
  7 20  1  0  0  0  0
  8 27  1  0  0  0  0
  9 27  2  0  0  0  0
 10 28  1  0  0  0  0
 11 12  2  0  0  0  0
 11 29  1  0  0  0  0
 12 30  1  0  0  0  0
 13 22  1  0  0  0  0
 13 28  2  0  0  0  0
 14 23  1  0  0  0  0
 14 24  2  0  0  0  0
 15 23  2  0  0  0  0
 15 25  1  0  0  0  0
 16 30  2  0  0  0  0
 16 31  1  0  0  0  0
 17 32  1  0  0  0  0
 18 32  1  0  0  0  0
 18 33  2  0  0  0  0
 18 38  1  0  0  0  0
 19 21  2  0  0  0  0
 19 43  1  0  0  0  0
 20 22  2  0  0  0  0
 20 44  1  0  0  0  0
 21 56  1  0  0  0  0
 22 45  1  0  0  0  0
 23 60  1  0  0  0  0
 24 26  1  0  0  0  0
 24 61  1  0  0  0  0
 25 26  2  0  0  0  0
 25 68  1  0  0  0  0
 26 79  1  0  0  0  0
 27 89  1  0  0  0  0
 28 90  1  0  0  0  0
 29 31  2  0  0  0  0
 29 89  1  0  0  0  0
 30 91  1  0  0  0  0
 31 92  1  0  0  0  0
 32 73  2  0  0  0  0
 33 74  1  0  0  0  0
 33 77  1  0  0  0  0
 34 35  2  0  0  0  0
 34 46  1  0  0  0  0
 34 82  1  0  0  0  0
 35 36  1  0  0  0  0
 36 37  2  0  0  0  0
 37 62  1  0  0  0  0
 38 78  1  0  0  0  0
 38 84  2  0  0  0  0
 39 57  1  0  0  0  0
 39 80  1  0  0  0  0
 39 85  2  0  0  0  0
 40 70  1  0  0  0  0
 40 75  1  0  0  0  0
 40 86  2  0  0  0  0
 41 71  1  0  0  0  0
 41 81  1  0  0  0  0
 41 87  2  0  0  0  0
 42 76  1  0  0  0  0
 42 79  1  0  0  0  0
 42 88  2  0  0  0  0
 43 47  1  0  0  0  0
 44 57  1  0  0  0  0
 45 75  1  0  0  0  0
 46 58  1  0  0  0  0
 47 50  1  0  0  0  0
 48 52  1  0  0  0  0
 48 53  1  0  0  0  0
 49 51  1  0  0  0  0
 49 55  1  0  0  0  0
 50 56  1  0  0  0  0
 51 58  1  0  0  0  0
 52 59  1  0  0  0  0
 53 76  1  0  0  0  0
 54 59  1  0  0  0  0
 54 76  1  0  0  0  0
 55 82  1  0  0  0  0
 56 80  1  0  0  0  0
 57 75  1  0  0  0  0
 58 69  1  0  0  0  0
 59 74  1  0  0  0  0
 63 71  1  0  0  0  0
 64 72  1  0  0  0  0
 65 72  1  0  0  0  0
 66 72  1  0  0  0  0
 67 83  1  0  0  0  0
 68 82  1  0  0  0  0
 69 90  1  0  0  0  0
 70 72  1  0  0  0  0
 70 81  1  0  0  0  0
 71 83  1  0  0  0  0
 73 74  1  0  0  0  0
M  CHG  2  82   1  83   1
M  ISO  4  42 100  69 101  79 100  90 101
M  END
> <Batch ID>
0040

> <Smiles>
CC=CC=C1CC([101CH2:1][101O:1]c2ccc3c(c2)CN(C(=O)C(NC(=O)C(C)NC)C(C)(C)C)C(C(=O)NC2CCCc4ccccc42)C3)CCCN1Cc1cc(C)cc(C)c1[100NH:0][100C:0](=O)N1CCCC(n2nc(-c3ccc(Oc4ccc(F)cc4F)cc3)c(C(N)=O)c2N)C1

> <Shape>
0.270

> <Color>
0.075

> <Negative vol penalty>
0.000

$$$$

  -OEChem-04042322063D

 85 93  0     1  0  0  0  0  0999 V2000
  -28.0120  -19.9681   15.6113 C   0  0  0  0  0  0  0  0  0  0  0  0
  -28.6025  -19.0113   16.4291 C   0  0  0  0  0  0  0  0  0  0  0  0
  -22.8448  -29.3373   21.1581 C   0  0  0  0  0  0  0  0  0  0  0  0
  -24.0732  -28.6056   23.1056 C   0  0  0  0  0  0  0  0  0  0  0  0
  -26.6321  -20.1567   15.6499 C   0  0  0  0  0  0  0  0  0  0  0  0
  -27.8120  -18.2346   17.2769 C   0  0  0  0  0  0  0  0  0  0  0  0
  -30.0465  -14.5693   19.6804 C   0  0  0  0  0  0  0  0  0  0  0  0
  -21.7392  -29.6179   21.9608 C   0  0  0  0  0  0  0  0  0  0  0  0
  -22.9676  -28.8863   23.9084 C   0  0  0  0  0  0  0  0  0  0  0  0
  -30.9288  -14.7886   20.7373 C   0  0  0  0  0  0  0  0  0  0  0  0
  -19.2382  -27.8958   23.4453 C   0  0  0  0  0  0  0  0  0  0  0  0
  -17.9871  -27.4759   22.9938 C   0  0  0  0  0  0  0  0  0  0  0  0
  -29.2092  -14.1395   22.2996 C   0  0  0  0  0  0  0  0  0  0  0  0
  -28.7776  -20.6230   21.1222 C   0  0  0  0  0  0  0  0  0  0  0  0
  -29.2244  -22.3195   22.7833 C   0  0  0  0  0  0  0  0  0  0  0  0
  -17.2177  -29.7661   22.9955 C   0  0  0  0  0  0  0  0  0  0  0  0
  -24.0119  -28.8311   21.7304 C   0  0  0  0  0  0  0  0  0  0  0  0
  -29.5604  -19.9875   23.3177 C   0  0  0  0  0  0  0  0  0  0  0  0
  -26.2058  -29.4143   20.5668 C   0  0  0  0  0  0  0  0  0  0  0  0
  -25.8265  -19.3902   16.5080 C   0  0  0  0  0  0  0  0  0  0  0  0
  -28.7333  -14.1432   19.9262 C   0  0  0  0  0  0  0  0  0  0  0  0
  -26.4149  -18.3935   17.3128 C   0  0  0  0  0  0  0  0  0  0  0  0
  -28.3130  -13.9130   21.2439 C   0  0  0  0  0  0  0  0  0  0  0  0
  -29.1505  -19.6338   22.0322 C   0  0  0  0  0  0  0  0  0  0  0  0
  -28.8146  -21.9659   21.4977 C   0  0  0  0  0  0  0  0  0  0  0  0
  -21.8006  -29.3924   23.3360 C   0  0  0  0  0  0  0  0  0  0  0  0
  -30.5094  -14.5765   22.0473 C   0  0  0  0  0  0  0  0  0  0  0  0
  -19.4791  -29.2509   23.6721 C   0  0  0  0  0  0  0  0  0  0  0  0
  -16.9769  -28.4110   22.7688 C   0  0  0  0  0  0  0  0  0  0  0  0
  -29.5973  -21.3303   23.6933 C   0  0  0  0  0  0  0  0  0  0  0  0
  -18.4689  -30.1860   23.4471 C   0  0  0  0  0  0  0  0  0  0  0  0
  -25.1541  -28.5405   20.9016 C   0  0  0  0  0  0  0  0  0  0  0  0
  -27.0324  -28.6655   19.7652 C   0  0  0  0  0  0  0  0  0  0  0  0
  -29.9586  -18.9540   24.2944 C   0  0  0  0  0  0  0  0  0  0  0  0
  -26.4168  -30.7807   20.9465 C   0  0  0  0  0  0  0  0  0  0  0  0
  -25.8440  -15.3520   19.3833 C   0  0  0  0  0  0  0  0  0  0  0  0
  -24.8565  -12.4639   20.4814 C   0  0  0  0  0  0  0  0  0  0  0  0
  -25.5288   -9.6931   22.3569 C   0  0  0  0  0  0  0  0  0  0  0  0
  -28.0041  -22.7914   19.2599 C   0  0  0  0  0  0  0  0  0  0  0  0
  -24.3374  -19.6305   16.5038 C   0  0  0  0  0  0  0  0  0  0  0  0
  -27.8019  -13.8855   18.7735 C   0  0  0  0  0  0  0  0  0  0  0  0
  -26.9197  -13.4360   21.5600 C   0  0  0  0  0  0  0  0  0  0  0  0
  -23.6424  -19.0773   17.7437 C   0  0  0  0  0  0  0  0  0  0  0  0
  -26.9455  -25.0043   16.6793 C   0  0  0  0  0  0  0  0  0  0  0  0
  -24.0732  -17.6378   17.9823 C   0  0  0  0  0  0  0  0  0  0  0  0
  -26.4674  -26.2442   17.4385 C   0  0  0  0  0  0  0  0  0  0  0  0
  -26.6050  -23.7158   17.4260 C   0  0  0  0  0  0  0  0  0  0  0  0
  -26.5799  -24.9089   19.5812 C   0  0  0  0  0  0  0  0  0  0  0  0
  -25.5787  -17.5581   18.2653 C   0  0  1  0  0  0  0  0  0  0  0  0
  -26.3299  -13.9464   19.1696 C   0  0  1  0  0  0  0  0  0  0  0  0
  -26.9577  -26.2342   18.8997 C   0  0  2  0  0  0  0  0  0  0  0  0
  -29.1028  -18.2028   21.6064 C   0  0  0  0  0  0  0  0  0  0  0  0
  -24.5139   -7.5198   23.0944 C   0  0  0  0  0  0  0  0  0  0  0  0
  -23.1060  -13.9628   22.4812 C   0  0  0  0  0  0  0  0  0  0  0  0
  -22.8736  -11.8295   23.7708 C   0  0  0  0  0  0  0  0  0  0  0  0
  -22.0189  -11.9702   21.4315 C   0  0  0  0  0  0  0  0  0  0  0  0
  -27.6655   -8.1178   21.0485 C   0  0  0  0  0  0  0  0  0  0  0  0
  -32.6847  -16.4238   24.2461 C   0  0  0  0  0  0  0  0  0  0  0  0
  -31.4742  -17.0933   24.8752 C   0  0  0  0  0  0  0  0  0  0  0  0
  -32.3697  -15.7904   22.8969 C   0  0  0  0  0  0  0  0  0  1  0  0
  -24.5133  -11.8961   21.8374 C   0  0  1  0  0  0  0  0  0  0  0  0
  -25.3816   -8.2126   22.0553 C   0  0  2  0  0  0  0  0  0  0  0  0
  -23.1537  -12.4255   22.3747 C   0  0  0  0  0  0  0  0  0  0  0  0
  -25.2969  -27.3292   20.3571 N   0  0  0  0  0  0  0  0  0  0  0  0
  -26.4481  -27.4367   19.6719 N   0  0  0  0  0  0  0  0  0  0  0  0
  -26.0443  -13.2043   20.3992 N   0  0  0  0  0  0  0  0  0  0  0  0
  -27.1042  -23.7767   18.8015 N   0  0  0  0  0  0  0  0  0  0  0  0
  -28.1946  -28.9450   19.1380 N   0  0  0  0  0  0  0  0  0  0  0  0
  -29.2717  -18.8685   25.4336 N   0  0  0  0  0  0  0  0  0  0  0  0
  -25.4696  -31.3978   21.7749 N   0  0  0  0  0  0  0  0  0  0  0  0
  -28.4355  -22.9710   20.5737 N   0  0  0  0  0  0  0  0  0  0  0  0
  -25.9837  -16.1697   18.2781 N   0  0  0  0  0  0  0  0  0  0  0  0
  -24.5775  -10.4451   21.7005 N   0  0  0  0  0  0  0  0  0  0  0  0
  -30.9898  -18.1545   23.9921 N   0  3  0  0  0  0  0  0  0  0  0  0
  -26.7171   -7.5514   22.0420 N   0  3  0  0  0  0  0  0  0  0  0  0
  -27.4072  -31.4400   20.5492 O   0  0  0  0  0  0  0  0  0  0  0  0
  -25.3757  -15.6708   20.4699 O   0  0  0  0  0  0  0  0  0  0  0  0
  -24.1023  -12.2521   19.5286 O   0  0  0  0  0  0  0  0  0  0  0  0
  -26.3982  -10.1376   23.1032 O   0  0  0  0  0  0  0  0  0  0  0  0
  -28.3865  -21.8723   18.5311 O   0  0  0  0  0  0  0  0  0  0  0  0
  -20.7220  -29.6663   24.1196 O   0  0  0  0  0  0  0  0  0  0  0  0
  -31.3684  -14.7904   23.0809 O   0  0  0  0  0  0  0  0  0  1  0  0
  -15.7759  -28.0077   22.3337 F   0  0  0  0  0  0  0  0  0  0  0  0
  -29.9896  -21.6809   24.9263 F   0  0  0  0  0  0  0  0  0  0  0  0
  -18.6947  -31.4894   23.6620 F   0  0  0  0  0  0  0  0  0  0  0  0
  1  2  1  0  0  0  0
  1  5  2  0  0  0  0
  2  6  2  0  0  0  0
  3  8  2  0  0  0  0
  3 17  1  0  0  0  0
  4  9  1  0  0  0  0
  4 17  2  0  0  0  0
  5 20  1  0  0  0  0
  6 22  1  0  0  0  0
  7 10  2  0  0  0  0
  7 21  1  0  0  0  0
  8 26  1  0  0  0  0
  9 26  2  0  0  0  0
 10 27  1  0  0  0  0
 11 12  2  0  0  0  0
 11 28  1  0  0  0  0
 12 29  1  0  0  0  0
 13 23  1  0  0  0  0
 13 27  2  0  0  0  0
 14 24  2  0  0  0  0
 14 25  1  0  0  0  0
 15 25  2  0  0  0  0
 15 30  1  0  0  0  0
 16 29  2  0  0  0  0
 16 31  1  0  0  0  0
 17 32  1  0  0  0  0
 18 24  1  0  0  0  0
 18 30  2  0  0  0  0
 18 34  1  0  0  0  0
 19 32  1  0  0  0  0
 19 33  2  0  0  0  0
 19 35  1  0  0  0  0
 20 22  2  0  0  0  0
 20 40  1  0  0  0  0
 21 23  2  0  0  0  0
 21 41  1  0  0  0  0
 22 49  1  0  0  0  0
 23 42  1  0  0  0  0
 24 52  1  0  0  0  0
 25 71  1  0  0  0  0
 26 81  1  0  0  0  0
 27 82  1  0  0  0  0
 28 31  2  0  0  0  0
 28 81  1  0  0  0  0
 29 83  1  0  0  0  0
 30 84  1  0  0  0  0
 31 85  1  0  0  0  0
 32 64  2  0  0  0  0
 33 65  1  0  0  0  0
 33 68  1  0  0  0  0
 34 69  1  0  0  0  0
 34 74  2  0  0  0  0
 35 70  1  0  0  0  0
 35 76  2  0  0  0  0
 36 50  1  0  0  0  0
 36 72  1  0  0  0  0
 36 77  2  0  0  0  0
 37 61  1  0  0  0  0
 37 66  1  0  0  0  0
 37 78  2  0  0  0  0
 38 62  1  0  0  0  0
 38 73  1  0  0  0  0
 38 79  2  0  0  0  0
 39 67  1  0  0  0  0
 39 71  1  0  0  0  0
 39 80  2  0  0  0  0
 40 43  1  0  0  0  0
 41 50  1  0  0  0  0
 42 66  1  0  0  0  0
 43 45  1  0  0  0  0
 44 46  1  0  0  0  0
 44 47  1  0  0  0  0
 45 49  1  0  0  0  0
 46 51  1  0  0  0  0
 47 67  1  0  0  0  0
 48 51  1  0  0  0  0
 48 67  1  0  0  0  0
 49 72  1  0  0  0  0
 50 66  1  0  0  0  0
 51 65  1  0  0  0  0
 53 62  1  0  0  0  0
 54 63  1  0  0  0  0
 55 63  1  0  0  0  0
 56 63  1  0  0  0  0
 57 75  1  0  0  0  0
 58 59  1  0  0  0  0
 58 60  1  0  0  0  0
 59 74  1  0  0  0  0
 60 82  1  0  0  0  0
 61 63  1  0  0  0  0
 61 73  1  0  0  0  0
 62 75  1  0  0  0  0
 64 65  1  0  0  0  0
M  CHG  2  74   1  75   1
M  ISO  4  39 100  60 101  71 100  82 101
M  END
> <Batch ID>
0040

> <Smiles>
CNC(C)C(=O)NC(C(=O)N1Cc2cc([101O:1][101CH2:1]CCNC(=N)c3c(C)cc([100NH:0][100C:0](=O)N4CCCC(n5nc(-c6ccc(Oc7ccc(F)cc7F)cc6)c(C(N)=O)c5N)C4)cc3F)ccc2CC1C(=O)NC1CCCc2ccccc21)C(C)(C)C

> <Shape>
0.265

> <Color>
0.048

> <Negative vol penalty>
0.000

$$$$

  -OEChem-04042322063D

 83 91  0     1  0  0  0  0  0999 V2000
  -17.7212  -27.1064   22.9182 C   0  0  0  0  0  0  0  0  0  0  0  0
  -18.5754  -26.1579   23.4713 C   0  0  0  0  0  0  0  0  0  0  0  0
  -23.0140   -9.9610   20.0152 C   0  0  0  0  0  0  0  0  0  0  0  0
  -23.7589  -10.0258   22.3126 C   0  0  0  0  0  0  0  0  0  0  0  0
  -18.2385  -28.1330   22.1292 C   0  0  0  0  0  0  0  0  0  0  0  0
  -19.9475  -26.2347   23.2348 C   0  0  0  0  0  0  0  0  0  0  0  0
  -24.4416  -24.7206   27.1099 C   0  0  0  0  0  0  0  0  0  0  0  0
  -22.2351   -8.8393   20.2994 C   0  0  0  0  0  0  0  0  0  0  0  0
  -22.9800   -8.9041   22.5968 C   0  0  0  0  0  0  0  0  0  0  0  0
  -25.2256  -23.5746   27.2353 C   0  0  0  0  0  0  0  0  0  0  0  0
  -19.7260   -8.2218   23.2024 C   0  0  0  0  0  0  0  0  0  0  0  0
  -18.9607   -8.2446   24.3683 C   0  0  0  0  0  0  0  0  0  0  0  0
  -26.9571  -24.6228   25.9229 C   0  0  0  0  0  0  0  0  0  0  0  0
  -29.0732  -18.2924   24.7345 C   0  0  0  0  0  0  0  0  0  0  0  0
  -28.7315  -19.7291   22.8224 C   0  0  0  0  0  0  0  0  0  0  0  0
  -20.1400   -6.2988   25.1806 C   0  0  0  0  0  0  0  0  0  0  0  0
  -23.7760  -10.5542   21.0218 C   0  0  0  0  0  0  0  0  0  0  0  0
  -24.1923  -13.0627   20.8170 C   0  0  0  0  0  0  0  0  0  0  0  0
  -19.6186  -28.2280   21.8909 C   0  0  0  0  0  0  0  0  0  0  0  0
  -24.9058  -25.8241   26.3797 C   0  0  0  0  0  0  0  0  0  0  0  0
  -20.4836  -27.2627   22.4408 C   0  0  0  0  0  0  0  0  0  0  0  0
  -26.1782  -25.7826   25.7919 C   0  0  0  0  0  0  0  0  0  0  0  0
  -29.8636  -17.4459   23.9572 C   0  0  0  0  0  0  0  0  0  0  0  0
  -30.0880  -17.7410   22.6125 C   0  0  0  0  0  0  0  0  0  0  0  0
  -28.5071  -19.4340   24.1671 C   0  0  0  0  0  0  0  0  0  0  0  0
  -22.2181   -8.3109   21.5901 C   0  0  0  0  0  0  0  0  0  0  0  0
  -26.4823  -23.5244   26.6393 C   0  0  0  0  0  0  0  0  0  0  0  0
  -20.6984   -7.2374   23.0255 C   0  0  0  0  0  0  0  0  0  0  0  0
  -19.1677   -7.2832   25.3574 C   0  0  0  0  0  0  0  0  0  0  0  0
  -20.9054   -6.2759   24.0147 C   0  0  0  0  0  0  0  0  0  0  0  0
  -29.5219  -18.8826   22.0451 C   0  0  0  0  0  0  0  0  0  0  0  0
  -24.5812  -11.7126   20.7288 C   0  0  0  0  0  0  0  0  0  0  0  0
  -25.3083  -13.7670   20.4362 C   0  0  0  0  0  0  0  0  0  0  0  0
  -22.9348  -13.6294   21.2083 C   0  0  0  0  0  0  0  0  0  0  0  0
  -23.9272  -27.3637   23.7766 C   0  0  0  0  0  0  0  0  0  0  0  0
  -26.3355  -29.3957   24.5472 C   0  0  0  0  0  0  0  0  0  0  0  0
  -29.3108  -29.8887   26.1444 C   0  0  0  0  0  0  0  0  0  0  0  0
  -30.8181  -14.6325   20.6303 C   0  0  0  0  0  0  0  0  0  0  0  0
  -20.1261  -29.3281   20.9926 C   0  0  0  0  0  0  0  0  0  0  0  0
  -24.0590  -27.0630   26.2763 C   0  0  0  0  0  0  0  0  0  0  0  0
  -26.7310  -26.9481   25.0145 C   0  0  0  0  0  0  0  0  0  0  0  0
  -21.6320  -29.5549   21.0984 C   0  0  0  0  0  0  0  0  0  0  0  0
  -29.6267  -12.2003   18.3190 C   0  0  0  0  0  0  0  0  0  0  0  0
  -22.3769  -28.2246   21.0494 C   0  0  0  0  0  0  0  0  0  0  0  0
  -28.1785  -11.9637   18.7511 C   0  0  0  0  0  0  0  0  0  0  0  0
  -30.5421  -12.4361   19.5184 C   0  0  0  0  0  0  0  0  0  0  0  0
  -28.6537  -13.2699   20.8645 C   0  0  0  0  0  0  0  0  0  0  0  0
  -21.9805  -27.3266   22.2275 C   0  0  1  0  0  0  0  0  0  0  0  0
  -24.4189  -27.9343   25.0768 C   0  0  1  0  0  0  0  0  0  0  0  0
  -27.6825  -13.0827   19.6864 C   0  0  2  0  0  0  0  0  0  0  0  0
  -30.4575  -16.2302   24.5906 C   0  0  0  0  0  0  0  0  0  0  0  0
  -31.0542  -31.6443   26.5639 C   0  0  0  0  0  0  0  0  0  0  0  0
  -27.3902  -29.0232   21.7084 C   0  0  0  0  0  0  0  0  0  0  0  0
  -29.5699  -29.9949   22.4654 C   0  0  0  0  0  0  0  0  0  0  0  0
  -27.4924  -31.3726   22.5594 C   0  0  0  0  0  0  0  0  0  0  0  0
  -28.8831  -29.7794   29.0708 C   0  0  0  0  0  0  0  0  0  0  0  0
  -30.9389  -16.8220   21.7924 C   0  0  0  0  0  0  0  0  0  0  0  0
  -27.4384  -20.0454   26.3373 C   0  0  0  0  0  0  0  0  0  0  0  0
  -26.5658  -21.1607   26.8882 C   0  0  0  0  0  0  0  0  0  1  0  0
  -27.8051  -29.4869   24.2142 C   0  0  1  0  0  0  0  0  0  0  0  0
  -29.7824  -30.9883   27.0787 C   0  0  2  0  0  0  0  0  0  0  0  0
  -28.0535  -29.9465   22.7498 C   0  0  0  0  0  0  0  0  0  0  0  0
  -25.8454  -11.5656   20.3236 N   0  0  0  0  0  0  0  0  0  0  0  0
  -26.2606  -12.8324   20.1537 N   0  0  0  0  0  0  0  0  0  0  0  0
  -25.8626  -28.1344   24.9364 N   0  0  0  0  0  0  0  0  0  0  0  0
  -30.0162  -13.5104   20.3641 N   0  0  0  0  0  0  0  0  0  0  0  0
  -25.5580  -15.0885   20.3187 N   0  0  0  0  0  0  0  0  0  0  0  0
  -21.8945  -12.7623   21.5693 N   0  0  0  0  0  0  0  0  0  0  0  0
  -27.7222  -20.2745   24.9391 N   0  0  0  0  0  0  0  0  0  0  0  0
  -22.6467  -27.7574   23.4379 N   0  0  0  0  0  0  0  0  0  0  0  0
  -28.3989  -30.3579   25.2227 N   0  0  0  0  0  0  0  0  0  0  0  0
  -30.2410  -15.6070   21.4351 N   0  0  0  0  0  0  0  0  0  0  0  0
  -30.0553  -30.4340   28.4349 N   0  3  0  0  0  0  0  0  0  0  0  0
  -22.7343  -14.8676   21.2212 O   0  0  0  0  0  0  0  0  0  0  0  0
  -24.6562  -26.6225   23.1280 O   0  0  0  0  0  0  0  0  0  0  0  0
  -25.6344  -30.4078   24.4719 O   0  0  0  0  0  0  0  0  0  0  0  0
  -29.7141  -28.7303   26.2219 O   0  0  0  0  0  0  0  0  0  0  0  0
  -31.9617  -14.7590   20.1794 O   0  0  0  0  0  0  0  0  0  0  0  0
  -21.4579   -7.2165   21.8678 O   0  0  0  0  0  0  0  0  0  0  0  0
  -27.2493  -22.4068   26.7596 O   0  0  0  0  0  0  0  0  0  1  0  0
  -18.4337   -7.3062   26.4776 F   0  0  0  0  0  0  0  0  0  0  0  0
  -21.8389   -5.3285   23.8510 F   0  0  0  0  0  0  0  0  0  0  0  0
  -29.7756  -19.2830   20.3847 Cl  0  0  0  0  0  0  0  0  0  0  0  0
  1  2  1  0  0  0  0
  1  5  2  0  0  0  0
  2  6  2  0  0  0  0
  3  8  2  0  0  0  0
  3 17  1  0  0  0  0
  4  9  1  0  0  0  0
  4 17  2  0  0  0  0
  5 19  1  0  0  0  0
  6 21  1  0  0  0  0
  7 10  2  0  0  0  0
  7 20  1  0  0  0  0
  8 26  1  0  0  0  0
  9 26  2  0  0  0  0
 10 27  1  0  0  0  0
 11 12  2  0  0  0  0
 11 28  1  0  0  0  0
 12 29  1  0  0  0  0
 13 22  1  0  0  0  0
 13 27  2  0  0  0  0
 14 23  2  0  0  0  0
 14 25  1  0  0  0  0
 15 25  2  0  0  0  0
 15 31  1  0  0  0  0
 16 29  2  0  0  0  0
 16 30  1  0  0  0  0
 17 32  1  0  0  0  0
 18 32  1  0  0  0  0
 18 33  2  0  0  0  0
 18 34  1  0  0  0  0
 19 21  2  0  0  0  0
 19 39  1  0  0  0  0
 20 22  2  0  0  0  0
 20 40  1  0  0  0  0
 21 48  1  0  0  0  0
 22 41  1  0  0  0  0
 23 24  1  0  0  0  0
 23 51  1  0  0  0  0
 24 31  2  0  0  0  0
 24 57  1  0  0  0  0
 25 69  1  0  0  0  0
 26 79  1  0  0  0  0
 27 80  1  0  0  0  0
 28 30  2  0  0  0  0
 28 79  1  0  0  0  0
 29 81  1  0  0  0  0
 30 82  1  0  0  0  0
 31 83  1  0  0  0  0
 32 63  2  0  0  0  0
 33 64  1  0  0  0  0
 33 67  1  0  0  0  0
 34 68  1  0  0  0  0
 34 74  2  0  0  0  0
 35 49  1  0  0  0  0
 35 70  1  0  0  0  0
 35 75  2  0  0  0  0
 36 60  1  0  0  0  0
 36 65  1  0  0  0  0
 36 76  2  0  0  0  0
 37 61  1  0  0  0  0
 37 71  1  0  0  0  0
 37 77  2  0  0  0  0
 38 66  1  0  0  0  0
 38 72  1  0  0  0  0
 38 78  2  0  0  0  0
 39 42  1  0  0  0  0
 40 49  1  0  0  0  0
 41 65  1  0  0  0  0
 42 44  1  0  0  0  0
 43 45  1  0  0  0  0
 43 46  1  0  0  0  0
 44 48  1  0  0  0  0
 45 50  1  0  0  0  0
 46 66  1  0  0  0  0
 47 50  1  0  0  0  0
 47 66  1  0  0  0  0
 48 70  1  0  0  0  0
 49 65  1  0  0  0  0
 50 64  1  0  0  0  0
 52 61  1  0  0  0  0
 53 62  1  0  0  0  0
 54 62  1  0  0  0  0
 55 62  1  0  0  0  0
 56 73  1  0  0  0  0
 57 72  1  0  0  0  0
 58 59  1  0  0  0  0
 58 69  1  0  0  0  0
 59 80  1  0  0  0  0
 60 62  1  0  0  0  0
 60 71  1  0  0  0  0
 61 73  1  0  0  0  0
 63 64  1  0  0  0  0
M  CHG  1  73   1
M  ISO  4  38 100  59 101  72 100  80 101
M  END
> <Batch ID>
0040

> <Smiles>
CNC(C)C(=O)NC(C(=O)N1Cc2cc([101O:1][101CH2:1]CNc3cc(C)c(C[100NH:0][100C:0](=O)N4CCCC(n5nc(-c6ccc(Oc7ccc(F)cc7F)cc6)c(C(N)=O)c5N)C4)c(Cl)c3)ccc2CC1C(=O)NC1CCCc2ccccc21)C(C)(C)C

> <Shape>
0.276

> <Color>
0.211

> <Negative vol penalty>
0.000

$$$$

  -OEChem-04042322063D

 86 94  0     1  0  0  0  0  0999 V2000
  -21.1507  -26.6987   26.0604 C   0  0  0  0  0  0  0  0  0  0  0  0
  -22.2164  -26.4030   25.2164 C   0  0  0  0  0  0  0  0  0  0  0  0
  -22.1782  -10.3463   21.4643 C   0  0  0  0  0  0  0  0  0  0  0  0
  -24.4579   -9.8091   20.8714 C   0  0  0  0  0  0  0  0  0  0  0  0
  -19.9021  -27.0081   25.5225 C   0  0  0  0  0  0  0  0  0  0  0  0
  -22.0338  -26.4153   23.8341 C   0  0  0  0  0  0  0  0  0  0  0  0
  -25.7891  -28.7852   21.3996 C   0  0  0  0  0  0  0  0  0  0  0  0
  -30.7483  -19.5123   18.3344 C   0  0  0  0  0  0  0  0  0  0  0  0
  -21.8741   -8.9865   21.5274 C   0  0  0  0  0  0  0  0  0  0  0  0
  -24.1539   -8.4493   20.9346 C   0  0  0  0  0  0  0  0  0  0  0  0
  -26.9807  -28.0820   21.2287 C   0  0  0  0  0  0  0  0  0  0  0  0
  -22.3130   -6.4342   23.7015 C   0  0  0  0  0  0  0  0  0  0  0  0
  -21.5672   -5.9867   24.7919 C   0  0  0  0  0  0  0  0  0  0  0  0
  -30.2437  -18.9203   17.1767 C   0  0  0  0  0  0  0  0  0  0  0  0
  -26.3394  -27.5579   18.9630 C   0  0  0  0  0  0  0  0  0  0  0  0
  -19.8430   -5.2040   23.2914 C   0  0  0  0  0  0  0  0  0  0  0  0
  -23.4700  -10.7577   21.1362 C   0  0  0  0  0  0  0  0  0  0  0  0
  -24.2498  -12.9793   22.1180 C   0  0  0  0  0  0  0  0  0  0  0  0
  -19.7066  -27.0337   24.1327 C   0  0  0  0  0  0  0  0  0  0  0  0
  -24.8572  -28.8710   20.3553 C   0  0  0  0  0  0  0  0  0  0  0  0
  -20.7811  -26.7240   23.2772 C   0  0  0  0  0  0  0  0  0  0  0  0
  -25.1379  -28.2650   19.1224 C   0  0  0  0  0  0  0  0  0  0  0  0
  -30.0086  -19.4746   19.5164 C   0  0  0  0  0  0  0  0  0  0  0  0
  -28.7642  -18.8449   19.5406 C   0  0  0  0  0  0  0  0  0  0  0  0
  -28.2595  -18.2529   18.3828 C   0  0  0  0  0  0  0  0  0  0  0  0
  -22.8620   -8.0379   21.2626 C   0  0  0  0  0  0  0  0  0  0  0  0
  -27.2547  -27.4658   20.0112 C   0  0  0  0  0  0  0  0  0  0  0  0
  -21.8238   -6.2668   22.4060 C   0  0  0  0  0  0  0  0  0  0  0  0
  -20.3322   -5.3716   24.5869 C   0  0  0  0  0  0  0  0  0  0  0  0
  -20.5888   -5.6516   22.2010 C   0  0  0  0  0  0  0  0  0  0  0  0
  -28.9993  -18.2906   17.2008 C   0  0  0  0  0  0  0  0  0  0  0  0
  -23.7846  -12.1622   21.0703 C   0  0  0  0  0  0  0  0  0  0  0  0
  -24.3946  -14.2202   21.5473 C   0  0  0  0  0  0  0  0  0  0  0  0
  -29.5168  -23.7240   20.9777 C   0  0  0  0  0  0  0  0  0  0  0  0
  -29.7787  -24.9726   20.5678 C   0  0  0  0  0  0  0  0  0  0  0  0
  -24.5263  -12.6464   23.4849 C   0  0  0  0  0  0  0  0  0  0  0  0
  -30.3580  -22.5872   20.5116 C   0  0  0  0  0  0  0  0  0  0  0  0
  -21.8471  -27.9326   19.9521 C   0  0  0  0  0  0  0  0  0  0  0  0
  -22.1217  -29.5652   17.1626 C   0  0  0  0  0  0  0  0  0  0  0  0
  -24.1571  -30.8091   14.7219 C   0  0  0  0  0  0  0  0  0  0  0  0
  -26.0809  -17.4940   17.3710 C   0  0  0  0  0  0  0  0  0  0  0  0
  -18.3269  -27.3274   23.5990 C   0  0  0  0  0  0  0  0  0  0  0  0
  -23.5885  -29.6559   20.5469 C   0  0  0  0  0  0  0  0  0  0  0  0
  -24.1796  -28.3447   17.9631 C   0  0  0  0  0  0  0  0  0  0  0  0
  -18.3112  -27.6853   22.1151 C   0  0  0  0  0  0  0  0  0  0  0  0
  -22.8774  -15.9740   17.0480 C   0  0  0  0  0  0  0  0  0  0  0  0
  -19.1643  -26.7021   21.3198 C   0  0  0  0  0  0  0  0  0  0  0  0
  -22.8661  -14.9140   18.1518 C   0  0  0  0  0  0  0  0  0  0  0  0
  -24.2569  -16.1095   16.4059 C   0  0  0  0  0  0  0  0  0  0  0  0
  -25.3490  -15.2776   18.4515 C   0  0  0  0  0  0  0  0  0  0  0  0
  -20.6288  -26.7513   21.7718 C   0  0  1  0  0  0  0  0  0  0  0  0
  -22.4799  -29.2445   19.5830 C   0  0  1  0  0  0  0  0  0  0  0  0
  -23.9968  -15.1508   19.1721 C   0  0  2  0  0  0  0  0  0  0  0  0
  -27.9779  -18.8074   20.8140 C   0  0  0  0  0  0  0  0  0  0  0  0
  -24.0885  -32.0636   12.5496 C   0  0  0  0  0  0  0  0  0  0  0  0
  -21.1791  -27.0382   15.7358 C   0  0  0  0  0  0  0  0  0  0  0  0
  -22.0276  -28.0156   13.5927 C   0  0  0  0  0  0  0  0  0  0  0  0
  -20.2030  -29.1629   14.8485 C   0  0  0  0  0  0  0  0  0  0  0  0
  -25.7622  -33.0377   15.8247 C   0  0  0  0  0  0  0  0  0  0  0  0
  -30.5752  -20.1204   20.7477 C   0  0  0  0  0  0  0  0  0  0  0  0
  -28.9807  -26.1609   20.9984 C   0  0  0  0  0  0  0  0  0  1  0  0
  -22.5605  -29.2193   15.7602 C   0  0  1  0  0  0  0  0  0  0  0  0
  -24.2189  -32.1742   14.0608 C   0  0  2  0  0  0  0  0  0  0  0  0
  -21.5100  -28.3557   15.0066 C   0  0  0  0  0  0  0  0  0  0  0  0
  -23.6431  -12.8280   19.9211 N   0  0  0  0  0  0  0  0  0  0  0  0
  -24.0216  -14.0766   20.2433 N   0  0  0  0  0  0  0  0  0  0  0  0
  -22.9499  -29.1182   18.2019 N   0  0  0  0  0  0  0  0  0  0  0  0
  -25.2767  -16.3363   17.4323 N   0  0  0  0  0  0  0  0  0  0  0  0
  -24.8034  -15.4092   22.0388 N   0  0  0  0  0  0  0  0  0  0  0  0
  -24.3234  -11.3247   23.9049 N   0  0  0  0  0  0  0  0  0  0  0  0
  -26.9930  -17.6186   18.4184 N   0  0  0  0  0  0  0  0  0  0  0  0
  -29.9320  -21.3814   21.0420 N   0  0  0  0  0  0  0  0  0  0  0  0
  -21.2903  -27.9126   21.2167 N   0  0  0  0  0  0  0  0  0  0  0  0
  -22.8730  -30.4855   15.1063 N   0  0  0  0  0  0  0  0  0  0  0  0
  -25.5137  -32.8428   14.3731 N   0  3  0  0  0  0  0  0  0  0  0  0
  -24.9255  -13.4994   24.3135 O   0  0  0  0  0  0  0  0  0  0  0  0
  -31.3057  -22.7386   19.7477 O   0  0  0  0  0  0  0  0  0  0  0  0
  -21.8615  -27.0075   19.1486 O   0  0  0  0  0  0  0  0  0  0  0  0
  -21.0862  -30.2144   17.3294 O   0  0  0  0  0  0  0  0  0  0  0  0
  -25.1481  -30.0992   14.8782 O   0  0  0  0  0  0  0  0  0  0  0  0
  -25.9499  -18.3282   16.4716 O   0  0  0  0  0  0  0  0  0  0  0  0
  -22.5657   -6.7109   21.3244 O   0  0  0  0  0  0  0  0  0  0  0  0
  -28.4168  -26.7782   19.8419 O   0  0  0  0  0  0  0  0  0  1  0  0
  -19.6169   -4.9404   25.6341 F   0  0  0  0  0  0  0  0  0  0  0  0
  -20.1141   -5.4868   20.9587 F   0  0  0  0  0  0  0  0  0  0  0  0
  -28.4178  -17.5673   15.7430 Cl  0  0  0  0  0  0  0  0  0  0  0  0
  1  2  1  0  0  0  0
  1  5  2  0  0  0  0
  2  6  2  0  0  0  0
  3  9  2  0  0  0  0
  3 17  1  0  0  0  0
  4 10  1  0  0  0  0
  4 17  2  0  0  0  0
  5 19  1  0  0  0  0
  6 21  1  0  0  0  0
  7 11  2  0  0  0  0
  7 20  1  0  0  0  0
  8 14  2  0  0  0  0
  8 23  1  0  0  0  0
  9 26  1  0  0  0  0
 10 26  2  0  0  0  0
 11 27  1  0  0  0  0
 12 13  2  0  0  0  0
 12 28  1  0  0  0  0
 13 29  1  0  0  0  0
 14 31  1  0  0  0  0
 15 22  1  0  0  0  0
 15 27  2  0  0  0  0
 16 29  2  0  0  0  0
 16 30  1  0  0  0  0
 17 32  1  0  0  0  0
 18 32  1  0  0  0  0
 18 33  2  0  0  0  0
 18 36  1  0  0  0  0
 19 21  2  0  0  0  0
 19 42  1  0  0  0  0
 20 22  2  0  0  0  0
 20 43  1  0  0  0  0
 21 51  1  0  0  0  0
 22 44  1  0  0  0  0
 23 24  2  0  0  0  0
 23 60  1  0  0  0  0
 24 25  1  0  0  0  0
 24 54  1  0  0  0  0
 25 31  2  0  0  0  0
 25 71  1  0  0  0  0
 26 82  1  0  0  0  0
 27 83  1  0  0  0  0
 28 30  2  0  0  0  0
 28 82  1  0  0  0  0
 29 84  1  0  0  0  0
 30 85  1  0  0  0  0
 31 86  1  0  0  0  0
 32 65  2  0  0  0  0
 33 66  1  0  0  0  0
 33 69  1  0  0  0  0
 34 35  2  0  0  0  0
 34 37  1  0  0  0  0
 35 61  1  0  0  0  0
 36 70  1  0  0  0  0
 36 76  2  0  0  0  0
 37 72  1  0  0  0  0
 37 77  2  0  0  0  0
 38 52  1  0  0  0  0
 38 73  1  0  0  0  0
 38 78  2  0  0  0  0
 39 62  1  0  0  0  0
 39 67  1  0  0  0  0
 39 79  2  0  0  0  0
 40 63  1  0  0  0  0
 40 74  1  0  0  0  0
 40 80  2  0  0  0  0
 41 68  1  0  0  0  0
 41 71  1  0  0  0  0
 41 81  2  0  0  0  0
 42 45  1  0  0  0  0
 43 52  1  0  0  0  0
 44 67  1  0  0  0  0
 45 47  1  0  0  0  0
 46 48  1  0  0  0  0
 46 49  1  0  0  0  0
 47 51  1  0  0  0  0
 48 53  1  0  0  0  0
 49 68  1  0  0  0  0
 50 53  1  0  0  0  0
 50 68  1  0  0  0  0
 51 73  1  0  0  0  0
 52 67  1  0  0  0  0
 53 66  1  0  0  0  0
 55 63  1  0  0  0  0
 56 64  1  0  0  0  0
 57 64  1  0  0  0  0
 58 64  1  0  0  0  0
 59 75  1  0  0  0  0
 60 72  1  0  0  0  0
 61 83  1  0  0  0  0
 62 64  1  0  0  0  0
 62 74  1  0  0  0  0
 63 75  1  0  0  0  0
 65 66  1  0  0  0  0
M  CHG  1  75   1
M  ISO  4  41 100  61 101  71 100  83 101
M  END
> <Batch ID>
0040

> <Smiles>
CNC(C)C(=O)NC(C(=O)N1Cc2cc([101O:1][101CH2:1]C=CC(=O)NCc3ccc(Cl)c([100NH:0][100C:0](=O)N4CCCC(n5nc(-c6ccc(Oc7ccc(F)cc7F)cc6)c(C(N)=O)c5N)C4)c3C)ccc2CC1C(=O)NC1CCCc2ccccc21)C(C)(C)C

> <Shape>
0.230

> <Color>
0.094

> <Negative vol penalty>
0.000

$$$$

  -OEChem-04042322063D

 85 93  0     1  0  0  0  0  0999 V2000
  -32.7519  -21.9475   21.2679 C   0  0  0  0  0  0  0  0  0  0  0  0
  -31.4905  -21.6800   21.7878 C   0  0  0  0  0  0  0  0  0  0  0  0
  -29.8574  -26.9344   18.6252 C   0  0  0  0  0  0  0  0  0  0  0  0
  -29.3750  -25.7064   20.6491 C   0  0  0  0  0  0  0  0  0  0  0  0
  -33.1141  -21.4293   20.0264 C   0  0  0  0  0  0  0  0  0  0  0  0
  -30.5954  -20.8844   21.0718 C   0  0  0  0  0  0  0  0  0  0  0  0
  -26.4061  -19.6434   23.3330 C   0  0  0  0  0  0  0  0  0  0  0  0
  -31.1976  -26.5591   18.7168 C   0  0  0  0  0  0  0  0  0  0  0  0
  -30.7153  -25.3309   20.7407 C   0  0  0  0  0  0  0  0  0  0  0  0
  -25.3773  -20.5547   23.5670 C   0  0  0  0  0  0  0  0  0  0  0  0
  -34.8169  -26.2203   18.6158 C   0  0  0  0  0  0  0  0  0  0  0  0
  -35.7833  -27.2026   18.3995 C   0  0  0  0  0  0  0  0  0  0  0  0
  -24.1254  -19.6018   21.7383 C   0  0  0  0  0  0  0  0  0  0  0  0
  -18.4509  -25.7188   20.7340 C   0  0  0  0  0  0  0  0  0  0  0  0
  -34.9015  -28.4781   20.2522 C   0  0  0  0  0  0  0  0  0  0  0  0
  -28.9461  -26.5082   19.5914 C   0  0  0  0  0  0  0  0  0  0  0  0
  -26.5288  -26.2073   18.8336 C   0  0  0  0  0  0  0  0  0  0  0  0
  -32.2178  -20.6374   19.2898 C   0  0  0  0  0  0  0  0  0  0  0  0
  -26.3068  -18.7099   22.2913 C   0  0  0  0  0  0  0  0  0  0  0  0
  -30.9510  -20.3324   19.8279 C   0  0  0  0  0  0  0  0  0  0  0  0
  -25.1532  -18.6780   21.4949 C   0  0  0  0  0  0  0  0  0  0  0  0
  -18.8895  -27.0108   21.0235 C   0  0  0  0  0  0  0  0  0  0  0  0
  -18.7531  -24.6689   21.6013 C   0  0  0  0  0  0  0  0  0  0  0  0
  -19.9328  -26.2032   23.0474 C   0  0  0  0  0  0  0  0  0  0  0  0
  -19.6305  -27.2531   22.1801 C   0  0  0  0  0  0  0  0  0  0  0  0
  -19.4941  -24.9111   22.7579 C   0  0  0  0  0  0  0  0  0  0  0  0
  -31.6266  -25.7573   19.7746 C   0  0  0  0  0  0  0  0  0  0  0  0
  -24.2380  -20.5359   22.7678 C   0  0  0  0  0  0  0  0  0  0  0  0
  -33.8926  -26.3670   19.6502 C   0  0  0  0  0  0  0  0  0  0  0  0
  -35.8256  -28.3314   19.2178 C   0  0  0  0  0  0  0  0  0  0  0  0
  -33.9350  -27.4959   20.4685 C   0  0  0  0  0  0  0  0  0  0  0  0
  -27.5616  -26.8961   19.4975 C   0  0  0  0  0  0  0  0  0  0  0  0
  -25.4129  -26.9813   19.0384 C   0  0  0  0  0  0  0  0  0  0  0  0
  -26.5742  -24.9776   18.0978 C   0  0  0  0  0  0  0  0  0  0  0  0
  -27.9610  -18.1215   19.6415 C   0  0  0  0  0  0  0  0  0  0  0  0
  -25.9807  -15.5602   19.4398 C   0  0  0  0  0  0  0  0  0  0  0  0
  -22.9944  -14.1342   20.2736 C   0  0  0  0  0  0  0  0  0  0  0  0
  -22.1527  -30.0309   22.3876 C   0  0  0  0  0  0  0  0  0  0  0  0
  -32.6646  -20.0957   17.9548 C   0  0  0  0  0  0  0  0  0  0  0  0
  -27.4137  -17.7161   22.0689 C   0  0  0  0  0  0  0  0  0  0  0  0
  -24.9889  -17.6825   20.3766 C   0  0  0  0  0  0  0  0  0  0  0  0
  -31.5021  -19.6403   17.0789 C   0  0  0  0  0  0  0  0  0  0  0  0
  -24.9486  -31.6605   20.9029 C   0  0  0  0  0  0  0  0  0  0  0  0
  -30.5742  -18.7355   17.8757 C   0  0  0  0  0  0  0  0  0  0  0  0
  -25.7949  -30.5095   20.3561 C   0  0  0  0  0  0  0  0  0  0  0  0
  -24.2795  -31.2905   22.2249 C   0  0  0  0  0  0  0  0  0  0  0  0
  -24.3336  -28.8960   21.6444 C   0  0  0  0  0  0  0  0  0  0  0  0
  -29.9496  -19.4949   19.0532 C   0  0  1  0  0  0  0  0  0  0  0  0
  -27.4298  -17.1464   20.6538 C   0  0  1  0  0  0  0  0  0  0  0  0
  -24.9836  -29.2019   20.2842 C   0  0  2  0  0  0  0  0  0  0  0  0
  -18.5527  -28.1174   20.0782 C   0  0  0  0  0  0  0  0  0  0  0  0
  -18.2708  -23.2947   21.2682 C   0  0  0  0  0  0  0  0  0  0  0  0
  -20.7276  -26.4632   24.2883 C   0  0  0  0  0  0  0  0  0  0  0  0
  -21.6437  -12.0474   19.9297 C   0  0  0  0  0  0  0  0  0  0  0  0
  -25.2816  -16.4810   16.6161 C   0  0  0  0  0  0  0  0  0  0  0  0
  -23.2880  -14.9684   16.6914 C   0  0  0  0  0  0  0  0  0  0  0  0
  -25.5851  -14.0109   16.8627 C   0  0  0  0  0  0  0  0  0  0  0  0
  -22.9691  -13.5340   23.1715 C   0  0  0  0  0  0  0  0  0  0  0  0
  -20.1000  -28.6397   22.4879 C   0  0  0  0  0  0  0  0  0  0  0  0
  -19.8168  -23.7805   23.6899 C   0  0  0  0  0  0  0  0  0  0  0  0
  -21.5989  -22.2564   24.5499 C   0  0  0  0  0  0  0  0  0  0  0  0
  -23.0495  -21.8709   24.3367 C   0  0  0  0  0  0  0  0  0  1  0  0
  -24.6304  -15.2993   18.8174 C   0  0  1  0  0  0  0  0  0  0  0  0
  -22.6519  -12.7593   20.8182 C   0  0  2  0  0  0  0  0  0  0  0  0
  -24.6999  -15.2101   17.2667 C   0  0  0  0  0  0  0  0  0  0  0  0
  -27.1393  -28.0213   20.0803 N   0  0  0  0  0  0  0  0  0  0  0  0
  -25.8289  -28.0455   19.7831 N   0  0  0  0  0  0  0  0  0  0  0  0
  -26.1014  -16.7355   20.1947 N   0  0  0  0  0  0  0  0  0  0  0  0
  -23.5251  -30.0423   22.0884 N   0  0  0  0  0  0  0  0  0  0  0  0
  -24.1262  -26.8488   18.6521 N   0  0  0  0  0  0  0  0  0  0  0  0
  -27.8020  -24.3112   17.9852 N   0  0  0  0  0  0  0  0  0  0  0  0
  -29.2467  -18.5567   19.9003 N   0  0  0  0  0  0  0  0  0  0  0  0
  -24.1087  -14.0991   19.4622 N   0  0  0  0  0  0  0  0  0  0  0  0
  -21.5119  -28.8087   22.2256 N   0  0  0  0  0  0  0  0  0  0  0  0
  -22.0738  -12.8736   22.1870 N   0  3  0  0  0  0  0  0  0  0  0  0
  -21.2332  -23.3345   23.5970 N   0  3  0  0  0  0  0  0  0  0  0  0
  -25.5594  -24.4928   17.5422 O   0  0  0  0  0  0  0  0  0  0  0  0
  -27.2571  -18.4533   18.6949 O   0  0  0  0  0  0  0  0  0  0  0  0
  -26.8927  -14.7475   19.2686 O   0  0  0  0  0  0  0  0  0  0  0  0
  -22.3369  -15.1383   20.5382 O   0  0  0  0  0  0  0  0  0  0  0  0
  -21.5426  -31.0367   22.7656 O   0  0  0  0  0  0  0  0  0  0  0  0
  -32.9343  -25.3906   19.8642 O   0  0  0  0  0  0  0  0  0  0  0  0
  -23.2326  -21.4248   22.9936 O   0  0  0  0  0  0  0  0  0  1  0  0
  -36.7547  -29.2739   19.0109 F   0  0  0  0  0  0  0  0  0  0  0  0
  -33.0505  -27.6417   21.4646 F   0  0  0  0  0  0  0  0  0  0  0  0
  1  2  1  0  0  0  0
  1  5  2  0  0  0  0
  2  6  2  0  0  0  0
  3  8  2  0  0  0  0
  3 16  1  0  0  0  0
  4  9  1  0  0  0  0
  4 16  2  0  0  0  0
  5 18  1  0  0  0  0
  6 20  1  0  0  0  0
  7 10  2  0  0  0  0
  7 19  1  0  0  0  0
  8 27  1  0  0  0  0
  9 27  2  0  0  0  0
 10 28  1  0  0  0  0
 11 12  2  0  0  0  0
 11 29  1  0  0  0  0
 12 30  1  0  0  0  0
 13 21  1  0  0  0  0
 13 28  2  0  0  0  0
 14 22  1  0  0  0  0
 14 23  2  0  0  0  0
 15 30  2  0  0  0  0
 15 31  1  0  0  0  0
 16 32  1  0  0  0  0
 17 32  1  0  0  0  0
 17 33  2  0  0  0  0
 17 34  1  0  0  0  0
 18 20  2  0  0  0  0
 18 39  1  0  0  0  0
 19 21  2  0  0  0  0
 19 40  1  0  0  0  0
 20 48  1  0  0  0  0
 21 41  1  0  0  0  0
 22 25  2  0  0  0  0
 22 51  1  0  0  0  0
 23 26  1  0  0  0  0
 23 52  1  0  0  0  0
 24 25  1  0  0  0  0
 24 26  2  0  0  0  0
 24 53  1  0  0  0  0
 25 59  1  0  0  0  0
 26 60  1  0  0  0  0
 27 82  1  0  0  0  0
 28 83  1  0  0  0  0
 29 31  2  0  0  0  0
 29 82  1  0  0  0  0
 30 84  1  0  0  0  0
 31 85  1  0  0  0  0
 32 66  2  0  0  0  0
 33 67  1  0  0  0  0
 33 70  1  0  0  0  0
 34 71  1  0  0  0  0
 34 77  2  0  0  0  0
 35 49  1  0  0  0  0
 35 72  1  0  0  0  0
 35 78  2  0  0  0  0
 36 63  1  0  0  0  0
 36 68  1  0  0  0  0
 36 79  2  0  0  0  0
 37 64  1  0  0  0  0
 37 73  1  0  0  0  0
 37 80  2  0  0  0  0
 38 69  1  0  0  0  0
 38 74  1  0  0  0  0
 38 81  2  0  0  0  0
 39 42  1  0  0  0  0
 40 49  1  0  0  0  0
 41 68  1  0  0  0  0
 42 44  1  0  0  0  0
 43 45  1  0  0  0  0
 43 46  1  0  0  0  0
 44 48  1  0  0  0  0
 45 50  1  0  0  0  0
 46 69  1  0  0  0  0
 47 50  1  0  0  0  0
 47 69  1  0  0  0  0
 48 72  1  0  0  0  0
 49 68  1  0  0  0  0
 50 67  1  0  0  0  0
 54 64  1  0  0  0  0
 55 65  1  0  0  0  0
 56 65  1  0  0  0  0
 57 65  1  0  0  0  0
 58 75  1  0  0  0  0
 59 74  1  0  0  0  0
 60 76  1  0  0  0  0
 61 62  1  0  0  0  0
 61 76  1  0  0  0  0
 62 83  1  0  0  0  0
 63 65  1  0  0  0  0
 63 73  1  0  0  0  0
 64 75  1  0  0  0  0
 66 67  1  0  0  0  0
M  CHG  2  75   1  76   1
M  ISO  4  38 100  62 101  74 100  83 101
M  END
> <Batch ID>
0040

> <Smiles>
CNC(C)C(=O)NC(C(=O)N1Cc2cc([101O:1][101CH2:1]CNCc3c(C)cc(C)c(C[100NH:0][100C:0](=O)N4CCCC(n5nc(-c6ccc(Oc7ccc(F)cc7F)cc6)c(C(N)=O)c5N)C4)c3C)ccc2CC1C(=O)NC1CCCc2ccccc21)C(C)(C)C

> <Shape>
0.205

> <Color>
0.069

> <Negative vol penalty>
0.000

$$$$

  -OEChem-04042322063D

 84 92  0     1  0  0  0  0  0999 V2000
  -16.7137  -28.9154   24.0589 C   0  0  0  0  0  0  0  0  0  0  0  0
  -17.3415  -28.1496   23.0817 C   0  0  0  0  0  0  0  0  0  0  0  0
  -26.8720  -11.3664   21.2366 C   0  0  0  0  0  0  0  0  0  0  0  0
  -26.0746  -13.0926   19.7461 C   0  0  0  0  0  0  0  0  0  0  0  0
  -17.2197  -30.1717   24.3902 C   0  0  0  0  0  0  0  0  0  0  0  0
  -18.4750  -28.6401   22.4344 C   0  0  0  0  0  0  0  0  0  0  0  0
  -22.1368  -25.1657   22.0290 C   0  0  0  0  0  0  0  0  0  0  0  0
  -27.1705  -21.5210   18.3103 C   0  0  0  0  0  0  0  0  0  0  0  0
  -25.6549  -10.6966   21.1121 C   0  0  0  0  0  0  0  0  0  0  0  0
  -24.8574  -12.4228   19.6216 C   0  0  0  0  0  0  0  0  0  0  0  0
  -21.9929  -24.2024   21.0315 C   0  0  0  0  0  0  0  0  0  0  0  0
  -24.1405   -8.6796   18.8602 C   0  0  0  0  0  0  0  0  0  0  0  0
  -24.1776   -7.3003   18.6561 C   0  0  0  0  0  0  0  0  0  0  0  0
  -28.5546  -21.6567   18.4171 C   0  0  0  0  0  0  0  0  0  0  0  0
  -23.5181  -25.4366   19.6279 C   0  0  0  0  0  0  0  0  0  0  0  0
  -22.9263   -6.9650   20.6954 C   0  0  0  0  0  0  0  0  0  0  0  0
  -27.0819  -12.5645   20.5536 C   0  0  0  0  0  0  0  0  0  0  0  0
  -29.4847  -13.0948   19.8809 C   0  0  0  0  0  0  0  0  0  0  0  0
  -18.3656  -30.6737   23.7535 C   0  0  0  0  0  0  0  0  0  0  0  0
  -22.9654  -26.2792   21.8289 C   0  0  0  0  0  0  0  0  0  0  0  0
  -18.9960  -29.9048   22.7566 C   0  0  0  0  0  0  0  0  0  0  0  0
  -23.6728  -26.4113   20.6255 C   0  0  0  0  0  0  0  0  0  0  0  0
  -28.4276  -21.1044   20.7657 C   0  0  0  0  0  0  0  0  0  0  0  0
  -26.4149  -21.1771   19.4313 C   0  0  0  0  0  0  0  0  0  0  0  0
  -24.6476  -11.2248   20.3046 C   0  0  0  0  0  0  0  0  0  0  0  0
  -22.6813  -24.3392   19.8296 C   0  0  0  0  0  0  0  0  0  0  0  0
  -23.4964   -9.2017   19.9819 C   0  0  0  0  0  0  0  0  0  0  0  0
  -23.5704   -6.4430   19.5737 C   0  0  0  0  0  0  0  0  0  0  0  0
  -22.8893   -8.3443   20.8995 C   0  0  0  0  0  0  0  0  0  0  0  0
  -29.1832  -21.4484   19.6447 C   0  0  0  0  0  0  0  0  0  0  0  0
  -27.0435  -20.9687   20.6589 C   0  0  0  0  0  0  0  0  0  0  0  0
  -28.3388  -13.2571   20.6823 C   0  0  0  0  0  0  0  0  0  0  0  0
  -30.3995  -13.9735   20.4078 C   0  0  0  0  0  0  0  0  0  0  0  0
  -29.7029  -12.2274   18.7603 C   0  0  0  0  0  0  0  0  0  0  0  0
  -22.5107  -29.4234   21.7233 C   0  0  0  0  0  0  0  0  0  0  0  0
  -25.7483  -29.4927   21.5342 C   0  0  0  0  0  0  0  0  0  0  0  0
  -28.6373  -27.8758   20.7062 C   0  0  0  0  0  0  0  0  0  0  0  0
  -29.8449  -19.0317   23.5635 C   0  0  0  0  0  0  0  0  0  0  0  0
  -18.8479  -32.0571   24.1118 C   0  0  0  0  0  0  0  0  0  0  0  0
  -23.1307  -27.2957   22.9252 C   0  0  0  0  0  0  0  0  0  0  0  0
  -24.5905  -27.5777   20.3690 C   0  0  0  0  0  0  0  0  0  0  0  0
  -20.2721  -32.3458   23.6443 C   0  0  0  0  0  0  0  0  0  0  0  0
  -31.6152  -16.0946   24.5205 C   0  0  0  0  0  0  0  0  0  0  0  0
  -20.4588  -31.9029   22.1966 C   0  0  0  0  0  0  0  0  0  0  0  0
  -31.0797  -15.0197   23.5730 C   0  0  0  0  0  0  0  0  0  0  0  0
  -30.5234  -17.0804   24.9304 C   0  0  0  0  0  0  0  0  0  0  0  0
  -29.2646  -16.6308   22.8599 C   0  0  0  0  0  0  0  0  0  0  0  0
  -20.2422  -30.3919   22.0496 C   0  0  1  0  0  0  0  0  0  0  0  0
  -23.6008  -28.6542   22.4145 C   0  0  1  0  0  0  0  0  0  0  0  0
  -30.3418  -15.6459   22.3744 C   0  0  2  0  0  0  0  0  0  0  0  0
  -31.1242  -28.2024   20.6261 C   0  0  0  0  0  0  0  0  0  0  0  0
  -25.4403  -31.2035   19.0265 C   0  0  0  0  0  0  0  0  0  0  0  0
  -27.8302  -30.7013   18.4749 C   0  0  0  0  0  0  0  0  0  0  0  0
  -27.2679  -31.9337   20.5696 C   0  0  0  0  0  0  0  0  0  0  0  0
  -29.1060  -25.6645   22.6166 C   0  0  0  0  0  0  0  0  0  0  0  0
  -29.1085  -20.8818   22.0823 C   0  0  0  0  0  0  0  0  0  0  0  0
  -22.8391  -21.1006   18.2374 C   0  0  0  0  0  0  0  0  0  0  0  0
  -24.3427  -21.2549   18.0436 C   0  0  0  0  0  0  0  0  0  0  0  0
  -22.2707  -22.0639   19.2728 C   0  0  0  0  0  0  0  0  0  1  0  0
  -26.7543  -29.4634   20.4091 C   0  0  1  0  0  0  0  0  0  0  0  0
  -29.9479  -27.7085   21.4538 C   0  0  2  0  0  0  0  0  0  0  0  0
  -26.8045  -30.8044   19.6238 C   0  0  0  0  0  0  0  0  0  0  0  0
  -28.5076  -14.1672   21.6452 N   0  0  0  0  0  0  0  0  0  0  0  0
  -29.7704  -14.5847   21.4523 N   0  0  0  0  0  0  0  0  0  0  0  0
  -24.7140  -28.5483   21.4691 N   0  0  0  0  0  0  0  0  0  0  0  0
  -29.8640  -17.6393   23.7477 N   0  0  0  0  0  0  0  0  0  0  0  0
  -31.6725  -14.2753   20.0750 N   0  0  0  0  0  0  0  0  0  0  0  0
  -28.6569  -11.3893   18.3506 N   0  0  0  0  0  0  0  0  0  0  0  0
  -25.0418  -21.0507   19.2893 N   0  0  0  0  0  0  0  0  0  0  0  0
  -21.4049  -29.6670   22.5153 N   0  0  0  0  0  0  0  0  0  0  0  0
  -28.0261  -29.0742   21.0087 N   0  0  0  0  0  0  0  0  0  0  0  0
  -29.2050  -19.4776   22.4135 N   0  0  0  0  0  0  0  0  0  0  0  0
  -30.1758  -26.2735   21.7850 N   0  3  0  0  0  0  0  0  0  0  0  0
  -30.7985  -12.1846   18.1510 O   0  0  0  0  0  0  0  0  0  0  0  0
  -22.6623  -29.7715   20.5582 O   0  0  0  0  0  0  0  0  0  0  0  0
  -25.8794  -30.3183   22.4413 O   0  0  0  0  0  0  0  0  0  0  0  0
  -28.2014  -27.0297   19.9286 O   0  0  0  0  0  0  0  0  0  0  0  0
  -30.3646  -19.8189   24.3618 O   0  0  0  0  0  0  0  0  0  0  0  0
  -23.4598  -10.5713   20.1827 O   0  0  0  0  0  0  0  0  0  0  0  0
  -22.5421  -23.4008   18.8540 O   0  0  0  0  0  0  0  0  0  1  0  0
  -23.6047   -5.1185   19.3767 F   0  0  0  0  0  0  0  0  0  0  0  0
  -22.2680   -8.8400   21.9785 F   0  0  0  0  0  0  0  0  0  0  0  0
  -30.8986  -21.6271   19.7304 Cl  0  0  0  0  0  0  0  0  0  0  0  0
  -26.1030  -20.5408   22.0523 Cl  0  0  0  0  0  0  0  0  0  0  0  0
  1  2  1  0  0  0  0
  1  5  2  0  0  0  0
  2  6  2  0  0  0  0
  3  9  2  0  0  0  0
  3 17  1  0  0  0  0
  4 10  1  0  0  0  0
  4 17  2  0  0  0  0
  5 19  1  0  0  0  0
  6 21  1  0  0  0  0
  7 11  2  0  0  0  0
  7 20  1  0  0  0  0
  8 14  2  0  0  0  0
  8 24  1  0  0  0  0
  9 25  1  0  0  0  0
 10 25  2  0  0  0  0
 11 26  1  0  0  0  0
 12 13  2  0  0  0  0
 12 27  1  0  0  0  0
 13 28  1  0  0  0  0
 14 30  1  0  0  0  0
 15 22  1  0  0  0  0
 15 26  2  0  0  0  0
 16 28  2  0  0  0  0
 16 29  1  0  0  0  0
 17 32  1  0  0  0  0
 18 32  1  0  0  0  0
 18 33  2  0  0  0  0
 18 34  1  0  0  0  0
 19 21  2  0  0  0  0
 19 39  1  0  0  0  0
 20 22  2  0  0  0  0
 20 40  1  0  0  0  0
 21 48  1  0  0  0  0
 22 41  1  0  0  0  0
 23 30  2  0  0  0  0
 23 31  1  0  0  0  0
 23 56  1  0  0  0  0
 24 31  2  0  0  0  0
 24 69  1  0  0  0  0
 25 79  1  0  0  0  0
 26 80  1  0  0  0  0
 27 29  2  0  0  0  0
 27 79  1  0  0  0  0
 28 81  1  0  0  0  0
 29 82  1  0  0  0  0
 30 83  1  0  0  0  0
 31 84  1  0  0  0  0
 32 63  2  0  0  0  0
 33 64  1  0  0  0  0
 33 67  1  0  0  0  0
 34 68  1  0  0  0  0
 34 74  2  0  0  0  0
 35 49  1  0  0  0  0
 35 70  1  0  0  0  0
 35 75  2  0  0  0  0
 36 60  1  0  0  0  0
 36 65  1  0  0  0  0
 36 76  2  0  0  0  0
 37 61  1  0  0  0  0
 37 71  1  0  0  0  0
 37 77  2  0  0  0  0
 38 66  1  0  0  0  0
 38 72  1  0  0  0  0
 38 78  2  0  0  0  0
 39 42  1  0  0  0  0
 40 49  1  0  0  0  0
 41 65  1  0  0  0  0
 42 44  1  0  0  0  0
 43 45  1  0  0  0  0
 43 46  1  0  0  0  0
 44 48  1  0  0  0  0
 45 50  1  0  0  0  0
 46 66  1  0  0  0  0
 47 50  1  0  0  0  0
 47 66  1  0  0  0  0
 48 70  1  0  0  0  0
 49 65  1  0  0  0  0
 50 64  1  0  0  0  0
 51 61  1  0  0  0  0
 52 62  1  0  0  0  0
 53 62  1  0  0  0  0
 54 62  1  0  0  0  0
 55 73  1  0  0  0  0
 56 72  1  0  0  0  0
 57 58  1  0  0  0  0
 57 59  1  0  0  0  0
 58 69  1  0  0  0  0
 59 80  1  0  0  0  0
 60 62  1  0  0  0  0
 60 71  1  0  0  0  0
 61 73  1  0  0  0  0
 63 64  1  0  0  0  0
M  CHG  1  73   1
M  ISO  4  38 100  59 101  72 100  80 101
M  END
> <Batch ID>
0040

> <Smiles>
CNC(C)C(=O)NC(C(=O)N1Cc2cc([101O:1][101CH2:1]CCNc3ccc(Cl)c(C[100NH:0][100C:0](=O)N4CCCC(n5nc(-c6ccc(Oc7ccc(F)cc7F)cc6)c(C(N)=O)c5N)C4)c3Cl)ccc2CC1C(=O)NC1CCCc2ccccc21)C(C)(C)C

> <Shape>
0.275

> <Color>
0.080

> <Negative vol penalty>
0.000

$$$$

  -OEChem-04042322063D

 89 98  0     1  0  0  0  0  0999 V2000
  -23.9541  -24.5469   16.8053 C   0  0  0  0  0  0  0  0  0  0  0  0
  -25.1118  -23.7820   16.9070 C   0  0  0  0  0  0  0  0  0  0  0  0
  -22.6290  -10.2986   20.2332 C   0  0  0  0  0  0  0  0  0  0  0  0
  -24.2523   -9.5412   21.8544 C   0  0  0  0  0  0  0  0  0  0  0  0
  -23.8061  -25.6924   17.5861 C   0  0  0  0  0  0  0  0  0  0  0  0
  -26.1226  -24.1630   17.7887 C   0  0  0  0  0  0  0  0  0  0  0  0
  -29.8040  -20.4608   20.9898 C   0  0  0  0  0  0  0  0  0  0  0  0
  -21.8713   -9.1485   20.4546 C   0  0  0  0  0  0  0  0  0  0  0  0
  -23.4946   -8.3912   22.0758 C   0  0  0  0  0  0  0  0  0  0  0  0
  -31.1080  -20.0180   20.7726 C   0  0  0  0  0  0  0  0  0  0  0  0
  -19.3264   -6.5841   20.8567 C   0  0  0  0  0  0  0  0  0  0  0  0
  -17.9476   -6.7343   21.0046 C   0  0  0  0  0  0  0  0  0  0  0  0
  -31.9367  -21.7770   22.2004 C   0  0  0  0  0  0  0  0  0  0  0  0
  -32.1781  -16.4426   22.5670 C   0  0  0  0  0  0  0  0  0  0  0  0
  -18.3085   -8.1610   22.9207 C   0  0  0  0  0  0  0  0  0  0  0  0
  -23.8195  -10.4949   20.9331 C   0  0  0  0  0  0  0  0  0  0  0  0
  -24.1990  -13.0173   20.8966 C   0  0  0  0  0  0  0  0  0  0  0  0
  -24.8115  -26.0823   18.4850 C   0  0  0  0  0  0  0  0  0  0  0  0
  -29.5569  -21.5735   21.8067 C   0  0  0  0  0  0  0  0  0  0  0  0
  -25.9885  -25.3156   18.5813 C   0  0  0  0  0  0  0  0  0  0  0  0
  -30.6284  -22.2303   22.4285 C   0  0  0  0  0  0  0  0  0  0  0  0
  -32.8295  -17.2696   23.4821 C   0  0  0  0  0  0  0  0  0  0  0  0
  -32.0905  -18.1330   24.2908 C   0  0  0  0  0  0  0  0  0  0  0  0
  -30.7002  -18.1695   24.1844 C   0  0  0  0  0  0  0  0  0  0  0  0
  -30.7877  -16.4790   22.4606 C   0  0  0  0  0  0  0  0  0  0  0  0
  -22.3041   -8.1949   21.3759 C   0  0  0  0  0  0  0  0  0  0  0  0
  -32.1748  -20.6779   21.3756 C   0  0  0  0  0  0  0  0  0  0  0  0
  -20.1963   -7.2222   21.7409 C   0  0  0  0  0  0  0  0  0  0  0  0
  -17.4386   -7.5228   22.0365 C   0  0  0  0  0  0  0  0  0  0  0  0
  -19.6874   -8.0107   22.7729 C   0  0  0  0  0  0  0  0  0  0  0  0
  -30.0488  -17.3425   23.2693 C   0  0  0  0  0  0  0  0  0  0  0  0
  -24.6029  -11.6824   20.7045 C   0  0  0  0  0  0  0  0  0  0  0  0
  -25.2967  -13.7625   20.5414 C   0  0  0  0  0  0  0  0  0  0  0  0
  -22.9440  -13.5370   21.3553 C   0  0  0  0  0  0  0  0  0  0  0  0
  -28.2646  -24.4427   21.3580 C   0  0  0  0  0  0  0  0  0  0  0  0
  -28.6149  -24.6733   24.5746 C   0  0  0  0  0  0  0  0  0  0  0  0
  -30.2456  -23.6491   27.3922 C   0  0  0  0  0  0  0  0  0  0  0  0
  -30.7808  -14.7182   20.6590 C   0  0  0  0  0  0  0  0  0  0  0  0
  -24.6267  -27.3545   19.2736 C   0  0  0  0  0  0  0  0  0  0  0  0
  -28.1424  -22.0222   22.0524 C   0  0  0  0  0  0  0  0  0  0  0  0
  -30.4150  -23.4174   23.3306 C   0  0  0  0  0  0  0  0  0  0  0  0
  -25.5834  -27.4824   20.4563 C   0  0  0  0  0  0  0  0  0  0  0  0
  -37.7710  -17.4079   21.9202 C   0  0  0  0  0  0  0  0  0  0  0  0
  -36.7645  -16.4824   21.2496 C   0  0  0  0  0  0  0  0  0  0  0  0
  -29.5893  -12.4075   18.2263 C   0  0  0  0  0  0  0  0  0  0  0  0
  -37.4191  -17.7222   23.3723 C   0  0  0  0  0  0  0  0  0  0  0  0
  -27.0064  -27.1336   20.0320 C   0  0  0  0  0  0  0  0  0  0  0  0
  -28.1525  -12.1227   18.6700 C   0  0  0  0  0  0  0  0  0  0  0  0
  -35.4613  -17.1237   20.7732 C   0  0  0  0  0  0  0  0  0  0  0  0
  -30.5277  -12.5794   19.4194 C   0  0  0  0  0  0  0  0  0  0  0  0
  -28.6557  -13.2831   20.8580 C   0  0  0  0  0  0  0  0  0  0  0  0
  -36.3238  -18.7579   23.5701 C   0  0  0  0  0  0  0  0  0  0  0  0
  -27.0967  -25.6825   19.5443 C   0  0  1  0  0  0  0  0  0  0  0  0
  -28.0457  -23.4802   22.4909 C   0  0  1  0  0  0  0  0  0  0  0  0
  -27.6608  -13.1667   19.6917 C   0  0  2  0  0  0  0  0  0  0  0  0
  -35.0167  -18.4367   21.4206 C   0  0  1  0  0  0  0  0  0  0  0  0
  -32.7938  -19.0203   25.2693 C   0  0  0  0  0  0  0  0  0  0  0  0
  -29.9253  -19.1049   25.0606 C   0  0  0  0  0  0  0  0  0  0  0  0
  -30.7658  -23.4499   29.8391 C   0  0  0  0  0  0  0  0  0  0  0  0
  -30.1121  -27.2889   24.0984 C   0  0  0  0  0  0  0  0  0  0  0  0
  -30.9803  -27.1377   26.4418 C   0  0  0  0  0  0  0  0  0  0  0  0
  -28.5272  -27.3313   26.0325 C   0  0  0  0  0  0  0  0  0  0  0  0
  -28.3680  -21.3858   27.7258 C   0  0  0  0  0  0  0  0  0  0  0  0
  -34.3257  -17.2115   23.5760 C   0  0  0  0  0  0  0  0  0  0  0  0
  -33.6317  -18.8547   20.9180 C   0  0  0  0  0  0  0  0  0  1  0  0
  -29.7050  -25.1587   25.4993 C   0  0  1  0  0  0  0  0  0  0  0  0
  -29.7302  -23.2110   28.7513 C   0  0  2  0  0  0  0  0  0  0  0  0
  -29.8357  -26.7080   25.4995 C   0  0  0  0  0  0  0  0  0  0  0  0
  -25.8589  -11.5824   20.2614 N   0  0  0  0  0  0  0  0  0  0  0  0
  -26.2538  -12.8638   20.1721 N   0  0  0  0  0  0  0  0  0  0  0  0
  -29.0142  -23.8219   23.5347 N   0  0  0  0  0  0  0  0  0  0  0  0
  -29.9998  -13.5867   20.3422 N   0  0  0  0  0  0  0  0  0  0  0  0
  -25.5268  -15.0924   20.5119 N   0  0  0  0  0  0  0  0  0  0  0  0
  -22.7655  -13.7349   22.7313 N   0  0  0  0  0  0  0  0  0  0  0  0
  -30.1618  -15.6232   21.5206 N   0  0  0  0  0  0  0  0  0  0  0  0
  -27.1130  -24.7715   20.6687 N   0  0  0  0  0  0  0  0  0  0  0  0
  -29.4162  -24.5832   26.8084 N   0  0  0  0  0  0  0  0  0  0  0  0
  -35.0033  -18.3949   22.9377 N   0  3  1  0  0  0  0  0  0  0  0  0
  -29.3930  -21.7595   28.7341 N   0  3  0  0  0  0  0  0  0  0  0  0
  -22.0027  -13.8022   20.5698 O   0  0  0  0  0  0  0  0  0  0  0  0
  -29.3944  -24.8576   21.1274 O   0  0  0  0  0  0  0  0  0  0  0  0
  -27.4508  -25.0305   24.7722 O   0  0  0  0  0  0  0  0  0  0  0  0
  -31.2822  -23.2095   26.8995 O   0  0  0  0  0  0  0  0  0  0  0  0
  -31.9045  -14.8864   20.1783 O   0  0  0  0  0  0  0  0  0  0  0  0
  -21.5650   -7.0727   21.5923 O   0  0  0  0  0  0  0  0  0  0  0  0
  -33.4487  -20.2482   21.1647 O   0  0  0  0  0  0  0  0  0  1  0  0
  -16.1146   -7.6682   22.1774 F   0  0  0  0  0  0  0  0  0  0  0  0
  -20.5181   -8.6271   23.6247 F   0  0  0  0  0  0  0  0  0  0  0  0
  -28.3198  -17.3881   23.1393 Cl  0  0  0  0  0  0  0  0  0  0  0  0
  1  2  1  0  0  0  0
  1  5  2  0  0  0  0
  2  6  2  0  0  0  0
  3  8  2  0  0  0  0
  3 16  1  0  0  0  0
  4  9  1  0  0  0  0
  4 16  2  0  0  0  0
  5 18  1  0  0  0  0
  6 20  1  0  0  0  0
  7 10  2  0  0  0  0
  7 19  1  0  0  0  0
  8 26  1  0  0  0  0
  9 26  2  0  0  0  0
 10 27  1  0  0  0  0
 11 12  2  0  0  0  0
 11 28  1  0  0  0  0
 12 29  1  0  0  0  0
 13 21  1  0  0  0  0
 13 27  2  0  0  0  0
 14 22  1  0  0  0  0
 14 25  2  0  0  0  0
 15 29  2  0  0  0  0
 15 30  1  0  0  0  0
 16 32  1  0  0  0  0
 17 32  1  0  0  0  0
 17 33  2  0  0  0  0
 17 34  1  0  0  0  0
 18 20  2  0  0  0  0
 18 39  1  0  0  0  0
 19 21  2  0  0  0  0
 19 40  1  0  0  0  0
 20 53  1  0  0  0  0
 21 41  1  0  0  0  0
 22 23  2  0  0  0  0
 22 64  1  0  0  0  0
 23 24  1  0  0  0  0
 23 57  1  0  0  0  0
 24 31  2  0  0  0  0
 24 58  1  0  0  0  0
 25 31  1  0  0  0  0
 25 75  1  0  0  0  0
 26 85  1  0  0  0  0
 27 86  1  0  0  0  0
 28 30  2  0  0  0  0
 28 85  1  0  0  0  0
 29 87  1  0  0  0  0
 30 88  1  0  0  0  0
 31 89  1  0  0  0  0
 32 69  2  0  0  0  0
 33 70  1  0  0  0  0
 33 73  1  0  0  0  0
 34 74  1  0  0  0  0
 34 80  2  0  0  0  0
 35 54  1  0  0  0  0
 35 76  1  0  0  0  0
 35 81  2  0  0  0  0
 36 66  1  0  0  0  0
 36 71  1  0  0  0  0
 36 82  2  0  0  0  0
 37 67  1  0  0  0  0
 37 77  1  0  0  0  0
 37 83  2  0  0  0  0
 38 72  1  0  0  0  0
 38 75  1  0  0  0  0
 38 84  2  0  0  0  0
 39 42  1  0  0  0  0
 40 54  1  0  0  0  0
 41 71  1  0  0  0  0
 42 47  1  0  0  0  0
 43 44  1  0  0  0  0
 43 46  1  0  0  0  0
 44 49  1  0  0  0  0
 45 48  1  0  0  0  0
 45 50  1  0  0  0  0
 46 52  1  0  0  0  0
 47 53  1  0  0  0  0
 48 55  1  0  0  0  0
 49 56  1  0  0  0  0
 50 72  1  0  0  0  0
 51 55  1  0  0  0  0
 51 72  1  0  0  0  0
 52 78  1  0  0  0  0
 53 76  1  0  0  0  0
 54 71  1  0  0  0  0
 55 70  1  0  0  0  0
 56 65  1  0  0  0  0
 56 78  1  0  0  0  0
 59 67  1  0  0  0  0
 60 68  1  0  0  0  0
 61 68  1  0  0  0  0
 62 68  1  0  0  0  0
 63 79  1  0  0  0  0
 64 78  1  0  0  0  0
 65 86  1  0  0  0  0
 66 68  1  0  0  0  0
 66 77  1  0  0  0  0
 67 79  1  0  0  0  0
 69 70  1  0  0  0  0
M  CHG  2  78   1  79   1
M  ISO  4  38 100  65 101  75 100  86 101
M  END
> <Batch ID>
0040

> <Smiles>
CNC(C)C(=O)NC(C(=O)N1Cc2cc([101O:1][101CH2:1]C3CCCCCN3Cc3cc([100NH:0][100C:0](=O)N4CCCC(n5nc(-c6ccc(Oc7ccc(F)cc7F)cc6)c(C(N)=O)c5N)C4)c(Cl)c(C)c3C)ccc2CC1C(=O)NC1CCCc2ccccc21)C(C)(C)C

> <Shape>
0.194

> <Color>
0.170

> <Negative vol penalty>
0.000

$$$$

  -OEChem-04042322063D

 87 95  0     1  0  0  0  0  0999 V2000
  -19.5266   -9.1893   20.3007 C   0  0  0  0  0  0  0  0  0  0  0  0
  -19.6570  -10.4623   20.8466 C   0  0  0  0  0  0  0  0  0  0  0  0
  -28.9647  -28.0363   19.7696 C   0  0  0  0  0  0  0  0  0  0  0  0
  -27.8329  -25.9021   19.7396 C   0  0  0  0  0  0  0  0  0  0  0  0
  -20.6354   -8.3473   20.2260 C   0  0  0  0  0  0  0  0  0  0  0  0
  -20.8960  -10.8936   21.3191 C   0  0  0  0  0  0  0  0  0  0  0  0
  -23.1422  -16.5866   21.0969 C   0  0  0  0  0  0  0  0  0  0  0  0
  -30.1871  -27.3907   19.5841 C   0  0  0  0  0  0  0  0  0  0  0  0
  -29.0553  -25.2564   19.5541 C   0  0  0  0  0  0  0  0  0  0  0  0
  -23.1988  -17.6102   22.0418 C   0  0  0  0  0  0  0  0  0  0  0  0
  -31.8371  -23.0724   18.7115 C   0  0  0  0  0  0  0  0  0  0  0  0
  -31.8993  -22.0638   17.7500 C   0  0  0  0  0  0  0  0  0  0  0  0
  -25.4429  -16.9423   22.6222 C   0  0  0  0  0  0  0  0  0  0  0  0
  -20.9701  -23.2519   25.2328 C   0  0  0  0  0  0  0  0  0  0  0  0
  -21.3435  -25.6355   26.6335 C   0  0  0  0  0  0  0  0  0  0  0  0
  -31.2587  -23.6504   16.0443 C   0  0  0  0  0  0  0  0  0  0  0  0
  -27.7876  -27.2920   19.8474 C   0  0  0  0  0  0  0  0  0  0  0  0
  -25.6537  -28.4340   19.0411 C   0  0  0  0  0  0  0  0  0  0  0  0
  -21.8907   -8.7720   20.6889 C   0  0  0  0  0  0  0  0  0  0  0  0
  -24.2334  -15.7249   20.9149 C   0  0  0  0  0  0  0  0  0  0  0  0
  -22.0223  -10.0559   21.2516 C   0  0  0  0  0  0  0  0  0  0  0  0
  -25.3987  -15.9101   21.6725 C   0  0  0  0  0  0  0  0  0  0  0  0
  -21.4445  -24.3836   24.5696 C   0  0  0  0  0  0  0  0  0  0  0  0
  -20.6823  -23.3120   26.5964 C   0  0  0  0  0  0  0  0  0  0  0  0
  -21.6312  -25.5754   25.2699 C   0  0  0  0  0  0  0  0  0  0  0  0
  -30.2324  -26.0007   19.4763 C   0  0  0  0  0  0  0  0  0  0  0  0
  -24.3482  -17.7864   22.8067 C   0  0  0  0  0  0  0  0  0  0  0  0
  -31.4856  -24.3700   18.3394 C   0  0  0  0  0  0  0  0  0  0  0  0
  -31.6101  -22.3528   16.4164 C   0  0  0  0  0  0  0  0  0  0  0  0
  -31.1964  -24.6590   17.0058 C   0  0  0  0  0  0  0  0  0  0  0  0
  -20.8690  -24.5038   27.2967 C   0  0  0  0  0  0  0  0  0  0  0  0
  -26.5246  -27.9583   20.0396 C   0  0  0  0  0  0  0  0  0  0  0  0
  -24.6020  -28.9810   19.7347 C   0  0  0  0  0  0  0  0  0  0  0  0
  -25.7838  -28.3855   17.6140 C   0  0  0  0  0  0  0  0  0  0  0  0
  -24.7030  -12.5989   21.2483 C   0  0  0  0  0  0  0  0  0  0  0  0
  -27.5987  -13.2913   19.9608 C   0  0  0  0  0  0  0  0  0  0  0  0
  -22.1557  -20.6125   27.6491 C   0  0  0  0  0  0  0  0  0  0  0  0
  -23.4318  -19.6857   25.7368 C   0  0  0  0  0  0  0  0  0  0  0  0
  -30.0316  -15.6136   19.3821 C   0  0  0  0  0  0  0  0  0  0  0  0
  -22.3453  -27.9895   25.1780 C   0  0  0  0  0  0  0  0  0  0  0  0
  -23.0499   -7.8090   20.6303 C   0  0  0  0  0  0  0  0  0  0  0  0
  -24.1665  -14.6424   19.8727 C   0  0  0  0  0  0  0  0  0  0  0  0
  -26.6050  -15.0248   21.5013 C   0  0  0  0  0  0  0  0  0  0  0  0
  -24.4091   -8.4802   20.8103 C   0  0  0  0  0  0  0  0  0  0  0  0
  -23.5590  -31.0863   23.9077 C   0  0  0  0  0  0  0  0  0  0  0  0
  -24.3746   -9.4483   21.9886 C   0  0  0  0  0  0  0  0  0  0  0  0
  -24.3729  -30.6795   22.6773 C   0  0  0  0  0  0  0  0  0  0  0  0
  -23.6966  -30.0703   25.0402 C   0  0  0  0  0  0  0  0  0  0  0  0
  -24.2165  -28.2740   23.4363 C   0  0  0  0  0  0  0  0  0  0  0  0
  -23.3551  -10.5691   21.7521 C   0  0  1  0  0  0  0  0  0  0  0  0
  -25.1460  -13.5019   20.1321 C   0  0  1  0  0  0  0  0  0  0  0  0
  -24.0577  -29.2338   22.2458 C   0  0  2  0  0  0  0  0  0  0  0  0
  -21.7424  -24.2910   23.1081 C   0  0  0  0  0  0  0  0  0  0  0  0
  -23.1808  -20.1245   28.6037 C   0  0  0  0  0  0  0  0  0  0  0  0
  -32.2987  -15.8732   18.3380 C   0  0  0  0  0  0  0  0  0  0  0  0
  -28.8607  -11.8864   22.3574 C   0  0  0  0  0  0  0  0  0  0  0  0
  -31.0326  -12.9839   21.7688 C   0  0  0  0  0  0  0  0  0  0  0  0
  -29.9619  -11.4014   20.1650 C   0  0  0  0  0  0  0  0  0  0  0  0
  -29.0365  -17.6139   17.4410 C   0  0  0  0  0  0  0  0  0  0  0  0
  -20.1735  -22.0743   27.2723 C   0  0  0  0  0  0  0  0  0  0  0  0
  -23.1777  -19.1721   24.3447 C   0  0  0  0  0  0  0  0  0  1  0  0
  -28.9461  -13.6904   20.5123 C   0  0  1  0  0  0  0  0  0  0  0  0
  -30.7969  -15.9783   18.1228 C   0  0  2  0  0  0  0  0  0  0  0  0
  -29.6770  -12.5061   21.2057 C   0  0  0  0  0  0  0  0  0  0  0  0
  -26.0660  -28.1836   21.2737 N   0  0  0  0  0  0  0  0  0  0  0  0
  -24.8956  -28.8069   21.0552 N   0  0  0  0  0  0  0  0  0  0  0  0
  -26.4884  -13.9765   20.4741 N   0  0  0  0  0  0  0  0  0  0  0  0
  -23.3784  -28.7243   24.5587 N   0  0  0  0  0  0  0  0  0  0  0  0
  -23.4641  -29.5893   19.3379 N   0  0  0  0  0  0  0  0  0  0  0  0
  -26.9274  -27.7876   17.0672 N   0  0  0  0  0  0  0  0  0  0  0  0
  -22.1113  -26.7358   24.6138 N   0  0  0  0  0  0  0  0  0  0  0  0
  -23.8921  -11.5568   20.8409 N   0  0  0  0  0  0  0  0  0  0  0  0
  -22.2292  -20.1151   26.4100 N   0  0  0  0  0  0  0  0  0  0  0  0
  -29.6842  -14.2794   19.4002 N   0  0  0  0  0  0  0  0  0  0  0  0
  -21.2498  -21.4937   28.0812 N   0  3  0  0  0  0  0  0  0  0  0  0
  -30.4780  -17.3740   17.7088 N   0  3  0  0  0  0  0  0  0  0  0  0
  -24.9195  -28.8732   16.8467 O   0  0  0  0  0  0  0  0  0  0  0  0
  -25.0709  -12.8296   22.3943 O   0  0  0  0  0  0  0  0  0  0  0  0
  -27.5344  -12.4092   19.1009 O   0  0  0  0  0  0  0  0  0  0  0  0
  -24.5277  -19.7475   26.2753 O   0  0  0  0  0  0  0  0  0  0  0  0
  -29.7714  -16.4298   20.2634 O   0  0  0  0  0  0  0  0  0  0  0  0
  -21.6963  -28.4502   26.1206 O   0  0  0  0  0  0  0  0  0  0  0  0
  -31.4251  -25.3704   19.2950 O   0  0  0  0  0  0  0  0  0  0  0  0
  -24.4058  -18.7842   23.7301 O   0  0  0  0  0  0  0  0  0  1  0  0
  -31.6714  -21.3844   15.4930 F   0  0  0  0  0  0  0  0  0  0  0  0
  -30.8593  -25.9039   16.6421 F   0  0  0  0  0  0  0  0  0  0  0  0
  -20.5235  -24.6158   28.9843 Cl  0  0  0  0  0  0  0  0  0  0  0  0
  1  2  1  0  0  0  0
  1  5  2  0  0  0  0
  2  6  2  0  0  0  0
  3  8  2  0  0  0  0
  3 17  1  0  0  0  0
  4  9  1  0  0  0  0
  4 17  2  0  0  0  0
  5 19  1  0  0  0  0
  6 21  1  0  0  0  0
  7 10  2  0  0  0  0
  7 20  1  0  0  0  0
  8 26  1  0  0  0  0
  9 26  2  0  0  0  0
 10 27  1  0  0  0  0
 11 12  2  0  0  0  0
 11 28  1  0  0  0  0
 12 29  1  0  0  0  0
 13 22  1  0  0  0  0
 13 27  2  0  0  0  0
 14 23  2  0  0  0  0
 14 24  1  0  0  0  0
 15 25  2  0  0  0  0
 15 31  1  0  0  0  0
 16 29  2  0  0  0  0
 16 30  1  0  0  0  0
 17 32  1  0  0  0  0
 18 32  1  0  0  0  0
 18 33  2  0  0  0  0
 18 34  1  0  0  0  0
 19 21  2  0  0  0  0
 19 41  1  0  0  0  0
 20 22  2  0  0  0  0
 20 42  1  0  0  0  0
 21 50  1  0  0  0  0
 22 43  1  0  0  0  0
 23 25  1  0  0  0  0
 23 53  1  0  0  0  0
 24 31  2  0  0  0  0
 24 60  1  0  0  0  0
 25 71  1  0  0  0  0
 26 83  1  0  0  0  0
 27 84  1  0  0  0  0
 28 30  2  0  0  0  0
 28 83  1  0  0  0  0
 29 85  1  0  0  0  0
 30 86  1  0  0  0  0
 31 87  1  0  0  0  0
 32 65  2  0  0  0  0
 33 66  1  0  0  0  0
 33 69  1  0  0  0  0
 34 70  1  0  0  0  0
 34 77  2  0  0  0  0
 35 51  1  0  0  0  0
 35 72  1  0  0  0  0
 35 78  2  0  0  0  0
 36 62  1  0  0  0  0
 36 67  1  0  0  0  0
 36 79  2  0  0  0  0
 37 54  1  0  0  0  0
 37 73  1  0  0  0  0
 37 75  2  0  0  0  0
 38 61  1  0  0  0  0
 38 73  1  0  0  0  0
 38 80  2  0  0  0  0
 39 63  1  0  0  0  0
 39 74  1  0  0  0  0
 39 81  2  0  0  0  0
 40 68  1  0  0  0  0
 40 71  1  0  0  0  0
 40 82  2  0  0  0  0
 41 44  1  0  0  0  0
 42 51  1  0  0  0  0
 43 67  1  0  0  0  0
 44 46  1  0  0  0  0
 45 47  1  0  0  0  0
 45 48  1  0  0  0  0
 46 50  1  0  0  0  0
 47 52  1  0  0  0  0
 48 68  1  0  0  0  0
 49 52  1  0  0  0  0
 49 68  1  0  0  0  0
 50 72  1  0  0  0  0
 51 67  1  0  0  0  0
 52 66  1  0  0  0  0
 55 63  1  0  0  0  0
 56 64  1  0  0  0  0
 57 64  1  0  0  0  0
 58 64  1  0  0  0  0
 59 76  1  0  0  0  0
 60 75  1  0  0  0  0
 61 84  1  0  0  0  0
 62 64  1  0  0  0  0
 62 74  1  0  0  0  0
 63 76  1  0  0  0  0
 65 66  1  0  0  0  0
M  CHG  2  75   1  76   1
M  ISO  4  40 100  61 101  71 100  84 101
M  END
> <Batch ID>
0040

> <Smiles>
CNC(C)C(=O)NC(C(=O)N1Cc2cc([101O:1][101CH2:1]C(=O)N=C(C)NCc3cc(C)c([100NH:0][100C:0](=O)N4CCCC(n5nc(-c6ccc(Oc7ccc(F)cc7F)cc6)c(C(N)=O)c5N)C4)cc3Cl)ccc2CC1C(=O)NC1CCCc2ccccc21)C(C)(C)C

> <Shape>
0.222

> <Color>
0.047

> <Negative vol penalty>
0.000

$$$$

  -OEChem-04042322063D

 93102  0     1  0  0  0  0  0999 V2000
  -22.8517  -32.5926   14.4660 C   0  0  0  0  0  0  0  0  0  0  0  0
  -23.8547  -31.8117   15.0314 C   0  0  0  0  0  0  0  0  0  0  0  0
  -22.3826  -13.3526   22.4430 C   0  0  0  0  0  0  0  0  0  0  0  0
  -24.0108  -11.8209   23.3594 C   0  0  0  0  0  0  0  0  0  0  0  0
  -22.3334  -33.6776   15.1716 C   0  0  0  0  0  0  0  0  0  0  0  0
  -24.3407  -32.1161   16.3025 C   0  0  0  0  0  0  0  0  0  0  0  0
  -24.8361  -28.0118   19.2272 C   0  0  0  0  0  0  0  0  0  0  0  0
  -21.5571  -13.1353   23.5461 C   0  0  0  0  0  0  0  0  0  0  0  0
  -23.1854  -11.6036   24.4626 C   0  0  0  0  0  0  0  0  0  0  0  0
  -25.9484  -27.2014   19.0040 C   0  0  0  0  0  0  0  0  0  0  0  0
  -19.3931  -10.7664   24.6089 C   0  0  0  0  0  0  0  0  0  0  0  0
  -18.0350  -10.5566   24.3699 C   0  0  0  0  0  0  0  0  0  0  0  0
  -29.8323  -21.1225   18.9476 C   0  0  0  0  0  0  0  0  0  0  0  0
  -27.0619  -28.2217   20.8850 C   0  0  0  0  0  0  0  0  0  0  0  0
  -29.5234  -20.0153   21.4895 C   0  0  0  0  0  0  0  0  0  0  0  0
  -17.5000  -12.4966   25.7068 C   0  0  0  0  0  0  0  0  0  0  0  0
  -23.6094  -12.6954   22.3495 C   0  0  0  0  0  0  0  0  0  0  0  0
  -29.3084  -19.8376   19.0897 C   0  0  0  0  0  0  0  0  0  0  0  0
  -24.1575  -12.6705   19.8582 C   0  0  0  0  0  0  0  0  0  0  0  0
  -22.8065  -33.9897   16.4559 C   0  0  0  0  0  0  0  0  0  0  0  0
  -24.8326  -28.9425   20.2762 C   0  0  0  0  0  0  0  0  0  0  0  0
  -23.8291  -33.2072   17.0254 C   0  0  0  0  0  0  0  0  0  0  0  0
  -25.9474  -29.0410   21.1211 C   0  0  0  0  0  0  0  0  0  0  0  0
  -30.2018  -21.8538   20.0765 C   0  0  0  0  0  0  0  0  0  0  0  0
  -29.1539  -19.2840   20.3606 C   0  0  0  0  0  0  0  0  0  0  0  0
  -30.0473  -21.3002   21.3475 C   0  0  0  0  0  0  0  0  0  0  0  0
  -21.9585  -12.2608   24.5560 C   0  0  0  0  0  0  0  0  0  0  0  0
  -27.0626  -27.3082   19.8311 C   0  0  0  0  0  0  0  0  0  0  0  0
  -19.8047  -11.8412   25.3970 C   0  0  0  0  0  0  0  0  0  0  0  0
  -17.0885  -11.4217   24.9188 C   0  0  0  0  0  0  0  0  0  0  0  0
  -18.8582  -12.7064   25.9459 C   0  0  0  0  0  0  0  0  0  0  0  0
  -24.4623  -12.9191   21.2099 C   0  0  0  0  0  0  0  0  0  0  0  0
  -25.2888  -13.0469   19.1763 C   0  0  0  0  0  0  0  0  0  0  0  0
  -28.0430  -19.5332   17.0109 C   0  0  0  0  0  0  0  0  0  0  0  0
  -28.9318  -19.0988   17.8917 C   0  0  0  0  0  0  0  0  0  0  0  0
  -22.9589  -12.1462   19.2715 C   0  0  0  0  0  0  0  0  0  0  0  0
  -24.6073  -32.1075   20.4660 C   0  0  0  0  0  0  0  0  0  0  0  0
  -24.5094  -31.5193   23.6546 C   0  0  0  0  0  0  0  0  0  0  0  0
  -29.7045  -16.8879   20.5403 C   0  0  0  0  0  0  0  0  0  0  0  0
  -24.7545  -30.2818   26.8256 C   0  0  0  0  0  0  0  0  0  0  0  0
  -22.2485  -35.2007   17.1607 C   0  0  0  0  0  0  0  0  0  0  0  0
  -23.6146  -29.7907   20.5202 C   0  0  0  0  0  0  0  0  0  0  0  0
  -25.9859  -30.0100   22.2734 C   0  0  0  0  0  0  0  0  0  0  0  0
  -22.5554  -35.2307   18.6557 C   0  0  0  0  0  0  0  0  0  0  0  0
  -34.1311  -19.8813   24.2998 C   0  0  0  0  0  0  0  0  0  0  0  0
  -33.0606  -19.8932   25.3896 C   0  0  0  0  0  0  0  0  0  0  0  0
  -30.0238  -13.4236   19.6819 C   0  0  0  0  0  0  0  0  0  0  0  0
  -33.6387  -20.2090   22.8935 C   0  0  0  0  0  0  0  0  0  0  0  0
  -32.5611  -21.3006   25.7018 C   0  0  0  0  0  0  0  0  0  0  0  0
  -24.0238  -34.9017   18.9059 C   0  0  0  0  0  0  0  0  0  0  0  0
  -28.6124  -12.8728   19.8811 C   0  0  0  0  0  0  0  0  0  0  0  0
  -30.3501  -14.5067   20.7054 C   0  0  0  0  0  0  0  0  0  0  0  0
  -27.9549  -15.0834   20.9328 C   0  0  0  0  0  0  0  0  0  0  0  0
  -32.8675  -21.5167   22.7571 C   0  0  0  0  0  0  0  0  0  0  0  0
  -31.4194  -21.8100   24.8302 C   0  0  0  0  0  0  0  0  0  0  0  0
  -24.3649  -33.4906   18.4120 C   0  0  1  0  0  0  0  0  0  0  0  0
  -23.9204  -31.0646   21.3017 C   0  0  1  0  0  0  0  0  0  0  0  0
  -27.5736  -14.0082   19.8999 C   0  0  2  0  0  0  0  0  0  0  0  0
  -24.7988  -31.0103   29.2265 C   0  0  0  0  0  0  0  0  0  0  0  0
  -27.3854  -32.4776   23.3081 C   0  0  0  0  0  0  0  0  0  0  0  0
  -27.6753  -32.2830   25.7873 C   0  0  0  0  0  0  0  0  0  0  0  0
  -25.9988  -33.8750   24.8505 C   0  0  0  0  0  0  0  0  0  0  0  0
  -22.3180  -28.7274   27.4630 C   0  0  0  0  0  0  0  0  0  0  0  0
  -30.4362  -22.0642   22.5705 C   0  0  0  0  0  0  0  0  0  0  0  0
  -30.7632  -23.2338   19.8993 C   0  0  0  0  0  0  0  0  0  0  0  0
  -30.3413  -25.6833   20.1458 C   0  0  0  0  0  0  0  0  0  0  0  0
  -29.2567  -26.6811   20.5009 C   0  0  0  0  0  0  0  0  0  1  0  0
  -25.5400  -31.3908   24.7501 C   0  0  1  0  0  0  0  0  0  0  0  0
  -23.9281  -30.5369   28.0731 C   0  0  2  0  0  0  0  0  0  0  0  0
  -28.5959  -17.9101   20.5505 C   0  0  0  0  0  0  0  0  0  0  0  0
  -26.6417  -32.4841   24.6586 C   0  0  0  0  0  0  0  0  0  0  0  0
  -25.6909  -13.4150   21.3787 N   0  0  0  0  0  0  0  0  0  0  0  0
  -26.1682  -13.4809   20.1242 N   0  0  0  0  0  0  0  0  0  0  0  0
  -24.7730  -30.8218   22.4672 N   0  0  0  0  0  0  0  0  0  0  0  0
  -29.3283  -15.5551   20.7081 N   0  0  0  0  0  0  0  0  0  0  0  0
  -25.6071  -13.0456   17.8644 N   0  0  0  0  0  0  0  0  0  0  0  0
  -22.8468  -10.7588   19.1077 N   0  0  0  0  0  0  0  0  0  0  0  0
  -23.8897  -32.4976   19.3515 N   0  0  0  0  0  0  0  0  0  0  0  0
  -24.8009  -31.3911   26.0079 N   0  0  0  0  0  0  0  0  0  0  0  0
  -31.5018  -21.3775   23.3900 N   0  3  0  0  0  0  0  0  0  0  0  0
  -23.2272  -29.2909   28.4940 N   0  3  0  0  0  0  0  0  0  0  0  0
  -29.7954  -24.3069   20.2538 N   0  3  0  0  0  0  0  0  0  0  0  0
  -22.0222  -12.8873   18.8883 O   0  0  0  0  0  0  0  0  0  0  0  0
  -25.7063  -32.5281   20.8079 O   0  0  0  0  0  0  0  0  0  0  0  0
  -23.5039  -32.2072   23.8479 O   0  0  0  0  0  0  0  0  0  0  0  0
  -30.8691  -17.2644   20.3848 O   0  0  0  0  0  0  0  0  0  0  0  0
  -25.3070  -29.2072   26.6008 O   0  0  0  0  0  0  0  0  0  0  0  0
  -21.1534  -12.0486   25.6327 O   0  0  0  0  0  0  0  0  0  0  0  0
  -28.1498  -26.5189   19.6150 O   0  0  0  0  0  0  0  0  0  1  0  0
  -15.7844  -11.2210   24.6879 F   0  0  0  0  0  0  0  0  0  0  0  0
  -19.2476  -13.7414   26.7027 F   0  0  0  0  0  0  0  0  0  0  0  0
  -27.8963  -17.7862   21.7235 F   0  0  0  0  0  0  0  0  0  0  0  0
  -27.6836  -17.5767   19.5823 F   0  0  0  0  0  0  0  0  0  0  0  0
  1  2  1  0  0  0  0
  1  5  2  0  0  0  0
  2  6  2  0  0  0  0
  3  8  2  0  0  0  0
  3 17  1  0  0  0  0
  4  9  1  0  0  0  0
  4 17  2  0  0  0  0
  5 20  1  0  0  0  0
  6 22  1  0  0  0  0
  7 10  2  0  0  0  0
  7 21  1  0  0  0  0
  8 27  1  0  0  0  0
  9 27  2  0  0  0  0
 10 28  1  0  0  0  0
 11 12  2  0  0  0  0
 11 29  1  0  0  0  0
 12 30  1  0  0  0  0
 13 18  1  0  0  0  0
 13 24  2  0  0  0  0
 14 23  1  0  0  0  0
 14 28  2  0  0  0  0
 15 25  1  0  0  0  0
 15 26  2  0  0  0  0
 16 30  2  0  0  0  0
 16 31  1  0  0  0  0
 17 32  1  0  0  0  0
 18 25  2  0  0  0  0
 18 35  1  0  0  0  0
 19 32  1  0  0  0  0
 19 33  2  0  0  0  0
 19 36  1  0  0  0  0
 20 22  2  0  0  0  0
 20 41  1  0  0  0  0
 21 23  2  0  0  0  0
 21 42  1  0  0  0  0
 22 56  1  0  0  0  0
 23 43  1  0  0  0  0
 24 26  1  0  0  0  0
 24 65  1  0  0  0  0
 25 70  1  0  0  0  0
 26 64  1  0  0  0  0
 27 88  1  0  0  0  0
 28 89  1  0  0  0  0
 29 31  2  0  0  0  0
 29 88  1  0  0  0  0
 30 90  1  0  0  0  0
 31 91  1  0  0  0  0
 32 72  2  0  0  0  0
 33 73  1  0  0  0  0
 33 76  1  0  0  0  0
 34 35  2  0  0  0  0
 36 77  1  0  0  0  0
 36 83  2  0  0  0  0
 37 57  1  0  0  0  0
 37 78  1  0  0  0  0
 37 84  2  0  0  0  0
 38 68  1  0  0  0  0
 38 74  1  0  0  0  0
 38 85  2  0  0  0  0
 39 70  1  0  0  0  0
 39 75  1  0  0  0  0
 39 86  2  0  0  0  0
 40 69  1  0  0  0  0
 40 79  1  0  0  0  0
 40 87  2  0  0  0  0
 41 44  1  0  0  0  0
 42 57  1  0  0  0  0
 43 74  1  0  0  0  0
 44 50  1  0  0  0  0
 45 46  1  0  0  0  0
 45 48  1  0  0  0  0
 46 49  1  0  0  0  0
 47 51  1  0  0  0  0
 47 52  1  0  0  0  0
 48 54  1  0  0  0  0
 49 55  1  0  0  0  0
 50 56  1  0  0  0  0
 51 58  1  0  0  0  0
 52 75  1  0  0  0  0
 53 58  1  0  0  0  0
 53 75  1  0  0  0  0
 54 80  1  0  0  0  0
 55 80  1  0  0  0  0
 56 78  1  0  0  0  0
 57 74  1  0  0  0  0
 58 73  1  0  0  0  0
 59 69  1  0  0  0  0
 60 71  1  0  0  0  0
 61 71  1  0  0  0  0
 62 71  1  0  0  0  0
 63 81  1  0  0  0  0
 64 80  1  0  0  0  0
 65 82  1  0  0  0  0
 66 67  1  0  0  0  0
 66 82  1  0  0  0  0
 67 89  1  0  0  0  0
 68 71  1  0  0  0  0
 68 79  1  0  0  0  0
 69 81  1  0  0  0  0
 70 92  1  0  0  0  0
 70 93  1  0  0  0  0
 72 73  1  0  0  0  0
M  CHG  3  80   1  81   1  82   1
M  ISO  4  39 100  67 101  70 100  89 101
M  END
> <Batch ID>
0040

> <Smiles>
C=Cc1cc(CNC[101CH2:1][101O:1]c2ccc3c(c2)CN(C(=O)C(NC(=O)C(C)NC)C(C)(C)C)C(C(=O)NC2CCCc4ccccc42)C3)c(CN2CCCCCC2)cc1[100C:0](F)(F)[100C:0](=O)N1CCCC(n2nc(-c3ccc(Oc4ccc(F)cc4F)cc3)c(C(N)=O)c2N)C1

> <Shape>
0.266

> <Color>
0.093

> <Negative vol penalty>
0.000

$$$$

  -OEChem-04042322063D

 85 93  0     1  0  0  0  0  0999 V2000
  -29.4901  -23.6687   26.4265 C   0  0  0  0  0  0  0  0  0  0  0  0
  -30.4471  -22.9112   25.7590 C   0  0  0  0  0  0  0  0  0  0  0  0
  -23.0069   -9.8878   19.9776 C   0  0  0  0  0  0  0  0  0  0  0  0
  -23.7325   -9.9382   22.2816 C   0  0  0  0  0  0  0  0  0  0  0  0
  -28.5370  -24.3821   25.7009 C   0  0  0  0  0  0  0  0  0  0  0  0
  -30.4510  -22.8658   24.3653 C   0  0  0  0  0  0  0  0  0  0  0  0
  -35.0969  -23.3821   22.4175 C   0  0  0  0  0  0  0  0  0  0  0  0
  -22.2439   -8.7507   20.2428 C   0  0  0  0  0  0  0  0  0  0  0  0
  -22.9693   -8.8012   22.5468 C   0  0  0  0  0  0  0  0  0  0  0  0
  -35.9284  -22.2635   22.4490 C   0  0  0  0  0  0  0  0  0  0  0  0
  -23.2235   -5.4635   22.0709 C   0  0  0  0  0  0  0  0  0  0  0  0
  -23.8142   -4.4472   22.8217 C   0  0  0  0  0  0  0  0  0  0  0  0
  -35.4093  -21.8199   20.1354 C   0  0  0  0  0  0  0  0  0  0  0  0
  -30.4844  -18.3570   23.9995 C   0  0  0  0  0  0  0  0  0  0  0  0
  -32.0463  -16.5540   22.5531 C   0  0  0  0  0  0  0  0  0  0  0  0
  -22.0900   -4.6830   24.4975 C   0  0  0  0  0  0  0  0  0  0  0  0
  -23.7513  -10.4815   20.9970 C   0  0  0  0  0  0  0  0  0  0  0  0
  -24.1291  -12.9985   20.8238 C   0  0  0  0  0  0  0  0  0  0  0  0
  -28.5351  -24.3532   24.2974 C   0  0  0  0  0  0  0  0  0  0  0  0
  -34.4056  -23.7223   21.2458 C   0  0  0  0  0  0  0  0  0  0  0  0
  -29.4961  -23.5784   23.6202 C   0  0  0  0  0  0  0  0  0  0  0  0
  -34.5716  -22.9448   20.0908 C   0  0  0  0  0  0  0  0  0  0  0  0
  -31.8694  -18.3453   24.1646 C   0  0  0  0  0  0  0  0  0  0  0  0
  -29.8803  -17.4672   23.1112 C   0  0  0  0  0  0  0  0  0  0  0  0
  -32.6504  -17.4438   23.4414 C   0  0  0  0  0  0  0  0  0  0  0  0
  -30.6613  -16.5657   22.3880 C   0  0  0  0  0  0  0  0  0  0  0  0
  -22.2250   -8.2074   21.5273 C   0  0  0  0  0  0  0  0  0  0  0  0
  -36.0825  -21.4806   21.3087 C   0  0  0  0  0  0  0  0  0  0  0  0
  -22.0660   -6.0897   22.5334 C   0  0  0  0  0  0  0  0  0  0  0  0
  -23.2474   -4.0569   24.0350 C   0  0  0  0  0  0  0  0  0  0  0  0
  -21.4993   -5.6994   23.7467 C   0  0  0  0  0  0  0  0  0  0  0  0
  -24.5403  -11.6558   20.7236 C   0  0  0  0  0  0  0  0  0  0  0  0
  -25.2367  -13.7248   20.4601 C   0  0  0  0  0  0  0  0  0  0  0  0
  -22.8596  -13.5407   21.2113 C   0  0  0  0  0  0  0  0  0  0  0  0
  -31.3404  -23.9761   20.4433 C   0  0  0  0  0  0  0  0  0  0  0  0
  -32.5651  -25.1158   17.6641 C   0  0  0  0  0  0  0  0  0  0  0  0
  -35.2015  -25.2555   15.5016 C   0  0  0  0  0  0  0  0  0  0  0  0
  -30.7133  -14.7018   20.6940 C   0  0  0  0  0  0  0  0  0  0  0  0
  -27.4558  -25.1029   23.5573 C   0  0  0  0  0  0  0  0  0  0  0  0
  -33.5333  -24.9474   21.2204 C   0  0  0  0  0  0  0  0  0  0  0  0
  -33.8676  -23.2789   18.8020 C   0  0  0  0  0  0  0  0  0  0  0  0
  -27.7595  -25.3018   22.0746 C   0  0  0  0  0  0  0  0  0  0  0  0
  -29.6018  -12.2484   18.3654 C   0  0  0  0  0  0  0  0  0  0  0  0
  -28.2472  -23.9984   21.4501 C   0  0  0  0  0  0  0  0  0  0  0  0
  -28.1521  -11.9859   18.7796 C   0  0  0  0  0  0  0  0  0  0  0  0
  -30.5019  -12.4930   19.5753 C   0  0  0  0  0  0  0  0  0  0  0  0
  -28.5845  -13.2746   20.9101 C   0  0  0  0  0  0  0  0  0  0  0  0
  -29.5482  -23.5239   22.1088 C   0  0  1  0  0  0  0  0  0  0  0  0
  -32.4762  -24.9056   20.1212 C   0  0  1  0  0  0  0  0  0  0  0  0
  -27.6271  -13.0868   19.7219 C   0  0  2  0  0  0  0  0  0  0  0  0
  -28.3947  -17.5020   22.9542 C   0  0  0  0  0  0  0  0  0  0  0  0
  -32.8946  -18.6396   26.4337 C   0  0  0  0  0  0  0  0  0  0  0  0
  -35.8910  -26.2358   13.2968 C   0  0  0  0  0  0  0  0  0  0  0  0
  -30.8853  -23.0235   16.2114 C   0  0  0  0  0  0  0  0  0  0  0  0
  -32.2991  -23.4003   14.1797 C   0  0  0  0  0  0  0  0  0  0  0  0
  -30.9344  -25.2690   15.1115 C   0  0  0  0  0  0  0  0  0  0  0  0
  -37.4074  -26.7900   16.7420 C   0  0  0  0  0  0  0  0  0  0  0  0
  -32.4938  -19.3069   25.1216 C   0  0  0  0  0  0  0  0  0  0  0  0
  -34.1417  -17.4126   23.6026 C   0  0  0  0  0  0  0  0  0  0  0  0
  -37.0028  -18.0009   21.1269 C   0  0  0  0  0  0  0  0  0  0  0  0
  -36.3464  -17.7282   22.4719 C   0  0  0  0  0  0  0  0  0  0  0  0
  -36.5501  -19.3024   20.4764 C   0  0  0  0  0  0  0  0  0  1  0  0
  -32.9976  -24.5012   16.3548 C   0  0  1  0  0  0  0  0  0  0  0  0
  -35.8724  -26.4259   14.8055 C   0  0  2  0  0  0  0  0  0  0  0  0
  -31.7910  -24.0408   15.4890 C   0  0  0  0  0  0  0  0  0  0  0  0
  -25.8098  -11.5335   20.3270 N   0  0  0  0  0  0  0  0  0  0  0  0
  -26.2060  -12.8087   20.1748 N   0  0  0  0  0  0  0  0  0  0  0  0
  -33.0207  -24.4829   18.8293 N   0  0  0  0  0  0  0  0  0  0  0  0
  -29.9439  -13.5513   20.4200 N   0  0  0  0  0  0  0  0  0  0  0  0
  -25.4662  -15.0513   20.3595 N   0  0  0  0  0  0  0  0  0  0  0  0
  -21.8306  -12.6530   21.5540 N   0  0  0  0  0  0  0  0  0  0  0  0
  -30.0664  -15.6542   21.4808 N   0  0  0  0  0  0  0  0  0  0  0  0
  -30.6734  -24.2870   21.6128 N   0  0  0  0  0  0  0  0  0  0  0  0
  -33.8574  -25.4853   15.7063 N   0  0  0  0  0  0  0  0  0  0  0  0
  -37.2781  -26.5731   15.2780 N   0  3  0  0  0  0  0  0  0  0  0  0
  -34.8716  -17.6889   22.3344 N   0  3  0  0  0  0  0  0  0  0  0  0
  -22.6393  -14.7753   21.2365 O   0  0  0  0  0  0  0  0  0  0  0  0
  -31.0870  -23.0467   19.6859 O   0  0  0  0  0  0  0  0  0  0  0  0
  -31.8552  -26.1246   17.6534 O   0  0  0  0  0  0  0  0  0  0  0  0
  -35.8083  -24.2377   15.8275 O   0  0  0  0  0  0  0  0  0  0  0  0
  -31.8515  -14.8447   20.2399 O   0  0  0  0  0  0  0  0  0  0  0  0
  -21.4803   -7.0980   21.7865 O   0  0  0  0  0  0  0  0  0  0  0  0
  -36.8930  -20.3878   21.3369 O   0  0  0  0  0  0  0  0  0  1  0  0
  -23.8139   -3.0798   24.7551 F   0  0  0  0  0  0  0  0  0  0  0  0
  -20.3867   -6.2964   24.1957 F   0  0  0  0  0  0  0  0  0  0  0  0
  1  2  1  0  0  0  0
  1  5  2  0  0  0  0
  2  6  2  0  0  0  0
  3  8  2  0  0  0  0
  3 17  1  0  0  0  0
  4  9  1  0  0  0  0
  4 17  2  0  0  0  0
  5 19  1  0  0  0  0
  6 21  1  0  0  0  0
  7 10  2  0  0  0  0
  7 20  1  0  0  0  0
  8 27  1  0  0  0  0
  9 27  2  0  0  0  0
 10 28  1  0  0  0  0
 11 12  2  0  0  0  0
 11 29  1  0  0  0  0
 12 30  1  0  0  0  0
 13 22  1  0  0  0  0
 13 28  2  0  0  0  0
 14 23  1  0  0  0  0
 14 24  2  0  0  0  0
 15 25  1  0  0  0  0
 15 26  2  0  0  0  0
 16 30  2  0  0  0  0
 16 31  1  0  0  0  0
 17 32  1  0  0  0  0
 18 32  1  0  0  0  0
 18 33  2  0  0  0  0
 18 34  1  0  0  0  0
 19 21  2  0  0  0  0
 19 39  1  0  0  0  0
 20 22  2  0  0  0  0
 20 40  1  0  0  0  0
 21 48  1  0  0  0  0
 22 41  1  0  0  0  0
 23 25  2  0  0  0  0
 23 58  1  0  0  0  0
 24 26  1  0  0  0  0
 24 51  1  0  0  0  0
 25 59  1  0  0  0  0
 26 72  1  0  0  0  0
 27 82  1  0  0  0  0
 28 83  1  0  0  0  0
 29 31  2  0  0  0  0
 29 82  1  0  0  0  0
 30 84  1  0  0  0  0
 31 85  1  0  0  0  0
 32 66  2  0  0  0  0
 33 67  1  0  0  0  0
 33 70  1  0  0  0  0
 34 71  1  0  0  0  0
 34 77  2  0  0  0  0
 35 49  1  0  0  0  0
 35 73  1  0  0  0  0
 35 78  2  0  0  0  0
 36 63  1  0  0  0  0
 36 68  1  0  0  0  0
 36 79  2  0  0  0  0
 37 64  1  0  0  0  0
 37 74  1  0  0  0  0
 37 80  2  0  0  0  0
 38 69  1  0  0  0  0
 38 72  1  0  0  0  0
 38 81  2  0  0  0  0
 39 42  1  0  0  0  0
 40 49  1  0  0  0  0
 41 68  1  0  0  0  0
 42 44  1  0  0  0  0
 43 45  1  0  0  0  0
 43 46  1  0  0  0  0
 44 48  1  0  0  0  0
 45 50  1  0  0  0  0
 46 69  1  0  0  0  0
 47 50  1  0  0  0  0
 47 69  1  0  0  0  0
 48 73  1  0  0  0  0
 49 68  1  0  0  0  0
 50 67  1  0  0  0  0
 52 58  1  0  0  0  0
 53 64  1  0  0  0  0
 54 65  1  0  0  0  0
 55 65  1  0  0  0  0
 56 65  1  0  0  0  0
 57 75  1  0  0  0  0
 59 76  1  0  0  0  0
 60 61  1  0  0  0  0
 60 62  1  0  0  0  0
 61 76  1  0  0  0  0
 62 83  1  0  0  0  0
 63 65  1  0  0  0  0
 63 74  1  0  0  0  0
 64 75  1  0  0  0  0
 66 67  1  0  0  0  0
M  CHG  2  75   1  76   1
M  ISO  4  38 100  62 101  72 100  83 101
M  END
> <Batch ID>
0040

> <Smiles>
CCc1cc(C)c([100NH:0][100C:0](=O)N2CCCC(n3nc(-c4ccc(Oc5ccc(F)cc5F)cc4)c(C(N)=O)c3N)C2)cc1CNCC[101CH2:1][101O:1]c1ccc2c(c1)CN(C(=O)C(NC(=O)C(C)NC)C(C)(C)C)C(C(=O)NC1CCCc3ccccc31)C2

> <Shape>
0.195

> <Color>
0.194

> <Negative vol penalty>
0.000

$$$$

  -OEChem-04042322063D

 89 98  0     1  0  0  0  0  0999 V2000
  -23.0729  -27.6368   12.7609 C   0  0  0  0  0  0  0  0  0  0  0  0
  -23.8247  -26.7956   13.5749 C   0  0  0  0  0  0  0  0  0  0  0  0
  -24.1950   -9.4739   21.3973 C   0  0  0  0  0  0  0  0  0  0  0  0
  -24.7382  -10.5011   23.5156 C   0  0  0  0  0  0  0  0  0  0  0  0
  -23.2452  -29.0181   12.8397 C   0  0  0  0  0  0  0  0  0  0  0  0
  -24.7501  -27.3353   14.4675 C   0  0  0  0  0  0  0  0  0  0  0  0
  -26.2039  -25.1823   20.0133 C   0  0  0  0  0  0  0  0  0  0  0  0
  -23.8059   -8.3105   22.0612 C   0  0  0  0  0  0  0  0  0  0  0  0
  -24.3490   -9.3377   24.1795 C   0  0  0  0  0  0  0  0  0  0  0  0
  -27.2616  -24.3948   20.4662 C   0  0  0  0  0  0  0  0  0  0  0  0
  -21.1184   -7.2118   23.7942 C   0  0  0  0  0  0  0  0  0  0  0  0
  -19.9249   -6.6080   23.3986 C   0  0  0  0  0  0  0  0  0  0  0  0
  -28.4531  -26.3855   21.1267 C   0  0  0  0  0  0  0  0  0  0  0  0
  -31.0239  -17.4206   24.7128 C   0  0  0  0  0  0  0  0  0  0  0  0
  -31.7931  -17.0606   22.0554 C   0  0  0  0  0  0  0  0  0  0  0  0
  -21.1323   -4.5946   22.8282 C   0  0  0  0  0  0  0  0  0  0  0  0
  -24.6612  -10.5692   22.1245 C   0  0  0  0  0  0  0  0  0  0  0  0
  -24.2538  -12.8749   21.1119 C   0  0  0  0  0  0  0  0  0  0  0  0
  -24.1663  -29.5755   13.7405 C   0  0  0  0  0  0  0  0  0  0  0  0
  -26.2677  -26.5802   20.1040 C   0  0  0  0  0  0  0  0  0  0  0  0
  -24.9359  -28.7253   14.5574 C   0  0  0  0  0  0  0  0  0  0  0  0
  -27.3939  -27.1884   20.6766 C   0  0  0  0  0  0  0  0  0  0  0  0
  -31.7623  -18.4080   24.0606 C   0  0  0  0  0  0  0  0  0  0  0  0
  -30.6701  -16.2531   24.0363 C   0  0  0  0  0  0  0  0  0  0  0  0
  -32.1470  -18.2280   22.7320 C   0  0  0  0  0  0  0  0  0  0  0  0
  -31.0546  -16.0732   22.7076 C   0  0  0  0  0  0  0  0  0  0  0  0
  -23.8829   -8.2424   23.4523 C   0  0  0  0  0  0  0  0  0  0  0  0
  -28.3876  -24.9965   21.0203 C   0  0  0  0  0  0  0  0  0  0  0  0
  -22.3190   -6.5070   23.7067 C   0  0  0  0  0  0  0  0  0  0  0  0
  -19.9318   -5.2995   22.9157 C   0  0  0  0  0  0  0  0  0  0  0  0
  -22.3259   -5.1984   23.2237 C   0  0  0  0  0  0  0  0  0  0  0  0
  -25.0638  -11.7710   21.4392 C   0  0  0  0  0  0  0  0  0  0  0  0
  -25.1022  -13.7458   20.4730 C   0  0  0  0  0  0  0  0  0  0  0  0
  -30.9830  -20.0919   20.7982 C   0  0  0  0  0  0  0  0  0  0  0  0
  -31.1767  -19.4605   19.6267 C   0  0  0  0  0  0  0  0  0  0  0  0
  -22.8593  -13.0935   21.3629 C   0  0  0  0  0  0  0  0  0  0  0  0
  -26.2415  -28.9676   18.0056 C   0  0  0  0  0  0  0  0  0  0  0  0
  -26.1356  -30.8002   20.6800 C   0  0  0  0  0  0  0  0  0  0  0  0
  -26.7887  -31.0969   24.0165 C   0  0  0  0  0  0  0  0  0  0  0  0
  -31.0159  -14.5761   20.6818 C   0  0  0  0  0  0  0  0  0  0  0  0
  -24.3516  -31.0721   13.7562 C   0  0  0  0  0  0  0  0  0  0  0  0
  -25.1071  -27.4143   19.6354 C   0  0  0  0  0  0  0  0  0  0  0  0
  -27.5029  -28.6842   20.8153 C   0  0  0  0  0  0  0  0  0  0  0  0
  -29.5965  -20.4301   21.2845 C   0  0  0  0  0  0  0  0  0  0  0  0
  -25.0843  -31.5822   14.9945 C   0  0  0  0  0  0  0  0  0  0  0  0
  -29.4127  -21.8575   21.8058 C   0  0  0  0  0  0  0  0  0  0  0  0
  -29.0724  -13.8201   17.7960 C   0  0  0  0  0  0  0  0  0  0  0  0
  -32.2126  -22.9379   21.0233 C   0  0  0  0  0  0  0  0  0  0  0  0
  -26.3189  -30.7306   15.2729 C   0  0  0  0  0  0  0  0  0  0  0  0
  -27.7480  -13.3151   18.3729 C   0  0  0  0  0  0  0  0  0  0  0  0
  -30.9964  -23.0567   20.0949 C   0  0  0  0  0  0  0  0  0  0  0  0
  -30.2653  -13.3749   18.6401 C   0  0  0  0  0  0  0  0  0  0  0  0
  -28.8462  -13.1953   20.6459 C   0  0  0  0  0  0  0  0  0  0  0  0
  -32.9309  -21.5841   20.9917 C   0  0  0  0  0  0  0  0  0  0  0  0
  -25.9320  -29.2740   15.5558 C   0  0  1  0  0  0  0  0  0  0  0  0
  -25.4985  -28.8516   19.3064 C   0  0  1  0  0  0  0  0  0  0  0  0
  -27.6106  -13.6731   19.8658 C   0  0  2  0  0  0  0  0  0  0  0  0
  -29.6287  -22.9813   20.7871 C   0  0  2  0  0  0  0  0  0  1  0  0
  -32.1299  -19.6493   24.8053 C   0  0  0  0  0  0  0  0  0  0  0  0
  -29.8786  -15.2123   24.7595 C   0  0  0  0  0  0  0  0  0  0  0  0
  -26.6276  -32.7266   25.9180 C   0  0  0  0  0  0  0  0  0  0  0  0
  -28.5634  -32.2986   19.5982 C   0  0  0  0  0  0  0  0  0  0  0  0
  -28.9253  -33.2287   21.8943 C   0  0  0  0  0  0  0  0  0  0  0  0
  -26.8252  -33.7535   20.6547 C   0  0  0  0  0  0  0  0  0  0  0  0
  -24.9678  -29.3246   25.5339 C   0  0  0  0  0  0  0  0  0  0  0  0
  -32.9417  -19.2760   22.0101 C   0  0  0  0  0  0  0  0  0  0  0  0
  -27.1660  -31.4283   21.5871 C   0  0  1  0  0  0  0  0  0  0  0  0
  -25.9369  -31.5976   25.1690 C   0  0  2  0  0  0  0  0  0  0  0  0
  -27.8691  -32.6492   20.9293 C   0  0  0  0  0  0  0  0  0  0  0  0
  -26.3295  -11.9241   21.0410 N   0  0  0  0  0  0  0  0  0  0  0  0
  -26.3212  -13.1343   20.4568 N   0  0  0  0  0  0  0  0  0  0  0  0
  -26.3447  -29.4569   20.3369 N   0  0  0  0  0  0  0  0  0  0  0  0
  -30.0669  -13.7515   20.0414 N   0  0  0  0  0  0  0  0  0  0  0  0
  -24.9169  -14.9673   19.9289 N   0  0  0  0  0  0  0  0  0  0  0  0
  -22.1363  -12.0960   22.0312 N   0  0  0  0  0  0  0  0  0  0  0  0
  -30.7048  -14.8945   22.0034 N   0  0  0  0  0  0  0  0  0  0  0  0
  -25.4245  -29.1387   16.9044 N   0  0  0  0  0  0  0  0  0  0  0  0
  -26.4770  -31.7367   22.8355 N   0  0  0  0  0  0  0  0  0  0  0  0
  -32.1169  -20.4738   21.6134 N   0  3  2  0  0  0  0  0  0  0  0  0
  -25.6657  -30.4923   26.1311 N   0  3  0  0  0  0  0  0  0  0  0  0
  -22.2679  -14.1353   20.9908 O   0  0  0  0  0  0  0  0  0  0  0  0
  -27.4654  -28.9078   18.0014 O   0  0  0  0  0  0  0  0  0  0  0  0
  -25.1766  -31.4744   20.2961 O   0  0  0  0  0  0  0  0  0  0  0  0
  -27.6473  -30.2280   24.1513 O   0  0  0  0  0  0  0  0  0  0  0  0
  -32.0162  -14.9931   20.0923 O   0  0  0  0  0  0  0  0  0  0  0  0
  -23.5030   -7.1075   24.1005 O   0  0  0  0  0  0  0  0  0  0  0  0
  -29.4252  -24.2276   21.4640 O   0  0  0  0  0  0  0  0  0  1  0  0
  -18.7853   -4.7193   22.5373 F   0  0  0  0  0  0  0  0  0  0  0  0
  -23.4760   -4.5159   23.1384 F   0  0  0  0  0  0  0  0  0  0  0  0
  1  2  1  0  0  0  0
  1  5  2  0  0  0  0
  2  6  2  0  0  0  0
  3  8  2  0  0  0  0
  3 17  1  0  0  0  0
  4  9  1  0  0  0  0
  4 17  2  0  0  0  0
  5 19  1  0  0  0  0
  6 21  1  0  0  0  0
  7 10  2  0  0  0  0
  7 20  1  0  0  0  0
  8 27  1  0  0  0  0
  9 27  2  0  0  0  0
 10 28  1  0  0  0  0
 11 12  2  0  0  0  0
 11 29  1  0  0  0  0
 12 30  1  0  0  0  0
 13 22  1  0  0  0  0
 13 28  2  0  0  0  0
 14 23  1  0  0  0  0
 14 24  2  0  0  0  0
 15 25  1  0  0  0  0
 15 26  2  0  0  0  0
 16 30  2  0  0  0  0
 16 31  1  0  0  0  0
 17 32  1  0  0  0  0
 18 32  1  0  0  0  0
 18 33  2  0  0  0  0
 18 36  1  0  0  0  0
 19 21  2  0  0  0  0
 19 41  1  0  0  0  0
 20 22  2  0  0  0  0
 20 42  1  0  0  0  0
 21 55  1  0  0  0  0
 22 43  1  0  0  0  0
 23 25  2  0  0  0  0
 23 59  1  0  0  0  0
 24 26  1  0  0  0  0
 24 60  1  0  0  0  0
 25 66  1  0  0  0  0
 26 76  1  0  0  0  0
 27 86  1  0  0  0  0
 28 87  1  0  0  0  0
 29 31  2  0  0  0  0
 29 86  1  0  0  0  0
 30 88  1  0  0  0  0
 31 89  1  0  0  0  0
 32 70  2  0  0  0  0
 33 71  1  0  0  0  0
 33 74  1  0  0  0  0
 34 35  2  0  0  0  0
 34 44  1  0  0  0  0
 34 79  1  0  0  0  0
 36 75  1  0  0  0  0
 36 81  2  0  0  0  0
 37 56  1  0  0  0  0
 37 77  1  0  0  0  0
 37 82  2  0  0  0  0
 38 67  1  0  0  0  0
 38 72  1  0  0  0  0
 38 83  2  0  0  0  0
 39 68  1  0  0  0  0
 39 78  1  0  0  0  0
 39 84  2  0  0  0  0
 40 73  1  0  0  0  0
 40 76  1  0  0  0  0
 40 85  2  0  0  0  0
 41 45  1  0  0  0  0
 42 56  1  0  0  0  0
 43 72  1  0  0  0  0
 44 46  1  0  0  0  0
 45 49  1  0  0  0  0
 46 58  1  0  0  0  0
 47 50  1  0  0  0  0
 47 52  1  0  0  0  0
 48 51  1  0  0  0  0
 48 54  1  0  0  0  0
 49 55  1  0  0  0  0
 50 57  1  0  0  0  0
 51 58  1  0  0  0  0
 52 73  1  0  0  0  0
 53 57  1  0  0  0  0
 53 73  1  0  0  0  0
 54 79  1  0  0  0  0
 55 77  1  0  0  0  0
 56 72  1  0  0  0  0
 57 71  1  0  0  0  0
 58 87  1  0  0  0  0
 61 68  1  0  0  0  0
 62 69  1  0  0  0  0
 63 69  1  0  0  0  0
 64 69  1  0  0  0  0
 65 80  1  0  0  0  0
 66 79  1  0  0  0  0
 67 69  1  0  0  0  0
 67 78  1  0  0  0  0
 68 80  1  0  0  0  0
 70 71  1  0  0  0  0
M  CHG  2  79   1  80   1
M  ISO  4  40 100  58 101  76 100  87 101
M  END
> <Batch ID>
0040

> <Smiles>
C=C1CC[101CH:1]([101O:1]c2ccc3c(c2)CN(C(=O)C(NC(=O)C(C)NC)C(C)(C)C)C(C(=O)NC2CCCc4ccccc42)C3)CCCN1Cc1cc([100NH:0][100C:0](=O)N2CCCC(n3nc(-c4ccc(Oc5ccc(F)cc5F)cc4)c(C(N)=O)c3N)C2)c(C)cc1C

> <Shape>
0.285

> <Color>
0.137

> <Negative vol penalty>
0.000

$$$$

  -OEChem-04042322063D

 89 98  0     1  0  0  0  0  0999 V2000
  -32.4057  -36.0559   15.6810 C   0  0  0  0  0  0  0  0  0  0  0  0
  -32.9497  -34.7777   15.7561 C   0  0  0  0  0  0  0  0  0  0  0  0
  -22.6641  -10.1936   20.1894 C   0  0  0  0  0  0  0  0  0  0  0  0
  -24.3193   -9.4339   21.7769 C   0  0  0  0  0  0  0  0  0  0  0  0
  -31.3904  -36.4329   16.5590 C   0  0  0  0  0  0  0  0  0  0  0  0
  -32.4793  -33.8760   16.7101 C   0  0  0  0  0  0  0  0  0  0  0  0
  -29.6909  -27.5280   14.7558 C   0  0  0  0  0  0  0  0  0  0  0  0
  -21.9327   -9.0233   20.3919 C   0  0  0  0  0  0  0  0  0  0  0  0
  -23.5878   -8.2636   21.9794 C   0  0  0  0  0  0  0  0  0  0  0  0
  -29.3379  -26.2080   14.4745 C   0  0  0  0  0  0  0  0  0  0  0  0
  -20.8437   -7.3108   23.7063 C   0  0  0  0  0  0  0  0  0  0  0  0
  -20.6607   -6.8820   25.0209 C   0  0  0  0  0  0  0  0  0  0  0  0
  -28.8772  -25.8208   16.8167 C   0  0  0  0  0  0  0  0  0  0  0  0
  -31.5961  -18.3775   20.2313 C   0  0  0  0  0  0  0  0  0  0  0  0
  -21.7892   -4.8097   24.5022 C   0  0  0  0  0  0  0  0  0  0  0  0
  -23.8575  -10.3989   20.8818 C   0  0  0  0  0  0  0  0  0  0  0  0
  -24.1845  -12.9288   20.8991 C   0  0  0  0  0  0  0  0  0  0  0  0
  -30.9007  -35.5322   17.5179 C   0  0  0  0  0  0  0  0  0  0  0  0
  -29.6236  -28.0044   16.0680 C   0  0  0  0  0  0  0  0  0  0  0  0
  -31.4574  -34.2418   17.6027 C   0  0  0  0  0  0  0  0  0  0  0  0
  -29.2176  -27.1456   17.1027 C   0  0  0  0  0  0  0  0  0  0  0  0
  -30.5779  -17.9814   21.0984 C   0  0  0  0  0  0  0  0  0  0  0  0
  -29.1633  -19.7427   20.2417 C   0  0  0  0  0  0  0  0  0  0  0  0
  -30.1816  -20.1388   19.3746 C   0  0  0  0  0  0  0  0  0  0  0  0
  -22.3945   -8.0583   21.2869 C   0  0  0  0  0  0  0  0  0  0  0  0
  -28.9323  -25.3565   15.5024 C   0  0  0  0  0  0  0  0  0  0  0  0
  -21.4993   -6.4889   22.7895 C   0  0  0  0  0  0  0  0  0  0  0  0
  -21.1334   -5.6315   25.4189 C   0  0  0  0  0  0  0  0  0  0  0  0
  -21.9721   -5.2384   23.1875 C   0  0  0  0  0  0  0  0  0  0  0  0
  -31.3980  -19.4562   19.3694 C   0  0  0  0  0  0  0  0  0  0  0  0
  -29.3615  -18.6640   21.1036 C   0  0  0  0  0  0  0  0  0  0  0  0
  -24.6138  -11.6073   20.6726 C   0  0  0  0  0  0  0  0  0  0  0  0
  -25.2628  -13.7047   20.5502 C   0  0  0  0  0  0  0  0  0  0  0  0
  -28.4790  -22.1662   16.7315 C   0  0  0  0  0  0  0  0  0  0  0  0
  -27.1892  -22.4010   17.0239 C   0  0  0  0  0  0  0  0  0  0  0  0
  -22.9238  -13.4118   21.3818 C   0  0  0  0  0  0  0  0  0  0  0  0
  -30.0915  -30.9032   18.4034 C   0  0  0  0  0  0  0  0  0  0  0  0
  -27.5354  -29.4534   19.2837 C   0  0  0  0  0  0  0  0  0  0  0  0
  -24.4670  -28.6125   20.5145 C   0  0  0  0  0  0  0  0  0  0  0  0
  -30.7450  -14.7445   20.6474 C   0  0  0  0  0  0  0  0  0  0  0  0
  -29.8348  -36.0009   18.4765 C   0  0  0  0  0  0  0  0  0  0  0  0
  -30.0532  -29.4011   16.4263 C   0  0  0  0  0  0  0  0  0  0  0  0
  -29.1935  -27.6916   18.5042 C   0  0  0  0  0  0  0  0  0  0  0  0
  -29.1334  -34.8618   19.2119 C   0  0  0  0  0  0  0  0  0  0  0  0
  -29.5526  -12.4951   18.1583 C   0  0  0  0  0  0  0  0  0  0  0  0
  -30.7051  -20.9743   15.3738 C   0  0  0  0  0  0  0  0  0  0  0  0
  -30.1548  -33.8642   19.7490 C   0  0  0  0  0  0  0  0  0  0  0  0
  -30.0240  -22.1995   14.7743 C   0  0  0  0  0  0  0  0  0  0  0  0
  -28.1290  -12.1681   18.6126 C   0  0  0  0  0  0  0  0  0  0  0  0
  -30.5016  -12.6517   19.3445 C   0  0  0  0  0  0  0  0  0  0  0  0
  -28.6356  -13.2898   20.8226 C   0  0  0  0  0  0  0  0  0  0  0  0
  -29.7313  -20.1475   16.2071 C   0  0  0  0  0  0  0  0  0  0  0  0
  -30.9567  -33.2271   18.6076 C   0  0  1  0  0  0  0  0  0  0  0  0
  -29.3417  -23.0421   15.8509 C   0  0  1  0  0  0  0  0  0  1  0  0
  -29.2194  -30.0157   17.5648 C   0  0  1  0  0  0  0  0  0  0  0  0
  -27.6301  -13.1776   19.6639 C   0  0  2  0  0  0  0  0  0  0  0  0
  -27.8629  -20.4865   20.2342 C   0  0  0  0  0  0  0  0  0  0  0  0
  -23.0713  -28.7593   22.5948 C   0  0  0  0  0  0  0  0  0  0  0  0
  -29.1713  -27.2037   20.5354 C   0  0  0  0  0  0  0  0  0  0  0  0
  -27.2488  -26.7589   22.0763 C   0  0  0  0  0  0  0  0  0  0  0  0
  -28.4146  -28.9632   22.1435 C   0  0  0  0  0  0  0  0  0  0  0  0
  -22.3877  -30.2134   19.1460 C   0  0  0  0  0  0  0  0  0  0  0  0
  -30.8354  -16.8203   22.0046 C   0  0  0  0  0  0  0  0  0  0  0  0
  -29.9573  -21.3014   18.4532 C   0  0  0  0  0  0  0  0  0  0  0  0
  -26.9173  -28.4123   20.1823 C   0  0  1  0  0  0  0  0  0  0  0  0
  -23.4297  -29.4206   21.2731 C   0  0  2  0  0  0  0  0  0  0  0  0
  -27.9344  -27.8339   21.2061 C   0  0  0  0  0  0  0  0  0  0  0  0
  -25.8670  -11.5436   20.2151 N   0  0  0  0  0  0  0  0  0  0  0  0
  -26.2344  -12.8347   20.1511 N   0  0  0  0  0  0  0  0  0  0  0  0
  -28.6265  -29.0493   18.5047 N   0  0  0  0  0  0  0  0  0  0  0  0
  -29.9711  -13.6239   20.3033 N   0  0  0  0  0  0  0  0  0  0  0  0
  -25.4651  -15.0394   20.5488 N   0  0  0  0  0  0  0  0  0  0  0  0
  -21.9256  -12.4785   21.6933 N   0  0  0  0  0  0  0  0  0  0  0  0
  -30.1723  -32.2053   17.9479 N   0  0  0  0  0  0  0  0  0  0  0  0
  -25.7487  -29.0396   20.7901 N   0  0  0  0  0  0  0  0  0  0  0  0
  -30.1652  -15.6194   21.5579 N   0  0  0  0  0  0  0  0  0  0  0  0
  -29.0662  -20.9672   17.2887 N   0  3  1  0  0  0  0  0  0  0  0  0
  -22.1860  -29.5572   20.4635 N   0  3  0  0  0  0  0  0  0  0  0  0
  -22.6836  -14.6356   21.5168 O   0  0  0  0  0  0  0  0  0  0  0  0
  -30.6494  -30.4421   19.3923 O   0  0  0  0  0  0  0  0  0  0  0  0
  -27.0692  -30.5961   19.2748 O   0  0  0  0  0  0  0  0  0  0  0  0
  -24.1701  -27.6918   19.7563 O   0  0  0  0  0  0  0  0  0  0  0  0
  -31.8672  -14.9528   20.1738 O   0  0  0  0  0  0  0  0  0  0  0  0
  -21.6809   -6.9163   21.4849 O   0  0  0  0  0  0  0  0  0  0  0  0
  -28.5848  -24.0703   15.2201 O   0  0  0  0  0  0  0  0  0  1  0  0
  -20.9590   -5.2206   26.6818 F   0  0  0  0  0  0  0  0  0  0  0  0
  -22.6038   -4.4450   22.3116 F   0  0  0  0  0  0  0  0  0  0  0  0
  -32.6846  -19.9159   18.3134 Cl  0  0  0  0  0  0  0  0  0  0  0  0
  -28.0990  -18.1680   22.1815 Cl  0  0  0  0  0  0  0  0  0  0  0  0
  1  2  1  0  0  0  0
  1  5  2  0  0  0  0
  2  6  2  0  0  0  0
  3  8  2  0  0  0  0
  3 16  1  0  0  0  0
  4  9  1  0  0  0  0
  4 16  2  0  0  0  0
  5 18  1  0  0  0  0
  6 20  1  0  0  0  0
  7 10  2  0  0  0  0
  7 19  1  0  0  0  0
  8 25  1  0  0  0  0
  9 25  2  0  0  0  0
 10 26  1  0  0  0  0
 11 12  2  0  0  0  0
 11 27  1  0  0  0  0
 12 28  1  0  0  0  0
 13 21  1  0  0  0  0
 13 26  2  0  0  0  0
 14 22  1  0  0  0  0
 14 30  2  0  0  0  0
 15 28  2  0  0  0  0
 15 29  1  0  0  0  0
 16 32  1  0  0  0  0
 17 32  1  0  0  0  0
 17 33  2  0  0  0  0
 17 36  1  0  0  0  0
 18 20  2  0  0  0  0
 18 41  1  0  0  0  0
 19 21  2  0  0  0  0
 19 42  1  0  0  0  0
 20 53  1  0  0  0  0
 21 43  1  0  0  0  0
 22 31  2  0  0  0  0
 22 63  1  0  0  0  0
 23 24  2  0  0  0  0
 23 31  1  0  0  0  0
 23 57  1  0  0  0  0
 24 30  1  0  0  0  0
 24 64  1  0  0  0  0
 25 84  1  0  0  0  0
 26 85  1  0  0  0  0
 27 29  2  0  0  0  0
 27 84  1  0  0  0  0
 28 86  1  0  0  0  0
 29 87  1  0  0  0  0
 30 88  1  0  0  0  0
 31 89  1  0  0  0  0
 32 68  2  0  0  0  0
 33 69  1  0  0  0  0
 33 72  1  0  0  0  0
 34 35  2  0  0  0  0
 34 54  1  0  0  0  0
 34 77  1  0  0  0  0
 36 73  1  0  0  0  0
 36 79  2  0  0  0  0
 37 55  1  0  0  0  0
 37 74  1  0  0  0  0
 37 80  2  0  0  0  0
 38 65  1  0  0  0  0
 38 70  1  0  0  0  0
 38 81  2  0  0  0  0
 39 66  1  0  0  0  0
 39 75  1  0  0  0  0
 39 82  2  0  0  0  0
 40 71  1  0  0  0  0
 40 76  1  0  0  0  0
 40 83  2  0  0  0  0
 41 44  1  0  0  0  0
 42 55  1  0  0  0  0
 43 70  1  0  0  0  0
 44 47  1  0  0  0  0
 45 49  1  0  0  0  0
 45 50  1  0  0  0  0
 46 48  1  0  0  0  0
 46 52  1  0  0  0  0
 47 53  1  0  0  0  0
 48 54  1  0  0  0  0
 49 56  1  0  0  0  0
 50 71  1  0  0  0  0
 51 56  1  0  0  0  0
 51 71  1  0  0  0  0
 52 77  1  0  0  0  0
 53 74  1  0  0  0  0
 54 85  1  0  0  0  0
 55 70  1  0  0  0  0
 56 69  1  0  0  0  0
 58 66  1  0  0  0  0
 59 67  1  0  0  0  0
 60 67  1  0  0  0  0
 61 67  1  0  0  0  0
 62 78  1  0  0  0  0
 63 76  1  0  0  0  0
 64 77  1  0  0  0  0
 65 67  1  0  0  0  0
 65 75  1  0  0  0  0
 66 78  1  0  0  0  0
 68 69  1  0  0  0  0
M  CHG  2  77   1  78   1
M  ISO  4  40 100  54 101  76 100  85 101
M  END
> <Batch ID>
0040

> <Smiles>
C=C1N(Cc2c(Cl)cc(C[100NH:0][100C:0](=O)N3CCCC(n4nc(-c5ccc(Oc6ccc(F)cc6F)cc5)c(C(N)=O)c4N)C3)c(Cl)c2C)CCC[101CH:1]1[101O:1]c1ccc2c(c1)CN(C(=O)C(NC(=O)C(C)NC)C(C)(C)C)C(C(=O)NC1CCCc3ccccc31)C2

> <Shape>
0.297

> <Color>
0.192

> <Negative vol penalty>
0.000

$$$$

  -OEChem-04042322063D

 90 99  0     1  0  0  0  0  0999 V2000
  -26.5662  -34.9457   24.1581 C   0  0  0  0  0  0  0  0  0  0  0  0
  -27.0129  -33.6805   23.7906 C   0  0  0  0  0  0  0  0  0  0  0  0
  -22.3651  -12.8887   23.6032 C   0  0  0  0  0  0  0  0  0  0  0  0
  -21.3023  -12.0701   21.5940 C   0  0  0  0  0  0  0  0  0  0  0  0
  -25.2559  -35.1195   24.6016 C   0  0  0  0  0  0  0  0  0  0  0  0
  -26.1498  -32.5880   23.8675 C   0  0  0  0  0  0  0  0  0  0  0  0
  -26.3879  -29.6313   19.7632 C   0  0  0  0  0  0  0  0  0  0  0  0
  -27.7303  -19.7860   20.5099 C   0  0  0  0  0  0  0  0  0  0  0  0
  -27.6575  -21.1183   20.9165 C   0  0  0  0  0  0  0  0  0  0  0  0
  -22.3686  -11.5964   24.1280 C   0  0  0  0  0  0  0  0  0  0  0  0
  -21.3057  -10.7777   22.1187 C   0  0  0  0  0  0  0  0  0  0  0  0
  -27.4716  -28.7592   19.6687 C   0  0  0  0  0  0  0  0  0  0  0  0
  -23.5212   -8.2560   22.5101 C   0  0  0  0  0  0  0  0  0  0  0  0
  -23.9241   -7.2181   21.6698 C   0  0  0  0  0  0  0  0  0  0  0  0
  -26.0743  -26.9491   20.4370 C   0  0  0  0  0  0  0  0  0  0  0  0
  -28.0925  -20.5013   18.2308 C   0  0  0  0  0  0  0  0  0  0  0  0
  -21.7665   -6.1643   21.9372 C   0  0  0  0  0  0  0  0  0  0  0  0
  -21.8319  -13.1256   22.3362 C   0  0  0  0  0  0  0  0  0  0  0  0
  -21.1989  -15.5969   22.3373 C   0  0  0  0  0  0  0  0  0  0  0  0
  -24.3734  -34.0303   24.6748 C   0  0  0  0  0  0  0  0  0  0  0  0
  -25.1400  -29.1703   20.2064 C   0  0  0  0  0  0  0  0  0  0  0  0
  -24.8268  -32.7472   24.3137 C   0  0  0  0  0  0  0  0  0  0  0  0
  -24.9757  -27.8168   20.5338 C   0  0  0  0  0  0  0  0  0  0  0  0
  -27.9479  -19.4775   19.1670 C   0  0  0  0  0  0  0  0  0  0  0  0
  -27.8022  -22.1421   19.9802 C   0  0  0  0  0  0  0  0  0  0  0  0
  -28.0197  -21.8336   18.6374 C   0  0  0  0  0  0  0  0  0  0  0  0
  -21.8389  -10.5409   23.3857 C   0  0  0  0  0  0  0  0  0  0  0  0
  -27.3157  -27.4185   20.0083 C   0  0  0  0  0  0  0  0  0  0  0  0
  -22.2410   -8.2480   23.0640 C   0  0  0  0  0  0  0  0  0  0  0  0
  -23.0467   -6.1723   21.3833 C   0  0  0  0  0  0  0  0  0  0  0  0
  -21.3637   -7.2022   22.7775 C   0  0  0  0  0  0  0  0  0  0  0  0
  -21.8275  -14.4605   21.7938 C   0  0  0  0  0  0  0  0  0  0  0  0
  -21.4906  -16.6065   21.4529 C   0  0  0  0  0  0  0  0  0  0  0  0
  -28.6236  -25.2892   21.9194 C   0  0  0  0  0  0  0  0  0  0  0  0
  -28.0148  -25.4436   23.1089 C   0  0  0  0  0  0  0  0  0  0  0  0
  -20.4210  -15.7281   23.5345 C   0  0  0  0  0  0  0  0  0  0  0  0
  -23.2516  -29.8335   22.6759 C   0  0  0  0  0  0  0  0  0  0  0  0
  -21.1997  -27.8444   21.1412 C   0  0  0  0  0  0  0  0  0  0  0  0
  -21.4018  -24.7065   19.3720 C   0  0  0  0  0  0  0  0  0  0  0  0
  -25.9413  -17.4355   17.5345 C   0  0  0  0  0  0  0  0  0  0  0  0
  -22.9802  -34.2592   25.2052 C   0  0  0  0  0  0  0  0  0  0  0  0
  -23.9741  -30.1180   20.2773 C   0  0  0  0  0  0  0  0  0  0  0  0
  -23.6515  -27.2677   20.9957 C   0  0  0  0  0  0  0  0  0  0  0  0
  -22.0171  -33.1144   24.9016 C   0  0  0  0  0  0  0  0  0  0  0  0
  -22.4520  -17.3725   16.8291 C   0  0  0  0  0  0  0  0  0  0  0  0
  -30.7048  -24.6575   20.0435 C   0  0  0  0  0  0  0  0  0  0  0  0
  -22.6660  -31.7716   25.2221 C   0  0  0  0  0  0  0  0  0  0  0  0
  -21.8396  -16.7216   18.0706 C   0  0  0  0  0  0  0  0  0  0  0  0
  -30.6258  -26.0659   20.6279 C   0  0  0  0  0  0  0  0  0  0  0  0
  -23.8053  -16.7576   16.4789 C   0  0  0  0  0  0  0  0  0  0  0  0
  -24.1713  -16.0935   18.8238 C   0  0  0  0  0  0  0  0  0  0  0  0
  -30.1812  -23.6265   21.0322 C   0  0  0  0  0  0  0  0  0  0  0  0
  -23.9131  -31.5417   24.3597 C   0  0  1  0  0  0  0  0  0  0  0  0
  -22.8801  -29.6492   21.2317 C   0  0  1  0  0  0  0  0  0  0  0  0
  -22.8316  -16.7185   19.2492 C   0  0  2  0  0  0  0  0  0  0  0  0
  -29.1984  -26.4247   21.0799 C   0  0  2  0  0  0  0  0  0  1  0  0
  -28.1772  -22.9130   17.6171 C   0  0  0  0  0  0  0  0  0  0  0  0
  -29.2258  -27.7990   21.7662 C   0  0  0  0  0  0  0  0  0  0  0  0
  -26.8349  -24.8050   25.2068 C   0  0  0  0  0  0  0  0  0  0  0  0
  -19.9546  -23.7639   17.5515 C   0  0  0  0  0  0  0  0  0  0  0  0
  -19.7049  -26.4882   23.4296 C   0  0  0  0  0  0  0  0  0  0  0  0
  -19.4535  -24.4663   21.9745 C   0  0  0  0  0  0  0  0  0  0  0  0
  -18.4236  -26.6317   21.2867 C   0  0  0  0  0  0  0  0  0  0  0  0
  -23.7204  -24.3061   17.5769 C   0  0  0  0  0  0  0  0  0  0  0  0
  -28.0252  -18.0530   18.7325 C   0  0  0  0  0  0  0  0  0  0  0  0
  -27.7190  -23.5675   20.4411 C   0  0  0  0  0  0  0  0  0  0  0  0
  -27.4598  -24.3109   23.9115 C   0  0  0  0  0  0  0  0  0  0  0  0
  -20.9340  -26.3585   21.1627 C   0  0  1  0  0  0  0  0  0  0  0  0
  -21.2479  -24.4948   17.8767 C   0  0  2  0  0  0  0  0  0  0  0  0
  -19.6548  -25.9968   21.9691 C   0  0  0  0  0  0  0  0  0  0  0  0
  -22.4699  -14.7229   20.6525 N   0  0  0  0  0  0  0  0  0  0  0  0
  -22.2464  -16.0356   20.4716 N   0  0  0  0  0  0  0  0  0  0  0  0
  -22.5434  -28.2352   21.0546 N   0  0  0  0  0  0  0  0  0  0  0  0
  -24.6997  -16.7870   17.6387 N   0  0  0  0  0  0  0  0  0  0  0  0
  -21.1716  -17.9180   21.4267 N   0  0  0  0  0  0  0  0  0  0  0  0
  -19.0361  -15.5276   23.4568 N   0  0  0  0  0  0  0  0  0  0  0  0
  -23.5352  -31.1411   23.0214 N   0  0  0  0  0  0  0  0  0  0  0  0
  -20.9029  -25.9292   19.7687 N   0  0  0  0  0  0  0  0  0  0  0  0
  -26.7250  -17.4223   18.6818 N   0  0  0  0  0  0  0  0  0  0  0  0
  -28.7658  -23.9187   21.4616 N   0  3  2  0  0  0  0  0  0  0  0  0
  -22.3870  -23.6928   17.3472 N   0  3  0  0  0  0  0  0  0  0  0  0
  -20.9366  -16.0307   24.6373 O   0  0  0  0  0  0  0  0  0  0  0  0
  -23.2776  -28.8617   23.4219 O   0  0  0  0  0  0  0  0  0  0  0  0
  -20.2495  -28.6294   21.1921 O   0  0  0  0  0  0  0  0  0  0  0  0
  -21.9101  -23.8693   20.1145 O   0  0  0  0  0  0  0  0  0  0  0  0
  -26.3209  -17.9901   16.4975 O   0  0  0  0  0  0  0  0  0  0  0  0
  -21.8423   -9.2796   23.8974 O   0  0  0  0  0  0  0  0  0  0  0  0
  -28.3719  -26.5654   19.9176 O   0  0  0  0  0  0  0  0  0  1  0  0
  -23.4332   -5.1764   20.5752 F   0  0  0  0  0  0  0  0  0  0  0  0
  -20.1322   -7.1897   23.3057 F   0  0  0  0  0  0  0  0  0  0  0  0
  1  2  1  0  0  0  0
  1  5  2  0  0  0  0
  2  6  2  0  0  0  0
  3 10  2  0  0  0  0
  3 18  1  0  0  0  0
  4 11  1  0  0  0  0
  4 18  2  0  0  0  0
  5 20  1  0  0  0  0
  6 22  1  0  0  0  0
  7 12  2  0  0  0  0
  7 21  1  0  0  0  0
  8  9  2  0  0  0  0
  8 24  1  0  0  0  0
  9 25  1  0  0  0  0
 10 27  1  0  0  0  0
 11 27  2  0  0  0  0
 12 28  1  0  0  0  0
 13 14  2  0  0  0  0
 13 29  1  0  0  0  0
 14 30  1  0  0  0  0
 15 23  1  0  0  0  0
 15 28  2  0  0  0  0
 16 24  2  0  0  0  0
 16 26  1  0  0  0  0
 17 30  2  0  0  0  0
 17 31  1  0  0  0  0
 18 32  1  0  0  0  0
 19 32  1  0  0  0  0
 19 33  2  0  0  0  0
 19 36  1  0  0  0  0
 20 22  2  0  0  0  0
 20 41  1  0  0  0  0
 21 23  2  0  0  0  0
 21 42  1  0  0  0  0
 22 53  1  0  0  0  0
 23 43  1  0  0  0  0
 24 65  1  0  0  0  0
 25 26  2  0  0  0  0
 25 66  1  0  0  0  0
 26 57  1  0  0  0  0
 27 87  1  0  0  0  0
 28 88  1  0  0  0  0
 29 31  2  0  0  0  0
 29 87  1  0  0  0  0
 30 89  1  0  0  0  0
 31 90  1  0  0  0  0
 32 71  2  0  0  0  0
 33 72  1  0  0  0  0
 33 75  1  0  0  0  0
 34 35  2  0  0  0  0
 34 56  1  0  0  0  0
 34 80  1  0  0  0  0
 35 67  1  0  0  0  0
 36 76  1  0  0  0  0
 36 82  2  0  0  0  0
 37 54  1  0  0  0  0
 37 77  1  0  0  0  0
 37 83  2  0  0  0  0
 38 68  1  0  0  0  0
 38 73  1  0  0  0  0
 38 84  2  0  0  0  0
 39 69  1  0  0  0  0
 39 78  1  0  0  0  0
 39 85  2  0  0  0  0
 40 74  1  0  0  0  0
 40 79  1  0  0  0  0
 40 86  2  0  0  0  0
 41 44  1  0  0  0  0
 42 54  1  0  0  0  0
 43 73  1  0  0  0  0
 44 47  1  0  0  0  0
 45 48  1  0  0  0  0
 45 50  1  0  0  0  0
 46 49  1  0  0  0  0
 46 52  1  0  0  0  0
 47 53  1  0  0  0  0
 48 55  1  0  0  0  0
 49 56  1  0  0  0  0
 50 74  1  0  0  0  0
 51 55  1  0  0  0  0
 51 74  1  0  0  0  0
 52 80  1  0  0  0  0
 53 77  1  0  0  0  0
 54 73  1  0  0  0  0
 55 72  1  0  0  0  0
 56 58  1  0  0  0  0
 56 88  1  0  0  0  0
 59 67  1  0  0  0  0
 60 69  1  0  0  0  0
 61 70  1  0  0  0  0
 62 70  1  0  0  0  0
 63 70  1  0  0  0  0
 64 81  1  0  0  0  0
 65 79  1  0  0  0  0
 66 80  1  0  0  0  0
 68 70  1  0  0  0  0
 68 78  1  0  0  0  0
 69 81  1  0  0  0  0
 71 72  1  0  0  0  0
M  CHG  2  80   1  81   1
M  ISO  4  40 100  56 101  79 100  88 101
M  END
> <Batch ID>
0040

> <Smiles>
CCC=C1N(Cc2ccc(C[100NH:0][100C:0](=O)N3CCCC(n4nc(-c5ccc(Oc6ccc(F)cc6F)cc5)c(C(N)=O)c4N)C3)cc2C)CCC[101C:1]1(C)[101O:1]c1ccc2c(c1)CN(C(=O)C(NC(=O)C(C)NC)C(C)(C)C)C(C(=O)NC1CCCc3ccccc31)C2

> <Shape>
0.250

> <Color>
0.073

> <Negative vol penalty>
0.000

$$$$

  -OEChem-04042322063D

 89 98  0     1  0  0  0  0  0999 V2000
  -27.8821  -35.6539   24.0679 C   0  0  0  0  0  0  0  0  0  0  0  0
  -28.1698  -34.3355   23.7297 C   0  0  0  0  0  0  0  0  0  0  0  0
  -23.8151   -9.5674   22.4466 C   0  0  0  0  0  0  0  0  0  0  0  0
  -25.2997   -8.6970   20.7509 C   0  0  0  0  0  0  0  0  0  0  0  0
  -26.6115  -35.9920   24.5320 C   0  0  0  0  0  0  0  0  0  0  0  0
  -27.1874  -33.3541   23.8566 C   0  0  0  0  0  0  0  0  0  0  0  0
  -26.9842  -30.2781   19.8388 C   0  0  0  0  0  0  0  0  0  0  0  0
  -23.6945   -8.2911   22.9962 C   0  0  0  0  0  0  0  0  0  0  0  0
  -25.1792   -7.4206   21.3005 C   0  0  0  0  0  0  0  0  0  0  0  0
  -27.9565  -29.2830   19.7489 C   0  0  0  0  0  0  0  0  0  0  0  0
  -22.7115   -5.1946   24.6299 C   0  0  0  0  0  0  0  0  0  0  0  0
  -21.4349   -4.7563   24.9816 C   0  0  0  0  0  0  0  0  0  0  0  0
  -26.3763  -27.6707   20.5989 C   0  0  0  0  0  0  0  0  0  0  0  0
  -27.2784  -20.0155   20.6066 C   0  0  0  0  0  0  0  0  0  0  0  0
  -25.0012  -19.3604   21.0779 C   0  0  0  0  0  0  0  0  0  0  0  0
  -20.7177   -5.0045   22.6879 C   0  0  0  0  0  0  0  0  0  0  0  0
  -24.6177   -9.7704   21.3239 C   0  0  0  0  0  0  0  0  0  0  0  0
  -23.7089  -11.8917   20.2369 C   0  0  0  0  0  0  0  0  0  0  0  0
  -25.6102  -35.0159   24.6554 C   0  0  0  0  0  0  0  0  0  0  0  0
  -25.7017  -29.9787   20.3205 C   0  0  0  0  0  0  0  0  0  0  0  0
  -25.9027  -33.6791   24.3240 C   0  0  0  0  0  0  0  0  0  0  0  0
  -25.3887  -28.6633   20.6915 C   0  0  0  0  0  0  0  0  0  0  0  0
  -26.8910  -21.3554   20.5970 C   0  0  0  0  0  0  0  0  0  0  0  0
  -25.5586  -21.6979   20.8278 C   0  0  0  0  0  0  0  0  0  0  0  0
  -26.3335  -19.0180   20.8470 C   0  0  0  0  0  0  0  0  0  0  0  0
  -24.3766   -7.2177   22.4232 C   0  0  0  0  0  0  0  0  0  0  0  0
  -27.6535  -27.9797   20.1317 C   0  0  0  0  0  0  0  0  0  0  0  0
  -22.9912   -5.5379   23.3071 C   0  0  0  0  0  0  0  0  0  0  0  0
  -20.4380   -4.6612   24.0107 C   0  0  0  0  0  0  0  0  0  0  0  0
  -21.9943   -5.4428   22.3362 C   0  0  0  0  0  0  0  0  0  0  0  0
  -24.6137  -20.7004   21.0683 C   0  0  0  0  0  0  0  0  0  0  0  0
  -24.7422  -11.0884   20.7554 C   0  0  0  0  0  0  0  0  0  0  0  0
  -24.3406  -13.0391   19.8234 C   0  0  0  0  0  0  0  0  0  0  0  0
  -29.0687  -23.6701   18.6186 C   0  0  0  0  0  0  0  0  0  0  0  0
  -29.1939  -24.9432   19.0325 C   0  0  0  0  0  0  0  0  0  0  0  0
  -22.3037  -11.6247   20.1381 C   0  0  0  0  0  0  0  0  0  0  0  0
  -23.9614  -30.9259   22.8060 C   0  0  0  0  0  0  0  0  0  0  0  0
  -21.6567  -29.1492   21.3729 C   0  0  0  0  0  0  0  0  0  0  0  0
  -21.4510  -25.9618   19.6949 C   0  0  0  0  0  0  0  0  0  0  0  0
  -28.0083  -17.1470   20.6453 C   0  0  0  0  0  0  0  0  0  0  0  0
  -24.2659  -35.4207   25.2064 C   0  0  0  0  0  0  0  0  0  0  0  0
  -24.6560  -31.0580   20.3861 C   0  0  0  0  0  0  0  0  0  0  0  0
  -24.0207  -28.2857   21.1960 C   0  0  0  0  0  0  0  0  0  0  0  0
  -30.1634  -22.9864   17.8459 C   0  0  0  0  0  0  0  0  0  0  0  0
  -23.1693  -34.3886   24.9565 C   0  0  0  0  0  0  0  0  0  0  0  0
  -29.9392  -23.0981   16.3387 C   0  0  0  0  0  0  0  0  0  0  0  0
  -28.7828  -22.2541   15.8079 C   0  0  0  0  0  0  0  0  0  0  0  0
  -29.2668  -14.0899   19.3233 C   0  0  0  0  0  0  0  0  0  0  0  0
  -27.4387  -22.4783   16.5019 C   0  0  0  0  0  0  0  0  0  0  0  0
  -23.6648  -32.9884   25.3041 C   0  0  0  0  0  0  0  0  0  0  0  0
  -28.1169  -13.1026   19.5354 C   0  0  0  0  0  0  0  0  0  0  0  0
  -29.3820  -15.0830   20.4784 C   0  0  0  0  0  0  0  0  0  0  0  0
  -26.9935  -14.8132   21.0182 C   0  0  0  0  0  0  0  0  0  0  0  0
  -27.4128  -21.9570   17.9365 C   0  0  0  0  0  0  0  0  0  0  0  0
  -24.8562  -32.5906   24.4244 C   0  0  1  0  0  0  0  0  0  0  0  0
  -23.5375  -30.7468   21.3757 C   0  0  1  0  0  0  0  0  0  0  0  0
  -26.7969  -13.8339   19.8495 C   0  0  2  0  0  0  0  0  0  0  0  0
  -25.1590  -23.1407   20.8128 C   0  0  0  0  0  0  0  0  0  0  0  0
  -19.8620  -25.1453   17.9326 C   0  0  0  0  0  0  0  0  0  0  0  0
  -20.0680  -28.0405   23.7302 C   0  0  0  0  0  0  0  0  0  0  0  0
  -19.5491  -26.0228   22.3417 C   0  0  0  0  0  0  0  0  0  0  0  0
  -18.7625  -28.2741   21.6099 C   0  0  0  0  0  0  0  0  0  0  0  0
  -23.6649  -25.2437   17.8668 C   0  0  0  0  0  0  0  0  0  0  0  0
  -27.9276  -22.4079   20.3348 C   0  0  0  0  0  0  0  0  0  0  0  0
  -28.1454  -25.6764   19.8017 C   0  0  0  0  0  0  0  0  0  1  0  0
  -21.2205  -27.7057   21.4442 C   0  0  1  0  0  0  0  0  0  0  0  0
  -21.2388  -25.7286   18.2100 C   0  0  2  0  0  0  0  0  0  0  0  0
  -19.9270  -27.5184   22.2864 C   0  0  0  0  0  0  0  0  0  0  0  0
  -25.9395  -11.6757   20.6791 N   0  0  0  0  0  0  0  0  0  0  0  0
  -25.6624  -12.8601   20.1078 N   0  0  0  0  0  0  0  0  0  0  0  0
  -23.0344  -29.3775   21.2478 N   0  0  0  0  0  0  0  0  0  0  0  0
  -28.0950  -15.7405   20.7156 N   0  0  0  0  0  0  0  0  0  0  0  0
  -23.8887  -14.1735   19.2477 N   0  0  0  0  0  0  0  0  0  0  0  0
  -21.8222  -10.3964   20.6112 N   0  0  0  0  0  0  0  0  0  0  0  0
  -26.7277  -17.6570   20.8563 N   0  0  0  0  0  0  0  0  0  0  0  0
  -24.4032  -32.2003   23.1065 N   0  0  0  0  0  0  0  0  0  0  0  0
  -21.1072  -27.2449   20.0647 N   0  0  0  0  0  0  0  0  0  0  0  0
  -27.8352  -22.9964   18.9480 N   0  3  1  0  0  0  0  0  0  0  0  0
  -22.2641  -24.7846   17.6822 N   0  3  0  0  0  0  0  0  0  0  0  0
  -21.5013  -12.4441   19.6299 O   0  0  0  0  0  0  0  0  0  0  0  0
  -23.8914  -29.9785   23.5802 O   0  0  0  0  0  0  0  0  0  0  0  0
  -20.8058  -30.0411   21.4191 O   0  0  0  0  0  0  0  0  0  0  0  0
  -21.8756  -25.0916   20.4519 O   0  0  0  0  0  0  0  0  0  0  0  0
  -28.9919  -17.8458   20.3879 O   0  0  0  0  0  0  0  0  0  0  0  0
  -24.2593   -5.9722   22.9594 O   0  0  0  0  0  0  0  0  0  0  0  0
  -28.6009  -27.0066   20.0456 O   0  0  0  0  0  0  0  0  0  1  0  0
  -19.2125   -4.2388   24.3483 F   0  0  0  0  0  0  0  0  0  0  0  0
  -22.2573   -5.7702   21.0636 F   0  0  0  0  0  0  0  0  0  0  0  0
  -22.9555  -21.0827   21.3608 Cl  0  0  0  0  0  0  0  0  0  0  0  0
  1  2  1  0  0  0  0
  1  5  2  0  0  0  0
  2  6  2  0  0  0  0
  3  8  2  0  0  0  0
  3 17  1  0  0  0  0
  4  9  1  0  0  0  0
  4 17  2  0  0  0  0
  5 19  1  0  0  0  0
  6 21  1  0  0  0  0
  7 10  2  0  0  0  0
  7 20  1  0  0  0  0
  8 26  1  0  0  0  0
  9 26  2  0  0  0  0
 10 27  1  0  0  0  0
 11 12  2  0  0  0  0
 11 28  1  0  0  0  0
 12 29  1  0  0  0  0
 13 22  1  0  0  0  0
 13 27  2  0  0  0  0
 14 23  1  0  0  0  0
 14 25  2  0  0  0  0
 15 25  1  0  0  0  0
 15 31  2  0  0  0  0
 16 29  2  0  0  0  0
 16 30  1  0  0  0  0
 17 32  1  0  0  0  0
 18 32  1  0  0  0  0
 18 33  2  0  0  0  0
 18 36  1  0  0  0  0
 19 21  2  0  0  0  0
 19 41  1  0  0  0  0
 20 22  2  0  0  0  0
 20 42  1  0  0  0  0
 21 55  1  0  0  0  0
 22 43  1  0  0  0  0
 23 24  2  0  0  0  0
 23 64  1  0  0  0  0
 24 31  1  0  0  0  0
 24 58  1  0  0  0  0
 25 75  1  0  0  0  0
 26 85  1  0  0  0  0
 27 86  1  0  0  0  0
 28 30  2  0  0  0  0
 28 85  1  0  0  0  0
 29 87  1  0  0  0  0
 30 88  1  0  0  0  0
 31 89  1  0  0  0  0
 32 69  2  0  0  0  0
 33 70  1  0  0  0  0
 33 73  1  0  0  0  0
 34 35  2  0  0  0  0
 34 44  1  0  0  0  0
 34 78  1  0  0  0  0
 35 65  1  0  0  0  0
 36 74  1  0  0  0  0
 36 80  2  0  0  0  0
 37 56  1  0  0  0  0
 37 76  1  0  0  0  0
 37 81  2  0  0  0  0
 38 66  1  0  0  0  0
 38 71  1  0  0  0  0
 38 82  2  0  0  0  0
 39 67  1  0  0  0  0
 39 77  1  0  0  0  0
 39 83  2  0  0  0  0
 40 72  1  0  0  0  0
 40 75  1  0  0  0  0
 40 84  2  0  0  0  0
 41 45  1  0  0  0  0
 42 56  1  0  0  0  0
 43 71  1  0  0  0  0
 44 46  1  0  0  0  0
 45 50  1  0  0  0  0
 46 47  1  0  0  0  0
 47 49  1  0  0  0  0
 48 51  1  0  0  0  0
 48 52  1  0  0  0  0
 49 54  1  0  0  0  0
 50 55  1  0  0  0  0
 51 57  1  0  0  0  0
 52 72  1  0  0  0  0
 53 57  1  0  0  0  0
 53 72  1  0  0  0  0
 54 78  1  0  0  0  0
 55 76  1  0  0  0  0
 56 71  1  0  0  0  0
 57 70  1  0  0  0  0
 59 67  1  0  0  0  0
 60 68  1  0  0  0  0
 61 68  1  0  0  0  0
 62 68  1  0  0  0  0
 63 79  1  0  0  0  0
 64 78  1  0  0  0  0
 65 86  1  0  0  0  0
 66 68  1  0  0  0  0
 66 77  1  0  0  0  0
 67 79  1  0  0  0  0
 69 70  1  0  0  0  0
M  CHG  2  78   1  79   1
M  ISO  4  40 100  65 101  75 100  86 101
M  END
> <Batch ID>
0040

> <Smiles>
CNC(C)C(=O)NC(C(=O)N1Cc2cc([101O:1][101CH2:1]C=C3CCCCCN3Cc3cc([100NH:0][100C:0](=O)N4CCCC(n5nc(-c6ccc(Oc7ccc(F)cc7F)cc6)c(C(N)=O)c5N)C4)cc(Cl)c3C)ccc2CC1C(=O)NC1CCCc2ccccc21)C(C)(C)C

> <Shape>
0.330

> <Color>
0.097

> <Negative vol penalty>
0.000

$$$$
