
  -OEChem-04042322093D

 86 95  0     1  0  0  0  0  0999 V2000
  -16.8981  -30.4307   23.5416 C   0  0  0  0  0  0  0  0  0  0  0  0
  -18.1458  -31.0458   23.5233 C   0  0  0  0  0  0  0  0  0  0  0  0
  -28.1558  -12.8405   18.5754 C   0  0  0  0  0  0  0  0  0  0  0  0
  -29.2231  -14.0430   20.3787 C   0  0  0  0  0  0  0  0  0  0  0  0
  -16.8001  -29.0505   23.3701 C   0  0  0  0  0  0  0  0  0  0  0  0
  -19.2963  -30.2809   23.3346 C   0  0  0  0  0  0  0  0  0  0  0  0
  -25.8211  -30.6418   20.3998 C   0  0  0  0  0  0  0  0  0  0  0  0
  -30.4671  -23.3258   23.8210 C   0  0  0  0  0  0  0  0  0  0  0  0
  -29.6733  -22.2086   24.0800 C   0  0  0  0  0  0  0  0  0  0  0  0
  -28.9758  -11.7399   18.8240 C   0  0  0  0  0  0  0  0  0  0  0  0
  -30.0431  -12.9424   20.6274 C   0  0  0  0  0  0  0  0  0  0  0  0
  -27.1605  -30.4275   20.7222 C   0  0  0  0  0  0  0  0  0  0  0  0
  -32.1559  -10.8040   18.1642 C   0  0  0  0  0  0  0  0  0  0  0  0
  -32.7434  -10.1736   17.0674 C   0  0  0  0  0  0  0  0  0  0  0  0
  -26.8635  -28.0615   20.3573 C   0  0  0  0  0  0  0  0  0  0  0  0
  -30.0214  -23.0947   21.4577 C   0  0  0  0  0  0  0  0  0  0  0  0
  -31.6242   -8.1138   17.6520 C   0  0  0  0  0  0  0  0  0  0  0  0
  -28.2795  -13.9921   19.3527 C   0  0  0  0  0  0  0  0  0  0  0  0
  -26.0270  -15.1720   19.1486 C   0  0  0  0  0  0  0  0  0  0  0  0
  -17.9492  -28.2695   23.1695 C   0  0  0  0  0  0  0  0  0  0  0  0
  -24.9887  -29.5645   20.0638 C   0  0  0  0  0  0  0  0  0  0  0  0
  -19.2137  -28.8888   23.1616 C   0  0  0  0  0  0  0  0  0  0  0  0
  -25.5146  -28.2651   20.0286 C   0  0  0  0  0  0  0  0  0  0  0  0
  -30.6412  -23.7689   22.5098 C   0  0  0  0  0  0  0  0  0  0  0  0
  -29.0535  -21.5343   23.0279 C   0  0  0  0  0  0  0  0  0  0  0  0
  -29.2275  -21.9774   21.7168 C   0  0  0  0  0  0  0  0  0  0  0  0
  -29.9194  -11.7908   19.8500 C   0  0  0  0  0  0  0  0  0  0  0  0
  -27.6811  -29.1369   20.7038 C   0  0  0  0  0  0  0  0  0  0  0  0
  -31.3026  -10.0893   19.0050 C   0  0  0  0  0  0  0  0  0  0  0  0
  -32.4775   -8.8285   16.8113 C   0  0  0  0  0  0  0  0  0  0  0  0
  -31.0368   -8.7442   18.7488 C   0  0  0  0  0  0  0  0  0  0  0  0
  -27.4331  -15.1296   19.0961 C   0  0  0  0  0  0  0  0  0  0  0  0
  -25.7103  -16.4692   18.8267 C   0  0  0  0  0  0  0  0  0  0  0  0
  -30.0072  -26.8450   21.6425 C   0  0  0  0  0  0  0  0  0  0  0  0
  -25.0908  -14.1319   19.4606 C   0  0  0  0  0  0  0  0  0  0  0  0
  -22.3527  -28.2942   21.3053 C   0  0  0  0  0  0  0  0  0  0  0  0
  -22.4458  -26.4595   18.6318 C   0  0  0  0  0  0  0  0  0  0  0  0
  -24.9638  -24.7333   16.7090 C   0  0  0  0  0  0  0  0  0  0  0  0
  -28.6863  -21.6308   19.2809 C   0  0  0  0  0  0  0  0  0  0  0  0
  -17.7970  -26.7750   23.0359 C   0  0  0  0  0  0  0  0  0  0  0  0
  -23.5529  -29.8155   19.6925 C   0  0  0  0  0  0  0  0  0  0  0  0
  -24.6679  -27.0769   19.6548 C   0  0  0  0  0  0  0  0  0  0  0  0
  -19.0343  -26.0851   22.4673 C   0  0  0  0  0  0  0  0  0  0  0  0
  -30.3671  -27.9672   24.3255 C   0  0  0  0  0  0  0  0  0  0  0  0
  -27.3344  -20.2065   16.3109 C   0  0  0  0  0  0  0  0  0  0  0  0
  -20.2945  -26.5915   23.1618 C   0  0  0  0  0  0  0  0  0  0  0  0
  -30.0099  -28.8786   23.1700 C   0  0  0  0  0  0  0  0  0  0  0  0
  -27.0727  -18.7483   16.6947 C   0  0  0  0  0  0  0  0  0  0  0  0
  -31.2598  -26.8428   23.8318 C   0  0  0  0  0  0  0  0  0  0  0  0
  -28.6081  -20.7441   16.9608 C   0  0  0  0  0  0  0  0  0  0  0  0
  -28.4184  -19.1180   18.8017 C   0  0  0  0  0  0  0  0  0  0  0  0
  -20.4828  -28.0963   22.9347 C   0  0  1  0  0  0  0  0  0  0  0  0
  -29.2562  -28.0794   22.1252 C   0  0  1  0  0  0  0  0  0  1  0  0
  -22.6673  -28.5854   19.8652 C   0  0  1  0  0  0  0  0  0  0  0  0
  -27.1113  -18.5522   18.2230 C   0  0  2  0  0  0  0  0  0  0  0  0
  -28.2095  -20.3400   23.3349 C   0  0  0  0  0  0  0  0  0  0  0  0
  -25.0217  -24.1164   14.2773 C   0  0  0  0  0  0  0  0  0  0  0  0
  -21.3034  -23.7934   19.5788 C   0  0  0  0  0  0  0  0  0  0  0  0
  -22.7452  -22.6517   17.8800 C   0  0  0  0  0  0  0  0  0  0  0  0
  -20.9853  -24.2582   17.1421 C   0  0  0  0  0  0  0  0  0  0  0  0
  -27.5472  -26.1180   16.3000 C   0  0  0  0  0  0  0  0  0  0  0  0
  -31.4957  -24.9717   22.2320 C   0  0  0  0  0  0  0  0  0  0  0  0
  -23.0736  -25.1368   18.2642 C   0  0  1  0  0  0  0  0  0  0  0  0
  -25.4752  -25.1143   15.3315 C   0  0  2  0  0  0  0  0  0  0  0  0
  -22.0384  -23.9770   18.2360 C   0  0  0  0  0  0  0  0  0  0  0  0
  -27.9725  -16.3062   18.7665 N   0  0  0  0  0  0  0  0  0  0  0  0
  -26.8997  -17.1002   18.6091 N   0  0  0  0  0  0  0  0  0  0  0  0
  -30.8207  -26.2134   22.5852 N   0  0  0  0  0  0  0  0  0  0  0  0
  -23.2686  -27.3730   19.3059 N   0  0  0  0  0  0  0  0  0  0  0  0
  -28.5720  -20.5275   18.4088 N   0  0  0  0  0  0  0  0  0  0  0  0
  -24.5333  -17.1201   18.7114 N   0  0  0  0  0  0  0  0  0  0  0  0
  -25.5860  -12.8575   19.7686 N   0  0  0  0  0  0  0  0  0  0  0  0
  -28.6057  -21.3063   20.6347 N   0  0  0  0  0  0  0  0  0  0  0  0
  -21.0055  -28.3458   21.6085 N   0  0  0  0  0  0  0  0  0  0  0  0
  -23.7654  -25.3511   16.9978 N   0  0  0  0  0  0  0  0  0  0  0  0
  -26.9648  -25.1592   15.3261 N   0  3  0  0  0  0  0  0  0  0  0  0
  -29.8257  -26.4239   20.4971 O   0  0  0  0  0  0  0  0  0  0  0  0
  -23.8510  -14.3227   19.4500 O   0  0  0  0  0  0  0  0  0  0  0  0
  -23.2646  -28.0400   22.0835 O   0  0  0  0  0  0  0  0  0  0  0  0
  -21.2709  -26.6772   18.3255 O   0  0  0  0  0  0  0  0  0  0  0  0
  -25.5652  -23.9616   17.4529 O   0  0  0  0  0  0  0  0  0  0  0  0
  -28.8169  -22.7821   18.8573 O   0  0  0  0  0  0  0  0  0  0  0  0
  -30.7196  -10.7169   20.0931 O   0  0  0  0  0  0  0  0  0  0  0  0
  -28.9879  -28.9248   21.0187 O   0  0  0  0  0  0  0  0  0  1  0  0
  -33.0405   -8.2236   15.7571 F   0  0  0  0  0  0  0  0  0  0  0  0
  -30.2169   -8.0528   19.5523 F   0  0  0  0  0  0  0  0  0  0  0  0
  1  2  1  0  0  0  0
  1  5  2  0  0  0  0
  2  6  2  0  0  0  0
  3 10  2  0  0  0  0
  3 18  1  0  0  0  0
  4 11  1  0  0  0  0
  4 18  2  0  0  0  0
  5 20  1  0  0  0  0
  6 22  1  0  0  0  0
  7 12  2  0  0  0  0
  7 21  1  0  0  0  0
  8  9  2  0  0  0  0
  8 24  1  0  0  0  0
  9 25  1  0  0  0  0
 10 27  1  0  0  0  0
 11 27  2  0  0  0  0
 12 28  1  0  0  0  0
 13 14  2  0  0  0  0
 13 29  1  0  0  0  0
 14 30  1  0  0  0  0
 15 23  1  0  0  0  0
 15 28  2  0  0  0  0
 16 24  2  0  0  0  0
 16 26  1  0  0  0  0
 17 30  2  0  0  0  0
 17 31  1  0  0  0  0
 18 32  1  0  0  0  0
 19 32  1  0  0  0  0
 19 33  2  0  0  0  0
 19 35  1  0  0  0  0
 20 22  2  0  0  0  0
 20 40  1  0  0  0  0
 21 23  2  0  0  0  0
 21 41  1  0  0  0  0
 22 52  1  0  0  0  0
 23 42  1  0  0  0  0
 24 62  1  0  0  0  0
 25 26  2  0  0  0  0
 25 56  1  0  0  0  0
 26 73  1  0  0  0  0
 27 83  1  0  0  0  0
 28 84  1  0  0  0  0
 29 31  2  0  0  0  0
 29 83  1  0  0  0  0
 30 85  1  0  0  0  0
 31 86  1  0  0  0  0
 32 66  2  0  0  0  0
 33 67  1  0  0  0  0
 33 71  1  0  0  0  0
 34 53  1  0  0  0  0
 34 68  1  0  0  0  0
 34 77  2  0  0  0  0
 35 72  1  0  0  0  0
 35 78  2  0  0  0  0
 36 54  1  0  0  0  0
 36 74  1  0  0  0  0
 36 79  2  0  0  0  0
 37 63  1  0  0  0  0
 37 69  1  0  0  0  0
 37 80  2  0  0  0  0
 38 64  1  0  0  0  0
 38 75  1  0  0  0  0
 38 81  2  0  0  0  0
 39 70  1  0  0  0  0
 39 73  1  0  0  0  0
 39 82  2  0  0  0  0
 40 43  1  0  0  0  0
 41 54  1  0  0  0  0
 42 69  1  0  0  0  0
 43 46  1  0  0  0  0
 44 47  1  0  0  0  0
 44 49  1  0  0  0  0
 45 48  1  0  0  0  0
 45 50  1  0  0  0  0
 46 52  1  0  0  0  0
 47 53  1  0  0  0  0
 48 55  1  0  0  0  0
 49 68  1  0  0  0  0
 50 70  1  0  0  0  0
 51 55  1  0  0  0  0
 51 70  1  0  0  0  0
 52 74  1  0  0  0  0
 53 84  1  0  0  0  0
 54 69  1  0  0  0  0
 55 67  1  0  0  0  0
 57 64  1  0  0  0  0
 58 65  1  0  0  0  0
 59 65  1  0  0  0  0
 60 65  1  0  0  0  0
 61 76  1  0  0  0  0
 62 68  1  0  0  0  0
 63 65  1  0  0  0  0
 63 75  1  0  0  0  0
 64 76  1  0  0  0  0
 66 67  1  0  0  0  0
M  CHG  1  76   1
M  ISO  4  39 100  53 101  73 100  84 101
M  END
> <Batch ID>
0041

> <Smiles>
CNC(C)C(=O)NC(C(=O)N1Cc2cc([101O:1][101CH:1]3CCCN(Cc4ccc(C)c([100NH:0][100C:0](=O)N5CCCC(n6nc(-c7ccc(Oc8ccc(F)cc8F)cc7)c(C(N)=O)c6N)C5)c4)C3=O)ccc2CC1C(=O)NC1CCCc2ccccc21)C(C)(C)C

> <Shape>
0.241

> <Color>
0.084

> <Negative vol penalty>
0.000

$$$$

  -OEChem-04042322093D

 84 92  0     1  0  0  0  0  0999 V2000
  -35.7627  -25.5543   28.9643 C   0  0  0  0  0  0  0  0  0  0  0  0
  -35.4515  -24.9542   27.7483 C   0  0  0  0  0  0  0  0  0  0  0  0
  -23.0765   -9.8669   19.9383 C   0  0  0  0  0  0  0  0  0  0  0  0
  -23.8414   -9.8694   22.2300 C   0  0  0  0  0  0  0  0  0  0  0  0
  -35.2502  -26.8144   29.2698 C   0  0  0  0  0  0  0  0  0  0  0  0
  -34.6266  -25.6135   26.8377 C   0  0  0  0  0  0  0  0  0  0  0  0
  -35.0057  -25.4346   20.7278 C   0  0  0  0  0  0  0  0  0  0  0  0
  -22.3361   -8.7112   20.1867 C   0  0  0  0  0  0  0  0  0  0  0  0
  -23.1009   -8.7137   22.4784 C   0  0  0  0  0  0  0  0  0  0  0  0
  -34.3161  -24.6970   19.7664 C   0  0  0  0  0  0  0  0  0  0  0  0
  -19.8760   -7.9063   23.0858 C   0  0  0  0  0  0  0  0  0  0  0  0
  -19.1217   -7.8612   24.2582 C   0  0  0  0  0  0  0  0  0  0  0  0
  -32.8062  -26.5493   19.4370 C   0  0  0  0  0  0  0  0  0  0  0  0
  -29.1575  -19.7157   19.9606 C   0  0  0  0  0  0  0  0  0  0  0  0
  -31.6015  -18.3744   20.0616 C   0  0  0  0  0  0  0  0  0  0  0  0
  -20.3695   -5.9248   24.9865 C   0  0  0  0  0  0  0  0  0  0  0  0
  -23.8293  -10.4459   20.9600 C   0  0  0  0  0  0  0  0  0  0  0  0
  -24.1646  -12.9722   20.8462 C   0  0  0  0  0  0  0  0  0  0  0  0
  -34.4265  -27.4937   28.3584 C   0  0  0  0  0  0  0  0  0  0  0  0
  -34.5933  -26.7333   21.0594 C   0  0  0  0  0  0  0  0  0  0  0  0
  -34.1015  -26.8833   27.1319 C   0  0  0  0  0  0  0  0  0  0  0  0
  -33.4938  -27.3022   20.4010 C   0  0  0  0  0  0  0  0  0  0  0  0
  -29.3496  -18.6845   20.8799 C   0  0  0  0  0  0  0  0  0  0  0  0
  -30.1874  -20.0763   19.0917 C   0  0  0  0  0  0  0  0  0  0  0  0
  -30.5716  -18.0138   20.9305 C   0  0  0  0  0  0  0  0  0  0  0  0
  -22.3482   -8.1346   21.4567 C   0  0  0  0  0  0  0  0  0  0  0  0
  -33.2145  -25.2532   19.1229 C   0  0  0  0  0  0  0  0  0  0  0  0
  -20.8770   -6.9605   22.8637 C   0  0  0  0  0  0  0  0  0  0  0  0
  -19.3685   -6.8705   25.2086 C   0  0  0  0  0  0  0  0  0  0  0  0
  -21.1238   -5.9698   23.8141 C   0  0  0  0  0  0  0  0  0  0  0  0
  -31.4095  -19.4057   19.1422 C   0  0  0  0  0  0  0  0  0  0  0  0
  -24.5949  -11.6394   20.7039 C   0  0  0  0  0  0  0  0  0  0  0  0
  -25.2541  -13.7254   20.4826 C   0  0  0  0  0  0  0  0  0  0  0  0
  -22.8938  -13.4838   21.2693 C   0  0  0  0  0  0  0  0  0  0  0  0
  -33.5393  -28.1453   23.7049 C   0  0  0  0  0  0  0  0  0  0  0  0
  -33.7180  -30.8219   21.8810 C   0  0  0  0  0  0  0  0  0  0  0  0
  -33.7313  -32.2068   18.7619 C   0  0  0  0  0  0  0  0  0  0  0  0
  -30.7358  -14.7574   20.6619 C   0  0  0  0  0  0  0  0  0  0  0  0
  -33.8578  -28.8337   28.7529 C   0  0  0  0  0  0  0  0  0  0  0  0
  -35.3640  -27.5257   22.0794 C   0  0  0  0  0  0  0  0  0  0  0  0
  -33.0231  -28.7000   20.7062 C   0  0  0  0  0  0  0  0  0  0  0  0
  -33.2953  -29.6269   27.5762 C   0  0  0  0  0  0  0  0  0  0  0  0
  -29.5988  -12.3768   18.2710 C   0  0  0  0  0  0  0  0  0  0  0  0
  -32.4194  -28.7356   26.7015 C   0  0  0  0  0  0  0  0  0  0  0  0
  -28.1631  -12.0783   18.7062 C   0  0  0  0  0  0  0  0  0  0  0  0
  -30.5180  -12.5965   19.4705 C   0  0  0  0  0  0  0  0  0  0  0  0
  -28.6175  -13.3191   20.8632 C   0  0  0  0  0  0  0  0  0  0  0  0
  -33.2302  -27.5775   26.1076 C   0  0  1  0  0  0  0  0  0  0  0  0
  -34.5442  -28.6485   22.7076 C   0  0  1  0  0  0  0  0  0  0  0  0
  -27.6412  -13.1453   19.6872 C   0  0  2  0  0  0  0  0  0  0  0  0
  -28.2324  -18.3135   21.7991 C   0  0  0  0  0  0  0  0  0  0  0  0
  -33.8522  -34.4231   17.5912 C   0  0  0  0  0  0  0  0  0  0  0  0
  -30.8074  -31.3666   22.6168 C   0  0  0  0  0  0  0  0  0  0  0  0
  -30.7059  -32.9978   20.7202 C   0  0  0  0  0  0  0  0  0  0  0  0
  -32.2792  -33.3885   22.6162 C   0  0  0  0  0  0  0  0  0  0  0  0
  -36.2361  -31.4660   17.3704 C   0  0  0  0  0  0  0  0  0  0  0  0
  -30.7990  -16.9047   21.9046 C   0  0  0  0  0  0  0  0  0  0  0  0
  -29.9406  -21.1906   18.1178 C   0  0  0  0  0  0  0  0  0  0  0  0
  -30.4402  -23.5649   17.5249 C   0  0  0  0  0  0  0  0  0  0  0  0
  -31.1453  -24.8042   18.0400 C   0  0  0  0  0  0  0  0  0  1  0  0
  -32.7740  -31.5489   20.9540 C   0  0  1  0  0  0  0  0  0  0  0  0
  -34.6434  -33.2375   18.1213 C   0  0  2  0  0  0  0  0  0  0  0  0
  -31.6491  -32.2984   21.7222 C   0  0  0  0  0  0  0  0  0  0  0  0
  -25.8590  -11.5478   20.2826 N   0  0  0  0  0  0  0  0  0  0  0  0
  -26.2325  -12.8327   20.1570 N   0  0  0  0  0  0  0  0  0  0  0  0
  -33.8057  -29.4323   21.7155 N   0  0  0  0  0  0  0  0  0  0  0  0
  -29.9669  -13.6212   20.3605 N   0  0  0  0  0  0  0  0  0  0  0  0
  -25.4611  -15.0576   20.4129 N   0  0  0  0  0  0  0  0  0  0  0  0
  -21.8849  -12.5712   21.6063 N   0  0  0  0  0  0  0  0  0  0  0  0
  -34.0291  -28.0393   24.9927 N   0  0  0  0  0  0  0  0  0  0  0  0
  -33.6044  -32.4108   20.1197 N   0  0  0  0  0  0  0  0  0  0  0  0
  -30.1362  -15.6824   21.5078 N   0  0  0  0  0  0  0  0  0  0  0  0
  -35.3959  -32.6298   16.9876 N   0  3  0  0  0  0  0  0  0  0  0  0
  -30.6166  -22.4597   18.5003 N   0  3  0  0  0  0  0  0  0  0  0  0
  -22.6547  -14.7136   21.3306 O   0  0  0  0  0  0  0  0  0  0  0  0
  -32.4031  -27.8748   23.3338 O   0  0  0  0  0  0  0  0  0  0  0  0
  -34.3595  -31.4641   22.7163 O   0  0  0  0  0  0  0  0  0  0  0  0
  -33.1832  -31.3126   18.1213 O   0  0  0  0  0  0  0  0  0  0  0  0
  -31.8703  -14.9370   20.2063 O   0  0  0  0  0  0  0  0  0  0  0  0
  -21.6256   -7.0070   21.6995 O   0  0  0  0  0  0  0  0  0  0  0  0
  -32.5392  -24.5352   18.1847 O   0  0  0  0  0  0  0  0  0  1  0  0
  -18.6451   -6.8283   26.3351 F   0  0  0  0  0  0  0  0  0  0  0  0
  -22.0849   -5.0593   23.6068 F   0  0  0  0  0  0  0  0  0  0  0  0
  -32.7065  -19.8239   18.0830 Cl  0  0  0  0  0  0  0  0  0  0  0  0
  1  2  1  0  0  0  0
  1  5  2  0  0  0  0
  2  6  2  0  0  0  0
  3  8  2  0  0  0  0
  3 17  1  0  0  0  0
  4  9  1  0  0  0  0
  4 17  2  0  0  0  0
  5 19  1  0  0  0  0
  6 21  1  0  0  0  0
  7 10  2  0  0  0  0
  7 20  1  0  0  0  0
  8 26  1  0  0  0  0
  9 26  2  0  0  0  0
 10 27  1  0  0  0  0
 11 12  2  0  0  0  0
 11 28  1  0  0  0  0
 12 29  1  0  0  0  0
 13 22  1  0  0  0  0
 13 27  2  0  0  0  0
 14 23  2  0  0  0  0
 14 24  1  0  0  0  0
 15 25  2  0  0  0  0
 15 31  1  0  0  0  0
 16 29  2  0  0  0  0
 16 30  1  0  0  0  0
 17 32  1  0  0  0  0
 18 32  1  0  0  0  0
 18 33  2  0  0  0  0
 18 34  1  0  0  0  0
 19 21  2  0  0  0  0
 19 39  1  0  0  0  0
 20 22  2  0  0  0  0
 20 40  1  0  0  0  0
 21 48  1  0  0  0  0
 22 41  1  0  0  0  0
 23 25  1  0  0  0  0
 23 51  1  0  0  0  0
 24 31  2  0  0  0  0
 24 58  1  0  0  0  0
 25 57  1  0  0  0  0
 26 80  1  0  0  0  0
 27 81  1  0  0  0  0
 28 30  2  0  0  0  0
 28 80  1  0  0  0  0
 29 82  1  0  0  0  0
 30 83  1  0  0  0  0
 31 84  1  0  0  0  0
 32 64  2  0  0  0  0
 33 65  1  0  0  0  0
 33 68  1  0  0  0  0
 34 69  1  0  0  0  0
 34 75  2  0  0  0  0
 35 49  1  0  0  0  0
 35 70  1  0  0  0  0
 35 76  2  0  0  0  0
 36 61  1  0  0  0  0
 36 66  1  0  0  0  0
 36 77  2  0  0  0  0
 37 62  1  0  0  0  0
 37 71  1  0  0  0  0
 37 78  2  0  0  0  0
 38 67  1  0  0  0  0
 38 72  1  0  0  0  0
 38 79  2  0  0  0  0
 39 42  1  0  0  0  0
 40 49  1  0  0  0  0
 41 66  1  0  0  0  0
 42 44  1  0  0  0  0
 43 45  1  0  0  0  0
 43 46  1  0  0  0  0
 44 48  1  0  0  0  0
 45 50  1  0  0  0  0
 46 67  1  0  0  0  0
 47 50  1  0  0  0  0
 47 67  1  0  0  0  0
 48 70  1  0  0  0  0
 49 66  1  0  0  0  0
 50 65  1  0  0  0  0
 52 62  1  0  0  0  0
 53 63  1  0  0  0  0
 54 63  1  0  0  0  0
 55 63  1  0  0  0  0
 56 73  1  0  0  0  0
 57 72  1  0  0  0  0
 58 74  1  0  0  0  0
 59 60  1  0  0  0  0
 59 74  1  0  0  0  0
 60 81  1  0  0  0  0
 61 63  1  0  0  0  0
 61 71  1  0  0  0  0
 62 73  1  0  0  0  0
 64 65  1  0  0  0  0
M  CHG  2  73   1  74   1
M  ISO  4  38 100  60 101  72 100  81 101
M  END
> <Batch ID>
0041

> <Smiles>
CNC(C)C(=O)NC(C(=O)N1Cc2cc([101O:1][101CH2:1]CNCc3cc(C)c(C[100NH:0][100C:0](=O)N4CCCC(n5nc(-c6ccc(Oc7ccc(F)cc7F)cc6)c(C(N)=O)c5N)C4)cc3Cl)ccc2CC1C(=O)NC1CCCc2ccccc21)C(C)(C)C

> <Shape>
0.213

> <Color>
0.192

> <Negative vol penalty>
0.000

$$$$

  -OEChem-04042322093D

 84 92  0     1  0  0  0  0  0999 V2000
  -27.9850  -24.6173   16.8752 C   0  0  0  0  0  0  0  0  0  0  0  0
  -26.8048  -24.8392   17.5776 C   0  0  0  0  0  0  0  0  0  0  0  0
  -25.8421  -12.1691   19.9633 C   0  0  0  0  0  0  0  0  0  0  0  0
  -24.2007  -12.9081   21.5748 C   0  0  0  0  0  0  0  0  0  0  0  0
  -29.1909  -25.1170   17.3650 C   0  0  0  0  0  0  0  0  0  0  0  0
  -26.8301  -25.5601   18.7709 C   0  0  0  0  0  0  0  0  0  0  0  0
  -23.1039  -28.9777   19.0553 C   0  0  0  0  0  0  0  0  0  0  0  0
  -26.0185  -10.9883   20.6845 C   0  0  0  0  0  0  0  0  0  0  0  0
  -24.3771  -11.7272   22.2960 C   0  0  0  0  0  0  0  0  0  0  0  0
  -21.8312  -28.5069   19.3750 C   0  0  0  0  0  0  0  0  0  0  0  0
  -24.1314   -8.7486   24.3661 C   0  0  0  0  0  0  0  0  0  0  0  0
  -22.9895   -8.0863   24.8167 C   0  0  0  0  0  0  0  0  0  0  0  0
  -22.1511  -29.2115   21.6598 C   0  0  0  0  0  0  0  0  0  0  0  0
  -22.0744  -21.9317   23.3732 C   0  0  0  0  0  0  0  0  0  0  0  0
  -24.2485  -22.6458   21.7776 C   0  0  0  0  0  0  0  0  0  0  0  0
  -22.2307   -7.8428   22.5359 C   0  0  0  0  0  0  0  0  0  0  0  0
  -24.9333  -13.1291   20.4086 C   0  0  0  0  0  0  0  0  0  0  0  0
  -23.8326  -14.5809   18.6230 C   0  0  0  0  0  0  0  0  0  0  0  0
  -29.2295  -25.8527   18.5600 C   0  0  0  0  0  0  0  0  0  0  0  0
  -23.9154  -29.5601   20.0395 C   0  0  0  0  0  0  0  0  0  0  0  0
  -28.0378  -26.0690   19.2779 C   0  0  0  0  0  0  0  0  0  0  0  0
  -23.4327  -29.6913   21.3494 C   0  0  0  0  0  0  0  0  0  0  0  0
  -22.1871  -23.2357   22.8912 C   0  0  0  0  0  0  0  0  0  0  0  0
  -24.1357  -21.3418   22.2597 C   0  0  0  0  0  0  0  0  0  0  0  0
  -25.2859  -10.7673   21.8508 C   0  0  0  0  0  0  0  0  0  0  0  0
  -21.3557  -28.6212   20.6781 C   0  0  0  0  0  0  0  0  0  0  0  0
  -24.3230   -8.9580   23.0004 C   0  0  0  0  0  0  0  0  0  0  0  0
  -22.0392   -7.6334   23.9016 C   0  0  0  0  0  0  0  0  0  0  0  0
  -23.3726   -8.5051   22.0853 C   0  0  0  0  0  0  0  0  0  0  0  0
  -23.0487  -20.9847   23.0575 C   0  0  0  0  0  0  0  0  0  0  0  0
  -23.2741  -23.5928   22.0934 C   0  0  0  0  0  0  0  0  0  0  0  0
  -24.7511  -14.3494   19.6644 C   0  0  0  0  0  0  0  0  0  0  0  0
  -24.0548  -15.8848   18.2527 C   0  0  0  0  0  0  0  0  0  0  0  0
  -22.8649  -13.6965   18.0423 C   0  0  0  0  0  0  0  0  0  0  0  0
  -26.7404  -28.8626   21.3189 C   0  0  0  0  0  0  0  0  0  0  0  0
  -26.3313  -31.7133   22.8117 C   0  0  0  0  0  0  0  0  0  0  0  0
  -24.1804  -34.1122   23.9367 C   0  0  0  0  0  0  0  0  0  0  0  0
  -26.2732  -20.6255   21.1352 C   0  0  0  0  0  0  0  0  0  0  0  0
  -30.5637  -26.3324   19.0744 C   0  0  0  0  0  0  0  0  0  0  0  0
  -25.2755  -30.0872   19.6725 C   0  0  0  0  0  0  0  0  0  0  0  0
  -24.2566  -30.3270   22.4382 C   0  0  0  0  0  0  0  0  0  0  0  0
  -30.4502  -27.4069   20.1527 C   0  0  0  0  0  0  0  0  0  0  0  0
  -27.5062  -19.2018   18.1137 C   0  0  0  0  0  0  0  0  0  0  0  0
  -29.4107  -27.0088   21.1957 C   0  0  0  0  0  0  0  0  0  0  0  0
  -26.8513  -17.8193   18.0706 C   0  0  0  0  0  0  0  0  0  0  0  0
  -27.8816  -19.6074   19.5379 C   0  0  0  0  0  0  0  0  0  0  0  0
  -26.1333  -18.1444   20.4718 C   0  0  0  0  0  0  0  0  0  0  0  0
  -28.0208  -26.8675   20.5633 C   0  0  1  0  0  0  0  0  0  0  0  0
  -26.2165  -30.1968   20.8683 C   0  0  1  0  0  0  0  0  0  0  0  0
  -25.6785  -17.7200   19.0658 C   0  0  2  0  0  0  0  0  0  0  0  0
  -24.1389  -36.3079   25.1510 C   0  0  0  0  0  0  0  0  0  0  0  0
  -26.8256  -30.2611   25.4493 C   0  0  0  0  0  0  0  0  0  0  0  0
  -25.8515  -32.2368   26.6393 C   0  0  0  0  0  0  0  0  0  0  0  0
  -27.9205  -32.5025   25.2713 C   0  0  0  0  0  0  0  0  0  0  0  0
  -22.9626  -35.5004   21.6240 C   0  0  0  0  0  0  0  0  0  0  0  0
  -21.1179  -24.2241   23.2530 C   0  0  0  0  0  0  0  0  0  0  0  0
  -18.6694  -26.2512   21.1183 C   0  0  0  0  0  0  0  0  0  0  0  0
  -19.3125  -25.7189   22.3900 C   0  0  0  0  0  0  0  0  0  0  0  0
  -19.6208  -27.0545   20.2400 C   0  0  0  0  0  0  0  0  0  1  0  0
  -25.7016  -32.1601   24.1090 C   0  0  1  0  0  0  0  0  0  0  0  0
  -24.1931  -35.6235   23.7941 C   0  0  2  0  0  0  0  0  0  0  0  0
  -26.5598  -31.7764   25.3474 C   0  0  0  0  0  0  0  0  0  0  0  0
  -25.5011  -15.4202   19.9380 N   0  0  0  0  0  0  0  0  0  0  0  0
  -25.0542  -16.3372   19.0630 N   0  0  0  0  0  0  0  0  0  0  0  0
  -25.5823  -30.8213   22.0311 N   0  0  0  0  0  0  0  0  0  0  0  0
  -26.7207  -19.4925   20.4233 N   0  0  0  0  0  0  0  0  0  0  0  0
  -23.4909  -16.6769   17.3162 N   0  0  0  0  0  0  0  0  0  0  0  0
  -22.7686  -12.3906   18.5420 N   0  0  0  0  0  0  0  0  0  0  0  0
  -25.1418  -20.4038   21.9197 N   0  0  0  0  0  0  0  0  0  0  0  0
  -27.4312  -28.1705   20.3425 N   0  0  0  0  0  0  0  0  0  0  0  0
  -25.4568  -33.5918   23.9720 N   0  0  0  0  0  0  0  0  0  0  0  0
  -23.0225  -36.0779   22.9914 N   0  3  0  0  0  0  0  0  0  0  0  0
  -20.4175  -24.7867   22.0654 N   0  3  0  0  0  0  0  0  0  0  0  0
  -22.1194  -14.0486   17.0970 O   0  0  0  0  0  0  0  0  0  0  0  0
  -26.5345  -28.4893   22.4678 O   0  0  0  0  0  0  0  0  0  0  0  0
  -27.4435  -32.1455   22.4990 O   0  0  0  0  0  0  0  0  0  0  0  0
  -23.1421  -33.4591   24.0132 O   0  0  0  0  0  0  0  0  0  0  0  0
  -26.8348  -21.7193   21.0337 O   0  0  0  0  0  0  0  0  0  0  0  0
  -25.4576   -9.6150   22.5546 O   0  0  0  0  0  0  0  0  0  0  0  0
  -20.1140  -28.1619   20.9930 O   0  0  0  0  0  0  0  0  0  1  0  0
  -20.9434   -6.9961   24.3344 F   0  0  0  0  0  0  0  0  0  0  0  0
  -23.5517   -8.7024   20.7720 F   0  0  0  0  0  0  0  0  0  0  0  0
  -22.8709  -19.3814   23.6757 Cl  0  0  0  0  0  0  0  0  0  0  0  0
  -23.4468  -25.1972   21.4804 Cl  0  0  0  0  0  0  0  0  0  0  0  0
  1  2  1  0  0  0  0
  1  5  2  0  0  0  0
  2  6  2  0  0  0  0
  3  8  2  0  0  0  0
  3 17  1  0  0  0  0
  4  9  1  0  0  0  0
  4 17  2  0  0  0  0
  5 19  1  0  0  0  0
  6 21  1  0  0  0  0
  7 10  2  0  0  0  0
  7 20  1  0  0  0  0
  8 25  1  0  0  0  0
  9 25  2  0  0  0  0
 10 26  1  0  0  0  0
 11 12  2  0  0  0  0
 11 27  1  0  0  0  0
 12 28  1  0  0  0  0
 13 22  1  0  0  0  0
 13 26  2  0  0  0  0
 14 23  1  0  0  0  0
 14 30  2  0  0  0  0
 15 24  2  0  0  0  0
 15 31  1  0  0  0  0
 16 28  2  0  0  0  0
 16 29  1  0  0  0  0
 17 32  1  0  0  0  0
 18 32  1  0  0  0  0
 18 33  2  0  0  0  0
 18 34  1  0  0  0  0
 19 21  2  0  0  0  0
 19 39  1  0  0  0  0
 20 22  2  0  0  0  0
 20 40  1  0  0  0  0
 21 48  1  0  0  0  0
 22 41  1  0  0  0  0
 23 31  2  0  0  0  0
 23 56  1  0  0  0  0
 24 30  1  0  0  0  0
 24 69  1  0  0  0  0
 25 79  1  0  0  0  0
 26 80  1  0  0  0  0
 27 29  2  0  0  0  0
 27 79  1  0  0  0  0
 28 81  1  0  0  0  0
 29 82  1  0  0  0  0
 30 83  1  0  0  0  0
 31 84  1  0  0  0  0
 32 63  2  0  0  0  0
 33 64  1  0  0  0  0
 33 67  1  0  0  0  0
 34 68  1  0  0  0  0
 34 74  2  0  0  0  0
 35 49  1  0  0  0  0
 35 70  1  0  0  0  0
 35 75  2  0  0  0  0
 36 60  1  0  0  0  0
 36 65  1  0  0  0  0
 36 76  2  0  0  0  0
 37 61  1  0  0  0  0
 37 71  1  0  0  0  0
 37 77  2  0  0  0  0
 38 66  1  0  0  0  0
 38 69  1  0  0  0  0
 38 78  2  0  0  0  0
 39 42  1  0  0  0  0
 40 49  1  0  0  0  0
 41 65  1  0  0  0  0
 42 44  1  0  0  0  0
 43 45  1  0  0  0  0
 43 46  1  0  0  0  0
 44 48  1  0  0  0  0
 45 50  1  0  0  0  0
 46 66  1  0  0  0  0
 47 50  1  0  0  0  0
 47 66  1  0  0  0  0
 48 70  1  0  0  0  0
 49 65  1  0  0  0  0
 50 64  1  0  0  0  0
 51 61  1  0  0  0  0
 52 62  1  0  0  0  0
 53 62  1  0  0  0  0
 54 62  1  0  0  0  0
 55 72  1  0  0  0  0
 56 73  1  0  0  0  0
 57 58  1  0  0  0  0
 57 59  1  0  0  0  0
 58 73  1  0  0  0  0
 59 80  1  0  0  0  0
 60 62  1  0  0  0  0
 60 71  1  0  0  0  0
 61 72  1  0  0  0  0
 63 64  1  0  0  0  0
M  CHG  2  72   1  73   1
M  ISO  4  38 100  59 101  69 100  80 101
M  END
> <Batch ID>
0041

> <Smiles>
CNC(C)C(=O)NC(C(=O)N1Cc2cc([101O:1][101CH2:1]CCNCc3cc(Cl)c([100NH:0][100C:0](=O)N4CCCC(n5nc(-c6ccc(Oc7ccc(F)cc7F)cc6)c(C(N)=O)c5N)C4)cc3Cl)ccc2CC1C(=O)NC1CCCc2ccccc21)C(C)(C)C

> <Shape>
0.295

> <Color>
0.078

> <Negative vol penalty>
0.000

$$$$

  -OEChem-04042322093D

 85 93  0     1  0  0  0  0  0999 V2000
  -20.2825  -25.4664   15.3647 C   0  0  0  0  0  0  0  0  0  0  0  0
  -21.5654  -24.9593   15.5447 C   0  0  0  0  0  0  0  0  0  0  0  0
  -23.1350  -10.0227   19.8691 C   0  0  0  0  0  0  0  0  0  0  0  0
  -23.9450   -9.8668   22.1400 C   0  0  0  0  0  0  0  0  0  0  0  0
  -20.0742  -26.8450   15.3541 C   0  0  0  0  0  0  0  0  0  0  0  0
  -22.6410  -25.8306   15.7131 C   0  0  0  0  0  0  0  0  0  0  0  0
  -25.7256  -24.4061   19.4683 C   0  0  0  0  0  0  0  0  0  0  0  0
  -31.7496  -17.8885   24.3114 C   0  0  0  0  0  0  0  0  0  0  0  0
  -30.8567  -16.9952   24.9031 C   0  0  0  0  0  0  0  0  0  0  0  0
  -22.4364   -8.8270   20.0362 C   0  0  0  0  0  0  0  0  0  0  0  0
  -23.2464   -8.6711   22.3071 C   0  0  0  0  0  0  0  0  0  0  0  0
  -26.6174  -23.3684   19.2007 C   0  0  0  0  0  0  0  0  0  0  0  0
  -23.6374   -5.4192   21.4686 C   0  0  0  0  0  0  0  0  0  0  0  0
  -24.3032   -4.3605   22.0863 C   0  0  0  0  0  0  0  0  0  0  0  0
  -28.3804  -24.9794   18.8605 C   0  0  0  0  0  0  0  0  0  0  0  0
  -31.8465  -16.4888   22.3445 C   0  0  0  0  0  0  0  0  0  0  0  0
  -22.6352   -4.3314   23.8340 C   0  0  0  0  0  0  0  0  0  0  0  0
  -23.8893  -10.5425   20.9210 C   0  0  0  0  0  0  0  0  0  0  0  0
  -24.1425  -13.0795   21.0058 C   0  0  0  0  0  0  0  0  0  0  0  0
  -21.1463  -27.7335   15.5321 C   0  0  0  0  0  0  0  0  0  0  0  0
  -26.1527  -25.7410   19.4232 C   0  0  0  0  0  0  0  0  0  0  0  0
  -22.4470  -27.2224   15.7036 C   0  0  0  0  0  0  0  0  0  0  0  0
  -27.4927  -26.0321   19.1304 C   0  0  0  0  0  0  0  0  0  0  0  0
  -32.2445  -17.6354   23.0320 C   0  0  0  0  0  0  0  0  0  0  0  0
  -30.4586  -15.8487   24.2156 C   0  0  0  0  0  0  0  0  0  0  0  0
  -30.9536  -15.5954   22.9363 C   0  0  0  0  0  0  0  0  0  0  0  0
  -22.4921   -8.1512   21.2551 C   0  0  0  0  0  0  0  0  0  0  0  0
  -27.9444  -23.6551   18.8939 C   0  0  0  0  0  0  0  0  0  0  0  0
  -22.4706   -5.9340   22.0335 C   0  0  0  0  0  0  0  0  0  0  0  0
  -23.8021   -3.8166   23.2690 C   0  0  0  0  0  0  0  0  0  0  0  0
  -21.9695   -5.3901   23.2162 C   0  0  0  0  0  0  0  0  0  0  0  0
  -24.6116  -11.7774   20.7489 C   0  0  0  0  0  0  0  0  0  0  0  0
  -25.2002  -13.8950   20.6854 C   0  0  0  0  0  0  0  0  0  0  0  0
  -31.3910  -21.2466   20.4339 C   0  0  0  0  0  0  0  0  0  0  0  0
  -30.8291  -21.5470   19.2551 C   0  0  0  0  0  0  0  0  0  0  0  0
  -22.8648  -13.5132   21.4908 C   0  0  0  0  0  0  0  0  0  0  0  0
  -32.0184  -19.9137   20.6504 C   0  0  0  0  0  0  0  0  0  0  0  0
  -25.3838  -28.2844   17.6785 C   0  0  0  0  0  0  0  0  0  0  0  0
  -27.3859  -29.8086   19.7256 C   0  0  0  0  0  0  0  0  0  0  0  0
  -30.0125  -29.6101   21.8955 C   0  0  0  0  0  0  0  0  0  0  0  0
  -30.9681  -14.0533   20.9443 C   0  0  0  0  0  0  0  0  0  0  0  0
  -20.8790  -29.2163   15.4659 C   0  0  0  0  0  0  0  0  0  0  0  0
  -25.1846  -26.8476   19.7405 C   0  0  0  0  0  0  0  0  0  0  0  0
  -28.0061  -27.4474   19.0891 C   0  0  0  0  0  0  0  0  0  0  0  0
  -22.0169  -30.0660   16.0257 C   0  0  0  0  0  0  0  0  0  0  0  0
  -29.2544  -13.4079   17.8908 C   0  0  0  0  0  0  0  0  0  0  0  0
  -23.3595  -29.5817   15.4873 C   0  0  0  0  0  0  0  0  0  0  0  0
  -27.8361  -13.0488   18.3399 C   0  0  0  0  0  0  0  0  0  0  0  0
  -30.3083  -12.8736   18.8591 C   0  0  0  0  0  0  0  0  0  0  0  0
  -28.6871  -12.8872   20.7141 C   0  0  0  0  0  0  0  0  0  0  0  0
  -23.6357  -28.1350   15.9143 C   0  0  1  0  0  0  0  0  0  0  0  0
  -25.6063  -28.1947   19.1617 C   0  0  1  0  0  0  0  0  0  0  0  0
  -27.5878  -13.4597   19.8045 C   0  0  2  0  0  0  0  0  0  0  0  0
  -29.5017  -14.9089   24.8745 C   0  0  0  0  0  0  0  0  0  0  0  0
  -31.4470  -31.0296   23.3870 C   0  0  0  0  0  0  0  0  0  0  0  0
  -28.8820  -30.8592   17.2827 C   0  0  0  0  0  0  0  0  0  0  0  0
  -30.7917  -31.4464   18.7915 C   0  0  0  0  0  0  0  0  0  0  0  0
  -28.5697  -32.5332   19.1143 C   0  0  0  0  0  0  0  0  0  0  0  0
  -29.1781  -28.1187   24.3118 C   0  0  0  0  0  0  0  0  0  0  0  0
  -33.2055  -18.5976   22.3958 C   0  0  0  0  0  0  0  0  0  0  0  0
  -30.1864  -22.8652   18.9657 C   0  0  0  0  0  0  0  0  0  1  0  0
  -28.8660  -30.1046   19.7518 C   0  0  1  0  0  0  0  0  0  0  0  0
  -30.2039  -30.1581   23.2982 C   0  0  2  0  0  0  0  0  0  0  0  0
  -29.2675  -31.2092   18.7339 C   0  0  0  0  0  0  0  0  0  0  0  0
  -25.8694  -11.7617   20.2997 N   0  0  0  0  0  0  0  0  0  0  0  0
  -26.1995  -13.0641   20.2718 N   0  0  0  0  0  0  0  0  0  0  0  0
  -27.0195  -28.4949   19.4004 N   0  0  0  0  0  0  0  0  0  0  0  0
  -30.0104  -13.3064   20.2262 N   0  0  0  0  0  0  0  0  0  0  0  0
  -25.3636  -15.2346   20.7198 N   0  0  0  0  0  0  0  0  0  0  0  0
  -21.8921  -12.5437   21.7705 N   0  0  0  0  0  0  0  0  0  0  0  0
  -30.5607  -14.4367   22.2217 N   0  0  0  0  0  0  0  0  0  0  0  0
  -32.5425  -19.7935   21.9262 N   0  0  0  0  0  0  0  0  0  0  0  0
  -24.0711  -28.0895   17.2937 N   0  0  0  0  0  0  0  0  0  0  0  0
  -29.1945  -30.4211   21.1375 N   0  0  0  0  0  0  0  0  0  0  0  0
  -30.3414  -29.0420   24.2761 N   0  3  0  0  0  0  0  0  0  0  0  0
  -22.5883  -14.7256   21.6554 O   0  0  0  0  0  0  0  0  0  0  0  0
  -32.0470  -19.0497   19.7801 O   0  0  0  0  0  0  0  0  0  0  0  0
  -26.3327  -28.5149   16.9380 O   0  0  0  0  0  0  0  0  0  0  0  0
  -26.5845  -30.7081   19.9911 O   0  0  0  0  0  0  0  0  0  0  0  0
  -30.5391  -28.5689   21.5095 O   0  0  0  0  0  0  0  0  0  0  0  0
  -32.0579  -14.3556   20.4515 O   0  0  0  0  0  0  0  0  0  0  0  0
  -21.8104   -6.9845   21.4186 O   0  0  0  0  0  0  0  0  0  0  0  0
  -28.8168  -22.6441   18.6317 O   0  0  0  0  0  0  0  0  0  1  0  0
  -24.4407   -2.7990   23.8613 F   0  0  0  0  0  0  0  0  0  0  0  0
  -20.8483   -5.8797   23.7630 F   0  0  0  0  0  0  0  0  0  0  0  0
  1  2  1  0  0  0  0
  1  5  2  0  0  0  0
  2  6  2  0  0  0  0
  3 10  2  0  0  0  0
  3 18  1  0  0  0  0
  4 11  1  0  0  0  0
  4 18  2  0  0  0  0
  5 20  1  0  0  0  0
  6 22  1  0  0  0  0
  7 12  2  0  0  0  0
  7 21  1  0  0  0  0
  8  9  2  0  0  0  0
  8 24  1  0  0  0  0
  9 25  1  0  0  0  0
 10 27  1  0  0  0  0
 11 27  2  0  0  0  0
 12 28  1  0  0  0  0
 13 14  2  0  0  0  0
 13 29  1  0  0  0  0
 14 30  1  0  0  0  0
 15 23  1  0  0  0  0
 15 28  2  0  0  0  0
 16 24  2  0  0  0  0
 16 26  1  0  0  0  0
 17 30  2  0  0  0  0
 17 31  1  0  0  0  0
 18 32  1  0  0  0  0
 19 32  1  0  0  0  0
 19 33  2  0  0  0  0
 19 36  1  0  0  0  0
 20 22  2  0  0  0  0
 20 42  1  0  0  0  0
 21 23  2  0  0  0  0
 21 43  1  0  0  0  0
 22 51  1  0  0  0  0
 23 44  1  0  0  0  0
 24 60  1  0  0  0  0
 25 26  2  0  0  0  0
 25 54  1  0  0  0  0
 26 71  1  0  0  0  0
 27 82  1  0  0  0  0
 28 83  1  0  0  0  0
 29 31  2  0  0  0  0
 29 82  1  0  0  0  0
 30 84  1  0  0  0  0
 31 85  1  0  0  0  0
 32 65  2  0  0  0  0
 33 66  1  0  0  0  0
 33 69  1  0  0  0  0
 34 35  2  0  0  0  0
 34 37  1  0  0  0  0
 35 61  1  0  0  0  0
 36 70  1  0  0  0  0
 36 76  2  0  0  0  0
 37 72  1  0  0  0  0
 37 77  2  0  0  0  0
 38 52  1  0  0  0  0
 38 73  1  0  0  0  0
 38 78  2  0  0  0  0
 39 62  1  0  0  0  0
 39 67  1  0  0  0  0
 39 79  2  0  0  0  0
 40 63  1  0  0  0  0
 40 74  1  0  0  0  0
 40 80  2  0  0  0  0
 41 68  1  0  0  0  0
 41 71  1  0  0  0  0
 41 81  2  0  0  0  0
 42 45  1  0  0  0  0
 43 52  1  0  0  0  0
 44 67  1  0  0  0  0
 45 47  1  0  0  0  0
 46 48  1  0  0  0  0
 46 49  1  0  0  0  0
 47 51  1  0  0  0  0
 48 53  1  0  0  0  0
 49 68  1  0  0  0  0
 50 53  1  0  0  0  0
 50 68  1  0  0  0  0
 51 73  1  0  0  0  0
 52 67  1  0  0  0  0
 53 66  1  0  0  0  0
 55 63  1  0  0  0  0
 56 64  1  0  0  0  0
 57 64  1  0  0  0  0
 58 64  1  0  0  0  0
 59 75  1  0  0  0  0
 60 72  1  0  0  0  0
 61 83  1  0  0  0  0
 62 64  1  0  0  0  0
 62 74  1  0  0  0  0
 63 75  1  0  0  0  0
 65 66  1  0  0  0  0
M  CHG  1  75   1
M  ISO  4  41 100  61 101  71 100  83 101
M  END
> <Batch ID>
0041

> <Smiles>
CNC(C)C(=O)NC(C(=O)N1Cc2cc([101O:1][101CH2:1]C=CC(=O)NCc3ccc(C)c([100NH:0][100C:0](=O)N4CCCC(n5nc(-c6ccc(Oc7ccc(F)cc7F)cc6)c(C(N)=O)c5N)C4)c3)ccc2CC1C(=O)NC1CCCc2ccccc21)C(C)(C)C

> <Shape>
0.229

> <Color>
0.200

> <Negative vol penalty>
0.000

$$$$

  -OEChem-04042322093D

 88 97  0     1  0  0  0  0  0999 V2000
  -27.6617  -37.8007   22.6578 C   0  0  0  0  0  0  0  0  0  0  0  0
  -28.1469  -36.7856   21.8396 C   0  0  0  0  0  0  0  0  0  0  0  0
  -30.1840   -8.1544   19.0289 C   0  0  0  0  0  0  0  0  0  0  0  0
  -30.7303  -10.3821   18.2700 C   0  0  0  0  0  0  0  0  0  0  0  0
  -26.9191  -37.4834   23.7944 C   0  0  0  0  0  0  0  0  0  0  0  0
  -27.8907  -35.4524   22.1582 C   0  0  0  0  0  0  0  0  0  0  0  0
  -26.7240  -29.0979   19.0638 C   0  0  0  0  0  0  0  0  0  0  0  0
  -30.9705   -7.6148   18.0112 C   0  0  0  0  0  0  0  0  0  0  0  0
  -31.5170   -9.8425   17.2523 C   0  0  0  0  0  0  0  0  0  0  0  0
  -27.1871  -27.7832   19.0955 C   0  0  0  0  0  0  0  0  0  0  0  0
  -34.2574   -7.0914   17.4151 C   0  0  0  0  0  0  0  0  0  0  0  0
  -35.1206   -6.0474   17.7475 C   0  0  0  0  0  0  0  0  0  0  0  0
  -25.8255  -27.3569   21.0406 C   0  0  0  0  0  0  0  0  0  0  0  0
  -25.8860  -18.0716   19.3316 C   0  0  0  0  0  0  0  0  0  0  0  0
  -33.9905   -4.6102   16.1682 C   0  0  0  0  0  0  0  0  0  0  0  0
  -30.0638   -9.5381   19.1582 C   0  0  0  0  0  0  0  0  0  0  0  0
  -29.4158   -9.9199   21.5958 C   0  0  0  0  0  0  0  0  0  0  0  0
  -26.6455  -36.1461   24.1218 C   0  0  0  0  0  0  0  0  0  0  0  0
  -25.8150  -29.5558   20.0284 C   0  0  0  0  0  0  0  0  0  0  0  0
  -27.1449  -35.1169   23.3009 C   0  0  0  0  0  0  0  0  0  0  0  0
  -25.3504  -28.6770   21.0174 C   0  0  0  0  0  0  0  0  0  0  0  0
  -26.2199  -19.3498   18.8840 C   0  0  0  0  0  0  0  0  0  0  0  0
  -28.5122  -18.9860   19.5551 C   0  0  0  0  0  0  0  0  0  0  0  0
  -27.5330  -19.8070   18.9958 C   0  0  0  0  0  0  0  0  0  0  0  0
  -28.1782  -17.7078   20.0027 C   0  0  0  0  0  0  0  0  0  0  0  0
  -26.8652  -17.2506   19.8910 C   0  0  0  0  0  0  0  0  0  0  0  0
  -31.6371   -8.4588   17.1229 C   0  0  0  0  0  0  0  0  0  0  0  0
  -26.7401  -26.9133   20.0857 C   0  0  0  0  0  0  0  0  0  0  0  0
  -33.2606   -6.8948   16.4593 C   0  0  0  0  0  0  0  0  0  0  0  0
  -34.9872   -4.8068   17.1240 C   0  0  0  0  0  0  0  0  0  0  0  0
  -33.1272   -5.6542   15.8359 C   0  0  0  0  0  0  0  0  0  0  0  0
  -29.2509  -10.0961   20.2089 C   0  0  0  0  0  0  0  0  0  0  0  0
  -28.3969  -10.6494   22.1582 C   0  0  0  0  0  0  0  0  0  0  0  0
  -28.8904  -23.2824   19.1950 C   0  0  0  0  0  0  0  0  0  0  0  0
  -30.1725  -23.3274   19.5874 C   0  0  0  0  0  0  0  0  0  0  0  0
  -30.4019   -9.1645   22.3118 C   0  0  0  0  0  0  0  0  0  0  0  0
  -25.8710  -31.8036   22.2751 C   0  0  0  0  0  0  0  0  0  0  0  0
  -22.7548  -30.9762   22.6313 C   0  0  0  0  0  0  0  0  0  0  0  0
  -20.8308  -27.9247   22.6916 C   0  0  0  0  0  0  0  0  0  0  0  0
  -25.2408  -15.3670   20.2906 C   0  0  0  0  0  0  0  0  0  0  0  0
  -25.8786  -35.8506   25.3864 C   0  0  0  0  0  0  0  0  0  0  0  0
  -25.3045  -30.9692   19.9645 C   0  0  0  0  0  0  0  0  0  0  0  0
  -24.3592  -29.1136   22.0640 C   0  0  0  0  0  0  0  0  0  0  0  0
  -28.2505  -24.3583   18.3560 C   0  0  0  0  0  0  0  0  0  0  0  0
  -25.3329  -34.4263   25.4491 C   0  0  0  0  0  0  0  0  0  0  0  0
  -23.9536  -12.1904   21.2546 C   0  0  0  0  0  0  0  0  0  0  0  0
  -26.4091  -33.4240   25.0440 C   0  0  0  0  0  0  0  0  0  0  0  0
  -25.1821  -11.2781   21.2279 C   0  0  0  0  0  0  0  0  0  0  0  0
  -26.0598  -23.6354   19.3943 C   0  0  0  0  0  0  0  0  0  0  0  0
  -23.9911  -13.2251   20.1313 C   0  0  0  0  0  0  0  0  0  0  0  0
  -26.4502  -13.1112   20.0368 C   0  0  0  0  0  0  0  0  0  0  0  0
  -26.8170  -22.6494   20.2828 C   0  0  0  0  0  0  0  0  0  0  0  0
  -26.8669  -33.6596   23.5996 C   0  0  1  0  0  0  0  0  0  0  0  0
  -24.7739  -31.4739   21.3028 C   0  0  1  0  0  0  0  0  0  0  0  0
  -26.4891  -12.0940   21.1890 C   0  0  2  0  0  0  0  0  0  0  0  0
  -26.9303  -24.8195   18.9738 C   0  0  1  0  0  0  0  0  0  1  0  0
  -25.1519  -20.2104   18.2923 C   0  0  0  0  0  0  0  0  0  0  0  0
  -29.9205  -19.4772   19.6749 C   0  0  0  0  0  0  0  0  0  0  0  0
  -29.2304  -16.8293   20.6042 C   0  0  0  0  0  0  0  0  0  0  0  0
  -18.4261  -27.5004   22.1131 C   0  0  0  0  0  0  0  0  0  0  0  0
  -22.2676  -31.3735   25.6171 C   0  0  0  0  0  0  0  0  0  0  0  0
  -20.5713  -29.5350   25.5140 C   0  0  0  0  0  0  0  0  0  0  0  0
  -20.2313  -31.6191   24.1861 C   0  0  0  0  0  0  0  0  0  0  0  0
  -21.5515  -25.8254   20.7339 C   0  0  0  0  0  0  0  0  0  0  0  0
  -27.8884  -21.1829   18.5145 C   0  0  0  0  0  0  0  0  0  0  0  0
  -22.0054  -29.9673   23.4677 C   0  0  1  0  0  0  0  0  0  0  0  0
  -19.8654  -27.4378   21.6261 C   0  0  2  0  0  0  0  0  0  0  0  0
  -21.2957  -30.6192   24.6879 C   0  0  0  0  0  0  0  0  0  0  0  0
  -28.2091  -10.8762   19.9085 N   0  0  0  0  0  0  0  0  0  0  0  0
  -27.7102  -11.1965   21.1145 N   0  0  0  0  0  0  0  0  0  0  0  0
  -23.8945  -30.5070   21.9631 N   0  0  0  0  0  0  0  0  0  0  0  0
  -25.2562  -13.9622   20.1594 N   0  0  0  0  0  0  0  0  0  0  0  0
  -28.0303  -10.8696   23.4386 N   0  0  0  0  0  0  0  0  0  0  0  0
  -31.5923   -9.8036   22.6845 N   0  0  0  0  0  0  0  0  0  0  0  0
  -26.5041  -15.9555   20.3383 N   0  0  0  0  0  0  0  0  0  0  0  0
  -25.8950  -33.1281   22.6683 N   0  0  0  0  0  0  0  0  0  0  0  0
  -21.1056  -29.2690   22.5560 N   0  0  0  0  0  0  0  0  0  0  0  0
  -28.0929  -22.1645   19.6351 N   0  3  1  0  0  0  0  0  0  0  0  0
  -20.1742  -26.0286   21.2522 N   0  3  0  0  0  0  0  0  0  0  0  0
  -30.2394   -7.9540   22.5979 O   0  0  0  0  0  0  0  0  0  0  0  0
  -26.6380  -30.9214   22.6425 O   0  0  0  0  0  0  0  0  0  0  0  0
  -22.3399  -32.1362   22.5674 O   0  0  0  0  0  0  0  0  0  0  0  0
  -21.2918  -27.1870   23.5599 O   0  0  0  0  0  0  0  0  0  0  0  0
  -24.1851  -15.9986   20.3832 O   0  0  0  0  0  0  0  0  0  0  0  0
  -32.4049   -7.9325   16.1299 O   0  0  0  0  0  0  0  0  0  0  0  0
  -27.1910  -25.6298   20.1193 O   0  0  0  0  0  0  0  0  0  1  0  0
  -35.8172   -3.8048   17.4421 F   0  0  0  0  0  0  0  0  0  0  0  0
  -32.1723   -5.4597   14.9160 F   0  0  0  0  0  0  0  0  0  0  0  0
  1  2  1  0  0  0  0
  1  5  2  0  0  0  0
  2  6  2  0  0  0  0
  3  8  2  0  0  0  0
  3 16  1  0  0  0  0
  4  9  1  0  0  0  0
  4 16  2  0  0  0  0
  5 18  1  0  0  0  0
  6 20  1  0  0  0  0
  7 10  2  0  0  0  0
  7 19  1  0  0  0  0
  8 27  1  0  0  0  0
  9 27  2  0  0  0  0
 10 28  1  0  0  0  0
 11 12  2  0  0  0  0
 11 29  1  0  0  0  0
 12 30  1  0  0  0  0
 13 21  1  0  0  0  0
 13 28  2  0  0  0  0
 14 22  2  0  0  0  0
 14 26  1  0  0  0  0
 15 30  2  0  0  0  0
 15 31  1  0  0  0  0
 16 32  1  0  0  0  0
 17 32  1  0  0  0  0
 17 33  2  0  0  0  0
 17 36  1  0  0  0  0
 18 20  2  0  0  0  0
 18 41  1  0  0  0  0
 19 21  2  0  0  0  0
 19 42  1  0  0  0  0
 20 53  1  0  0  0  0
 21 43  1  0  0  0  0
 22 24  1  0  0  0  0
 22 57  1  0  0  0  0
 23 24  2  0  0  0  0
 23 25  1  0  0  0  0
 23 58  1  0  0  0  0
 24 65  1  0  0  0  0
 25 26  2  0  0  0  0
 25 59  1  0  0  0  0
 26 75  1  0  0  0  0
 27 85  1  0  0  0  0
 28 86  1  0  0  0  0
 29 31  2  0  0  0  0
 29 85  1  0  0  0  0
 30 87  1  0  0  0  0
 31 88  1  0  0  0  0
 32 69  2  0  0  0  0
 33 70  1  0  0  0  0
 33 73  1  0  0  0  0
 34 35  2  0  0  0  0
 34 44  1  0  0  0  0
 34 78  1  0  0  0  0
 36 74  1  0  0  0  0
 36 80  2  0  0  0  0
 37 54  1  0  0  0  0
 37 76  1  0  0  0  0
 37 81  2  0  0  0  0
 38 66  1  0  0  0  0
 38 71  1  0  0  0  0
 38 82  2  0  0  0  0
 39 67  1  0  0  0  0
 39 77  1  0  0  0  0
 39 83  2  0  0  0  0
 40 72  1  0  0  0  0
 40 75  1  0  0  0  0
 40 84  2  0  0  0  0
 41 45  1  0  0  0  0
 42 54  1  0  0  0  0
 43 71  1  0  0  0  0
 44 56  1  0  0  0  0
 45 47  1  0  0  0  0
 46 48  1  0  0  0  0
 46 50  1  0  0  0  0
 47 53  1  0  0  0  0
 48 55  1  0  0  0  0
 49 52  1  0  0  0  0
 49 56  1  0  0  0  0
 50 72  1  0  0  0  0
 51 55  1  0  0  0  0
 51 72  1  0  0  0  0
 52 78  1  0  0  0  0
 53 76  1  0  0  0  0
 54 71  1  0  0  0  0
 55 70  1  0  0  0  0
 56 86  1  0  0  0  0
 60 67  1  0  0  0  0
 61 68  1  0  0  0  0
 62 68  1  0  0  0  0
 63 68  1  0  0  0  0
 64 79  1  0  0  0  0
 65 78  1  0  0  0  0
 66 68  1  0  0  0  0
 66 77  1  0  0  0  0
 67 79  1  0  0  0  0
 69 70  1  0  0  0  0
M  CHG  2  78   1  79   1
M  ISO  4  40 100  56 101  75 100  86 101
M  END
> <Batch ID>
0041

> <Smiles>
C=C1C[101CH:1]([101O:1]c2ccc3c(c2)CN(C(=O)C(NC(=O)C(C)NC)C(C)(C)C)C(C(=O)NC2CCCc4ccccc42)C3)CCN1Cc1c(C)cc([100NH:0][100C:0](=O)N2CCCC(n3nc(-c4ccc(Oc5ccc(F)cc5F)cc4)c(C(N)=O)c3N)C2)c(C)c1C

> <Shape>
0.270

> <Color>
0.080

> <Negative vol penalty>
0.000

$$$$

  -OEChem-04042322093D

 91100  0     1  0  0  0  0  0999 V2000
  -28.1458  -38.1719   21.7071 C   0  0  0  0  0  0  0  0  0  0  0  0
  -28.2306  -37.1914   20.7239 C   0  0  0  0  0  0  0  0  0  0  0  0
  -25.0190   -8.0526   22.0894 C   0  0  0  0  0  0  0  0  0  0  0  0
  -23.5217   -9.9423   21.9342 C   0  0  0  0  0  0  0  0  0  0  0  0
  -27.9981  -37.8058   23.0443 C   0  0  0  0  0  0  0  0  0  0  0  0
  -28.1689  -35.8439   21.0774 C   0  0  0  0  0  0  0  0  0  0  0  0
  -25.8534  -29.5271   18.6173 C   0  0  0  0  0  0  0  0  0  0  0  0
  -23.9421   -7.1845   21.9099 C   0  0  0  0  0  0  0  0  0  0  0  0
  -22.4447   -9.0743   21.7546 C   0  0  0  0  0  0  0  0  0  0  0  0
  -26.3053  -28.2274   18.3930 C   0  0  0  0  0  0  0  0  0  0  0  0
  -21.4273   -5.9164   23.7786 C   0  0  0  0  0  0  0  0  0  0  0  0
  -21.3455   -4.8044   24.6167 C   0  0  0  0  0  0  0  0  0  0  0  0
  -25.9694  -27.7143   20.7260 C   0  0  0  0  0  0  0  0  0  0  0  0
  -28.8658  -18.9351   23.1890 C   0  0  0  0  0  0  0  0  0  0  0  0
  -29.8180  -18.8827   20.5673 C   0  0  0  0  0  0  0  0  0  0  0  0
  -21.4532   -3.3467   22.6930 C   0  0  0  0  0  0  0  0  0  0  0  0
  -24.8088   -9.4315   22.1016 C   0  0  0  0  0  0  0  0  0  0  0  0
  -27.0619  -10.4488   21.4718 C   0  0  0  0  0  0  0  0  0  0  0  0
  -27.9249  -36.4533   23.4134 C   0  0  0  0  0  0  0  0  0  0  0  0
  -25.4658  -29.9341   19.9021 C   0  0  0  0  0  0  0  0  0  0  0  0
  -28.0215  -35.4593   22.4209 C   0  0  0  0  0  0  0  0  0  0  0  0
  -25.5106  -29.0190   20.9635 C   0  0  0  0  0  0  0  0  0  0  0  0
  -29.1700  -20.1282   22.5336 C   0  0  0  0  0  0  0  0  0  0  0  0
  -29.6460  -20.1020   21.2227 C   0  0  0  0  0  0  0  0  0  0  0  0
  -29.0377  -17.7158   22.5337 C   0  0  0  0  0  0  0  0  0  0  0  0
  -22.6550   -7.6953   21.7425 C   0  0  0  0  0  0  0  0  0  0  0  0
  -26.3661  -27.3216   19.4479 C   0  0  0  0  0  0  0  0  0  0  0  0
  -21.5220   -5.7436   22.3977 C   0  0  0  0  0  0  0  0  0  0  0  0
  -21.3585   -3.5196   24.0739 C   0  0  0  0  0  0  0  0  0  0  0  0
  -21.5350   -4.4588   21.8549 C   0  0  0  0  0  0  0  0  0  0  0  0
  -29.5138  -17.6896   21.2228 C   0  0  0  0  0  0  0  0  0  0  0  0
  -25.9208  -10.3288   22.2875 C   0  0  0  0  0  0  0  0  0  0  0  0
  -27.8111  -11.4312   22.0719 C   0  0  0  0  0  0  0  0  0  0  0  0
  -29.5801  -22.7774   18.5730 C   0  0  0  0  0  0  0  0  0  0  0  0
  -32.3592  -21.3475   16.6449 C   0  0  0  0  0  0  0  0  0  0  0  0
  -30.6237  -22.6792   17.7309 C   0  0  0  0  0  0  0  0  0  0  0  0
  -31.3209  -21.4446   17.4828 C   0  0  0  0  0  0  0  0  0  0  0  0
  -27.4131   -9.7361   20.2784 C   0  0  0  0  0  0  0  0  0  0  0  0
  -26.4832  -32.1313   21.9613 C   0  0  0  0  0  0  0  0  0  0  0  0
  -23.8739  -31.1978   23.6473 C   0  0  0  0  0  0  0  0  0  0  0  0
  -21.5714  -28.7683   24.3129 C   0  0  0  0  0  0  0  0  0  0  0  0
  -28.2450  -16.4062   24.5344 C   0  0  0  0  0  0  0  0  0  0  0  0
  -27.8126  -36.1052   24.8765 C   0  0  0  0  0  0  0  0  0  0  0  0
  -24.9553  -31.3317   20.1222 C   0  0  0  0  0  0  0  0  0  0  0  0
  -25.0866  -29.4002   22.3576 C   0  0  0  0  0  0  0  0  0  0  0  0
  -28.8798  -24.0900   18.8027 C   0  0  0  0  0  0  0  0  0  0  0  0
  -27.3791  -34.6633   25.1281 C   0  0  0  0  0  0  0  0  0  0  0  0
  -27.3148  -13.6537   26.5925 C   0  0  0  0  0  0  0  0  0  0  0  0
  -26.8342  -21.8441   18.3069 C   0  0  0  0  0  0  0  0  0  0  0  0
  -28.1771  -33.7050   24.2496 C   0  0  0  0  0  0  0  0  0  0  0  0
  -26.4939  -23.3331   18.2160 C   0  0  0  0  0  0  0  0  0  0  0  0
  -26.9631  -12.5532   25.5889 C   0  0  0  0  0  0  0  0  0  0  0  0
  -26.8845  -15.0329   26.0958 C   0  0  0  0  0  0  0  0  0  0  0  0
  -27.0148  -14.2875   23.7513 C   0  0  0  0  0  0  0  0  0  0  0  0
  -27.6863  -21.5005   19.5254 C   0  0  0  0  0  0  0  0  0  0  0  0
  -27.9336  -33.9876   22.7622 C   0  0  1  0  0  0  0  0  0  0  0  0
  -25.0726  -31.7890   21.5729 C   0  0  1  0  0  0  0  0  0  0  0  0
  -27.6696  -24.2609   17.8695 C   0  0  1  0  0  0  0  0  0  0  0  0
  -27.4870  -12.8882   24.1786 C   0  0  2  0  0  0  0  0  0  0  0  0
  -28.9811  -21.4211   23.2570 C   0  0  0  0  0  0  0  0  0  0  0  0
  -19.5845  -28.2825   25.7667 C   0  0  0  0  0  0  0  0  0  0  0  0
  -25.7292  -30.7414   26.0262 C   0  0  0  0  0  0  0  0  0  0  0  0
  -23.9110  -29.3935   27.0966 C   0  0  0  0  0  0  0  0  0  0  0  0
  -23.5418  -31.8099   26.5991 C   0  0  0  0  0  0  0  0  0  0  0  0
  -19.7935  -28.4336   21.9707 C   0  0  0  0  0  0  0  0  0  0  0  0
  -29.9802  -21.3723   20.4976 C   0  0  0  0  0  0  0  0  0  0  0  0
  -27.1922  -25.7169   17.8993 C   0  0  0  0  0  0  0  0  0  1  0  0
  -23.5980  -30.1470   24.6955 C   0  0  1  0  0  0  0  0  0  0  0  0
  -20.0583  -28.8179   24.4245 C   0  0  2  0  0  0  0  0  0  0  0  0
  -24.2049  -30.5161   26.0786 C   0  0  0  0  0  0  0  0  0  0  0  0
  -25.9393  -11.1677   23.3267 N   0  0  0  0  0  0  0  0  0  0  0  0
  -27.1011  -11.8243   23.1681 N   0  0  0  0  0  0  0  0  0  0  0  0
  -24.6009  -30.7801   22.5235 N   0  0  0  0  0  0  0  0  0  0  0  0
  -27.4212  -15.2824   24.7562 N   0  0  0  0  0  0  0  0  0  0  0  0
  -29.0014  -11.9884   21.7636 N   0  0  0  0  0  0  0  0  0  0  0  0
  -27.0021  -10.2569   19.0438 N   0  0  0  0  0  0  0  0  0  0  0  0
  -28.7228  -16.5223   23.2295 N   0  0  0  0  0  0  0  0  0  0  0  0
  -26.6570  -33.4467   22.3474 N   0  0  0  0  0  0  0  0  0  0  0  0
  -22.1520  -29.9544   24.7097 N   0  0  0  0  0  0  0  0  0  0  0  0
  -29.1674  -21.5673   19.2415 N   0  3  2  0  0  0  0  0  0  0  0  0
  -19.4323  -28.0023   23.3457 N   0  3  0  0  0  0  0  0  0  0  0  0
  -28.0578   -8.6605   20.3069 O   0  0  0  0  0  0  0  0  0  0  0  0
  -27.3494  -31.2657   21.9157 O   0  0  0  0  0  0  0  0  0  0  0  0
  -23.4534  -32.3452   23.8158 O   0  0  0  0  0  0  0  0  0  0  0  0
  -22.1779  -27.7753   23.9171 O   0  0  0  0  0  0  0  0  0  0  0  0
  -28.5294  -17.1917   25.4422 O   0  0  0  0  0  0  0  0  0  0  0  0
  -21.6039   -6.8486   21.5670 O   0  0  0  0  0  0  0  0  0  0  0  0
  -26.8074  -26.0526   19.2318 O   0  0  0  0  0  0  0  0  0  1  0  0
  -21.2815   -2.4518   24.8789 F   0  0  0  0  0  0  0  0  0  0  0  0
  -21.6270   -4.2864   20.5291 F   0  0  0  0  0  0  0  0  0  0  0  0
  -29.7409  -16.2019   20.3740 Cl  0  0  0  0  0  0  0  0  0  0  0  0
  1  2  1  0  0  0  0
  1  5  2  0  0  0  0
  2  6  2  0  0  0  0
  3  8  2  0  0  0  0
  3 17  1  0  0  0  0
  4  9  1  0  0  0  0
  4 17  2  0  0  0  0
  5 19  1  0  0  0  0
  6 21  1  0  0  0  0
  7 10  2  0  0  0  0
  7 20  1  0  0  0  0
  8 26  1  0  0  0  0
  9 26  2  0  0  0  0
 10 27  1  0  0  0  0
 11 12  2  0  0  0  0
 11 28  1  0  0  0  0
 12 29  1  0  0  0  0
 13 22  1  0  0  0  0
 13 27  2  0  0  0  0
 14 23  1  0  0  0  0
 14 25  2  0  0  0  0
 15 24  1  0  0  0  0
 15 31  2  0  0  0  0
 16 29  2  0  0  0  0
 16 30  1  0  0  0  0
 17 32  1  0  0  0  0
 18 32  1  0  0  0  0
 18 33  2  0  0  0  0
 18 38  1  0  0  0  0
 19 21  2  0  0  0  0
 19 43  1  0  0  0  0
 20 22  2  0  0  0  0
 20 44  1  0  0  0  0
 21 56  1  0  0  0  0
 22 45  1  0  0  0  0
 23 24  2  0  0  0  0
 23 60  1  0  0  0  0
 24 66  1  0  0  0  0
 25 31  1  0  0  0  0
 25 77  1  0  0  0  0
 26 87  1  0  0  0  0
 27 88  1  0  0  0  0
 28 30  2  0  0  0  0
 28 87  1  0  0  0  0
 29 89  1  0  0  0  0
 30 90  1  0  0  0  0
 31 91  1  0  0  0  0
 32 71  2  0  0  0  0
 33 72  1  0  0  0  0
 33 75  1  0  0  0  0
 34 36  2  0  0  0  0
 34 46  1  0  0  0  0
 34 80  1  0  0  0  0
 35 37  2  0  0  0  0
 36 37  1  0  0  0  0
 38 76  1  0  0  0  0
 38 82  2  0  0  0  0
 39 57  1  0  0  0  0
 39 78  1  0  0  0  0
 39 83  2  0  0  0  0
 40 68  1  0  0  0  0
 40 73  1  0  0  0  0
 40 84  2  0  0  0  0
 41 69  1  0  0  0  0
 41 79  1  0  0  0  0
 41 85  2  0  0  0  0
 42 74  1  0  0  0  0
 42 77  1  0  0  0  0
 42 86  2  0  0  0  0
 43 47  1  0  0  0  0
 44 57  1  0  0  0  0
 45 73  1  0  0  0  0
 46 58  1  0  0  0  0
 47 50  1  0  0  0  0
 48 52  1  0  0  0  0
 48 53  1  0  0  0  0
 49 51  1  0  0  0  0
 49 55  1  0  0  0  0
 50 56  1  0  0  0  0
 51 58  1  0  0  0  0
 52 59  1  0  0  0  0
 53 74  1  0  0  0  0
 54 59  1  0  0  0  0
 54 74  1  0  0  0  0
 55 80  1  0  0  0  0
 56 78  1  0  0  0  0
 57 73  1  0  0  0  0
 58 67  1  0  0  0  0
 59 72  1  0  0  0  0
 61 69  1  0  0  0  0
 62 70  1  0  0  0  0
 63 70  1  0  0  0  0
 64 70  1  0  0  0  0
 65 81  1  0  0  0  0
 66 80  1  0  0  0  0
 67 88  1  0  0  0  0
 68 70  1  0  0  0  0
 68 79  1  0  0  0  0
 69 81  1  0  0  0  0
 71 72  1  0  0  0  0
M  CHG  2  80   1  81   1
M  ISO  4  42 100  67 101  77 100  88 101
M  END
> <Batch ID>
0041

> <Smiles>
C=CC=C1CC([101CH2:1][101O:1]c2ccc3c(c2)CN(C(=O)C(NC(=O)C(C)NC)C(C)(C)C)C(C(=O)NC2CCCc4ccccc42)C3)CCCN1Cc1cc(Cl)c([100NH:0][100C:0](=O)N2CCCC(n3nc(-c4ccc(Oc5ccc(F)cc5F)cc4)c(C(N)=O)c3N)C2)cc1C

> <Shape>
0.271

> <Color>
0.081

> <Negative vol penalty>
0.000

$$$$

  -OEChem-04042322093D

 81 89  0     1  0  0  0  0  0999 V2000
  -28.4919  -15.1235   29.1454 C   0  0  0  0  0  0  0  0  0  0  0  0
  -29.4470  -15.8334   28.4249 C   0  0  0  0  0  0  0  0  0  0  0  0
  -23.0001   -9.8942   19.9809 C   0  0  0  0  0  0  0  0  0  0  0  0
  -23.7251   -9.9446   22.2850 C   0  0  0  0  0  0  0  0  0  0  0  0
  -27.3298  -15.7614   29.5774 C   0  0  0  0  0  0  0  0  0  0  0  0
  -29.2400  -17.1816   28.1349 C   0  0  0  0  0  0  0  0  0  0  0  0
  -33.3675  -20.0000   28.9504 C   0  0  0  0  0  0  0  0  0  0  0  0
  -22.2333   -8.7599   20.2469 C   0  0  0  0  0  0  0  0  0  0  0  0
  -22.9583   -8.8102   22.5511 C   0  0  0  0  0  0  0  0  0  0  0  0
  -34.3713  -19.9537   27.9840 C   0  0  0  0  0  0  0  0  0  0  0  0
  -23.2019   -5.4713   22.0786 C   0  0  0  0  0  0  0  0  0  0  0  0
  -23.7891   -4.4539   22.8305 C   0  0  0  0  0  0  0  0  0  0  0  0
  -33.5789  -22.0406   27.0696 C   0  0  0  0  0  0  0  0  0  0  0  0
  -31.8775  -17.4241   21.6447 C   0  0  0  0  0  0  0  0  0  0  0  0
  -22.0651   -4.6969   24.5057 C   0  0  0  0  0  0  0  0  0  0  0  0
  -29.9203  -17.7992   22.6926 C   0  0  0  0  0  0  0  0  0  0  0  0
  -23.7461  -10.4866   20.9999 C   0  0  0  0  0  0  0  0  0  0  0  0
  -24.1320  -13.0021   20.8243 C   0  0  0  0  0  0  0  0  0  0  0  0
  -27.1130  -17.1205   29.3008 C   0  0  0  0  0  0  0  0  0  0  0  0
  -32.4536  -21.0633   28.9770 C   0  0  0  0  0  0  0  0  0  0  0  0
  -28.0733  -17.8379   28.5624 C   0  0  0  0  0  0  0  0  0  0  0  0
  -32.5661  -22.0994   28.0390 C   0  0  0  0  0  0  0  0  0  0  0  0
  -30.5957  -16.8847   21.9150 C   0  0  0  0  0  0  0  0  0  0  0  0
  -22.2124   -8.2179   21.5320 C   0  0  0  0  0  0  0  0  0  0  0  0
  -34.4754  -20.9726   27.0416 C   0  0  0  0  0  0  0  0  0  0  0  0
  -22.0463   -6.1017   22.5402 C   0  0  0  0  0  0  0  0  0  0  0  0
  -23.2208   -4.0666   24.0441 C   0  0  0  0  0  0  0  0  0  0  0  0
  -21.4779   -5.7144   23.7537 C   0  0  0  0  0  0  0  0  0  0  0  0
  -24.5389  -11.6581   20.7255 C   0  0  0  0  0  0  0  0  0  0  0  0
  -31.9464  -18.6518   22.2655 C   0  0  0  0  0  0  0  0  0  0  0  0
  -25.2420  -13.7245   20.4602 C   0  0  0  0  0  0  0  0  0  0  0  0
  -22.8641  -13.5487   21.2109 C   0  0  0  0  0  0  0  0  0  0  0  0
  -29.3025  -21.3214   28.6490 C   0  0  0  0  0  0  0  0  0  0  0  0
  -29.8652  -24.4163   29.4411 C   0  0  0  0  0  0  0  0  0  0  0  0
  -32.0678  -27.0200   29.5678 C   0  0  0  0  0  0  0  0  0  0  0  0
  -30.7216  -14.6844   20.6946 C   0  0  0  0  0  0  0  0  0  0  0  0
  -25.8197  -17.7548   29.7477 C   0  0  0  0  0  0  0  0  0  0  0  0
  -31.3931  -21.1122   30.0425 C   0  0  0  0  0  0  0  0  0  0  0  0
  -31.6224  -23.2733   28.0371 C   0  0  0  0  0  0  0  0  0  0  0  0
  -25.8491  -19.2809   29.7223 C   0  0  0  0  0  0  0  0  0  0  0  0
  -29.6030  -12.2320   18.3684 C   0  0  0  0  0  0  0  0  0  0  0  0
  -26.4469  -19.7815   28.4113 C   0  0  0  0  0  0  0  0  0  0  0  0
  -28.1523  -11.9746   18.7824 C   0  0  0  0  0  0  0  0  0  0  0  0
  -30.5035  -12.4751   19.5782 C   0  0  0  0  0  0  0  0  0  0  0  0
  -28.5882  -13.2642   20.9117 C   0  0  0  0  0  0  0  0  0  0  0  0
  -27.8964  -19.3079   28.2495 C   0  0  1  0  0  0  0  0  0  0  0  0
  -30.1994  -21.9810   29.6580 C   0  0  1  0  0  0  0  0  0  0  0  0
  -27.6306  -13.0782   19.7234 C   0  0  2  0  0  0  0  0  0  0  0  0
  -32.2269  -29.4352   30.2304 C   0  0  0  0  0  0  0  0  0  0  0  0
  -28.3582  -25.2077   26.9088 C   0  0  0  0  0  0  0  0  0  0  0  0
  -29.3514  -27.4965   27.1167 C   0  0  0  0  0  0  0  0  0  0  0  0
  -27.8526  -26.6218   28.9087 C   0  0  0  0  0  0  0  0  0  0  0  0
  -34.1481  -26.4474   31.5935 C   0  0  0  0  0  0  0  0  0  0  0  0
  -33.0539  -19.6625   22.3210 C   0  0  0  0  0  0  0  0  0  0  0  0
  -36.3710  -19.7313   24.2323 C   0  0  0  0  0  0  0  0  0  0  0  0
  -35.3005  -20.2120   23.2642 C   0  0  0  0  0  0  0  0  0  0  0  0
  -35.8946  -19.6389   25.6767 C   0  0  0  0  0  0  0  0  0  1  0  0
  -30.1851  -25.6754   28.6722 C   0  0  1  0  0  0  0  0  0  0  0  0
  -32.4129  -27.9943   30.6796 C   0  0  2  0  0  0  0  0  0  0  0  0
  -28.9536  -26.2274   27.9002 C   0  0  0  0  0  0  0  0  0  0  0  0
  -25.8081  -11.5313   20.3294 N   0  0  0  0  0  0  0  0  0  0  0  0
  -30.7511  -18.8693   22.8996 N   0  0  0  0  0  0  0  0  0  0  0  0
  -26.2084  -12.8050   20.1761 N   0  0  0  0  0  0  0  0  0  0  0  0
  -30.5985  -23.2725   29.0950 N   0  0  0  0  0  0  0  0  0  0  0  0
  -29.9486  -13.5361   20.4216 N   0  0  0  0  0  0  0  0  0  0  0  0
  -25.4757  -15.0502   20.3584 N   0  0  0  0  0  0  0  0  0  0  0  0
  -21.8321  -12.6648   21.5542 N   0  0  0  0  0  0  0  0  0  0  0  0
  -30.0774  -15.6397   21.4802 N   0  0  0  0  0  0  0  0  0  0  0  0
  -28.7840  -20.1097   29.0642 N   0  0  0  0  0  0  0  0  0  0  0  0
  -30.7531  -26.6101   29.6377 N   0  0  0  0  0  0  0  0  0  0  0  0
  -33.8297  -27.8139   31.1052 N   0  3  0  0  0  0  0  0  0  0  0  0
  -34.1609  -19.2654   23.2344 N   0  3  0  0  0  0  0  0  0  0  0  0
  -22.6477  -14.7841   21.2348 O   0  0  0  0  0  0  0  0  0  0  0  0
  -29.0950  -21.8718   27.5740 O   0  0  0  0  0  0  0  0  0  0  0  0
  -29.0017  -24.4482   30.3214 O   0  0  0  0  0  0  0  0  0  0  0  0
  -32.8819  -26.6616   28.7197 O   0  0  0  0  0  0  0  0  0  0  0  0
  -31.8603  -14.8232   20.2407 O   0  0  0  0  0  0  0  0  0  0  0  0
  -21.4640   -7.1111   21.7921 O   0  0  0  0  0  0  0  0  0  0  0  0
  -35.4538  -20.9295   26.0968 O   0  0  0  0  0  0  0  0  0  1  0  0
  -23.7839   -3.0884   24.7653 F   0  0  0  0  0  0  0  0  0  0  0  0
  -20.3671   -6.3154   24.2017 F   0  0  0  0  0  0  0  0  0  0  0  0
  1  2  1  0  0  0  0
  1  5  2  0  0  0  0
  2  6  2  0  0  0  0
  3  8  2  0  0  0  0
  3 17  1  0  0  0  0
  4  9  1  0  0  0  0
  4 17  2  0  0  0  0
  5 19  1  0  0  0  0
  6 21  1  0  0  0  0
  7 10  2  0  0  0  0
  7 20  1  0  0  0  0
  8 24  1  0  0  0  0
  9 24  2  0  0  0  0
 10 25  1  0  0  0  0
 11 12  2  0  0  0  0
 11 26  1  0  0  0  0
 12 27  1  0  0  0  0
 13 22  1  0  0  0  0
 13 25  2  0  0  0  0
 14 23  1  0  0  0  0
 14 30  2  0  0  0  0
 15 27  2  0  0  0  0
 15 28  1  0  0  0  0
 16 23  2  0  0  0  0
 16 62  1  0  0  0  0
 17 29  1  0  0  0  0
 18 29  1  0  0  0  0
 18 31  2  0  0  0  0
 18 32  1  0  0  0  0
 19 21  2  0  0  0  0
 19 37  1  0  0  0  0
 20 22  2  0  0  0  0
 20 38  1  0  0  0  0
 21 46  1  0  0  0  0
 22 39  1  0  0  0  0
 23 68  1  0  0  0  0
 24 78  1  0  0  0  0
 25 79  1  0  0  0  0
 26 28  2  0  0  0  0
 26 78  1  0  0  0  0
 27 80  1  0  0  0  0
 28 81  1  0  0  0  0
 29 61  2  0  0  0  0
 30 54  1  0  0  0  0
 30 62  1  0  0  0  0
 31 63  1  0  0  0  0
 31 66  1  0  0  0  0
 32 67  1  0  0  0  0
 32 73  2  0  0  0  0
 33 47  1  0  0  0  0
 33 69  1  0  0  0  0
 33 74  2  0  0  0  0
 34 58  1  0  0  0  0
 34 64  1  0  0  0  0
 34 75  2  0  0  0  0
 35 59  1  0  0  0  0
 35 70  1  0  0  0  0
 35 76  2  0  0  0  0
 36 65  1  0  0  0  0
 36 68  1  0  0  0  0
 36 77  2  0  0  0  0
 37 40  1  0  0  0  0
 38 47  1  0  0  0  0
 39 64  1  0  0  0  0
 40 42  1  0  0  0  0
 41 43  1  0  0  0  0
 41 44  1  0  0  0  0
 42 46  1  0  0  0  0
 43 48  1  0  0  0  0
 44 65  1  0  0  0  0
 45 48  1  0  0  0  0
 45 65  1  0  0  0  0
 46 69  1  0  0  0  0
 47 64  1  0  0  0  0
 48 63  1  0  0  0  0
 49 59  1  0  0  0  0
 50 60  1  0  0  0  0
 51 60  1  0  0  0  0
 52 60  1  0  0  0  0
 53 71  1  0  0  0  0
 54 72  1  0  0  0  0
 55 56  1  0  0  0  0
 55 57  1  0  0  0  0
 56 72  1  0  0  0  0
 57 79  1  0  0  0  0
 58 60  1  0  0  0  0
 58 70  1  0  0  0  0
 59 71  1  0  0  0  0
 61 63  1  0  0  0  0
M  CHG  2  71   1  72   1
M  ISO  4  36 100  57 101  68 100  79 101
M  END
> <Batch ID>
0041

> <Smiles>
CNC(C)C(=O)NC(C(=O)N1Cc2cc([101O:1][101CH2:1]CCNCc3cc([100NH:0][100C:0](=O)N4CCCC(n5nc(-c6ccc(Oc7ccc(F)cc7F)cc6)c(C(N)=O)c5N)C4)c[nH]3)ccc2CC1C(=O)NC1CCCc2ccccc21)C(C)(C)C

> <Shape>
0.176

> <Color>
0.193

> <Negative vol penalty>
0.000

$$$$

  -OEChem-04042322093D

 87 96  0     1  0  0  0  0  0999 V2000
  -26.2754  -34.8152   24.4141 C   0  0  0  0  0  0  0  0  0  0  0  0
  -26.7721  -33.5822   24.0038 C   0  0  0  0  0  0  0  0  0  0  0  0
  -21.7096  -11.5793   22.2296 C   0  0  0  0  0  0  0  0  0  0  0  0
  -22.6596  -11.7199   20.0127 C   0  0  0  0  0  0  0  0  0  0  0  0
  -24.9537  -34.9249   24.8443 C   0  0  0  0  0  0  0  0  0  0  0  0
  -25.9476  -32.4578   24.0245 C   0  0  0  0  0  0  0  0  0  0  0  0
  -26.3474  -29.6776   19.8108 C   0  0  0  0  0  0  0  0  0  0  0  0
  -21.2545  -10.2901   21.9529 C   0  0  0  0  0  0  0  0  0  0  0  0
  -22.2046  -10.4307   19.7360 C   0  0  0  0  0  0  0  0  0  0  0  0
  -27.4628  -28.8487   19.6983 C   0  0  0  0  0  0  0  0  0  0  0  0
  -22.5455   -7.1679   21.8198 C   0  0  0  0  0  0  0  0  0  0  0  0
  -22.7432   -6.1879   22.7925 C   0  0  0  0  0  0  0  0  0  0  0  0
  -26.1208  -26.9613   20.3735 C   0  0  0  0  0  0  0  0  0  0  0  0
  -28.7988  -21.2172   21.2767 C   0  0  0  0  0  0  0  0  0  0  0  0
  -26.8566  -22.5080   21.9080 C   0  0  0  0  0  0  0  0  0  0  0  0
  -20.3560   -5.8423   22.9296 C   0  0  0  0  0  0  0  0  0  0  0  0
  -22.4121  -12.2942   21.2595 C   0  0  0  0  0  0  0  0  0  0  0  0
  -23.7739  -14.0133   22.5626 C   0  0  0  0  0  0  0  0  0  0  0  0
  -24.1098  -33.8032   24.8612 C   0  0  0  0  0  0  0  0  0  0  0  0
  -25.1108  -29.1556   20.2167 C   0  0  0  0  0  0  0  0  0  0  0  0
  -24.6138  -32.5523   24.4567 C   0  0  0  0  0  0  0  0  0  0  0  0
  -24.9906  -27.7852   20.4879 C   0  0  0  0  0  0  0  0  0  0  0  0
  -28.2368  -22.3087   21.9388 C   0  0  0  0  0  0  0  0  0  0  0  0
  -27.9806  -20.3250   20.5837 C   0  0  0  0  0  0  0  0  0  0  0  0
  -26.6004  -20.5243   20.5529 C   0  0  0  0  0  0  0  0  0  0  0  0
  -21.5021   -9.7158   20.7061 C   0  0  0  0  0  0  0  0  0  0  0  0
  -27.3503  -27.4909   19.9824 C   0  0  0  0  0  0  0  0  0  0  0  0
  -21.2530   -7.4852   21.4021 C   0  0  0  0  0  0  0  0  0  0  0  0
  -21.6485   -5.5251   23.3474 C   0  0  0  0  0  0  0  0  0  0  0  0
  -20.1583   -6.8224   21.9570 C   0  0  0  0  0  0  0  0  0  0  0  0
  -26.0384  -21.6157   21.2150 C   0  0  0  0  0  0  0  0  0  0  0  0
  -22.8819  -13.6262   21.5446 C   0  0  0  0  0  0  0  0  0  0  0  0
  -23.8972  -15.3729   22.4124 C   0  0  0  0  0  0  0  0  0  0  0  0
  -29.4924  -24.6619   20.7323 C   0  0  0  0  0  0  0  0  0  0  0  0
  -29.5289  -24.0977   19.5139 C   0  0  0  0  0  0  0  0  0  0  0  0
  -24.4322  -13.2151   23.5553 C   0  0  0  0  0  0  0  0  0  0  0  0
  -23.1664  -29.6528   22.6817 C   0  0  0  0  0  0  0  0  0  0  0  0
  -21.2081  -27.6555   21.0391 C   0  0  0  0  0  0  0  0  0  0  0  0
  -21.5465  -24.5999   19.1507 C   0  0  0  0  0  0  0  0  0  0  0  0
  -24.5687  -19.8786   19.2107 C   0  0  0  0  0  0  0  0  0  0  0  0
  -22.7023  -33.9615   25.3793 C   0  0  0  0  0  0  0  0  0  0  0  0
  -23.9109  -30.0581   20.3074 C   0  0  0  0  0  0  0  0  0  0  0  0
  -23.6807  -27.1718   20.9078 C   0  0  0  0  0  0  0  0  0  0  0  0
  -21.7850  -32.7965   25.0162 C   0  0  0  0  0  0  0  0  0  0  0  0
  -21.2555  -18.6263   19.5735 C   0  0  0  0  0  0  0  0  0  0  0  0
  -30.4638  -26.1387   22.9895 C   0  0  0  0  0  0  0  0  0  0  0  0
  -22.4771  -31.4657   25.2932 C   0  0  0  0  0  0  0  0  0  0  0  0
  -29.8404  -26.8820   21.8134 C   0  0  0  0  0  0  0  0  0  0  0  0
  -21.4566  -17.2456   20.2024 C   0  0  0  0  0  0  0  0  0  0  0  0
  -22.3541  -18.9552   18.5642 C   0  0  0  0  0  0  0  0  0  0  0  0
  -23.9262  -17.4368   19.7008 C   0  0  0  0  0  0  0  0  0  0  0  0
  -31.1082  -24.8304   22.5432 C   0  0  0  0  0  0  0  0  0  0  0  0
  -23.7432  -31.3146   24.4414 C   0  0  1  0  0  0  0  0  0  0  0  0
  -28.8561  -25.9962   21.0511 C   0  0  1  0  0  0  0  0  0  1  0  0
  -22.8215  -29.5133   21.2259 C   0  0  1  0  0  0  0  0  0  0  0  0
  -22.8801  -17.0878   20.7720 C   0  0  2  0  0  0  0  0  0  0  0  0
  -28.6143  -19.1657   19.8850 C   0  0  0  0  0  0  0  0  0  0  0  0
  -20.1589  -23.6804   17.2728 C   0  0  0  0  0  0  0  0  0  0  0  0
  -19.7317  -26.1571   23.2493 C   0  0  0  0  0  0  0  0  0  0  0  0
  -19.5727  -24.1875   21.7120 C   0  0  0  0  0  0  0  0  0  0  0  0
  -18.4754  -26.3410   21.0947 C   0  0  0  0  0  0  0  0  0  0  0  0
  -23.9022  -24.3534   17.3762 C   0  0  0  0  0  0  0  0  0  0  0  0
  -29.1167  -23.2679   22.6850 C   0  0  0  0  0  0  0  0  0  0  0  0
  -20.9954  -26.1615   20.9979 C   0  0  1  0  0  0  0  0  0  0  0  0
  -21.4207  -24.4428   17.6460 C   0  0  2  0  0  0  0  0  0  0  0  0
  -19.7191  -25.7230   21.7700 C   0  0  0  0  0  0  0  0  0  0  0  0
  -22.4677  -14.6567   20.8026 N   0  0  0  0  0  0  0  0  0  0  0  0
  -23.1023  -15.7047   21.3549 N   0  0  0  0  0  0  0  0  0  0  0  0
  -22.5380  -28.0965   20.9881 N   0  0  0  0  0  0  0  0  0  0  0  0
  -23.6744  -18.7878   19.1754 N   0  0  0  0  0  0  0  0  0  0  0  0
  -24.6069  -16.3051   23.0830 N   0  0  0  0  0  0  0  0  0  0  0  0
  -24.1939  -11.8340   23.5679 N   0  0  0  0  0  0  0  0  0  0  0  0
  -25.7809  -19.6101   19.8455 N   0  0  0  0  0  0  0  0  0  0  0  0
  -23.3983  -30.9546   23.0827 N   0  0  0  0  0  0  0  0  0  0  0  0
  -20.9988  -25.7874   19.5877 N   0  0  0  0  0  0  0  0  0  0  0  0
  -30.1370  -23.9375   21.8060 N   0  3  1  0  0  0  0  0  0  0  0  0
  -22.5948  -23.7032   17.1025 N   0  3  0  0  0  0  0  0  0  0  0  0
  -25.1958  -13.7143   24.4162 O   0  0  0  0  0  0  0  0  0  0  0  0
  -23.2169  -28.6534   23.3890 O   0  0  0  0  0  0  0  0  0  0  0  0
  -20.2298  -28.4039   21.1065 O   0  0  0  0  0  0  0  0  0  0  0  0
  -22.0742  -23.7521   19.8671 O   0  0  0  0  0  0  0  0  0  0  0  0
  -24.2697  -20.9784   18.7385 O   0  0  0  0  0  0  0  0  0  0  0  0
  -21.0584   -8.4578   20.4357 O   0  0  0  0  0  0  0  0  0  0  0  0
  -28.4375  -26.6797   19.8741 O   0  0  0  0  0  0  0  0  0  1  0  0
  -21.8386   -4.5829   24.2803 F   0  0  0  0  0  0  0  0  0  0  0  0
  -18.9143   -7.1220   21.5588 F   0  0  0  0  0  0  0  0  0  0  0  0
  -24.3340  -21.9027   21.2045 Cl  0  0  0  0  0  0  0  0  0  0  0  0
  1  2  1  0  0  0  0
  1  5  2  0  0  0  0
  2  6  2  0  0  0  0
  3  8  2  0  0  0  0
  3 17  1  0  0  0  0
  4  9  1  0  0  0  0
  4 17  2  0  0  0  0
  5 19  1  0  0  0  0
  6 21  1  0  0  0  0
  7 10  2  0  0  0  0
  7 20  1  0  0  0  0
  8 26  1  0  0  0  0
  9 26  2  0  0  0  0
 10 27  1  0  0  0  0
 11 12  2  0  0  0  0
 11 28  1  0  0  0  0
 12 29  1  0  0  0  0
 13 22  1  0  0  0  0
 13 27  2  0  0  0  0
 14 23  1  0  0  0  0
 14 24  2  0  0  0  0
 15 23  2  0  0  0  0
 15 31  1  0  0  0  0
 16 29  2  0  0  0  0
 16 30  1  0  0  0  0
 17 32  1  0  0  0  0
 18 32  1  0  0  0  0
 18 33  2  0  0  0  0
 18 36  1  0  0  0  0
 19 21  2  0  0  0  0
 19 41  1  0  0  0  0
 20 22  2  0  0  0  0
 20 42  1  0  0  0  0
 21 53  1  0  0  0  0
 22 43  1  0  0  0  0
 23 63  1  0  0  0  0
 24 25  1  0  0  0  0
 24 57  1  0  0  0  0
 25 31  2  0  0  0  0
 25 73  1  0  0  0  0
 26 83  1  0  0  0  0
 27 84  1  0  0  0  0
 28 30  2  0  0  0  0
 28 83  1  0  0  0  0
 29 85  1  0  0  0  0
 30 86  1  0  0  0  0
 31 87  1  0  0  0  0
 32 67  2  0  0  0  0
 33 68  1  0  0  0  0
 33 71  1  0  0  0  0
 34 35  2  0  0  0  0
 34 54  1  0  0  0  0
 34 76  1  0  0  0  0
 36 72  1  0  0  0  0
 36 78  2  0  0  0  0
 37 55  1  0  0  0  0
 37 74  1  0  0  0  0
 37 79  2  0  0  0  0
 38 64  1  0  0  0  0
 38 69  1  0  0  0  0
 38 80  2  0  0  0  0
 39 65  1  0  0  0  0
 39 75  1  0  0  0  0
 39 81  2  0  0  0  0
 40 70  1  0  0  0  0
 40 73  1  0  0  0  0
 40 82  2  0  0  0  0
 41 44  1  0  0  0  0
 42 55  1  0  0  0  0
 43 69  1  0  0  0  0
 44 47  1  0  0  0  0
 45 49  1  0  0  0  0
 45 50  1  0  0  0  0
 46 48  1  0  0  0  0
 46 52  1  0  0  0  0
 47 53  1  0  0  0  0
 48 54  1  0  0  0  0
 49 56  1  0  0  0  0
 50 70  1  0  0  0  0
 51 56  1  0  0  0  0
 51 70  1  0  0  0  0
 52 76  1  0  0  0  0
 53 74  1  0  0  0  0
 54 84  1  0  0  0  0
 55 69  1  0  0  0  0
 56 68  1  0  0  0  0
 58 65  1  0  0  0  0
 59 66  1  0  0  0  0
 60 66  1  0  0  0  0
 61 66  1  0  0  0  0
 62 77  1  0  0  0  0
 63 76  1  0  0  0  0
 64 66  1  0  0  0  0
 64 75  1  0  0  0  0
 65 77  1  0  0  0  0
 67 68  1  0  0  0  0
M  CHG  2  76   1  77   1
M  ISO  4  40 100  54 101  73 100  84 101
M  END
> <Batch ID>
0041

> <Smiles>
C=C1N(Cc2cc(C)c([100NH:0][100C:0](=O)N3CCCC(n4nc(-c5ccc(Oc6ccc(F)cc6F)cc5)c(C(N)=O)c4N)C3)c(Cl)c2)CCC[101CH:1]1[101O:1]c1ccc2c(c1)CN(C(=O)C(NC(=O)C(C)NC)C(C)(C)C)C(C(=O)NC1CCCc3ccccc31)C2

> <Shape>
0.252

> <Color>
0.074

> <Negative vol penalty>
0.000

$$$$

  -OEChem-04042322093D

 91100  0     1  0  0  0  0  0999 V2000
  -29.7921  -34.2560   28.4713 C   0  0  0  0  0  0  0  0  0  0  0  0
  -29.9698  -33.6304   27.2415 C   0  0  0  0  0  0  0  0  0  0  0  0
  -23.0934   -9.8211   19.9850 C   0  0  0  0  0  0  0  0  0  0  0  0
  -23.8171   -9.9147   22.2882 C   0  0  0  0  0  0  0  0  0  0  0  0
  -29.2397  -33.5489   29.5385 C   0  0  0  0  0  0  0  0  0  0  0  0
  -29.5962  -32.2969   27.0784 C   0  0  0  0  0  0  0  0  0  0  0  0
  -27.2906  -29.7107   22.0286 C   0  0  0  0  0  0  0  0  0  0  0  0
  -31.3021  -19.0744   20.4218 C   0  0  0  0  0  0  0  0  0  0  0  0
  -31.1264  -17.6918   20.4768 C   0  0  0  0  0  0  0  0  0  0  0  0
  -22.3509   -8.6740   20.2649 C   0  0  0  0  0  0  0  0  0  0  0  0
  -23.0745   -8.7675   22.5681 C   0  0  0  0  0  0  0  0  0  0  0  0
  -27.8728  -28.9534   21.0130 C   0  0  0  0  0  0  0  0  0  0  0  0
  -19.8409   -7.9756   23.1488 C   0  0  0  0  0  0  0  0  0  0  0  0
  -19.0659   -7.9741   24.3084 C   0  0  0  0  0  0  0  0  0  0  0  0
  -27.1929  -26.9314   22.1393 C   0  0  0  0  0  0  0  0  0  0  0  0
  -29.6469  -19.3539   22.1593 C   0  0  0  0  0  0  0  0  0  0  0  0
  -20.3042   -6.0708   25.1337 C   0  0  0  0  0  0  0  0  0  0  0  0
  -23.8266  -10.4414   20.9966 C   0  0  0  0  0  0  0  0  0  0  0  0
  -24.1588  -12.9623   20.7907 C   0  0  0  0  0  0  0  0  0  0  0  0
  -28.8503  -32.2089   29.3857 C   0  0  0  0  0  0  0  0  0  0  0  0
  -26.6636  -29.0829   23.1145 C   0  0  0  0  0  0  0  0  0  0  0  0
  -29.0394  -31.5708   28.1449 C   0  0  0  0  0  0  0  0  0  0  0  0
  -26.6013  -27.6830   23.1660 C   0  0  0  0  0  0  0  0  0  0  0  0
  -30.5624  -19.9055   21.2631 C   0  0  0  0  0  0  0  0  0  0  0  0
  -29.4711  -17.9713   22.2143 C   0  0  0  0  0  0  0  0  0  0  0  0
  -30.2109  -17.1402   21.3730 C   0  0  0  0  0  0  0  0  0  0  0  0
  -22.3414   -8.1472   21.5564 C   0  0  0  0  0  0  0  0  0  0  0  0
  -27.8266  -27.5636   21.0697 C   0  0  0  0  0  0  0  0  0  0  0  0
  -20.8477   -7.0247   22.9815 C   0  0  0  0  0  0  0  0  0  0  0  0
  -19.2975   -7.0218   25.3009 C   0  0  0  0  0  0  0  0  0  0  0  0
  -21.0793   -6.0723   23.9739 C   0  0  0  0  0  0  0  0  0  0  0  0
  -24.5942  -11.6261   20.7080 C   0  0  0  0  0  0  0  0  0  0  0  0
  -25.2532  -13.7037   20.4176 C   0  0  0  0  0  0  0  0  0  0  0  0
  -31.1329  -23.2088   19.5945 C   0  0  0  0  0  0  0  0  0  0  0  0
  -31.8037  -23.2876   18.4310 C   0  0  0  0  0  0  0  0  0  0  0  0
  -31.7834  -22.2438   17.4387 C   0  0  0  0  0  0  0  0  0  0  0  0
  -32.4537  -22.3268   16.2801 C   0  0  0  0  0  0  0  0  0  0  0  0
  -22.8796  -13.4865   21.1709 C   0  0  0  0  0  0  0  0  0  0  0  0
  -27.1498  -29.0191   26.2550 C   0  0  0  0  0  0  0  0  0  0  0  0
  -24.3759  -27.3376   26.2574 C   0  0  0  0  0  0  0  0  0  0  0  0
  -22.1897  -25.3527   24.5464 C   0  0  0  0  0  0  0  0  0  0  0  0
  -30.7112  -14.7827   20.6394 C   0  0  0  0  0  0  0  0  0  0  0  0
  -28.3013  -31.4716   30.5814 C   0  0  0  0  0  0  0  0  0  0  0  0
  -26.0170  -29.9142   24.1883 C   0  0  0  0  0  0  0  0  0  0  0  0
  -25.9224  -26.9607   24.2999 C   0  0  0  0  0  0  0  0  0  0  0  0
  -31.1899  -24.3336   20.5987 C   0  0  0  0  0  0  0  0  0  0  0  0
  -27.5856  -30.1725   30.2201 C   0  0  0  0  0  0  0  0  0  0  0  0
  -30.4114  -25.5814   20.1865 C   0  0  0  0  0  0  0  0  0  0  0  0
  -29.6451  -12.2794   18.3429 C   0  0  0  0  0  0  0  0  0  0  0  0
  -28.1704  -23.0706   20.2943 C   0  0  0  0  0  0  0  0  0  0  0  0
  -28.4175  -29.3619   29.2312 C   0  0  0  0  0  0  0  0  0  0  0  0
  -28.2002  -11.9962   18.7603 C   0  0  0  0  0  0  0  0  0  0  0  0
  -28.1388  -24.4696   19.6691 C   0  0  0  0  0  0  0  0  0  0  0  0
  -30.5401  -12.5560   19.5496 C   0  0  0  0  0  0  0  0  0  0  0  0
  -28.6084  -13.3202   20.8739 C   0  0  0  0  0  0  0  0  0  0  0  0
  -28.9726  -22.0398   19.5042 C   0  0  0  0  0  0  0  0  0  0  0  0
  -28.6237  -30.1329   27.9218 C   0  0  1  0  0  0  0  0  0  0  0  0
  -25.8547  -29.1652   25.5074 C   0  0  1  0  0  0  0  0  0  0  0  0
  -27.6550  -13.0996   19.6881 C   0  0  2  0  0  0  0  0  0  0  0  0
  -28.9064  -25.5346   20.4565 C   0  0  2  0  0  0  0  0  0  1  0  0
  -28.4812  -17.4081   23.1820 C   0  0  0  0  0  0  0  0  0  0  0  0
  -32.4454  -21.2556   15.2395 C   0  0  0  0  0  0  0  0  0  0  0  0
  -20.0316  -24.1027   24.8249 C   0  0  0  0  0  0  0  0  0  0  0  0
  -25.8378  -25.1687   27.8287 C   0  0  0  0  0  0  0  0  0  0  0  0
  -23.9763  -23.5959   27.2548 C   0  0  0  0  0  0  0  0  0  0  0  0
  -23.5094  -25.6354   28.6132 C   0  0  0  0  0  0  0  0  0  0  0  0
  -20.8590  -26.9485   22.4389 C   0  0  0  0  0  0  0  0  0  0  0  0
  -30.7498  -21.3928   21.2022 C   0  0  0  0  0  0  0  0  0  0  0  0
  -24.0111  -25.8769   26.1471 C   0  0  1  0  0  0  0  0  0  0  0  0
  -20.6799  -25.4108   24.3990 C   0  0  2  0  0  0  0  0  0  0  0  0
  -24.3482  -25.0825   27.4404 C   0  0  0  0  0  0  0  0  0  0  0  0
  -25.8659  -11.5217   20.3132 N   0  0  0  0  0  0  0  0  0  0  0  0
  -26.2390  -12.8017   20.1444 N   0  0  0  0  0  0  0  0  0  0  0  0
  -25.3104  -27.8176   25.3289 N   0  0  0  0  0  0  0  0  0  0  0  0
  -29.9628  -13.6150   20.3803 N   0  0  0  0  0  0  0  0  0  0  0  0
  -25.4587  -15.0327   20.2998 N   0  0  0  0  0  0  0  0  0  0  0  0
  -21.8666  -12.5849   21.5250 N   0  0  0  0  0  0  0  0  0  0  0  0
  -30.0468  -15.7334   21.4137 N   0  0  0  0  0  0  0  0  0  0  0  0
  -27.4301  -30.0714   27.1057 N   0  0  0  0  0  0  0  0  0  0  0  0
  -22.6023  -25.8353   25.7704 N   0  0  0  0  0  0  0  0  0  0  0  0
  -30.4360  -21.9712   19.8503 N   0  3  2  0  0  0  0  0  0  0  0  0
  -20.3079  -25.6800   22.9813 N   0  3  0  0  0  0  0  0  0  0  0  0
  -22.6369  -14.7171   21.1800 O   0  0  0  0  0  0  0  0  0  0  0  0
  -27.8428  -28.0247   26.0746 O   0  0  0  0  0  0  0  0  0  0  0  0
  -23.8457  -28.0290   27.1306 O   0  0  0  0  0  0  0  0  0  0  0  0
  -22.9288  -24.9190   23.6654 O   0  0  0  0  0  0  0  0  0  0  0  0
  -31.8467  -14.9402   20.1836 O   0  0  0  0  0  0  0  0  0  0  0  0
  -21.6168   -7.0280   21.8300 O   0  0  0  0  0  0  0  0  0  0  0  0
  -28.3966  -26.8195   20.0767 O   0  0  0  0  0  0  0  0  0  1  0  0
  -18.5541   -7.0214   26.4151 F   0  0  0  0  0  0  0  0  0  0  0  0
  -22.0458   -5.1570   23.8194 F   0  0  0  0  0  0  0  0  0  0  0  0
  1  2  1  0  0  0  0
  1  5  2  0  0  0  0
  2  6  2  0  0  0  0
  3 10  2  0  0  0  0
  3 18  1  0  0  0  0
  4 11  1  0  0  0  0
  4 18  2  0  0  0  0
  5 20  1  0  0  0  0
  6 22  1  0  0  0  0
  7 12  2  0  0  0  0
  7 21  1  0  0  0  0
  8  9  2  0  0  0  0
  8 24  1  0  0  0  0
  9 26  1  0  0  0  0
 10 27  1  0  0  0  0
 11 27  2  0  0  0  0
 12 28  1  0  0  0  0
 13 14  2  0  0  0  0
 13 29  1  0  0  0  0
 14 30  1  0  0  0  0
 15 23  1  0  0  0  0
 15 28  2  0  0  0  0
 16 24  2  0  0  0  0
 16 25  1  0  0  0  0
 17 30  2  0  0  0  0
 17 31  1  0  0  0  0
 18 32  1  0  0  0  0
 19 32  1  0  0  0  0
 19 33  2  0  0  0  0
 19 38  1  0  0  0  0
 20 22  2  0  0  0  0
 20 43  1  0  0  0  0
 21 23  2  0  0  0  0
 21 44  1  0  0  0  0
 22 57  1  0  0  0  0
 23 45  1  0  0  0  0
 24 68  1  0  0  0  0
 25 26  2  0  0  0  0
 25 61  1  0  0  0  0
 26 78  1  0  0  0  0
 27 88  1  0  0  0  0
 28 89  1  0  0  0  0
 29 31  2  0  0  0  0
 29 88  1  0  0  0  0
 30 90  1  0  0  0  0
 31 91  1  0  0  0  0
 32 72  2  0  0  0  0
 33 73  1  0  0  0  0
 33 76  1  0  0  0  0
 34 35  2  0  0  0  0
 34 46  1  0  0  0  0
 34 81  1  0  0  0  0
 35 36  1  0  0  0  0
 36 37  2  0  0  0  0
 37 62  1  0  0  0  0
 38 77  1  0  0  0  0
 38 83  2  0  0  0  0
 39 58  1  0  0  0  0
 39 79  1  0  0  0  0
 39 84  2  0  0  0  0
 40 69  1  0  0  0  0
 40 74  1  0  0  0  0
 40 85  2  0  0  0  0
 41 70  1  0  0  0  0
 41 80  1  0  0  0  0
 41 86  2  0  0  0  0
 42 75  1  0  0  0  0
 42 78  1  0  0  0  0
 42 87  2  0  0  0  0
 43 47  1  0  0  0  0
 44 58  1  0  0  0  0
 45 74  1  0  0  0  0
 46 48  1  0  0  0  0
 47 51  1  0  0  0  0
 48 60  1  0  0  0  0
 49 52  1  0  0  0  0
 49 54  1  0  0  0  0
 50 53  1  0  0  0  0
 50 56  1  0  0  0  0
 51 57  1  0  0  0  0
 52 59  1  0  0  0  0
 53 60  1  0  0  0  0
 54 75  1  0  0  0  0
 55 59  1  0  0  0  0
 55 75  1  0  0  0  0
 56 81  1  0  0  0  0
 57 79  1  0  0  0  0
 58 74  1  0  0  0  0
 59 73  1  0  0  0  0
 60 89  1  0  0  0  0
 63 70  1  0  0  0  0
 64 71  1  0  0  0  0
 65 71  1  0  0  0  0
 66 71  1  0  0  0  0
 67 82  1  0  0  0  0
 68 81  1  0  0  0  0
 69 71  1  0  0  0  0
 69 80  1  0  0  0  0
 70 82  1  0  0  0  0
 72 73  1  0  0  0  0
M  CHG  2  81   1  82   1
M  ISO  4  42 100  60 101  78 100  89 101
M  END
> <Batch ID>
0041

> <Smiles>
CC=CC=C1CC[101CH:1]([101O:1]c2ccc3c(c2)CN(C(=O)C(NC(=O)C(C)NC)C(C)(C)C)C(C(=O)NC2CCCc4ccccc42)C3)CCCN1Cc1ccc([100NH:0][100C:0](=O)N2CCCC(n3nc(-c4ccc(Oc5ccc(F)cc5F)cc4)c(C(N)=O)c3N)C2)c(C)c1

> <Shape>
0.278

> <Color>
0.211

> <Negative vol penalty>
0.000

$$$$

  -OEChem-04042322093D

 91100  0     1  0  0  0  0  0999 V2000
  -28.3579  -31.7433   27.3952 C   0  0  0  0  0  0  0  0  0  0  0  0
  -28.1082  -30.7002   26.5092 C   0  0  0  0  0  0  0  0  0  0  0  0
  -24.6294   -8.2796   20.6705 C   0  0  0  0  0  0  0  0  0  0  0  0
  -22.9518  -10.0182   20.6509 C   0  0  0  0  0  0  0  0  0  0  0  0
  -27.3888  -32.7229   27.6079 C   0  0  0  0  0  0  0  0  0  0  0  0
  -26.8887  -30.6355   25.8362 C   0  0  0  0  0  0  0  0  0  0  0  0
  -27.4375  -29.5441   20.9217 C   0  0  0  0  0  0  0  0  0  0  0  0
  -23.6580   -7.3463   21.0320 C   0  0  0  0  0  0  0  0  0  0  0  0
  -21.9803   -9.0848   21.0123 C   0  0  0  0  0  0  0  0  0  0  0  0
  -27.6837  -28.2128   20.5887 C   0  0  0  0  0  0  0  0  0  0  0  0
  -22.0191   -6.4172   23.8383 C   0  0  0  0  0  0  0  0  0  0  0  0
  -22.3327   -5.5182   24.8576 C   0  0  0  0  0  0  0  0  0  0  0  0
  -25.3583  -27.9334   20.0114 C   0  0  0  0  0  0  0  0  0  0  0  0
  -27.3471  -19.2966   18.2599 C   0  0  0  0  0  0  0  0  0  0  0  0
  -21.9992   -3.6736   23.3333 C   0  0  0  0  0  0  0  0  0  0  0  0
  -24.2764   -9.6156   20.4800 C   0  0  0  0  0  0  0  0  0  0  0  0
  -26.0856  -10.5658   18.9531 C   0  0  0  0  0  0  0  0  0  0  0  0
  -26.1606  -32.6754   26.9299 C   0  0  0  0  0  0  0  0  0  0  0  0
  -26.1455  -30.0779   20.8122 C   0  0  0  0  0  0  0  0  0  0  0  0
  -25.9017  -31.6146   26.0410 C   0  0  0  0  0  0  0  0  0  0  0  0
  -25.0988  -29.2725   20.3411 C   0  0  0  0  0  0  0  0  0  0  0  0
  -27.2873  -20.3168   17.3107 C   0  0  0  0  0  0  0  0  0  0  0  0
  -27.3245  -20.0076   15.9511 C   0  0  0  0  0  0  0  0  0  0  0  0
  -27.4217  -18.6780   15.5406 C   0  0  0  0  0  0  0  0  0  0  0  0
  -27.4815  -17.6577   16.4899 C   0  0  0  0  0  0  0  0  0  0  0  0
  -27.4443  -17.9669   17.8495 C   0  0  0  0  0  0  0  0  0  0  0  0
  -22.3334   -7.7488   21.2029 C   0  0  0  0  0  0  0  0  0  0  0  0
  -26.6435  -27.4065   20.1362 C   0  0  0  0  0  0  0  0  0  0  0  0
  -21.6955   -5.9444   22.5665 C   0  0  0  0  0  0  0  0  0  0  0  0
  -22.3228   -4.1464   24.6051 C   0  0  0  0  0  0  0  0  0  0  0  0
  -21.6856   -4.5726   22.3140 C   0  0  0  0  0  0  0  0  0  0  0  0
  -25.2795  -10.5804   20.1071 C   0  0  0  0  0  0  0  0  0  0  0  0
  -26.8668  -11.6899   19.0657 C   0  0  0  0  0  0  0  0  0  0  0  0
  -28.3176  -23.8728   18.0656 C   0  0  0  0  0  0  0  0  0  0  0  0
  -28.2128  -25.3860   14.7213 C   0  0  0  0  0  0  0  0  0  0  0  0
  -28.2416  -24.7954   17.0916 C   0  0  0  0  0  0  0  0  0  0  0  0
  -28.2885  -24.4671   15.6905 C   0  0  0  0  0  0  0  0  0  0  0  0
  -26.1247   -9.6207   17.8756 C   0  0  0  0  0  0  0  0  0  0  0  0
  -24.0542  -31.3273   22.8540 C   0  0  0  0  0  0  0  0  0  0  0  0
  -22.3765  -31.9521   20.1489 C   0  0  0  0  0  0  0  0  0  0  0  0
  -21.7435  -31.1726   16.8873 C   0  0  0  0  0  0  0  0  0  0  0  0
  -27.4749  -17.1037   20.2160 C   0  0  0  0  0  0  0  0  0  0  0  0
  -25.1255  -33.7310   27.2280 C   0  0  0  0  0  0  0  0  0  0  0  0
  -25.9017  -31.5232   21.1499 C   0  0  0  0  0  0  0  0  0  0  0  0
  -23.6977  -29.8031   20.1864 C   0  0  0  0  0  0  0  0  0  0  0  0
  -24.0053  -33.7952   26.1930 C   0  0  0  0  0  0  0  0  0  0  0  0
  -27.5599  -14.8424   22.9648 C   0  0  0  0  0  0  0  0  0  0  0  0
  -29.6048  -22.0191   19.8320 C   0  0  0  0  0  0  0  0  0  0  0  0
  -23.4914  -32.3947   25.8750 C   0  0  0  0  0  0  0  0  0  0  0  0
  -29.4782  -23.4854   20.2372 C   0  0  0  0  0  0  0  0  0  0  0  0
  -27.0406  -13.5307   22.3715 C   0  0  0  0  0  0  0  0  0  0  0  0
  -26.8399  -16.0549   22.3775 C   0  0  0  0  0  0  0  0  0  0  0  0
  -26.3138  -14.8109   20.3172 C   0  0  0  0  0  0  0  0  0  0  0  0
  -29.6613  -21.8600   18.3177 C   0  0  0  0  0  0  0  0  0  0  0  0
  -24.6007  -31.5234   25.2734 C   0  0  1  0  0  0  0  0  0  0  0  0
  -28.2738  -24.1559   19.5592 C   0  0  1  0  0  0  0  0  0  0  0  0
  -24.4443  -31.8200   21.4892 C   0  0  1  0  0  0  0  0  0  0  0  0
  -27.0539  -13.5650   20.8306 C   0  0  2  0  0  0  0  0  0  0  0  0
  -27.2614  -21.1045   14.9356 C   0  0  0  0  0  0  0  0  0  0  0  0
  -27.4618  -18.3469   14.0819 C   0  0  0  0  0  0  0  0  0  0  0  0
  -27.5875  -16.2317   16.0470 C   0  0  0  0  0  0  0  0  0  0  0  0
  -20.2924  -31.8340   14.9497 C   0  0  0  0  0  0  0  0  0  0  0  0
  -20.0100  -30.5184   21.4350 C   0  0  0  0  0  0  0  0  0  0  0  0
  -18.9564  -30.3720   19.1686 C   0  0  0  0  0  0  0  0  0  0  0  0
  -19.4144  -32.6024   20.1875 C   0  0  0  0  0  0  0  0  0  0  0  0
  -24.0861  -31.9019   15.2321 C   0  0  0  0  0  0  0  0  0  0  0  0
  -27.1868  -21.7388   17.7786 C   0  0  0  0  0  0  0  0  0  0  0  0
  -28.2196  -25.6345   19.9577 C   0  0  0  0  0  0  0  0  0  1  0  0
  -21.3444  -31.2091   19.3355 C   0  0  1  0  0  0  0  0  0  0  0  0
  -21.6272  -32.0419   15.6482 C   0  0  2  0  0  0  0  0  0  0  0  0
  -19.9572  -31.1646   20.0363 C   0  0  0  0  0  0  0  0  0  0  0  0
  -25.5260  -11.6303   20.8950 N   0  0  0  0  0  0  0  0  0  0  0  0
  -26.4959  -12.2860   20.2350 N   0  0  0  0  0  0  0  0  0  0  0  0
  -23.5086  -31.2208   20.5354 N   0  0  0  0  0  0  0  0  0  0  0  0
  -26.8972  -16.0224   20.9144 N   0  0  0  0  0  0  0  0  0  0  0  0
  -27.8281  -12.2166   18.2777 N   0  0  0  0  0  0  0  0  0  0  0  0
  -25.2903   -9.8334   16.7697 N   0  0  0  0  0  0  0  0  0  0  0  0
  -27.5029  -16.9464   18.8307 N   0  0  0  0  0  0  0  0  0  0  0  0
  -24.8091  -31.8602   23.8815 N   0  0  0  0  0  0  0  0  0  0  0  0
  -21.3294  -31.8404   18.0203 N   0  0  0  0  0  0  0  0  0  0  0  0
  -28.4764  -22.4990   17.6347 N   0  3  1  0  0  0  0  0  0  0  0  0
  -22.7172  -31.7188   14.6846 N   0  3  0  0  0  0  0  0  0  0  0  0
  -26.8652   -8.6085   17.9002 O   0  0  0  0  0  0  0  0  0  0  0  0
  -23.1353  -30.5244   22.9667 O   0  0  0  0  0  0  0  0  0  0  0  0
  -22.1886  -33.1395   20.4251 O   0  0  0  0  0  0  0  0  0  0  0  0
  -22.1567  -30.0156   16.8529 O   0  0  0  0  0  0  0  0  0  0  0  0
  -27.9371  -18.0841   20.8052 O   0  0  0  0  0  0  0  0  0  0  0  0
  -21.3852   -6.8383   21.5554 O   0  0  0  0  0  0  0  0  0  0  0  0
  -26.8809  -26.1065   19.8112 O   0  0  0  0  0  0  0  0  0  1  0  0
  -22.6255   -3.2832   25.5837 F   0  0  0  0  0  0  0  0  0  0  0  0
  -21.3766   -4.1125   21.0939 F   0  0  0  0  0  0  0  0  0  0  0  0
  1  2  1  0  0  0  0
  1  5  2  0  0  0  0
  2  6  2  0  0  0  0
  3  8  2  0  0  0  0
  3 16  1  0  0  0  0
  4  9  1  0  0  0  0
  4 16  2  0  0  0  0
  5 18  1  0  0  0  0
  6 20  1  0  0  0  0
  7 10  2  0  0  0  0
  7 19  1  0  0  0  0
  8 27  1  0  0  0  0
  9 27  2  0  0  0  0
 10 28  1  0  0  0  0
 11 12  2  0  0  0  0
 11 29  1  0  0  0  0
 12 30  1  0  0  0  0
 13 21  1  0  0  0  0
 13 28  2  0  0  0  0
 14 22  1  0  0  0  0
 14 26  2  0  0  0  0
 15 30  2  0  0  0  0
 15 31  1  0  0  0  0
 16 32  1  0  0  0  0
 17 32  1  0  0  0  0
 17 33  2  0  0  0  0
 17 38  1  0  0  0  0
 18 20  2  0  0  0  0
 18 43  1  0  0  0  0
 19 21  2  0  0  0  0
 19 44  1  0  0  0  0
 20 55  1  0  0  0  0
 21 45  1  0  0  0  0
 22 23  2  0  0  0  0
 22 67  1  0  0  0  0
 23 24  1  0  0  0  0
 23 59  1  0  0  0  0
 24 25  2  0  0  0  0
 24 60  1  0  0  0  0
 25 26  1  0  0  0  0
 25 61  1  0  0  0  0
 26 78  1  0  0  0  0
 27 88  1  0  0  0  0
 28 89  1  0  0  0  0
 29 31  2  0  0  0  0
 29 88  1  0  0  0  0
 30 90  1  0  0  0  0
 31 91  1  0  0  0  0
 32 72  2  0  0  0  0
 33 73  1  0  0  0  0
 33 76  1  0  0  0  0
 34 36  2  0  0  0  0
 34 56  1  0  0  0  0
 34 81  1  0  0  0  0
 35 37  2  0  0  0  0
 36 37  1  0  0  0  0
 38 77  1  0  0  0  0
 38 83  2  0  0  0  0
 39 57  1  0  0  0  0
 39 79  1  0  0  0  0
 39 84  2  0  0  0  0
 40 69  1  0  0  0  0
 40 74  1  0  0  0  0
 40 85  2  0  0  0  0
 41 70  1  0  0  0  0
 41 80  1  0  0  0  0
 41 86  2  0  0  0  0
 42 75  1  0  0  0  0
 42 78  1  0  0  0  0
 42 87  2  0  0  0  0
 43 46  1  0  0  0  0
 44 57  1  0  0  0  0
 45 74  1  0  0  0  0
 46 49  1  0  0  0  0
 47 51  1  0  0  0  0
 47 52  1  0  0  0  0
 48 50  1  0  0  0  0
 48 54  1  0  0  0  0
 49 55  1  0  0  0  0
 50 56  1  0  0  0  0
 51 58  1  0  0  0  0
 52 75  1  0  0  0  0
 53 58  1  0  0  0  0
 53 75  1  0  0  0  0
 54 81  1  0  0  0  0
 55 79  1  0  0  0  0
 56 68  1  0  0  0  0
 57 74  1  0  0  0  0
 58 73  1  0  0  0  0
 62 70  1  0  0  0  0
 63 71  1  0  0  0  0
 64 71  1  0  0  0  0
 65 71  1  0  0  0  0
 66 82  1  0  0  0  0
 67 81  1  0  0  0  0
 68 89  1  0  0  0  0
 69 71  1  0  0  0  0
 69 80  1  0  0  0  0
 70 82  1  0  0  0  0
 72 73  1  0  0  0  0
M  CHG  2  81   1  82   1
M  ISO  4  42 100  68 101  78 100  89 101
M  END
> <Batch ID>
0041

> <Smiles>
C=CC=C1C([101CH2:1][101O:1]c2ccc3c(c2)CN(C(=O)C(NC(=O)C(C)NC)C(C)(C)C)C(C(=O)NC2CCCc4ccccc42)C3)CCCN1Cc1cc([100NH:0][100C:0](=O)N2CCCC(n3nc(-c4ccc(Oc5ccc(F)cc5F)cc4)c(C(N)=O)c3N)C2)c(C)c(C)c1C

> <Shape>
0.272

> <Color>
0.089

> <Negative vol penalty>
0.000

$$$$

  -OEChem-04042322093D

 85 93  0     1  0  0  0  0  0999 V2000
  -18.0329  -32.7313   24.1314 C   0  0  0  0  0  0  0  0  0  0  0  0
  -19.2705  -32.9965   23.5539 C   0  0  0  0  0  0  0  0  0  0  0  0
  -25.5479  -13.6522   21.4448 C   0  0  0  0  0  0  0  0  0  0  0  0
  -25.2565  -14.1396   19.0965 C   0  0  0  0  0  0  0  0  0  0  0  0
  -17.7818  -31.4814   24.6957 C   0  0  0  0  0  0  0  0  0  0  0  0
  -20.2581  -32.0122   23.5414 C   0  0  0  0  0  0  0  0  0  0  0  0
  -25.7106  -29.6249   19.5555 C   0  0  0  0  0  0  0  0  0  0  0  0
  -24.5494  -12.6814   21.3673 C   0  0  0  0  0  0  0  0  0  0  0  0
  -24.2579  -13.1688   19.0190 C   0  0  0  0  0  0  0  0  0  0  0  0
  -27.0653  -29.3125   19.6600 C   0  0  0  0  0  0  0  0  0  0  0  0
  -24.2541   -9.4930   20.2813 C   0  0  0  0  0  0  0  0  0  0  0  0
  -24.4969   -8.2631   20.8928 C   0  0  0  0  0  0  0  0  0  0  0  0
  -28.2574  -24.2147   17.3340 C   0  0  0  0  0  0  0  0  0  0  0  0
  -26.4916  -27.1637   20.5941 C   0  0  0  0  0  0  0  0  0  0  0  0
  -29.6799  -22.5017   15.6533 C   0  0  0  0  0  0  0  0  0  0  0  0
  -22.5720   -8.5906   22.3157 C   0  0  0  0  0  0  0  0  0  0  0  0
  -25.9014  -14.3814   20.3095 C   0  0  0  0  0  0  0  0  0  0  0  0
  -29.5112  -24.5920   16.8531 C   0  0  0  0  0  0  0  0  0  0  0  0
  -28.3128  -15.2037   20.1800 C   0  0  0  0  0  0  0  0  0  0  0  0
  -18.7635  -30.4780   24.6815 C   0  0  0  0  0  0  0  0  0  0  0  0
  -24.7348  -28.7117   19.9803 C   0  0  0  0  0  0  0  0  0  0  0  0
  -20.0203  -30.7481   24.1072 C   0  0  0  0  0  0  0  0  0  0  0  0
  -25.1251  -27.4658   20.4915 C   0  0  0  0  0  0  0  0  0  0  0  0
  -27.7149  -22.9809   16.9747 C   0  0  0  0  0  0  0  0  0  0  0  0
  -30.2224  -23.7355   16.0127 C   0  0  0  0  0  0  0  0  0  0  0  0
  -28.4261  -22.1244   16.1343 C   0  0  0  0  0  0  0  0  0  0  0  0
  -23.9044  -12.4396   20.1544 C   0  0  0  0  0  0  0  0  0  0  0  0
  -27.4561  -28.0829   20.1820 C   0  0  0  0  0  0  0  0  0  0  0  0
  -23.1703  -10.2718   20.6870 C   0  0  0  0  0  0  0  0  0  0  0  0
  -23.6558   -7.8119   21.9100 C   0  0  0  0  0  0  0  0  0  0  0  0
  -22.3292   -9.8206   21.7041 C   0  0  0  0  0  0  0  0  0  0  0  0
  -26.9325  -15.3848   20.3890 C   0  0  0  0  0  0  0  0  0  0  0  0
  -28.8554  -16.4510   20.3706 C   0  0  0  0  0  0  0  0  0  0  0  0
  -30.0662  -25.9027   17.2460 C   0  0  0  0  0  0  0  0  0  0  0  0
  -29.0395  -14.0145   19.8434 C   0  0  0  0  0  0  0  0  0  0  0  0
  -22.4584  -28.7316   22.1988 C   0  0  0  0  0  0  0  0  0  0  0  0
  -21.6553  -25.8959   20.8438 C   0  0  0  0  0  0  0  0  0  0  0  0
  -22.4437  -22.7076   19.3503 C   0  0  0  0  0  0  0  0  0  0  0  0
  -26.6217  -21.9858   19.8931 C   0  0  0  0  0  0  0  0  0  0  0  0
  -18.4621  -29.1580   25.3459 C   0  0  0  0  0  0  0  0  0  0  0  0
  -23.2770  -29.0531   19.8360 C   0  0  0  0  0  0  0  0  0  0  0  0
  -24.1163  -26.4425   20.9428 C   0  0  0  0  0  0  0  0  0  0  0  0
  -19.4325  -28.0453   24.9582 C   0  0  0  0  0  0  0  0  0  0  0  0
  -28.1256  -20.5250   22.7708 C   0  0  0  0  0  0  0  0  0  0  0  0
  -20.8726  -28.5429   25.0328 C   0  0  0  0  0  0  0  0  0  0  0  0
  -28.1149  -19.0256   22.4679 C   0  0  0  0  0  0  0  0  0  0  0  0
  -26.8749  -21.2180   22.2347 C   0  0  0  0  0  0  0  0  0  0  0  0
  -26.5953  -19.4902   20.4997 C   0  0  0  0  0  0  0  0  0  0  0  0
  -21.1086  -29.6980   24.0521 C   0  0  1  0  0  0  0  0  0  0  0  0
  -22.3802  -28.2537   20.7764 C   0  0  1  0  0  0  0  0  0  0  0  0
  -27.8628  -18.7576   20.9719 C   0  0  2  0  0  0  0  0  0  0  0  0
  -31.5662  -24.1179   15.4847 C   0  0  0  0  0  0  0  0  0  0  0  0
  -27.8651  -20.7991   15.7355 C   0  0  0  0  0  0  0  0  0  0  0  0
  -21.5884  -20.6318   18.2293 C   0  0  0  0  0  0  0  0  0  0  0  0
  -21.8184  -24.6613   23.6293 C   0  0  0  0  0  0  0  0  0  0  0  0
  -21.8908  -22.4041   22.5485 C   0  0  0  0  0  0  0  0  0  0  0  0
  -19.8921  -23.8659   22.2468 C   0  0  0  0  0  0  0  0  0  0  0  0
  -23.0819  -23.7587   16.6583 C   0  0  0  0  0  0  0  0  0  0  0  0
  -26.3708  -22.5982   17.5012 C   0  0  0  0  0  0  0  0  0  0  0  0
  -30.8066  -27.4059   19.0595 C   0  0  0  0  0  0  0  0  0  0  0  0
  -29.6570  -28.3570   19.3238 C   0  0  0  0  0  0  0  0  0  1  0  0
  -22.0485  -24.4554   21.0659 C   0  0  1  0  0  0  0  0  0  0  0  0
  -21.8435  -22.1239   18.0840 C   0  0  2  0  0  0  0  0  0  0  0  0
  -21.4317  -23.8665   22.3660 C   0  0  0  0  0  0  0  0  0  0  0  0
  -26.6177  -16.6475   20.6897 N   0  0  0  0  0  0  0  0  0  0  0  0
  -27.8080  -17.2713   20.6710 N   0  0  0  0  0  0  0  0  0  0  0  0
  -22.7033  -26.8255   20.7874 N   0  0  0  0  0  0  0  0  0  0  0  0
  -26.6942  -20.9249   20.8108 N   0  0  0  0  0  0  0  0  0  0  0  0
  -30.1216  -16.9152   20.3091 N   0  0  0  0  0  0  0  0  0  0  0  0
  -30.3436  -26.7816   16.2828 N   0  0  0  0  0  0  0  0  0  0  0  0
  -28.3266  -12.8184   19.6844 N   0  0  0  0  0  0  0  0  0  0  0  0
  -21.2581  -29.1937   22.7038 N   0  0  0  0  0  0  0  0  0  0  0  0
  -21.6772  -23.7388   19.8506 N   0  0  0  0  0  0  0  0  0  0  0  0
  -26.4562  -21.6202   18.5628 N   0  0  0  0  0  0  0  0  0  0  0  0
  -30.2660  -26.1444   18.5471 N   0  3  0  0  0  0  0  0  0  0  0  0
  -22.7634  -22.3334   16.9304 N   0  3  0  0  0  0  0  0  0  0  0  0
  -30.2862  -14.0093   19.7044 O   0  0  0  0  0  0  0  0  0  0  0  0
  -23.5283  -28.6832   22.7945 O   0  0  0  0  0  0  0  0  0  0  0  0
  -20.4626  -26.1846   20.7175 O   0  0  0  0  0  0  0  0  0  0  0  0
  -23.4861  -22.2880   19.8481 O   0  0  0  0  0  0  0  0  0  0  0  0
  -26.7041  -23.1709   20.2334 O   0  0  0  0  0  0  0  0  0  0  0  0
  -22.9302  -11.4922   20.0783 O   0  0  0  0  0  0  0  0  0  0  0  0
  -28.7777  -27.7758   20.2858 O   0  0  0  0  0  0  0  0  0  1  0  0
  -23.8881   -6.6301   22.4961 F   0  0  0  0  0  0  0  0  0  0  0  0
  -21.2857  -10.5638   22.0974 F   0  0  0  0  0  0  0  0  0  0  0  0
  1  2  1  0  0  0  0
  1  5  2  0  0  0  0
  2  6  2  0  0  0  0
  3  8  2  0  0  0  0
  3 17  1  0  0  0  0
  4  9  1  0  0  0  0
  4 17  2  0  0  0  0
  5 20  1  0  0  0  0
  6 22  1  0  0  0  0
  7 10  2  0  0  0  0
  7 21  1  0  0  0  0
  8 27  1  0  0  0  0
  9 27  2  0  0  0  0
 10 28  1  0  0  0  0
 11 12  2  0  0  0  0
 11 29  1  0  0  0  0
 12 30  1  0  0  0  0
 13 18  1  0  0  0  0
 13 24  2  0  0  0  0
 14 23  1  0  0  0  0
 14 28  2  0  0  0  0
 15 25  1  0  0  0  0
 15 26  2  0  0  0  0
 16 30  2  0  0  0  0
 16 31  1  0  0  0  0
 17 32  1  0  0  0  0
 18 25  2  0  0  0  0
 18 34  1  0  0  0  0
 19 32  1  0  0  0  0
 19 33  2  0  0  0  0
 19 35  1  0  0  0  0
 20 22  2  0  0  0  0
 20 40  1  0  0  0  0
 21 23  2  0  0  0  0
 21 41  1  0  0  0  0
 22 49  1  0  0  0  0
 23 42  1  0  0  0  0
 24 26  1  0  0  0  0
 24 59  1  0  0  0  0
 25 52  1  0  0  0  0
 26 53  1  0  0  0  0
 27 82  1  0  0  0  0
 28 83  1  0  0  0  0
 29 31  2  0  0  0  0
 29 82  1  0  0  0  0
 30 84  1  0  0  0  0
 31 85  1  0  0  0  0
 32 65  2  0  0  0  0
 33 66  1  0  0  0  0
 33 69  1  0  0  0  0
 34 70  1  0  0  0  0
 34 75  2  0  0  0  0
 35 71  1  0  0  0  0
 35 77  2  0  0  0  0
 36 50  1  0  0  0  0
 36 72  1  0  0  0  0
 36 78  2  0  0  0  0
 37 62  1  0  0  0  0
 37 67  1  0  0  0  0
 37 79  2  0  0  0  0
 38 63  1  0  0  0  0
 38 73  1  0  0  0  0
 38 80  2  0  0  0  0
 39 68  1  0  0  0  0
 39 74  1  0  0  0  0
 39 81  2  0  0  0  0
 40 43  1  0  0  0  0
 41 50  1  0  0  0  0
 42 67  1  0  0  0  0
 43 45  1  0  0  0  0
 44 46  1  0  0  0  0
 44 47  1  0  0  0  0
 45 49  1  0  0  0  0
 46 51  1  0  0  0  0
 47 68  1  0  0  0  0
 48 51  1  0  0  0  0
 48 68  1  0  0  0  0
 49 72  1  0  0  0  0
 50 67  1  0  0  0  0
 51 66  1  0  0  0  0
 54 63  1  0  0  0  0
 55 64  1  0  0  0  0
 56 64  1  0  0  0  0
 57 64  1  0  0  0  0
 58 76  1  0  0  0  0
 59 74  1  0  0  0  0
 60 61  1  0  0  0  0
 60 75  1  0  0  0  0
 61 83  1  0  0  0  0
 62 64  1  0  0  0  0
 62 73  1  0  0  0  0
 63 76  1  0  0  0  0
 65 66  1  0  0  0  0
M  CHG  2  75   1  76   1
M  ISO  4  39 100  61 101  74 100  83 101
M  END
> <Batch ID>
0041

> <Smiles>
CNC(C)C(=O)NC(C(=O)N1Cc2cc([101O:1][101CH2:1]CNC(=N)c3cc(C[100NH:0][100C:0](=O)N4CCCC(n5nc(-c6ccc(Oc7ccc(F)cc7F)cc6)c(C(N)=O)c5N)C4)c(C)cc3C)ccc2CC1C(=O)NC1CCCc2ccccc21)C(C)(C)C

> <Shape>
0.234

> <Color>
0.090

> <Negative vol penalty>
0.000

$$$$

  -OEChem-04042322093D

 88 97  0     1  0  0  0  0  0999 V2000
  -29.4310  -35.3834   17.2614 C   0  0  0  0  0  0  0  0  0  0  0  0
  -29.8993  -34.3234   18.0312 C   0  0  0  0  0  0  0  0  0  0  0  0
  -22.7626   -9.7557   20.0648 C   0  0  0  0  0  0  0  0  0  0  0  0
  -23.9879   -9.8038   22.1465 C   0  0  0  0  0  0  0  0  0  0  0  0
  -28.2070  -35.9774   17.5661 C   0  0  0  0  0  0  0  0  0  0  0  0
  -29.1442  -33.8575   19.1069 C   0  0  0  0  0  0  0  0  0  0  0  0
  -26.9362  -27.0068   19.3967 C   0  0  0  0  0  0  0  0  0  0  0  0
  -21.9986   -8.6895   20.5391 C   0  0  0  0  0  0  0  0  0  0  0  0
  -23.2238   -8.7376   22.6208 C   0  0  0  0  0  0  0  0  0  0  0  0
  -26.6556  -25.6600   19.6277 C   0  0  0  0  0  0  0  0  0  0  0  0
  -23.1238   -5.3798   22.2382 C   0  0  0  0  0  0  0  0  0  0  0  0
  -23.7930   -4.3381   22.8806 C   0  0  0  0  0  0  0  0  0  0  0  0
  -25.5031  -26.2398   21.6731 C   0  0  0  0  0  0  0  0  0  0  0  0
  -27.7819  -19.3634   22.8399 C   0  0  0  0  0  0  0  0  0  0  0  0
  -22.5100   -4.7503   24.8858 C   0  0  0  0  0  0  0  0  0  0  0  0
  -23.7573  -10.3128   20.8685 C   0  0  0  0  0  0  0  0  0  0  0  0
  -24.0826  -12.6790   19.9723 C   0  0  0  0  0  0  0  0  0  0  0  0
  -27.4320  -35.5122   18.6402 C   0  0  0  0  0  0  0  0  0  0  0  0
  -26.4874  -27.9779   20.2962 C   0  0  0  0  0  0  0  0  0  0  0  0
  -27.9093  -34.4467   19.4271 C   0  0  0  0  0  0  0  0  0  0  0  0
  -25.7704  -27.5916   21.4405 C   0  0  0  0  0  0  0  0  0  0  0  0
  -28.7752  -19.1344   20.2431 C   0  0  0  0  0  0  0  0  0  0  0  0
  -27.8022  -20.0901   20.5360 C   0  0  0  0  0  0  0  0  0  0  0  0
  -29.2515  -18.2933   21.2487 C   0  0  0  0  0  0  0  0  0  0  0  0
  -27.3056  -20.2046   21.8344 C   0  0  0  0  0  0  0  0  0  0  0  0
  -22.2291   -8.1804   21.8171 C   0  0  0  0  0  0  0  0  0  0  0  0
  -25.9411  -25.2774   20.7633 C   0  0  0  0  0  0  0  0  0  0  0  0
  -22.1476   -6.1068   22.9197 C   0  0  0  0  0  0  0  0  0  0  0  0
  -23.4861   -4.0234   24.2043 C   0  0  0  0  0  0  0  0  0  0  0  0
  -21.8407   -5.7920   24.2434 C   0  0  0  0  0  0  0  0  0  0  0  0
  -28.7549  -18.4078   22.5471 C   0  0  0  0  0  0  0  0  0  0  0  0
  -24.5473  -11.4139   20.3789 C   0  0  0  0  0  0  0  0  0  0  0  0
  -25.2166  -13.3571   19.5973 C   0  0  0  0  0  0  0  0  0  0  0  0
  -26.6176  -22.4784   22.5797 C   0  0  0  0  0  0  0  0  0  0  0  0
  -27.7449  -22.8547   23.2155 C   0  0  0  0  0  0  0  0  0  0  0  0
  -22.7454  -13.1951   19.9369 C   0  0  0  0  0  0  0  0  0  0  0  0
  -26.2936  -31.6202   21.1746 C   0  0  0  0  0  0  0  0  0  0  0  0
  -23.5603  -30.3966   21.8396 C   0  0  0  0  0  0  0  0  0  0  0  0
  -20.5749  -28.7582   22.0399 C   0  0  0  0  0  0  0  0  0  0  0  0
  -30.5223  -14.8376   20.4939 C   0  0  0  0  0  0  0  0  0  0  0  0
  -26.1375  -36.2169   18.9601 C   0  0  0  0  0  0  0  0  0  0  0  0
  -26.8195  -29.4347   20.1194 C   0  0  0  0  0  0  0  0  0  0  0  0
  -25.3375  -28.6676   22.3985 C   0  0  0  0  0  0  0  0  0  0  0  0
  -25.2228  -35.4197   19.8864 C   0  0  0  0  0  0  0  0  0  0  0  0
  -23.9049  -21.7279   21.8179 C   0  0  0  0  0  0  0  0  0  0  0  0
  -29.9474  -11.7169   18.8790 C   0  0  0  0  0  0  0  0  0  0  0  0
  -26.0133  -34.8593   21.0645 C   0  0  0  0  0  0  0  0  0  0  0  0
  -24.1473  -23.0119   22.6004 C   0  0  0  0  0  0  0  0  0  0  0  0
  -28.4550  -11.4616   19.0972 C   0  0  0  0  0  0  0  0  0  0  0  0
  -24.9303  -20.6588   22.1823 C   0  0  0  0  0  0  0  0  0  0  0  0
  -30.5868  -12.3945   20.0890 C   0  0  0  0  0  0  0  0  0  0  0  0
  -28.4252  -13.3769   20.7493 C   0  0  0  0  0  0  0  0  0  0  0  0
  -27.1074  -33.8969   20.5868 C   0  0  1  0  0  0  0  0  0  0  0  0
  -25.5577  -23.5363   22.3402 C   0  0  2  0  0  0  0  0  0  1  0  0
  -25.6953  -30.3720   20.5955 C   0  0  1  0  0  0  0  0  0  0  0  0
  -27.7245  -12.7457   19.5341 C   0  0  2  0  0  0  0  0  0  0  0  0
  -29.3071  -19.0128   18.8496 C   0  0  0  0  0  0  0  0  0  0  0  0
  -27.2919  -20.9922   19.4560 C   0  0  0  0  0  0  0  0  0  0  0  0
  -18.1769  -29.1062   22.6924 C   0  0  0  0  0  0  0  0  0  0  0  0
  -24.3494  -30.2876   24.7840 C   0  0  0  0  0  0  0  0  0  0  0  0
  -21.9802  -29.6843   25.3234 C   0  0  0  0  0  0  0  0  0  0  0  0
  -22.4946  -31.8809   24.2589 C   0  0  0  0  0  0  0  0  0  0  0  0
  -19.6194  -28.1213   19.3122 C   0  0  0  0  0  0  0  0  0  0  0  0
  -30.2960  -17.2719   20.9202 C   0  0  0  0  0  0  0  0  0  0  0  0
  -22.6780  -29.7654   22.8867 C   0  0  1  0  0  0  0  0  0  0  0  0
  -19.1859  -29.1320   21.5548 C   0  0  2  0  0  0  0  0  0  0  0  0
  -22.8907  -30.3888   24.2951 C   0  0  0  0  0  0  0  0  0  0  0  0
  -25.8732  -11.2929   20.2721 N   0  0  0  0  0  0  0  0  0  0  0  0
  -26.2513  -12.4906   19.7941 N   0  0  0  0  0  0  0  0  0  0  0  0
  -26.3121  -21.1740   22.1536 N   0  0  0  0  0  0  0  0  0  0  0  0
  -24.8262  -29.8282   21.6528 N   0  0  0  0  0  0  0  0  0  0  0  0
  -29.8475  -13.6064   20.4508 N   0  0  0  0  0  0  0  0  0  0  0  0
  -25.4197  -14.6041   19.1217 N   0  0  0  0  0  0  0  0  0  0  0  0
  -22.2531  -13.8537   21.0718 N   0  0  0  0  0  0  0  0  0  0  0  0
  -26.5360  -32.6123   20.2437 N   0  0  0  0  0  0  0  0  0  0  0  0
  -21.3115  -29.8710   22.3867 N   0  0  0  0  0  0  0  0  0  0  0  0
  -29.7461  -15.9371   20.8395 N   0  0  0  0  0  0  0  0  0  0  0  0
  -18.7314  -28.1805   20.5018 N   0  3  0  0  0  0  0  0  0  0  0  0
  -22.0032  -13.0613   18.9345 O   0  0  0  0  0  0  0  0  0  0  0  0
  -26.5179  -31.6808   22.3778 O   0  0  0  0  0  0  0  0  0  0  0  0
  -23.1432  -31.3709   21.2070 O   0  0  0  0  0  0  0  0  0  0  0  0
  -20.9660  -27.5950   22.1082 O   0  0  0  0  0  0  0  0  0  0  0  0
  -31.7260  -14.9495   20.2380 O   0  0  0  0  0  0  0  0  0  0  0  0
  -21.4835   -7.1402   22.2803 O   0  0  0  0  0  0  0  0  0  0  0  0
  -25.6668  -23.9612   20.9803 O   0  0  0  0  0  0  0  0  0  1  0  0
  -24.1278   -3.0220   24.8205 F   0  0  0  0  0  0  0  0  0  0  0  0
  -20.9031   -6.4861   24.9029 F   0  0  0  0  0  0  0  0  0  0  0  0
  -29.3180  -17.3860   23.8200 Cl  0  0  0  0  0  0  0  0  0  0  0  0
  1  2  1  0  0  0  0
  1  5  2  0  0  0  0
  2  6  2  0  0  0  0
  3  8  2  0  0  0  0
  3 16  1  0  0  0  0
  4  9  1  0  0  0  0
  4 16  2  0  0  0  0
  5 18  1  0  0  0  0
  6 20  1  0  0  0  0
  7 10  2  0  0  0  0
  7 19  1  0  0  0  0
  8 26  1  0  0  0  0
  9 26  2  0  0  0  0
 10 27  1  0  0  0  0
 11 12  2  0  0  0  0
 11 28  1  0  0  0  0
 12 29  1  0  0  0  0
 13 21  1  0  0  0  0
 13 27  2  0  0  0  0
 14 25  1  0  0  0  0
 14 31  2  0  0  0  0
 15 29  2  0  0  0  0
 15 30  1  0  0  0  0
 16 32  1  0  0  0  0
 17 32  1  0  0  0  0
 17 33  2  0  0  0  0
 17 36  1  0  0  0  0
 18 20  2  0  0  0  0
 18 41  1  0  0  0  0
 19 21  2  0  0  0  0
 19 42  1  0  0  0  0
 20 53  1  0  0  0  0
 21 43  1  0  0  0  0
 22 23  1  0  0  0  0
 22 24  2  0  0  0  0
 22 57  1  0  0  0  0
 23 25  2  0  0  0  0
 23 58  1  0  0  0  0
 24 31  1  0  0  0  0
 24 64  1  0  0  0  0
 25 70  1  0  0  0  0
 26 84  1  0  0  0  0
 27 85  1  0  0  0  0
 28 30  2  0  0  0  0
 28 84  1  0  0  0  0
 29 86  1  0  0  0  0
 30 87  1  0  0  0  0
 31 88  1  0  0  0  0
 32 68  2  0  0  0  0
 33 69  1  0  0  0  0
 33 73  1  0  0  0  0
 34 35  2  0  0  0  0
 34 54  1  0  0  0  0
 34 70  1  0  0  0  0
 36 74  1  0  0  0  0
 36 79  2  0  0  0  0
 37 55  1  0  0  0  0
 37 75  1  0  0  0  0
 37 80  2  0  0  0  0
 38 65  1  0  0  0  0
 38 71  1  0  0  0  0
 38 81  2  0  0  0  0
 39 66  1  0  0  0  0
 39 76  1  0  0  0  0
 39 82  2  0  0  0  0
 40 72  1  0  0  0  0
 40 77  1  0  0  0  0
 40 83  2  0  0  0  0
 41 44  1  0  0  0  0
 42 55  1  0  0  0  0
 43 71  1  0  0  0  0
 44 47  1  0  0  0  0
 45 48  1  0  0  0  0
 45 50  1  0  0  0  0
 46 49  1  0  0  0  0
 46 51  1  0  0  0  0
 47 53  1  0  0  0  0
 48 54  1  0  0  0  0
 49 56  1  0  0  0  0
 50 70  1  0  0  0  0
 51 72  1  0  0  0  0
 52 56  1  0  0  0  0
 52 72  1  0  0  0  0
 53 75  1  0  0  0  0
 54 85  1  0  0  0  0
 55 71  1  0  0  0  0
 56 69  1  0  0  0  0
 59 66  1  0  0  0  0
 60 67  1  0  0  0  0
 61 67  1  0  0  0  0
 62 67  1  0  0  0  0
 63 78  1  0  0  0  0
 64 77  1  0  0  0  0
 65 67  1  0  0  0  0
 65 76  1  0  0  0  0
 66 78  1  0  0  0  0
 68 69  1  0  0  0  0
M  CHG  1  78   1
M  ISO  4  40 100  54 101  77 100  85 101
M  END
> <Batch ID>
0041

> <Smiles>
C=C1N(c2cc(Cl)c(C[100NH:0][100C:0](=O)N3CCCC(n4nc(-c5ccc(Oc6ccc(F)cc6F)cc5)c(C(N)=O)c4N)C3)c(C)c2C)CCC[101CH:1]1[101O:1]c1ccc2c(c1)CN(C(=O)C(NC(=O)C(C)NC)C(C)(C)C)C(C(=O)NC1CCCc3ccccc31)C2

> <Shape>
0.306

> <Color>
0.129

> <Negative vol penalty>
0.000

$$$$

  -OEChem-04042322093D

 86 94  0     1  0  0  0  0  0999 V2000
  -26.3568  -12.8326   16.6314 C   0  0  0  0  0  0  0  0  0  0  0  0
  -25.3264  -13.7666   16.6682 C   0  0  0  0  0  0  0  0  0  0  0  0
  -28.8607  -24.6504   19.2711 C   0  0  0  0  0  0  0  0  0  0  0  0
  -27.5700  -23.7086   21.0833 C   0  0  0  0  0  0  0  0  0  0  0  0
  -26.8106  -12.2500   17.8140 C   0  0  0  0  0  0  0  0  0  0  0  0
  -24.7484  -14.1178   17.8876 C   0  0  0  0  0  0  0  0  0  0  0  0
  -21.7515  -19.6904   21.2462 C   0  0  0  0  0  0  0  0  0  0  0  0
  -18.7679  -28.8830   21.9919 C   0  0  0  0  0  0  0  0  0  0  0  0
  -17.8325  -27.9346   21.5782 C   0  0  0  0  0  0  0  0  0  0  0  0
  -29.9276  -23.8125   19.5955 C   0  0  0  0  0  0  0  0  0  0  0  0
  -28.6368  -22.8707   21.4077 C   0  0  0  0  0  0  0  0  0  0  0  0
  -20.5963  -20.0301   21.9491 C   0  0  0  0  0  0  0  0  0  0  0  0
  -29.9719  -19.9843   20.2644 C   0  0  0  0  0  0  0  0  0  0  0  0
  -29.6850  -18.6450   20.5284 C   0  0  0  0  0  0  0  0  0  0  0  0
  -21.5152  -19.0176   23.9365 C   0  0  0  0  0  0  0  0  0  0  0  0
  -19.7797  -27.2473   23.4540 C   0  0  0  0  0  0  0  0  0  0  0  0
  -30.6003  -18.8871   22.7512 C   0  0  0  0  0  0  0  0  0  0  0  0
  -27.6819  -24.5985   20.0150 C   0  0  0  0  0  0  0  0  0  0  0  0
  -25.5253  -25.1921   18.7886 C   0  0  0  0  0  0  0  0  0  0  0  0
  -26.2444  -12.6014   19.0496 C   0  0  0  0  0  0  0  0  0  0  0  0
  -22.7943  -19.0010   21.8814 C   0  0  0  0  0  0  0  0  0  0  0  0
  -25.1942  -13.5383   19.0877 C   0  0  0  0  0  0  0  0  0  0  0  0
  -22.6836  -18.6726   23.2401 C   0  0  0  0  0  0  0  0  0  0  0  0
  -19.7416  -28.5394   22.9298 C   0  0  0  0  0  0  0  0  0  0  0  0
  -17.8706  -26.6426   22.1024 C   0  0  0  0  0  0  0  0  0  0  0  0
  -18.8443  -26.2989   23.0403 C   0  0  0  0  0  0  0  0  0  0  0  0
  -29.8157  -22.9226   20.6638 C   0  0  0  0  0  0  0  0  0  0  0  0
  -20.4769  -19.6912   23.2937 C   0  0  0  0  0  0  0  0  0  0  0  0
  -30.5730  -20.7750   21.2438 C   0  0  0  0  0  0  0  0  0  0  0  0
  -29.9992  -18.0964   21.7718 C   0  0  0  0  0  0  0  0  0  0  0  0
  -30.8872  -20.2264   22.4872 C   0  0  0  0  0  0  0  0  0  0  0  0
  -26.5797  -25.4642   19.6807 C   0  0  0  0  0  0  0  0  0  0  0  0
  -24.7463  -26.3229   18.8225 C   0  0  0  0  0  0  0  0  0  0  0  0
  -25.2725  -24.0218   17.9998 C   0  0  0  0  0  0  0  0  0  0  0  0
  -24.1897  -16.1741   21.4745 C   0  0  0  0  0  0  0  0  0  0  0  0
  -26.2052  -17.2758   23.7649 C   0  0  0  0  0  0  0  0  0  0  0  0
  -26.7237  -19.3850   26.3973 C   0  0  0  0  0  0  0  0  0  0  0  0
  -22.9208  -30.3831   22.5234 C   0  0  0  0  0  0  0  0  0  0  0  0
  -17.6397  -23.5787   25.3215 C   0  0  0  0  0  0  0  0  0  0  0  0
  -26.7362  -11.9098   20.2964 C   0  0  0  0  0  0  0  0  0  0  0  0
  -24.0450  -18.6654   21.1162 C   0  0  0  0  0  0  0  0  0  0  0  0
  -23.7831  -17.9505   23.9736 C   0  0  0  0  0  0  0  0  0  0  0  0
  -26.3245  -12.6144   21.5864 C   0  0  0  0  0  0  0  0  0  0  0  0
  -25.4907  -31.0281   20.1451 C   0  0  0  0  0  0  0  0  0  0  0  0
  -24.8464  -12.9888   21.5419 C   0  0  0  0  0  0  0  0  0  0  0  0
  -25.9355  -29.6338   19.7000 C   0  0  0  0  0  0  0  0  0  0  0  0
  -25.1298  -31.0585   21.6286 C   0  0  0  0  0  0  0  0  0  0  0  0
  -24.5824  -28.6558   21.6003 C   0  0  0  0  0  0  0  0  0  0  0  0
  -24.5586  -13.9636   20.3936 C   0  0  1  0  0  0  0  0  0  0  0  0
  -24.8291  -17.5096   21.7299 C   0  0  1  0  0  0  0  0  0  0  0  0
  -24.9032  -28.5620   20.0988 C   0  0  2  0  0  0  0  0  0  0  0  0
  -16.8580  -25.6446   21.6452 C   0  0  0  0  0  0  0  0  0  0  0  0
  -28.4580  -20.0307   28.0922 C   0  0  0  0  0  0  0  0  0  0  0  0
  -25.6268  -14.7195   25.3270 C   0  0  0  0  0  0  0  0  0  0  0  0
  -26.5895  -15.8248   27.3567 C   0  0  0  0  0  0  0  0  0  0  0  0
  -28.0222  -15.4377   25.3517 C   0  0  0  0  0  0  0  0  0  0  0  0
  -26.8112  -22.1757   25.4158 C   0  0  0  0  0  0  0  0  0  0  0  0
  -20.7412  -29.5537   23.3723 C   0  0  0  0  0  0  0  0  0  0  0  0
  -18.9046  -24.9167   23.6178 C   0  0  0  0  0  0  0  0  0  0  0  0
  -18.4214  -21.2482   25.8230 C   0  0  0  0  0  0  0  0  0  0  0  0
  -19.4925  -20.2697   25.3799 C   0  0  0  0  0  0  0  0  0  1  0  0
  -26.2381  -17.2273   25.2734 C   0  0  1  0  0  0  0  0  0  0  0  0
  -27.8682  -20.3278   26.7223 C   0  0  2  0  0  0  0  0  0  0  0  0
  -26.5975  -15.8142   25.8132 C   0  0  0  0  0  0  0  0  0  0  0  0
  -26.4826  -26.6731   20.2404 N   0  0  0  0  0  0  0  0  0  0  0  0
  -25.3579  -27.1706   19.6985 N   0  0  0  0  0  0  0  0  0  0  0  0
  -24.9835  -17.6386   23.1804 N   0  0  0  0  0  0  0  0  0  0  0  0
  -24.1459  -30.0190   21.9405 N   0  0  0  0  0  0  0  0  0  0  0  0
  -23.6048  -26.6648   18.1881 N   0  0  0  0  0  0  0  0  0  0  0  0
  -26.1735  -22.9516   18.0844 N   0  0  0  0  0  0  0  0  0  0  0  0
  -16.5964  -23.4624   26.2407 N   0  0  0  0  0  0  0  0  0  0  0  0
  -24.9790  -15.3019   20.7494 N   0  0  0  0  0  0  0  0  0  0  0  0
  -27.1562  -18.2796   25.6957 N   0  0  0  0  0  0  0  0  0  0  0  0
  -22.0428  -29.3374   22.7807 N   0  0  0  0  0  0  0  0  0  0  0  0
  -18.5292  -22.5159   25.1098 N   0  0  0  0  0  0  0  0  0  0  0  0
  -17.8233  -24.7575   24.5895 N   0  3  0  0  0  0  0  0  0  0  0  0
  -27.3944  -21.7408   26.7111 N   0  3  0  0  0  0  0  0  0  0  0  0
  -24.2859  -23.9344   17.2299 O   0  0  0  0  0  0  0  0  0  0  0  0
  -23.0641  -15.9510   21.9046 O   0  0  0  0  0  0  0  0  0  0  0  0
  -27.2279  -17.0089   23.1288 O   0  0  0  0  0  0  0  0  0  0  0  0
  -25.5628  -19.6051   26.7354 O   0  0  0  0  0  0  0  0  0  0  0  0
  -22.6289  -31.5539   22.7895 O   0  0  0  0  0  0  0  0  0  0  0  0
  -30.8564  -22.1046   20.9805 O   0  0  0  0  0  0  0  0  0  0  0  0
  -19.3502  -20.0209   23.9820 O   0  0  0  0  0  0  0  0  0  1  0  0
  -29.7223  -16.8107   22.0256 F   0  0  0  0  0  0  0  0  0  0  0  0
  -31.4637  -20.9813   23.4325 F   0  0  0  0  0  0  0  0  0  0  0  0
  1  2  1  0  0  0  0
  1  5  2  0  0  0  0
  2  6  2  0  0  0  0
  3 10  2  0  0  0  0
  3 18  1  0  0  0  0
  4 11  1  0  0  0  0
  4 18  2  0  0  0  0
  5 20  1  0  0  0  0
  6 22  1  0  0  0  0
  7 12  2  0  0  0  0
  7 21  1  0  0  0  0
  8  9  2  0  0  0  0
  8 24  1  0  0  0  0
  9 25  1  0  0  0  0
 10 27  1  0  0  0  0
 11 27  2  0  0  0  0
 12 28  1  0  0  0  0
 13 14  2  0  0  0  0
 13 29  1  0  0  0  0
 14 30  1  0  0  0  0
 15 23  1  0  0  0  0
 15 28  2  0  0  0  0
 16 24  2  0  0  0  0
 16 26  1  0  0  0  0
 17 30  2  0  0  0  0
 17 31  1  0  0  0  0
 18 32  1  0  0  0  0
 19 32  1  0  0  0  0
 19 33  2  0  0  0  0
 19 34  1  0  0  0  0
 20 22  2  0  0  0  0
 20 40  1  0  0  0  0
 21 23  2  0  0  0  0
 21 41  1  0  0  0  0
 22 49  1  0  0  0  0
 23 42  1  0  0  0  0
 24 58  1  0  0  0  0
 25 26  2  0  0  0  0
 25 52  1  0  0  0  0
 26 59  1  0  0  0  0
 27 83  1  0  0  0  0
 28 84  1  0  0  0  0
 29 31  2  0  0  0  0
 29 83  1  0  0  0  0
 30 85  1  0  0  0  0
 31 86  1  0  0  0  0
 32 65  2  0  0  0  0
 33 66  1  0  0  0  0
 33 69  1  0  0  0  0
 34 70  1  0  0  0  0
 34 78  2  0  0  0  0
 35 50  1  0  0  0  0
 35 72  1  0  0  0  0
 35 79  2  0  0  0  0
 36 62  1  0  0  0  0
 36 67  1  0  0  0  0
 36 80  2  0  0  0  0
 37 63  1  0  0  0  0
 37 73  1  0  0  0  0
 37 81  2  0  0  0  0
 38 68  1  0  0  0  0
 38 74  1  0  0  0  0
 38 82  2  0  0  0  0
 39 71  1  0  0  0  0
 39 75  1  0  0  0  0
 39 76  2  0  0  0  0
 40 43  1  0  0  0  0
 41 50  1  0  0  0  0
 42 67  1  0  0  0  0
 43 45  1  0  0  0  0
 44 46  1  0  0  0  0
 44 47  1  0  0  0  0
 45 49  1  0  0  0  0
 46 51  1  0  0  0  0
 47 68  1  0  0  0  0
 48 51  1  0  0  0  0
 48 68  1  0  0  0  0
 49 72  1  0  0  0  0
 50 67  1  0  0  0  0
 51 66  1  0  0  0  0
 53 63  1  0  0  0  0
 54 64  1  0  0  0  0
 55 64  1  0  0  0  0
 56 64  1  0  0  0  0
 57 77  1  0  0  0  0
 58 74  1  0  0  0  0
 59 76  1  0  0  0  0
 60 61  1  0  0  0  0
 60 75  1  0  0  0  0
 61 84  1  0  0  0  0
 62 64  1  0  0  0  0
 62 73  1  0  0  0  0
 63 77  1  0  0  0  0
 65 66  1  0  0  0  0
M  CHG  2  76   1  77   1
M  ISO  4  38 100  61 101  74 100  84 101
M  END
> <Batch ID>
0041

> <Smiles>
CNC(C)C(=O)NC(C(=O)N1Cc2cc([101O:1][101CH2:1]CNC(N)=NCc3cc(C[100NH:0][100C:0](=O)N4CCCC(n5nc(-c6ccc(Oc7ccc(F)cc7F)cc6)c(C(N)=O)c5N)C4)ccc3C)ccc2CC1C(=O)NC1CCCc2ccccc21)C(C)(C)C

> <Shape>
0.191

> <Color>
0.069

> <Negative vol penalty>
0.000

$$$$

  -OEChem-04042322093D

 91100  0     1  0  0  0  0  0999 V2000
  -18.1334  -23.4923   24.2612 C   0  0  0  0  0  0  0  0  0  0  0  0
  -19.3661  -23.2458   23.6654 C   0  0  0  0  0  0  0  0  0  0  0  0
  -23.0165   -9.9709   20.2944 C   0  0  0  0  0  0  0  0  0  0  0  0
  -23.6823  -10.3114   22.5917 C   0  0  0  0  0  0  0  0  0  0  0  0
  -17.5906  -24.7762   24.2319 C   0  0  0  0  0  0  0  0  0  0  0  0
  -20.0563  -24.2829   23.0389 C   0  0  0  0  0  0  0  0  0  0  0  0
  -26.1267  -25.0637   22.8245 C   0  0  0  0  0  0  0  0  0  0  0  0
  -22.2269   -8.8889   20.6835 C   0  0  0  0  0  0  0  0  0  0  0  0
  -22.8928   -9.2294   22.9809 C   0  0  0  0  0  0  0  0  0  0  0  0
  -27.0769  -24.7657   21.8487 C   0  0  0  0  0  0  0  0  0  0  0  0
  -19.6191   -8.6148   23.5521 C   0  0  0  0  0  0  0  0  0  0  0  0
  -18.8143   -8.7744   24.6801 C   0  0  0  0  0  0  0  0  0  0  0  0
  -26.9393  -27.0311   21.0314 C   0  0  0  0  0  0  0  0  0  0  0  0
  -29.6067  -18.1038   21.7593 C   0  0  0  0  0  0  0  0  0  0  0  0
  -31.3009  -17.6040   20.1110 C   0  0  0  0  0  0  0  0  0  0  0  0
  -19.9629   -6.9427   25.7586 C   0  0  0  0  0  0  0  0  0  0  0  0
  -23.7442  -10.6822   21.2484 C   0  0  0  0  0  0  0  0  0  0  0  0
  -24.1704  -13.1495   20.7601 C   0  0  0  0  0  0  0  0  0  0  0  0
  -18.2789  -25.8316   23.6132 C   0  0  0  0  0  0  0  0  0  0  0  0
  -25.5668  -26.3469   22.9043 C   0  0  0  0  0  0  0  0  0  0  0  0
  -19.5215  -25.5818   23.0001 C   0  0  0  0  0  0  0  0  0  0  0  0
  -25.9842  -27.3436   22.0107 C   0  0  0  0  0  0  0  0  0  0  0  0
  -29.8174  -19.4685   21.5621 C   0  0  0  0  0  0  0  0  0  0  0  0
  -31.5115  -18.9687   19.9137 C   0  0  0  0  0  0  0  0  0  0  0  0
  -30.7697  -19.9009   20.6392 C   0  0  0  0  0  0  0  0  0  0  0  0
  -30.3485  -17.1716   21.0338 C   0  0  0  0  0  0  0  0  0  0  0  0
  -22.1650   -8.5182   22.0268 C   0  0  0  0  0  0  0  0  0  0  0  0
  -27.4812  -25.7486   20.9501 C   0  0  0  0  0  0  0  0  0  0  0  0
  -20.5958   -7.6192   23.5273 C   0  0  0  0  0  0  0  0  0  0  0  0
  -18.9862   -7.9384   25.7834 C   0  0  0  0  0  0  0  0  0  0  0  0
  -20.7676   -6.7832   24.6305 C   0  0  0  0  0  0  0  0  0  0  0  0
  -24.5604  -11.7996   20.8469 C   0  0  0  0  0  0  0  0  0  0  0  0
  -25.2996  -13.8066   20.3363 C   0  0  0  0  0  0  0  0  0  0  0  0
  -30.0763  -21.7123   18.2250 C   0  0  0  0  0  0  0  0  0  0  0  0
  -29.3267  -20.7067   17.7378 C   0  0  0  0  0  0  0  0  0  0  0  0
  -22.9009  -13.7552   21.0378 C   0  0  0  0  0  0  0  0  0  0  0  0
  -22.6334  -27.5362   22.6136 C   0  0  0  0  0  0  0  0  0  0  0  0
  -24.0797  -30.2903   23.5333 C   0  0  0  0  0  0  0  0  0  0  0  0
  -26.9513  -32.1211   23.7537 C   0  0  0  0  0  0  0  0  0  0  0  0
  -30.7845  -14.7294   20.5954 C   0  0  0  0  0  0  0  0  0  0  0  0
  -17.6301  -27.1923   23.5656 C   0  0  0  0  0  0  0  0  0  0  0  0
  -24.5626  -26.6597   23.9796 C   0  0  0  0  0  0  0  0  0  0  0  0
  -25.4285  -28.7424   22.0671 C   0  0  0  0  0  0  0  0  0  0  0  0
  -31.1337  -22.3713   17.3746 C   0  0  0  0  0  0  0  0  0  0  0  0
  -18.5987  -28.3168   23.2081 C   0  0  0  0  0  0  0  0  0  0  0  0
  -30.6059  -23.3550   16.3201 C   0  0  0  0  0  0  0  0  0  0  0  0
  -30.2825  -24.7570   16.8438 C   0  0  0  0  0  0  0  0  0  0  0  0
  -28.8047  -25.0451   17.1051 C   0  0  0  0  0  0  0  0  0  0  0  0
  -29.6915  -12.0088   18.5753 C   0  0  0  0  0  0  0  0  0  0  0  0
  -19.4595  -27.9201   22.0129 C   0  0  0  0  0  0  0  0  0  0  0  0
  -28.2270  -11.8229   18.9791 C   0  0  0  0  0  0  0  0  0  0  0  0
  -28.0328  -24.1176   18.0460 C   0  0  0  0  0  0  0  0  0  0  0  0
  -30.5637  -12.3967   19.7680 C   0  0  0  0  0  0  0  0  0  0  0  0
  -28.6261  -13.3724   20.9353 C   0  0  0  0  0  0  0  0  0  0  0  0
  -29.7924  -23.5024   19.9121 C   0  0  0  0  0  0  0  0  0  0  0  0
  -20.3120  -26.6861   22.3324 C   0  0  1  0  0  0  0  0  0  0  0  0
  -23.6801  -27.8576   23.6427 C   0  0  1  0  0  0  0  0  0  0  0  0
  -27.6970  -13.0446   19.7551 C   0  0  2  0  0  0  0  0  0  0  0  0
  -28.4417  -24.1069   19.5227 C   0  0  1  0  0  0  0  0  0  1  0  0
  -29.0105  -20.4463   22.3520 C   0  0  0  0  0  0  0  0  0  0  0  0
  -32.5372  -19.4055   18.9195 C   0  0  0  0  0  0  0  0  0  0  0  0
  -28.2680  -20.0118   18.5179 C   0  0  0  0  0  0  0  0  0  0  0  0
  -27.8121  -34.3509   24.5181 C   0  0  0  0  0  0  0  0  0  0  0  0
  -22.8851  -31.6001   21.0499 C   0  0  0  0  0  0  0  0  0  0  0  0
  -24.5079  -33.4832   21.3478 C   0  0  0  0  0  0  0  0  0  0  0  0
  -22.8093  -33.0120   23.1128 C   0  0  0  0  0  0  0  0  0  0  0  0
  -28.7606  -30.8733   25.7357 C   0  0  0  0  0  0  0  0  0  0  0  0
  -30.9958  -21.3688   20.4268 C   0  0  0  0  0  0  0  0  0  0  0  0
  -24.7602  -31.4314   22.8167 C   0  0  1  0  0  0  0  0  0  0  0  0
  -27.5629  -32.9010   24.9035 C   0  0  2  0  0  0  0  0  0  0  0  0
  -23.7499  -32.3549   22.0792 C   0  0  0  0  0  0  0  0  0  0  0  0
  -25.8376  -11.6090   20.5055 N   0  0  0  0  0  0  0  0  0  0  0  0
  -26.2598  -12.8477   20.2000 N   0  0  0  0  0  0  0  0  0  0  0  0
  -24.4448  -28.9973   23.1323 N   0  0  0  0  0  0  0  0  0  0  0  0
  -30.0025  -13.5638   20.4518 N   0  0  0  0  0  0  0  0  0  0  0  0
  -25.5548  -15.1053   20.0706 N   0  0  0  0  0  0  0  0  0  0  0  0
  -21.8478  -12.9343   21.4640 N   0  0  0  0  0  0  0  0  0  0  0  0
  -30.1340  -15.7852   21.2332 N   0  0  0  0  0  0  0  0  0  0  0  0
  -21.4515  -27.0556   23.1444 N   0  0  0  0  0  0  0  0  0  0  0  0
  -25.5739  -32.1142   23.8167 N   0  0  0  0  0  0  0  0  0  0  0  0
  -29.8973  -22.0270   19.6255 N   0  3  2  0  0  0  0  0  0  0  0  0
  -28.8615  -32.2927   25.3092 N   0  3  0  0  0  0  0  0  0  0  0  0
  -22.7016  -14.9855   20.8961 O   0  0  0  0  0  0  0  0  0  0  0  0
  -22.8793  -27.7128   21.4262 O   0  0  0  0  0  0  0  0  0  0  0  0
  -23.2597  -30.5369   24.4213 O   0  0  0  0  0  0  0  0  0  0  0  0
  -27.6277  -31.5759   22.8843 O   0  0  0  0  0  0  0  0  0  0  0  0
  -31.9364  -14.7959   20.1588 O   0  0  0  0  0  0  0  0  0  0  0  0
  -21.3945   -7.4625   22.4070 O   0  0  0  0  0  0  0  0  0  0  0  0
  -28.4114  -25.4591   19.9928 O   0  0  0  0  0  0  0  0  0  1  0  0
  -18.2143   -8.0927   26.8671 F   0  0  0  0  0  0  0  0  0  0  0  0
  -21.7050   -5.8257   24.6130 F   0  0  0  0  0  0  0  0  0  0  0  0
  1  2  1  0  0  0  0
  1  5  2  0  0  0  0
  2  6  2  0  0  0  0
  3  8  2  0  0  0  0
  3 17  1  0  0  0  0
  4  9  1  0  0  0  0
  4 17  2  0  0  0  0
  5 19  1  0  0  0  0
  6 21  1  0  0  0  0
  7 10  2  0  0  0  0
  7 20  1  0  0  0  0
  8 27  1  0  0  0  0
  9 27  2  0  0  0  0
 10 28  1  0  0  0  0
 11 12  2  0  0  0  0
 11 29  1  0  0  0  0
 12 30  1  0  0  0  0
 13 22  1  0  0  0  0
 13 28  2  0  0  0  0
 14 23  2  0  0  0  0
 14 26  1  0  0  0  0
 15 24  1  0  0  0  0
 15 26  2  0  0  0  0
 16 30  2  0  0  0  0
 16 31  1  0  0  0  0
 17 32  1  0  0  0  0
 18 32  1  0  0  0  0
 18 33  2  0  0  0  0
 18 36  1  0  0  0  0
 19 21  2  0  0  0  0
 19 41  1  0  0  0  0
 20 22  2  0  0  0  0
 20 42  1  0  0  0  0
 21 56  1  0  0  0  0
 22 43  1  0  0  0  0
 23 25  1  0  0  0  0
 23 60  1  0  0  0  0
 24 25  2  0  0  0  0
 24 61  1  0  0  0  0
 25 68  1  0  0  0  0
 26 78  1  0  0  0  0
 27 88  1  0  0  0  0
 28 89  1  0  0  0  0
 29 31  2  0  0  0  0
 29 88  1  0  0  0  0
 30 90  1  0  0  0  0
 31 91  1  0  0  0  0
 32 72  2  0  0  0  0
 33 73  1  0  0  0  0
 33 76  1  0  0  0  0
 34 35  2  0  0  0  0
 34 44  1  0  0  0  0
 34 81  1  0  0  0  0
 35 62  1  0  0  0  0
 36 77  1  0  0  0  0
 36 83  2  0  0  0  0
 37 57  1  0  0  0  0
 37 79  1  0  0  0  0
 37 84  2  0  0  0  0
 38 69  1  0  0  0  0
 38 74  1  0  0  0  0
 38 85  2  0  0  0  0
 39 70  1  0  0  0  0
 39 80  1  0  0  0  0
 39 86  2  0  0  0  0
 40 75  1  0  0  0  0
 40 78  1  0  0  0  0
 40 87  2  0  0  0  0
 41 45  1  0  0  0  0
 42 57  1  0  0  0  0
 43 74  1  0  0  0  0
 44 46  1  0  0  0  0
 45 50  1  0  0  0  0
 46 47  1  0  0  0  0
 47 48  1  0  0  0  0
 48 52  1  0  0  0  0
 49 51  1  0  0  0  0
 49 53  1  0  0  0  0
 50 56  1  0  0  0  0
 51 58  1  0  0  0  0
 52 59  1  0  0  0  0
 53 75  1  0  0  0  0
 54 58  1  0  0  0  0
 54 75  1  0  0  0  0
 55 59  1  0  0  0  0
 55 81  1  0  0  0  0
 56 79  1  0  0  0  0
 57 74  1  0  0  0  0
 58 73  1  0  0  0  0
 59 89  1  0  0  0  0
 63 70  1  0  0  0  0
 64 71  1  0  0  0  0
 65 71  1  0  0  0  0
 66 71  1  0  0  0  0
 67 82  1  0  0  0  0
 68 81  1  0  0  0  0
 69 71  1  0  0  0  0
 69 80  1  0  0  0  0
 70 82  1  0  0  0  0
 72 73  1  0  0  0  0
M  CHG  2  81   1  82   1
M  ISO  4  40 100  59 101  78 100  89 101
M  END
> <Batch ID>
0041

> <Smiles>
CC=C1CCCCC[101CH:1]([101O:1]c2ccc3c(c2)CN(C(=O)C(NC(=O)C(C)NC)C(C)(C)C)C(C(=O)NC2CCCc4ccccc42)C3)CN1Cc1c(C)cc([100NH:0][100C:0](=O)N2CCCC(n3nc(-c4ccc(Oc5ccc(F)cc5F)cc4)c(C(N)=O)c3N)C2)cc1C

> <Shape>
0.351

> <Color>
0.181

> <Negative vol penalty>
0.000

$$$$

  -OEChem-04042322093D

 86 95  0     1  0  0  0  0  0999 V2000
  -25.1507  -35.7344   21.9901 C   0  0  0  0  0  0  0  0  0  0  0  0
  -25.8732  -34.5460   21.9542 C   0  0  0  0  0  0  0  0  0  0  0  0
  -23.9597  -10.7867   23.5444 C   0  0  0  0  0  0  0  0  0  0  0  0
  -24.5858   -9.2508   21.7877 C   0  0  0  0  0  0  0  0  0  0  0  0
  -23.8502  -35.7433   22.4928 C   0  0  0  0  0  0  0  0  0  0  0  0
  -25.2959  -33.3661   22.4221 C   0  0  0  0  0  0  0  0  0  0  0  0
  -26.1052  -29.4448   19.3215 C   0  0  0  0  0  0  0  0  0  0  0  0
  -30.6403  -20.1763   20.5539 C   0  0  0  0  0  0  0  0  0  0  0  0
  -30.3785  -18.8524   20.2014 C   0  0  0  0  0  0  0  0  0  0  0  0
  -23.5781   -9.7123   24.3479 C   0  0  0  0  0  0  0  0  0  0  0  0
  -24.2043   -8.1763   22.5913 C   0  0  0  0  0  0  0  0  0  0  0  0
  -27.3613  -28.8419   19.3720 C   0  0  0  0  0  0  0  0  0  0  0  0
  -21.3307   -6.6527   23.5143 C   0  0  0  0  0  0  0  0  0  0  0  0
  -20.5693   -5.6424   22.9268 C   0  0  0  0  0  0  0  0  0  0  0  0
  -26.4558  -27.0853   20.7554 C   0  0  0  0  0  0  0  0  0  0  0  0
  -22.2946   -4.0355   23.4542 C   0  0  0  0  0  0  0  0  0  0  0  0
  -24.4634  -10.5560   22.2643 C   0  0  0  0  0  0  0  0  0  0  0  0
  -24.0439  -12.7247   20.9883 C   0  0  0  0  0  0  0  0  0  0  0  0
  -23.2533  -34.5611   22.9581 C   0  0  0  0  0  0  0  0  0  0  0  0
  -25.0156  -28.8774   19.9978 C   0  0  0  0  0  0  0  0  0  0  0  0
  -23.9868  -33.3595   22.9328 C   0  0  0  0  0  0  0  0  0  0  0  0
  -25.1864  -27.6816   20.7098 C   0  0  0  0  0  0  0  0  0  0  0  0
  -29.5897  -21.0278   20.8958 C   0  0  0  0  0  0  0  0  0  0  0  0
  -28.2773  -20.5554   20.8849 C   0  0  0  0  0  0  0  0  0  0  0  0
  -28.0155  -19.2315   20.5324 C   0  0  0  0  0  0  0  0  0  0  0  0
  -29.0662  -18.3799   20.1906 C   0  0  0  0  0  0  0  0  0  0  0  0
  -23.7004   -8.4071   23.8714 C   0  0  0  0  0  0  0  0  0  0  0  0
  -27.5374  -27.6635   20.0913 C   0  0  0  0  0  0  0  0  0  0  0  0
  -22.5741   -6.3544   24.0717 C   0  0  0  0  0  0  0  0  0  0  0  0
  -21.0512   -4.3338   22.8968 C   0  0  0  0  0  0  0  0  0  0  0  0
  -23.0560   -5.0458   24.0416 C   0  0  0  0  0  0  0  0  0  0  0  0
  -24.8572  -11.6655   21.4336 C   0  0  0  0  0  0  0  0  0  0  0  0
  -24.8836  -13.5098   20.2366 C   0  0  0  0  0  0  0  0  0  0  0  0
  -22.6537  -12.9766   21.2325 C   0  0  0  0  0  0  0  0  0  0  0  0
  -23.0984  -29.8203   22.3512 C   0  0  0  0  0  0  0  0  0  0  0  0
  -21.5310  -27.0675   21.6529 C   0  0  0  0  0  0  0  0  0  0  0  0
  -22.4177  -23.6673   20.8347 C   0  0  0  0  0  0  0  0  0  0  0  0
  -29.7673  -16.0710   19.4669 C   0  0  0  0  0  0  0  0  0  0  0  0
  -21.8620  -34.6291   23.5363 C   0  0  0  0  0  0  0  0  0  0  0  0
  -23.6612  -29.5258   19.9114 C   0  0  0  0  0  0  0  0  0  0  0  0
  -24.0443  -27.0213   21.4364 C   0  0  0  0  0  0  0  0  0  0  0  0
  -21.1888  -33.2652   23.6659 C   0  0  0  0  0  0  0  0  0  0  0  0
  -29.5743  -12.6370   18.5463 C   0  0  0  0  0  0  0  0  0  0  0  0
  -30.1106  -24.3426   17.9558 C   0  0  0  0  0  0  0  0  0  0  0  0
  -22.1465  -32.2542   24.2883 C   0  0  0  0  0  0  0  0  0  0  0  0
  -28.2630  -12.1653   19.1788 C   0  0  0  0  0  0  0  0  0  0  0  0
  -29.8431  -25.7531   18.4642 C   0  0  0  0  0  0  0  0  0  0  0  0
  -30.3021  -13.6445   19.4345 C   0  0  0  0  0  0  0  0  0  0  0  0
  -28.1830  -14.3232   20.4919 C   0  0  0  0  0  0  0  0  0  0  0  0
  -30.5699  -23.4190   19.0750 C   0  0  0  0  0  0  0  0  0  0  0  0
  -29.3261  -24.8145   20.7470 C   0  0  0  0  0  0  0  0  0  0  0  0
  -23.3863  -32.0543   23.4082 C   0  0  1  0  0  0  0  0  0  0  0  0
  -22.7382  -29.1371   21.0623 C   0  0  1  0  0  0  0  0  0  0  0  0
  -27.3821  -13.3563   19.6045 C   0  0  2  0  0  0  0  0  0  0  0  0
  -28.8647  -25.7468   19.6346 C   0  0  1  0  0  0  0  0  0  1  0  0
  -27.1526  -21.4711   21.2521 C   0  0  0  0  0  0  0  0  0  0  0  0
  -26.6064  -18.7266   20.5215 C   0  0  0  0  0  0  0  0  0  0  0  0
  -21.1814  -21.9331   19.5075 C   0  0  0  0  0  0  0  0  0  0  0  0
  -20.4688  -26.1653   24.3672 C   0  0  0  0  0  0  0  0  0  0  0  0
  -20.6601  -23.7973   23.5769 C   0  0  0  0  0  0  0  0  0  0  0  0
  -19.1267  -25.3803   22.4083 C   0  0  0  0  0  0  0  0  0  0  0  0
  -24.7107  -23.2634   19.0076 C   0  0  0  0  0  0  0  0  0  0  0  0
  -29.8990  -22.4471   21.2710 C   0  0  0  0  0  0  0  0  0  0  0  0
  -21.6255  -25.6353   22.1206 C   0  0  1  0  0  0  0  0  0  0  0  0
  -22.2739  -22.9907   19.4834 C   0  0  2  0  0  0  0  0  0  0  0  0
  -20.4929  -25.2617   23.1182 C   0  0  0  0  0  0  0  0  0  0  0  0
  -26.1168  -11.7654   21.0007 N   0  0  0  0  0  0  0  0  0  0  0  0
  -26.1013  -12.8967   20.2755 N   0  0  0  0  0  0  0  0  0  0  0  0
  -22.7408  -27.6970   21.3272 N   0  0  0  0  0  0  0  0  0  0  0  0
  -29.4073  -14.7467   19.7943 N   0  0  0  0  0  0  0  0  0  0  0  0
  -24.6917  -14.6578   19.5527 N   0  0  0  0  0  0  0  0  0  0  0  0
  -21.9397  -12.0690   22.0267 N   0  0  0  0  0  0  0  0  0  0  0  0
  -28.8235  -17.0315   19.8294 N   0  0  0  0  0  0  0  0  0  0  0  0
  -23.0744  -31.2003   22.2823 N   0  0  0  0  0  0  0  0  0  0  0  0
  -21.6555  -24.8135   20.9156 N   0  0  0  0  0  0  0  0  0  0  0  0
  -29.5506  -23.4320   20.1893 N   0  3  2  0  0  0  0  0  0  0  0  0
  -23.5542  -22.3350   19.0935 N   0  3  0  0  0  0  0  0  0  0  0  0
  -22.0582  -13.9681   20.7469 O   0  0  0  0  0  0  0  0  0  0  0  0
  -23.3759  -29.1455   23.3357 O   0  0  0  0  0  0  0  0  0  0  0  0
  -20.4239  -27.6056   21.5723 O   0  0  0  0  0  0  0  0  0  0  0  0
  -23.1317  -23.2214   21.7302 O   0  0  0  0  0  0  0  0  0  0  0  0
  -30.8218  -16.3311   18.8819 O   0  0  0  0  0  0  0  0  0  0  0  0
  -23.3285   -7.3584   24.6552 O   0  0  0  0  0  0  0  0  0  0  0  0
  -28.7625  -27.0733   20.1427 O   0  0  0  0  0  0  0  0  0  1  0  0
  -20.3193   -3.3634   22.3340 F   0  0  0  0  0  0  0  0  0  0  0  0
  -24.2493   -4.7529   24.5765 F   0  0  0  0  0  0  0  0  0  0  0  0
  1  2  1  0  0  0  0
  1  5  2  0  0  0  0
  2  6  2  0  0  0  0
  3 10  2  0  0  0  0
  3 17  1  0  0  0  0
  4 11  1  0  0  0  0
  4 17  2  0  0  0  0
  5 19  1  0  0  0  0
  6 21  1  0  0  0  0
  7 12  2  0  0  0  0
  7 20  1  0  0  0  0
  8  9  2  0  0  0  0
  8 23  1  0  0  0  0
  9 26  1  0  0  0  0
 10 27  1  0  0  0  0
 11 27  2  0  0  0  0
 12 28  1  0  0  0  0
 13 14  2  0  0  0  0
 13 29  1  0  0  0  0
 14 30  1  0  0  0  0
 15 22  1  0  0  0  0
 15 28  2  0  0  0  0
 16 30  2  0  0  0  0
 16 31  1  0  0  0  0
 17 32  1  0  0  0  0
 18 32  1  0  0  0  0
 18 33  2  0  0  0  0
 18 34  1  0  0  0  0
 19 21  2  0  0  0  0
 19 39  1  0  0  0  0
 20 22  2  0  0  0  0
 20 40  1  0  0  0  0
 21 52  1  0  0  0  0
 22 41  1  0  0  0  0
 23 24  2  0  0  0  0
 23 63  1  0  0  0  0
 24 25  1  0  0  0  0
 24 56  1  0  0  0  0
 25 26  2  0  0  0  0
 25 57  1  0  0  0  0
 26 73  1  0  0  0  0
 27 83  1  0  0  0  0
 28 84  1  0  0  0  0
 29 31  2  0  0  0  0
 29 83  1  0  0  0  0
 30 85  1  0  0  0  0
 31 86  1  0  0  0  0
 32 67  2  0  0  0  0
 33 68  1  0  0  0  0
 33 71  1  0  0  0  0
 34 72  1  0  0  0  0
 34 78  2  0  0  0  0
 35 53  1  0  0  0  0
 35 74  1  0  0  0  0
 35 79  2  0  0  0  0
 36 64  1  0  0  0  0
 36 69  1  0  0  0  0
 36 80  2  0  0  0  0
 37 65  1  0  0  0  0
 37 75  1  0  0  0  0
 37 81  2  0  0  0  0
 38 70  1  0  0  0  0
 38 73  1  0  0  0  0
 38 82  2  0  0  0  0
 39 42  1  0  0  0  0
 40 53  1  0  0  0  0
 41 69  1  0  0  0  0
 42 45  1  0  0  0  0
 43 46  1  0  0  0  0
 43 48  1  0  0  0  0
 44 47  1  0  0  0  0
 44 50  1  0  0  0  0
 45 52  1  0  0  0  0
 46 54  1  0  0  0  0
 47 55  1  0  0  0  0
 48 70  1  0  0  0  0
 49 54  1  0  0  0  0
 49 70  1  0  0  0  0
 50 76  1  0  0  0  0
 51 55  1  0  0  0  0
 51 76  1  0  0  0  0
 52 74  1  0  0  0  0
 53 69  1  0  0  0  0
 54 68  1  0  0  0  0
 55 84  1  0  0  0  0
 58 65  1  0  0  0  0
 59 66  1  0  0  0  0
 60 66  1  0  0  0  0
 61 66  1  0  0  0  0
 62 77  1  0  0  0  0
 63 76  1  0  0  0  0
 64 66  1  0  0  0  0
 64 75  1  0  0  0  0
 65 77  1  0  0  0  0
 67 68  1  0  0  0  0
M  CHG  2  76   1  77   1
M  ISO  4  38 100  55 101  73 100  84 101
M  END
> <Batch ID>
0041

> <Smiles>
CNC(C)C(=O)NC(C(=O)N1Cc2cc([101O:1][101CH:1]3CCCN(Cc4ccc([100NH:0][100C:0](=O)N5CCCC(n6nc(-c7ccc(Oc8ccc(F)cc8F)cc7)c(C(N)=O)c6N)C5)c(C)c4C)C3)ccc2CC1C(=O)NC1CCCc2ccccc21)C(C)(C)C

> <Shape>
0.338

> <Color>
0.154

> <Negative vol penalty>
0.000

$$$$

  -OEChem-04042322093D

 84 92  0     1  0  0  0  0  0999 V2000
  -26.3631  -33.1807   19.3399 C   0  0  0  0  0  0  0  0  0  0  0  0
  -27.4296  -32.5025   19.9213 C   0  0  0  0  0  0  0  0  0  0  0  0
  -23.0415   -9.8838   19.9641 C   0  0  0  0  0  0  0  0  0  0  0  0
  -23.8015   -9.8981   22.2574 C   0  0  0  0  0  0  0  0  0  0  0  0
  -25.0620  -32.7103   19.5126 C   0  0  0  0  0  0  0  0  0  0  0  0
  -27.1955  -31.3540   20.6766 C   0  0  0  0  0  0  0  0  0  0  0  0
  -30.7922  -26.4133   21.0753 C   0  0  0  0  0  0  0  0  0  0  0  0
  -32.7935  -17.3197   23.3810 C   0  0  0  0  0  0  0  0  0  0  0  0
  -32.1672  -16.4477   22.4906 C   0  0  0  0  0  0  0  0  0  0  0  0
  -22.2740   -8.7488   20.2255 C   0  0  0  0  0  0  0  0  0  0  0  0
  -23.0341   -8.7630   22.5188 C   0  0  0  0  0  0  0  0  0  0  0  0
  -31.7319  -26.0113   22.0235 C   0  0  0  0  0  0  0  0  0  0  0  0
  -19.7902   -8.0379   23.1289 C   0  0  0  0  0  0  0  0  0  0  0  0
  -19.0327   -8.0253   24.3000 C   0  0  0  0  0  0  0  0  0  0  0  0
  -30.0547  -24.6527   23.1009 C   0  0  0  0  0  0  0  0  0  0  0  0
  -20.2340   -6.0702   25.0560 C   0  0  0  0  0  0  0  0  0  0  0  0
  -23.8053  -10.4585   20.9801 C   0  0  0  0  0  0  0  0  0  0  0  0
  -24.1990  -12.9747   20.8349 C   0  0  0  0  0  0  0  0  0  0  0  0
  -24.8127  -31.5500   20.2624 C   0  0  0  0  0  0  0  0  0  0  0  0
  -29.4716  -25.9458   21.1393 C   0  0  0  0  0  0  0  0  0  0  0  0
  -25.8897  -30.8684   20.8606 C   0  0  0  0  0  0  0  0  0  0  0  0
  -29.1008  -25.0484   22.1508 C   0  0  0  0  0  0  0  0  0  0  0  0
  -32.0324  -18.2178   24.1293 C   0  0  0  0  0  0  0  0  0  0  0  0
  -30.6450  -18.2438   23.9871 C   0  0  0  0  0  0  0  0  0  0  0  0
  -30.0187  -17.3718   23.0967 C   0  0  0  0  0  0  0  0  0  0  0  0
  -30.7798  -16.4737   22.3484 C   0  0  0  0  0  0  0  0  0  0  0  0
  -22.2703   -8.1884   21.5028 C   0  0  0  0  0  0  0  0  0  0  0  0
  -31.3625  -25.1331   23.0382 C   0  0  0  0  0  0  0  0  0  0  0  0
  -20.7696   -7.0666   22.9212 C   0  0  0  0  0  0  0  0  0  0  0  0
  -19.2546   -7.0414   25.2636 C   0  0  0  0  0  0  0  0  0  0  0  0
  -20.9915   -6.0828   23.8848 C   0  0  0  0  0  0  0  0  0  0  0  0
  -24.5987  -11.6306   20.7105 C   0  0  0  0  0  0  0  0  0  0  0  0
  -25.3063  -13.6979   20.4642 C   0  0  0  0  0  0  0  0  0  0  0  0
  -22.9395  -13.5207   21.2484 C   0  0  0  0  0  0  0  0  0  0  0  0
  -26.6258  -27.3087   21.5235 C   0  0  0  0  0  0  0  0  0  0  0  0
  -25.5439  -24.3033   20.9584 C   0  0  0  0  0  0  0  0  0  0  0  0
  -26.1595  -20.9467   21.0005 C   0  0  0  0  0  0  0  0  0  0  0  0
  -30.7929  -14.6324   20.6291 C   0  0  0  0  0  0  0  0  0  0  0  0
  -23.3849  -31.1066   20.4607 C   0  0  0  0  0  0  0  0  0  0  0  0
  -28.4767  -26.3681   20.0933 C   0  0  0  0  0  0  0  0  0  0  0  0
  -27.7011  -24.5016   22.2518 C   0  0  0  0  0  0  0  0  0  0  0  0
  -23.2572  -29.6710   20.9635 C   0  0  0  0  0  0  0  0  0  0  0  0
  -29.6288  -12.2185   18.2850 C   0  0  0  0  0  0  0  0  0  0  0  0
  -24.2242  -29.4212   22.1165 C   0  0  0  0  0  0  0  0  0  0  0  0
  -28.1835  -11.9609   18.7173 C   0  0  0  0  0  0  0  0  0  0  0  0
  -30.5486  -12.4404   19.4844 C   0  0  0  0  0  0  0  0  0  0  0  0
  -28.6570  -13.2178   20.8581 C   0  0  0  0  0  0  0  0  0  0  0  0
  -25.6785  -29.6050   21.6664 C   0  0  1  0  0  0  0  0  0  0  0  0
  -27.0293  -26.2323   20.5559 C   0  0  1  0  0  0  0  0  0  0  0  0
  -27.6808  -13.0528   19.6820 C   0  0  2  0  0  0  0  0  0  0  0  0
  -29.8314  -19.2081   24.7912 C   0  0  0  0  0  0  0  0  0  0  0  0
  -28.5298  -17.4014   22.9457 C   0  0  0  0  0  0  0  0  0  0  0  0
  -25.0701  -18.7380   20.5186 C   0  0  0  0  0  0  0  0  0  0  0  0
  -23.9651  -24.5169   23.5607 C   0  0  0  0  0  0  0  0  0  0  0  0
  -23.6837  -22.0296   23.5128 C   0  0  0  0  0  0  0  0  0  0  0  0
  -22.7313  -23.4264   21.6785 C   0  0  0  0  0  0  0  0  0  0  0  0
  -28.1513  -20.2885   18.9128 C   0  0  0  0  0  0  0  0  0  0  0  0
  -32.7312  -19.1447   25.0798 C   0  0  0  0  0  0  0  0  0  0  0  0
  -33.4790  -22.8966   24.9210 C   0  0  0  0  0  0  0  0  0  0  0  0
  -33.4343  -21.5002   25.5228 C   0  0  0  0  0  0  0  0  0  0  0  0
  -32.1098  -23.4413   24.5332 C   0  0  0  0  0  0  0  0  0  1  0  0
  -25.2346  -23.0996   21.8155 C   0  0  1  0  0  0  0  0  0  0  0  0
  -25.9236  -19.8663   19.9606 C   0  0  2  0  0  0  0  0  0  0  0  0
  -23.9296  -23.2797   22.6414 C   0  0  0  0  0  0  0  0  0  0  0  0
  -25.8613  -11.5046   20.2934 N   0  0  0  0  0  0  0  0  0  0  0  0
  -26.2645  -12.7788   20.1523 N   0  0  0  0  0  0  0  0  0  0  0  0
  -26.7628  -24.9491   21.2092 N   0  0  0  0  0  0  0  0  0  0  0  0
  -30.0110  -13.4913   20.3513 N   0  0  0  0  0  0  0  0  0  0  0  0
  -25.5441  -15.0239   20.3779 N   0  0  0  0  0  0  0  0  0  0  0  0
  -21.9091  -12.6360   21.5947 N   0  0  0  0  0  0  0  0  0  0  0  0
  -30.1648  -15.5787   21.4382 N   0  0  0  0  0  0  0  0  0  0  0  0
  -26.1271  -28.4482   20.9215 N   0  0  0  0  0  0  0  0  0  0  0  0
  -25.2186  -21.9512   20.9159 N   0  0  0  0  0  0  0  0  0  0  0  0
  -27.2218  -19.2928   19.5058 N   0  3  0  0  0  0  0  0  0  0  0  0
  -32.8060  -20.5454   24.5799 N   0  3  0  0  0  0  0  0  0  0  0  0
  -22.7286  -14.7565   21.2935 O   0  0  0  0  0  0  0  0  0  0  0  0
  -26.7558  -27.1189   22.7271 O   0  0  0  0  0  0  0  0  0  0  0  0
  -24.7371  -24.6531   20.0934 O   0  0  0  0  0  0  0  0  0  0  0  0
  -27.0836  -20.9022   21.8096 O   0  0  0  0  0  0  0  0  0  0  0  0
  -31.9252  -14.7732   20.1600 O   0  0  0  0  0  0  0  0  0  0  0  0
  -21.5214   -7.0810   21.7583 O   0  0  0  0  0  0  0  0  0  0  0  0
  -32.2777  -24.7396   23.9653 O   0  0  0  0  0  0  0  0  0  1  0  0
  -18.5282   -7.0303   26.3889 F   0  0  0  0  0  0  0  0  0  0  0  0
  -21.9318   -5.1478   23.6914 F   0  0  0  0  0  0  0  0  0  0  0  0
  1  2  1  0  0  0  0
  1  5  2  0  0  0  0
  2  6  2  0  0  0  0
  3 10  2  0  0  0  0
  3 17  1  0  0  0  0
  4 11  1  0  0  0  0
  4 17  2  0  0  0  0
  5 19  1  0  0  0  0
  6 21  1  0  0  0  0
  7 12  2  0  0  0  0
  7 20  1  0  0  0  0
  8  9  2  0  0  0  0
  8 23  1  0  0  0  0
  9 26  1  0  0  0  0
 10 27  1  0  0  0  0
 11 27  2  0  0  0  0
 12 28  1  0  0  0  0
 13 14  2  0  0  0  0
 13 29  1  0  0  0  0
 14 30  1  0  0  0  0
 15 22  1  0  0  0  0
 15 28  2  0  0  0  0
 16 30  2  0  0  0  0
 16 31  1  0  0  0  0
 17 32  1  0  0  0  0
 18 32  1  0  0  0  0
 18 33  2  0  0  0  0
 18 34  1  0  0  0  0
 19 21  2  0  0  0  0
 19 39  1  0  0  0  0
 20 22  2  0  0  0  0
 20 40  1  0  0  0  0
 21 48  1  0  0  0  0
 22 41  1  0  0  0  0
 23 24  2  0  0  0  0
 23 58  1  0  0  0  0
 24 25  1  0  0  0  0
 24 51  1  0  0  0  0
 25 26  2  0  0  0  0
 25 52  1  0  0  0  0
 26 71  1  0  0  0  0
 27 81  1  0  0  0  0
 28 82  1  0  0  0  0
 29 31  2  0  0  0  0
 29 81  1  0  0  0  0
 30 83  1  0  0  0  0
 31 84  1  0  0  0  0
 32 65  2  0  0  0  0
 33 66  1  0  0  0  0
 33 69  1  0  0  0  0
 34 70  1  0  0  0  0
 34 76  2  0  0  0  0
 35 49  1  0  0  0  0
 35 72  1  0  0  0  0
 35 77  2  0  0  0  0
 36 62  1  0  0  0  0
 36 67  1  0  0  0  0
 36 78  2  0  0  0  0
 37 63  1  0  0  0  0
 37 73  1  0  0  0  0
 37 79  2  0  0  0  0
 38 68  1  0  0  0  0
 38 71  1  0  0  0  0
 38 80  2  0  0  0  0
 39 42  1  0  0  0  0
 40 49  1  0  0  0  0
 41 67  1  0  0  0  0
 42 44  1  0  0  0  0
 43 45  1  0  0  0  0
 43 46  1  0  0  0  0
 44 48  1  0  0  0  0
 45 50  1  0  0  0  0
 46 68  1  0  0  0  0
 47 50  1  0  0  0  0
 47 68  1  0  0  0  0
 48 72  1  0  0  0  0
 49 67  1  0  0  0  0
 50 66  1  0  0  0  0
 53 63  1  0  0  0  0
 54 64  1  0  0  0  0
 55 64  1  0  0  0  0
 56 64  1  0  0  0  0
 57 74  1  0  0  0  0
 58 75  1  0  0  0  0
 59 60  1  0  0  0  0
 59 61  1  0  0  0  0
 60 75  1  0  0  0  0
 61 82  1  0  0  0  0
 62 64  1  0  0  0  0
 62 73  1  0  0  0  0
 63 74  1  0  0  0  0
 65 66  1  0  0  0  0
M  CHG  2  74   1  75   1
M  ISO  4  38 100  61 101  71 100  82 101
M  END
> <Batch ID>
0041

> <Smiles>
CNC(C)C(=O)NC(C(=O)N1Cc2cc([101O:1][101CH2:1]CCNCc3ccc([100NH:0][100C:0](=O)N4CCCC(n5nc(-c6ccc(Oc7ccc(F)cc7F)cc6)c(C(N)=O)c5N)C4)c(C)c3C)ccc2CC1C(=O)NC1CCCc2ccccc21)C(C)(C)C

> <Shape>
0.261

> <Color>
0.213

> <Negative vol penalty>
0.000

$$$$

  -OEChem-04042322093D

 87 96  0     1  0  0  0  0  0999 V2000
  -24.0213  -18.7991   25.6739 C   0  0  0  0  0  0  0  0  0  0  0  0
  -24.9980  -19.7829   25.5571 C   0  0  0  0  0  0  0  0  0  0  0  0
  -22.9568  -14.7546   21.0755 C   0  0  0  0  0  0  0  0  0  0  0  0
  -24.2125  -13.4632   19.4653 C   0  0  0  0  0  0  0  0  0  0  0  0
  -22.8820  -18.8507   24.8718 C   0  0  0  0  0  0  0  0  0  0  0  0
  -24.8364  -20.8184   24.6372 C   0  0  0  0  0  0  0  0  0  0  0  0
  -26.6540  -26.6311   25.2808 C   0  0  0  0  0  0  0  0  0  0  0  0
  -22.1732  -13.6366   21.3612 C   0  0  0  0  0  0  0  0  0  0  0  0
  -23.4289  -12.3451   19.7510 C   0  0  0  0  0  0  0  0  0  0  0  0
  -27.7743  -27.3202   24.8184 C   0  0  0  0  0  0  0  0  0  0  0  0
  -23.2420   -9.9875   22.1649 C   0  0  0  0  0  0  0  0  0  0  0  0
  -23.8956   -8.7681   22.3423 C   0  0  0  0  0  0  0  0  0  0  0  0
  -26.4976  -28.1189   22.9338 C   0  0  0  0  0  0  0  0  0  0  0  0
  -28.7093  -24.2481   20.8137 C   0  0  0  0  0  0  0  0  0  0  0  0
  -30.7700  -22.4063   20.4347 C   0  0  0  0  0  0  0  0  0  0  0  0
  -22.6504   -7.8320   20.4956 C   0  0  0  0  0  0  0  0  0  0  0  0
  -23.9764  -14.6679   20.1276 C   0  0  0  0  0  0  0  0  0  0  0  0
  -24.3462  -17.0641   19.3342 C   0  0  0  0  0  0  0  0  0  0  0  0
  -22.7018  -19.8927   23.9485 C   0  0  0  0  0  0  0  0  0  0  0  0
  -25.4481  -26.6719   24.5662 C   0  0  0  0  0  0  0  0  0  0  0  0
  -23.6943  -20.8833   23.8211 C   0  0  0  0  0  0  0  0  0  0  0  0
  -25.3628  -27.4315   23.3907 C   0  0  0  0  0  0  0  0  0  0  0  0
  -29.9120  -24.6561   20.2368 C   0  0  0  0  0  0  0  0  0  0  0  0
  -28.5371  -22.9192   21.2012 C   0  0  0  0  0  0  0  0  0  0  0  0
  -30.9423  -23.7352   20.0472 C   0  0  0  0  0  0  0  0  0  0  0  0
  -29.5674  -21.9983   21.0116 C   0  0  0  0  0  0  0  0  0  0  0  0
  -22.4093  -12.4319   20.6990 C   0  0  0  0  0  0  0  0  0  0  0  0
  -27.6970  -28.0619   23.6432 C   0  0  0  0  0  0  0  0  0  0  0  0
  -22.2925  -10.1291   21.1529 C   0  0  0  0  0  0  0  0  0  0  0  0
  -23.5998   -7.6904   21.5076 C   0  0  0  0  0  0  0  0  0  0  0  0
  -21.9967   -9.0514   20.3183 C   0  0  0  0  0  0  0  0  0  0  0  0
  -24.7858  -15.8227   19.8316 C   0  0  0  0  0  0  0  0  0  0  0  0
  -25.4908  -17.8155   19.2263 C   0  0  0  0  0  0  0  0  0  0  0  0
  -31.4802  -28.0455   20.1081 C   0  0  0  0  0  0  0  0  0  0  0  0
  -32.7617  -28.0167   19.7122 C   0  0  0  0  0  0  0  0  0  0  0  0
  -23.0216  -17.4991   18.9995 C   0  0  0  0  0  0  0  0  0  0  0  0
  -23.6275  -24.5092   23.1131 C   0  0  0  0  0  0  0  0  0  0  0  0
  -21.6164  -27.0262   22.7359 C   0  0  0  0  0  0  0  0  0  0  0  0
  -21.9017  -30.5196   21.8805 C   0  0  0  0  0  0  0  0  0  0  0  0
  -30.3460  -19.6167   21.2724 C   0  0  0  0  0  0  0  0  0  0  0  0
  -21.4760  -19.8803   23.0700 C   0  0  0  0  0  0  0  0  0  0  0  0
  -24.2413  -25.9447   25.0926 C   0  0  0  0  0  0  0  0  0  0  0  0
  -24.0858  -27.5242   22.5974 C   0  0  0  0  0  0  0  0  0  0  0  0
  -30.5936  -29.2479   19.9301 C   0  0  0  0  0  0  0  0  0  0  0  0
  -21.2045  -21.2168   22.3843 C   0  0  0  0  0  0  0  0  0  0  0  0
  -29.9175  -29.6079   21.2476 C   0  0  0  0  0  0  0  0  0  0  0  0
  -30.3580  -16.4756   19.5960 C   0  0  0  0  0  0  0  0  0  0  0  0
  -22.4865  -21.7734   21.7731 C   0  0  0  0  0  0  0  0  0  0  0  0
  -28.8733  -16.1278   19.4669 C   0  0  0  0  0  0  0  0  0  0  0  0
  -30.6632  -17.1777   20.9180 C   0  0  0  0  0  0  0  0  0  0  0  0
  -28.3490  -18.0081   21.0721 C   0  0  0  0  0  0  0  0  0  0  0  0
  -30.2919  -27.2516   22.0676 C   0  0  0  0  0  0  0  0  0  0  0  0
  -23.5435  -22.0361   22.8525 C   0  0  1  0  0  0  0  0  0  0  0  0
  -23.2094  -25.6387   24.0113 C   0  0  1  0  0  0  0  0  0  0  0  0
  -27.9816  -17.3575   19.7284 C   0  0  2  0  0  0  0  0  0  0  0  0
  -29.2790  -28.3811   21.8987 C   0  0  1  0  0  0  0  0  0  1  0  0
  -27.2382  -22.5101   21.8166 C   0  0  0  0  0  0  0  0  0  0  0  0
  -32.2387  -24.1490   19.4319 C   0  0  0  0  0  0  0  0  0  0  0  0
  -20.4321  -32.4679   22.4655 C   0  0  0  0  0  0  0  0  0  0  0  0
  -20.2797  -26.4514   20.0539 C   0  0  0  0  0  0  0  0  0  0  0  0
  -20.0703  -28.9222   19.7078 C   0  0  0  0  0  0  0  0  0  0  0  0
  -18.9103  -27.8308   21.6277 C   0  0  0  0  0  0  0  0  0  0  0  0
  -24.1653  -32.0244   23.0513 C   0  0  0  0  0  0  0  0  0  0  0  0
  -30.0743  -26.0906   19.8284 C   0  0  0  0  0  0  0  0  0  0  0  0
  -21.4243  -28.0930   21.6852 C   0  0  1  0  0  0  0  0  0  0  0  0
  -21.7001  -31.7024   22.8105 C   0  0  2  0  0  0  0  0  0  0  0  0
  -20.1966  -27.8125   20.7734 C   0  0  0  0  0  0  0  0  0  0  0  0
  -26.1067  -15.7836   20.0262 N   0  0  0  0  0  0  0  0  0  0  0  0
  -26.5069  -17.0099   19.6489 N   0  0  0  0  0  0  0  0  0  0  0  0
  -22.9351  -26.7904   23.1496 N   0  0  0  0  0  0  0  0  0  0  0  0
  -29.7834  -18.3349   21.0955 N   0  0  0  0  0  0  0  0  0  0  0  0
  -25.7172  -19.0803   18.8121 N   0  0  0  0  0  0  0  0  0  0  0  0
  -22.5622  -17.2958   17.6911 N   0  0  0  0  0  0  0  0  0  0  0  0
  -29.4115  -20.6441   21.3984 N   0  0  0  0  0  0  0  0  0  0  0  0
  -23.2453  -23.2603   23.5645 N   0  0  0  0  0  0  0  0  0  0  0  0
  -21.3598  -29.3631   22.4002 N   0  0  0  0  0  0  0  0  0  0  0  0
  -30.9527  -26.8739   20.7644 N   0  3  1  0  0  0  0  0  0  0  0  0
  -22.8552  -32.6391   22.7151 N   0  3  0  0  0  0  0  0  0  0  0  0
  -22.2738  -18.0664   19.8316 O   0  0  0  0  0  0  0  0  0  0  0  0
  -24.2495  -24.7527   22.0857 O   0  0  0  0  0  0  0  0  0  0  0  0
  -20.6319  -26.4291   23.1785 O   0  0  0  0  0  0  0  0  0  0  0  0
  -22.4786  -30.6132   20.7993 O   0  0  0  0  0  0  0  0  0  0  0  0
  -31.5668  -19.7938   21.2822 O   0  0  0  0  0  0  0  0  0  0  0  0
  -21.6450  -11.3406   20.9776 O   0  0  0  0  0  0  0  0  0  0  0  0
  -28.7892  -28.7350   23.1893 O   0  0  0  0  0  0  0  0  0  1  0  0
  -24.2287   -6.5199   21.6771 F   0  0  0  0  0  0  0  0  0  0  0  0
  -21.0863   -9.1818   19.3436 F   0  0  0  0  0  0  0  0  0  0  0  0
  1  2  1  0  0  0  0
  1  5  2  0  0  0  0
  2  6  2  0  0  0  0
  3  8  2  0  0  0  0
  3 17  1  0  0  0  0
  4  9  1  0  0  0  0
  4 17  2  0  0  0  0
  5 19  1  0  0  0  0
  6 21  1  0  0  0  0
  7 10  2  0  0  0  0
  7 20  1  0  0  0  0
  8 27  1  0  0  0  0
  9 27  2  0  0  0  0
 10 28  1  0  0  0  0
 11 12  2  0  0  0  0
 11 29  1  0  0  0  0
 12 30  1  0  0  0  0
 13 22  1  0  0  0  0
 13 28  2  0  0  0  0
 14 23  1  0  0  0  0
 14 24  2  0  0  0  0
 15 25  1  0  0  0  0
 15 26  2  0  0  0  0
 16 30  2  0  0  0  0
 16 31  1  0  0  0  0
 17 32  1  0  0  0  0
 18 32  1  0  0  0  0
 18 33  2  0  0  0  0
 18 36  1  0  0  0  0
 19 21  2  0  0  0  0
 19 41  1  0  0  0  0
 20 22  2  0  0  0  0
 20 42  1  0  0  0  0
 21 53  1  0  0  0  0
 22 43  1  0  0  0  0
 23 25  2  0  0  0  0
 23 64  1  0  0  0  0
 24 26  1  0  0  0  0
 24 57  1  0  0  0  0
 25 58  1  0  0  0  0
 26 74  1  0  0  0  0
 27 84  1  0  0  0  0
 28 85  1  0  0  0  0
 29 31  2  0  0  0  0
 29 84  1  0  0  0  0
 30 86  1  0  0  0  0
 31 87  1  0  0  0  0
 32 68  2  0  0  0  0
 33 69  1  0  0  0  0
 33 72  1  0  0  0  0
 34 35  2  0  0  0  0
 34 44  1  0  0  0  0
 34 77  1  0  0  0  0
 36 73  1  0  0  0  0
 36 79  2  0  0  0  0
 37 54  1  0  0  0  0
 37 75  1  0  0  0  0
 37 80  2  0  0  0  0
 38 65  1  0  0  0  0
 38 70  1  0  0  0  0
 38 81  2  0  0  0  0
 39 66  1  0  0  0  0
 39 76  1  0  0  0  0
 39 82  2  0  0  0  0
 40 71  1  0  0  0  0
 40 74  1  0  0  0  0
 40 83  2  0  0  0  0
 41 45  1  0  0  0  0
 42 54  1  0  0  0  0
 43 70  1  0  0  0  0
 44 46  1  0  0  0  0
 45 48  1  0  0  0  0
 46 56  1  0  0  0  0
 47 49  1  0  0  0  0
 47 50  1  0  0  0  0
 48 53  1  0  0  0  0
 49 55  1  0  0  0  0
 50 71  1  0  0  0  0
 51 55  1  0  0  0  0
 51 71  1  0  0  0  0
 52 56  1  0  0  0  0
 52 77  1  0  0  0  0
 53 75  1  0  0  0  0
 54 70  1  0  0  0  0
 55 69  1  0  0  0  0
 56 85  1  0  0  0  0
 59 66  1  0  0  0  0
 60 67  1  0  0  0  0
 61 67  1  0  0  0  0
 62 67  1  0  0  0  0
 63 78  1  0  0  0  0
 64 77  1  0  0  0  0
 65 67  1  0  0  0  0
 65 76  1  0  0  0  0
 66 78  1  0  0  0  0
 68 69  1  0  0  0  0
M  CHG  2  77   1  78   1
M  ISO  4  40 100  56 101  74 100  85 101
M  END
> <Batch ID>
0041

> <Smiles>
C=C1CC[101CH:1]([101O:1]c2ccc3c(c2)CN(C(=O)C(NC(=O)C(C)NC)C(C)(C)C)C(C(=O)NC2CCCc4ccccc42)C3)CN1Cc1cc(C)c([100NH:0][100C:0](=O)N2CCCC(n3nc(-c4ccc(Oc5ccc(F)cc5F)cc4)c(C(N)=O)c3N)C2)cc1C

> <Shape>
0.216

> <Color>
0.040

> <Negative vol penalty>
0.000

$$$$

  -OEChem-04042322093D

 88 97  0     1  0  0  0  0  0999 V2000
  -17.7693  -26.2373   23.8541 C   0  0  0  0  0  0  0  0  0  0  0  0
  -19.0066  -25.7880   23.4037 C   0  0  0  0  0  0  0  0  0  0  0  0
  -23.8450  -14.4863   20.8183 C   0  0  0  0  0  0  0  0  0  0  0  0
  -26.0385  -14.6682   21.8146 C   0  0  0  0  0  0  0  0  0  0  0  0
  -17.3627  -27.5433   23.5841 C   0  0  0  0  0  0  0  0  0  0  0  0
  -19.8375  -26.6443   22.6821 C   0  0  0  0  0  0  0  0  0  0  0  0
  -25.9570  -26.8303   22.8357 C   0  0  0  0  0  0  0  0  0  0  0  0
  -24.1061  -13.1571   20.4859 C   0  0  0  0  0  0  0  0  0  0  0  0
  -26.2996  -13.3389   21.4822 C   0  0  0  0  0  0  0  0  0  0  0  0
  -26.9330  -26.2947   21.9965 C   0  0  0  0  0  0  0  0  0  0  0  0
  -24.1384  -10.1588   22.0486 C   0  0  0  0  0  0  0  0  0  0  0  0
  -23.1402   -9.2186   22.3039 C   0  0  0  0  0  0  0  0  0  0  0  0
  -27.0795  -28.4021   20.8317 C   0  0  0  0  0  0  0  0  0  0  0  0
  -31.8149  -21.7688   21.1086 C   0  0  0  0  0  0  0  0  0  0  0  0
  -30.0190  -22.8827   19.2875 C   0  0  0  0  0  0  0  0  0  0  0  0
  -23.0589   -8.6667   19.9532 C   0  0  0  0  0  0  0  0  0  0  0  0
  -24.8112  -15.2419   21.4826 C   0  0  0  0  0  0  0  0  0  0  0  0
  -23.9624  -17.0965   23.0148 C   0  0  0  0  0  0  0  0  0  0  0  0
  -18.1932  -28.4190   22.8672 C   0  0  0  0  0  0  0  0  0  0  0  0
  -25.5263  -28.1548   22.6719 C   0  0  0  0  0  0  0  0  0  0  0  0
  -19.4411  -27.9629   22.4012 C   0  0  0  0  0  0  0  0  0  0  0  0
  -26.0997  -28.9530   21.6718 C   0  0  0  0  0  0  0  0  0  0  0  0
  -32.2804  -22.5992   20.0892 C   0  0  0  0  0  0  0  0  0  0  0  0
  -30.4514  -21.4952   21.2175 C   0  0  0  0  0  0  0  0  0  0  0  0
  -31.3825  -23.1562   19.1786 C   0  0  0  0  0  0  0  0  0  0  0  0
  -29.5535  -22.0522   20.3069 C   0  0  0  0  0  0  0  0  0  0  0  0
  -25.3334  -12.5834   20.8179 C   0  0  0  0  0  0  0  0  0  0  0  0
  -27.4924  -27.0797   20.9925 C   0  0  0  0  0  0  0  0  0  0  0  0
  -24.5968  -10.3530   20.7456 C   0  0  0  0  0  0  0  0  0  0  0  0
  -22.6004   -8.4726   21.2562 C   0  0  0  0  0  0  0  0  0  0  0  0
  -24.0571   -9.6069   19.6979 C   0  0  0  0  0  0  0  0  0  0  0  0
  -24.5422  -16.6153   21.8257 C   0  0  0  0  0  0  0  0  0  0  0  0
  -23.9246  -18.4597   22.8512 C   0  0  0  0  0  0  0  0  0  0  0  0
  -32.7180  -26.2336   17.4578 C   0  0  0  0  0  0  0  0  0  0  0  0
  -34.0412  -26.4339   17.3645 C   0  0  0  0  0  0  0  0  0  0  0  0
  -23.4995  -16.3758   24.1646 C   0  0  0  0  0  0  0  0  0  0  0  0
  -22.7539  -29.5412   21.9682 C   0  0  0  0  0  0  0  0  0  0  0  0
  -24.4099  -32.2657   22.5654 C   0  0  0  0  0  0  0  0  0  0  0  0
  -27.4324  -33.8419   22.7298 C   0  0  0  0  0  0  0  0  0  0  0  0
  -27.1543  -22.2683   19.5696 C   0  0  0  0  0  0  0  0  0  0  0  0
  -17.6905  -29.8072   22.5589 C   0  0  0  0  0  0  0  0  0  0  0  0
  -24.4917  -28.7258   23.6025 C   0  0  0  0  0  0  0  0  0  0  0  0
  -25.6865  -30.3869   21.4675 C   0  0  0  0  0  0  0  0  0  0  0  0
  -31.7279  -26.8365   16.5004 C   0  0  0  0  0  0  0  0  0  0  0  0
  -18.7893  -30.7675   22.1111 C   0  0  0  0  0  0  0  0  0  0  0  0
  -30.6174  -27.5526   17.2633 C   0  0  0  0  0  0  0  0  0  0  0  0
  -23.6247  -21.8160   19.4483 C   0  0  0  0  0  0  0  0  0  0  0  0
  -19.6808  -30.1077   21.0639 C   0  0  0  0  0  0  0  0  0  0  0  0
  -23.4061  -20.4777   20.1578 C   0  0  0  0  0  0  0  0  0  0  0  0
  -24.9053  -21.8138   18.6154 C   0  0  0  0  0  0  0  0  0  0  0  0
  -25.8989  -20.0756   20.0509 C   0  0  0  0  0  0  0  0  0  0  0  0
  -31.1386  -26.1518   19.3000 C   0  0  0  0  0  0  0  0  0  0  0  0
  -20.3812  -28.8695   21.6367 C   0  0  1  0  0  0  0  0  0  0  0  0
  -23.7590  -29.9284   23.0157 C   0  0  1  0  0  0  0  0  0  0  0  0
  -30.0324  -26.6587   18.3653 C   0  0  1  0  0  0  0  0  0  0  0  0
  -24.6550  -20.0515   20.9541 C   0  0  2  0  0  0  0  0  0  0  0  0
  -33.7445  -22.8775   19.9923 C   0  0  0  0  0  0  0  0  0  0  0  0
  -29.9808  -20.6023   22.3194 C   0  0  0  0  0  0  0  0  0  0  0  0
  -28.4640  -36.0790   23.2081 C   0  0  0  0  0  0  0  0  0  0  0  0
  -23.5176  -33.2609   19.8225 C   0  0  0  0  0  0  0  0  0  0  0  0
  -25.3007  -35.0134   19.9555 C   0  0  0  0  0  0  0  0  0  0  0  0
  -23.4524  -34.9875   21.6306 C   0  0  0  0  0  0  0  0  0  0  0  0
  -28.9736  -32.7716   25.0185 C   0  0  0  0  0  0  0  0  0  0  0  0
  -31.8599  -24.0520   18.0739 C   0  0  0  0  0  0  0  0  0  0  0  0
  -28.9749  -27.4198   19.1642 C   0  0  0  0  0  0  0  0  0  1  0  0
  -25.2478  -33.2106   21.7382 C   0  0  1  0  0  0  0  0  0  0  0  0
  -28.0444  -34.7385   23.7910 C   0  0  2  0  0  0  0  0  0  0  0  0
  -24.3862  -34.0905   20.7890 C   0  0  0  0  0  0  0  0  0  0  0  0
  -24.8504  -17.5932   20.9698 N   0  0  0  0  0  0  0  0  0  0  0  0
  -24.4628  -18.7026   21.6218 N   0  0  0  0  0  0  0  0  0  0  0  0
  -24.6670  -30.8976   22.3987 N   0  0  0  0  0  0  0  0  0  0  0  0
  -26.0468  -21.4043   19.4365 N   0  0  0  0  0  0  0  0  0  0  0  0
  -23.4838  -19.4623   23.6405 N   0  0  0  0  0  0  0  0  0  0  0  0
  -23.6130  -14.9788   24.1678 N   0  0  0  0  0  0  0  0  0  0  0  0
  -28.1648  -21.7864   20.4010 N   0  0  0  0  0  0  0  0  0  0  0  0
  -21.4975  -29.2607   22.4705 N   0  0  0  0  0  0  0  0  0  0  0  0
  -26.0602  -33.9694   22.6830 N   0  0  0  0  0  0  0  0  0  0  0  0
  -32.2353  -25.4276   18.5514 N   0  3  1  0  0  0  0  0  0  0  0  0
  -29.2456  -34.0890   24.3880 N   0  3  0  0  0  0  0  0  0  0  0  0
  -22.9849  -16.9522   25.1528 O   0  0  0  0  0  0  0  0  0  0  0  0
  -23.0927  -29.5014   20.7912 O   0  0  0  0  0  0  0  0  0  0  0  0
  -23.5636  -32.7250   23.3364 O   0  0  0  0  0  0  0  0  0  0  0  0
  -28.1046  -33.1052   22.0116 O   0  0  0  0  0  0  0  0  0  0  0  0
  -27.1908  -23.3675   19.0106 O   0  0  0  0  0  0  0  0  0  0  0  0
  -25.5885  -11.2863   20.4939 O   0  0  0  0  0  0  0  0  0  0  0  0
  -28.4448  -26.5592   20.1716 O   0  0  0  0  0  0  0  0  0  1  0  0
  -21.6429   -7.5686   21.5017 F   0  0  0  0  0  0  0  0  0  0  0  0
  -24.4943   -9.7882   18.4442 F   0  0  0  0  0  0  0  0  0  0  0  0
  1  2  1  0  0  0  0
  1  5  2  0  0  0  0
  2  6  2  0  0  0  0
  3  8  2  0  0  0  0
  3 17  1  0  0  0  0
  4  9  1  0  0  0  0
  4 17  2  0  0  0  0
  5 19  1  0  0  0  0
  6 21  1  0  0  0  0
  7 10  2  0  0  0  0
  7 20  1  0  0  0  0
  8 27  1  0  0  0  0
  9 27  2  0  0  0  0
 10 28  1  0  0  0  0
 11 12  2  0  0  0  0
 11 29  1  0  0  0  0
 12 30  1  0  0  0  0
 13 22  1  0  0  0  0
 13 28  2  0  0  0  0
 14 23  1  0  0  0  0
 14 24  2  0  0  0  0
 15 25  1  0  0  0  0
 15 26  2  0  0  0  0
 16 30  2  0  0  0  0
 16 31  1  0  0  0  0
 17 32  1  0  0  0  0
 18 32  1  0  0  0  0
 18 33  2  0  0  0  0
 18 36  1  0  0  0  0
 19 21  2  0  0  0  0
 19 41  1  0  0  0  0
 20 22  2  0  0  0  0
 20 42  1  0  0  0  0
 21 53  1  0  0  0  0
 22 43  1  0  0  0  0
 23 25  2  0  0  0  0
 23 57  1  0  0  0  0
 24 26  1  0  0  0  0
 24 58  1  0  0  0  0
 25 64  1  0  0  0  0
 26 75  1  0  0  0  0
 27 85  1  0  0  0  0
 28 86  1  0  0  0  0
 29 31  2  0  0  0  0
 29 85  1  0  0  0  0
 30 87  1  0  0  0  0
 31 88  1  0  0  0  0
 32 69  2  0  0  0  0
 33 70  1  0  0  0  0
 33 73  1  0  0  0  0
 34 35  2  0  0  0  0
 34 44  1  0  0  0  0
 34 78  1  0  0  0  0
 36 74  1  0  0  0  0
 36 80  2  0  0  0  0
 37 54  1  0  0  0  0
 37 76  1  0  0  0  0
 37 81  2  0  0  0  0
 38 66  1  0  0  0  0
 38 71  1  0  0  0  0
 38 82  2  0  0  0  0
 39 67  1  0  0  0  0
 39 77  1  0  0  0  0
 39 83  2  0  0  0  0
 40 72  1  0  0  0  0
 40 75  1  0  0  0  0
 40 84  2  0  0  0  0
 41 45  1  0  0  0  0
 42 54  1  0  0  0  0
 43 71  1  0  0  0  0
 44 46  1  0  0  0  0
 45 48  1  0  0  0  0
 46 55  1  0  0  0  0
 47 49  1  0  0  0  0
 47 50  1  0  0  0  0
 48 53  1  0  0  0  0
 49 56  1  0  0  0  0
 50 72  1  0  0  0  0
 51 56  1  0  0  0  0
 51 72  1  0  0  0  0
 52 55  1  0  0  0  0
 52 78  1  0  0  0  0
 53 76  1  0  0  0  0
 54 71  1  0  0  0  0
 55 65  1  0  0  0  0
 56 70  1  0  0  0  0
 59 67  1  0  0  0  0
 60 68  1  0  0  0  0
 61 68  1  0  0  0  0
 62 68  1  0  0  0  0
 63 79  1  0  0  0  0
 64 78  1  0  0  0  0
 65 86  1  0  0  0  0
 66 68  1  0  0  0  0
 66 77  1  0  0  0  0
 67 79  1  0  0  0  0
 69 70  1  0  0  0  0
M  CHG  2  78   1  79   1
M  ISO  4  40 100  65 101  75 100  86 101
M  END
> <Batch ID>
0041

> <Smiles>
C=C1CCC([101CH2:1][101O:1]c2ccc3c(c2)CN(C(=O)C(NC(=O)C(C)NC)C(C)(C)C)C(C(=O)NC2CCCc4ccccc42)C3)CN1Cc1cc([100NH:0][100C:0](=O)N2CCCC(n3nc(-c4ccc(Oc5ccc(F)cc5F)cc4)c(C(N)=O)c3N)C2)c(C)cc1C

> <Shape>
0.247

> <Color>
0.092

> <Negative vol penalty>
0.000

$$$$

  -OEChem-04042322093D

 85 93  0     1  0  0  0  0  0999 V2000
  -17.2859  -25.2969   24.2917 C   0  0  0  0  0  0  0  0  0  0  0  0
  -18.6256  -24.9464   24.1581 C   0  0  0  0  0  0  0  0  0  0  0  0
  -23.3921   -9.9682   22.2509 C   0  0  0  0  0  0  0  0  0  0  0  0
  -24.0358  -11.4436   24.0525 C   0  0  0  0  0  0  0  0  0  0  0  0
  -16.8520  -26.5570   23.8819 C   0  0  0  0  0  0  0  0  0  0  0  0
  -19.5320  -25.8555   23.6136 C   0  0  0  0  0  0  0  0  0  0  0  0
  -23.8550  -26.0980   26.2399 C   0  0  0  0  0  0  0  0  0  0  0  0
  -32.1755  -18.9756   20.2754 C   0  0  0  0  0  0  0  0  0  0  0  0
  -31.7025  -17.6740   20.1092 C   0  0  0  0  0  0  0  0  0  0  0  0
  -22.7265   -9.1471   23.1610 C   0  0  0  0  0  0  0  0  0  0  0  0
  -23.3702  -10.6225   24.9627 C   0  0  0  0  0  0  0  0  0  0  0  0
  -24.7777  -25.0715   26.0437 C   0  0  0  0  0  0  0  0  0  0  0  0
  -19.7796   -9.1420   24.8188 C   0  0  0  0  0  0  0  0  0  0  0  0
  -18.5054   -8.6914   24.4740 C   0  0  0  0  0  0  0  0  0  0  0  0
  -26.0342  -26.4937   24.5545 C   0  0  0  0  0  0  0  0  0  0  0  0
  -29.4337  -18.5036   20.0694 C   0  0  0  0  0  0  0  0  0  0  0  0
  -19.2752   -6.4057   24.6162 C   0  0  0  0  0  0  0  0  0  0  0  0
  -24.0468  -11.1165   22.6966 C   0  0  0  0  0  0  0  0  0  0  0  0
  -24.2014  -13.0597   21.0512 C   0  0  0  0  0  0  0  0  0  0  0  0
  -17.7554  -27.4855   23.3410 C   0  0  0  0  0  0  0  0  0  0  0  0
  -24.0093  -27.3285   25.5853 C   0  0  0  0  0  0  0  0  0  0  0  0
  -19.1095  -27.1286   23.1950 C   0  0  0  0  0  0  0  0  0  0  0  0
  -25.1135  -27.5351   24.7461 C   0  0  0  0  0  0  0  0  0  0  0  0
  -31.2776  -20.0413   20.3388 C   0  0  0  0  0  0  0  0  0  0  0  0
  -29.9067  -19.8052   20.2357 C   0  0  0  0  0  0  0  0  0  0  0  0
  -30.3316  -17.4380   20.0061 C   0  0  0  0  0  0  0  0  0  0  0  0
  -22.7155   -9.4743   24.5169 C   0  0  0  0  0  0  0  0  0  0  0  0
  -25.8659  -25.2682   25.1986 C   0  0  0  0  0  0  0  0  0  0  0  0
  -20.8017   -8.2245   25.0623 C   0  0  0  0  0  0  0  0  0  0  0  0
  -18.2532   -7.3233   24.3727 C   0  0  0  0  0  0  0  0  0  0  0  0
  -20.5495   -6.8563   24.9610 C   0  0  0  0  0  0  0  0  0  0  0  0
  -24.7349  -11.9648   21.7570 C   0  0  0  0  0  0  0  0  0  0  0  0
  -25.2500  -13.5255   20.2962 C   0  0  0  0  0  0  0  0  0  0  0  0
  -26.9447  -23.7984   23.7335 C   0  0  0  0  0  0  0  0  0  1  0  0
  -22.8764  -13.6069   21.0758 C   0  0  0  0  0  0  0  0  0  0  0  0
  -27.8007  -22.8173   23.4077 C   0  0  0  0  0  0  0  0  0  0  0  0
  -27.8534  -22.4401   21.9520 C   0  0  0  0  0  0  0  0  0  0  0  0
  -22.2968  -28.9768   23.4749 C   0  0  0  0  0  0  0  0  0  0  0  0
  -24.5573  -31.2441   23.9961 C   0  0  0  0  0  0  0  0  0  0  0  0
  -27.7345  -31.9924   24.9924 C   0  0  0  0  0  0  0  0  0  0  0  0
  -30.6059  -14.9468   19.7507 C   0  0  0  0  0  0  0  0  0  0  0  0
  -17.2308  -28.8182   22.8685 C   0  0  0  0  0  0  0  0  0  0  0  0
  -23.0198  -28.4349   25.8285 C   0  0  0  0  0  0  0  0  0  0  0  0
  -25.3356  -28.8445   24.0358 C   0  0  0  0  0  0  0  0  0  0  0  0
  -18.3246  -29.8598   22.6477 C   0  0  0  0  0  0  0  0  0  0  0  0
  -29.7955  -11.5010   19.3681 C   0  0  0  0  0  0  0  0  0  0  0  0
  -19.4853  -29.2569   21.8627 C   0  0  0  0  0  0  0  0  0  0  0  0
  -28.3628  -11.4045   19.8974 C   0  0  0  0  0  0  0  0  0  0  0  0
  -30.6305  -12.4976   20.1700 C   0  0  0  0  0  0  0  0  0  0  0  0
  -28.6086  -13.7397   20.8320 C   0  0  0  0  0  0  0  0  0  0  0  0
  -20.1277  -28.0963   22.6319 C   0  0  1  0  0  0  0  0  0  0  0  0
  -22.9957  -29.4716   24.7095 C   0  0  1  0  0  0  0  0  0  0  0  0
  -27.7107  -12.7961   20.0153 C   0  0  2  0  0  0  0  0  0  0  0  0
  -31.8077  -21.4260   20.5180 C   0  0  0  0  0  0  0  0  0  0  0  0
  -28.6668  -22.1228   24.4164 C   0  0  0  0  0  0  0  0  0  0  0  0
  -29.3061  -33.9284   25.2743 C   0  0  0  0  0  0  0  0  0  0  0  0
  -24.9863  -31.3324   20.9765 C   0  0  0  0  0  0  0  0  0  0  0  0
  -27.1487  -32.5250   21.3887 C   0  0  0  0  0  0  0  0  0  0  0  0
  -24.9964  -33.5680   22.0974 C   0  0  0  0  0  0  0  0  0  0  0  0
  -27.9890  -31.5121   27.9016 C   0  0  0  0  0  0  0  0  0  0  0  0
  -28.9218  -20.9366   20.2990 C   0  0  0  0  0  0  0  0  0  0  0  0
  -25.8935  -31.5830   23.3807 C   0  0  1  0  0  0  0  0  0  0  0  0
  -28.2691  -33.0435   25.9484 C   0  0  2  0  0  0  0  0  0  0  0  0
  -25.7513  -32.2266   21.9725 C   0  0  0  0  0  0  0  0  0  0  0  0
  -26.0224  -11.7477   21.4754 N   0  0  0  0  0  0  0  0  0  0  0  0
  -26.3067  -12.7126   20.5842 N   0  0  0  0  0  0  0  0  0  0  0  0
  -24.3371  -29.8934   24.3009 N   0  0  0  0  0  0  0  0  0  0  0  0
  -29.9525  -13.7941   20.2356 N   0  0  0  0  0  0  0  0  0  0  0  0
  -25.3621  -14.5469   19.4207 N   0  0  0  0  0  0  0  0  0  0  0  0
  -21.9211  -13.0069   21.9075 N   0  0  0  0  0  0  0  0  0  0  0  0
  -29.8508  -16.1161   19.8352 N   0  0  0  0  0  0  0  0  0  0  0  0
  -28.7454  -21.4255   21.6480 N   0  0  0  0  0  0  0  0  0  0  0  0
  -20.9840  -28.6000   23.6843 N   0  0  0  0  0  0  0  0  0  0  0  0
  -26.5902  -32.4191   24.3523 N   0  0  0  0  0  0  0  0  0  0  0  0
  -28.9027  -32.3941   27.1306 N   0  3  0  0  0  0  0  0  0  0  0  0
  -22.5449  -14.5885   20.3686 O   0  0  0  0  0  0  0  0  0  0  0  0
  -27.1479  -23.0016   21.1148 O   0  0  0  0  0  0  0  0  0  0  0  0
  -22.9033  -28.9411   22.4106 O   0  0  0  0  0  0  0  0  0  0  0  0
  -23.7419  -32.1457   24.2056 O   0  0  0  0  0  0  0  0  0  0  0  0
  -28.2797  -30.9034   24.8271 O   0  0  0  0  0  0  0  0  0  0  0  0
  -31.7405  -14.8954   19.2691 O   0  0  0  0  0  0  0  0  0  0  0  0
  -22.0660   -8.6734   25.4053 O   0  0  0  0  0  0  0  0  0  0  0  0
  -26.7677  -24.2676   25.0048 O   0  0  0  0  0  0  0  0  0  1  0  0
  -17.0291   -6.8906   24.0430 F   0  0  0  0  0  0  0  0  0  0  0  0
  -21.5270   -5.9701   25.1948 F   0  0  0  0  0  0  0  0  0  0  0  0
  1  2  1  0  0  0  0
  1  5  2  0  0  0  0
  2  6  2  0  0  0  0
  3 10  2  0  0  0  0
  3 18  1  0  0  0  0
  4 11  1  0  0  0  0
  4 18  2  0  0  0  0
  5 20  1  0  0  0  0
  6 22  1  0  0  0  0
  7 12  2  0  0  0  0
  7 21  1  0  0  0  0
  8  9  2  0  0  0  0
  8 24  1  0  0  0  0
  9 26  1  0  0  0  0
 10 27  1  0  0  0  0
 11 27  2  0  0  0  0
 12 28  1  0  0  0  0
 13 14  2  0  0  0  0
 13 29  1  0  0  0  0
 14 30  1  0  0  0  0
 15 23  1  0  0  0  0
 15 28  2  0  0  0  0
 16 25  1  0  0  0  0
 16 26  2  0  0  0  0
 17 30  2  0  0  0  0
 17 31  1  0  0  0  0
 18 32  1  0  0  0  0
 19 32  1  0  0  0  0
 19 33  2  0  0  0  0
 19 35  1  0  0  0  0
 20 22  2  0  0  0  0
 20 42  1  0  0  0  0
 21 23  2  0  0  0  0
 21 43  1  0  0  0  0
 22 51  1  0  0  0  0
 23 44  1  0  0  0  0
 24 25  2  0  0  0  0
 24 54  1  0  0  0  0
 25 61  1  0  0  0  0
 26 71  1  0  0  0  0
 27 82  1  0  0  0  0
 28 83  1  0  0  0  0
 29 31  2  0  0  0  0
 29 82  1  0  0  0  0
 30 84  1  0  0  0  0
 31 85  1  0  0  0  0
 32 65  2  0  0  0  0
 33 66  1  0  0  0  0
 33 69  1  0  0  0  0
 34 36  2  0  0  0  0
 34 83  1  0  0  0  0
 35 70  1  0  0  0  0
 35 76  2  0  0  0  0
 36 37  1  0  0  0  0
 36 55  1  0  0  0  0
 37 72  1  0  0  0  0
 37 77  2  0  0  0  0
 38 52  1  0  0  0  0
 38 73  1  0  0  0  0
 38 78  2  0  0  0  0
 39 62  1  0  0  0  0
 39 67  1  0  0  0  0
 39 79  2  0  0  0  0
 40 63  1  0  0  0  0
 40 74  1  0  0  0  0
 40 80  2  0  0  0  0
 41 68  1  0  0  0  0
 41 71  1  0  0  0  0
 41 81  2  0  0  0  0
 42 45  1  0  0  0  0
 43 52  1  0  0  0  0
 44 67  1  0  0  0  0
 45 47  1  0  0  0  0
 46 48  1  0  0  0  0
 46 49  1  0  0  0  0
 47 51  1  0  0  0  0
 48 53  1  0  0  0  0
 49 68  1  0  0  0  0
 50 53  1  0  0  0  0
 50 68  1  0  0  0  0
 51 73  1  0  0  0  0
 52 67  1  0  0  0  0
 53 66  1  0  0  0  0
 56 63  1  0  0  0  0
 57 64  1  0  0  0  0
 58 64  1  0  0  0  0
 59 64  1  0  0  0  0
 60 75  1  0  0  0  0
 61 72  1  0  0  0  0
 62 64  1  0  0  0  0
 62 74  1  0  0  0  0
 63 75  1  0  0  0  0
 65 66  1  0  0  0  0
M  CHG  1  75   1
M  ISO  4  34 101  41 100  71 100  83 101
M  END
> <Batch ID>
0041

> <Smiles>
CNC(C)C(=O)NC(C(=O)N1Cc2cc([101O:1][101CH:1]=C(C)C(=O)NCc3cc([100NH:0][100C:0](=O)N4CCCC(n5nc(-c6ccc(Oc7ccc(F)cc7F)cc6)c(C(N)=O)c5N)C4)ccc3C)ccc2CC1C(=O)NC1CCCc2ccccc21)C(C)(C)C

> <Shape>
0.275

> <Color>
0.132

> <Negative vol penalty>
0.000

$$$$

  -OEChem-04042322093D

 96106  0     1  0  0  0  0  0999 V2000
  -29.1068  -35.5689   23.2619 C   0  0  0  0  0  0  0  0  0  0  0  0
  -29.7388  -34.3452   23.4584 C   0  0  0  0  0  0  0  0  0  0  0  0
  -22.8648  -10.8312   22.1469 C   0  0  0  0  0  0  0  0  0  0  0  0
  -24.4738   -9.0922   21.6737 C   0  0  0  0  0  0  0  0  0  0  0  0
  -27.7719  -35.7299   23.6309 C   0  0  0  0  0  0  0  0  0  0  0  0
  -29.0365  -33.2821   24.0250 C   0  0  0  0  0  0  0  0  0  0  0  0
  -27.8148  -26.0687   21.2862 C   0  0  0  0  0  0  0  0  0  0  0  0
  -29.7284  -19.4220   21.0279 C   0  0  0  0  0  0  0  0  0  0  0  0
  -29.8243  -18.0311   20.9849 C   0  0  0  0  0  0  0  0  0  0  0  0
  -22.2458  -10.0036   23.0836 C   0  0  0  0  0  0  0  0  0  0  0  0
  -23.8548   -8.2646   22.6105 C   0  0  0  0  0  0  0  0  0  0  0  0
  -27.3982  -24.8157   20.8360 C   0  0  0  0  0  0  0  0  0  0  0  0
  -21.1075   -6.3005   22.7696 C   0  0  0  0  0  0  0  0  0  0  0  0
  -20.8763   -4.9731   22.4091 C   0  0  0  0  0  0  0  0  0  0  0  0
  -25.4248  -24.9606   22.2262 C   0  0  0  0  0  0  0  0  0  0  0  0
  -22.2486   -4.2329   24.2546 C   0  0  0  0  0  0  0  0  0  0  0  0
  -23.9788  -10.3754   21.4418 C   0  0  0  0  0  0  0  0  0  0  0  0
  -24.0393  -11.7870   19.3178 C   0  0  0  0  0  0  0  0  0  0  0  0
  -27.0502  -34.6654   24.1935 C   0  0  0  0  0  0  0  0  0  0  0  0
  -27.0292  -26.7800   22.1974 C   0  0  0  0  0  0  0  0  0  0  0  0
  -27.6912  -33.4295   24.4031 C   0  0  0  0  0  0  0  0  0  0  0  0
  -25.8307  -26.2215   22.6711 C   0  0  0  0  0  0  0  0  0  0  0  0
  -28.7106  -20.0285   21.7641 C   0  0  0  0  0  0  0  0  0  0  0  0
  -27.7886  -19.2441   22.4571 C   0  0  0  0  0  0  0  0  0  0  0  0
  -27.8845  -17.8532   22.4140 C   0  0  0  0  0  0  0  0  0  0  0  0
  -28.9023  -17.2467   21.6779 C   0  0  0  0  0  0  0  0  0  0  0  0
  -22.7408   -8.7203   23.3155 C   0  0  0  0  0  0  0  0  0  0  0  0
  -26.2063  -24.2629   21.3051 C   0  0  0  0  0  0  0  0  0  0  0  0
  -21.9093   -6.5942   23.8726 C   0  0  0  0  0  0  0  0  0  0  0  0
  -21.4468   -3.9392   23.1516 C   0  0  0  0  0  0  0  0  0  0  0  0
  -22.4798   -5.5604   24.6151 C   0  0  0  0  0  0  0  0  0  0  0  0
  -24.6183  -11.2296   20.4736 C   0  0  0  0  0  0  0  0  0  0  0  0
  -25.0529  -12.5133   18.7420 C   0  0  0  0  0  0  0  0  0  0  0  0
  -25.8760  -18.4054   18.7559 C   0  0  0  0  0  0  0  0  0  0  0  0
  -25.2677  -20.7764   21.4987 C   0  0  0  0  0  0  0  0  0  0  0  0
  -25.6879  -18.8928   19.9907 C   0  0  0  0  0  0  0  0  0  0  0  0
  -25.4566  -20.2877   20.2586 C   0  0  0  0  0  0  0  0  0  0  0  0
  -22.7045  -11.6597   18.8101 C   0  0  0  0  0  0  0  0  0  0  0  0
  -26.5945  -29.9054   24.2270 C   0  0  0  0  0  0  0  0  0  0  0  0
  -23.8310  -29.1740   23.1141 C   0  0  0  0  0  0  0  0  0  0  0  0
  -21.0546  -28.2628   21.3539 C   0  0  0  0  0  0  0  0  0  0  0  0
  -29.9777  -15.0947   20.9302 C   0  0  0  0  0  0  0  0  0  0  0  0
  -25.6229  -34.9013   24.6200 C   0  0  0  0  0  0  0  0  0  0  0  0
  -27.4694  -28.1058   22.7563 C   0  0  0  0  0  0  0  0  0  0  0  0
  -25.0352  -27.0076   23.6772 C   0  0  0  0  0  0  0  0  0  0  0  0
  -26.1170  -16.9419   18.4926 C   0  0  0  0  0  0  0  0  0  0  0  0
  -25.8853  -19.2845   17.5327 C   0  0  0  0  0  0  0  0  0  0  0  0
  -24.8410  -33.6141   24.8690 C   0  0  0  0  0  0  0  0  0  0  0  0
  -27.3951  -16.7409   17.6770 C   0  0  0  0  0  0  0  0  0  0  0  0
  -27.1647  -19.0721   16.7224 C   0  0  0  0  0  0  0  0  0  0  0  0
  -27.3997  -17.5938   16.4073 C   0  0  0  0  0  0  0  0  0  0  0  0
  -21.9980  -21.1122   22.9887 C   0  0  0  0  0  0  0  0  0  0  0  0
  -22.6845  -22.4713   22.8380 C   0  0  0  0  0  0  0  0  0  0  0  0
  -29.8253  -12.6333   18.3621 C   0  0  0  0  0  0  0  0  0  0  0  0
  -22.8532  -19.8538   22.8481 C   0  0  0  0  0  0  0  0  0  0  0  0
  -25.6627  -32.6450   25.7130 C   0  0  0  0  0  0  0  0  0  0  0  0
  -23.5562  -22.6723   21.5970 C   0  0  0  0  0  0  0  0  0  0  0  0
  -28.4179  -12.0489   18.5031 C   0  0  0  0  0  0  0  0  0  0  0  0
  -30.4368  -12.9734   19.7201 C   0  0  0  0  0  0  0  0  0  0  0  0
  -28.2008  -13.2472   20.7175 C   0  0  0  0  0  0  0  0  0  0  0  0
  -24.2039  -19.9241   23.5591 C   0  0  0  0  0  0  0  0  0  0  0  0
  -26.9558  -32.2452   24.9921 C   0  0  1  0  0  0  0  0  0  0  0  0
  -25.0252  -22.2462   21.7682 C   0  0  2  0  0  0  0  0  0  1  0  0
  -26.2980  -29.0699   23.0164 C   0  0  1  0  0  0  0  0  0  0  0  0
  -27.5184  -12.9492   19.3725 C   0  0  2  0  0  0  0  0  0  0  0  0
  -28.6308  -21.5197   21.7936 C   0  0  0  0  0  0  0  0  0  0  0  0
  -26.8940  -17.0133   23.1585 C   0  0  0  0  0  0  0  0  0  0  0  0
  -18.6593  -28.9106   20.9792 C   0  0  0  0  0  0  0  0  0  0  0  0
  -23.0862  -27.9680   25.8150 C   0  0  0  0  0  0  0  0  0  0  0  0
  -20.7289  -27.7676   24.9957 C   0  0  0  0  0  0  0  0  0  0  0  0
  -21.7918  -30.0157   25.1938 C   0  0  0  0  0  0  0  0  0  0  0  0
  -21.5159  -28.7493   18.4713 C   0  0  0  0  0  0  0  0  0  0  0  0
  -26.6951  -19.8993   23.2481 C   0  0  0  0  0  0  0  0  0  0  0  0
  -22.5245  -28.4571   23.3429 C   0  0  1  0  0  0  0  0  0  0  0  0
  -20.0936  -29.0695   20.4994 C   0  0  2  0  0  0  0  0  0  0  0  0
  -22.0542  -28.5399   24.8226 C   0  0  0  0  0  0  0  0  0  0  0  0
  -25.9004  -11.5723   20.6246 N   0  0  0  0  0  0  0  0  0  0  0  0
  -26.1354  -12.3527   19.5560 N   0  0  0  0  0  0  0  0  0  0  0  0
  -25.0019  -28.4274   23.2927 N   0  0  0  0  0  0  0  0  0  0  0  0
  -29.5309  -13.8321   20.4863 N   0  0  0  0  0  0  0  0  0  0  0  0
  -25.1150  -13.2671   17.6239 N   0  0  0  0  0  0  0  0  0  0  0  0
  -22.4236  -10.6100   17.9250 N   0  0  0  0  0  0  0  0  0  0  0  0
  -29.0188  -15.8357   21.6202 N   0  0  0  0  0  0  0  0  0  0  0  0
  -26.6799  -31.2601   23.9684 N   0  0  0  0  0  0  0  0  0  0  0  0
  -21.5786  -29.0161   22.3831 N   0  0  0  0  0  0  0  0  0  0  0  0
  -25.3493  -19.8132   22.5780 N   0  3  2  0  0  0  0  0  0  0  0  0
  -20.1658  -28.6254   19.0787 N   0  3  0  0  0  0  0  0  0  0  0  0
  -21.7919  -12.4631   19.1190 O   0  0  0  0  0  0  0  0  0  0  0  0
  -26.7343  -29.3621   25.3165 O   0  0  0  0  0  0  0  0  0  0  0  0
  -23.8169  -30.3652   22.7913 O   0  0  0  0  0  0  0  0  0  0  0  0
  -21.3116  -27.0814   21.1329 O   0  0  0  0  0  0  0  0  0  0  0  0
  -31.1177  -15.5008   20.6907 O   0  0  0  0  0  0  0  0  0  0  0  0
  -22.1372   -7.9126   24.2297 O   0  0  0  0  0  0  0  0  0  0  0  0
  -25.8016  -23.0360   20.8562 O   0  0  0  0  0  0  0  0  0  1  0  0
  -21.2235   -2.6645   22.8062 F   0  0  0  0  0  0  0  0  0  0  0  0
  -23.2500   -5.8363   25.6765 F   0  0  0  0  0  0  0  0  0  0  0  0
  1  2  1  0  0  0  0
  1  5  2  0  0  0  0
  2  6  2  0  0  0  0
  3 10  2  0  0  0  0
  3 17  1  0  0  0  0
  4 11  1  0  0  0  0
  4 17  2  0  0  0  0
  5 19  1  0  0  0  0
  6 21  1  0  0  0  0
  7 12  2  0  0  0  0
  7 20  1  0  0  0  0
  8  9  1  0  0  0  0
  8 23  2  0  0  0  0
  9 26  2  0  0  0  0
 10 27  1  0  0  0  0
 11 27  2  0  0  0  0
 12 28  1  0  0  0  0
 13 14  2  0  0  0  0
 13 29  1  0  0  0  0
 14 30  1  0  0  0  0
 15 22  1  0  0  0  0
 15 28  2  0  0  0  0
 16 30  2  0  0  0  0
 16 31  1  0  0  0  0
 17 32  1  0  0  0  0
 18 32  1  0  0  0  0
 18 33  2  0  0  0  0
 18 38  1  0  0  0  0
 19 21  2  0  0  0  0
 19 43  1  0  0  0  0
 20 22  2  0  0  0  0
 20 44  1  0  0  0  0
 21 62  1  0  0  0  0
 22 45  1  0  0  0  0
 23 24  1  0  0  0  0
 23 66  1  0  0  0  0
 24 25  2  0  0  0  0
 24 73  1  0  0  0  0
 25 26  1  0  0  0  0
 25 67  1  0  0  0  0
 26 83  1  0  0  0  0
 27 93  1  0  0  0  0
 28 94  1  0  0  0  0
 29 31  2  0  0  0  0
 29 93  1  0  0  0  0
 30 95  1  0  0  0  0
 31 96  1  0  0  0  0
 32 77  2  0  0  0  0
 33 78  1  0  0  0  0
 33 81  1  0  0  0  0
 34 36  2  0  0  0  0
 34 46  1  0  0  0  0
 34 47  1  0  0  0  0
 35 37  2  0  0  0  0
 35 63  1  0  0  0  0
 35 86  1  0  0  0  0
 36 37  1  0  0  0  0
 38 82  1  0  0  0  0
 38 88  2  0  0  0  0
 39 64  1  0  0  0  0
 39 84  1  0  0  0  0
 39 89  2  0  0  0  0
 40 74  1  0  0  0  0
 40 79  1  0  0  0  0
 40 90  2  0  0  0  0
 41 75  1  0  0  0  0
 41 85  1  0  0  0  0
 41 91  2  0  0  0  0
 42 80  1  0  0  0  0
 42 83  1  0  0  0  0
 42 92  2  0  0  0  0
 43 48  1  0  0  0  0
 44 64  1  0  0  0  0
 45 79  1  0  0  0  0
 46 49  1  0  0  0  0
 47 50  1  0  0  0  0
 48 56  1  0  0  0  0
 49 51  1  0  0  0  0
 50 51  1  0  0  0  0
 52 53  1  0  0  0  0
 52 55  1  0  0  0  0
 53 57  1  0  0  0  0
 54 58  1  0  0  0  0
 54 59  1  0  0  0  0
 55 61  1  0  0  0  0
 56 62  1  0  0  0  0
 57 63  1  0  0  0  0
 58 65  1  0  0  0  0
 59 80  1  0  0  0  0
 60 65  1  0  0  0  0
 60 80  1  0  0  0  0
 61 86  1  0  0  0  0
 62 84  1  0  0  0  0
 63 94  1  0  0  0  0
 64 79  1  0  0  0  0
 65 78  1  0  0  0  0
 68 75  1  0  0  0  0
 69 76  1  0  0  0  0
 70 76  1  0  0  0  0
 71 76  1  0  0  0  0
 72 87  1  0  0  0  0
 73 86  1  0  0  0  0
 74 76  1  0  0  0  0
 74 85  1  0  0  0  0
 75 87  1  0  0  0  0
 77 78  1  0  0  0  0
M  CHG  2  86   1  87   1
M  ISO  4  42 100  63 101  83 100  94 101
M  END
> <Batch ID>
0041

> <Smiles>
CNC(C)C(=O)NC(C(=O)N1Cc2cc([101O:1][101CH:1]3CCCCCN(Cc4c(C)ccc([100NH:0][100C:0](=O)N5CCCC(n6nc(-c7ccc(Oc8ccc(F)cc8F)cc7)c(C(N)=O)c6N)C5)c4C)C3=CC=C3CCCCC3)ccc2CC1C(=O)NC1CCCc2ccccc21)C(C)(C)C

> <Shape>
0.263

> <Color>
0.087

> <Negative vol penalty>
0.000

$$$$

  -OEChem-04042322093D

 89 98  0     1  0  0  0  0  0999 V2000
  -17.2854  -26.1088   24.3755 C   0  0  0  0  0  0  0  0  0  0  0  0
  -17.7747  -26.9000   23.3411 C   0  0  0  0  0  0  0  0  0  0  0  0
  -23.7566  -11.3925   23.8690 C   0  0  0  0  0  0  0  0  0  0  0  0
  -24.8779   -9.9014   22.3340 C   0  0  0  0  0  0  0  0  0  0  0  0
  -17.8913  -26.1512   25.6306 C   0  0  0  0  0  0  0  0  0  0  0  0
  -18.8696  -27.7349   23.5615 C   0  0  0  0  0  0  0  0  0  0  0  0
  -24.8882  -27.0656   19.6603 C   0  0  0  0  0  0  0  0  0  0  0  0
  -30.3273  -21.3211   20.6936 C   0  0  0  0  0  0  0  0  0  0  0  0
  -30.2788  -19.9390   20.8749 C   0  0  0  0  0  0  0  0  0  0  0  0
  -23.2508  -10.2950   24.5656 C   0  0  0  0  0  0  0  0  0  0  0  0
  -24.3722   -8.8039   23.0306 C   0  0  0  0  0  0  0  0  0  0  0  0
  -25.9958  -27.1391   18.8153 C   0  0  0  0  0  0  0  0  0  0  0  0
  -20.7438   -8.0567   24.2056 C   0  0  0  0  0  0  0  0  0  0  0  0
  -19.3973   -8.0849   24.5685 C   0  0  0  0  0  0  0  0  0  0  0  0
  -26.9445  -28.8853   20.1934 C   0  0  0  0  0  0  0  0  0  0  0  0
  -27.9163  -20.0854   21.3591 C   0  0  0  0  0  0  0  0  0  0  0  0
  -20.0211   -7.9130   26.8962 C   0  0  0  0  0  0  0  0  0  0  0  0
  -24.5701  -11.1957   22.7532 C   0  0  0  0  0  0  0  0  0  0  0  0
  -24.3548  -13.3424   21.3918 C   0  0  0  0  0  0  0  0  0  0  0  0
  -19.0001  -26.9799   25.8637 C   0  0  0  0  0  0  0  0  0  0  0  0
  -24.8117  -27.8919   20.7849 C   0  0  0  0  0  0  0  0  0  0  0  0
  -19.4900  -27.7895   24.8212 C   0  0  0  0  0  0  0  0  0  0  0  0
  -25.8434  -28.8073   21.0503 C   0  0  0  0  0  0  0  0  0  0  0  0
  -29.1703  -22.0855   20.8450 C   0  0  0  0  0  0  0  0  0  0  0  0
  -29.0734  -19.3211   21.2077 C   0  0  0  0  0  0  0  0  0  0  0  0
  -23.5586   -9.0007   24.1464 C   0  0  0  0  0  0  0  0  0  0  0  0
  -27.0213  -28.0469   19.0811 C   0  0  0  0  0  0  0  0  0  0  0  0
  -21.7290   -7.9566   25.1880 C   0  0  0  0  0  0  0  0  0  0  0  0
  -19.0359   -8.0131   25.9138 C   0  0  0  0  0  0  0  0  0  0  0  0
  -21.3676   -7.8847   26.5333 C   0  0  0  0  0  0  0  0  0  0  0  0
  -27.9649  -21.4676   21.1778 C   0  0  0  0  0  0  0  0  0  0  0  0
  -25.0924  -12.3290   22.0328 C   0  0  0  0  0  0  0  0  0  0  0  0
  -25.3076  -14.1767   20.8603 C   0  0  0  0  0  0  0  0  0  0  0  0
  -29.4498  -26.4545   19.2012 C   0  0  0  0  0  0  0  0  0  0  0  0
  -28.8753  -26.9642   18.1000 C   0  0  0  0  0  0  0  0  0  1  0  0
  -30.2903  -25.2799   19.2838 C   0  0  0  0  0  0  0  0  0  0  0  0
  -31.6232  -25.3917   19.4085 C   0  0  0  0  0  0  0  0  0  0  0  0
  -22.9353  -13.5142   21.2864 C   0  0  0  0  0  0  0  0  0  0  0  0
  -22.8602  -28.9247   23.8182 C   0  0  0  0  0  0  0  0  0  0  0  0
  -25.8138  -28.8455   24.6433 C   0  0  0  0  0  0  0  0  0  0  0  0
  -29.1126  -28.2302   25.2564 C   0  0  0  0  0  0  0  0  0  0  0  0
  -30.0804  -17.0132   21.2816 C   0  0  0  0  0  0  0  0  0  0  0  0
  -19.5922  -27.0272   27.2501 C   0  0  0  0  0  0  0  0  0  0  0  0
  -23.6086  -27.8900   21.6884 C   0  0  0  0  0  0  0  0  0  0  0  0
  -25.7021  -29.7007   22.2523 C   0  0  0  0  0  0  0  0  0  0  0  0
  -28.9389  -26.4582   16.6756 C   0  0  0  0  0  0  0  0  0  0  0  0
  -20.9811  -27.6589   27.2979 C   0  0  0  0  0  0  0  0  0  0  0  0
  -29.7604  -25.2087   16.3426 C   0  0  0  0  0  0  0  0  0  0  0  0
  -30.3104  -13.5775   20.3760 C   0  0  0  0  0  0  0  0  0  0  0  0
  -29.1489  -23.8785   16.7919 C   0  0  0  0  0  0  0  0  0  0  0  0
  -21.0069  -28.9534   26.4915 C   0  0  0  0  0  0  0  0  0  0  0  0
  -28.9127  -13.0297   20.6736 C   0  0  0  0  0  0  0  0  0  0  0  0
  -30.7416  -14.6210   21.4050 C   0  0  0  0  0  0  0  0  0  0  0  0
  -28.3938  -15.1744   21.9058 C   0  0  0  0  0  0  0  0  0  0  0  0
  -28.6405  -23.7630   18.2268 C   0  0  0  0  0  0  0  0  0  0  0  0
  -20.6911  -28.6895   25.0143 C   0  0  1  0  0  0  0  0  0  0  0  0
  -23.9622  -28.1436   23.1648 C   0  0  1  0  0  0  0  0  0  0  0  0
  -27.8895  -14.1673   20.8593 C   0  0  2  0  0  0  0  0  0  0  0  0
  -32.5476  -24.2285   19.4989 C   0  0  0  0  0  0  0  0  0  0  0  0
  -30.8250  -28.3162   27.0889 C   0  0  0  0  0  0  0  0  0  0  0  0
  -25.9496  -31.8803   24.3687 C   0  0  0  0  0  0  0  0  0  0  0  0
  -28.2139  -31.8043   25.4345 C   0  0  0  0  0  0  0  0  0  0  0  0
  -26.2121  -31.0311   26.7064 C   0  0  0  0  0  0  0  0  0  0  0  0
  -29.6181  -25.3195   25.0791 C   0  0  0  0  0  0  0  0  0  0  0  0
  -29.2649  -23.5689   20.6411 C   0  0  0  0  0  0  0  0  0  0  0  0
  -27.1010  -29.6122   24.8120 C   0  0  1  0  0  0  0  0  0  0  0  0
  -29.8041  -27.4541   26.3628 C   0  0  2  0  0  0  0  0  0  0  0  0
  -26.8637  -31.0670   25.3068 C   0  0  0  0  0  0  0  0  0  0  0  0
  -26.4121  -12.5018   21.9198 N   0  0  0  0  0  0  0  0  0  0  0  0
  -26.5111  -13.6333   21.2016 N   0  0  0  0  0  0  0  0  0  0  0  0
  -25.1869  -28.9288   23.3940 N   0  0  0  0  0  0  0  0  0  0  0  0
  -29.7258  -15.6692   21.5243 N   0  0  0  0  0  0  0  0  0  0  0  0
  -25.2250  -15.3147   20.1388 N   0  0  0  0  0  0  0  0  0  0  0  0
  -22.1006  -12.5644   21.8911 N   0  0  0  0  0  0  0  0  0  0  0  0
  -29.0245  -17.9172   21.3930 N   0  0  0  0  0  0  0  0  0  0  0  0
  -21.8485  -28.1414   24.3401 N   0  0  0  0  0  0  0  0  0  0  0  0
  -27.9411  -28.8103   25.6949 N   0  0  0  0  0  0  0  0  0  0  0  0
  -29.7316  -23.9471   19.2555 N   0  3  2  0  0  0  0  0  0  0  0  0
  -30.5070  -26.2661   25.8009 N   0  3  0  0  0  0  0  0  0  0  0  0
  -22.4222  -14.4724   20.6602 O   0  0  0  0  0  0  0  0  0  0  0  0
  -22.9228  -30.1481   23.8486 O   0  0  0  0  0  0  0  0  0  0  0  0
  -25.3708  -28.1940   25.5934 O   0  0  0  0  0  0  0  0  0  0  0  0
  -29.5682  -28.3165   24.1182 O   0  0  0  0  0  0  0  0  0  0  0  0
  -31.2298  -17.3349   20.9694 O   0  0  0  0  0  0  0  0  0  0  0  0
  -23.0654   -7.9295   24.8261 O   0  0  0  0  0  0  0  0  0  0  0  0
  -28.1019  -28.1103   18.2547 O   0  0  0  0  0  0  0  0  0  1  0  0
  -17.7429   -8.0417   26.2623 F   0  0  0  0  0  0  0  0  0  0  0  0
  -22.3097   -7.7896   27.4816 F   0  0  0  0  0  0  0  0  0  0  0  0
  -26.5134  -22.3810   21.3740 Cl  0  0  0  0  0  0  0  0  0  0  0  0
  1  2  1  0  0  0  0
  1  5  2  0  0  0  0
  2  6  2  0  0  0  0
  3 10  2  0  0  0  0
  3 18  1  0  0  0  0
  4 11  1  0  0  0  0
  4 18  2  0  0  0  0
  5 20  1  0  0  0  0
  6 22  1  0  0  0  0
  7 12  2  0  0  0  0
  7 21  1  0  0  0  0
  8  9  2  0  0  0  0
  8 24  1  0  0  0  0
  9 25  1  0  0  0  0
 10 26  1  0  0  0  0
 11 26  2  0  0  0  0
 12 27  1  0  0  0  0
 13 14  2  0  0  0  0
 13 28  1  0  0  0  0
 14 29  1  0  0  0  0
 15 23  1  0  0  0  0
 15 27  2  0  0  0  0
 16 25  2  0  0  0  0
 16 31  1  0  0  0  0
 17 29  2  0  0  0  0
 17 30  1  0  0  0  0
 18 32  1  0  0  0  0
 19 32  1  0  0  0  0
 19 33  2  0  0  0  0
 19 38  1  0  0  0  0
 20 22  2  0  0  0  0
 20 43  1  0  0  0  0
 21 23  2  0  0  0  0
 21 44  1  0  0  0  0
 22 56  1  0  0  0  0
 23 45  1  0  0  0  0
 24 31  2  0  0  0  0
 24 65  1  0  0  0  0
 25 75  1  0  0  0  0
 26 85  1  0  0  0  0
 27 86  1  0  0  0  0
 28 30  2  0  0  0  0
 28 85  1  0  0  0  0
 29 87  1  0  0  0  0
 30 88  1  0  0  0  0
 31 89  1  0  0  0  0
 32 69  2  0  0  0  0
 33 70  1  0  0  0  0
 33 73  1  0  0  0  0
 34 35  2  0  0  0  0
 34 36  1  0  0  0  0
 35 46  1  0  0  0  0
 35 86  1  0  0  0  0
 36 37  2  0  0  0  0
 36 78  1  0  0  0  0
 37 59  1  0  0  0  0
 38 74  1  0  0  0  0
 38 80  2  0  0  0  0
 39 57  1  0  0  0  0
 39 76  1  0  0  0  0
 39 81  2  0  0  0  0
 40 66  1  0  0  0  0
 40 71  1  0  0  0  0
 40 82  2  0  0  0  0
 41 67  1  0  0  0  0
 41 77  1  0  0  0  0
 41 83  2  0  0  0  0
 42 72  1  0  0  0  0
 42 75  1  0  0  0  0
 42 84  2  0  0  0  0
 43 47  1  0  0  0  0
 44 57  1  0  0  0  0
 45 71  1  0  0  0  0
 46 48  1  0  0  0  0
 47 51  1  0  0  0  0
 48 50  1  0  0  0  0
 49 52  1  0  0  0  0
 49 53  1  0  0  0  0
 50 55  1  0  0  0  0
 51 56  1  0  0  0  0
 52 58  1  0  0  0  0
 53 72  1  0  0  0  0
 54 58  1  0  0  0  0
 54 72  1  0  0  0  0
 55 78  1  0  0  0  0
 56 76  1  0  0  0  0
 57 71  1  0  0  0  0
 58 70  1  0  0  0  0
 60 67  1  0  0  0  0
 61 68  1  0  0  0  0
 62 68  1  0  0  0  0
 63 68  1  0  0  0  0
 64 79  1  0  0  0  0
 65 78  1  0  0  0  0
 66 68  1  0  0  0  0
 66 77  1  0  0  0  0
 67 79  1  0  0  0  0
 69 70  1  0  0  0  0
M  CHG  2  78   1  79   1
M  ISO  4  35 101  42 100  75 100  86 101
M  END
> <Batch ID>
0041

> <Smiles>
CC=C1C=[101C:1]([101O:1]c2ccc3c(c2)CN(C(=O)C(NC(=O)C(C)NC)C(C)(C)C)C(C(=O)NC2CCCc4ccccc42)C3)CCCCN1Cc1ccc([100NH:0][100C:0](=O)N2CCCC(n3nc(-c4ccc(Oc5ccc(F)cc5F)cc4)c(C(N)=O)c3N)C2)cc1Cl

> <Shape>
0.286

> <Color>
0.123

> <Negative vol penalty>
0.000

$$$$

  -OEChem-04042322093D

 84 92  0     1  0  0  0  0  0999 V2000
  -28.3226  -24.7906   16.5571 C   0  0  0  0  0  0  0  0  0  0  0  0
  -27.1396  -24.9308   17.2756 C   0  0  0  0  0  0  0  0  0  0  0  0
  -28.6530  -17.6634   21.3038 C   0  0  0  0  0  0  0  0  0  0  0  0
  -26.2752  -17.8665   20.9271 C   0  0  0  0  0  0  0  0  0  0  0  0
  -29.5062  -25.3368   17.0518 C   0  0  0  0  0  0  0  0  0  0  0  0
  -27.1397  -25.6162   18.4899 C   0  0  0  0  0  0  0  0  0  0  0  0
  -23.2470  -28.8283   18.9081 C   0  0  0  0  0  0  0  0  0  0  0  0
  -28.6298  -16.3800   20.7580 C   0  0  0  0  0  0  0  0  0  0  0  0
  -26.2520  -16.5831   20.3812 C   0  0  0  0  0  0  0  0  0  0  0  0
  -22.0032  -28.2835   19.2240 C   0  0  0  0  0  0  0  0  0  0  0  0
  -26.2554  -13.3957   21.5087 C   0  0  0  0  0  0  0  0  0  0  0  0
  -25.2320  -12.5382   21.9123 C   0  0  0  0  0  0  0  0  0  0  0  0
  -22.3091  -28.9354   21.5263 C   0  0  0  0  0  0  0  0  0  0  0  0
  -21.4261  -24.2675   26.0346 C   0  0  0  0  0  0  0  0  0  0  0  0
  -20.1895  -22.5087   24.2570 C   0  0  0  0  0  0  0  0  0  0  0  0
  -24.4769  -12.3626   19.6241 C   0  0  0  0  0  0  0  0  0  0  0  0
  -27.4756  -18.4066   21.3885 C   0  0  0  0  0  0  0  0  0  0  0  0
  -27.7106  -20.9439   21.2683 C   0  0  0  0  0  0  0  0  0  0  0  0
  -29.5189  -26.0376   18.2681 C   0  0  0  0  0  0  0  0  0  0  0  0
  -24.0374  -29.4220   19.9028 C   0  0  0  0  0  0  0  0  0  0  0  0
  -28.3248  -26.1711   19.0021 C   0  0  0  0  0  0  0  0  0  0  0  0
  -23.5615  -29.4892   21.2200 C   0  0  0  0  0  0  0  0  0  0  0  0
  -20.6211  -24.7637   25.0092 C   0  0  0  0  0  0  0  0  0  0  0  0
  -21.6129  -22.8919   26.1712 C   0  0  0  0  0  0  0  0  0  0  0  0
  -20.0028  -23.8843   24.1204 C   0  0  0  0  0  0  0  0  0  0  0  0
  -27.4294  -15.8399   20.2966 C   0  0  0  0  0  0  0  0  0  0  0  0
  -21.5353  -28.3345   20.5338 C   0  0  0  0  0  0  0  0  0  0  0  0
  -26.3895  -13.7368   20.1628 C   0  0  0  0  0  0  0  0  0  0  0  0
  -24.3428  -12.0216   20.9700 C   0  0  0  0  0  0  0  0  0  0  0  0
  -25.5002  -13.2202   19.2205 C   0  0  0  0  0  0  0  0  0  0  0  0
  -20.9945  -22.0125   25.2823 C   0  0  0  0  0  0  0  0  0  0  0  0
  -27.4988  -19.7322   21.9528 C   0  0  0  0  0  0  0  0  0  0  0  0
  -27.6373  -21.9072   22.2447 C   0  0  0  0  0  0  0  0  0  0  0  0
  -27.9519  -21.1779   19.8745 C   0  0  0  0  0  0  0  0  0  0  0  0
  -26.9067  -28.8325   21.1371 C   0  0  0  0  0  0  0  0  0  0  0  0
  -26.3674  -31.6129   22.7186 C   0  0  0  0  0  0  0  0  0  0  0  0
  -24.1080  -33.8638   23.9333 C   0  0  0  0  0  0  0  0  0  0  0  0
  -24.9290  -22.1062   27.5810 C   0  0  0  0  0  0  0  0  0  0  0  0
  -30.8319  -26.5695   18.7856 C   0  0  0  0  0  0  0  0  0  0  0  0
  -25.3652  -30.0288   19.5406 C   0  0  0  0  0  0  0  0  0  0  0  0
  -24.3626  -30.1337   22.3206 C   0  0  0  0  0  0  0  0  0  0  0  0
  -30.6743  -27.6043   19.8968 C   0  0  0  0  0  0  0  0  0  0  0  0
  -28.3981  -22.5626   26.9225 C   0  0  0  0  0  0  0  0  0  0  0  0
  -29.6667  -27.1227   20.9359 C   0  0  0  0  0  0  0  0  0  0  0  0
  -28.5801  -21.9983   25.5124 C   0  0  0  0  0  0  0  0  0  0  0  0
  -27.3774  -21.7585   27.7248 C   0  0  0  0  0  0  0  0  0  0  0  0
  -26.2487  -21.0281   25.6594 C   0  0  0  0  0  0  0  0  0  0  0  0
  -28.2798  -26.9291   20.3111 C   0  0  1  0  0  0  0  0  0  0  0  0
  -26.3110  -30.1510   20.7314 C   0  0  1  0  0  0  0  0  0  0  0  0
  -27.2271  -21.8395   24.7931 C   0  0  2  0  0  0  0  0  0  0  0  0
  -20.4369  -26.2401   24.8803 C   0  0  0  0  0  0  0  0  0  0  0  0
  -23.9665  -36.0174   25.2137 C   0  0  0  0  0  0  0  0  0  0  0  0
  -26.9609  -30.1102   25.3070 C   0  0  0  0  0  0  0  0  0  0  0  0
  -25.8991  -31.9971   26.5641 C   0  0  0  0  0  0  0  0  0  0  0  0
  -27.9383  -32.4091   25.1877 C   0  0  0  0  0  0  0  0  0  0  0  0
  -22.7984  -35.2559   21.6737 C   0  0  0  0  0  0  0  0  0  0  0  0
  -22.4829  -22.4007   27.2828 C   0  0  0  0  0  0  0  0  0  0  0  0
  -19.1349  -24.3951   23.0083 C   0  0  0  0  0  0  0  0  0  0  0  0
  -19.0424  -25.7684   20.9240 C   0  0  0  0  0  0  0  0  0  0  0  0
  -19.8784  -26.6947   20.0630 C   0  0  0  0  0  0  0  0  0  1  0  0
  -25.7284  -31.9880   24.0339 C   0  0  1  0  0  0  0  0  0  0  0  0
  -24.0423  -35.3773   23.8362 C   0  0  2  0  0  0  0  0  0  0  0  0
  -26.6172  -31.6122   25.2530 C   0  0  0  0  0  0  0  0  0  0  0  0
  -27.3057  -19.9069   23.2628 N   0  0  0  0  0  0  0  0  0  0  0  0
  -27.3959  -21.2398   23.4093 N   0  0  0  0  0  0  0  0  0  0  0  0
  -25.6573  -30.7073   21.9177 N   0  0  0  0  0  0  0  0  0  0  0  0
  -26.1164  -21.6464   26.9879 N   0  0  0  0  0  0  0  0  0  0  0  0
  -27.7566  -23.2515   22.2120 N   0  0  0  0  0  0  0  0  0  0  0  0
  -27.9955  -20.0758   19.0097 N   0  0  0  0  0  0  0  0  0  0  0  0
  -27.6223  -28.2062   20.1345 N   0  0  0  0  0  0  0  0  0  0  0  0
  -25.4096  -33.4087   23.9423 N   0  0  0  0  0  0  0  0  0  0  0  0
  -23.7799  -21.9683   26.8120 N   0  0  0  0  0  0  0  0  0  0  0  0
  -22.8422  -35.7948   23.0574 N   0  3  0  0  0  0  0  0  0  0  0  0
  -19.8592  -25.2939   22.0695 N   0  3  0  0  0  0  0  0  0  0  0  0
  -28.1400  -22.3288   19.4122 O   0  0  0  0  0  0  0  0  0  0  0  0
  -26.7314  -28.4152   22.2758 O   0  0  0  0  0  0  0  0  0  0  0  0
  -27.4530  -32.1106   22.4099 O   0  0  0  0  0  0  0  0  0  0  0  0
  -23.1052  -33.1563   23.9986 O   0  0  0  0  0  0  0  0  0  0  0  0
  -24.8963  -22.6077   28.7099 O   0  0  0  0  0  0  0  0  0  0  0  0
  -27.4065  -14.5877   19.7636 O   0  0  0  0  0  0  0  0  0  0  0  0
  -20.3218  -27.8030   20.8450 O   0  0  0  0  0  0  0  0  0  1  0  0
  -23.3610  -11.1968   21.3575 F   0  0  0  0  0  0  0  0  0  0  0  0
  -25.6247  -13.5433   17.9259 F   0  0  0  0  0  0  0  0  0  0  0  0
  -21.2026  -20.3046   25.4199 Cl  0  0  0  0  0  0  0  0  0  0  0  0
  1  2  1  0  0  0  0
  1  5  2  0  0  0  0
  2  6  2  0  0  0  0
  3  8  2  0  0  0  0
  3 17  1  0  0  0  0
  4  9  1  0  0  0  0
  4 17  2  0  0  0  0
  5 19  1  0  0  0  0
  6 21  1  0  0  0  0
  7 10  2  0  0  0  0
  7 20  1  0  0  0  0
  8 26  1  0  0  0  0
  9 26  2  0  0  0  0
 10 27  1  0  0  0  0
 11 12  2  0  0  0  0
 11 28  1  0  0  0  0
 12 29  1  0  0  0  0
 13 22  1  0  0  0  0
 13 27  2  0  0  0  0
 14 23  1  0  0  0  0
 14 24  2  0  0  0  0
 15 25  1  0  0  0  0
 15 31  2  0  0  0  0
 16 29  2  0  0  0  0
 16 30  1  0  0  0  0
 17 32  1  0  0  0  0
 18 32  1  0  0  0  0
 18 33  2  0  0  0  0
 18 34  1  0  0  0  0
 19 21  2  0  0  0  0
 19 39  1  0  0  0  0
 20 22  2  0  0  0  0
 20 40  1  0  0  0  0
 21 48  1  0  0  0  0
 22 41  1  0  0  0  0
 23 25  2  0  0  0  0
 23 51  1  0  0  0  0
 24 31  1  0  0  0  0
 24 57  1  0  0  0  0
 25 58  1  0  0  0  0
 26 80  1  0  0  0  0
 27 81  1  0  0  0  0
 28 30  2  0  0  0  0
 28 80  1  0  0  0  0
 29 82  1  0  0  0  0
 30 83  1  0  0  0  0
 31 84  1  0  0  0  0
 32 64  2  0  0  0  0
 33 65  1  0  0  0  0
 33 68  1  0  0  0  0
 34 69  1  0  0  0  0
 34 75  2  0  0  0  0
 35 49  1  0  0  0  0
 35 70  1  0  0  0  0
 35 76  2  0  0  0  0
 36 61  1  0  0  0  0
 36 66  1  0  0  0  0
 36 77  2  0  0  0  0
 37 62  1  0  0  0  0
 37 71  1  0  0  0  0
 37 78  2  0  0  0  0
 38 67  1  0  0  0  0
 38 72  1  0  0  0  0
 38 79  2  0  0  0  0
 39 42  1  0  0  0  0
 40 49  1  0  0  0  0
 41 66  1  0  0  0  0
 42 44  1  0  0  0  0
 43 45  1  0  0  0  0
 43 46  1  0  0  0  0
 44 48  1  0  0  0  0
 45 50  1  0  0  0  0
 46 67  1  0  0  0  0
 47 50  1  0  0  0  0
 47 67  1  0  0  0  0
 48 70  1  0  0  0  0
 49 66  1  0  0  0  0
 50 65  1  0  0  0  0
 52 62  1  0  0  0  0
 53 63  1  0  0  0  0
 54 63  1  0  0  0  0
 55 63  1  0  0  0  0
 56 73  1  0  0  0  0
 57 72  1  0  0  0  0
 58 74  1  0  0  0  0
 59 60  1  0  0  0  0
 59 74  1  0  0  0  0
 60 81  1  0  0  0  0
 61 63  1  0  0  0  0
 61 71  1  0  0  0  0
 62 73  1  0  0  0  0
 64 65  1  0  0  0  0
M  CHG  2  73   1  74   1
M  ISO  4  38 100  60 101  72 100  81 101
M  END
> <Batch ID>
0041

> <Smiles>
CNC(C)C(=O)NC(C(=O)N1Cc2cc([101O:1][101CH2:1]CNCc3cc(Cl)c(C[100NH:0][100C:0](=O)N4CCCC(n5nc(-c6ccc(Oc7ccc(F)cc7F)cc6)c(C(N)=O)c5N)C4)cc3C)ccc2CC1C(=O)NC1CCCc2ccccc21)C(C)(C)C

> <Shape>
0.269

> <Color>
0.078

> <Negative vol penalty>
0.000

$$$$

  -OEChem-04042322093D

 83 91  0     1  0  0  0  0  0999 V2000
  -21.4300  -15.9393   15.3871 C   0  0  0  0  0  0  0  0  0  0  0  0
  -22.6560  -15.6621   15.9832 C   0  0  0  0  0  0  0  0  0  0  0  0
  -26.5141  -26.9185   22.6754 C   0  0  0  0  0  0  0  0  0  0  0  0
  -25.3644  -27.1939   20.5685 C   0  0  0  0  0  0  0  0  0  0  0  0
  -20.6822  -17.0368   15.8114 C   0  0  0  0  0  0  0  0  0  0  0  0
  -23.1355  -16.4830   17.0032 C   0  0  0  0  0  0  0  0  0  0  0  0
  -25.0142  -13.8466   20.8975 C   0  0  0  0  0  0  0  0  0  0  0  0
  -30.3736  -17.9960   22.6614 C   0  0  0  0  0  0  0  0  0  0  0  0
  -29.5094  -18.8695   22.0013 C   0  0  0  0  0  0  0  0  0  0  0  0
  -25.4554  -27.5427   23.3348 C   0  0  0  0  0  0  0  0  0  0  0  0
  -24.3056  -27.8182   21.2278 C   0  0  0  0  0  0  0  0  0  0  0  0
  -26.2897  -13.3051   20.7436 C   0  0  0  0  0  0  0  0  0  0  0  0
  -21.6323  -26.8929   23.0767 C   0  0  0  0  0  0  0  0  0  0  0  0
  -20.3375  -26.5061   22.7313 C   0  0  0  0  0  0  0  0  0  0  0  0
  -27.2134  -15.1348   22.0157 C   0  0  0  0  0  0  0  0  0  0  0  0
  -30.2162  -17.9629   19.8763 C   0  0  0  0  0  0  0  0  0  0  0  0
  -19.8408  -28.7720   22.0556 C   0  0  0  0  0  0  0  0  0  0  0  0
  -26.4687  -26.7441   21.2922 C   0  0  0  0  0  0  0  0  0  0  0  0
  -28.9062  -26.5178   20.5745 C   0  0  0  0  0  0  0  0  0  0  0  0
  -21.1483  -17.8660   16.8438 C   0  0  0  0  0  0  0  0  0  0  0  0
  -24.8298  -15.0441   21.6036 C   0  0  0  0  0  0  0  0  0  0  0  0
  -22.3939  -17.5935   17.4408 C   0  0  0  0  0  0  0  0  0  0  0  0
  -25.9343  -15.6881   22.1793 C   0  0  0  0  0  0  0  0  0  0  0  0
  -31.1592  -17.1060   21.9289 C   0  0  0  0  0  0  0  0  0  0  0  0
  -31.0805  -17.0895   20.5364 C   0  0  0  0  0  0  0  0  0  0  0  0
  -29.4306  -18.8529   20.6088 C   0  0  0  0  0  0  0  0  0  0  0  0
  -24.3511  -27.9926   22.6111 C   0  0  0  0  0  0  0  0  0  0  0  0
  -27.3899  -13.9507   21.3002 C   0  0  0  0  0  0  0  0  0  0  0  0
  -22.0315  -28.2193   22.9116 C   0  0  0  0  0  0  0  0  0  0  0  0
  -19.4417  -27.4456   22.2207 C   0  0  0  0  0  0  0  0  0  0  0  0
  -21.1357  -29.1588   22.4010 C   0  0  0  0  0  0  0  0  0  0  0  0
  -27.5624  -26.0998   20.6104 C   0  0  0  0  0  0  0  0  0  0  0  0
  -29.5387  -25.5745   19.8021 C   0  0  0  0  0  0  0  0  0  0  0  0
  -30.7545  -14.1892   19.3776 C   0  0  0  0  0  0  0  0  0  0  0  0
  -29.5272  -27.6569   21.1848 C   0  0  0  0  0  0  0  0  0  0  0  0
  -23.7273  -17.9337   20.8700 C   0  0  0  0  0  0  0  0  0  0  0  0
  -24.0578  -18.4417   24.0567 C   0  0  0  0  0  0  0  0  0  0  0  0
  -25.5904  -17.5858   26.9833 C   0  0  0  0  0  0  0  0  0  0  0  0
  -28.3525  -19.8508   18.5622 C   0  0  0  0  0  0  0  0  0  0  0  0
  -20.3266  -19.0684   17.2361 C   0  0  0  0  0  0  0  0  0  0  0  0
  -23.4442  -15.6011   21.7835 C   0  0  0  0  0  0  0  0  0  0  0  0
  -25.7874  -16.9653   22.9640 C   0  0  0  0  0  0  0  0  0  0  0  0
  -20.7314  -19.6709   18.5790 C   0  0  0  0  0  0  0  0  0  0  0  0
  -28.7175  -22.5059   16.2183 C   0  0  0  0  0  0  0  0  0  0  0  0
  -22.2477  -19.8129   18.6651 C   0  0  0  0  0  0  0  0  0  0  0  0
  -28.5911  -23.7669   17.0762 C   0  0  0  0  0  0  0  0  0  0  0  0
  -27.7852  -21.3959   16.7006 C   0  0  0  0  0  0  0  0  0  0  0  0
  -27.7774  -22.3220   18.9834 C   0  0  0  0  0  0  0  0  0  0  0  0
  -22.9363  -18.4462   18.5673 C   0  0  1  0  0  0  0  0  0  0  0  0
  -23.4358  -17.0968   22.0834 C   0  0  1  0  0  0  0  0  0  0  0  0
  -28.7442  -23.4458   18.5759 C   0  0  2  0  0  0  0  0  0  0  0  0
  -32.0777  -16.1810   22.6578 C   0  0  0  0  0  0  0  0  0  0  0  0
  -25.6818  -18.2047   29.4135 C   0  0  0  0  0  0  0  0  0  0  0  0
  -25.7231  -20.9030   23.3647 C   0  0  0  0  0  0  0  0  0  0  0  0
  -26.5553  -20.9177   25.7260 C   0  0  0  0  0  0  0  0  0  0  0  0
  -24.1240  -21.2247   25.2604 C   0  0  0  0  0  0  0  0  0  0  0  0
  -24.6741  -14.8993   27.8213 C   0  0  0  0  0  0  0  0  0  0  0  0
  -31.9157  -16.1378   19.7264 C   0  0  0  0  0  0  0  0  0  0  0  0
  -30.3612  -12.7558   19.6162 C   0  0  0  0  0  0  0  0  0  0  0  0
  -28.8849  -12.6704   19.9654 C   0  0  0  0  0  0  0  0  0  1  0  0
  -25.1668  -18.9426   24.9501 C   0  0  1  0  0  0  0  0  0  0  0  0
  -25.0341  -17.3097   28.3685 C   0  0  2  0  0  0  0  0  0  0  0  0
  -25.3957  -20.4740   24.8089 C   0  0  0  0  0  0  0  0  0  0  0  0
  -27.3525  -24.9783   19.9160 N   0  0  0  0  0  0  0  0  0  0  0  0
  -31.6666  -14.7473   20.0947 N   0  0  0  0  0  0  0  0  0  0  0  0
  -28.5728  -24.6837   19.4363 N   0  0  0  0  0  0  0  0  0  0  0  0
  -24.4131  -17.4736   23.1067 N   0  0  0  0  0  0  0  0  0  0  0  0
  -27.9895  -21.1434   18.1287 N   0  0  0  0  0  0  0  0  0  0  0  0
  -30.8212  -25.4284   19.4069 N   0  0  0  0  0  0  0  0  0  0  0  0
  -29.5818  -28.8559   20.4611 N   0  0  0  0  0  0  0  0  0  0  0  0
  -28.5513  -19.7386   19.9379 N   0  0  0  0  0  0  0  0  0  0  0  0
  -22.8410  -17.7410   19.8275 N   0  0  0  0  0  0  0  0  0  0  0  0
  -24.8283  -18.5111   26.3020 N   0  0  0  0  0  0  0  0  0  0  0  0
  -25.2765  -15.8897   28.7505 N   0  3  0  0  0  0  0  0  0  0  0  0
  -30.0338  -27.6082   22.3314 O   0  0  0  0  0  0  0  0  0  0  0  0
  -24.6845  -18.6988   20.8795 O   0  0  0  0  0  0  0  0  0  0  0  0
  -22.9168  -18.8876   24.2013 O   0  0  0  0  0  0  0  0  0  0  0  0
  -26.6021  -17.0384   26.5505 O   0  0  0  0  0  0  0  0  0  0  0  0
  -28.5044  -18.9188   17.7682 O   0  0  0  0  0  0  0  0  0  0  0  0
  -23.3176  -28.6016   23.2542 O   0  0  0  0  0  0  0  0  0  0  0  0
  -28.6361  -13.4247   21.1509 O   0  0  0  0  0  0  0  0  0  1  0  0
  -18.1988  -27.0737   21.8877 F   0  0  0  0  0  0  0  0  0  0  0  0
  -21.5138  -30.4342   22.2391 F   0  0  0  0  0  0  0  0  0  0  0  0
  1  2  1  0  0  0  0
  1  5  2  0  0  0  0
  2  6  2  0  0  0  0
  3 10  2  0  0  0  0
  3 18  1  0  0  0  0
  4 11  1  0  0  0  0
  4 18  2  0  0  0  0
  5 20  1  0  0  0  0
  6 22  1  0  0  0  0
  7 12  2  0  0  0  0
  7 21  1  0  0  0  0
  8  9  2  0  0  0  0
  8 24  1  0  0  0  0
  9 26  1  0  0  0  0
 10 27  1  0  0  0  0
 11 27  2  0  0  0  0
 12 28  1  0  0  0  0
 13 14  2  0  0  0  0
 13 29  1  0  0  0  0
 14 30  1  0  0  0  0
 15 23  1  0  0  0  0
 15 28  2  0  0  0  0
 16 25  1  0  0  0  0
 16 26  2  0  0  0  0
 17 30  2  0  0  0  0
 17 31  1  0  0  0  0
 18 32  1  0  0  0  0
 19 32  1  0  0  0  0
 19 33  2  0  0  0  0
 19 35  1  0  0  0  0
 20 22  2  0  0  0  0
 20 40  1  0  0  0  0
 21 23  2  0  0  0  0
 21 41  1  0  0  0  0
 22 49  1  0  0  0  0
 23 42  1  0  0  0  0
 24 25  2  0  0  0  0
 24 52  1  0  0  0  0
 25 58  1  0  0  0  0
 26 71  1  0  0  0  0
 27 80  1  0  0  0  0
 28 81  1  0  0  0  0
 29 31  2  0  0  0  0
 29 80  1  0  0  0  0
 30 82  1  0  0  0  0
 31 83  1  0  0  0  0
 32 64  2  0  0  0  0
 33 66  1  0  0  0  0
 33 69  1  0  0  0  0
 34 59  1  0  0  0  0
 34 65  2  0  0  0  0
 35 70  1  0  0  0  0
 35 75  2  0  0  0  0
 36 50  1  0  0  0  0
 36 72  1  0  0  0  0
 36 76  2  0  0  0  0
 37 61  1  0  0  0  0
 37 67  1  0  0  0  0
 37 77  2  0  0  0  0
 38 62  1  0  0  0  0
 38 73  1  0  0  0  0
 38 78  2  0  0  0  0
 39 68  1  0  0  0  0
 39 71  1  0  0  0  0
 39 79  2  0  0  0  0
 40 43  1  0  0  0  0
 41 50  1  0  0  0  0
 42 67  1  0  0  0  0
 43 45  1  0  0  0  0
 44 46  1  0  0  0  0
 44 47  1  0  0  0  0
 45 49  1  0  0  0  0
 46 51  1  0  0  0  0
 47 68  1  0  0  0  0
 48 51  1  0  0  0  0
 48 68  1  0  0  0  0
 49 72  1  0  0  0  0
 50 67  1  0  0  0  0
 51 66  1  0  0  0  0
 53 62  1  0  0  0  0
 54 63  1  0  0  0  0
 55 63  1  0  0  0  0
 56 63  1  0  0  0  0
 57 74  1  0  0  0  0
 58 65  1  0  0  0  0
 59 60  1  0  0  0  0
 60 81  1  0  0  0  0
 61 63  1  0  0  0  0
 61 73  1  0  0  0  0
 62 74  1  0  0  0  0
 64 66  1  0  0  0  0
M  CHG  1  74   1
M  ISO  4  39 100  60 101  71 100  81 101
M  END
> <Batch ID>
0041

> <Smiles>
CNC(C)C(=O)NC(C(=O)N1Cc2cc([101O:1][101CH2:1]C=CNCc3cc([100NH:0][100C:0](=O)N4CCCC(n5nc(-c6ccc(Oc7ccc(F)cc7F)cc6)c(C(N)=O)c5N)C4)ccc3C)ccc2CC1C(=O)NC1CCCc2ccccc21)C(C)(C)C

> <Shape>
0.209

> <Color>
0.059

> <Negative vol penalty>
0.000

$$$$

  -OEChem-04042322093D

 87 96  0     1  0  0  0  0  0999 V2000
  -18.2453  -33.1189   23.6788 C   0  0  0  0  0  0  0  0  0  0  0  0
  -19.5344  -33.2769   23.1803 C   0  0  0  0  0  0  0  0  0  0  0  0
  -23.4660  -12.1795   20.2705 C   0  0  0  0  0  0  0  0  0  0  0  0
  -25.7819  -12.1994   20.9586 C   0  0  0  0  0  0  0  0  0  0  0  0
  -17.8588  -31.9003   24.2354 C   0  0  0  0  0  0  0  0  0  0  0  0
  -20.4383  -32.2167   23.2389 C   0  0  0  0  0  0  0  0  0  0  0  0
  -25.9230  -29.3501   19.6310 C   0  0  0  0  0  0  0  0  0  0  0  0
  -23.5091  -10.7893   20.1655 C   0  0  0  0  0  0  0  0  0  0  0  0
  -25.8250  -10.8091   20.8536 C   0  0  0  0  0  0  0  0  0  0  0  0
  -27.2387  -28.9318   19.8250 C   0  0  0  0  0  0  0  0  0  0  0  0
  -23.3805   -8.1288   22.2483 C   0  0  0  0  0  0  0  0  0  0  0  0
  -22.3171   -7.4048   22.7873 C   0  0  0  0  0  0  0  0  0  0  0  0
  -26.4354  -26.8478   20.7366 C   0  0  0  0  0  0  0  0  0  0  0  0
  -29.0283  -22.1037   22.5434 C   0  0  0  0  0  0  0  0  0  0  0  0
  -27.7849  -22.2200   25.0381 C   0  0  0  0  0  0  0  0  0  0  0  0
  -21.8413   -6.4802   20.6064 C   0  0  0  0  0  0  0  0  0  0  0  0
  -24.6024  -12.8846   20.6670 C   0  0  0  0  0  0  0  0  0  0  0  0
  -23.7197  -15.0854   21.6076 C   0  0  0  0  0  0  0  0  0  0  0  0
  -18.7554  -30.8216   24.2921 C   0  0  0  0  0  0  0  0  0  0  0  0
  -24.8517  -28.5234   19.9990 C   0  0  0  0  0  0  0  0  0  0  0  0
  -20.0639  -30.9830   23.7980 C   0  0  0  0  0  0  0  0  0  0  0  0
  -25.1070  -27.2569   20.5439 C   0  0  0  0  0  0  0  0  0  0  0  0
  -29.5401  -22.9351   23.5397 C   0  0  0  0  0  0  0  0  0  0  0  0
  -27.2731  -21.3887   24.0418 C   0  0  0  0  0  0  0  0  0  0  0  0
  -27.8948  -21.3306   22.7944 C   0  0  0  0  0  0  0  0  0  0  0  0
  -24.6885  -10.1041   20.4571 C   0  0  0  0  0  0  0  0  0  0  0  0
  -27.4951  -27.6817   20.3805 C   0  0  0  0  0  0  0  0  0  0  0  0
  -23.6743   -8.0287   20.8884 C   0  0  0  0  0  0  0  0  0  0  0  0
  -21.5475   -6.5805   21.9663 C   0  0  0  0  0  0  0  0  0  0  0  0
  -22.9047   -7.2043   20.0675 C   0  0  0  0  0  0  0  0  0  0  0  0
  -28.9185  -22.9932   24.7870 C   0  0  0  0  0  0  0  0  0  0  0  0
  -24.5587  -14.3207   20.7751 C   0  0  0  0  0  0  0  0  0  0  0  0
  -24.0650  -16.3876   21.3401 C   0  0  0  0  0  0  0  0  0  0  0  0
  -29.5334  -25.4983   22.0000 C   0  0  0  0  0  0  0  0  0  0  0  0
  -22.7179  -14.6570   22.5395 C   0  0  0  0  0  0  0  0  0  0  0  0
  -22.4479  -28.7537   22.0661 C   0  0  0  0  0  0  0  0  0  0  0  0
  -21.5065  -25.9742   20.6839 C   0  0  0  0  0  0  0  0  0  0  0  0
  -23.0805  -22.9329   19.5478 C   0  0  0  0  0  0  0  0  0  0  0  0
  -27.9003  -20.3319   20.4817 C   0  0  0  0  0  0  0  0  0  0  0  0
  -18.3069  -29.5386   24.9459 C   0  0  0  0  0  0  0  0  0  0  0  0
  -23.4383  -28.9784   19.7586 C   0  0  0  0  0  0  0  0  0  0  0  0
  -23.9924  -26.3234   20.9370 C   0  0  0  0  0  0  0  0  0  0  0  0
  -19.2072  -28.3470   24.6300 C   0  0  0  0  0  0  0  0  0  0  0  0
  -30.7783  -27.5494   23.6823 C   0  0  0  0  0  0  0  0  0  0  0  0
  -26.9668  -18.3409   17.6814 C   0  0  0  0  0  0  0  0  0  0  0  0
  -20.6749  -28.7287   24.7933 C   0  0  0  0  0  0  0  0  0  0  0  0
  -30.3017  -27.9054   22.2897 C   0  0  0  0  0  0  0  0  0  0  0  0
  -26.1881  -17.1804   18.3051 C   0  0  0  0  0  0  0  0  0  0  0  0
  -31.2932  -26.1212   23.6962 C   0  0  0  0  0  0  0  0  0  0  0  0
  -28.1388  -18.7746   18.5600 C   0  0  0  0  0  0  0  0  0  0  0  0
  -27.0116  -17.9201   20.5770 C   0  0  0  0  0  0  0  0  0  0  0  0
  -21.0652  -29.8485   23.8211 C   0  0  1  0  0  0  0  0  0  0  0  0
  -29.1698  -26.9744   21.9018 C   0  0  1  0  0  0  0  0  0  1  0  0
  -22.4221  -28.2654   20.6453 C   0  0  1  0  0  0  0  0  0  0  0  0
  -25.7825  -17.4910   19.7593 C   0  0  2  0  0  0  0  0  0  0  0  0
  -26.0573  -20.5718   24.3385 C   0  0  0  0  0  0  0  0  0  0  0  0
  -22.3884  -21.3037   17.7691 C   0  0  0  0  0  0  0  0  0  0  0  0
  -20.1906  -24.4645   22.9859 C   0  0  0  0  0  0  0  0  0  0  0  0
  -20.9079  -22.3252   21.9009 C   0  0  0  0  0  0  0  0  0  0  0  0
  -19.3355  -23.8567   20.7157 C   0  0  0  0  0  0  0  0  0  0  0  0
  -25.6727  -23.1877   18.1427 C   0  0  0  0  0  0  0  0  0  0  0  0
  -30.7615  -23.7514   23.2299 C   0  0  0  0  0  0  0  0  0  0  0  0
  -21.7674  -24.5098   20.9419 C   0  0  1  0  0  0  0  0  0  0  0  0
  -23.2738  -22.4927   18.1079 C   0  0  2  0  0  0  0  0  0  0  0  0
  -20.5695  -23.8090   21.6429 C   0  0  0  0  0  0  0  0  0  0  0  0
  -25.3754  -15.0743   20.0340 N   0  0  0  0  0  0  0  0  0  0  0  0
  -25.0512  -16.3261   20.4000 N   0  0  0  0  0  0  0  0  0  0  0  0
  -30.4374  -25.1541   23.0067 N   0  0  0  0  0  0  0  0  0  0  0  0
  -22.6276  -26.8162   20.6880 N   0  0  0  0  0  0  0  0  0  0  0  0
  -27.6784  -19.0561   19.9215 N   0  0  0  0  0  0  0  0  0  0  0  0
  -23.6182  -17.5678   21.8197 N   0  0  0  0  0  0  0  0  0  0  0  0
  -22.4909  -13.2823   22.6914 N   0  0  0  0  0  0  0  0  0  0  0  0
  -27.3896  -20.4929   21.7693 N   0  0  0  0  0  0  0  0  0  0  0  0
  -21.2590  -29.3167   22.4892 N   0  0  0  0  0  0  0  0  0  0  0  0
  -22.1309  -23.9269   19.6549 N   0  0  0  0  0  0  0  0  0  0  0  0
  -24.6930  -22.1044   17.8711 N   0  3  0  0  0  0  0  0  0  0  0  0
  -28.9858  -24.6798   21.2568 O   0  0  0  0  0  0  0  0  0  0  0  0
  -22.0326  -15.4697   23.2054 O   0  0  0  0  0  0  0  0  0  0  0  0
  -23.4703  -28.6276   22.7298 O   0  0  0  0  0  0  0  0  0  0  0  0
  -20.3515  -26.3557   20.4789 O   0  0  0  0  0  0  0  0  0  0  0  0
  -23.7063  -22.4412   20.4844 O   0  0  0  0  0  0  0  0  0  0  0  0
  -28.4752  -21.2251   19.8542 O   0  0  0  0  0  0  0  0  0  0  0  0
  -24.7309   -8.7475   20.3550 O   0  0  0  0  0  0  0  0  0  0  0  0
  -28.7784  -27.2712   20.5716 O   0  0  0  0  0  0  0  0  0  1  0  0
  -20.5273   -5.8840   22.4843 F   0  0  0  0  0  0  0  0  0  0  0  0
  -23.1829   -7.1031   18.7605 F   0  0  0  0  0  0  0  0  0  0  0  0
  -29.5233  -24.0106   26.0435 Cl  0  0  0  0  0  0  0  0  0  0  0  0
  1  2  1  0  0  0  0
  1  5  2  0  0  0  0
  2  6  2  0  0  0  0
  3  8  2  0  0  0  0
  3 17  1  0  0  0  0
  4  9  1  0  0  0  0
  4 17  2  0  0  0  0
  5 19  1  0  0  0  0
  6 21  1  0  0  0  0
  7 10  2  0  0  0  0
  7 20  1  0  0  0  0
  8 26  1  0  0  0  0
  9 26  2  0  0  0  0
 10 27  1  0  0  0  0
 11 12  2  0  0  0  0
 11 28  1  0  0  0  0
 12 29  1  0  0  0  0
 13 22  1  0  0  0  0
 13 27  2  0  0  0  0
 14 23  1  0  0  0  0
 14 25  2  0  0  0  0
 15 24  2  0  0  0  0
 15 31  1  0  0  0  0
 16 29  2  0  0  0  0
 16 30  1  0  0  0  0
 17 32  1  0  0  0  0
 18 32  1  0  0  0  0
 18 33  2  0  0  0  0
 18 35  1  0  0  0  0
 19 21  2  0  0  0  0
 19 40  1  0  0  0  0
 20 22  2  0  0  0  0
 20 41  1  0  0  0  0
 21 52  1  0  0  0  0
 22 42  1  0  0  0  0
 23 31  2  0  0  0  0
 23 62  1  0  0  0  0
 24 25  1  0  0  0  0
 24 56  1  0  0  0  0
 25 73  1  0  0  0  0
 26 83  1  0  0  0  0
 27 84  1  0  0  0  0
 28 30  2  0  0  0  0
 28 83  1  0  0  0  0
 29 85  1  0  0  0  0
 30 86  1  0  0  0  0
 31 87  1  0  0  0  0
 32 66  2  0  0  0  0
 33 67  1  0  0  0  0
 33 71  1  0  0  0  0
 34 53  1  0  0  0  0
 34 68  1  0  0  0  0
 34 77  2  0  0  0  0
 35 72  1  0  0  0  0
 35 78  2  0  0  0  0
 36 54  1  0  0  0  0
 36 74  1  0  0  0  0
 36 79  2  0  0  0  0
 37 63  1  0  0  0  0
 37 69  1  0  0  0  0
 37 80  2  0  0  0  0
 38 64  1  0  0  0  0
 38 75  1  0  0  0  0
 38 81  2  0  0  0  0
 39 70  1  0  0  0  0
 39 73  1  0  0  0  0
 39 82  2  0  0  0  0
 40 43  1  0  0  0  0
 41 54  1  0  0  0  0
 42 69  1  0  0  0  0
 43 46  1  0  0  0  0
 44 47  1  0  0  0  0
 44 49  1  0  0  0  0
 45 48  1  0  0  0  0
 45 50  1  0  0  0  0
 46 52  1  0  0  0  0
 47 53  1  0  0  0  0
 48 55  1  0  0  0  0
 49 68  1  0  0  0  0
 50 70  1  0  0  0  0
 51 55  1  0  0  0  0
 51 70  1  0  0  0  0
 52 74  1  0  0  0  0
 53 84  1  0  0  0  0
 54 69  1  0  0  0  0
 55 67  1  0  0  0  0
 57 64  1  0  0  0  0
 58 65  1  0  0  0  0
 59 65  1  0  0  0  0
 60 65  1  0  0  0  0
 61 76  1  0  0  0  0
 62 68  1  0  0  0  0
 63 65  1  0  0  0  0
 63 75  1  0  0  0  0
 64 76  1  0  0  0  0
 66 67  1  0  0  0  0
M  CHG  1  76   1
M  ISO  4  39 100  53 101  73 100  84 101
M  END
> <Batch ID>
0041

> <Smiles>
CNC(C)C(=O)NC(C(=O)N1Cc2cc([101O:1][101CH:1]3CCCN(Cc4cc([100NH:0][100C:0](=O)N5CCCC(n6nc(-c7ccc(Oc8ccc(F)cc8F)cc7)c(C(N)=O)c6N)C5)c(C)cc4Cl)C3=O)ccc2CC1C(=O)NC1CCCc2ccccc21)C(C)(C)C

> <Shape>
0.215

> <Color>
0.095

> <Negative vol penalty>
0.000

$$$$

  -OEChem-04042322093D

 86 94  0     1  0  0  0  0  0999 V2000
  -21.7869  -12.2743   19.5999 C   0  0  0  0  0  0  0  0  0  0  0  0
  -21.7225  -13.6180   19.9546 C   0  0  0  0  0  0  0  0  0  0  0  0
  -29.9857  -27.4762   20.1469 C   0  0  0  0  0  0  0  0  0  0  0  0
  -28.7242  -25.7505   21.2728 C   0  0  0  0  0  0  0  0  0  0  0  0
  -17.4692  -27.6661   22.7800 C   0  0  0  0  0  0  0  0  0  0  0  0
  -22.9731  -11.5635   19.7781 C   0  0  0  0  0  0  0  0  0  0  0  0
  -22.8441  -14.2514   20.4886 C   0  0  0  0  0  0  0  0  0  0  0  0
  -23.6539  -18.8147   18.4476 C   0  0  0  0  0  0  0  0  0  0  0  0
  -31.1747  -26.8919   20.5835 C   0  0  0  0  0  0  0  0  0  0  0  0
  -29.9132  -25.1662   21.7094 C   0  0  0  0  0  0  0  0  0  0  0  0
  -22.8552  -19.8647   18.8984 C   0  0  0  0  0  0  0  0  0  0  0  0
  -34.5323  -26.0571   21.7031 C   0  0  0  0  0  0  0  0  0  0  0  0
  -17.7397  -29.0019   22.4832 C   0  0  0  0  0  0  0  0  0  0  0  0
  -35.5177  -26.8975   22.2210 C   0  0  0  0  0  0  0  0  0  0  0  0
  -24.6452  -20.6001   20.3386 C   0  0  0  0  0  0  0  0  0  0  0  0
  -33.9895  -27.6272   23.9442 C   0  0  0  0  0  0  0  0  0  0  0  0
  -28.7605  -26.9055   20.4916 C   0  0  0  0  0  0  0  0  0  0  0  0
  -18.5184  -26.7609   22.9399 C   0  0  0  0  0  0  0  0  0  0  0  0
  -26.8386  -27.2361   18.8470 C   0  0  0  0  0  0  0  0  0  0  0  0
  -24.1126  -12.1911   20.3056 C   0  0  0  0  0  0  0  0  0  0  0  0
  -24.9526  -18.6428   18.9478 C   0  0  0  0  0  0  0  0  0  0  0  0
  -24.0463  -13.5481   20.6752 C   0  0  0  0  0  0  0  0  0  0  0  0
  -25.4593  -19.5486   19.8906 C   0  0  0  0  0  0  0  0  0  0  0  0
  -19.8380  -27.1916   22.8029 C   0  0  0  0  0  0  0  0  0  0  0  0
  -20.1085  -28.5274   22.5060 C   0  0  0  0  0  0  0  0  0  0  0  0
  -31.1384  -25.7369   21.3647 C   0  0  0  0  0  0  0  0  0  0  0  0
  -23.3497  -20.7559   19.8462 C   0  0  0  0  0  0  0  0  0  0  0  0
  -33.2754  -26.0018   22.3056 C   0  0  0  0  0  0  0  0  0  0  0  0
  -35.2463  -27.6825   23.3416 C   0  0  0  0  0  0  0  0  0  0  0  0
  -19.0593  -29.4326   22.3461 C   0  0  0  0  0  0  0  0  0  0  0  0
  -33.0041  -26.7868   23.4262 C   0  0  0  0  0  0  0  0  0  0  0  0
  -27.5319  -27.5089   20.0414 C   0  0  0  0  0  0  0  0  0  0  0  0
  -25.7431  -28.0634   18.8892 C   0  0  0  0  0  0  0  0  0  0  0  0
  -18.2066  -25.3522   23.2543 C   0  0  0  0  0  0  0  0  0  0  0  0
  -27.1565  -26.3170   17.7934 C   0  0  0  0  0  0  0  0  0  0  0  0
  -26.4449  -16.3569   20.5762 C   0  0  0  0  0  0  0  0  0  0  0  0
  -29.0446  -18.2276   20.0620 C   0  0  0  0  0  0  0  0  0  0  0  0
  -30.2937  -21.3346   19.4037 C   0  0  0  0  0  0  0  0  0  0  0  0
  -21.9343  -30.2583   22.6357 C   0  0  0  0  0  0  0  0  0  0  0  0
  -25.3584  -11.3695   20.5237 C   0  0  0  0  0  0  0  0  0  0  0  0
  -25.8111  -17.5208   18.4315 C   0  0  0  0  0  0  0  0  0  0  0  0
  -26.8542  -19.4198   20.4441 C   0  0  0  0  0  0  0  0  0  0  0  0
  -26.6120  -12.2115   20.7469 C   0  0  0  0  0  0  0  0  0  0  0  0
  -24.6042  -32.2164   21.3263 C   0  0  0  0  0  0  0  0  0  0  0  0
  -26.3350  -13.3256   21.7513 C   0  0  0  0  0  0  0  0  0  0  0  0
  -25.5646  -31.1767   20.7441 C   0  0  0  0  0  0  0  0  0  0  0  0
  -23.9431  -31.7209   22.6112 C   0  0  0  0  0  0  0  0  0  0  0  0
  -24.2422  -29.3744   21.9230 C   0  0  0  0  0  0  0  0  0  0  0  0
  -25.2489  -14.2768   21.2345 C   0  0  1  0  0  0  0  0  0  0  0  0
  -26.9347  -17.1384   19.3900 C   0  0  1  0  0  0  0  0  0  0  0  0
  -24.8834  -29.8025   20.5929 C   0  0  2  0  0  0  0  0  0  0  0  0
  -20.9610  -26.2172   22.9758 C   0  0  0  0  0  0  0  0  0  0  0  0
  -32.4602  -22.5583   19.0777 C   0  0  0  0  0  0  0  0  0  0  0  0
  -29.5326  -18.1610   23.0732 C   0  0  0  0  0  0  0  0  0  0  0  0
  -31.0768  -20.1121   22.7957 C   0  0  0  0  0  0  0  0  0  0  0  0
  -31.5960  -17.9438   21.6769 C   0  0  0  0  0  0  0  0  0  0  0  0
  -29.5694  -22.1184   16.6433 C   0  0  0  0  0  0  0  0  0  0  0  0
  -19.0133  -22.1823   21.4779 C   0  0  0  0  0  0  0  0  0  0  0  0
  -20.5249  -22.3991   21.4109 C   0  0  0  0  0  0  0  0  0  0  0  0
  -18.3639  -22.9758   22.6027 C   0  0  0  0  0  0  0  0  0  0  0  0
  -21.1614  -21.5658   20.3058 C   0  0  0  0  0  0  0  0  0  1  0  0
  -29.7023  -19.3698   20.7981 C   0  0  1  0  0  0  0  0  0  0  0  0
  -31.3228  -21.8138   18.3959 C   0  0  2  0  0  0  0  0  0  0  0  0
  -30.4499  -18.8983   22.0772 C   0  0  0  0  0  0  0  0  0  0  0  0
  -26.9276  -28.4370   20.7879 N   0  0  0  0  0  0  0  0  0  0  0  0
  -25.8430  -28.7547   20.0606 N   0  0  0  0  0  0  0  0  0  0  0  0
  -27.6525  -18.3028   19.9127 N   0  0  0  0  0  0  0  0  0  0  0  0
  -23.3148  -30.4164   22.3910 N   0  0  0  0  0  0  0  0  0  0  0  0
  -24.7137  -28.2597   18.0383 N   0  0  0  0  0  0  0  0  0  0  0  0
  -17.5332  -25.0930   24.3751 N   0  0  0  0  0  0  0  0  0  0  0  0
  -28.3196  -25.5437   17.9097 N   0  0  0  0  0  0  0  0  0  0  0  0
  -21.4422  -28.9830   22.3598 N   0  0  0  0  0  0  0  0  0  0  0  0
  -25.7975  -15.1814   20.2470 N   0  0  0  0  0  0  0  0  0  0  0  0
  -30.5521  -20.0473   19.8248 N   0  0  0  0  0  0  0  0  0  0  0  0
  -18.6157  -24.4033   22.4023 N   0  3  0  0  0  0  0  0  0  0  0  0
  -30.6899  -22.7287   17.4043 N   0  3  0  0  0  0  0  0  0  0  0  0
  -26.4393  -26.1972   16.7713 O   0  0  0  0  0  0  0  0  0  0  0  0
  -26.6413  -16.7877   21.7064 O   0  0  0  0  0  0  0  0  0  0  0  0
  -29.7412  -17.3063   19.6289 O   0  0  0  0  0  0  0  0  0  0  0  0
  -29.3566  -22.0338   19.7826 O   0  0  0  0  0  0  0  0  0  0  0  0
  -21.2344  -31.1933   23.0329 O   0  0  0  0  0  0  0  0  0  0  0  0
  -32.2984  -25.1664   21.7907 O   0  0  0  0  0  0  0  0  0  0  0  0
  -22.5719  -21.7812   20.2884 O   0  0  0  0  0  0  0  0  0  1  0  0
  -36.1932  -28.4884   23.8398 F   0  0  0  0  0  0  0  0  0  0  0  0
  -19.3061  -30.7187   22.0585 F   0  0  0  0  0  0  0  0  0  0  0  0
  -31.7990  -26.7371   24.0101 F   0  0  0  0  0  0  0  0  0  0  0  0
  1  2  1  0  0  0  0
  1  6  2  0  0  0  0
  2  7  2  0  0  0  0
  3  9  2  0  0  0  0
  3 17  1  0  0  0  0
  4 10  1  0  0  0  0
  4 17  2  0  0  0  0
  5 13  2  0  0  0  0
  5 18  1  0  0  0  0
  6 20  1  0  0  0  0
  7 22  1  0  0  0  0
  8 11  2  0  0  0  0
  8 21  1  0  0  0  0
  9 26  1  0  0  0  0
 10 26  2  0  0  0  0
 11 27  1  0  0  0  0
 12 14  2  0  0  0  0
 12 28  1  0  0  0  0
 13 30  1  0  0  0  0
 14 29  1  0  0  0  0
 15 23  1  0  0  0  0
 15 27  2  0  0  0  0
 16 29  2  0  0  0  0
 16 31  1  0  0  0  0
 17 32  1  0  0  0  0
 18 24  2  0  0  0  0
 18 34  1  0  0  0  0
 19 32  1  0  0  0  0
 19 33  2  0  0  0  0
 19 35  1  0  0  0  0
 20 22  2  0  0  0  0
 20 40  1  0  0  0  0
 21 23  2  0  0  0  0
 21 41  1  0  0  0  0
 22 49  1  0  0  0  0
 23 42  1  0  0  0  0
 24 25  1  0  0  0  0
 24 52  1  0  0  0  0
 25 30  2  0  0  0  0
 25 72  1  0  0  0  0
 26 82  1  0  0  0  0
 27 83  1  0  0  0  0
 28 31  2  0  0  0  0
 28 82  1  0  0  0  0
 29 84  1  0  0  0  0
 30 85  1  0  0  0  0
 31 86  1  0  0  0  0
 32 65  2  0  0  0  0
 33 66  1  0  0  0  0
 33 69  1  0  0  0  0
 34 70  1  0  0  0  0
 34 75  2  0  0  0  0
 35 71  1  0  0  0  0
 35 77  2  0  0  0  0
 36 50  1  0  0  0  0
 36 73  1  0  0  0  0
 36 78  2  0  0  0  0
 37 62  1  0  0  0  0
 37 67  1  0  0  0  0
 37 79  2  0  0  0  0
 38 63  1  0  0  0  0
 38 74  1  0  0  0  0
 38 80  2  0  0  0  0
 39 68  1  0  0  0  0
 39 72  1  0  0  0  0
 39 81  2  0  0  0  0
 40 43  1  0  0  0  0
 41 50  1  0  0  0  0
 42 67  1  0  0  0  0
 43 45  1  0  0  0  0
 44 46  1  0  0  0  0
 44 47  1  0  0  0  0
 45 49  1  0  0  0  0
 46 51  1  0  0  0  0
 47 68  1  0  0  0  0
 48 51  1  0  0  0  0
 48 68  1  0  0  0  0
 49 73  1  0  0  0  0
 50 67  1  0  0  0  0
 51 66  1  0  0  0  0
 53 63  1  0  0  0  0
 54 64  1  0  0  0  0
 55 64  1  0  0  0  0
 56 64  1  0  0  0  0
 57 76  1  0  0  0  0
 58 59  1  0  0  0  0
 58 60  1  0  0  0  0
 59 61  1  0  0  0  0
 60 75  1  0  0  0  0
 61 83  1  0  0  0  0
 62 64  1  0  0  0  0
 62 74  1  0  0  0  0
 63 76  1  0  0  0  0
 65 66  1  0  0  0  0
M  CHG  2  75   1  76   1
M  ISO  4  39 100  61 101  72 100  83 101
M  END
> <Batch ID>
0041

> <Smiles>
CNC(C)C(=O)NC(C(=O)N1Cc2cc([101O:1][101CH2:1]CCCNC(=N)c3ccc(F)c([100NH:0][100C:0](=O)N4CCCC(n5nc(-c6ccc(Oc7ccc(F)cc7F)cc6)c(C(N)=O)c5N)C4)c3C)ccc2CC1C(=O)NC1CCCc2ccccc21)C(C)(C)C

> <Shape>
0.257

> <Color>
0.097

> <Negative vol penalty>
0.000

$$$$

  -OEChem-04042322093D

 87 96  0     1  0  0  0  0  0999 V2000
  -18.2609  -33.1379   23.6722 C   0  0  0  0  0  0  0  0  0  0  0  0
  -19.5492  -33.2901   23.1697 C   0  0  0  0  0  0  0  0  0  0  0  0
  -23.4616  -12.1731   20.2408 C   0  0  0  0  0  0  0  0  0  0  0  0
  -25.7736  -12.1917   20.9417 C   0  0  0  0  0  0  0  0  0  0  0  0
  -17.8724  -31.9227   24.2346 C   0  0  0  0  0  0  0  0  0  0  0  0
  -20.4502  -32.2276   23.2305 C   0  0  0  0  0  0  0  0  0  0  0  0
  -25.9177  -29.3308   19.6205 C   0  0  0  0  0  0  0  0  0  0  0  0
  -23.5055  -10.7831   20.1329 C   0  0  0  0  0  0  0  0  0  0  0  0
  -25.8175  -10.8017   20.8339 C   0  0  0  0  0  0  0  0  0  0  0  0
  -27.2327  -28.9095   19.8129 C   0  0  0  0  0  0  0  0  0  0  0  0
  -23.3657   -8.1179   22.2088 C   0  0  0  0  0  0  0  0  0  0  0  0
  -22.2994   -7.3925   22.7402 C   0  0  0  0  0  0  0  0  0  0  0  0
  -26.4258  -26.8316   20.7350 C   0  0  0  0  0  0  0  0  0  0  0  0
  -29.0103  -22.0877   22.5541 C   0  0  0  0  0  0  0  0  0  0  0  0
  -21.8360   -6.4728   20.5547 C   0  0  0  0  0  0  0  0  0  0  0  0
  -27.7717  -22.2175   25.0504 C   0  0  0  0  0  0  0  0  0  0  0  0
  -24.5957  -12.8774   20.6452 C   0  0  0  0  0  0  0  0  0  0  0  0
  -23.7075  -15.0760   21.5859 C   0  0  0  0  0  0  0  0  0  0  0  0
  -18.7660  -30.8416   24.2935 C   0  0  0  0  0  0  0  0  0  0  0  0
  -24.8450  -28.5087   19.9946 C   0  0  0  0  0  0  0  0  0  0  0  0
  -20.0737  -30.9973   23.7954 C   0  0  0  0  0  0  0  0  0  0  0  0
  -25.0981  -27.2437   20.5439 C   0  0  0  0  0  0  0  0  0  0  0  0
  -29.5264  -22.9214   23.5462 C   0  0  0  0  0  0  0  0  0  0  0  0
  -27.8748  -21.3190   22.8101 C   0  0  0  0  0  0  0  0  0  0  0  0
  -24.6834  -10.0974   20.4294 C   0  0  0  0  0  0  0  0  0  0  0  0
  -27.4869  -27.6610   20.3729 C   0  0  0  0  0  0  0  0  0  0  0  0
  -23.6671   -8.0208   20.8504 C   0  0  0  0  0  0  0  0  0  0  0  0
  -21.5346   -6.5699   21.9132 C   0  0  0  0  0  0  0  0  0  0  0  0
  -22.9023   -7.1983   20.0233 C   0  0  0  0  0  0  0  0  0  0  0  0
  -28.9071  -22.9863   24.7943 C   0  0  0  0  0  0  0  0  0  0  0  0
  -27.2555  -21.3839   24.0583 C   0  0  0  0  0  0  0  0  0  0  0  0
  -24.5512  -14.3133   20.7563 C   0  0  0  0  0  0  0  0  0  0  0  0
  -24.0540  -16.3788   21.3233 C   0  0  0  0  0  0  0  0  0  0  0  0
  -29.5230  -25.4783   21.9961 C   0  0  0  0  0  0  0  0  0  0  0  0
  -22.7005  -14.6453   22.5112 C   0  0  0  0  0  0  0  0  0  0  0  0
  -22.4471  -28.7542   22.0667 C   0  0  0  0  0  0  0  0  0  0  0  0
  -21.4943  -25.9718   20.6981 C   0  0  0  0  0  0  0  0  0  0  0  0
  -23.0567  -22.9214   19.5705 C   0  0  0  0  0  0  0  0  0  0  0  0
  -27.8934  -20.3256   20.4951 C   0  0  0  0  0  0  0  0  0  0  0  0
  -18.3155  -29.5626   24.9536 C   0  0  0  0  0  0  0  0  0  0  0  0
  -23.4323  -28.9667   19.7558 C   0  0  0  0  0  0  0  0  0  0  0  0
  -23.9818  -26.3149   20.9437 C   0  0  0  0  0  0  0  0  0  0  0  0
  -19.2116  -28.3671   24.6403 C   0  0  0  0  0  0  0  0  0  0  0  0
  -30.7781  -27.5327   23.6670 C   0  0  0  0  0  0  0  0  0  0  0  0
  -26.9758  -18.3408   17.6851 C   0  0  0  0  0  0  0  0  0  0  0  0
  -20.6809  -28.7453   24.7984 C   0  0  0  0  0  0  0  0  0  0  0  0
  -30.2989  -27.8844   22.2741 C   0  0  0  0  0  0  0  0  0  0  0  0
  -26.1938  -17.1788   18.3019 C   0  0  0  0  0  0  0  0  0  0  0  0
  -31.2889  -26.1031   23.6853 C   0  0  0  0  0  0  0  0  0  0  0  0
  -28.1428  -18.7727   18.5713 C   0  0  0  0  0  0  0  0  0  0  0  0
  -27.0045  -17.9134   20.5800 C   0  0  0  0  0  0  0  0  0  0  0  0
  -21.0719  -29.8601   23.8207 C   0  0  1  0  0  0  0  0  0  0  0  0
  -29.1635  -26.9551   21.8928 C   0  0  1  0  0  0  0  0  0  1  0  0
  -22.4163  -28.2602   20.6480 C   0  0  1  0  0  0  0  0  0  0  0  0
  -25.7800  -17.4860   19.7545 C   0  0  2  0  0  0  0  0  0  0  0  0
  -22.3555  -21.2870   17.8001 C   0  0  0  0  0  0  0  0  0  0  0  0
  -20.1799  -24.4752   23.0095 C   0  0  0  0  0  0  0  0  0  0  0  0
  -20.8884  -22.3295   21.9315 C   0  0  0  0  0  0  0  0  0  0  0  0
  -19.3174  -23.8606   20.7440 C   0  0  0  0  0  0  0  0  0  0  0  0
  -25.6461  -23.1632   18.1579 C   0  0  0  0  0  0  0  0  0  0  0  0
  -30.7493  -23.7330   23.2300 C   0  0  0  0  0  0  0  0  0  0  0  0
  -21.7517  -24.5077   20.9615 C   0  0  1  0  0  0  0  0  0  0  0  0
  -23.2452  -22.4749   18.1319 C   0  0  2  0  0  0  0  0  0  0  0  0
  -20.5536  -23.8132   21.6682 C   0  0  0  0  0  0  0  0  0  0  0  0
  -25.3719  -15.0687   20.0215 N   0  0  0  0  0  0  0  0  0  0  0  0
  -25.0454  -16.3196   20.3885 N   0  0  0  0  0  0  0  0  0  0  0  0
  -30.4286  -25.1357   23.0019 N   0  0  0  0  0  0  0  0  0  0  0  0
  -22.6178  -26.8106   20.6961 N   0  0  0  0  0  0  0  0  0  0  0  0
  -27.6748  -19.0510   19.9308 N   0  0  0  0  0  0  0  0  0  0  0  0
  -23.6044  -17.5578   21.8030 N   0  0  0  0  0  0  0  0  0  0  0  0
  -22.4729  -13.2702   22.6587 N   0  0  0  0  0  0  0  0  0  0  0  0
  -27.3755  -20.4836   21.7802 N   0  0  0  0  0  0  0  0  0  0  0  0
  -21.2608  -29.3223   22.4905 N   0  0  0  0  0  0  0  0  0  0  0  0
  -22.1103  -23.9186   19.6759 N   0  0  0  0  0  0  0  0  0  0  0  0
  -24.6627  -22.0816   17.8931 N   0  3  0  0  0  0  0  0  0  0  0  0
  -28.9713  -24.6584   21.2576 O   0  0  0  0  0  0  0  0  0  0  0  0
  -22.0114  -15.4563   23.1751 O   0  0  0  0  0  0  0  0  0  0  0  0
  -23.4707  -28.6278   22.7283 O   0  0  0  0  0  0  0  0  0  0  0  0
  -20.3399  -26.3558   20.4945 O   0  0  0  0  0  0  0  0  0  0  0  0
  -23.6835  -22.4318   20.5075 O   0  0  0  0  0  0  0  0  0  0  0  0
  -28.4716  -21.2203   19.8729 O   0  0  0  0  0  0  0  0  0  0  0  0
  -24.7265   -8.7411   20.3245 O   0  0  0  0  0  0  0  0  0  0  0  0
  -28.7695  -27.2476   20.5624 O   0  0  0  0  0  0  0  0  0  1  0  0
  -20.5116   -5.8721   22.4239 F   0  0  0  0  0  0  0  0  0  0  0  0
  -23.1877   -7.1001   18.7177 F   0  0  0  0  0  0  0  0  0  0  0  0
  -29.5180  -24.0062   26.0456 Cl  0  0  0  0  0  0  0  0  0  0  0  0
  -25.8478  -20.4484   24.4171 Cl  0  0  0  0  0  0  0  0  0  0  0  0
  1  2  1  0  0  0  0
  1  5  2  0  0  0  0
  2  6  2  0  0  0  0
  3  8  2  0  0  0  0
  3 17  1  0  0  0  0
  4  9  1  0  0  0  0
  4 17  2  0  0  0  0
  5 19  1  0  0  0  0
  6 21  1  0  0  0  0
  7 10  2  0  0  0  0
  7 20  1  0  0  0  0
  8 25  1  0  0  0  0
  9 25  2  0  0  0  0
 10 26  1  0  0  0  0
 11 12  2  0  0  0  0
 11 27  1  0  0  0  0
 12 28  1  0  0  0  0
 13 22  1  0  0  0  0
 13 26  2  0  0  0  0
 14 23  1  0  0  0  0
 14 24  2  0  0  0  0
 15 28  2  0  0  0  0
 15 29  1  0  0  0  0
 16 30  1  0  0  0  0
 16 31  2  0  0  0  0
 17 32  1  0  0  0  0
 18 32  1  0  0  0  0
 18 33  2  0  0  0  0
 18 35  1  0  0  0  0
 19 21  2  0  0  0  0
 19 40  1  0  0  0  0
 20 22  2  0  0  0  0
 20 41  1  0  0  0  0
 21 52  1  0  0  0  0
 22 42  1  0  0  0  0
 23 30  2  0  0  0  0
 23 61  1  0  0  0  0
 24 31  1  0  0  0  0
 24 72  1  0  0  0  0
 25 82  1  0  0  0  0
 26 83  1  0  0  0  0
 27 29  2  0  0  0  0
 27 82  1  0  0  0  0
 28 84  1  0  0  0  0
 29 85  1  0  0  0  0
 30 86  1  0  0  0  0
 31 87  1  0  0  0  0
 32 65  2  0  0  0  0
 33 66  1  0  0  0  0
 33 70  1  0  0  0  0
 34 53  1  0  0  0  0
 34 67  1  0  0  0  0
 34 76  2  0  0  0  0
 35 71  1  0  0  0  0
 35 77  2  0  0  0  0
 36 54  1  0  0  0  0
 36 73  1  0  0  0  0
 36 78  2  0  0  0  0
 37 62  1  0  0  0  0
 37 68  1  0  0  0  0
 37 79  2  0  0  0  0
 38 63  1  0  0  0  0
 38 74  1  0  0  0  0
 38 80  2  0  0  0  0
 39 69  1  0  0  0  0
 39 72  1  0  0  0  0
 39 81  2  0  0  0  0
 40 43  1  0  0  0  0
 41 54  1  0  0  0  0
 42 68  1  0  0  0  0
 43 46  1  0  0  0  0
 44 47  1  0  0  0  0
 44 49  1  0  0  0  0
 45 48  1  0  0  0  0
 45 50  1  0  0  0  0
 46 52  1  0  0  0  0
 47 53  1  0  0  0  0
 48 55  1  0  0  0  0
 49 67  1  0  0  0  0
 50 69  1  0  0  0  0
 51 55  1  0  0  0  0
 51 69  1  0  0  0  0
 52 73  1  0  0  0  0
 53 83  1  0  0  0  0
 54 68  1  0  0  0  0
 55 66  1  0  0  0  0
 56 63  1  0  0  0  0
 57 64  1  0  0  0  0
 58 64  1  0  0  0  0
 59 64  1  0  0  0  0
 60 75  1  0  0  0  0
 61 67  1  0  0  0  0
 62 64  1  0  0  0  0
 62 74  1  0  0  0  0
 63 75  1  0  0  0  0
 65 66  1  0  0  0  0
M  CHG  1  75   1
M  ISO  4  39 100  53 101  72 100  83 101
M  END
> <Batch ID>
0041

> <Smiles>
CNC(C)C(=O)NC(C(=O)N1Cc2cc([101O:1][101CH:1]3CCCN(Cc4cc([100NH:0][100C:0](=O)N5CCCC(n6nc(-c7ccc(Oc8ccc(F)cc8F)cc7)c(C(N)=O)c6N)C5)c(Cl)cc4Cl)C3=O)ccc2CC1C(=O)NC1CCCc2ccccc21)C(C)(C)C

> <Shape>
0.214

> <Color>
0.095

> <Negative vol penalty>
0.000

$$$$

  -OEChem-04042322093D

 83 91  0     1  0  0  0  0  0999 V2000
  -24.6227  -34.3753   13.9085 C   0  0  0  0  0  0  0  0  0  0  0  0
  -25.0740  -33.1242   14.3167 C   0  0  0  0  0  0  0  0  0  0  0  0
  -22.3772  -12.8787   22.5762 C   0  0  0  0  0  0  0  0  0  0  0  0
  -21.9572  -13.8269   20.3941 C   0  0  0  0  0  0  0  0  0  0  0  0
  -24.6839  -35.4574   14.7854 C   0  0  0  0  0  0  0  0  0  0  0  0
  -25.5878  -32.9549   15.6019 C   0  0  0  0  0  0  0  0  0  0  0  0
  -25.0602  -27.9936   19.1534 C   0  0  0  0  0  0  0  0  0  0  0  0
  -28.2337  -20.6104   15.9853 C   0  0  0  0  0  0  0  0  0  0  0  0
  -27.4768  -19.4721   15.7082 C   0  0  0  0  0  0  0  0  0  0  0  0
  -21.0487  -13.1101   22.9325 C   0  0  0  0  0  0  0  0  0  0  0  0
  -20.6286  -14.0582   20.7504 C   0  0  0  0  0  0  0  0  0  0  0  0
  -25.9234  -26.9302   19.4136 C   0  0  0  0  0  0  0  0  0  0  0  0
  -18.0375  -11.6707   22.3907 C   0  0  0  0  0  0  0  0  0  0  0  0
  -17.3528  -10.6447   23.0419 C   0  0  0  0  0  0  0  0  0  0  0  0
  -26.6939  -28.0509   21.4060 C   0  0  0  0  0  0  0  0  0  0  0  0
  -29.1073  -19.5462   17.9706 C   0  0  0  0  0  0  0  0  0  0  0  0
  -16.9902  -12.0924   24.9418 C   0  0  0  0  0  0  0  0  0  0  0  0
  -22.8315  -13.2371   21.3070 C   0  0  0  0  0  0  0  0  0  0  0  0
  -24.7335  -11.8430   20.3340 C   0  0  0  0  0  0  0  0  0  0  0  0
  -25.1898  -35.2991   16.0853 C   0  0  0  0  0  0  0  0  0  0  0  0
  -25.0151  -29.1005   20.0132 C   0  0  0  0  0  0  0  0  0  0  0  0
  -25.6570  -34.0362   16.4966 C   0  0  0  0  0  0  0  0  0  0  0  0
  -25.8274  -29.1259   21.1559 C   0  0  0  0  0  0  0  0  0  0  0  0
  -29.0490  -20.6475   17.1165 C   0  0  0  0  0  0  0  0  0  0  0  0
  -27.5351  -18.3708   16.5622 C   0  0  0  0  0  0  0  0  0  0  0  0
  -28.3504  -18.4078   17.6935 C   0  0  0  0  0  0  0  0  0  0  0  0
  -20.1744  -13.6998   22.0197 C   0  0  0  0  0  0  0  0  0  0  0  0
  -26.7426  -26.9600   20.5384 C   0  0  0  0  0  0  0  0  0  0  0  0
  -18.1985  -12.9076   23.0151 C   0  0  0  0  0  0  0  0  0  0  0  0
  -16.8292  -10.8555   24.3175 C   0  0  0  0  0  0  0  0  0  0  0  0
  -17.6749  -13.1185   24.2906 C   0  0  0  0  0  0  0  0  0  0  0  0
  -24.2039  -12.9989   20.9385 C   0  0  0  0  0  0  0  0  0  0  0  0
  -26.0728  -12.1125   20.1924 C   0  0  0  0  0  0  0  0  0  0  0  0
  -24.0737  -10.6338   19.9361 C   0  0  0  0  0  0  0  0  0  0  0  0
  -25.6219  -32.2055   19.7060 C   0  0  0  0  0  0  0  0  0  0  0  0
  -24.4679  -32.3332   22.7349 C   0  0  0  0  0  0  0  0  0  0  0  0
  -23.8620  -30.7103   25.6753 C   0  0  0  0  0  0  0  0  0  0  0  0
  -29.1888  -17.1903   19.7333 C   0  0  0  0  0  0  0  0  0  0  0  0
  -25.2797  -36.5088   16.9816 C   0  0  0  0  0  0  0  0  0  0  0  0
  -24.0591  -30.2274   19.7330 C   0  0  0  0  0  0  0  0  0  0  0  0
  -25.8021  -30.2818   22.1212 C   0  0  0  0  0  0  0  0  0  0  0  0
  -25.4912  -36.1622   18.4531 C   0  0  0  0  0  0  0  0  0  0  0  0
  -29.6144  -14.6452   22.1865 C   0  0  0  0  0  0  0  0  0  0  0  0
  -26.5854  -35.1098   18.6018 C   0  0  0  0  0  0  0  0  0  0  0  0
  -28.3261  -13.8253   22.0857 C   0  0  0  0  0  0  0  0  0  0  0  0
  -29.3557  -16.1362   21.9774 C   0  0  0  0  0  0  0  0  0  0  0  0
  -27.3395  -15.6536   20.6466 C   0  0  0  0  0  0  0  0  0  0  0  0
  -26.1981  -33.8072   17.8912 C   0  0  1  0  0  0  0  0  0  0  0  0
  -24.4681  -31.5376   20.3990 C   0  0  1  0  0  0  0  0  0  0  0  0
  -27.5592  -14.1384   20.7858 C   0  0  2  0  0  0  0  0  0  0  0  0
  -26.7127  -17.1651   16.2409 C   0  0  0  0  0  0  0  0  0  0  0  0
  -22.9448  -31.0869   27.9806 C   0  0  0  0  0  0  0  0  0  0  0  0
  -27.0417  -33.7708   23.5215 C   0  0  0  0  0  0  0  0  0  0  0  0
  -26.5059  -33.2726   25.9159 C   0  0  0  0  0  0  0  0  0  0  0  0
  -24.9675  -34.6988   24.5660 C   0  0  0  0  0  0  0  0  0  0  0  0
  -21.7113  -28.7178   25.2710 C   0  0  0  0  0  0  0  0  0  0  0  0
  -29.8630  -21.8723   17.4138 C   0  0  0  0  0  0  0  0  0  0  0  0
  -29.4646  -24.6468   20.0223 C   0  0  0  0  0  0  0  0  0  0  0  0
  -30.1195  -23.8712   18.8893 C   0  0  0  0  0  0  0  0  0  0  0  0
  -28.0906  -25.2037   19.6701 C   0  0  0  0  0  0  0  0  0  1  0  0
  -25.0697  -32.2133   24.1142 C   0  0  1  0  0  0  0  0  0  0  0  0
  -22.6284  -30.6520   26.5581 C   0  0  2  0  0  0  0  0  0  0  0  0
  -25.8983  -33.4678   24.5104 C   0  0  0  0  0  0  0  0  0  0  0  0
  -25.1312  -13.9330   21.1653 N   0  0  0  0  0  0  0  0  0  0  0  0
  -26.2570  -13.3645   20.7011 N   0  0  0  0  0  0  0  0  0  0  0  0
  -24.8552  -31.3624   21.8004 N   0  0  0  0  0  0  0  0  0  0  0  0
  -28.6296  -16.3567   20.7248 N   0  0  0  0  0  0  0  0  0  0  0  0
  -27.0992  -11.3982   19.6836 N   0  0  0  0  0  0  0  0  0  0  0  0
  -22.6937  -10.5228   20.1544 N   0  0  0  0  0  0  0  0  0  0  0  0
  -28.4237  -17.2990   18.5726 N   0  0  0  0  0  0  0  0  0  0  0  0
  -25.2476  -33.0606   18.6871 N   0  0  0  0  0  0  0  0  0  0  0  0
  -23.9632  -31.9182   25.0181 N   0  0  0  0  0  0  0  0  0  0  0  0
  -22.0869  -29.2642   26.6004 N   0  3  0  0  0  0  0  0  0  0  0  0
  -29.3048  -22.6876   18.5279 N   0  3  0  0  0  0  0  0  0  0  0  0
  -24.6925   -9.6736   19.4179 O   0  0  0  0  0  0  0  0  0  0  0  0
  -26.7670  -31.9642   20.0698 O   0  0  0  0  0  0  0  0  0  0  0  0
  -23.6776  -33.2502   22.4976 O   0  0  0  0  0  0  0  0  0  0  0  0
  -24.6584  -29.7789   25.5812 O   0  0  0  0  0  0  0  0  0  0  0  0
  -30.2801  -17.7438   19.8907 O   0  0  0  0  0  0  0  0  0  0  0  0
  -18.8778  -13.9255   22.3670 O   0  0  0  0  0  0  0  0  0  0  0  0
  -27.5866  -25.9237   20.7943 O   0  0  0  0  0  0  0  0  0  1  0  0
  -16.1704   -9.8706   24.9421 F   0  0  0  0  0  0  0  0  0  0  0  0
  -17.8254  -14.3050   24.8950 F   0  0  0  0  0  0  0  0  0  0  0  0
  1  2  1  0  0  0  0
  1  5  2  0  0  0  0
  2  6  2  0  0  0  0
  3 10  2  0  0  0  0
  3 18  1  0  0  0  0
  4 11  1  0  0  0  0
  4 18  2  0  0  0  0
  5 20  1  0  0  0  0
  6 22  1  0  0  0  0
  7 12  2  0  0  0  0
  7 21  1  0  0  0  0
  8  9  2  0  0  0  0
  8 24  1  0  0  0  0
  9 25  1  0  0  0  0
 10 27  1  0  0  0  0
 11 27  2  0  0  0  0
 12 28  1  0  0  0  0
 13 14  2  0  0  0  0
 13 29  1  0  0  0  0
 14 30  1  0  0  0  0
 15 23  1  0  0  0  0
 15 28  2  0  0  0  0
 16 24  2  0  0  0  0
 16 26  1  0  0  0  0
 17 30  2  0  0  0  0
 17 31  1  0  0  0  0
 18 32  1  0  0  0  0
 19 32  1  0  0  0  0
 19 33  2  0  0  0  0
 19 34  1  0  0  0  0
 20 22  2  0  0  0  0
 20 39  1  0  0  0  0
 21 23  2  0  0  0  0
 21 40  1  0  0  0  0
 22 48  1  0  0  0  0
 23 41  1  0  0  0  0
 24 57  1  0  0  0  0
 25 26  2  0  0  0  0
 25 51  1  0  0  0  0
 26 70  1  0  0  0  0
 27 80  1  0  0  0  0
 28 81  1  0  0  0  0
 29 31  2  0  0  0  0
 29 80  1  0  0  0  0
 30 82  1  0  0  0  0
 31 83  1  0  0  0  0
 32 64  2  0  0  0  0
 33 65  1  0  0  0  0
 33 68  1  0  0  0  0
 34 69  1  0  0  0  0
 34 75  2  0  0  0  0
 35 49  1  0  0  0  0
 35 71  1  0  0  0  0
 35 76  2  0  0  0  0
 36 61  1  0  0  0  0
 36 66  1  0  0  0  0
 36 77  2  0  0  0  0
 37 62  1  0  0  0  0
 37 72  1  0  0  0  0
 37 78  2  0  0  0  0
 38 67  1  0  0  0  0
 38 70  1  0  0  0  0
 38 79  2  0  0  0  0
 39 42  1  0  0  0  0
 40 49  1  0  0  0  0
 41 66  1  0  0  0  0
 42 44  1  0  0  0  0
 43 45  1  0  0  0  0
 43 46  1  0  0  0  0
 44 48  1  0  0  0  0
 45 50  1  0  0  0  0
 46 67  1  0  0  0  0
 47 50  1  0  0  0  0
 47 67  1  0  0  0  0
 48 71  1  0  0  0  0
 49 66  1  0  0  0  0
 50 65  1  0  0  0  0
 52 62  1  0  0  0  0
 53 63  1  0  0  0  0
 54 63  1  0  0  0  0
 55 63  1  0  0  0  0
 56 73  1  0  0  0  0
 57 74  1  0  0  0  0
 58 59  1  0  0  0  0
 58 60  1  0  0  0  0
 59 74  1  0  0  0  0
 60 81  1  0  0  0  0
 61 63  1  0  0  0  0
 61 72  1  0  0  0  0
 62 73  1  0  0  0  0
 64 65  1  0  0  0  0
M  CHG  2  73   1  74   1
M  ISO  4  38 100  60 101  70 100  81 101
M  END
> <Batch ID>
0041

> <Smiles>
CNC(C)C(=O)NC(C(=O)N1Cc2cc([101O:1][101CH2:1]CCNCc3ccc(C)c([100NH:0][100C:0](=O)N4CCCC(n5nc(-c6ccc(Oc7ccc(F)cc7F)cc6)c(C(N)=O)c5N)C4)c3)ccc2CC1C(=O)NC1CCCc2ccccc21)C(C)(C)C

> <Shape>
0.235

> <Color>
0.080

> <Negative vol penalty>
0.000

$$$$

  -OEChem-04042322093D

 88 97  0     1  0  0  0  0  0999 V2000
  -16.5317  -29.1879   23.2310 C   0  0  0  0  0  0  0  0  0  0  0  0
  -17.4314  -29.5279   22.2257 C   0  0  0  0  0  0  0  0  0  0  0  0
  -27.2961  -13.2216   19.6946 C   0  0  0  0  0  0  0  0  0  0  0  0
  -26.2358  -13.3565   21.8614 C   0  0  0  0  0  0  0  0  0  0  0  0
  -17.0014  -28.8398   24.4967 C   0  0  0  0  0  0  0  0  0  0  0  0
  -18.8013  -29.5210   22.4860 C   0  0  0  0  0  0  0  0  0  0  0  0
  -25.0834  -28.2243   19.2971 C   0  0  0  0  0  0  0  0  0  0  0  0
  -28.2576  -25.2513   17.7401 C   0  0  0  0  0  0  0  0  0  0  0  0
  -27.5388  -24.1687   18.2471 C   0  0  0  0  0  0  0  0  0  0  0  0
  -26.8687  -11.8999   19.5677 C   0  0  0  0  0  0  0  0  0  0  0  0
  -25.8083  -12.0348   21.7345 C   0  0  0  0  0  0  0  0  0  0  0  0
  -26.3268  -28.8184   19.0854 C   0  0  0  0  0  0  0  0  0  0  0  0
  -23.3475  -10.3570   20.1377 C   0  0  0  0  0  0  0  0  0  0  0  0
  -22.0273  -10.0684   20.4834 C   0  0  0  0  0  0  0  0  0  0  0  0
  -27.0269  -28.1236   21.2868 C   0  0  0  0  0  0  0  0  0  0  0  0
  -30.3259  -24.0773   18.1653 C   0  0  0  0  0  0  0  0  0  0  0  0
  -22.8066   -8.5235   22.1696 C   0  0  0  0  0  0  0  0  0  0  0  0
  -26.9797  -13.9499   20.8415 C   0  0  0  0  0  0  0  0  0  0  0  0
  -28.7491  -15.7831   20.9690 C   0  0  0  0  0  0  0  0  0  0  0  0
  -18.3782  -28.8193   24.7699 C   0  0  0  0  0  0  0  0  0  0  0  0
  -24.7982  -27.5837   20.5115 C   0  0  0  0  0  0  0  0  0  0  0  0
  -19.2897  -29.1736   23.7570 C   0  0  0  0  0  0  0  0  0  0  0  0
  -25.7801  -27.5199   21.5105 C   0  0  0  0  0  0  0  0  0  0  0  0
  -29.6511  -25.2056   17.6992 C   0  0  0  0  0  0  0  0  0  0  0  0
  -29.6071  -22.9947   18.6724 C   0  0  0  0  0  0  0  0  0  0  0  0
  -28.2136  -23.0404   18.7132 C   0  0  0  0  0  0  0  0  0  0  0  0
  -26.1248  -11.3066   20.5876 C   0  0  0  0  0  0  0  0  0  0  0  0
  -27.2977  -28.7707   20.0814 C   0  0  0  0  0  0  0  0  0  0  0  0
  -24.3972   -9.7288   20.8079 C   0  0  0  0  0  0  0  0  0  0  0  0
  -21.7569   -9.1517   21.4993 C   0  0  0  0  0  0  0  0  0  0  0  0
  -24.1268   -8.8121   21.8238 C   0  0  0  0  0  0  0  0  0  0  0  0
  -27.4214  -15.3150   20.9734 C   0  0  0  0  0  0  0  0  0  0  0  0
  -28.6342  -17.1430   21.1237 C   0  0  0  0  0  0  0  0  0  0  0  0
  -31.8419  -28.2744   17.6496 C   0  0  0  0  0  0  0  0  0  0  0  0
  -35.2114  -26.8603   18.0131 C   0  0  0  0  0  0  0  0  0  0  0  0
  -33.1770  -28.1516   17.6000 C   0  0  0  0  0  0  0  0  0  0  0  0
  -33.8802  -26.9821   18.0629 C   0  0  0  0  0  0  0  0  0  0  0  0
  -29.9764  -15.0539   20.8368 C   0  0  0  0  0  0  0  0  0  0  0  0
  -22.6822  -28.0314   22.8408 C   0  0  0  0  0  0  0  0  0  0  0  0
  -23.9241  -25.2566   23.9724 C   0  0  0  0  0  0  0  0  0  0  0  0
  -27.1983  -23.7765   24.2983 C   0  0  0  0  0  0  0  0  0  0  0  0
  -26.2266  -22.0026   19.8625 C   0  0  0  0  0  0  0  0  0  0  0  0
  -18.8362  -28.4822   26.1668 C   0  0  0  0  0  0  0  0  0  0  0  0
  -23.4615  -26.9244   20.7140 C   0  0  0  0  0  0  0  0  0  0  0  0
  -25.5309  -26.8267   22.8242 C   0  0  0  0  0  0  0  0  0  0  0  0
  -31.1122  -29.4976   17.1651 C   0  0  0  0  0  0  0  0  0  0  0  0
  -20.3205  -28.1367   26.2545 C   0  0  0  0  0  0  0  0  0  0  0  0
  -30.1508  -30.0002   18.2353 C   0  0  0  0  0  0  0  0  0  0  0  0
  -24.6300  -19.9943   22.3313 C   0  0  0  0  0  0  0  0  0  0  0  0
  -21.1523  -29.1558   25.4822 C   0  0  0  0  0  0  0  0  0  0  0  0
  -25.3231  -18.6364   22.1977 C   0  0  0  0  0  0  0  0  0  0  0  0
  -24.4462  -20.6730   20.9751 C   0  0  0  0  0  0  0  0  0  0  0  0
  -26.3628  -19.4402   20.0390 C   0  0  0  0  0  0  0  0  0  0  0  0
  -30.1461  -27.7075   19.2881 C   0  0  0  0  0  0  0  0  0  0  0  0
  -20.7843  -29.1539   23.9936 C   0  0  1  0  0  0  0  0  0  0  0  0
  -23.1003  -26.7456   22.1854 C   0  0  1  0  0  0  0  0  0  0  0  0
  -26.6283  -18.7473   21.3855 C   0  0  2  0  0  0  0  0  0  0  0  0
  -29.2872  -28.8649   18.7849 C   0  0  1  0  0  0  0  0  0  1  0  0
  -30.3563  -21.8002   19.1677 C   0  0  0  0  0  0  0  0  0  0  0  0
  -27.9001  -21.3683   24.3733 C   0  0  0  0  0  0  0  0  0  0  0  0
  -23.7495  -25.6007   26.9991 C   0  0  0  0  0  0  0  0  0  0  0  0
  -25.7845  -24.1578   27.2107 C   0  0  0  0  0  0  0  0  0  0  0  0
  -23.6957  -23.2268   26.2143 C   0  0  0  0  0  0  0  0  0  0  0  0
  -29.0815  -24.1345   22.0434 C   0  0  0  0  0  0  0  0  0  0  0  0
  -30.4242  -26.3711   17.1560 C   0  0  0  0  0  0  0  0  0  0  0  0
  -25.0639  -24.8923   24.8929 C   0  0  1  0  0  0  0  0  0  0  0  0
  -27.7500  -22.6067   23.5034 C   0  0  2  0  0  0  0  0  0  0  0  0
  -24.5740  -24.4931   26.3135 C   0  0  0  0  0  0  0  0  0  0  0  0
  -26.5287  -16.2977   21.1195 N   0  0  0  0  0  0  0  0  0  0  0  0
  -27.2968  -17.3969   21.2084 N   0  0  0  0  0  0  0  0  0  0  0  0
  -24.2062  -26.2027   22.9769 N   0  0  0  0  0  0  0  0  0  0  0  0
  -25.7248  -20.7467   20.2646 N   0  0  0  0  0  0  0  0  0  0  0  0
  -29.5477  -18.1344   21.1942 N   0  0  0  0  0  0  0  0  0  0  0  0
  -30.6000  -14.5791   21.9987 N   0  0  0  0  0  0  0  0  0  0  0  0
  -27.4655  -21.9511   19.2245 N   0  0  0  0  0  0  0  0  0  0  0  0
  -21.3881  -28.0211   23.3252 N   0  0  0  0  0  0  0  0  0  0  0  0
  -25.8244  -23.8521   24.2088 N   0  0  0  0  0  0  0  0  0  0  0  0
  -31.0880  -27.1892   18.2289 N   0  3  1  0  0  0  0  0  0  0  0  0
  -29.0859  -22.9486   22.9382 N   0  3  0  0  0  0  0  0  0  0  0  0
  -30.5131  -14.8440   19.7226 O   0  0  0  0  0  0  0  0  0  0  0  0
  -23.4755  -28.9632   22.9038 O   0  0  0  0  0  0  0  0  0  0  0  0
  -22.8260  -24.7161   24.1265 O   0  0  0  0  0  0  0  0  0  0  0  0
  -27.9142  -24.5440   24.9377 O   0  0  0  0  0  0  0  0  0  0  0  0
  -25.6159  -23.0495   20.0932 O   0  0  0  0  0  0  0  0  0  0  0  0
  -25.7073  -10.0170   20.4640 O   0  0  0  0  0  0  0  0  0  0  0  0
  -28.5119  -29.3504   19.8776 O   0  0  0  0  0  0  0  0  0  1  0  0
  -20.4891   -8.8758   21.8323 F   0  0  0  0  0  0  0  0  0  0  0  0
  -25.1311   -8.2063   22.4720 F   0  0  0  0  0  0  0  0  0  0  0  0
  1  2  1  0  0  0  0
  1  5  2  0  0  0  0
  2  6  2  0  0  0  0
  3 10  2  0  0  0  0
  3 18  1  0  0  0  0
  4 11  1  0  0  0  0
  4 18  2  0  0  0  0
  5 20  1  0  0  0  0
  6 22  1  0  0  0  0
  7 12  2  0  0  0  0
  7 21  1  0  0  0  0
  8  9  2  0  0  0  0
  8 24  1  0  0  0  0
  9 26  1  0  0  0  0
 10 27  1  0  0  0  0
 11 27  2  0  0  0  0
 12 28  1  0  0  0  0
 13 14  2  0  0  0  0
 13 29  1  0  0  0  0
 14 30  1  0  0  0  0
 15 23  1  0  0  0  0
 15 28  2  0  0  0  0
 16 24  2  0  0  0  0
 16 25  1  0  0  0  0
 17 30  2  0  0  0  0
 17 31  1  0  0  0  0
 18 32  1  0  0  0  0
 19 32  1  0  0  0  0
 19 33  2  0  0  0  0
 19 38  1  0  0  0  0
 20 22  2  0  0  0  0
 20 43  1  0  0  0  0
 21 23  2  0  0  0  0
 21 44  1  0  0  0  0
 22 55  1  0  0  0  0
 23 45  1  0  0  0  0
 24 65  1  0  0  0  0
 25 26  2  0  0  0  0
 25 59  1  0  0  0  0
 26 75  1  0  0  0  0
 27 85  1  0  0  0  0
 28 86  1  0  0  0  0
 29 31  2  0  0  0  0
 29 85  1  0  0  0  0
 30 87  1  0  0  0  0
 31 88  1  0  0  0  0
 32 69  2  0  0  0  0
 33 70  1  0  0  0  0
 33 73  1  0  0  0  0
 34 36  2  0  0  0  0
 34 46  1  0  0  0  0
 34 78  1  0  0  0  0
 35 37  2  0  0  0  0
 36 37  1  0  0  0  0
 38 74  1  0  0  0  0
 38 80  2  0  0  0  0
 39 56  1  0  0  0  0
 39 76  1  0  0  0  0
 39 81  2  0  0  0  0
 40 66  1  0  0  0  0
 40 71  1  0  0  0  0
 40 82  2  0  0  0  0
 41 67  1  0  0  0  0
 41 77  1  0  0  0  0
 41 83  2  0  0  0  0
 42 72  1  0  0  0  0
 42 75  1  0  0  0  0
 42 84  2  0  0  0  0
 43 47  1  0  0  0  0
 44 56  1  0  0  0  0
 45 71  1  0  0  0  0
 46 48  1  0  0  0  0
 47 50  1  0  0  0  0
 48 58  1  0  0  0  0
 49 51  1  0  0  0  0
 49 52  1  0  0  0  0
 50 55  1  0  0  0  0
 51 57  1  0  0  0  0
 52 72  1  0  0  0  0
 53 57  1  0  0  0  0
 53 72  1  0  0  0  0
 54 58  1  0  0  0  0
 54 78  1  0  0  0  0
 55 76  1  0  0  0  0
 56 71  1  0  0  0  0
 57 70  1  0  0  0  0
 58 86  1  0  0  0  0
 60 67  1  0  0  0  0
 61 68  1  0  0  0  0
 62 68  1  0  0  0  0
 63 68  1  0  0  0  0
 64 79  1  0  0  0  0
 65 78  1  0  0  0  0
 66 68  1  0  0  0  0
 66 77  1  0  0  0  0
 67 79  1  0  0  0  0
 69 70  1  0  0  0  0
M  CHG  2  78   1  79   1
M  ISO  4  42 100  58 101  75 100  86 101
M  END
> <Batch ID>
0041

> <Smiles>
C=CC=C1CC[101CH:1]([101O:1]c2ccc3c(c2)CN(C(=O)C(NC(=O)C(C)NC)C(C)(C)C)C(C(=O)NC2CCCc4ccccc42)C3)CN1Cc1ccc([100NH:0][100C:0](=O)N2CCCC(n3nc(-c4ccc(Oc5ccc(F)cc5F)cc4)c(C(N)=O)c3N)C2)c(C)c1

> <Shape>
0.222

> <Color>
0.081

> <Negative vol penalty>
0.000

$$$$

  -OEChem-04042322093D

 84 92  0     1  0  0  0  0  0999 V2000
  -17.2618  -27.6108   21.9033 C   0  0  0  0  0  0  0  0  0  0  0  0
  -18.3010  -27.5386   20.9812 C   0  0  0  0  0  0  0  0  0  0  0  0
  -26.9147  -12.9253   20.9394 C   0  0  0  0  0  0  0  0  0  0  0  0
  -27.0093  -13.0270   18.5274 C   0  0  0  0  0  0  0  0  0  0  0  0
  -17.3761  -28.4417   23.0171 C   0  0  0  0  0  0  0  0  0  0  0  0
  -19.4548  -28.2982   21.1719 C   0  0  0  0  0  0  0  0  0  0  0  0
  -25.1877  -26.7148   19.7115 C   0  0  0  0  0  0  0  0  0  0  0  0
  -32.0775  -23.9847   17.7563 C   0  0  0  0  0  0  0  0  0  0  0  0
  -32.1995  -22.7350   17.1488 C   0  0  0  0  0  0  0  0  0  0  0  0
  -26.3432  -11.6552   20.8635 C   0  0  0  0  0  0  0  0  0  0  0  0
  -26.4378  -11.7569   18.4515 C   0  0  0  0  0  0  0  0  0  0  0  0
  -25.9961  -27.0224   18.6181 C   0  0  0  0  0  0  0  0  0  0  0  0
  -24.5279   -8.5342   21.2969 C   0  0  0  0  0  0  0  0  0  0  0  0
  -23.4328   -8.2640   22.1174 C   0  0  0  0  0  0  0  0  0  0  0  0
  -27.0055  -28.8159   19.8766 C   0  0  0  0  0  0  0  0  0  0  0  0
  -29.7788  -23.4902   18.3119 C   0  0  0  0  0  0  0  0  0  0  0  0
  -22.2010  -10.0552   21.0631 C   0  0  0  0  0  0  0  0  0  0  0  0
  -27.2477  -13.6113   19.7714 C   0  0  0  0  0  0  0  0  0  0  0  0
  -29.2084  -15.2369   19.9159 C   0  0  0  0  0  0  0  0  0  0  0  0
  -18.5358  -29.2044   23.2266 C   0  0  0  0  0  0  0  0  0  0  0  0
  -25.2745  -27.4636   20.8939 C   0  0  0  0  0  0  0  0  0  0  0  0
  -19.5842  -29.1410   22.2888 C   0  0  0  0  0  0  0  0  0  0  0  0
  -26.1989  -28.5141   20.9845 C   0  0  0  0  0  0  0  0  0  0  0  0
  -30.8672  -24.3623   18.3379 C   0  0  0  0  0  0  0  0  0  0  0  0
  -31.1111  -21.8629   17.1229 C   0  0  0  0  0  0  0  0  0  0  0  0
  -29.9008  -22.2405   17.7044 C   0  0  0  0  0  0  0  0  0  0  0  0
  -26.1048  -11.0710   19.6195 C   0  0  0  0  0  0  0  0  0  0  0  0
  -26.9031  -28.0749   18.6995 C   0  0  0  0  0  0  0  0  0  0  0  0
  -24.4596   -9.5650   20.3595 C   0  0  0  0  0  0  0  0  0  0  0  0
  -22.2693   -9.0245   22.0006 C   0  0  0  0  0  0  0  0  0  0  0  0
  -23.2961  -10.3254   20.2426 C   0  0  0  0  0  0  0  0  0  0  0  0
  -27.8375  -14.9236   19.8492 C   0  0  0  0  0  0  0  0  0  0  0  0
  -29.2446  -16.6087   19.9743 C   0  0  0  0  0  0  0  0  0  0  0  0
  -30.3471  -14.3658   19.9243 C   0  0  0  0  0  0  0  0  0  0  0  0
  -23.2673  -29.2982   22.5398 C   0  0  0  0  0  0  0  0  0  0  0  0
  -25.7051  -29.3742   24.6784 C   0  0  0  0  0  0  0  0  0  0  0  0
  -29.0527  -29.0686   25.2677 C   0  0  0  0  0  0  0  0  0  0  0  0
  -27.5194  -21.6057   18.2262 C   0  0  0  0  0  0  0  0  0  0  0  0
  -18.5941  -30.1240   24.4206 C   0  0  0  0  0  0  0  0  0  0  0  0
  -24.4143  -27.1021   22.0737 C   0  0  0  0  0  0  0  0  0  0  0  0
  -26.3453  -29.3357   22.2383 C   0  0  0  0  0  0  0  0  0  0  0  0
  -20.0037  -30.6115   24.7457 C   0  0  0  0  0  0  0  0  0  0  0  0
  -25.5322  -19.9744   20.6894 C   0  0  0  0  0  0  0  0  0  0  0  0
  -20.7123  -31.0795   23.4786 C   0  0  0  0  0  0  0  0  0  0  0  0
  -26.0676  -18.5407   20.6958 C   0  0  0  0  0  0  0  0  0  0  0  0
  -25.5228  -20.5700   19.2826 C   0  0  0  0  0  0  0  0  0  0  0  0
  -27.3397  -19.0638   18.5757 C   0  0  0  0  0  0  0  0  0  0  0  0
  -20.8618  -29.9307   22.4738 C   0  0  1  0  0  0  0  0  0  0  0  0
  -24.2237  -28.2581   23.0508 C   0  0  1  0  0  0  0  0  0  0  0  0
  -27.4291  -18.4444   19.9799 C   0  0  2  0  0  0  0  0  0  0  0  0
  -31.2704  -20.5309   16.4645 C   0  0  0  0  0  0  0  0  0  0  0  0
  -28.8564  -30.1886   15.7099 C   0  0  0  0  0  0  0  0  0  0  0  0
  -30.7509  -29.2232   27.1088 C   0  0  0  0  0  0  0  0  0  0  0  0
  -25.5280  -32.4188   24.5829 C   0  0  0  0  0  0  0  0  0  0  0  0
  -27.7903  -32.5143   25.6513 C   0  0  0  0  0  0  0  0  0  0  0  0
  -25.8817  -31.4656   26.8678 C   0  0  0  0  0  0  0  0  0  0  0  0
  -29.8554  -26.2411   24.9222 C   0  0  0  0  0  0  0  0  0  0  0  0
  -30.7369  -25.7066   18.9912 C   0  0  0  0  0  0  0  0  0  0  0  0
  -29.6824  -29.2606   16.5927 C   0  0  0  0  0  0  0  0  0  0  0  0
  -29.7602  -27.9992   18.8221 C   0  0  0  0  0  0  0  0  0  0  0  0
  -26.9082  -30.2595   24.8970 C   0  0  1  0  0  0  0  0  0  0  0  0
  -29.8229  -28.3044   26.3294 C   0  0  2  0  0  0  0  0  0  0  0  0
  -28.9733  -28.9423   17.9134 C   0  0  2  0  0  0  0  0  0  1  0  0
  -26.5232  -31.6505   25.4753 C   0  0  0  0  0  0  0  0  0  0  0  0
  -27.0592  -16.0090   19.8639 N   0  0  0  0  0  0  0  0  0  0  0  0
  -27.9440  -17.0177   19.9407 N   0  0  0  0  0  0  0  0  0  0  0  0
  -25.4775  -28.9473   23.3624 N   0  0  0  0  0  0  0  0  0  0  0  0
  -26.8465  -20.4470   18.6682 N   0  0  0  0  0  0  0  0  0  0  0  0
  -30.2619  -17.4928   20.0508 N   0  0  0  0  0  0  0  0  0  0  0  0
  -30.1308  -12.9826   19.8582 N   0  0  0  0  0  0  0  0  0  0  0  0
  -28.7841  -21.3684   17.6889 N   0  0  0  0  0  0  0  0  0  0  0  0
  -21.9462  -29.0555   22.8644 N   0  0  0  0  0  0  0  0  0  0  0  0
  -27.8285  -29.4981   25.7348 N   0  0  0  0  0  0  0  0  0  0  0  0
  -30.6434  -27.2303   25.7017 N   0  3  0  0  0  0  0  0  0  0  0  0
  -29.9585  -26.6782   18.1758 N   0  3  0  0  0  0  0  0  0  0  0  0
  -31.5211  -14.8004   20.0050 O   0  0  0  0  0  0  0  0  0  0  0  0
  -23.6963  -30.2511   21.8998 O   0  0  0  0  0  0  0  0  0  0  0  0
  -24.9976  -29.0668   25.6409 O   0  0  0  0  0  0  0  0  0  0  0  0
  -29.4945  -29.2681   24.1384 O   0  0  0  0  0  0  0  0  0  0  0  0
  -27.0224  -22.7289   18.3425 O   0  0  0  0  0  0  0  0  0  0  0  0
  -25.5474   -9.8315   19.5450 O   0  0  0  0  0  0  0  0  0  0  0  0
  -27.6930  -28.3777   17.6335 O   0  0  0  0  0  0  0  0  0  1  0  0
  -21.2172   -8.7639   22.7875 F   0  0  0  0  0  0  0  0  0  0  0  0
  -23.2241  -11.3161   19.3431 F   0  0  0  0  0  0  0  0  0  0  0  0
  1  2  1  0  0  0  0
  1  5  2  0  0  0  0
  2  6  2  0  0  0  0
  3 10  2  0  0  0  0
  3 18  1  0  0  0  0
  4 11  1  0  0  0  0
  4 18  2  0  0  0  0
  5 20  1  0  0  0  0
  6 22  1  0  0  0  0
  7 12  2  0  0  0  0
  7 21  1  0  0  0  0
  8  9  2  0  0  0  0
  8 24  1  0  0  0  0
  9 25  1  0  0  0  0
 10 27  1  0  0  0  0
 11 27  2  0  0  0  0
 12 28  1  0  0  0  0
 13 14  2  0  0  0  0
 13 29  1  0  0  0  0
 14 30  1  0  0  0  0
 15 23  1  0  0  0  0
 15 28  2  0  0  0  0
 16 24  2  0  0  0  0
 16 26  1  0  0  0  0
 17 30  2  0  0  0  0
 17 31  1  0  0  0  0
 18 32  1  0  0  0  0
 19 32  1  0  0  0  0
 19 33  2  0  0  0  0
 19 34  1  0  0  0  0
 20 22  2  0  0  0  0
 20 39  1  0  0  0  0
 21 23  2  0  0  0  0
 21 40  1  0  0  0  0
 22 48  1  0  0  0  0
 23 41  1  0  0  0  0
 24 58  1  0  0  0  0
 25 26  2  0  0  0  0
 25 51  1  0  0  0  0
 26 71  1  0  0  0  0
 27 81  1  0  0  0  0
 28 82  1  0  0  0  0
 29 31  2  0  0  0  0
 29 81  1  0  0  0  0
 30 83  1  0  0  0  0
 31 84  1  0  0  0  0
 32 65  2  0  0  0  0
 33 66  1  0  0  0  0
 33 69  1  0  0  0  0
 34 70  1  0  0  0  0
 34 76  2  0  0  0  0
 35 49  1  0  0  0  0
 35 72  1  0  0  0  0
 35 77  2  0  0  0  0
 36 61  1  0  0  0  0
 36 67  1  0  0  0  0
 36 78  2  0  0  0  0
 37 62  1  0  0  0  0
 37 73  1  0  0  0  0
 37 79  2  0  0  0  0
 38 68  1  0  0  0  0
 38 71  1  0  0  0  0
 38 80  2  0  0  0  0
 39 42  1  0  0  0  0
 40 49  1  0  0  0  0
 41 67  1  0  0  0  0
 42 44  1  0  0  0  0
 43 45  1  0  0  0  0
 43 46  1  0  0  0  0
 44 48  1  0  0  0  0
 45 50  1  0  0  0  0
 46 68  1  0  0  0  0
 47 50  1  0  0  0  0
 47 68  1  0  0  0  0
 48 72  1  0  0  0  0
 49 67  1  0  0  0  0
 50 66  1  0  0  0  0
 52 59  1  0  0  0  0
 53 62  1  0  0  0  0
 54 64  1  0  0  0  0
 55 64  1  0  0  0  0
 56 64  1  0  0  0  0
 57 74  1  0  0  0  0
 58 75  1  0  0  0  0
 59 63  1  0  0  0  0
 60 63  1  0  0  0  0
 60 75  1  0  0  0  0
 61 64  1  0  0  0  0
 61 73  1  0  0  0  0
 62 74  1  0  0  0  0
 63 82  1  0  0  0  0
 65 66  1  0  0  0  0
M  CHG  2  74   1  75   1
M  ISO  4  38 100  63 101  71 100  82 101
M  END
> <Batch ID>
0041

> <Smiles>
CC[101CH:1](CNCc1ccc(C)c([100NH:0][100C:0](=O)N2CCCC(n3nc(-c4ccc(Oc5ccc(F)cc5F)cc4)c(C(N)=O)c3N)C2)c1)[101O:1]c1ccc2c(c1)CN(C(=O)C(NC(=O)C(C)NC)C(C)(C)C)C(C(=O)NC1CCCc3ccccc31)C2

> <Shape>
0.303

> <Color>
0.098

> <Negative vol penalty>
0.000

$$$$

  -OEChem-04042322093D

 90 99  0     1  0  0  0  0  0999 V2000
  -28.1821  -38.1616   21.6549 C   0  0  0  0  0  0  0  0  0  0  0  0
  -28.2699  -37.1692   20.6839 C   0  0  0  0  0  0  0  0  0  0  0  0
  -25.0148   -8.0255   22.1295 C   0  0  0  0  0  0  0  0  0  0  0  0
  -23.5133   -9.9121   21.9775 C   0  0  0  0  0  0  0  0  0  0  0  0
  -28.0239  -37.8118   22.9952 C   0  0  0  0  0  0  0  0  0  0  0  0
  -28.2005  -35.8263   21.0528 C   0  0  0  0  0  0  0  0  0  0  0  0
  -25.8775  -29.4896   18.6514 C   0  0  0  0  0  0  0  0  0  0  0  0
  -23.9423   -7.1559   21.9316 C   0  0  0  0  0  0  0  0  0  0  0  0
  -22.4407   -9.0425   21.7796 C   0  0  0  0  0  0  0  0  0  0  0  0
  -26.3260  -28.1856   18.4455 C   0  0  0  0  0  0  0  0  0  0  0  0
  -21.4137   -5.8629   23.7643 C   0  0  0  0  0  0  0  0  0  0  0  0
  -21.3274   -4.7430   24.5911 C   0  0  0  0  0  0  0  0  0  0  0  0
  -25.9722  -27.7015   20.7821 C   0  0  0  0  0  0  0  0  0  0  0  0
  -29.7931  -18.8620   20.7406 C   0  0  0  0  0  0  0  0  0  0  0  0
  -28.8221  -18.9158   23.3553 C   0  0  0  0  0  0  0  0  0  0  0  0
  -21.4580   -3.3036   22.6551 C   0  0  0  0  0  0  0  0  0  0  0  0
  -24.8003   -9.4036   22.1525 C   0  0  0  0  0  0  0  0  0  0  0  0
  -27.0561  -10.4335   21.5538 C   0  0  0  0  0  0  0  0  0  0  0  0
  -27.9429  -36.4641   23.3797 C   0  0  0  0  0  0  0  0  0  0  0  0
  -25.4827  -29.9132   19.9286 C   0  0  0  0  0  0  0  0  0  0  0  0
  -28.0424  -35.4581   22.3997 C   0  0  0  0  0  0  0  0  0  0  0  0
  -25.5167  -29.0105   21.0011 C   0  0  0  0  0  0  0  0  0  0  0  0
  -29.4849  -17.6693   21.3947 C   0  0  0  0  0  0  0  0  0  0  0  0
  -29.6159  -20.0817   21.3938 C   0  0  0  0  0  0  0  0  0  0  0  0
  -28.9993  -17.6961   22.7021 C   0  0  0  0  0  0  0  0  0  0  0  0
  -22.6553   -7.6644   21.7566 C   0  0  0  0  0  0  0  0  0  0  0  0
  -26.3761  -27.2922   19.5115 C   0  0  0  0  0  0  0  0  0  0  0  0
  -21.5221   -5.7033   22.3828 C   0  0  0  0  0  0  0  0  0  0  0  0
  -21.3495   -3.4633   24.0366 C   0  0  0  0  0  0  0  0  0  0  0  0
  -21.5443   -4.4236   21.8282 C   0  0  0  0  0  0  0  0  0  0  0  0
  -29.1304  -20.1086   22.7012 C   0  0  0  0  0  0  0  0  0  0  0  0
  -25.9077  -10.3024   22.3574 C   0  0  0  0  0  0  0  0  0  0  0  0
  -27.7965  -11.4124   22.1701 C   0  0  0  0  0  0  0  0  0  0  0  0
  -29.5785  -22.7258   18.7124 C   0  0  0  0  0  0  0  0  0  0  0  0
  -30.6274  -22.6137   17.8787 C   0  0  0  0  0  0  0  0  0  0  0  0
  -27.4209   -9.7330   20.3572 C   0  0  0  0  0  0  0  0  0  0  0  0
  -26.4945  -32.1308   21.9688 C   0  0  0  0  0  0  0  0  0  0  0  0
  -23.8701  -31.2271   23.6476 C   0  0  0  0  0  0  0  0  0  0  0  0
  -21.5538  -28.8143   24.3259 C   0  0  0  0  0  0  0  0  0  0  0  0
  -28.1916  -16.3656   24.6828 C   0  0  0  0  0  0  0  0  0  0  0  0
  -27.8192  -36.1338   24.8461 C   0  0  0  0  0  0  0  0  0  0  0  0
  -24.9762  -31.3152   20.1288 C   0  0  0  0  0  0  0  0  0  0  0  0
  -25.0847  -29.4098   22.3876 C   0  0  0  0  0  0  0  0  0  0  0  0
  -28.8816  -24.0437   18.9218 C   0  0  0  0  0  0  0  0  0  0  0  0
  -27.3784  -34.6966   25.1116 C   0  0  0  0  0  0  0  0  0  0  0  0
  -27.2502  -13.5913   26.7062 C   0  0  0  0  0  0  0  0  0  0  0  0
  -26.8309  -21.7998   18.4384 C   0  0  0  0  0  0  0  0  0  0  0  0
  -28.1787  -33.7250   24.2500 C   0  0  0  0  0  0  0  0  0  0  0  0
  -26.4970  -23.2889   18.3276 C   0  0  0  0  0  0  0  0  0  0  0  0
  -26.9115  -12.4991   25.6891 C   0  0  0  0  0  0  0  0  0  0  0  0
  -26.8205  -14.9736   26.2183 C   0  0  0  0  0  0  0  0  0  0  0  0
  -26.9754  -14.2506   23.8683 C   0  0  0  0  0  0  0  0  0  0  0  0
  -27.6733  -21.4674   19.6667 C   0  0  0  0  0  0  0  0  0  0  0  0
  -27.9465  -33.9908   22.7577 C   0  0  1  0  0  0  0  0  0  0  0  0
  -25.0853  -31.7892   21.5747 C   0  0  1  0  0  0  0  0  0  0  0  0
  -27.6786  -24.2081   17.9783 C   0  0  1  0  0  0  0  0  0  0  0  0
  -27.4479  -12.8487   24.2871 C   0  0  2  0  0  0  0  0  0  0  0  0
  -29.6866  -16.3771   20.6714 C   0  0  0  0  0  0  0  0  0  0  0  0
  -31.3556  -21.3400   17.6313 C   0  0  0  0  0  0  0  0  0  0  0  0
  -19.5551  -28.3532   25.7716 C   0  0  0  0  0  0  0  0  0  0  0  0
  -25.7073  -30.7918   26.0445 C   0  0  0  0  0  0  0  0  0  0  0  0
  -23.8767  -29.4635   27.1181 C   0  0  0  0  0  0  0  0  0  0  0  0
  -23.5202  -31.8753   26.5896 C   0  0  0  0  0  0  0  0  0  0  0  0
  -19.7906  -28.4587   21.9756 C   0  0  0  0  0  0  0  0  0  0  0  0
  -29.9599  -21.3420   20.6561 C   0  0  0  0  0  0  0  0  0  0  0  0
  -27.2066  -25.6661   17.9877 C   0  0  0  0  0  0  0  0  0  1  0  0
  -23.5830  -30.1898   24.7062 C   0  0  1  0  0  0  0  0  0  0  0  0
  -20.0401  -28.8709   24.4265 C   0  0  2  0  0  0  0  0  0  0  0  0
  -24.1818  -30.5728   26.0890 C   0  0  0  0  0  0  0  0  0  0  0  0
  -25.9136  -11.1317   23.4044 N   0  0  0  0  0  0  0  0  0  0  0  0
  -27.0749  -11.7932   23.2631 N   0  0  0  0  0  0  0  0  0  0  0  0
  -24.6032  -30.7933   22.5339 N   0  0  0  0  0  0  0  0  0  0  0  0
  -27.3691  -15.2373   24.8863 N   0  0  0  0  0  0  0  0  0  0  0  0
  -28.9880  -11.9761   21.8785 N   0  0  0  0  0  0  0  0  0  0  0  0
  -27.0201  -10.2640   19.1236 N   0  0  0  0  0  0  0  0  0  0  0  0
  -28.6814  -16.4953   23.3837 N   0  0  0  0  0  0  0  0  0  0  0  0
  -26.6707  -33.4499   22.3405 N   0  0  0  0  0  0  0  0  0  0  0  0
  -22.1362  -30.0028   24.7127 N   0  0  0  0  0  0  0  0  0  0  0  0
  -29.1565  -21.5252   19.3922 N   0  3  2  0  0  0  0  0  0  0  0  0
  -19.4184  -28.0450   23.3530 N   0  3  0  0  0  0  0  0  0  0  0  0
  -28.0686   -8.6591   20.3819 O   0  0  0  0  0  0  0  0  0  0  0  0
  -27.3576  -31.2614   21.9393 O   0  0  0  0  0  0  0  0  0  0  0  0
  -23.4529  -32.3779   23.7997 O   0  0  0  0  0  0  0  0  0  0  0  0
  -22.1592  -27.8144   23.9461 O   0  0  0  0  0  0  0  0  0  0  0  0
  -28.4649  -17.1434   25.6006 O   0  0  0  0  0  0  0  0  0  0  0  0
  -21.6085   -6.8162   21.5633 O   0  0  0  0  0  0  0  0  0  0  0  0
  -26.8139  -26.0190   19.3134 O   0  0  0  0  0  0  0  0  0  1  0  0
  -21.2681   -2.3878   24.8309 F   0  0  0  0  0  0  0  0  0  0  0  0
  -21.6495   -4.2639   20.5019 F   0  0  0  0  0  0  0  0  0  0  0  0
  -28.8985  -21.5987   23.5412 Cl  0  0  0  0  0  0  0  0  0  0  0  0
  1  2  1  0  0  0  0
  1  5  2  0  0  0  0
  2  6  2  0  0  0  0
  3  8  2  0  0  0  0
  3 17  1  0  0  0  0
  4  9  1  0  0  0  0
  4 17  2  0  0  0  0
  5 19  1  0  0  0  0
  6 21  1  0  0  0  0
  7 10  2  0  0  0  0
  7 20  1  0  0  0  0
  8 26  1  0  0  0  0
  9 26  2  0  0  0  0
 10 27  1  0  0  0  0
 11 12  2  0  0  0  0
 11 28  1  0  0  0  0
 12 29  1  0  0  0  0
 13 22  1  0  0  0  0
 13 27  2  0  0  0  0
 14 23  2  0  0  0  0
 14 24  1  0  0  0  0
 15 25  2  0  0  0  0
 15 31  1  0  0  0  0
 16 29  2  0  0  0  0
 16 30  1  0  0  0  0
 17 32  1  0  0  0  0
 18 32  1  0  0  0  0
 18 33  2  0  0  0  0
 18 36  1  0  0  0  0
 19 21  2  0  0  0  0
 19 41  1  0  0  0  0
 20 22  2  0  0  0  0
 20 42  1  0  0  0  0
 21 54  1  0  0  0  0
 22 43  1  0  0  0  0
 23 25  1  0  0  0  0
 23 58  1  0  0  0  0
 24 31  2  0  0  0  0
 24 65  1  0  0  0  0
 25 76  1  0  0  0  0
 26 86  1  0  0  0  0
 27 87  1  0  0  0  0
 28 30  2  0  0  0  0
 28 86  1  0  0  0  0
 29 88  1  0  0  0  0
 30 89  1  0  0  0  0
 31 90  1  0  0  0  0
 32 70  2  0  0  0  0
 33 71  1  0  0  0  0
 33 74  1  0  0  0  0
 34 35  2  0  0  0  0
 34 44  1  0  0  0  0
 34 79  1  0  0  0  0
 35 59  1  0  0  0  0
 36 75  1  0  0  0  0
 36 81  2  0  0  0  0
 37 55  1  0  0  0  0
 37 77  1  0  0  0  0
 37 82  2  0  0  0  0
 38 67  1  0  0  0  0
 38 72  1  0  0  0  0
 38 83  2  0  0  0  0
 39 68  1  0  0  0  0
 39 78  1  0  0  0  0
 39 84  2  0  0  0  0
 40 73  1  0  0  0  0
 40 76  1  0  0  0  0
 40 85  2  0  0  0  0
 41 45  1  0  0  0  0
 42 55  1  0  0  0  0
 43 72  1  0  0  0  0
 44 56  1  0  0  0  0
 45 48  1  0  0  0  0
 46 50  1  0  0  0  0
 46 51  1  0  0  0  0
 47 49  1  0  0  0  0
 47 53  1  0  0  0  0
 48 54  1  0  0  0  0
 49 56  1  0  0  0  0
 50 57  1  0  0  0  0
 51 73  1  0  0  0  0
 52 57  1  0  0  0  0
 52 73  1  0  0  0  0
 53 79  1  0  0  0  0
 54 77  1  0  0  0  0
 55 72  1  0  0  0  0
 56 66  1  0  0  0  0
 57 71  1  0  0  0  0
 60 68  1  0  0  0  0
 61 69  1  0  0  0  0
 62 69  1  0  0  0  0
 63 69  1  0  0  0  0
 64 80  1  0  0  0  0
 65 79  1  0  0  0  0
 66 87  1  0  0  0  0
 67 69  1  0  0  0  0
 67 78  1  0  0  0  0
 68 80  1  0  0  0  0
 70 71  1  0  0  0  0
M  CHG  2  79   1  80   1
M  ISO  4  40 100  66 101  76 100  87 101
M  END
> <Batch ID>
0041

> <Smiles>
CC=C1CC([101CH2:1][101O:1]c2ccc3c(c2)CN(C(=O)C(NC(=O)C(C)NC)C(C)(C)C)C(C(=O)NC2CCCc4ccccc42)C3)CCCN1Cc1cc(C)c([100NH:0][100C:0](=O)N2CCCC(n3nc(-c4ccc(Oc5ccc(F)cc5F)cc4)c(C(N)=O)c3N)C2)cc1Cl

> <Shape>
0.269

> <Color>
0.080

> <Negative vol penalty>
0.000

$$$$

  -OEChem-04042322093D

 88 97  0     1  0  0  0  0  0999 V2000
  -32.5917  -31.4981   22.4054 C   0  0  0  0  0  0  0  0  0  0  0  0
  -31.8541  -30.3346   22.2107 C   0  0  0  0  0  0  0  0  0  0  0  0
  -22.8566  -10.6284   20.6345 C   0  0  0  0  0  0  0  0  0  0  0  0
  -24.5517   -9.0987   21.4242 C   0  0  0  0  0  0  0  0  0  0  0  0
  -32.0937  -32.5085   23.2269 C   0  0  0  0  0  0  0  0  0  0  0  0
  -30.6186  -30.1805   22.8385 C   0  0  0  0  0  0  0  0  0  0  0  0
  -27.0721  -28.3466   19.7234 C   0  0  0  0  0  0  0  0  0  0  0  0
  -21.9683  -10.1383   21.5917 C   0  0  0  0  0  0  0  0  0  0  0  0
  -23.6634   -8.6086   22.3815 C   0  0  0  0  0  0  0  0  0  0  0  0
  -27.1013  -26.9777   19.4609 C   0  0  0  0  0  0  0  0  0  0  0  0
  -21.0466   -6.4704   22.4885 C   0  0  0  0  0  0  0  0  0  0  0  0
  -20.9663   -5.0873   22.6500 C   0  0  0  0  0  0  0  0  0  0  0  0
  -25.3372  -26.6374   21.0707 C   0  0  0  0  0  0  0  0  0  0  0  0
  -29.7235  -17.7693   21.2029 C   0  0  0  0  0  0  0  0  0  0  0  0
  -21.6458   -5.3172   24.9571 C   0  0  0  0  0  0  0  0  0  0  0  0
  -24.1483  -10.1086   20.5507 C   0  0  0  0  0  0  0  0  0  0  0  0
  -24.9035  -10.5972   18.1635 C   0  0  0  0  0  0  0  0  0  0  0  0
  -30.8470  -32.3708   23.8574 C   0  0  0  0  0  0  0  0  0  0  0  0
  -26.1812  -28.8707   20.6710 C   0  0  0  0  0  0  0  0  0  0  0  0
  -30.1041  -31.1895   23.6703 C   0  0  0  0  0  0  0  0  0  0  0  0
  -25.2969  -28.0136   21.3415 C   0  0  0  0  0  0  0  0  0  0  0  0
  -29.6174  -19.0381   21.7727 C   0  0  0  0  0  0  0  0  0  0  0  0
  -28.4102  -19.7337   21.7064 C   0  0  0  0  0  0  0  0  0  0  0  0
  -27.3090  -19.1606   21.0702 C   0  0  0  0  0  0  0  0  0  0  0  0
  -28.6223  -17.1963   20.5666 C   0  0  0  0  0  0  0  0  0  0  0  0
  -22.3717   -9.1284   22.4652 C   0  0  0  0  0  0  0  0  0  0  0  0
  -26.2359  -26.1224   20.1367 C   0  0  0  0  0  0  0  0  0  0  0  0
  -21.4267   -7.2769   23.5612 C   0  0  0  0  0  0  0  0  0  0  0  0
  -21.2658   -4.5107   23.8843 C   0  0  0  0  0  0  0  0  0  0  0  0
  -21.7262   -6.7003   24.7955 C   0  0  0  0  0  0  0  0  0  0  0  0
  -27.4151  -17.8919   20.5003 C   0  0  0  0  0  0  0  0  0  0  0  0
  -25.0662  -10.6141   19.5618 C   0  0  0  0  0  0  0  0  0  0  0  0
  -26.0431  -11.1907   17.6781 C   0  0  0  0  0  0  0  0  0  0  0  0
  -27.2523  -23.0569   21.2047 C   0  0  0  0  0  0  0  0  0  0  0  0
  -23.8192  -10.0905   17.3741 C   0  0  0  0  0  0  0  0  0  0  0  0
  -26.4950  -30.4384   23.4183 C   0  0  0  0  0  0  0  0  0  0  0  0
  -23.2654  -30.6604   23.2114 C   0  0  0  0  0  0  0  0  0  0  0  0
  -20.5326  -28.5017   22.2687 C   0  0  0  0  0  0  0  0  0  0  0  0
  -29.9122  -15.1080   19.9996 C   0  0  0  0  0  0  0  0  0  0  0  0
  -30.3717  -33.4701   24.7740 C   0  0  0  0  0  0  0  0  0  0  0  0
  -26.1435  -30.3531   20.9233 C   0  0  0  0  0  0  0  0  0  0  0  0
  -24.3074  -28.5288   22.3534 C   0  0  0  0  0  0  0  0  0  0  0  0
  -28.8836  -33.3872   25.1040 C   0  0  0  0  0  0  0  0  0  0  0  0
  -29.2403  -22.6235   19.0644 C   0  0  0  0  0  0  0  0  0  0  0  0
  -30.6629  -11.8608   18.7468 C   0  0  0  0  0  0  0  0  0  0  0  0
  -28.4989  -31.9598   25.4803 C   0  0  0  0  0  0  0  0  0  0  0  0
  -27.9644  -23.4351   18.8480 C   0  0  0  0  0  0  0  0  0  0  0  0
  -29.2973  -11.1731   18.6806 C   0  0  0  0  0  0  0  0  0  0  0  0
  -29.5286  -22.3388   20.5357 C   0  0  0  0  0  0  0  0  0  0  0  0
  -30.7773  -12.7788   19.9626 C   0  0  0  0  0  0  0  0  0  0  0  0
  -28.3330  -13.0781   20.0328 C   0  0  0  0  0  0  0  0  0  0  0  0
  -28.7484  -30.9956   24.3143 C   0  0  1  0  0  0  0  0  0  0  0  0
  -27.4822  -24.1077   20.1269 C   0  0  1  0  0  0  0  0  0  1  0  0
  -25.5509  -30.7131   22.2822 C   0  0  1  0  0  0  0  0  0  0  0  0
  -28.1469  -12.1930   18.7895 C   0  0  2  0  0  0  0  0  0  0  0  0
  -30.8120  -19.6295   22.4474 C   0  0  0  0  0  0  0  0  0  0  0  0
  -26.0225  -19.9248   21.0083 C   0  0  0  0  0  0  0  0  0  0  0  0
  -18.2642  -29.0496   21.3458 C   0  0  0  0  0  0  0  0  0  0  0  0
  -22.3740  -30.5594   26.1277 C   0  0  0  0  0  0  0  0  0  0  0  0
  -20.2513  -29.4702   25.3685 C   0  0  0  0  0  0  0  0  0  0  0  0
  -20.8115  -31.7766   24.6008 C   0  0  0  0  0  0  0  0  0  0  0  0
  -20.9359  -26.7461   19.9204 C   0  0  0  0  0  0  0  0  0  0  0  0
  -28.3015  -21.1002   22.3189 C   0  0  0  0  0  0  0  0  0  0  0  0
  -22.1039  -29.8127   23.6710 C   0  0  1  0  0  0  0  0  0  0  0  0
  -19.6814  -28.6074   21.0161 C   0  0  2  0  0  0  0  0  0  0  0  0
  -21.4104  -30.3932   24.9357 C   0  0  0  0  0  0  0  0  0  0  0  0
  -26.2184  -11.1739   19.9401 N   0  0  0  0  0  0  0  0  0  0  0  0
  -26.7901  -11.5141   18.7724 N   0  0  0  0  0  0  0  0  0  0  0  0
  -28.3093  -22.1491   21.3131 N   0  0  0  0  0  0  0  0  0  0  0  0
  -24.3134  -29.9850   22.5699 N   0  0  0  0  0  0  0  0  0  0  0  0
  -29.6562  -13.7204   19.9975 N   0  0  0  0  0  0  0  0  0  0  0  0
  -26.4690  -11.4622   16.4261 N   0  0  0  0  0  0  0  0  0  0  0  0
  -22.7259   -9.5122   18.0335 N   0  0  0  0  0  0  0  0  0  0  0  0
  -28.7682  -15.9054   20.0009 N   0  0  0  0  0  0  0  0  0  0  0  0
  -27.6970  -31.1140   23.3268 N   0  0  0  0  0  0  0  0  0  0  0  0
  -21.2215  -29.6698   22.5181 N   0  0  0  0  0  0  0  0  0  0  0  0
  -19.6134  -27.2896   20.3234 N   0  3  0  0  0  0  0  0  0  0  0  0
  -26.2366  -23.0446   21.8978 O   0  0  0  0  0  0  0  0  0  0  0  0
  -23.8272  -10.1338   16.1205 O   0  0  0  0  0  0  0  0  0  0  0  0
  -26.1574  -29.6716   24.3126 O   0  0  0  0  0  0  0  0  0  0  0  0
  -23.2405  -31.8779   23.4078 O   0  0  0  0  0  0  0  0  0  0  0  0
  -20.5786  -27.4858   22.9590 O   0  0  0  0  0  0  0  0  0  0  0  0
  -31.0614  -15.5559   19.9727 O   0  0  0  0  0  0  0  0  0  0  0  0
  -21.5052   -8.6500   23.3995 O   0  0  0  0  0  0  0  0  0  0  0  0
  -26.2628  -24.7858   19.8828 O   0  0  0  0  0  0  0  0  0  1  0  0
  -21.1871   -3.1826   24.0397 F   0  0  0  0  0  0  0  0  0  0  0  0
  -22.0907   -7.4701   25.8301 F   0  0  0  0  0  0  0  0  0  0  0  0
  -26.0445  -17.1803   19.7108 Cl  0  0  0  0  0  0  0  0  0  0  0  0
  1  2  1  0  0  0  0
  1  5  2  0  0  0  0
  2  6  2  0  0  0  0
  3  8  2  0  0  0  0
  3 16  1  0  0  0  0
  4  9  1  0  0  0  0
  4 16  2  0  0  0  0
  5 18  1  0  0  0  0
  6 20  1  0  0  0  0
  7 10  2  0  0  0  0
  7 19  1  0  0  0  0
  8 26  1  0  0  0  0
  9 26  2  0  0  0  0
 10 27  1  0  0  0  0
 11 12  2  0  0  0  0
 11 28  1  0  0  0  0
 12 29  1  0  0  0  0
 13 21  1  0  0  0  0
 13 27  2  0  0  0  0
 14 22  2  0  0  0  0
 14 25  1  0  0  0  0
 15 29  2  0  0  0  0
 15 30  1  0  0  0  0
 16 32  1  0  0  0  0
 17 32  1  0  0  0  0
 17 33  2  0  0  0  0
 17 35  1  0  0  0  0
 18 20  2  0  0  0  0
 18 40  1  0  0  0  0
 19 21  2  0  0  0  0
 19 41  1  0  0  0  0
 20 52  1  0  0  0  0
 21 42  1  0  0  0  0
 22 23  1  0  0  0  0
 22 56  1  0  0  0  0
 23 24  2  0  0  0  0
 23 63  1  0  0  0  0
 24 31  1  0  0  0  0
 24 57  1  0  0  0  0
 25 31  2  0  0  0  0
 25 74  1  0  0  0  0
 26 84  1  0  0  0  0
 27 85  1  0  0  0  0
 28 30  2  0  0  0  0
 28 84  1  0  0  0  0
 29 86  1  0  0  0  0
 30 87  1  0  0  0  0
 31 88  1  0  0  0  0
 32 67  2  0  0  0  0
 33 68  1  0  0  0  0
 33 72  1  0  0  0  0
 34 53  1  0  0  0  0
 34 69  1  0  0  0  0
 34 78  2  0  0  0  0
 35 73  1  0  0  0  0
 35 79  2  0  0  0  0
 36 54  1  0  0  0  0
 36 75  1  0  0  0  0
 36 80  2  0  0  0  0
 37 64  1  0  0  0  0
 37 70  1  0  0  0  0
 37 81  2  0  0  0  0
 38 65  1  0  0  0  0
 38 76  1  0  0  0  0
 38 82  2  0  0  0  0
 39 71  1  0  0  0  0
 39 74  1  0  0  0  0
 39 83  2  0  0  0  0
 40 43  1  0  0  0  0
 41 54  1  0  0  0  0
 42 70  1  0  0  0  0
 43 46  1  0  0  0  0
 44 47  1  0  0  0  0
 44 49  1  0  0  0  0
 45 48  1  0  0  0  0
 45 50  1  0  0  0  0
 46 52  1  0  0  0  0
 47 53  1  0  0  0  0
 48 55  1  0  0  0  0
 49 69  1  0  0  0  0
 50 71  1  0  0  0  0
 51 55  1  0  0  0  0
 51 71  1  0  0  0  0
 52 75  1  0  0  0  0
 53 85  1  0  0  0  0
 54 70  1  0  0  0  0
 55 68  1  0  0  0  0
 58 65  1  0  0  0  0
 59 66  1  0  0  0  0
 60 66  1  0  0  0  0
 61 66  1  0  0  0  0
 62 77  1  0  0  0  0
 63 69  1  0  0  0  0
 64 66  1  0  0  0  0
 64 76  1  0  0  0  0
 65 77  1  0  0  0  0
 67 68  1  0  0  0  0
M  CHG  1  77   1
M  ISO  4  39 100  53 101  74 100  85 101
M  END
> <Batch ID>
0041

> <Smiles>
CNC(C)C(=O)NC(C(=O)N1Cc2cc([101O:1][101CH:1]3CCCN(Cc4c(C)cc([100NH:0][100C:0](=O)N5CCCC(n6nc(-c7ccc(Oc8ccc(F)cc8F)cc7)c(C(N)=O)c6N)C5)c(Cl)c4C)C3=O)ccc2CC1C(=O)NC1CCCc2ccccc21)C(C)(C)C

> <Shape>
0.306

> <Color>
0.102

> <Negative vol penalty>
0.000

$$$$

  -OEChem-04042322093D

 85 93  0     1  0  0  0  0  0999 V2000
  -18.3272  -32.2174   25.1318 C   0  0  0  0  0  0  0  0  0  0  0  0
  -19.6774  -32.4011   24.8515 C   0  0  0  0  0  0  0  0  0  0  0  0
  -24.6515  -14.3240   21.6519 C   0  0  0  0  0  0  0  0  0  0  0  0
  -26.5923  -14.1686   20.2214 C   0  0  0  0  0  0  0  0  0  0  0  0
  -17.7570  -30.9510   25.0095 C   0  0  0  0  0  0  0  0  0  0  0  0
  -20.4585  -31.3182   24.4497 C   0  0  0  0  0  0  0  0  0  0  0  0
  -26.0400  -29.7113   20.2566 C   0  0  0  0  0  0  0  0  0  0  0  0
  -24.6296  -12.9346   21.7731 C   0  0  0  0  0  0  0  0  0  0  0  0
  -26.5703  -12.7791   20.3426 C   0  0  0  0  0  0  0  0  0  0  0  0
  -27.2741  -29.0647   20.3071 C   0  0  0  0  0  0  0  0  0  0  0  0
  -23.6148  -10.2897   19.9295 C   0  0  0  0  0  0  0  0  0  0  0  0
  -22.3828   -9.6481   19.8021 C   0  0  0  0  0  0  0  0  0  0  0  0
  -29.6801  -24.7273   15.8086 C   0  0  0  0  0  0  0  0  0  0  0  0
  -26.1633  -26.9383   20.0539 C   0  0  0  0  0  0  0  0  0  0  0  0
  -27.5193  -23.6749   15.5626 C   0  0  0  0  0  0  0  0  0  0  0  0
  -22.6120   -8.7638   22.0388 C   0  0  0  0  0  0  0  0  0  0  0  0
  -25.6328  -14.9410   20.8760 C   0  0  0  0  0  0  0  0  0  0  0  0
  -29.8367  -24.1151   17.0521 C   0  0  0  0  0  0  0  0  0  0  0  0
  -26.3371  -17.2912   21.5746 C   0  0  0  0  0  0  0  0  0  0  0  0
  -18.5294  -29.8539   24.5967 C   0  0  0  0  0  0  0  0  0  0  0  0
  -24.8554  -28.9743   20.1151 C   0  0  0  0  0  0  0  0  0  0  0  0
  -19.8985  -30.0356   24.3230 C   0  0  0  0  0  0  0  0  0  0  0  0
  -24.9157  -27.5782   19.9993 C   0  0  0  0  0  0  0  0  0  0  0  0
  -28.8346  -23.2828   17.5509 C   0  0  0  0  0  0  0  0  0  0  0  0
  -27.6759  -23.0627   16.8061 C   0  0  0  0  0  0  0  0  0  0  0  0
  -25.5890  -12.1622   21.1185 C   0  0  0  0  0  0  0  0  0  0  0  0
  -27.3357  -27.6777   20.2086 C   0  0  0  0  0  0  0  0  0  0  0  0
  -24.3454  -10.1682   21.1115 C   0  0  0  0  0  0  0  0  0  0  0  0
  -21.8814   -8.8853   20.8567 C   0  0  0  0  0  0  0  0  0  0  0  0
  -28.5214  -24.5072   15.0638 C   0  0  0  0  0  0  0  0  0  0  0  0
  -23.8440   -9.4054   22.1661 C   0  0  0  0  0  0  0  0  0  0  0  0
  -25.6557  -16.3761   20.7499 C   0  0  0  0  0  0  0  0  0  0  0  0
  -26.0422  -18.5213   21.0395 C   0  0  0  0  0  0  0  0  0  0  0  0
  -31.0194  -26.2383   19.0902 C   0  0  0  0  0  0  0  0  0  0  0  0
  -31.0851  -24.3697   17.8224 C   0  0  0  0  0  0  0  0  0  0  0  0
  -27.1629  -17.0508   22.7218 C   0  0  0  0  0  0  0  0  0  0  0  0
  -22.2483  -28.5568   21.8850 C   0  0  0  0  0  0  0  0  0  0  0  0
  -21.2172  -26.9181   19.2823 C   0  0  0  0  0  0  0  0  0  0  0  0
  -22.0063  -25.1611   16.4650 C   0  0  0  0  0  0  0  0  0  0  0  0
  -25.4393  -21.9121   16.6644 C   0  0  0  0  0  0  0  0  0  0  0  0
  -17.8796  -28.4947   24.5246 C   0  0  0  0  0  0  0  0  0  0  0  0
  -23.5343  -29.6889   20.0355 C   0  0  0  0  0  0  0  0  0  0  0  0
  -23.6747  -26.7425   19.8258 C   0  0  0  0  0  0  0  0  0  0  0  0
  -18.6907  -27.4731   23.7318 C   0  0  0  0  0  0  0  0  0  0  0  0
  -22.6602  -19.8565   17.5180 C   0  0  0  0  0  0  0  0  0  0  0  0
  -20.1573  -27.5160   24.1491 C   0  0  0  0  0  0  0  0  0  0  0  0
  -23.2479  -18.8431   18.5028 C   0  0  0  0  0  0  0  0  0  0  0  0
  -23.6492  -20.2077   16.4079 C   0  0  0  0  0  0  0  0  0  0  0  0
  -25.5587  -19.6357   17.8556 C   0  0  0  0  0  0  0  0  0  0  0  0
  -20.7730  -28.8904   23.8606 C   0  0  1  0  0  0  0  0  0  0  0  0
  -22.3509  -28.8001   20.4058 C   0  0  1  0  0  0  0  0  0  0  0  0
  -24.6229  -19.3000   19.0283 C   0  0  2  0  0  0  0  0  0  0  0  0
  -29.0040  -22.6259   18.8855 C   0  0  0  0  0  0  0  0  0  0  0  0
  -20.9501  -23.9134   14.5611 C   0  0  0  0  0  0  0  0  0  0  0  0
  -20.6388  -24.5712   21.1445 C   0  0  0  0  0  0  0  0  0  0  0  0
  -20.5063  -23.0938   19.1276 C   0  0  0  0  0  0  0  0  0  0  0  0
  -18.8914  -24.9752   19.4016 C   0  0  0  0  0  0  0  0  0  0  0  0
  -23.1773  -26.9965   14.4602 C   0  0  0  0  0  0  0  0  0  0  0  0
  -30.9381  -26.9839   20.3944 C   0  0  0  0  0  0  0  0  0  0  0  0
  -29.6980  -27.8619   20.4125 C   0  0  0  0  0  0  0  0  0  1  0  0
  -21.2991  -25.4830   18.8210 C   0  0  1  0  0  0  0  0  0  0  0  0
  -21.4860  -25.2529   15.0419 C   0  0  2  0  0  0  0  0  0  0  0  0
  -20.3573  -24.5461   19.6289 C   0  0  0  0  0  0  0  0  0  0  0  0
  -24.9788  -16.9739   19.7658 N   0  0  0  0  0  0  0  0  0  0  0  0
  -30.9801  -24.9453   19.0656 N   0  0  0  0  0  0  0  0  0  0  0  0
  -25.2333  -18.2778   19.9687 N   0  0  0  0  0  0  0  0  0  0  0  0
  -22.4063  -27.4871   19.7600 N   0  0  0  0  0  0  0  0  0  0  0  0
  -24.9273  -20.6359   16.9806 N   0  0  0  0  0  0  0  0  0  0  0  0
  -26.3985  -19.7767   21.3852 N   0  0  0  0  0  0  0  0  0  0  0  0
  -27.3615  -15.7267   23.1364 N   0  0  0  0  0  0  0  0  0  0  0  0
  -26.6447  -22.2219   17.2934 N   0  0  0  0  0  0  0  0  0  0  0  0
  -21.0772  -29.0222   22.4519 N   0  0  0  0  0  0  0  0  0  0  0  0
  -21.0376  -25.5000   17.3858 N   0  0  0  0  0  0  0  0  0  0  0  0
  -32.2528  -24.1088   17.3505 N   0  3  0  0  0  0  0  0  0  0  0  0
  -22.5746  -25.6822   14.1190 N   0  3  0  0  0  0  0  0  0  0  0  0
  -27.6951  -17.9835   23.3701 O   0  0  0  0  0  0  0  0  0  0  0  0
  -23.1632  -27.9875   22.4686 O   0  0  0  0  0  0  0  0  0  0  0  0
  -20.1396  -27.5145   19.2146 O   0  0  0  0  0  0  0  0  0  0  0  0
  -23.1560  -24.8191   16.7332 O   0  0  0  0  0  0  0  0  0  0  0  0
  -24.8380  -22.6848   15.9138 O   0  0  0  0  0  0  0  0  0  0  0  0
  -25.5680  -10.8064   21.2367 O   0  0  0  0  0  0  0  0  0  0  0  0
  -28.5389  -27.0439   20.2582 O   0  0  0  0  0  0  0  0  0  1  0  0
  -20.6975   -8.2705   20.7348 F   0  0  0  0  0  0  0  0  0  0  0  0
  -28.3703  -25.0962   13.8702 F   0  0  0  0  0  0  0  0  0  0  0  0
  -24.5408   -9.2860   23.3046 F   0  0  0  0  0  0  0  0  0  0  0  0
  1  2  1  0  0  0  0
  1  5  2  0  0  0  0
  2  6  2  0  0  0  0
  3  8  2  0  0  0  0
  3 17  1  0  0  0  0
  4  9  1  0  0  0  0
  4 17  2  0  0  0  0
  5 20  1  0  0  0  0
  6 22  1  0  0  0  0
  7 10  2  0  0  0  0
  7 21  1  0  0  0  0
  8 26  1  0  0  0  0
  9 26  2  0  0  0  0
 10 27  1  0  0  0  0
 11 12  2  0  0  0  0
 11 28  1  0  0  0  0
 12 29  1  0  0  0  0
 13 18  1  0  0  0  0
 13 30  2  0  0  0  0
 14 23  1  0  0  0  0
 14 27  2  0  0  0  0
 15 25  2  0  0  0  0
 15 30  1  0  0  0  0
 16 29  2  0  0  0  0
 16 31  1  0  0  0  0
 17 32  1  0  0  0  0
 18 24  2  0  0  0  0
 18 35  1  0  0  0  0
 19 32  1  0  0  0  0
 19 33  2  0  0  0  0
 19 36  1  0  0  0  0
 20 22  2  0  0  0  0
 20 41  1  0  0  0  0
 21 23  2  0  0  0  0
 21 42  1  0  0  0  0
 22 50  1  0  0  0  0
 23 43  1  0  0  0  0
 24 25  1  0  0  0  0
 24 53  1  0  0  0  0
 25 71  1  0  0  0  0
 26 81  1  0  0  0  0
 27 82  1  0  0  0  0
 28 31  2  0  0  0  0
 28 81  1  0  0  0  0
 29 83  1  0  0  0  0
 30 84  1  0  0  0  0
 31 85  1  0  0  0  0
 32 64  2  0  0  0  0
 33 66  1  0  0  0  0
 33 69  1  0  0  0  0
 34 59  1  0  0  0  0
 34 65  2  0  0  0  0
 35 65  1  0  0  0  0
 35 74  2  0  0  0  0
 36 70  1  0  0  0  0
 36 76  2  0  0  0  0
 37 51  1  0  0  0  0
 37 72  1  0  0  0  0
 37 77  2  0  0  0  0
 38 61  1  0  0  0  0
 38 67  1  0  0  0  0
 38 78  2  0  0  0  0
 39 62  1  0  0  0  0
 39 73  1  0  0  0  0
 39 79  2  0  0  0  0
 40 68  1  0  0  0  0
 40 71  1  0  0  0  0
 40 80  2  0  0  0  0
 41 44  1  0  0  0  0
 42 51  1  0  0  0  0
 43 67  1  0  0  0  0
 44 46  1  0  0  0  0
 45 47  1  0  0  0  0
 45 48  1  0  0  0  0
 46 50  1  0  0  0  0
 47 52  1  0  0  0  0
 48 68  1  0  0  0  0
 49 52  1  0  0  0  0
 49 68  1  0  0  0  0
 50 72  1  0  0  0  0
 51 67  1  0  0  0  0
 52 66  1  0  0  0  0
 54 62  1  0  0  0  0
 55 63  1  0  0  0  0
 56 63  1  0  0  0  0
 57 63  1  0  0  0  0
 58 75  1  0  0  0  0
 59 60  1  0  0  0  0
 60 82  1  0  0  0  0
 61 63  1  0  0  0  0
 61 73  1  0  0  0  0
 62 75  1  0  0  0  0
 64 66  1  0  0  0  0
M  CHG  2  74   1  75   1
M  ISO  4  40 100  60 101  71 100  82 101
M  END
> <Batch ID>
0041

> <Smiles>
CNC(C)C(=O)NC(C(=O)N1Cc2cc([101O:1][101CH2:1]CC=NC(=N)c3cc(F)cc([100NH:0][100C:0](=O)N4CCCC(n5nc(-c6ccc(Oc7ccc(F)cc7F)cc6)c(C(N)=O)c5N)C4)c3C)ccc2CC1C(=O)NC1CCCc2ccccc21)C(C)(C)C

> <Shape>
0.231

> <Color>
0.100

> <Negative vol penalty>
0.000

$$$$

  -OEChem-04042322093D

 94103  0     1  0  0  0  0  0999 V2000
  -18.4954  -25.2647   20.0606 C   0  0  0  0  0  0  0  0  0  0  0  0
  -19.6695  -25.7520   19.4954 C   0  0  0  0  0  0  0  0  0  0  0  0
  -25.2520  -13.5996   21.7240 C   0  0  0  0  0  0  0  0  0  0  0  0
  -26.4217  -13.5291   19.6112 C   0  0  0  0  0  0  0  0  0  0  0  0
  -18.1041  -25.6914   21.3289 C   0  0  0  0  0  0  0  0  0  0  0  0
  -20.4525  -26.6673   20.1980 C   0  0  0  0  0  0  0  0  0  0  0  0
  -25.3880  -25.5487   20.0103 C   0  0  0  0  0  0  0  0  0  0  0  0
  -24.3790  -12.6094   21.2738 C   0  0  0  0  0  0  0  0  0  0  0  0
  -25.5486  -12.5388   19.1609 C   0  0  0  0  0  0  0  0  0  0  0  0
  -26.0706  -25.8746   18.8392 C   0  0  0  0  0  0  0  0  0  0  0  0
  -24.4077   -9.2501   20.8895 C   0  0  0  0  0  0  0  0  0  0  0  0
  -24.1148   -8.1998   21.7593 C   0  0  0  0  0  0  0  0  0  0  0  0
  -28.2733  -22.3482   16.7074 C   0  0  0  0  0  0  0  0  0  0  0  0
  -26.9385  -27.8576   19.9040 C   0  0  0  0  0  0  0  0  0  0  0  0
  -29.5364  -20.7508   14.8279 C   0  0  0  0  0  0  0  0  0  0  0  0
  -21.7732   -8.7902   21.6837 C   0  0  0  0  0  0  0  0  0  0  0  0
  -26.2734  -14.0595   20.8927 C   0  0  0  0  0  0  0  0  0  0  0  0
  -28.3936  -14.8973   22.0375 C   0  0  0  0  0  0  0  0  0  0  0  0
  -18.8877  -26.6050   22.0514 C   0  0  0  0  0  0  0  0  0  0  0  0
  -25.4669  -26.3820   21.1355 C   0  0  0  0  0  0  0  0  0  0  0  0
  -20.0707  -27.1077   21.4766 C   0  0  0  0  0  0  0  0  0  0  0  0
  -28.4054  -22.8257   15.3873 C   0  0  0  0  0  0  0  0  0  0  0  0
  -26.2580  -27.5387   21.0891 C   0  0  0  0  0  0  0  0  0  0  0  0
  -29.0628  -22.0182   14.4304 C   0  0  0  0  0  0  0  0  0  0  0  0
  -28.7605  -21.0969   17.0794 C   0  0  0  0  0  0  0  0  0  0  0  0
  -24.5273  -12.0789   19.9923 C   0  0  0  0  0  0  0  0  0  0  0  0
  -26.8437  -27.0307   18.7850 C   0  0  0  0  0  0  0  0  0  0  0  0
  -23.3833  -10.0706   20.4168 C   0  0  0  0  0  0  0  0  0  0  0  0
  -22.7975   -7.9698   22.1564 C   0  0  0  0  0  0  0  0  0  0  0  0
  -22.0661   -9.8406   20.8139 C   0  0  0  0  0  0  0  0  0  0  0  0
  -29.3901  -20.2959   16.1376 C   0  0  0  0  0  0  0  0  0  0  0  0
  -27.1752  -15.0828   21.3570 C   0  0  0  0  0  0  0  0  0  0  0  0
  -28.8631  -16.1698   22.2540 C   0  0  0  0  0  0  0  0  0  0  0  0
  -29.0429  -13.6834   22.4379 C   0  0  0  0  0  0  0  0  0  0  0  0
  -23.3723  -28.0732   22.8256 C   0  0  0  0  0  0  0  0  0  0  0  0
  -25.9306  -28.5855   24.7531 C   0  0  0  0  0  0  0  0  0  0  0  0
  -29.3241  -28.7216   25.0888 C   0  0  0  0  0  0  0  0  0  0  0  0
  -27.9817  -21.3770   19.4588 C   0  0  0  0  0  0  0  0  0  0  0  0
  -18.3996  -27.0731   23.3994 C   0  0  0  0  0  0  0  0  0  0  0  0
  -24.7459  -26.0024   22.3999 C   0  0  0  0  0  0  0  0  0  0  0  0
  -29.2685  -22.4155   12.9841 C   0  0  0  0  0  0  0  0  0  0  0  0
  -26.3919  -28.4560   22.2761 C   0  0  0  0  0  0  0  0  0  0  0  0
  -27.8474  -24.2023   15.1028 C   0  0  0  0  0  0  0  0  0  0  0  0
  -19.4786  -27.7589   24.2335 C   0  0  0  0  0  0  0  0  0  0  0  0
  -30.7284  -22.5018   12.5093 C   0  0  0  0  0  0  0  0  0  0  0  0
  -31.7020  -23.3563   13.3309 C   0  0  0  0  0  0  0  0  0  0  0  0
  -31.5932  -24.8781   13.1634 C   0  0  0  0  0  0  0  0  0  0  0  0
  -27.3407  -20.6658   22.8882 C   0  0  0  0  0  0  0  0  0  0  0  0
  -30.3283  -25.5426   13.7073 C   0  0  0  0  0  0  0  0  0  0  0  0
  -20.2450  -28.7705   23.3872 C   0  0  0  0  0  0  0  0  0  0  0  0
  -27.3425  -19.1366   22.9478 C   0  0  0  0  0  0  0  0  0  0  0  0
  -26.7205  -21.1821   21.5910 C   0  0  0  0  0  0  0  0  0  0  0  0
  -27.2973  -19.0921   20.4213 C   0  0  0  0  0  0  0  0  0  0  0  0
  -30.1435  -25.3468   15.2098 C   0  0  0  0  0  0  0  0  0  0  0  0
  -20.9596  -28.0827   22.2177 C   0  0  1  0  0  0  0  0  0  0  0  0
  -24.4848  -27.1919   23.3188 C   0  0  1  0  0  0  0  0  0  0  0  0
  -27.9712  -18.5240   21.6809 C   0  0  2  0  0  0  0  0  0  0  0  0
  -26.0775  -34.1384   14.0915 C   0  0  0  0  0  0  0  0  0  0  0  0
  -31.1190  -29.2032   26.7751 C   0  0  0  0  0  0  0  0  0  0  0  0
  -25.3711  -31.5736   24.4918 C   0  0  0  0  0  0  0  0  0  0  0  0
  -27.6755  -32.0108   25.3674 C   0  0  0  0  0  0  0  0  0  0  0  0
  -26.0048  -30.8283   26.7934 C   0  0  0  0  0  0  0  0  0  0  0  0
  -30.4439  -25.9927   24.8481 C   0  0  0  0  0  0  0  0  0  0  0  0
  -25.3662  -32.8329   14.4128 C   0  0  0  0  0  0  0  0  0  0  0  0
  -26.3524  -31.7616   14.8798 C   0  0  0  0  0  0  0  0  0  0  0  0
  -25.6866  -30.4214   15.2051 C   0  0  0  0  0  0  0  0  0  0  0  0
  -26.6769  -29.3415   15.6484 C   0  0  0  0  0  0  0  0  0  0  0  0
  -25.9589  -28.0166   15.9344 C   0  0  0  0  0  0  0  0  0  0  0  0
  -28.0194  -26.6944   15.3718 C   0  0  0  0  0  0  0  0  0  0  0  0
  -27.0273  -29.6206   24.8216 C   0  0  1  0  0  0  0  0  0  0  0  0
  -30.2580  -28.1292   26.1286 C   0  0  2  0  0  0  0  0  0  0  0  0
  -26.9251  -26.9241   16.4105 C   0  0  1  0  0  0  0  0  0  1  0  0
  -26.5158  -30.9922   25.3454 C   0  0  0  0  0  0  0  0  0  0  0  0
  -26.8886  -16.3716   21.1548 N   0  0  0  0  0  0  0  0  0  0  0  0
  -27.9335  -17.0075   21.7115 N   0  0  0  0  0  0  0  0  0  0  0  0
  -25.6628  -28.0452   23.4873 N   0  0  0  0  0  0  0  0  0  0  0  0
  -27.3689  -20.5616   20.4337 N   0  0  0  0  0  0  0  0  0  0  0  0
  -29.9763  -16.6426   22.8536 N   0  0  0  0  0  0  0  0  0  0  0  0
  -28.4228  -12.4631   22.1363 N   0  0  0  0  0  0  0  0  0  0  0  0
  -28.5941  -20.6743   18.4216 N   0  0  0  0  0  0  0  0  0  0  0  0
  -22.1623  -27.4224   22.6783 N   0  0  0  0  0  0  0  0  0  0  0  0
  -28.0932  -29.0334   25.6263 N   0  0  0  0  0  0  0  0  0  0  0  0
  -28.6861  -25.3675   15.6218 N   0  3  1  0  0  0  0  0  0  0  0  0
  -31.1575  -27.1198   25.5018 N   0  3  0  0  0  0  0  0  0  0  0  0
  -30.1323  -13.6812   23.0598 O   0  0  0  0  0  0  0  0  0  0  0  0
  -23.5950  -29.2564   22.5971 O   0  0  0  0  0  0  0  0  0  0  0  0
  -25.3383  -28.2628   25.7859 O   0  0  0  0  0  0  0  0  0  0  0  0
  -29.6547  -28.8943   23.9177 O   0  0  0  0  0  0  0  0  0  0  0  0
  -27.9879  -22.6071   19.5523 O   0  0  0  0  0  0  0  0  0  0  0  0
  -23.6756  -11.1125   19.5527 O   0  0  0  0  0  0  0  0  0  0  0  0
  -27.5142  -27.3532   17.6365 O   0  0  0  0  0  0  0  0  0  1  0  0
  -22.5162   -6.9602   22.9904 F   0  0  0  0  0  0  0  0  0  0  0  0
  -21.0777  -10.6246   20.3622 F   0  0  0  0  0  0  0  0  0  0  0  0
  -30.0071  -18.7344   16.5433 Cl  0  0  0  0  0  0  0  0  0  0  0  0
  1  2  1  0  0  0  0
  1  5  2  0  0  0  0
  2  6  2  0  0  0  0
  3  8  2  0  0  0  0
  3 17  1  0  0  0  0
  4  9  1  0  0  0  0
  4 17  2  0  0  0  0
  5 19  1  0  0  0  0
  6 21  1  0  0  0  0
  7 10  2  0  0  0  0
  7 20  1  0  0  0  0
  8 26  1  0  0  0  0
  9 26  2  0  0  0  0
 10 27  1  0  0  0  0
 11 12  2  0  0  0  0
 11 28  1  0  0  0  0
 12 29  1  0  0  0  0
 13 22  1  0  0  0  0
 13 25  2  0  0  0  0
 14 23  1  0  0  0  0
 14 27  2  0  0  0  0
 15 24  1  0  0  0  0
 15 31  2  0  0  0  0
 16 29  2  0  0  0  0
 16 30  1  0  0  0  0
 17 32  1  0  0  0  0
 18 32  1  0  0  0  0
 18 33  2  0  0  0  0
 18 34  1  0  0  0  0
 19 21  2  0  0  0  0
 19 39  1  0  0  0  0
 20 23  2  0  0  0  0
 20 40  1  0  0  0  0
 21 55  1  0  0  0  0
 22 24  2  0  0  0  0
 22 43  1  0  0  0  0
 23 42  1  0  0  0  0
 24 41  1  0  0  0  0
 25 31  1  0  0  0  0
 25 80  1  0  0  0  0
 26 90  1  0  0  0  0
 27 91  1  0  0  0  0
 28 30  2  0  0  0  0
 28 90  1  0  0  0  0
 29 92  1  0  0  0  0
 30 93  1  0  0  0  0
 31 94  1  0  0  0  0
 32 74  2  0  0  0  0
 33 75  1  0  0  0  0
 33 78  1  0  0  0  0
 34 79  1  0  0  0  0
 34 85  2  0  0  0  0
 35 56  1  0  0  0  0
 35 81  1  0  0  0  0
 35 86  2  0  0  0  0
 36 70  1  0  0  0  0
 36 76  1  0  0  0  0
 36 87  2  0  0  0  0
 37 71  1  0  0  0  0
 37 82  1  0  0  0  0
 37 88  2  0  0  0  0
 38 77  1  0  0  0  0
 38 80  1  0  0  0  0
 38 89  2  0  0  0  0
 39 44  1  0  0  0  0
 40 56  1  0  0  0  0
 41 45  1  0  0  0  0
 42 76  1  0  0  0  0
 43 83  1  0  0  0  0
 44 50  1  0  0  0  0
 45 46  1  0  0  0  0
 46 47  1  0  0  0  0
 47 49  1  0  0  0  0
 48 51  1  0  0  0  0
 48 52  1  0  0  0  0
 49 54  1  0  0  0  0
 50 55  1  0  0  0  0
 51 57  1  0  0  0  0
 52 77  1  0  0  0  0
 53 57  1  0  0  0  0
 53 77  1  0  0  0  0
 54 83  1  0  0  0  0
 55 81  1  0  0  0  0
 56 76  1  0  0  0  0
 57 75  1  0  0  0  0
 58 64  1  0  0  0  0
 59 71  1  0  0  0  0
 60 73  1  0  0  0  0
 61 73  1  0  0  0  0
 62 73  1  0  0  0  0
 63 84  1  0  0  0  0
 64 65  1  0  0  0  0
 65 66  1  0  0  0  0
 66 67  1  0  0  0  0
 67 68  1  0  0  0  0
 68 72  1  0  0  0  0
 69 72  1  0  0  0  0
 69 83  1  0  0  0  0
 70 73  1  0  0  0  0
 70 82  1  0  0  0  0
 71 84  1  0  0  0  0
 72 91  1  0  0  0  0
 74 75  1  0  0  0  0
M  CHG  2  83   1  84   1
M  ISO  4  38 100  72 101  80 100  91 101
M  END
> <Batch ID>
0041

> <Smiles>
CCCCCC[101CH:1](CN1CCCCCCc2cc(Cl)c([100NH:0][100C:0](=O)N3CCCC(n4nc(-c5ccc(Oc6ccc(F)cc6F)cc5)c(C(N)=O)c4N)C3)cc2C1)[101O:1]c1ccc2c(c1)CN(C(=O)C(NC(=O)C(C)NC)C(C)(C)C)C(C(=O)NC1CCCc3ccccc31)C2

> <Shape>
0.234

> <Color>
0.081

> <Negative vol penalty>
0.000

$$$$

  -OEChem-04042322093D

 86 94  0     1  0  0  0  0  0999 V2000
  -30.5097  -23.2602   25.1135 C   0  0  0  0  0  0  0  0  0  0  0  0
  -29.1298  -23.3934   24.9970 C   0  0  0  0  0  0  0  0  0  0  0  0
  -29.7018  -28.8169   18.5815 C   0  0  0  0  0  0  0  0  0  0  0  0
  -29.2793  -27.0780   20.2046 C   0  0  0  0  0  0  0  0  0  0  0  0
  -31.2100  -22.4584   24.2132 C   0  0  0  0  0  0  0  0  0  0  0  0
  -28.4495  -22.7255   23.9794 C   0  0  0  0  0  0  0  0  0  0  0  0
  -22.8184  -20.3353   24.2680 C   0  0  0  0  0  0  0  0  0  0  0  0
  -19.7363  -28.0079   21.2477 C   0  0  0  0  0  0  0  0  0  0  0  0
  -19.2676  -26.8206   20.6852 C   0  0  0  0  0  0  0  0  0  0  0  0
  -31.0358  -28.4176   18.5009 C   0  0  0  0  0  0  0  0  0  0  0  0
  -30.6134  -26.6787   20.1241 C   0  0  0  0  0  0  0  0  0  0  0  0
  -21.5761  -20.8078   23.8469 C   0  0  0  0  0  0  0  0  0  0  0  0
  -32.5477  -24.8690   18.0255 C   0  0  0  0  0  0  0  0  0  0  0  0
  -32.8088  -23.5022   17.9290 C   0  0  0  0  0  0  0  0  0  0  0  0
  -21.8036  -19.5600   21.7950 C   0  0  0  0  0  0  0  0  0  0  0  0
  -19.1168  -27.2123   23.4432 C   0  0  0  0  0  0  0  0  0  0  0  0
  -34.0826  -23.6009   19.9796 C   0  0  0  0  0  0  0  0  0  0  0  0
  -28.8235  -28.1471   19.4334 C   0  0  0  0  0  0  0  0  0  0  0  0
  -26.3696  -28.0932   18.7383 C   0  0  0  0  0  0  0  0  0  0  0  0
  -30.5367  -21.7727   23.1899 C   0  0  0  0  0  0  0  0  0  0  0  0
  -23.5688  -19.4788   23.4496 C   0  0  0  0  0  0  0  0  0  0  0  0
  -29.1416  -21.9148   23.0637 C   0  0  0  0  0  0  0  0  0  0  0  0
  -23.0540  -19.0760   22.2091 C   0  0  0  0  0  0  0  0  0  0  0  0
  -19.6609  -28.2037   22.6267 C   0  0  0  0  0  0  0  0  0  0  0  0
  -18.7235  -25.8292   21.5017 C   0  0  0  0  0  0  0  0  0  0  0  0
  -18.6481  -26.0250   22.8807 C   0  0  0  0  0  0  0  0  0  0  0  0
  -31.4917  -27.3485   19.2722 C   0  0  0  0  0  0  0  0  0  0  0  0
  -21.0699  -20.4225   22.6091 C   0  0  0  0  0  0  0  0  0  0  0  0
  -33.0541  -25.6018   19.0989 C   0  0  0  0  0  0  0  0  0  0  0  0
  -33.5762  -22.8682   18.9060 C   0  0  0  0  0  0  0  0  0  0  0  0
  -33.8215  -24.9677   20.0760 C   0  0  0  0  0  0  0  0  0  0  0  0
  -27.4455  -28.5594   19.5174 C   0  0  0  0  0  0  0  0  0  0  0  0
  -25.2815  -28.7905   19.2033 C   0  0  0  0  0  0  0  0  0  0  0  0
  -26.3552  -27.1171   17.6882 C   0  0  0  0  0  0  0  0  0  0  0  0
  -26.4116  -19.6461   22.0375 C   0  0  0  0  0  0  0  0  0  0  0  0
  -25.7761  -16.5600   21.2663 C   0  0  0  0  0  0  0  0  0  0  0  0
  -23.4418  -14.1252   20.7471 C   0  0  0  0  0  0  0  0  0  0  0  0
  -22.2392  -30.8171   23.4203 C   0  0  0  0  0  0  0  0  0  0  0  0
  -31.3425  -20.9551   22.2118 C   0  0  0  0  0  0  0  0  0  0  0  0
  -24.8951  -18.9566   23.9298 C   0  0  0  0  0  0  0  0  0  0  0  0
  -23.8111  -18.1421   21.3018 C   0  0  0  0  0  0  0  0  0  0  0  0
  -30.4993  -19.9831   21.3904 C   0  0  0  0  0  0  0  0  0  0  0  0
  -25.0048  -32.7684   22.3155 C   0  0  0  0  0  0  0  0  0  0  0  0
  -29.2566  -20.6815   20.8475 C   0  0  0  0  0  0  0  0  0  0  0  0
  -25.8003  -31.8073   21.4304 C   0  0  0  0  0  0  0  0  0  0  0  0
  -24.3852  -32.0511   23.5129 C   0  0  0  0  0  0  0  0  0  0  0  0
  -24.3596  -29.9130   22.2875 C   0  0  0  0  0  0  0  0  0  0  0  0
  -28.3649  -21.1865   21.9883 C   0  0  1  0  0  0  0  0  0  0  0  0
  -25.8038  -18.4984   22.7932 C   0  0  1  0  0  0  0  0  0  0  0  0
  -24.9570  -30.5796   21.0366 C   0  0  2  0  0  0  0  0  0  0  0  0
  -23.2240  -11.7131   20.0901 C   0  0  0  0  0  0  0  0  0  0  0  0
  -16.5655  -25.1579   23.9624 C   0  0  0  0  0  0  0  0  0  0  0  0
  -26.3223  -17.3052   18.3584 C   0  0  0  0  0  0  0  0  0  0  0  0
  -25.1903  -15.1797   17.6738 C   0  0  0  0  0  0  0  0  0  0  0  0
  -27.2604  -15.0967   19.0632 C   0  0  0  0  0  0  0  0  0  0  0  0
  -22.1725  -13.4174   23.3252 C   0  0  0  0  0  0  0  0  0  0  0  0
  -20.1616  -29.4734   23.2278 C   0  0  0  0  0  0  0  0  0  0  0  0
  -18.2249  -24.5611   20.8737 C   0  0  0  0  0  0  0  0  0  0  0  0
  -18.6412  -22.1221   20.5322 C   0  0  0  0  0  0  0  0  0  0  0  0
  -19.6664  -21.0355   20.7896 C   0  0  0  0  0  0  0  0  0  1  0  0
  -25.0928  -15.8651   20.1134 C   0  0  1  0  0  0  0  0  0  0  0  0
  -23.3511  -12.6941   21.2452 C   0  0  2  0  0  0  0  0  0  0  0  0
  -18.0693  -24.9779   23.7746 C   0  0  0  0  0  0  0  0  0  0  0  0
  -25.9528  -15.8808   18.8182 C   0  0  0  0  0  0  0  0  0  0  0  0
  -27.0745  -29.4816   20.4096 N   0  0  0  0  0  0  0  0  0  0  0  0
  -25.7534  -29.6006   20.1939 N   0  0  0  0  0  0  0  0  0  0  0  0
  -25.1061  -17.6636   21.8132 N   0  0  0  0  0  0  0  0  0  0  0  0
  -23.5973  -30.8979   23.0709 N   0  0  0  0  0  0  0  0  0  0  0  0
  -23.9766  -28.7836   18.8574 N   0  0  0  0  0  0  0  0  0  0  0  0
  -27.5615  -26.4965   17.3362 N   0  0  0  0  0  0  0  0  0  0  0  0
  -27.6096  -20.0931   22.5614 N   0  0  0  0  0  0  0  0  0  0  0  0
  -24.7507  -14.5284   20.5874 N   0  0  0  0  0  0  0  0  0  0  0  0
  -21.5643  -29.6949   22.9557 N   0  0  0  0  0  0  0  0  0  0  0  0
  -22.1666  -12.5292   22.1343 N   0  3  0  0  0  0  0  0  0  0  0  0
  -19.1365  -23.4054   21.0909 N   0  3  0  0  0  0  0  0  0  0  0  0
  -25.3065  -26.8165   17.0689 O   0  0  0  0  0  0  0  0  0  0  0  0
  -25.8370  -20.0920   21.0513 O   0  0  0  0  0  0  0  0  0  0  0  0
  -26.8608  -16.1349   21.6716 O   0  0  0  0  0  0  0  0  0  0  0  0
  -22.4507  -14.8151   20.5186 O   0  0  0  0  0  0  0  0  0  0  0  0
  -21.6690  -31.6836   24.0919 O   0  0  0  0  0  0  0  0  0  0  0  0
  -32.7933  -26.9585   19.1937 O   0  0  0  0  0  0  0  0  0  0  0  0
  -19.8579  -20.8828   22.1954 O   0  0  0  0  0  0  0  0  0  1  0  0
  -33.8256  -21.5553   18.8141 F   0  0  0  0  0  0  0  0  0  0  0  0
  -34.3097  -25.6662   21.1102 F   0  0  0  0  0  0  0  0  0  0  0  0
  -18.6331  -24.9709   25.0242 F   0  0  0  0  0  0  0  0  0  0  0  0
  -18.2669  -23.7053   23.3045 F   0  0  0  0  0  0  0  0  0  0  0  0
  1  2  1  0  0  0  0
  1  5  2  0  0  0  0
  2  6  2  0  0  0  0
  3 10  2  0  0  0  0
  3 18  1  0  0  0  0
  4 11  1  0  0  0  0
  4 18  2  0  0  0  0
  5 20  1  0  0  0  0
  6 22  1  0  0  0  0
  7 12  2  0  0  0  0
  7 21  1  0  0  0  0
  8  9  2  0  0  0  0
  8 24  1  0  0  0  0
  9 25  1  0  0  0  0
 10 27  1  0  0  0  0
 11 27  2  0  0  0  0
 12 28  1  0  0  0  0
 13 14  2  0  0  0  0
 13 29  1  0  0  0  0
 14 30  1  0  0  0  0
 15 23  1  0  0  0  0
 15 28  2  0  0  0  0
 16 24  2  0  0  0  0
 16 26  1  0  0  0  0
 17 30  2  0  0  0  0
 17 31  1  0  0  0  0
 18 32  1  0  0  0  0
 19 32  1  0  0  0  0
 19 33  2  0  0  0  0
 19 34  1  0  0  0  0
 20 22  2  0  0  0  0
 20 39  1  0  0  0  0
 21 23  2  0  0  0  0
 21 40  1  0  0  0  0
 22 48  1  0  0  0  0
 23 41  1  0  0  0  0
 24 57  1  0  0  0  0
 25 26  2  0  0  0  0
 25 58  1  0  0  0  0
 26 63  1  0  0  0  0
 27 81  1  0  0  0  0
 28 82  1  0  0  0  0
 29 31  2  0  0  0  0
 29 81  1  0  0  0  0
 30 83  1  0  0  0  0
 31 84  1  0  0  0  0
 32 65  2  0  0  0  0
 33 66  1  0  0  0  0
 33 69  1  0  0  0  0
 34 70  1  0  0  0  0
 34 76  2  0  0  0  0
 35 49  1  0  0  0  0
 35 71  1  0  0  0  0
 35 77  2  0  0  0  0
 36 61  1  0  0  0  0
 36 67  1  0  0  0  0
 36 78  2  0  0  0  0
 37 62  1  0  0  0  0
 37 72  1  0  0  0  0
 37 79  2  0  0  0  0
 38 68  1  0  0  0  0
 38 73  1  0  0  0  0
 38 80  2  0  0  0  0
 39 42  1  0  0  0  0
 40 49  1  0  0  0  0
 41 67  1  0  0  0  0
 42 44  1  0  0  0  0
 43 45  1  0  0  0  0
 43 46  1  0  0  0  0
 44 48  1  0  0  0  0
 45 50  1  0  0  0  0
 46 68  1  0  0  0  0
 47 50  1  0  0  0  0
 47 68  1  0  0  0  0
 48 71  1  0  0  0  0
 49 67  1  0  0  0  0
 50 66  1  0  0  0  0
 51 62  1  0  0  0  0
 52 63  1  0  0  0  0
 53 64  1  0  0  0  0
 54 64  1  0  0  0  0
 55 64  1  0  0  0  0
 56 74  1  0  0  0  0
 57 73  1  0  0  0  0
 58 75  1  0  0  0  0
 59 60  1  0  0  0  0
 59 75  1  0  0  0  0
 60 82  1  0  0  0  0
 61 64  1  0  0  0  0
 61 72  1  0  0  0  0
 62 74  1  0  0  0  0
 63 85  1  0  0  0  0
 63 86  1  0  0  0  0
 65 66  1  0  0  0  0
M  CHG  2  74   1  75   1
M  ISO  4  38 100  60 101  73 100  82 101
M  END
> <Batch ID>
0041

> <Smiles>
CNC(C)C(=O)NC(C(=O)N1Cc2cc([101O:1][101CH2:1]CNCc3ccc(C[100NH:0][100C:0](=O)N4CCCC(n5nc(-c6ccc(Oc7ccc(F)cc7F)cc6)c(C(N)=O)c5N)C4)cc3C(C)(F)F)ccc2CC1C(=O)NC1CCCc2ccccc21)C(C)(C)C

> <Shape>
0.192

> <Color>
0.074

> <Negative vol penalty>
0.000

$$$$

  -OEChem-04042322093D

 88 97  0     1  0  0  0  0  0999 V2000
  -30.9457  -36.7138   20.3511 C   0  0  0  0  0  0  0  0  0  0  0  0
  -29.7345  -36.1343   19.9872 C   0  0  0  0  0  0  0  0  0  0  0  0
  -26.7315  -12.3940   21.6464 C   0  0  0  0  0  0  0  0  0  0  0  0
  -25.7608  -14.0674   20.1992 C   0  0  0  0  0  0  0  0  0  0  0  0
  -32.0385  -35.9056   20.6616 C   0  0  0  0  0  0  0  0  0  0  0  0
  -29.6157  -34.7460   19.9325 C   0  0  0  0  0  0  0  0  0  0  0  0
  -24.6664  -31.4171   21.3214 C   0  0  0  0  0  0  0  0  0  0  0  0
  -25.4846  -11.7824   21.7755 C   0  0  0  0  0  0  0  0  0  0  0  0
  -24.5139  -13.4557   20.3282 C   0  0  0  0  0  0  0  0  0  0  0  0
  -23.6703  -30.8434   20.5325 C   0  0  0  0  0  0  0  0  0  0  0  0
  -22.6297   -9.5716   22.1963 C   0  0  0  0  0  0  0  0  0  0  0  0
  -22.5744   -8.1822   22.0864 C   0  0  0  0  0  0  0  0  0  0  0  0
  -24.8638  -28.7473   20.5604 C   0  0  0  0  0  0  0  0  0  0  0  0
  -27.4797  -22.8840   19.7350 C   0  0  0  0  0  0  0  0  0  0  0  0
  -25.0967  -22.2481   18.4313 C   0  0  0  0  0  0  0  0  0  0  0  0
  -23.4680   -8.3238   19.8462 C   0  0  0  0  0  0  0  0  0  0  0  0
  -26.8696  -13.5366   20.8583 C   0  0  0  0  0  0  0  0  0  0  0  0
  -29.3360  -13.5976   20.2097 C   0  0  0  0  0  0  0  0  0  0  0  0
  -31.9303  -34.5066   20.6201 C   0  0  0  0  0  0  0  0  0  0  0  0
  -25.7761  -30.6619   21.7273 C   0  0  0  0  0  0  0  0  0  0  0  0
  -30.7084  -33.9183   20.2415 C   0  0  0  0  0  0  0  0  0  0  0  0
  -25.8714  -29.3130   21.3565 C   0  0  0  0  0  0  0  0  0  0  0  0
  -26.6796  -23.8989   19.2102 C   0  0  0  0  0  0  0  0  0  0  0  0
  -25.4880  -23.5810   18.5584 C   0  0  0  0  0  0  0  0  0  0  0  0
  -27.0884  -21.5512   19.6079 C   0  0  0  0  0  0  0  0  0  0  0  0
  -24.3758  -12.3132   21.1164 C   0  0  0  0  0  0  0  0  0  0  0  0
  -23.7703  -29.5091   20.1495 C   0  0  0  0  0  0  0  0  0  0  0  0
  -23.1040  -10.3372   21.1311 C   0  0  0  0  0  0  0  0  0  0  0  0
  -22.9936   -7.5583   20.9114 C   0  0  0  0  0  0  0  0  0  0  0  0
  -23.5232   -9.7133   19.9561 C   0  0  0  0  0  0  0  0  0  0  0  0
  -25.8969  -21.2333   18.9560 C   0  0  0  0  0  0  0  0  0  0  0  0
  -28.1573  -14.1693   20.7250 C   0  0  0  0  0  0  0  0  0  0  0  0
  -30.2709  -14.5999   20.2983 C   0  0  0  0  0  0  0  0  0  0  0  0
  -22.7122  -24.6235   19.4791 C   0  0  0  0  0  0  0  0  0  0  0  0
  -22.9420  -23.7307   20.4577 C   0  0  0  0  0  0  0  0  0  0  0  0
  -29.5653  -12.2786   19.6966 C   0  0  0  0  0  0  0  0  0  0  0  0
  -28.9132  -30.8507   21.2515 C   0  0  0  0  0  0  0  0  0  0  0  0
  -28.9893  -28.3993   23.3745 C   0  0  0  0  0  0  0  0  0  0  0  0
  -27.3577  -25.7853   24.8414 C   0  0  0  0  0  0  0  0  0  0  0  0
  -29.1400  -20.7134   20.8199 C   0  0  0  0  0  0  0  0  0  0  0  0
  -33.1525  -33.6748   20.9184 C   0  0  0  0  0  0  0  0  0  0  0  0
  -26.8287  -31.2882   22.6003 C   0  0  0  0  0  0  0  0  0  0  0  0
  -27.0324  -28.4536   21.7830 C   0  0  0  0  0  0  0  0  0  0  0  0
  -21.3443  -24.7917   18.8763 C   0  0  0  0  0  0  0  0  0  0  0  0
  -32.8371  -32.2078   21.1995 C   0  0  0  0  0  0  0  0  0  0  0  0
  -20.5625  -25.9083   19.5659 C   0  0  0  0  0  0  0  0  0  0  0  0
  -31.0585  -18.4967   23.0703 C   0  0  0  0  0  0  0  0  0  0  0  0
  -31.8674  -31.6610   20.1567 C   0  0  0  0  0  0  0  0  0  0  0  0
  -30.8500  -17.0757   22.5444 C   0  0  0  0  0  0  0  0  0  0  0  0
  -21.0766  -27.3153   19.2748 C   0  0  0  0  0  0  0  0  0  0  0  0
  -31.0066  -19.5486   21.9709 C   0  0  0  0  0  0  0  0  0  0  0  0
  -29.1744  -18.1655   20.9705 C   0  0  0  0  0  0  0  0  0  0  0  0
  -23.4703  -26.7969   18.5638 C   0  0  0  0  0  0  0  0  0  0  0  0
  -30.5331  -32.4159   20.1947 C   0  0  1  0  0  0  0  0  0  0  0  0
  -28.1716  -30.5679   22.5273 C   0  0  1  0  0  0  0  0  0  0  0  0
  -30.2020  -17.0371   21.1502 C   0  0  2  0  0  0  0  0  0  0  0  0
  -22.5660  -27.5436   19.5460 C   0  0  1  0  0  0  0  0  0  1  0  0
  -27.1211  -25.3183   19.3555 C   0  0  0  0  0  0  0  0  0  0  0  0
  -27.6915  -23.9423   26.5114 C   0  0  0  0  0  0  0  0  0  0  0  0
  -30.6155  -26.8356   21.3201 C   0  0  0  0  0  0  0  0  0  0  0  0
  -30.1051  -24.7495   22.6070 C   0  0  0  0  0  0  0  0  0  0  0  0
  -31.4034  -26.5891   23.6808 C   0  0  0  0  0  0  0  0  0  0  0  0
  -25.2123  -26.8272   26.5937 C   0  0  0  0  0  0  0  0  0  0  0  0
  -24.6114  -24.6554   17.9857 C   0  0  0  0  0  0  0  0  0  0  0  0
  -28.9270  -26.8944   23.2725 C   0  0  1  0  0  0  0  0  0  0  0  0
  -27.2203  -25.3720   26.2956 C   0  0  2  0  0  0  0  0  0  0  0  0
  -30.2417  -26.2836   22.7103 C   0  0  0  0  0  0  0  0  0  0  0  0
  -28.3254  -15.4364   21.1125 N   0  0  0  0  0  0  0  0  0  0  0  0
  -29.6207  -15.6692   20.8405 N   0  0  0  0  0  0  0  0  0  0  0  0
  -28.0391  -29.1133   22.6308 N   0  0  0  0  0  0  0  0  0  0  0  0
  -29.7369  -19.4998   21.2401 N   0  0  0  0  0  0  0  0  0  0  0  0
  -31.5775  -14.6620   19.9646 N   0  0  0  0  0  0  0  0  0  0  0  0
  -29.3657  -12.0498   18.3284 N   0  0  0  0  0  0  0  0  0  0  0  0
  -27.9261  -20.5444   20.1491 N   0  0  0  0  0  0  0  0  0  0  0  0
  -29.7287  -31.9647   21.3099 N   0  0  0  0  0  0  0  0  0  0  0  0
  -28.5629  -26.4100   24.5996 N   0  0  0  0  0  0  0  0  0  0  0  0
  -23.8382  -25.4115   19.0385 N   0  3  2  0  0  0  0  0  0  0  0  0
  -25.7979  -25.4686   26.7295 N   0  3  0  0  0  0  0  0  0  0  0  0
  -29.9205  -11.3270   20.4328 O   0  0  0  0  0  0  0  0  0  0  0  0
  -28.7583  -30.1120   20.2861 O   0  0  0  0  0  0  0  0  0  0  0  0
  -29.8448  -28.9218   24.0933 O   0  0  0  0  0  0  0  0  0  0  0  0
  -26.4848  -25.5718   24.0029 O   0  0  0  0  0  0  0  0  0  0  0  0
  -29.6610  -21.8061   21.0533 O   0  0  0  0  0  0  0  0  0  0  0  0
  -23.1589  -11.7164   21.2420 O   0  0  0  0  0  0  0  0  0  0  0  0
  -22.7997  -28.9468   19.3790 O   0  0  0  0  0  0  0  0  0  1  0  0
  -22.9419   -6.2239   20.8066 F   0  0  0  0  0  0  0  0  0  0  0  0
  -23.9809  -10.4433   18.9298 F   0  0  0  0  0  0  0  0  0  0  0  0
  -25.3744  -19.5960   18.7769 Cl  0  0  0  0  0  0  0  0  0  0  0  0
  1  2  1  0  0  0  0
  1  5  2  0  0  0  0
  2  6  2  0  0  0  0
  3  8  2  0  0  0  0
  3 17  1  0  0  0  0
  4  9  1  0  0  0  0
  4 17  2  0  0  0  0
  5 19  1  0  0  0  0
  6 21  1  0  0  0  0
  7 10  2  0  0  0  0
  7 20  1  0  0  0  0
  8 26  1  0  0  0  0
  9 26  2  0  0  0  0
 10 27  1  0  0  0  0
 11 12  2  0  0  0  0
 11 28  1  0  0  0  0
 12 29  1  0  0  0  0
 13 22  1  0  0  0  0
 13 27  2  0  0  0  0
 14 23  1  0  0  0  0
 14 25  2  0  0  0  0
 15 24  1  0  0  0  0
 15 31  2  0  0  0  0
 16 29  2  0  0  0  0
 16 30  1  0  0  0  0
 17 32  1  0  0  0  0
 18 32  1  0  0  0  0
 18 33  2  0  0  0  0
 18 36  1  0  0  0  0
 19 21  2  0  0  0  0
 19 41  1  0  0  0  0
 20 22  2  0  0  0  0
 20 42  1  0  0  0  0
 21 54  1  0  0  0  0
 22 43  1  0  0  0  0
 23 24  2  0  0  0  0
 23 58  1  0  0  0  0
 24 64  1  0  0  0  0
 25 31  1  0  0  0  0
 25 74  1  0  0  0  0
 26 84  1  0  0  0  0
 27 85  1  0  0  0  0
 28 30  2  0  0  0  0
 28 84  1  0  0  0  0
 29 86  1  0  0  0  0
 30 87  1  0  0  0  0
 31 88  1  0  0  0  0
 32 68  2  0  0  0  0
 33 69  1  0  0  0  0
 33 72  1  0  0  0  0
 34 35  2  0  0  0  0
 34 44  1  0  0  0  0
 34 77  1  0  0  0  0
 36 73  1  0  0  0  0
 36 79  2  0  0  0  0
 37 55  1  0  0  0  0
 37 75  1  0  0  0  0
 37 80  2  0  0  0  0
 38 65  1  0  0  0  0
 38 70  1  0  0  0  0
 38 81  2  0  0  0  0
 39 66  1  0  0  0  0
 39 76  1  0  0  0  0
 39 82  2  0  0  0  0
 40 71  1  0  0  0  0
 40 74  1  0  0  0  0
 40 83  2  0  0  0  0
 41 45  1  0  0  0  0
 42 55  1  0  0  0  0
 43 70  1  0  0  0  0
 44 46  1  0  0  0  0
 45 48  1  0  0  0  0
 46 50  1  0  0  0  0
 47 49  1  0  0  0  0
 47 51  1  0  0  0  0
 48 54  1  0  0  0  0
 49 56  1  0  0  0  0
 50 57  1  0  0  0  0
 51 71  1  0  0  0  0
 52 56  1  0  0  0  0
 52 71  1  0  0  0  0
 53 57  1  0  0  0  0
 53 77  1  0  0  0  0
 54 75  1  0  0  0  0
 55 70  1  0  0  0  0
 56 69  1  0  0  0  0
 57 85  1  0  0  0  0
 59 66  1  0  0  0  0
 60 67  1  0  0  0  0
 61 67  1  0  0  0  0
 62 67  1  0  0  0  0
 63 78  1  0  0  0  0
 64 77  1  0  0  0  0
 65 67  1  0  0  0  0
 65 76  1  0  0  0  0
 66 78  1  0  0  0  0
 68 69  1  0  0  0  0
M  CHG  2  77   1  78   1
M  ISO  4  40 100  57 101  74 100  85 101
M  END
> <Batch ID>
0041

> <Smiles>
C=C1CCC[101CH:1]([101O:1]c2ccc3c(c2)CN(C(=O)C(NC(=O)C(C)NC)C(C)(C)C)C(C(=O)NC2CCCc4ccccc42)C3)CN1Cc1cc(Cl)c([100NH:0][100C:0](=O)N2CCCC(n3nc(-c4ccc(Oc5ccc(F)cc5F)cc4)c(C(N)=O)c3N)C2)cc1C

> <Shape>
0.229

> <Color>
0.068

> <Negative vol penalty>
0.000

$$$$

  -OEChem-04042322093D

 83 91  0     1  0  0  0  0  0999 V2000
  -26.7245  -34.4833   25.5157 C   0  0  0  0  0  0  0  0  0  0  0  0
  -27.1569  -33.2933   24.9391 C   0  0  0  0  0  0  0  0  0  0  0  0
  -24.6276  -13.4280   21.5452 C   0  0  0  0  0  0  0  0  0  0  0  0
  -26.2675  -13.2026   19.7854 C   0  0  0  0  0  0  0  0  0  0  0  0
  -25.3920  -34.6265   25.9000 C   0  0  0  0  0  0  0  0  0  0  0  0
  -26.2572  -32.2454   24.7475 C   0  0  0  0  0  0  0  0  0  0  0  0
  -26.6949  -30.1211   20.1714 C   0  0  0  0  0  0  0  0  0  0  0  0
  -28.7443  -23.6119   14.7188 C   0  0  0  0  0  0  0  0  0  0  0  0
  -24.5997  -12.0417   21.6968 C   0  0  0  0  0  0  0  0  0  0  0  0
  -26.2397  -11.8163   19.9370 C   0  0  0  0  0  0  0  0  0  0  0  0
  -27.7551  -29.2365   19.9789 C   0  0  0  0  0  0  0  0  0  0  0  0
  -23.2079   -9.3922   20.1260 C   0  0  0  0  0  0  0  0  0  0  0  0
  -21.9606   -8.7785   20.2406 C   0  0  0  0  0  0  0  0  0  0  0  0
  -27.7799  -22.9133   13.9926 C   0  0  0  0  0  0  0  0  0  0  0  0
  -26.2516  -27.3761   20.2909 C   0  0  0  0  0  0  0  0  0  0  0  0
  -22.5802   -7.9255   22.4145 C   0  0  0  0  0  0  0  0  0  0  0  0
  -25.4614  -14.0085   20.5895 C   0  0  0  0  0  0  0  0  0  0  0  0
  -26.3308  -16.3522   21.0983 C   0  0  0  0  0  0  0  0  0  0  0  0
  -24.4733  -33.5832   25.7042 C   0  0  0  0  0  0  0  0  0  0  0  0
  -25.4049  -29.6392   20.4364 C   0  0  0  0  0  0  0  0  0  0  0  0
  -24.9114  -32.3743   25.1308 C   0  0  0  0  0  0  0  0  0  0  0  0
  -25.1762  -28.2567   20.4839 C   0  0  0  0  0  0  0  0  0  0  0  0
  -28.7794  -23.5102   16.1096 C   0  0  0  0  0  0  0  0  0  0  0  0
  -27.8502  -22.7099   16.7740 C   0  0  0  0  0  0  0  0  0  0  0  0
  -26.8857  -22.0112   16.0478 C   0  0  0  0  0  0  0  0  0  0  0  0
  -25.4058  -11.2358   20.8927 C   0  0  0  0  0  0  0  0  0  0  0  0
  -27.5341  -27.8638   20.0415 C   0  0  0  0  0  0  0  0  0  0  0  0
  -24.1414   -9.2725   21.1555 C   0  0  0  0  0  0  0  0  0  0  0  0
  -21.6467   -8.0452   21.3849 C   0  0  0  0  0  0  0  0  0  0  0  0
  -23.8275   -8.5392   22.2998 C   0  0  0  0  0  0  0  0  0  0  0  0
  -26.8506  -22.1129   14.6571 C   0  0  0  0  0  0  0  0  0  0  0  0
  -25.4902  -15.4404   20.4320 C   0  0  0  0  0  0  0  0  0  0  0  0
  -25.9677  -17.5801   20.6016 C   0  0  0  0  0  0  0  0  0  0  0  0
  -27.3489  -16.1107   22.0786 C   0  0  0  0  0  0  0  0  0  0  0  0
  -23.3674  -29.9000   22.8621 C   0  0  0  0  0  0  0  0  0  0  0  0
  -21.3692  -28.3336   20.8433 C   0  0  0  0  0  0  0  0  0  0  0  0
  -21.0052  -26.2571   18.1595 C   0  0  0  0  0  0  0  0  0  0  0  0
  -24.6381  -20.9126   16.3437 C   0  0  0  0  0  0  0  0  0  0  0  0
  -23.0537  -33.7674   26.1791 C   0  0  0  0  0  0  0  0  0  0  0  0
  -24.2668  -30.6062   20.6153 C   0  0  0  0  0  0  0  0  0  0  0  0
  -23.8062  -27.6881   20.7453 C   0  0  0  0  0  0  0  0  0  0  0  0
  -22.0797  -32.7454   25.5985 C   0  0  0  0  0  0  0  0  0  0  0  0
  -22.0224  -18.9386   17.7361 C   0  0  0  0  0  0  0  0  0  0  0  0
  -22.6625  -31.3389   25.6932 C   0  0  0  0  0  0  0  0  0  0  0  0
  -22.7606  -17.9275   18.6164 C   0  0  0  0  0  0  0  0  0  0  0  0
  -22.7967  -19.2478   16.4560 C   0  0  0  0  0  0  0  0  0  0  0  0
  -24.9282  -18.6537   17.5389 C   0  0  0  0  0  0  0  0  0  0  0  0
  -23.9599  -31.2237   24.8839 C   0  0  1  0  0  0  0  0  0  0  0  0
  -23.0939  -30.0120   21.3889 C   0  0  1  0  0  0  0  0  0  0  0  0
  -24.2181  -18.3598   18.8704 C   0  0  2  0  0  0  0  0  0  0  0  0
  -27.8963  -22.6049   18.2667 C   0  0  0  0  0  0  0  0  0  0  0  0
  -19.2500  -25.1264   16.7674 C   0  0  0  0  0  0  0  0  0  0  0  0
  -20.9199  -26.2958   23.0694 C   0  0  0  0  0  0  0  0  0  0  0  0
  -19.9621  -24.7405   21.3572 C   0  0  0  0  0  0  0  0  0  0  0  0
  -18.8577  -26.9318   21.8055 C   0  0  0  0  0  0  0  0  0  0  0  0
  -21.8803  -27.6624   15.7062 C   0  0  0  0  0  0  0  0  0  0  0  0
  -29.8268  -24.2730   16.8660 C   0  0  0  0  0  0  0  0  0  0  0  0
  -30.2874  -26.2150   18.3677 C   0  0  0  0  0  0  0  0  0  0  0  0
  -29.6251  -27.4248   18.9970 C   0  0  0  0  0  0  0  0  0  1  0  0
  -21.0569  -26.8842   20.5592 C   0  0  1  0  0  0  0  0  0  0  0  0
  -20.1328  -26.3552   16.9211 C   0  0  2  0  0  0  0  0  0  0  0  0
  -20.2255  -26.2235   21.6948 C   0  0  0  0  0  0  0  0  0  0  0  0
  -24.6559  -16.0381   19.5773 N   0  0  0  0  0  0  0  0  0  0  0  0
  -24.9703  -17.3387   19.7032 N   0  0  0  0  0  0  0  0  0  0  0  0
  -22.7271  -28.6743   20.9198 N   0  0  0  0  0  0  0  0  0  0  0  0
  -24.1670  -19.6544   16.7748 N   0  0  0  0  0  0  0  0  0  0  0  0
  -26.4074  -18.8320   20.8500 N   0  0  0  0  0  0  0  0  0  0  0  0
  -27.5933  -14.7892   22.4765 N   0  0  0  0  0  0  0  0  0  0  0  0
  -25.9450  -21.2035   16.7336 N   0  0  0  0  0  0  0  0  0  0  0  0
  -23.6659  -31.1035   23.4720 N   0  0  0  0  0  0  0  0  0  0  0  0
  -20.4114  -26.8545   19.2512 N   0  0  0  0  0  0  0  0  0  0  0  0
  -20.9783  -26.4820   15.7005 N   0  3  0  0  0  0  0  0  0  0  0  0
  -29.2863  -25.4723   17.5612 N   0  3  0  0  0  0  0  0  0  0  0  0
  -28.0107  -17.0408   22.5986 O   0  0  0  0  0  0  0  0  0  0  0  0
  -23.3102  -28.8032   23.4056 O   0  0  0  0  0  0  0  0  0  0  0  0
  -20.4425  -29.1354   20.9847 O   0  0  0  0  0  0  0  0  0  0  0  0
  -22.1021  -25.7026   18.1594 O   0  0  0  0  0  0  0  0  0  0  0  0
  -23.9247  -21.6872   15.7010 O   0  0  0  0  0  0  0  0  0  0  0  0
  -25.3790   -9.8831   21.0405 O   0  0  0  0  0  0  0  0  0  0  0  0
  -28.5673  -26.9981   19.8546 O   0  0  0  0  0  0  0  0  0  1  0  0
  -20.4483   -7.4571   21.4956 F   0  0  0  0  0  0  0  0  0  0  0  0
  -24.7198   -8.4217   23.2927 F   0  0  0  0  0  0  0  0  0  0  0  0
  -25.6778  -21.2628   13.7144 Cl  0  0  0  0  0  0  0  0  0  0  0  0
  1  2  1  0  0  0  0
  1  5  2  0  0  0  0
  2  6  2  0  0  0  0
  3  9  2  0  0  0  0
  3 17  1  0  0  0  0
  4 10  1  0  0  0  0
  4 17  2  0  0  0  0
  5 19  1  0  0  0  0
  6 21  1  0  0  0  0
  7 11  2  0  0  0  0
  7 20  1  0  0  0  0
  8 14  2  0  0  0  0
  8 23  1  0  0  0  0
  9 26  1  0  0  0  0
 10 26  2  0  0  0  0
 11 27  1  0  0  0  0
 12 13  2  0  0  0  0
 12 28  1  0  0  0  0
 13 29  1  0  0  0  0
 14 31  1  0  0  0  0
 15 22  1  0  0  0  0
 15 27  2  0  0  0  0
 16 29  2  0  0  0  0
 16 30  1  0  0  0  0
 17 32  1  0  0  0  0
 18 32  1  0  0  0  0
 18 33  2  0  0  0  0
 18 34  1  0  0  0  0
 19 21  2  0  0  0  0
 19 39  1  0  0  0  0
 20 22  2  0  0  0  0
 20 40  1  0  0  0  0
 21 48  1  0  0  0  0
 22 41  1  0  0  0  0
 23 24  2  0  0  0  0
 23 57  1  0  0  0  0
 24 25  1  0  0  0  0
 24 51  1  0  0  0  0
 25 31  2  0  0  0  0
 25 69  1  0  0  0  0
 26 79  1  0  0  0  0
 27 80  1  0  0  0  0
 28 30  2  0  0  0  0
 28 79  1  0  0  0  0
 29 81  1  0  0  0  0
 30 82  1  0  0  0  0
 31 83  1  0  0  0  0
 32 63  2  0  0  0  0
 33 64  1  0  0  0  0
 33 67  1  0  0  0  0
 34 68  1  0  0  0  0
 34 74  2  0  0  0  0
 35 49  1  0  0  0  0
 35 70  1  0  0  0  0
 35 75  2  0  0  0  0
 36 60  1  0  0  0  0
 36 65  1  0  0  0  0
 36 76  2  0  0  0  0
 37 61  1  0  0  0  0
 37 71  1  0  0  0  0
 37 77  2  0  0  0  0
 38 66  1  0  0  0  0
 38 69  1  0  0  0  0
 38 78  2  0  0  0  0
 39 42  1  0  0  0  0
 40 49  1  0  0  0  0
 41 65  1  0  0  0  0
 42 44  1  0  0  0  0
 43 45  1  0  0  0  0
 43 46  1  0  0  0  0
 44 48  1  0  0  0  0
 45 50  1  0  0  0  0
 46 66  1  0  0  0  0
 47 50  1  0  0  0  0
 47 66  1  0  0  0  0
 48 70  1  0  0  0  0
 49 65  1  0  0  0  0
 50 64  1  0  0  0  0
 52 61  1  0  0  0  0
 53 62  1  0  0  0  0
 54 62  1  0  0  0  0
 55 62  1  0  0  0  0
 56 72  1  0  0  0  0
 57 73  1  0  0  0  0
 58 59  1  0  0  0  0
 58 73  1  0  0  0  0
 59 80  1  0  0  0  0
 60 62  1  0  0  0  0
 60 71  1  0  0  0  0
 61 72  1  0  0  0  0
 63 64  1  0  0  0  0
M  CHG  2  72   1  73   1
M  ISO  4  38 100  59 101  69 100  80 101
M  END
> <Batch ID>
0041

> <Smiles>
CNC(C)C(=O)NC(C(=O)N1Cc2cc([101O:1][101CH2:1]CNCc3ccc(Cl)c([100NH:0][100C:0](=O)N4CCCC(n5nc(-c6ccc(Oc7ccc(F)cc7F)cc6)c(C(N)=O)c5N)C4)c3C)ccc2CC1C(=O)NC1CCCc2ccccc21)C(C)(C)C

> <Shape>
0.248

> <Color>
0.088

> <Negative vol penalty>
0.000

$$$$

  -OEChem-04042322093D

 87 96  0     1  0  0  0  0  0999 V2000
  -18.5520   -9.6352   22.4677 C   0  0  0  0  0  0  0  0  0  0  0  0
  -18.3327  -11.0069   22.5451 C   0  0  0  0  0  0  0  0  0  0  0  0
  -27.1370  -26.0778   18.1404 C   0  0  0  0  0  0  0  0  0  0  0  0
  -28.3097  -26.2770   20.2433 C   0  0  0  0  0  0  0  0  0  0  0  0
  -19.8339   -9.1232   22.6634 C   0  0  0  0  0  0  0  0  0  0  0  0
  -19.3952  -11.8672   22.8194 C   0  0  0  0  0  0  0  0  0  0  0  0
  -20.2070  -17.5291   20.6309 C   0  0  0  0  0  0  0  0  0  0  0  0
  -18.7968  -26.6506   21.7803 C   0  0  0  0  0  0  0  0  0  0  0  0
  -27.5857  -24.7631   18.0147 C   0  0  0  0  0  0  0  0  0  0  0  0
  -28.7584  -24.9622   20.1176 C   0  0  0  0  0  0  0  0  0  0  0  0
  -19.9494  -18.7889   21.1697 C   0  0  0  0  0  0  0  0  0  0  0  0
  -27.5201  -21.8536   20.5906 C   0  0  0  0  0  0  0  0  0  0  0  0
  -27.4409  -21.0331   21.7158 C   0  0  0  0  0  0  0  0  0  0  0  0
  -17.7170  -27.4930   22.0451 C   0  0  0  0  0  0  0  0  0  0  0  0
  -22.2433  -18.9386   21.9010 C   0  0  0  0  0  0  0  0  0  0  0  0
  -19.2418  -29.2143   22.7865 C   0  0  0  0  0  0  0  0  0  0  0  0
  -29.8357  -20.7192   21.6554 C   0  0  0  0  0  0  0  0  0  0  0  0
  -27.4991  -26.8348   19.2547 C   0  0  0  0  0  0  0  0  0  0  0  0
  -27.2813  -29.2628   18.5029 C   0  0  0  0  0  0  0  0  0  0  0  0
  -20.9145   -9.9786   22.9307 C   0  0  0  0  0  0  0  0  0  0  0  0
  -21.4841  -16.9590   20.7328 C   0  0  0  0  0  0  0  0  0  0  0  0
  -20.6926  -11.3661   23.0202 C   0  0  0  0  0  0  0  0  0  0  0  0
  -22.5152  -17.6725   21.3603 C   0  0  0  0  0  0  0  0  0  0  0  0
  -20.0990  -27.0900   22.0186 C   0  0  0  0  0  0  0  0  0  0  0  0
  -20.3215  -28.3718   22.5217 C   0  0  0  0  0  0  0  0  0  0  0  0
  -28.3963  -24.2053   19.0033 C   0  0  0  0  0  0  0  0  0  0  0  0
  -20.9669  -19.4926   21.8074 C   0  0  0  0  0  0  0  0  0  0  0  0
  -28.7571  -22.1069   19.9977 C   0  0  0  0  0  0  0  0  0  0  0  0
  -28.5987  -20.4659   22.2482 C   0  0  0  0  0  0  0  0  0  0  0  0
  -29.9149  -21.5397   20.5302 C   0  0  0  0  0  0  0  0  0  0  0  0
  -17.9395  -28.7748   22.5482 C   0  0  0  0  0  0  0  0  0  0  0  0
  -27.0364  -28.1931   19.3848 C   0  0  0  0  0  0  0  0  0  0  0  0
  -26.6299  -30.3310   19.0695 C   0  0  0  0  0  0  0  0  0  0  0  0
  -21.3061  -23.7779   22.3498 C   0  0  0  0  0  0  0  0  0  0  0  0
  -28.0306  -29.2885   17.2808 C   0  0  0  0  0  0  0  0  0  0  0  0
  -22.6722  -14.3478   22.1017 C   0  0  0  0  0  0  0  0  0  0  0  0
  -25.3954  -15.2731   20.6017 C   0  0  0  0  0  0  0  0  0  0  0  0
  -27.2278  -17.8000   19.2219 C   0  0  0  0  0  0  0  0  0  0  0  0
  -22.0223  -30.0833   23.2688 C   0  0  0  0  0  0  0  0  0  0  0  0
  -22.2735   -9.3747   23.1818 C   0  0  0  0  0  0  0  0  0  0  0  0
  -21.7526  -15.6106   20.1228 C   0  0  0  0  0  0  0  0  0  0  0  0
  -23.9087  -17.1134   21.4783 C   0  0  0  0  0  0  0  0  0  0  0  0
  -23.4143  -10.3855   23.0973 C   0  0  0  0  0  0  0  0  0  0  0  0
  -21.6757  -24.5399   25.1552 C   0  0  0  0  0  0  0  0  0  0  0  0
  -25.3136  -31.7464   23.5140 C   0  0  0  0  0  0  0  0  0  0  0  0
  -23.0659  -11.6499   23.8761 C   0  0  0  0  0  0  0  0  0  0  0  0
  -22.1730  -23.1921   24.6708 C   0  0  0  0  0  0  0  0  0  0  0  0
  -26.0956  -31.3241   22.2692 C   0  0  0  0  0  0  0  0  0  0  0  0
  -21.8276  -25.5672   24.0500 C   0  0  0  0  0  0  0  0  0  0  0  0
  -23.8108  -31.8058   23.2774 C   0  0  0  0  0  0  0  0  0  0  0  0
  -24.1265  -29.7663   21.8591 C   0  0  0  0  0  0  0  0  0  0  0  0
  -21.8242  -12.3337   23.2912 C   0  0  1  0  0  0  0  0  0  0  0  0
  -21.3301  -22.7479   23.4815 C   0  0  2  0  0  0  0  0  0  0  0  0
  -22.9588  -14.9066   20.7367 C   0  0  1  0  0  0  0  0  0  0  0  0
  -25.2193  -30.6315   21.2121 C   0  0  2  0  0  0  0  0  0  0  0  0
  -29.4308  -18.2558   18.1099 C   0  0  0  0  0  0  0  0  0  0  0  0
  -26.7927  -15.1133   23.3095 C   0  0  0  0  0  0  0  0  0  0  0  0
  -28.6695  -16.4587   22.3422 C   0  0  0  0  0  0  0  0  0  0  0  0
  -28.1260  -14.2167   21.3931 C   0  0  0  0  0  0  0  0  0  0  0  0
  -25.9137  -18.7198   16.7348 C   0  0  0  0  0  0  0  0  0  0  0  0
  -21.2417  -26.1617   21.7243 C   0  0  0  0  0  0  0  0  0  0  0  0
  -21.8066  -21.3871   22.9743 C   0  0  0  0  0  0  0  0  0  1  0  0
  -26.5652  -16.1578   20.9593 C   0  0  1  0  0  0  0  0  0  0  0  0
  -27.9665  -17.9028   17.8997 C   0  0  2  0  0  0  0  0  0  0  0  0
  -27.5117  -15.4966   22.0007 C   0  0  0  0  0  0  0  0  0  0  0  0
  -26.2879  -28.5493   20.4321 N   0  0  0  0  0  0  0  0  0  0  0  0
  -26.0569  -29.8548   20.2120 N   0  0  0  0  0  0  0  0  0  0  0  0
  -21.3716  -25.1194   22.7343 N   0  0  0  0  0  0  0  0  0  0  0  0
  -24.1198  -15.7887   20.8716 N   0  0  0  0  0  0  0  0  0  0  0  0
  -23.2893  -30.5184   22.8094 N   0  0  0  0  0  0  0  0  0  0  0  0
  -26.4970  -31.6217   18.6970 N   0  0  0  0  0  0  0  0  0  0  0  0
  -29.3986  -29.5871   17.3420 N   0  0  0  0  0  0  0  0  0  0  0  0
  -21.6371  -28.8363   22.7703 N   0  0  0  0  0  0  0  0  0  0  0  0
  -22.1674  -13.0615   22.0884 N   0  0  0  0  0  0  0  0  0  0  0  0
  -27.2133  -16.5067   19.6996 N   0  0  0  0  0  0  0  0  0  0  0  0
  -27.3485  -18.9527   17.0414 N   0  3  0  0  0  0  0  0  0  0  0  0
  -21.1413  -23.4136   21.1822 O   0  0  0  0  0  0  0  0  0  0  0  0
  -27.4993  -29.0697   16.1657 O   0  0  0  0  0  0  0  0  0  0  0  0
  -22.8940  -15.0323   23.0936 O   0  0  0  0  0  0  0  0  0  0  0  0
  -25.6055  -14.1684   20.0948 O   0  0  0  0  0  0  0  0  0  0  0  0
  -26.7182  -18.7707   19.7774 O   0  0  0  0  0  0  0  0  0  0  0  0
  -21.3498  -30.7594   24.0504 O   0  0  0  0  0  0  0  0  0  0  0  0
  -28.8341  -22.9223   18.8811 O   0  0  0  0  0  0  0  0  0  0  0  0
  -20.7179  -20.7222   22.3348 O   0  0  0  0  0  0  0  0  0  1  0  0
  -28.5227  -19.6792   23.3297 F   0  0  0  0  0  0  0  0  0  0  0  0
  -31.1062  -21.7803   19.9657 F   0  0  0  0  0  0  0  0  0  0  0  0
  -16.6068  -29.8136   22.8748 Cl  0  0  0  0  0  0  0  0  0  0  0  0
  1  2  1  0  0  0  0
  1  5  2  0  0  0  0
  2  6  2  0  0  0  0
  3  9  2  0  0  0  0
  3 18  1  0  0  0  0
  4 10  1  0  0  0  0
  4 18  2  0  0  0  0
  5 20  1  0  0  0  0
  6 22  1  0  0  0  0
  7 11  2  0  0  0  0
  7 21  1  0  0  0  0
  8 14  2  0  0  0  0
  8 24  1  0  0  0  0
  9 26  1  0  0  0  0
 10 26  2  0  0  0  0
 11 27  1  0  0  0  0
 12 13  2  0  0  0  0
 12 28  1  0  0  0  0
 13 29  1  0  0  0  0
 14 31  1  0  0  0  0
 15 23  1  0  0  0  0
 15 27  2  0  0  0  0
 16 25  1  0  0  0  0
 16 31  2  0  0  0  0
 17 29  2  0  0  0  0
 17 30  1  0  0  0  0
 18 32  1  0  0  0  0
 19 32  1  0  0  0  0
 19 33  2  0  0  0  0
 19 35  1  0  0  0  0
 20 22  2  0  0  0  0
 20 40  1  0  0  0  0
 21 23  2  0  0  0  0
 21 41  1  0  0  0  0
 22 52  1  0  0  0  0
 23 42  1  0  0  0  0
 24 25  2  0  0  0  0
 24 61  1  0  0  0  0
 25 73  1  0  0  0  0
 26 83  1  0  0  0  0
 27 84  1  0  0  0  0
 28 30  2  0  0  0  0
 28 83  1  0  0  0  0
 29 85  1  0  0  0  0
 30 86  1  0  0  0  0
 31 87  1  0  0  0  0
 32 66  2  0  0  0  0
 33 67  1  0  0  0  0
 33 71  1  0  0  0  0
 34 53  1  0  0  0  0
 34 68  1  0  0  0  0
 34 77  2  0  0  0  0
 35 72  1  0  0  0  0
 35 78  2  0  0  0  0
 36 54  1  0  0  0  0
 36 74  1  0  0  0  0
 36 79  2  0  0  0  0
 37 63  1  0  0  0  0
 37 69  1  0  0  0  0
 37 80  2  0  0  0  0
 38 64  1  0  0  0  0
 38 75  1  0  0  0  0
 38 81  2  0  0  0  0
 39 70  1  0  0  0  0
 39 73  1  0  0  0  0
 39 82  2  0  0  0  0
 40 43  1  0  0  0  0
 41 54  1  0  0  0  0
 42 69  1  0  0  0  0
 43 46  1  0  0  0  0
 44 47  1  0  0  0  0
 44 49  1  0  0  0  0
 45 48  1  0  0  0  0
 45 50  1  0  0  0  0
 46 52  1  0  0  0  0
 47 53  1  0  0  0  0
 48 55  1  0  0  0  0
 49 68  1  0  0  0  0
 50 70  1  0  0  0  0
 51 55  1  0  0  0  0
 51 70  1  0  0  0  0
 52 74  1  0  0  0  0
 53 62  1  0  0  0  0
 54 69  1  0  0  0  0
 55 67  1  0  0  0  0
 56 64  1  0  0  0  0
 57 65  1  0  0  0  0
 58 65  1  0  0  0  0
 59 65  1  0  0  0  0
 60 76  1  0  0  0  0
 61 68  1  0  0  0  0
 62 84  1  0  0  0  0
 63 65  1  0  0  0  0
 63 75  1  0  0  0  0
 64 76  1  0  0  0  0
 66 67  1  0  0  0  0
M  CHG  1  76   1
M  ISO  4  39 100  62 101  73 100  84 101
M  END
> <Batch ID>
0041

> <Smiles>
CNC(C)C(=O)NC(C(=O)N1Cc2cc([101O:1][101CH2:1]C3CCCN(Cc4ccc(Cl)cc4[100NH:0][100C:0](=O)N4CCCC(n5nc(-c6ccc(Oc7ccc(F)cc7F)cc6)c(C(N)=O)c5N)C4)C3=O)ccc2CC1C(=O)NC1CCCc2ccccc21)C(C)(C)C

> <Shape>
0.229

> <Color>
0.073

> <Negative vol penalty>
0.000

$$$$

  -OEChem-04042322093D

 87 96  0     1  0  0  0  0  0999 V2000
  -16.5265  -29.0339   23.3521 C   0  0  0  0  0  0  0  0  0  0  0  0
  -17.3543  -29.1353   22.2386 C   0  0  0  0  0  0  0  0  0  0  0  0
  -26.2187  -13.1787   20.2574 C   0  0  0  0  0  0  0  0  0  0  0  0
  -25.2223  -14.6054   21.9334 C   0  0  0  0  0  0  0  0  0  0  0  0
  -17.0714  -29.1064   24.6334 C   0  0  0  0  0  0  0  0  0  0  0  0
  -18.7275  -29.3104   22.4058 C   0  0  0  0  0  0  0  0  0  0  0  0
  -24.9830  -27.6324   19.3448 C   0  0  0  0  0  0  0  0  0  0  0  0
  -28.6353  -24.9793   16.6139 C   0  0  0  0  0  0  0  0  0  0  0  0
  -25.6440  -12.0628   20.8656 C   0  0  0  0  0  0  0  0  0  0  0  0
  -24.6476  -13.4894   22.5417 C   0  0  0  0  0  0  0  0  0  0  0  0
  -26.1582  -28.2336   18.8962 C   0  0  0  0  0  0  0  0  0  0  0  0
  -22.6112  -10.5720   20.9775 C   0  0  0  0  0  0  0  0  0  0  0  0
  -21.9928   -9.6314   20.1539 C   0  0  0  0  0  0  0  0  0  0  0  0
  -27.4362  -24.2796   16.7486 C   0  0  0  0  0  0  0  0  0  0  0  0
  -26.9980  -28.2654   21.1574 C   0  0  0  0  0  0  0  0  0  0  0  0
  -29.4977  -23.8812   18.5856 C   0  0  0  0  0  0  0  0  0  0  0  0
  -23.5220   -7.9354   20.9428 C   0  0  0  0  0  0  0  0  0  0  0  0
  -26.0079  -14.4501   20.7913 C   0  0  0  0  0  0  0  0  0  0  0  0
  -26.3942  -16.0556   18.8470 C   0  0  0  0  0  0  0  0  0  0  0  0
  -18.4533  -29.2728   24.8164 C   0  0  0  0  0  0  0  0  0  0  0  0
  -24.8017  -27.3526   20.7069 C   0  0  0  0  0  0  0  0  0  0  0  0
  -19.2913  -29.3866   23.6907 C   0  0  0  0  0  0  0  0  0  0  0  0
  -25.8207  -27.6582   21.6204 C   0  0  0  0  0  0  0  0  0  0  0  0
  -29.6661  -24.7801   17.5323 C   0  0  0  0  0  0  0  0  0  0  0  0
  -28.2986  -23.1815   18.7204 C   0  0  0  0  0  0  0  0  0  0  0  0
  -24.8585  -12.2181   22.0078 C   0  0  0  0  0  0  0  0  0  0  0  0
  -27.1647  -28.5529   19.8029 C   0  0  0  0  0  0  0  0  0  0  0  0
  -23.6850  -10.1945   21.7837 C   0  0  0  0  0  0  0  0  0  0  0  0
  -22.4482   -8.3130   20.1366 C   0  0  0  0  0  0  0  0  0  0  0  0
  -24.1404   -8.8761   21.7664 C   0  0  0  0  0  0  0  0  0  0  0  0
  -27.2678  -23.3807   17.8019 C   0  0  0  0  0  0  0  0  0  0  0  0
  -26.6017  -15.6032   20.1638 C   0  0  0  0  0  0  0  0  0  0  0  0
  -27.1796  -17.1775   18.7416 C   0  0  0  0  0  0  0  0  0  0  0  0
  -30.5567  -27.8760   18.0539 C   0  0  0  0  0  0  0  0  0  0  0  0
  -25.5656  -15.5106   17.8116 C   0  0  0  0  0  0  0  0  0  0  0  0
  -22.7390  -28.2933   22.9349 C   0  0  0  0  0  0  0  0  0  0  0  0
  -24.2702  -26.0723   24.7363 C   0  0  0  0  0  0  0  0  0  0  0  0
  -27.0948  -24.2396   25.2929 C   0  0  0  0  0  0  0  0  0  0  0  0
  -29.1038  -21.9858   20.7863 C   0  0  0  0  0  0  0  0  0  0  0  0
  -18.9903  -29.3930   26.2206 C   0  0  0  0  0  0  0  0  0  0  0  0
  -23.5393  -26.6794   21.1711 C   0  0  0  0  0  0  0  0  0  0  0  0
  -25.6837  -27.3599   23.0903 C   0  0  0  0  0  0  0  0  0  0  0  0
  -20.5023  -29.2038   26.3127 C   0  0  0  0  0  0  0  0  0  0  0  0
  -32.1945  -27.3659   20.4867 C   0  0  0  0  0  0  0  0  0  0  0  0
  -30.7445  -19.0051   21.8356 C   0  0  0  0  0  0  0  0  0  0  0  0
  -21.2087  -30.0154   25.2315 C   0  0  0  0  0  0  0  0  0  0  0  0
  -32.0422  -28.7403   19.8524 C   0  0  0  0  0  0  0  0  0  0  0  0
  -29.7959  -17.8916   21.3859 C   0  0  0  0  0  0  0  0  0  0  0  0
  -31.5248  -26.2470   19.6935 C   0  0  0  0  0  0  0  0  0  0  0  0
  -29.9830  -20.2382   22.3187 C   0  0  0  0  0  0  0  0  0  0  0  0
  -28.0388  -19.6487   20.9252 C   0  0  0  0  0  0  0  0  0  0  0  0
  -20.7890  -29.5522   23.8312 C   0  0  1  0  0  0  0  0  0  0  0  0
  -30.6964  -28.9134   19.1565 C   0  0  2  0  0  0  0  0  0  0  0  0
  -23.2493  -26.9088   22.6512 C   0  0  1  0  0  0  0  0  0  0  0  0
  -28.7601  -18.4101   20.3691 C   0  0  2  0  0  0  0  0  0  0  0  0
  -28.5803  -22.5130   26.3463 C   0  0  0  0  0  0  0  0  0  0  0  0
  -24.7149  -28.2534   26.8231 C   0  0  0  0  0  0  0  0  0  0  0  0
  -26.4526  -26.7923   27.8785 C   0  0  0  0  0  0  0  0  0  0  0  0
  -24.0821  -26.0239   27.7629 C   0  0  0  0  0  0  0  0  0  0  0  0
  -26.1669  -22.1362   23.4291 C   0  0  0  0  0  0  0  0  0  0  0  0
  -30.9568  -25.5331   17.3867 C   0  0  0  0  0  0  0  0  0  0  0  0
  -29.5030  -28.8646   20.1045 C   0  0  0  0  0  0  0  0  0  1  0  0
  -25.4710  -26.0807   25.6511 C   0  0  1  0  0  0  0  0  0  0  0  0
  -27.2981  -22.7604   25.5668 C   0  0  2  0  0  0  0  0  0  0  0  0
  -25.1823  -26.7951   27.0015 C   0  0  0  0  0  0  0  0  0  0  0  0
  -27.4523  -16.3745   20.8460 N   0  0  0  0  0  0  0  0  0  0  0  0
  -27.7864  -17.3229   19.9544 N   0  0  0  0  0  0  0  0  0  0  0  0
  -31.0689  -26.6142   18.3549 N   0  0  0  0  0  0  0  0  0  0  0  0
  -24.4282  -26.7068   23.4960 N   0  0  0  0  0  0  0  0  0  0  0  0
  -29.0232  -20.6751   21.3024 N   0  0  0  0  0  0  0  0  0  0  0  0
  -27.4035  -18.0438   17.7308 N   0  0  0  0  0  0  0  0  0  0  0  0
  -24.2387  -15.9516   17.7161 N   0  0  0  0  0  0  0  0  0  0  0  0
  -28.1597  -22.2770   19.8022 N   0  0  0  0  0  0  0  0  0  0  0  0
  -21.4696  -28.3242   23.4800 N   0  0  0  0  0  0  0  0  0  0  0  0
  -25.8894  -24.6898   25.7884 N   0  0  0  0  0  0  0  0  0  0  0  0
  -27.3730  -22.0020   24.2861 N   0  3  0  0  0  0  0  0  0  0  0  0
  -30.0044  -28.1743   16.9934 O   0  0  0  0  0  0  0  0  0  0  0  0
  -25.9846  -14.6456   17.0055 O   0  0  0  0  0  0  0  0  0  0  0  0
  -23.4452  -29.2616   22.6796 O   0  0  0  0  0  0  0  0  0  0  0  0
  -23.2326  -25.5167   25.1055 O   0  0  0  0  0  0  0  0  0  0  0  0
  -27.9242  -24.9278   24.7021 O   0  0  0  0  0  0  0  0  0  0  0  0
  -29.9654  -22.7818   21.1684 O   0  0  0  0  0  0  0  0  0  0  0  0
  -24.2974  -11.1294   22.6014 O   0  0  0  0  0  0  0  0  0  0  0  0
  -28.3125  -29.1403   19.3677 O   0  0  0  0  0  0  0  0  0  1  0  0
  -21.8532   -7.4095   19.3468 F   0  0  0  0  0  0  0  0  0  0  0  0
  -25.1708   -8.5072   22.5396 F   0  0  0  0  0  0  0  0  0  0  0  0
  -25.7665  -22.5357   17.9312 Cl  0  0  0  0  0  0  0  0  0  0  0  0
  1  2  1  0  0  0  0
  1  5  2  0  0  0  0
  2  6  2  0  0  0  0
  3  9  2  0  0  0  0
  3 18  1  0  0  0  0
  4 10  1  0  0  0  0
  4 18  2  0  0  0  0
  5 20  1  0  0  0  0
  6 22  1  0  0  0  0
  7 11  2  0  0  0  0
  7 21  1  0  0  0  0
  8 14  2  0  0  0  0
  8 24  1  0  0  0  0
  9 26  1  0  0  0  0
 10 26  2  0  0  0  0
 11 27  1  0  0  0  0
 12 13  2  0  0  0  0
 12 28  1  0  0  0  0
 13 29  1  0  0  0  0
 14 31  1  0  0  0  0
 15 23  1  0  0  0  0
 15 27  2  0  0  0  0
 16 24  2  0  0  0  0
 16 25  1  0  0  0  0
 17 29  2  0  0  0  0
 17 30  1  0  0  0  0
 18 32  1  0  0  0  0
 19 32  1  0  0  0  0
 19 33  2  0  0  0  0
 19 35  1  0  0  0  0
 20 22  2  0  0  0  0
 20 40  1  0  0  0  0
 21 23  2  0  0  0  0
 21 41  1  0  0  0  0
 22 52  1  0  0  0  0
 23 42  1  0  0  0  0
 24 61  1  0  0  0  0
 25 31  2  0  0  0  0
 25 73  1  0  0  0  0
 26 83  1  0  0  0  0
 27 84  1  0  0  0  0
 28 30  2  0  0  0  0
 28 83  1  0  0  0  0
 29 85  1  0  0  0  0
 30 86  1  0  0  0  0
 31 87  1  0  0  0  0
 32 66  2  0  0  0  0
 33 67  1  0  0  0  0
 33 71  1  0  0  0  0
 34 53  1  0  0  0  0
 34 68  1  0  0  0  0
 34 77  2  0  0  0  0
 35 72  1  0  0  0  0
 35 78  2  0  0  0  0
 36 54  1  0  0  0  0
 36 74  1  0  0  0  0
 36 79  2  0  0  0  0
 37 63  1  0  0  0  0
 37 69  1  0  0  0  0
 37 80  2  0  0  0  0
 38 64  1  0  0  0  0
 38 75  1  0  0  0  0
 38 81  2  0  0  0  0
 39 70  1  0  0  0  0
 39 73  1  0  0  0  0
 39 82  2  0  0  0  0
 40 43  1  0  0  0  0
 41 54  1  0  0  0  0
 42 69  1  0  0  0  0
 43 46  1  0  0  0  0
 44 47  1  0  0  0  0
 44 49  1  0  0  0  0
 45 48  1  0  0  0  0
 45 50  1  0  0  0  0
 46 52  1  0  0  0  0
 47 53  1  0  0  0  0
 48 55  1  0  0  0  0
 49 68  1  0  0  0  0
 50 70  1  0  0  0  0
 51 55  1  0  0  0  0
 51 70  1  0  0  0  0
 52 74  1  0  0  0  0
 53 62  1  0  0  0  0
 54 69  1  0  0  0  0
 55 67  1  0  0  0  0
 56 64  1  0  0  0  0
 57 65  1  0  0  0  0
 58 65  1  0  0  0  0
 59 65  1  0  0  0  0
 60 76  1  0  0  0  0
 61 68  1  0  0  0  0
 62 84  1  0  0  0  0
 63 65  1  0  0  0  0
 63 75  1  0  0  0  0
 64 76  1  0  0  0  0
 66 67  1  0  0  0  0
M  CHG  1  76   1
M  ISO  4  39 100  62 101  73 100  84 101
M  END
> <Batch ID>
0041

> <Smiles>
CNC(C)C(=O)NC(C(=O)N1Cc2cc([101O:1][101CH2:1]C3CCCN(Cc4ccc(Cl)c([100NH:0][100C:0](=O)N5CCCC(n6nc(-c7ccc(Oc8ccc(F)cc8F)cc7)c(C(N)=O)c6N)C5)c4)C3=O)ccc2CC1C(=O)NC1CCCc2ccccc21)C(C)(C)C

> <Shape>
0.240

> <Color>
0.073

> <Negative vol penalty>
0.000

$$$$

  -OEChem-04042322093D

 87 96  0     1  0  0  0  0  0999 V2000
  -27.3073  -36.8477   20.9019 C   0  0  0  0  0  0  0  0  0  0  0  0
  -27.7987  -35.6944   20.2987 C   0  0  0  0  0  0  0  0  0  0  0  0
  -22.9390  -10.1303   19.9893 C   0  0  0  0  0  0  0  0  0  0  0  0
  -23.7567  -10.0439   22.2611 C   0  0  0  0  0  0  0  0  0  0  0  0
  -26.5572  -36.7548   22.0735 C   0  0  0  0  0  0  0  0  0  0  0  0
  -27.5411  -34.4475   20.8675 C   0  0  0  0  0  0  0  0  0  0  0  0
  -26.3995  -27.6122   19.0533 C   0  0  0  0  0  0  0  0  0  0  0  0
  -31.8112  -18.7411   20.5604 C   0  0  0  0  0  0  0  0  0  0  0  0
  -31.5360  -17.3737   20.5514 C   0  0  0  0  0  0  0  0  0  0  0  0
  -22.1266   -9.0244   20.2396 C   0  0  0  0  0  0  0  0  0  0  0  0
  -22.9442   -8.9380   22.5114 C   0  0  0  0  0  0  0  0  0  0  0  0
  -26.8632  -26.3294   19.3418 C   0  0  0  0  0  0  0  0  0  0  0  0
  -19.6867   -8.3446   23.1874 C   0  0  0  0  0  0  0  0  0  0  0  0
  -18.9593   -8.3329   24.3775 C   0  0  0  0  0  0  0  0  0  0  0  0
  -25.4887  -26.2847   21.3237 C   0  0  0  0  0  0  0  0  0  0  0  0
  -20.0874   -6.3040   25.0470 C   0  0  0  0  0  0  0  0  0  0  0  0
  -23.7541  -10.6400   21.0000 C   0  0  0  0  0  0  0  0  0  0  0  0
  -24.2603  -13.1388   20.9137 C   0  0  0  0  0  0  0  0  0  0  0  0
  -26.2822  -35.5055   22.6517 C   0  0  0  0  0  0  0  0  0  0  0  0
  -25.4836  -28.2463   19.9052 C   0  0  0  0  0  0  0  0  0  0  0  0
  -26.7878  -34.3380   22.0487 C   0  0  0  0  0  0  0  0  0  0  0  0
  -25.0130  -27.5746   21.0425 C   0  0  0  0  0  0  0  0  0  0  0  0
  -31.1685  -19.5759   21.4746 C   0  0  0  0  0  0  0  0  0  0  0  0
  -30.2506  -19.0432   22.3798 C   0  0  0  0  0  0  0  0  0  0  0  0
  -29.9753  -17.6758   22.3707 C   0  0  0  0  0  0  0  0  0  0  0  0
  -30.6180  -16.8411   21.4565 C   0  0  0  0  0  0  0  0  0  0  0  0
  -22.1292   -8.4283   21.5007 C   0  0  0  0  0  0  0  0  0  0  0  0
  -26.4100  -25.6666   20.4786 C   0  0  0  0  0  0  0  0  0  0  0  0
  -20.6144   -7.3359   22.9270 C   0  0  0  0  0  0  0  0  0  0  0  0
  -19.1597   -7.3126   25.3073 C   0  0  0  0  0  0  0  0  0  0  0  0
  -20.8148   -6.3157   23.8569 C   0  0  0  0  0  0  0  0  0  0  0  0
  -24.5940  -11.7820   20.7418 C   0  0  0  0  0  0  0  0  0  0  0  0
  -25.3903  -13.8210   20.5339 C   0  0  0  0  0  0  0  0  0  0  0  0
  -23.0384  -13.7296   21.3756 C   0  0  0  0  0  0  0  0  0  0  0  0
  -25.5230  -30.8864   21.6749 C   0  0  0  0  0  0  0  0  0  0  0  0
  -22.4050  -30.1375   22.1642 C   0  0  0  0  0  0  0  0  0  0  0  0
  -19.9768  -27.7402   22.2289 C   0  0  0  0  0  0  0  0  0  0  0  0
  -30.9167  -14.4988   20.5784 C   0  0  0  0  0  0  0  0  0  0  0  0
  -25.5069  -35.4587   23.9445 C   0  0  0  0  0  0  0  0  0  0  0  0
  -24.9727  -29.6196   19.5658 C   0  0  0  0  0  0  0  0  0  0  0  0
  -24.0144  -28.2034   21.9784 C   0  0  0  0  0  0  0  0  0  0  0  0
  -24.9618  -34.0724   24.2780 C   0  0  0  0  0  0  0  0  0  0  0  0
  -29.5829  -12.2090   18.2004 C   0  0  0  0  0  0  0  0  0  0  0  0
  -29.4196  -22.6549   18.6261 C   0  0  0  0  0  0  0  0  0  0  0  0
  -26.0413  -33.0128   24.0815 C   0  0  0  0  0  0  0  0  0  0  0  0
  -28.1386  -12.0054   18.6637 C   0  0  0  0  0  0  0  0  0  0  0  0
  -28.0962  -22.9251   19.3340 C   0  0  0  0  0  0  0  0  0  0  0  0
  -29.0105  -23.8085   21.5812 C   0  0  0  0  0  0  0  0  0  0  0  0
  -30.5420  -12.3541   19.3806 C   0  0  0  0  0  0  0  0  0  0  0  0
  -28.7240  -13.1772   20.8250 C   0  0  0  0  0  0  0  0  0  0  0  0
  -30.3877  -21.7263   19.3489 C   0  0  0  0  0  0  0  0  0  0  0  0
  -30.4276  -23.3049   21.3432 C   0  0  0  0  0  0  0  0  0  0  0  0
  -26.5087  -32.9655   22.6218 C   0  0  1  0  0  0  0  0  0  0  0  0
  -24.4327  -30.3727   20.7777 C   0  0  1  0  0  0  0  0  0  0  0  0
  -27.7117  -13.0909   19.6712 C   0  0  2  0  0  0  0  0  0  0  0  0
  -28.1834  -24.0852   20.3279 C   0  0  2  0  0  0  0  0  0  1  0  0
  -29.5629  -19.9411   23.3592 C   0  0  0  0  0  0  0  0  0  0  0  0
  -28.9899  -17.1064   23.3431 C   0  0  0  0  0  0  0  0  0  0  0  0
  -17.5324  -27.4246   22.7004 C   0  0  0  0  0  0  0  0  0  0  0  0
  -22.9625  -30.3125   25.1589 C   0  0  0  0  0  0  0  0  0  0  0  0
  -20.8155  -29.0884   25.5594 C   0  0  0  0  0  0  0  0  0  0  0  0
  -20.7880  -31.3186   24.4421 C   0  0  0  0  0  0  0  0  0  0  0  0
  -19.4468  -26.8061   19.4711 C   0  0  0  0  0  0  0  0  0  0  0  0
  -31.4830  -21.0428   21.4629 C   0  0  0  0  0  0  0  0  0  0  0  0
  -21.6506  -29.3079   23.1750 C   0  0  1  0  0  0  0  0  0  0  0  0
  -18.5804  -27.7046   21.6346 C   0  0  2  0  0  0  0  0  0  0  0  0
  -21.5745  -29.9955   24.5675 C   0  0  0  0  0  0  0  0  0  0  0  0
  -25.8384  -11.6104   20.2879 N   0  0  0  0  0  0  0  0  0  0  0  0
  -26.2966  -12.8684   20.1713 N   0  0  0  0  0  0  0  0  0  0  0  0
  -23.5496  -29.5500   21.6068 N   0  0  0  0  0  0  0  0  0  0  0  0
  -30.0759  -13.4030   20.2902 N   0  0  0  0  0  0  0  0  0  0  0  0
  -25.6871  -15.1367   20.4778 N   0  0  0  0  0  0  0  0  0  0  0  0
  -21.9771  -12.8833   21.7246 N   0  0  0  0  0  0  0  0  0  0  0  0
  -30.3539  -15.4492   21.4296 N   0  0  0  0  0  0  0  0  0  0  0  0
  -25.5435  -32.2620   21.8046 N   0  0  0  0  0  0  0  0  0  0  0  0
  -20.3506  -29.0206   22.5786 N   0  0  0  0  0  0  0  0  0  0  0  0
  -30.3866  -21.8779   20.8466 N   0  3  2  0  0  0  0  0  0  0  0  0
  -18.4875  -26.6423   20.5935 N   0  3  0  0  0  0  0  0  0  0  0  0
  -22.8863  -14.9719   21.4602 O   0  0  0  0  0  0  0  0  0  0  0  0
  -26.2881  -30.0934   22.2111 O   0  0  0  0  0  0  0  0  0  0  0  0
  -21.9898  -31.2623   21.8743 O   0  0  0  0  0  0  0  0  0  0  0  0
  -20.6657  -26.7325   22.3722 O   0  0  0  0  0  0  0  0  0  0  0  0
  -32.0421  -14.6012   20.0833 O   0  0  0  0  0  0  0  0  0  0  0  0
  -21.3364   -7.3494   21.7454 O   0  0  0  0  0  0  0  0  0  0  0  0
  -26.8616  -24.4147   20.7628 O   0  0  0  0  0  0  0  0  0  1  0  0
  -18.4622   -7.3024   26.4508 F   0  0  0  0  0  0  0  0  0  0  0  0
  -21.7055   -5.3446   23.6129 F   0  0  0  0  0  0  0  0  0  0  0  0
  1  2  1  0  0  0  0
  1  5  2  0  0  0  0
  2  6  2  0  0  0  0
  3 10  2  0  0  0  0
  3 17  1  0  0  0  0
  4 11  1  0  0  0  0
  4 17  2  0  0  0  0
  5 19  1  0  0  0  0
  6 21  1  0  0  0  0
  7 12  2  0  0  0  0
  7 20  1  0  0  0  0
  8  9  2  0  0  0  0
  8 23  1  0  0  0  0
  9 26  1  0  0  0  0
 10 27  1  0  0  0  0
 11 27  2  0  0  0  0
 12 28  1  0  0  0  0
 13 14  2  0  0  0  0
 13 29  1  0  0  0  0
 14 30  1  0  0  0  0
 15 22  1  0  0  0  0
 15 28  2  0  0  0  0
 16 30  2  0  0  0  0
 16 31  1  0  0  0  0
 17 32  1  0  0  0  0
 18 32  1  0  0  0  0
 18 33  2  0  0  0  0
 18 34  1  0  0  0  0
 19 21  2  0  0  0  0
 19 39  1  0  0  0  0
 20 22  2  0  0  0  0
 20 40  1  0  0  0  0
 21 53  1  0  0  0  0
 22 41  1  0  0  0  0
 23 24  2  0  0  0  0
 23 64  1  0  0  0  0
 24 25  1  0  0  0  0
 24 57  1  0  0  0  0
 25 26  2  0  0  0  0
 25 58  1  0  0  0  0
 26 74  1  0  0  0  0
 27 84  1  0  0  0  0
 28 85  1  0  0  0  0
 29 31  2  0  0  0  0
 29 84  1  0  0  0  0
 30 86  1  0  0  0  0
 31 87  1  0  0  0  0
 32 68  2  0  0  0  0
 33 69  1  0  0  0  0
 33 72  1  0  0  0  0
 34 73  1  0  0  0  0
 34 79  2  0  0  0  0
 35 54  1  0  0  0  0
 35 75  1  0  0  0  0
 35 80  2  0  0  0  0
 36 65  1  0  0  0  0
 36 70  1  0  0  0  0
 36 81  2  0  0  0  0
 37 66  1  0  0  0  0
 37 76  1  0  0  0  0
 37 82  2  0  0  0  0
 38 71  1  0  0  0  0
 38 74  1  0  0  0  0
 38 83  2  0  0  0  0
 39 42  1  0  0  0  0
 40 54  1  0  0  0  0
 41 70  1  0  0  0  0
 42 45  1  0  0  0  0
 43 46  1  0  0  0  0
 43 49  1  0  0  0  0
 44 47  1  0  0  0  0
 44 51  1  0  0  0  0
 45 53  1  0  0  0  0
 46 55  1  0  0  0  0
 47 56  1  0  0  0  0
 48 52  1  0  0  0  0
 48 56  1  0  0  0  0
 49 71  1  0  0  0  0
 50 55  1  0  0  0  0
 50 71  1  0  0  0  0
 51 77  1  0  0  0  0
 52 77  1  0  0  0  0
 53 75  1  0  0  0  0
 54 70  1  0  0  0  0
 55 69  1  0  0  0  0
 56 85  1  0  0  0  0
 59 66  1  0  0  0  0
 60 67  1  0  0  0  0
 61 67  1  0  0  0  0
 62 67  1  0  0  0  0
 63 78  1  0  0  0  0
 64 77  1  0  0  0  0
 65 67  1  0  0  0  0
 65 76  1  0  0  0  0
 66 78  1  0  0  0  0
 68 69  1  0  0  0  0
M  CHG  2  77   1  78   1
M  ISO  4  38 100  56 101  74 100  85 101
M  END
> <Batch ID>
0041

> <Smiles>
CNC(C)C(=O)NC(C(=O)N1Cc2cc([101O:1][101CH:1]3CCCN(Cc4ccc([100NH:0][100C:0](=O)N5CCCC(n6nc(-c7ccc(Oc8ccc(F)cc8F)cc7)c(C(N)=O)c6N)C5)c(C)c4C)CC3)ccc2CC1C(=O)NC1CCCc2ccccc21)C(C)(C)C

> <Shape>
0.400

> <Color>
0.192

> <Negative vol penalty>
0.000

$$$$

  -OEChem-04042322093D

 86 95  0     1  0  0  0  0  0999 V2000
  -28.6240  -36.4614   21.7971 C   0  0  0  0  0  0  0  0  0  0  0  0
  -28.7967  -35.0813   21.8242 C   0  0  0  0  0  0  0  0  0  0  0  0
  -23.5509  -12.0719   19.9231 C   0  0  0  0  0  0  0  0  0  0  0  0
  -25.5527  -13.3083   20.4719 C   0  0  0  0  0  0  0  0  0  0  0  0
  -27.4402  -37.0241   22.2724 C   0  0  0  0  0  0  0  0  0  0  0  0
  -27.7860  -34.2630   22.3276 C   0  0  0  0  0  0  0  0  0  0  0  0
  -26.9252  -30.2177   19.4054 C   0  0  0  0  0  0  0  0  0  0  0  0
  -28.6095  -21.6805   21.3079 C   0  0  0  0  0  0  0  0  0  0  0  0
  -27.4456  -20.9944   20.9614 C   0  0  0  0  0  0  0  0  0  0  0  0
  -24.2871  -10.8873   19.9064 C   0  0  0  0  0  0  0  0  0  0  0  0
  -26.2889  -12.1237   20.4552 C   0  0  0  0  0  0  0  0  0  0  0  0
  -27.8242  -29.1568   19.5058 C   0  0  0  0  0  0  0  0  0  0  0  0
  -26.8148   -9.4906   22.5073 C   0  0  0  0  0  0  0  0  0  0  0  0
  -27.7162   -9.2749   23.5496 C   0  0  0  0  0  0  0  0  0  0  0  0
  -26.2762  -27.9887   20.9404 C   0  0  0  0  0  0  0  0  0  0  0  0
  -27.4193  -22.1189   18.8232 C   0  0  0  0  0  0  0  0  0  0  0  0
  -29.5301   -9.1628   21.9576 C   0  0  0  0  0  0  0  0  0  0  0  0
  -24.1837  -13.2824   20.2058 C   0  0  0  0  0  0  0  0  0  0  0  0
  -22.3286  -14.8159   21.0513 C   0  0  0  0  0  0  0  0  0  0  0  0
  -26.4106  -36.2117   22.7730 C   0  0  0  0  0  0  0  0  0  0  0  0
  -25.6975  -30.1767   20.0817 C   0  0  0  0  0  0  0  0  0  0  0  0
  -26.5879  -34.8155   22.8113 C   0  0  0  0  0  0  0  0  0  0  0  0
  -25.3623  -29.0492   20.8449 C   0  0  0  0  0  0  0  0  0  0  0  0
  -29.1784  -22.5859   20.4121 C   0  0  0  0  0  0  0  0  0  0  0  0
  -26.8505  -21.2136   19.7191 C   0  0  0  0  0  0  0  0  0  0  0  0
  -25.6561  -10.9132   20.1724 C   0  0  0  0  0  0  0  0  0  0  0  0
  -27.5010  -28.0433   20.2757 C   0  0  0  0  0  0  0  0  0  0  0  0
  -27.2709   -9.5424   21.1901 C   0  0  0  0  0  0  0  0  0  0  0  0
  -29.0739   -9.1110   23.2747 C   0  0  0  0  0  0  0  0  0  0  0  0
  -28.6286   -9.3785   20.9153 C   0  0  0  0  0  0  0  0  0  0  0  0
  -28.5833  -22.8050   19.1697 C   0  0  0  0  0  0  0  0  0  0  0  0
  -23.4238  -14.5065   20.2226 C   0  0  0  0  0  0  0  0  0  0  0  0
  -21.9655  -16.0874   20.6800 C   0  0  0  0  0  0  0  0  0  0  0  0
  -21.6962  -14.0247   22.0661 C   0  0  0  0  0  0  0  0  0  0  0  0
  -24.3295  -31.9267   22.3554 C   0  0  0  0  0  0  0  0  0  0  0  0
  -21.7739  -30.0269   21.7373 C   0  0  0  0  0  0  0  0  0  0  0  0
  -21.1924  -26.5282   21.0756 C   0  0  0  0  0  0  0  0  0  0  0  0
  -24.9502  -20.6181   18.1761 C   0  0  0  0  0  0  0  0  0  0  0  0
  -25.1680  -36.8689   23.3194 C   0  0  0  0  0  0  0  0  0  0  0  0
  -24.7274  -31.3176   19.9416 C   0  0  0  0  0  0  0  0  0  0  0  0
  -24.0484  -28.9473   21.5741 C   0  0  0  0  0  0  0  0  0  0  0  0
  -23.9951  -35.9069   23.4903 C   0  0  0  0  0  0  0  0  0  0  0  0
  -22.0143  -19.0471   16.9153 C   0  0  0  0  0  0  0  0  0  0  0  0
  -24.4536  -34.6220   24.1726 C   0  0  0  0  0  0  0  0  0  0  0  0
  -21.9396  -17.7353   17.7002 C   0  0  0  0  0  0  0  0  0  0  0  0
  -30.1012  -27.4821   22.0084 C   0  0  0  0  0  0  0  0  0  0  0  0
  -31.2806  -27.0583   21.1406 C   0  0  0  0  0  0  0  0  0  0  0  0
  -23.4562  -19.4293   16.5856 C   0  0  0  0  0  0  0  0  0  0  0  0
  -24.2924  -18.1557   18.5216 C   0  0  0  0  0  0  0  0  0  0  0  0
  -29.1033  -25.1810   21.7472 C   0  0  0  0  0  0  0  0  0  0  0  0
  -25.5047  -33.8930   23.3268 C   0  0  1  0  0  0  0  0  0  0  0  0
  -23.7239  -31.3929   21.0882 C   0  0  1  0  0  0  0  0  0  0  0  0
  -22.8641  -17.7628   18.9331 C   0  0  2  0  0  0  0  0  0  0  0  0
  -28.8484  -26.6794   21.6812 C   0  0  2  0  0  0  0  0  0  1  0  0
  -31.5490  -25.5508   21.2205 C   0  0  2  0  0  0  0  0  0  0  0  0
  -32.6870  -25.1783   20.2721 C   0  0  0  0  0  0  0  0  0  0  0  0
  -19.3571  -25.3930   19.7948 C   0  0  0  0  0  0  0  0  0  0  0  0
  -20.4298  -29.7619   24.4637 C   0  0  0  0  0  0  0  0  0  0  0  0
  -19.6365  -27.4896   23.7740 C   0  0  0  0  0  0  0  0  0  0  0  0
  -18.8880  -29.5065   22.5112 C   0  0  0  0  0  0  0  0  0  0  0  0
  -23.1228  -25.1397   19.3136 C   0  0  0  0  0  0  0  0  0  0  0  0
  -30.4305  -23.3031   20.8229 C   0  0  0  0  0  0  0  0  0  0  0  0
  -21.2728  -28.7041   22.2644 C   0  0  1  0  0  0  0  0  0  0  0  0
  -20.7870  -25.9091   19.7502 C   0  0  2  0  0  0  0  0  0  0  0  0
  -20.0845  -28.8719   23.2530 C   0  0  0  0  0  0  0  0  0  0  0  0
  -23.7359  -15.5013   19.3877 N   0  0  0  0  0  0  0  0  0  0  0  0
  -22.8313  -16.4482   19.6898 N   0  0  0  0  0  0  0  0  0  0  0  0
  -23.1360  -30.0912   21.4112 N   0  0  0  0  0  0  0  0  0  0  0  0
  -24.2718  -19.4389   17.8020 N   0  0  0  0  0  0  0  0  0  0  0  0
  -20.9932  -16.9209   21.1071 N   0  0  0  0  0  0  0  0  0  0  0  0
  -22.1959  -12.7402   22.3200 N   0  0  0  0  0  0  0  0  0  0  0  0
  -25.6674  -20.5173   19.3677 N   0  0  0  0  0  0  0  0  0  0  0  0
  -24.8728  -33.1911   22.2302 N   0  0  0  0  0  0  0  0  0  0  0  0
  -20.9661  -27.8882   21.0945 N   0  0  0  0  0  0  0  0  0  0  0  0
  -30.2706  -24.8045   20.8496 N   0  3  1  0  0  0  0  0  0  0  0  0
  -21.6874  -24.7703   19.4134 N   0  3  0  0  0  0  0  0  0  0  0  0
  -20.7066  -14.4381   22.7166 O   0  0  0  0  0  0  0  0  0  0  0  0
  -24.3044  -31.2428   23.3719 O   0  0  0  0  0  0  0  0  0  0  0  0
  -20.9843  -30.9664   21.6125 O   0  0  0  0  0  0  0  0  0  0  0  0
  -21.6594  -25.8704   22.0029 O   0  0  0  0  0  0  0  0  0  0  0  0
  -24.8766  -21.6501   17.5041 O   0  0  0  0  0  0  0  0  0  0  0  0
  -26.3748   -9.7574   20.1565 O   0  0  0  0  0  0  0  0  0  0  0  0
  -28.3769  -27.0067   20.3760 O   0  0  0  0  0  0  0  0  0  1  0  0
  -29.9397   -8.9054   24.2759 F   0  0  0  0  0  0  0  0  0  0  0  0
  -29.0729   -9.4284   19.6520 F   0  0  0  0  0  0  0  0  0  0  0  0
  -29.2583  -23.9180   18.0360 Cl  0  0  0  0  0  0  0  0  0  0  0  0
  1  2  1  0  0  0  0
  1  5  2  0  0  0  0
  2  6  2  0  0  0  0
  3 10  2  0  0  0  0
  3 18  1  0  0  0  0
  4 11  1  0  0  0  0
  4 18  2  0  0  0  0
  5 20  1  0  0  0  0
  6 22  1  0  0  0  0
  7 12  2  0  0  0  0
  7 21  1  0  0  0  0
  8  9  2  0  0  0  0
  8 24  1  0  0  0  0
  9 25  1  0  0  0  0
 10 26  1  0  0  0  0
 11 26  2  0  0  0  0
 12 27  1  0  0  0  0
 13 14  2  0  0  0  0
 13 28  1  0  0  0  0
 14 29  1  0  0  0  0
 15 23  1  0  0  0  0
 15 27  2  0  0  0  0
 16 25  2  0  0  0  0
 16 31  1  0  0  0  0
 17 29  2  0  0  0  0
 17 30  1  0  0  0  0
 18 32  1  0  0  0  0
 19 32  1  0  0  0  0
 19 33  2  0  0  0  0
 19 34  1  0  0  0  0
 20 22  2  0  0  0  0
 20 39  1  0  0  0  0
 21 23  2  0  0  0  0
 21 40  1  0  0  0  0
 22 51  1  0  0  0  0
 23 41  1  0  0  0  0
 24 31  2  0  0  0  0
 24 62  1  0  0  0  0
 25 72  1  0  0  0  0
 26 82  1  0  0  0  0
 27 83  1  0  0  0  0
 28 30  2  0  0  0  0
 28 82  1  0  0  0  0
 29 84  1  0  0  0  0
 30 85  1  0  0  0  0
 31 86  1  0  0  0  0
 32 66  2  0  0  0  0
 33 67  1  0  0  0  0
 33 70  1  0  0  0  0
 34 71  1  0  0  0  0
 34 77  2  0  0  0  0
 35 52  1  0  0  0  0
 35 73  1  0  0  0  0
 35 78  2  0  0  0  0
 36 63  1  0  0  0  0
 36 68  1  0  0  0  0
 36 79  2  0  0  0  0
 37 64  1  0  0  0  0
 37 74  1  0  0  0  0
 37 80  2  0  0  0  0
 38 69  1  0  0  0  0
 38 72  1  0  0  0  0
 38 81  2  0  0  0  0
 39 42  1  0  0  0  0
 40 52  1  0  0  0  0
 41 68  1  0  0  0  0
 42 44  1  0  0  0  0
 43 45  1  0  0  0  0
 43 48  1  0  0  0  0
 44 51  1  0  0  0  0
 45 53  1  0  0  0  0
 46 47  1  0  0  0  0
 46 54  1  0  0  0  0
 47 55  1  0  0  0  0
 48 69  1  0  0  0  0
 49 53  1  0  0  0  0
 49 69  1  0  0  0  0
 50 54  1  0  0  0  0
 50 75  1  0  0  0  0
 51 73  1  0  0  0  0
 52 68  1  0  0  0  0
 53 67  1  0  0  0  0
 54 83  1  0  0  0  0
 55 56  1  0  0  0  0
 55 75  1  0  0  0  0
 57 64  1  0  0  0  0
 58 65  1  0  0  0  0
 59 65  1  0  0  0  0
 60 65  1  0  0  0  0
 61 76  1  0  0  0  0
 62 75  1  0  0  0  0
 63 65  1  0  0  0  0
 63 74  1  0  0  0  0
 64 76  1  0  0  0  0
 66 67  1  0  0  0  0
M  CHG  2  75   1  76   1
M  ISO  4  38 100  54 101  72 100  83 101
M  END
> <Batch ID>
0041

> <Smiles>
CNC(C)C(=O)NC(C(=O)N1Cc2cc([101O:1][101CH:1]3CCC(C)N(Cc4ccc([100NH:0][100C:0](=O)N5CCCC(n6nc(-c7ccc(Oc8ccc(F)cc8F)cc7)c(C(N)=O)c6N)C5)cc4Cl)C3)ccc2CC1C(=O)NC1CCCc2ccccc21)C(C)(C)C

> <Shape>
0.259

> <Color>
0.071

> <Negative vol penalty>
0.000

$$$$

  -OEChem-04042322093D

 88 97  0     1  0  0  0  0  0999 V2000
  -31.4059  -23.8854   16.1473 C   0  0  0  0  0  0  0  0  0  0  0  0
  -30.6625  -23.7782   17.3183 C   0  0  0  0  0  0  0  0  0  0  0  0
  -22.7125  -10.1181   20.1523 C   0  0  0  0  0  0  0  0  0  0  0  0
  -24.3933   -9.4001   21.7324 C   0  0  0  0  0  0  0  0  0  0  0  0
  -31.9395  -25.1177   15.7721 C   0  0  0  0  0  0  0  0  0  0  0  0
  -30.4531  -24.9031   18.1154 C   0  0  0  0  0  0  0  0  0  0  0  0
  -25.6538  -25.3100   19.6793 C   0  0  0  0  0  0  0  0  0  0  0  0
  -30.8794  -17.9314   20.8348 C   0  0  0  0  0  0  0  0  0  0  0  0
  -22.0282   -8.9163   20.3341 C   0  0  0  0  0  0  0  0  0  0  0  0
  -23.7090   -8.1983   21.9141 C   0  0  0  0  0  0  0  0  0  0  0  0
  -25.2580  -24.4946   20.7386 C   0  0  0  0  0  0  0  0  0  0  0  0
  -21.0014   -7.1086   23.6177 C   0  0  0  0  0  0  0  0  0  0  0  0
  -20.8328   -6.6518   24.9248 C   0  0  0  0  0  0  0  0  0  0  0  0
  -31.0000  -19.3182   20.9228 C   0  0  0  0  0  0  0  0  0  0  0  0
  -25.5215  -26.3502   22.2574 C   0  0  0  0  0  0  0  0  0  0  0  0
  -22.0447   -4.6350   24.3764 C   0  0  0  0  0  0  0  0  0  0  0  0
  -23.8951  -10.3600   20.8515 C   0  0  0  0  0  0  0  0  0  0  0  0
  -24.1202  -12.9004   20.9099 C   0  0  0  0  0  0  0  0  0  0  0  0
  -31.7284  -26.2602   16.5599 C   0  0  0  0  0  0  0  0  0  0  0  0
  -25.9975  -26.6510   19.9031 C   0  0  0  0  0  0  0  0  0  0  0  0
  -30.9855  -26.1515   17.7510 C   0  0  0  0  0  0  0  0  0  0  0  0
  -25.9188  -27.1812   21.1988 C   0  0  0  0  0  0  0  0  0  0  0  0
  -29.2941  -17.9535   22.6578 C   0  0  0  0  0  0  0  0  0  0  0  0
  -29.4148  -19.3403   22.7459 C   0  0  0  0  0  0  0  0  0  0  0  0
  -30.0264  -17.2490   21.7022 C   0  0  0  0  0  0  0  0  0  0  0  0
  -22.5264   -7.9564   21.2150 C   0  0  0  0  0  0  0  0  0  0  0  0
  -25.1946  -25.0139   22.0284 C   0  0  0  0  0  0  0  0  0  0  0  0
  -21.6916   -6.3285   22.6899 C   0  0  0  0  0  0  0  0  0  0  0  0
  -21.3545   -5.4151   25.3042 C   0  0  0  0  0  0  0  0  0  0  0  0
  -22.2133   -5.0918   23.0692 C   0  0  0  0  0  0  0  0  0  0  0  0
  -30.2678  -20.0227   21.8784 C   0  0  0  0  0  0  0  0  0  0  0  0
  -24.6027  -11.6010   20.6637 C   0  0  0  0  0  0  0  0  0  0  0  0
  -25.1672  -13.7244   20.5765 C   0  0  0  0  0  0  0  0  0  0  0  0
  -26.9845  -21.2474   22.4340 C   0  0  0  0  0  0  0  0  0  0  0  0
  -27.1539  -20.8932   21.1482 C   0  0  0  0  0  0  0  0  0  0  0  0
  -22.8400  -13.3246   21.3966 C   0  0  0  0  0  0  0  0  0  0  0  0
  -28.6352  -28.3839   19.5244 C   0  0  0  0  0  0  0  0  0  0  0  0
  -26.6770  -30.8335   20.3535 C   0  0  0  0  0  0  0  0  0  0  0  0
  -23.8369  -31.8622   21.9418 C   0  0  0  0  0  0  0  0  0  0  0  0
  -30.5839  -15.0083   20.6950 C   0  0  0  0  0  0  0  0  0  0  0  0
  -32.3650  -27.5607   16.1379 C   0  0  0  0  0  0  0  0  0  0  0  0
  -26.3967  -27.5246   18.7455 C   0  0  0  0  0  0  0  0  0  0  0  0
  -26.2578  -28.6198   21.4889 C   0  0  0  0  0  0  0  0  0  0  0  0
  -26.6223  -22.6555   22.8152 C   0  0  0  0  0  0  0  0  0  0  0  0
  -31.7814  -28.7818   16.8441 C   0  0  0  0  0  0  0  0  0  0  0  0
  -29.5135  -12.7236   18.1827 C   0  0  0  0  0  0  0  0  0  0  0  0
  -24.8396  -20.6548   24.3342 C   0  0  0  0  0  0  0  0  0  0  0  0
  -31.6628  -28.5256   18.3431 C   0  0  0  0  0  0  0  0  0  0  0  0
  -28.1007  -12.3347   18.6245 C   0  0  0  0  0  0  0  0  0  0  0  0
  -24.5195  -22.1426   24.1954 C   0  0  0  0  0  0  0  0  0  0  0  0
  -30.4503  -12.9069   19.3754 C   0  0  0  0  0  0  0  0  0  0  0  0
  -28.5519  -13.4394   20.8523 C   0  0  0  0  0  0  0  0  0  0  0  0
  -26.3075  -20.3895   24.6584 C   0  0  0  0  0  0  0  0  0  0  0  0
  -30.7157  -27.3540   18.6293 C   0  0  1  0  0  0  0  0  0  0  0  0
  -27.2190  -28.7380   19.1684 C   0  0  1  0  0  0  0  0  0  0  0  0
  -27.5555  -13.3070   19.6889 C   0  0  2  0  0  0  0  0  0  0  0  0
  -25.1086  -22.8267   22.9621 C   0  0  1  0  0  0  0  0  0  1  0  0
  -28.3781  -17.2214   23.5885 C   0  0  0  0  0  0  0  0  0  0  0  0
  -22.5203  -33.9292   22.4815 C   0  0  0  0  0  0  0  0  0  0  0  0
  -28.7045  -31.5574   22.5157 C   0  0  0  0  0  0  0  0  0  0  0  0
  -26.9429  -32.9704   23.5966 C   0  0  0  0  0  0  0  0  0  0  0  0
  -27.7373  -33.5144   21.2953 C   0  0  0  0  0  0  0  0  0  0  0  0
  -21.4723  -30.8848   20.4543 C   0  0  0  0  0  0  0  0  0  0  0  0
  -28.6214  -20.0849   23.7789 C   0  0  0  0  0  0  0  0  0  0  0  0
  -26.2719  -31.4854   21.6535 C   0  0  1  0  0  0  0  0  0  0  0  0
  -22.7135  -32.7830   21.5009 C   0  0  2  0  0  0  0  0  0  0  0  0
  -27.4096  -32.3542   22.2604 C   0  0  0  0  0  0  0  0  0  0  0  0
  -25.8585  -11.5949   20.2089 N   0  0  0  0  0  0  0  0  0  0  0  0
  -26.1739  -12.9006   20.1665 N   0  0  0  0  0  0  0  0  0  0  0  0
  -26.6487  -29.4320   20.3248 N   0  0  0  0  0  0  0  0  0  0  0  0
  -29.8703  -13.8440   20.3398 N   0  0  0  0  0  0  0  0  0  0  0  0
  -25.3158  -15.0660   20.5970 N   0  0  0  0  0  0  0  0  0  0  0  0
  -21.8794  -12.3471   21.6903 N   0  0  0  0  0  0  0  0  0  0  0  0
  -29.9187  -15.8402   21.5949 N   0  0  0  0  0  0  0  0  0  0  0  0
  -29.3372  -27.7756   18.5014 N   0  0  0  0  0  0  0  0  0  0  0  0
  -25.0424  -32.2200   21.3760 N   0  0  0  0  0  0  0  0  0  0  0  0
  -27.1600  -20.2116   23.4240 N   0  3  2  0  0  0  0  0  0  0  0  0
  -21.4327  -32.0274   21.4029 N   0  3  0  0  0  0  0  0  0  0  0  0
  -22.5506  -14.5354   21.5504 O   0  0  0  0  0  0  0  0  0  0  0  0
  -29.0600  -28.6447   20.6439 O   0  0  0  0  0  0  0  0  0  0  0  0
  -26.9995  -31.5418   19.3965 O   0  0  0  0  0  0  0  0  0  0  0  0
  -23.6632  -30.9219   22.7140 O   0  0  0  0  0  0  0  0  0  0  0  0
  -31.6910  -15.2630   20.2137 O   0  0  0  0  0  0  0  0  0  0  0  0
  -21.8588   -6.7837   21.3927 O   0  0  0  0  0  0  0  0  0  0  0  0
  -24.8092  -24.2200   23.0643 O   0  0  0  0  0  0  0  0  0  1  0  0
  -21.1938   -4.9773   26.5598 F   0  0  0  0  0  0  0  0  0  0  0  0
  -22.8784   -4.3384   22.1827 F   0  0  0  0  0  0  0  0  0  0  0  0
  -30.4483  -21.7380   21.9553 Cl  0  0  0  0  0  0  0  0  0  0  0  0
  1  2  1  0  0  0  0
  1  5  2  0  0  0  0
  2  6  2  0  0  0  0
  3  9  2  0  0  0  0
  3 17  1  0  0  0  0
  4 10  1  0  0  0  0
  4 17  2  0  0  0  0
  5 19  1  0  0  0  0
  6 21  1  0  0  0  0
  7 11  2  0  0  0  0
  7 20  1  0  0  0  0
  8 14  1  0  0  0  0
  8 25  2  0  0  0  0
  9 26  1  0  0  0  0
 10 26  2  0  0  0  0
 11 27  1  0  0  0  0
 12 13  2  0  0  0  0
 12 28  1  0  0  0  0
 13 29  1  0  0  0  0
 14 31  2  0  0  0  0
 15 22  1  0  0  0  0
 15 27  2  0  0  0  0
 16 29  2  0  0  0  0
 16 30  1  0  0  0  0
 17 32  1  0  0  0  0
 18 32  1  0  0  0  0
 18 33  2  0  0  0  0
 18 36  1  0  0  0  0
 19 21  2  0  0  0  0
 19 41  1  0  0  0  0
 20 22  2  0  0  0  0
 20 42  1  0  0  0  0
 21 54  1  0  0  0  0
 22 43  1  0  0  0  0
 23 24  2  0  0  0  0
 23 25  1  0  0  0  0
 23 58  1  0  0  0  0
 24 31  1  0  0  0  0
 24 64  1  0  0  0  0
 25 74  1  0  0  0  0
 26 84  1  0  0  0  0
 27 85  1  0  0  0  0
 28 30  2  0  0  0  0
 28 84  1  0  0  0  0
 29 86  1  0  0  0  0
 30 87  1  0  0  0  0
 31 88  1  0  0  0  0
 32 68  2  0  0  0  0
 33 69  1  0  0  0  0
 33 72  1  0  0  0  0
 34 35  2  0  0  0  0
 34 44  1  0  0  0  0
 34 77  1  0  0  0  0
 36 73  1  0  0  0  0
 36 79  2  0  0  0  0
 37 55  1  0  0  0  0
 37 75  1  0  0  0  0
 37 80  2  0  0  0  0
 38 65  1  0  0  0  0
 38 70  1  0  0  0  0
 38 81  2  0  0  0  0
 39 66  1  0  0  0  0
 39 76  1  0  0  0  0
 39 82  2  0  0  0  0
 40 71  1  0  0  0  0
 40 74  1  0  0  0  0
 40 83  2  0  0  0  0
 41 45  1  0  0  0  0
 42 55  1  0  0  0  0
 43 70  1  0  0  0  0
 44 57  1  0  0  0  0
 45 48  1  0  0  0  0
 46 49  1  0  0  0  0
 46 51  1  0  0  0  0
 47 50  1  0  0  0  0
 47 53  1  0  0  0  0
 48 54  1  0  0  0  0
 49 56  1  0  0  0  0
 50 57  1  0  0  0  0
 51 71  1  0  0  0  0
 52 56  1  0  0  0  0
 52 71  1  0  0  0  0
 53 77  1  0  0  0  0
 54 75  1  0  0  0  0
 55 70  1  0  0  0  0
 56 69  1  0  0  0  0
 57 85  1  0  0  0  0
 59 66  1  0  0  0  0
 60 67  1  0  0  0  0
 61 67  1  0  0  0  0
 62 67  1  0  0  0  0
 63 78  1  0  0  0  0
 64 77  1  0  0  0  0
 65 67  1  0  0  0  0
 65 76  1  0  0  0  0
 66 78  1  0  0  0  0
 68 69  1  0  0  0  0
M  CHG  2  77   1  78   1
M  ISO  4  40 100  57 101  74 100  85 101
M  END
> <Batch ID>
0041

> <Smiles>
C=C1C[101CH:1]([101O:1]c2ccc3c(c2)CN(C(=O)C(NC(=O)C(C)NC)C(C)(C)C)C(C(=O)NC2CCCc4ccccc42)C3)CCCN1Cc1c(Cl)ccc([100NH:0][100C:0](=O)N2CCCC(n3nc(-c4ccc(Oc5ccc(F)cc5F)cc4)c(C(N)=O)c3N)C2)c1C

> <Shape>
0.326

> <Color>
0.208

> <Negative vol penalty>
0.000

$$$$

  -OEChem-04042322093D

 88 96  0     1  0  0  0  0  0999 V2000
  -16.5983  -29.3929   23.5639 C   0  0  0  0  0  0  0  0  0  0  0  0
  -17.3836  -28.9895   22.4888 C   0  0  0  0  0  0  0  0  0  0  0  0
  -25.7253  -14.1372   21.3693 C   0  0  0  0  0  0  0  0  0  0  0  0
  -25.5352  -14.6775   19.0221 C   0  0  0  0  0  0  0  0  0  0  0  0
  -17.2025  -29.8532   24.7331 C   0  0  0  0  0  0  0  0  0  0  0  0
  -18.7737  -29.0472   22.5818 C   0  0  0  0  0  0  0  0  0  0  0  0
  -24.6653  -25.6496   20.3319 C   0  0  0  0  0  0  0  0  0  0  0  0
  -33.4232  -23.9415   17.3943 C   0  0  0  0  0  0  0  0  0  0  0  0
  -32.5030  -23.3167   16.5526 C   0  0  0  0  0  0  0  0  0  0  0  0
  -24.7242  -13.1761   21.2292 C   0  0  0  0  0  0  0  0  0  0  0  0
  -24.5341  -13.7163   18.8820 C   0  0  0  0  0  0  0  0  0  0  0  0
  -25.8799  -25.9054   19.6970 C   0  0  0  0  0  0  0  0  0  0  0  0
  -24.4523  -10.0143   20.0622 C   0  0  0  0  0  0  0  0  0  0  0  0
  -24.6609   -8.7696   20.6562 C   0  0  0  0  0  0  0  0  0  0  0  0
  -26.8144  -26.6432   21.7949 C   0  0  0  0  0  0  0  0  0  0  0  0
  -22.6807   -9.0814   22.0048 C   0  0  0  0  0  0  0  0  0  0  0  0
  -26.1308  -14.8879   20.2658 C   0  0  0  0  0  0  0  0  0  0  0  0
  -28.5511  -15.6940   20.2544 C   0  0  0  0  0  0  0  0  0  0  0  0
  -18.6008  -29.9074   24.8440 C   0  0  0  0  0  0  0  0  0  0  0  0
  -24.5126  -25.8995   21.7033 C   0  0  0  0  0  0  0  0  0  0  0  0
  -19.3972  -29.5099   23.7531 C   0  0  0  0  0  0  0  0  0  0  0  0
  -25.5977  -26.3874   22.4454 C   0  0  0  0  0  0  0  0  0  0  0  0
  -33.2463  -23.8963   18.7772 C   0  0  0  0  0  0  0  0  0  0  0  0
  -31.4058  -22.6467   17.0938 C   0  0  0  0  0  0  0  0  0  0  0  0
  -32.1490  -23.2263   19.3183 C   0  0  0  0  0  0  0  0  0  0  0  0
  -31.2288  -22.6015   18.4766 C   0  0  0  0  0  0  0  0  0  0  0  0
  -24.1286  -12.9656   19.9855 C   0  0  0  0  0  0  0  0  0  0  0  0
  -26.9538  -26.4049   20.4278 C   0  0  0  0  0  0  0  0  0  0  0  0
  -23.3580  -10.7926   20.4396 C   0  0  0  0  0  0  0  0  0  0  0  0
  -23.7751   -8.3031   21.6275 C   0  0  0  0  0  0  0  0  0  0  0  0
  -22.4722  -10.3261   21.4109 C   0  0  0  0  0  0  0  0  0  0  0  0
  -27.1645  -15.8813   20.4100 C   0  0  0  0  0  0  0  0  0  0  0  0
  -29.0939  -16.9326   20.4947 C   0  0  0  0  0  0  0  0  0  0  0  0
  -29.2829  -14.5067   19.9223 C   0  0  0  0  0  0  0  0  0  0  0  0
  -22.6655  -27.8145   23.4425 C   0  0  0  0  0  0  0  0  0  0  0  0
  -24.0152  -26.2188   25.9233 C   0  0  0  0  0  0  0  0  0  0  0  0
  -26.6388  -24.3827   27.1032 C   0  0  0  0  0  0  0  0  0  0  0  0
  -29.1041  -22.4599   19.8227 C   0  0  0  0  0  0  0  0  0  0  0  0
  -19.2078  -30.4568   26.1107 C   0  0  0  0  0  0  0  0  0  0  0  0
  -23.2041  -25.5931   22.3787 C   0  0  0  0  0  0  0  0  0  0  0  0
  -25.4915  -26.6534   23.9241 C   0  0  0  0  0  0  0  0  0  0  0  0
  -20.6917  -30.1337   26.2650 C   0  0  0  0  0  0  0  0  0  0  0  0
  -26.9972  -21.1401   22.3715 C   0  0  0  0  0  0  0  0  0  0  0  0
  -21.4372  -30.4141   24.9641 C   0  0  0  0  0  0  0  0  0  0  0  0
  -26.9670  -19.6389   22.0756 C   0  0  0  0  0  0  0  0  0  0  0  0
  -27.0230  -21.9705   21.0895 C   0  0  0  0  0  0  0  0  0  0  0  0
  -28.0542  -20.1120   19.8438 C   0  0  0  0  0  0  0  0  0  0  0  0
  -20.9086  -29.5343   23.8247 C   0  0  1  0  0  0  0  0  0  0  0  0
  -23.0054  -26.3697   23.6767 C   0  0  1  0  0  0  0  0  0  0  0  0
  -28.0931  -19.2331   21.1046 C   0  0  2  0  0  0  0  0  0  0  0  0
  -30.4370  -21.9876   16.1659 C   0  0  0  0  0  0  0  0  0  0  0  0
  -31.9647  -23.1830   20.8031 C   0  0  0  0  0  0  0  0  0  0  0  0
  -27.9661  -22.9828   28.7082 C   0  0  0  0  0  0  0  0  0  0  0  0
  -24.7899  -28.9321   27.0841 C   0  0  0  0  0  0  0  0  0  0  0  0
  -26.3974  -27.7486   28.5953 C   0  0  0  0  0  0  0  0  0  0  0  0
  -23.9532  -27.2792   28.7640 C   0  0  0  0  0  0  0  0  0  0  0  0
  -32.6104  -29.1989   18.7341 C   0  0  0  0  0  0  0  0  0  0  0  0
  -33.9248  -28.8121   20.8145 C   0  0  0  0  0  0  0  0  0  0  0  0
  -25.4026  -21.8789   26.1224 C   0  0  0  0  0  0  0  0  0  0  0  0
  -34.2511  -24.5770   19.6591 C   0  0  0  0  0  0  0  0  0  0  0  0
  -33.4341  -26.8976   19.2278 C   0  0  0  0  0  0  0  0  0  0  0  0
  -31.5845  -27.9600   20.6926 C   0  0  0  0  0  0  0  0  0  0  0  0
  -29.2028  -27.1684   20.6193 C   0  0  0  0  0  0  0  0  0  1  0  0
  -25.2477  -26.4101   26.7738 C   0  0  1  0  0  0  0  0  0  0  0  0
  -26.6873  -23.0864   27.8917 C   0  0  2  0  0  0  0  0  0  0  0  0
  -25.0988  -27.5894   27.7761 C   0  0  0  0  0  0  0  0  0  0  0  0
  -32.8743  -28.1877   19.8707 C   0  0  0  0  0  0  0  0  0  0  0  0
  -26.8463  -17.1396   20.7249 N   0  0  0  0  0  0  0  0  0  0  0  0
  -28.0405  -17.7543   20.7693 N   0  0  0  0  0  0  0  0  0  0  0  0
  -24.1896  -26.3438   24.5377 N   0  0  0  0  0  0  0  0  0  0  0  0
  -28.1178  -21.5328   20.2207 N   0  0  0  0  0  0  0  0  0  0  0  0
  -30.3647  -17.3881   20.4959 N   0  0  0  0  0  0  0  0  0  0  0  0
  -28.5690  -13.3198   19.7077 N   0  0  0  0  0  0  0  0  0  0  0  0
  -30.1127  -21.9216   19.0243 N   0  0  0  0  0  0  0  0  0  0  0  0
  -21.4321  -28.1900   23.9396 N   0  0  0  0  0  0  0  0  0  0  0  0
  -25.5136  -25.1211   27.4031 N   0  0  0  0  0  0  0  0  0  0  0  0
  -26.6219  -21.9169   26.9703 N   0  3  0  0  0  0  0  0  0  0  0  0
  -33.7509  -25.8556   20.2344 N   0  3  0  0  0  0  0  0  0  0  0  0
  -30.4641  -27.4487   19.8595 N   0  3  0  0  0  0  0  0  0  0  0  0
  -30.5342  -14.4947   19.8350 O   0  0  0  0  0  0  0  0  0  0  0  0
  -23.4639  -28.5355   22.8555 O   0  0  0  0  0  0  0  0  0  0  0  0
  -22.9388  -25.9605   26.4678 O   0  0  0  0  0  0  0  0  0  0  0  0
  -27.5136  -24.7095   26.3042 O   0  0  0  0  0  0  0  0  0  0  0  0
  -29.0721  -23.6381   20.1873 O   0  0  0  0  0  0  0  0  0  0  0  0
  -23.1518  -12.0277   19.8484 O   0  0  0  0  0  0  0  0  0  0  0  0
  -28.1402  -26.6560   19.8104 O   0  0  0  0  0  0  0  0  0  1  0  0
  -23.9747   -7.1071   22.1967 F   0  0  0  0  0  0  0  0  0  0  0  0
  -21.4184  -11.0688   21.7767 F   0  0  0  0  0  0  0  0  0  0  0  0
  1  2  1  0  0  0  0
  1  5  2  0  0  0  0
  2  6  2  0  0  0  0
  3 10  2  0  0  0  0
  3 17  1  0  0  0  0
  4 11  1  0  0  0  0
  4 17  2  0  0  0  0
  5 19  1  0  0  0  0
  6 21  1  0  0  0  0
  7 12  2  0  0  0  0
  7 20  1  0  0  0  0
  8  9  2  0  0  0  0
  8 23  1  0  0  0  0
  9 24  1  0  0  0  0
 10 27  1  0  0  0  0
 11 27  2  0  0  0  0
 12 28  1  0  0  0  0
 13 14  2  0  0  0  0
 13 29  1  0  0  0  0
 14 30  1  0  0  0  0
 15 22  1  0  0  0  0
 15 28  2  0  0  0  0
 16 30  2  0  0  0  0
 16 31  1  0  0  0  0
 17 32  1  0  0  0  0
 18 32  1  0  0  0  0
 18 33  2  0  0  0  0
 18 34  1  0  0  0  0
 19 21  2  0  0  0  0
 19 39  1  0  0  0  0
 20 22  2  0  0  0  0
 20 40  1  0  0  0  0
 21 48  1  0  0  0  0
 22 41  1  0  0  0  0
 23 25  2  0  0  0  0
 23 60  1  0  0  0  0
 24 26  2  0  0  0  0
 24 51  1  0  0  0  0
 25 26  1  0  0  0  0
 25 52  1  0  0  0  0
 26 74  1  0  0  0  0
 27 85  1  0  0  0  0
 28 86  1  0  0  0  0
 29 31  2  0  0  0  0
 29 85  1  0  0  0  0
 30 87  1  0  0  0  0
 31 88  1  0  0  0  0
 32 68  2  0  0  0  0
 33 69  1  0  0  0  0
 33 72  1  0  0  0  0
 34 73  1  0  0  0  0
 34 80  2  0  0  0  0
 35 49  1  0  0  0  0
 35 75  1  0  0  0  0
 35 81  2  0  0  0  0
 36 64  1  0  0  0  0
 36 70  1  0  0  0  0
 36 82  2  0  0  0  0
 37 65  1  0  0  0  0
 37 76  1  0  0  0  0
 37 83  2  0  0  0  0
 38 71  1  0  0  0  0
 38 74  1  0  0  0  0
 38 84  2  0  0  0  0
 39 42  1  0  0  0  0
 40 49  1  0  0  0  0
 41 70  1  0  0  0  0
 42 44  1  0  0  0  0
 43 45  1  0  0  0  0
 43 46  1  0  0  0  0
 44 48  1  0  0  0  0
 45 50  1  0  0  0  0
 46 71  1  0  0  0  0
 47 50  1  0  0  0  0
 47 71  1  0  0  0  0
 48 75  1  0  0  0  0
 49 70  1  0  0  0  0
 50 69  1  0  0  0  0
 53 65  1  0  0  0  0
 54 66  1  0  0  0  0
 55 66  1  0  0  0  0
 56 66  1  0  0  0  0
 57 67  1  0  0  0  0
 58 67  1  0  0  0  0
 59 77  1  0  0  0  0
 60 78  1  0  0  0  0
 61 67  1  0  0  0  0
 61 78  1  0  0  0  0
 62 67  1  0  0  0  0
 62 79  1  0  0  0  0
 63 79  1  0  0  0  0
 63 86  1  0  0  0  0
 64 66  1  0  0  0  0
 64 76  1  0  0  0  0
 65 77  1  0  0  0  0
 68 69  1  0  0  0  0
M  CHG  3  77   1  78   1  79   1
M  ISO  4  38 100  63 101  74 100  86 101
M  END
> <Batch ID>
0041

> <Smiles>
CNC(C)C(=O)NC(C(=O)N1Cc2cc([101O:1][101CH2:1]NCC(C)(C)CNCc3ccc(C)c([100NH:0][100C:0](=O)N4CCCC(n5nc(-c6ccc(Oc7ccc(F)cc7F)cc6)c(C(N)=O)c5N)C4)c3C)ccc2CC1C(=O)NC1CCCc2ccccc21)C(C)(C)C

> <Shape>
0.221

> <Color>
0.083

> <Negative vol penalty>
0.000

$$$$

  -OEChem-04042322093D

 83 91  0     1  0  0  0  0  0999 V2000
  -26.3156  -33.0919   19.3559 C   0  0  0  0  0  0  0  0  0  0  0  0
  -27.3836  -32.4218   19.9439 C   0  0  0  0  0  0  0  0  0  0  0  0
  -23.0269   -9.9166   19.9634 C   0  0  0  0  0  0  0  0  0  0  0  0
  -23.7973   -9.9111   22.2533 C   0  0  0  0  0  0  0  0  0  0  0  0
  -25.0176  -32.6086   19.5161 C   0  0  0  0  0  0  0  0  0  0  0  0
  -27.1541  -31.2685   20.6934 C   0  0  0  0  0  0  0  0  0  0  0  0
  -30.7940  -26.3607   21.1056 C   0  0  0  0  0  0  0  0  0  0  0  0
  -32.8404  -17.2694   23.3861 C   0  0  0  0  0  0  0  0  0  0  0  0
  -32.2066  -16.4061   22.4925 C   0  0  0  0  0  0  0  0  0  0  0  0
  -22.2533   -8.7849   20.2210 C   0  0  0  0  0  0  0  0  0  0  0  0
  -23.0236   -8.7795   22.5109 C   0  0  0  0  0  0  0  0  0  0  0  0
  -31.7296  -25.9643   22.0603 C   0  0  0  0  0  0  0  0  0  0  0  0
  -19.7778   -8.0716   23.1309 C   0  0  0  0  0  0  0  0  0  0  0  0
  -19.0255   -8.0564   24.3054 C   0  0  0  0  0  0  0  0  0  0  0  0
  -30.0564  -24.5863   23.1190 C   0  0  0  0  0  0  0  0  0  0  0  0
  -30.6988  -18.2010   24.0049 C   0  0  0  0  0  0  0  0  0  0  0  0
  -20.2173   -6.0886   25.0433 C   0  0  0  0  0  0  0  0  0  0  0  0
  -23.7990  -10.4797   20.9796 C   0  0  0  0  0  0  0  0  0  0  0  0
  -24.2086  -12.9942   20.8487 C   0  0  0  0  0  0  0  0  0  0  0  0
  -24.7731  -31.4434   20.2599 C   0  0  0  0  0  0  0  0  0  0  0  0
  -29.4775  -25.8806   21.1570 C   0  0  0  0  0  0  0  0  0  0  0  0
  -25.8515  -30.7700   20.8648 C   0  0  0  0  0  0  0  0  0  0  0  0
  -29.1068  -24.9762   22.1623 C   0  0  0  0  0  0  0  0  0  0  0  0
  -32.0864  -18.1669   24.1424 C   0  0  0  0  0  0  0  0  0  0  0  0
  -30.0650  -17.3377   23.1112 C   0  0  0  0  0  0  0  0  0  0  0  0
  -30.8190  -16.4402   22.3550 C   0  0  0  0  0  0  0  0  0  0  0  0
  -22.2515   -8.2164   21.4947 C   0  0  0  0  0  0  0  0  0  0  0  0
  -31.3601  -25.0793   23.0689 C   0  0  0  0  0  0  0  0  0  0  0  0
  -20.7499   -7.0953   22.9126 C   0  0  0  0  0  0  0  0  0  0  0  0
  -19.2452   -7.0650   25.2616 C   0  0  0  0  0  0  0  0  0  0  0  0
  -20.9696   -6.1039   23.8688 C   0  0  0  0  0  0  0  0  0  0  0  0
  -24.5989  -11.6483   20.7140 C   0  0  0  0  0  0  0  0  0  0  0  0
  -25.3190  -13.7125   20.4778 C   0  0  0  0  0  0  0  0  0  0  0  0
  -22.9545  -13.5457   21.2715 C   0  0  0  0  0  0  0  0  0  0  0  0
  -26.6157  -27.2151   21.5218 C   0  0  0  0  0  0  0  0  0  0  0  0
  -25.5672  -24.2015   20.9377 C   0  0  0  0  0  0  0  0  0  0  0  0
  -26.2142  -20.8509   20.9736 C   0  0  0  0  0  0  0  0  0  0  0  0
  -30.8123  -14.6100   20.6239 C   0  0  0  0  0  0  0  0  0  0  0  0
  -23.3479  -30.9859   20.4447 C   0  0  0  0  0  0  0  0  0  0  0  0
  -28.4874  -26.2970   20.1041 C   0  0  0  0  0  0  0  0  0  0  0  0
  -27.7115  -24.4158   22.2498 C   0  0  0  0  0  0  0  0  0  0  0  0
  -23.2296  -29.5473   20.9416 C   0  0  0  0  0  0  0  0  0  0  0  0
  -29.6219  -12.2189   18.2696 C   0  0  0  0  0  0  0  0  0  0  0  0
  -24.1893  -29.3027   22.1018 C   0  0  0  0  0  0  0  0  0  0  0  0
  -28.1769  -11.9680   18.7067 C   0  0  0  0  0  0  0  0  0  0  0  0
  -30.5484  -12.4271   19.4663 C   0  0  0  0  0  0  0  0  0  0  0  0
  -28.6682  -13.2079   20.8534 C   0  0  0  0  0  0  0  0  0  0  0  0
  -25.6455  -29.5018   21.6646 C   0  0  1  0  0  0  0  0  0  0  0  0
  -27.0375  -26.1459   20.5541 C   0  0  1  0  0  0  0  0  0  0  0  0
  -27.6856  -13.0569   19.6807 C   0  0  2  0  0  0  0  0  0  0  0  0
  -28.5774  -17.3982   22.9822 C   0  0  0  0  0  0  0  0  0  0  0  0
  -25.1499  -18.6336   20.4752 C   0  0  0  0  0  0  0  0  0  0  0  0
  -23.9648  -24.3913   23.5273 C   0  0  0  0  0  0  0  0  0  0  0  0
  -23.7074  -21.9016   23.4687 C   0  0  0  0  0  0  0  0  0  0  0  0
  -22.7571  -23.2956   21.6312 C   0  0  0  0  0  0  0  0  0  0  0  0
  -28.2296  -20.2187   18.9005 C   0  0  0  0  0  0  0  0  0  0  0  0
  -32.7685  -19.0971   25.1018 C   0  0  0  0  0  0  0  0  0  0  0  0
  -33.4820  -22.8564   24.9618 C   0  0  0  0  0  0  0  0  0  0  0  0
  -33.4455  -21.4576   25.5586 C   0  0  0  0  0  0  0  0  0  0  0  0
  -32.1109  -23.3894   24.5644 C   0  0  0  0  0  0  0  0  0  1  0  0
  -25.2621  -22.9921   21.7880 C   0  0  1  0  0  0  0  0  0  0  0  0
  -25.9973  -19.7718   19.9281 C   0  0  2  0  0  0  0  0  0  0  0  0
  -23.9487  -23.1570   22.6036 C   0  0  0  0  0  0  0  0  0  0  0  0
  -25.8588  -11.5167   20.2904 N   0  0  0  0  0  0  0  0  0  0  0  0
  -26.2697  -12.7891   20.1556 N   0  0  0  0  0  0  0  0  0  0  0  0
  -26.7778  -24.8580   21.2009 N   0  0  0  0  0  0  0  0  0  0  0  0
  -30.0217  -13.4758   20.3423 N   0  0  0  0  0  0  0  0  0  0  0  0
  -25.5651  -15.0375   20.3989 N   0  0  0  0  0  0  0  0  0  0  0  0
  -21.9199  -12.6656   21.6167 N   0  0  0  0  0  0  0  0  0  0  0  0
  -30.1940  -15.5552   21.4418 N   0  0  0  0  0  0  0  0  0  0  0  0
  -26.1113  -28.3519   20.9195 N   0  0  0  0  0  0  0  0  0  0  0  0
  -25.2646  -21.8466   20.8845 N   0  0  0  0  0  0  0  0  0  0  0  0
  -27.3046  -19.2122   19.4823 N   0  3  0  0  0  0  0  0  0  0  0  0
  -32.8342  -20.5001   24.6072 N   0  3  0  0  0  0  0  0  0  0  0  0
  -22.7520  -14.7825   21.3254 O   0  0  0  0  0  0  0  0  0  0  0  0
  -26.7375  -27.0224   22.7259 O   0  0  0  0  0  0  0  0  0  0  0  0
  -24.7644  -24.5467   20.0671 O   0  0  0  0  0  0  0  0  0  0  0  0
  -27.1319  -20.8122   21.7902 O   0  0  0  0  0  0  0  0  0  0  0  0
  -31.9434  -14.7464   20.1506 O   0  0  0  0  0  0  0  0  0  0  0  0
  -21.4965   -7.1123   21.7465 O   0  0  0  0  0  0  0  0  0  0  0  0
  -32.2711  -24.6912   24.0023 O   0  0  0  0  0  0  0  0  0  1  0  0
  -18.5237   -7.0514   26.3901 F   0  0  0  0  0  0  0  0  0  0  0  0
  -21.9029   -5.1640   23.6652 F   0  0  0  0  0  0  0  0  0  0  0  0
  1  2  1  0  0  0  0
  1  5  2  0  0  0  0
  2  6  2  0  0  0  0
  3 10  2  0  0  0  0
  3 18  1  0  0  0  0
  4 11  1  0  0  0  0
  4 18  2  0  0  0  0
  5 20  1  0  0  0  0
  6 22  1  0  0  0  0
  7 12  2  0  0  0  0
  7 21  1  0  0  0  0
  8  9  2  0  0  0  0
  8 24  1  0  0  0  0
  9 26  1  0  0  0  0
 10 27  1  0  0  0  0
 11 27  2  0  0  0  0
 12 28  1  0  0  0  0
 13 14  2  0  0  0  0
 13 29  1  0  0  0  0
 14 30  1  0  0  0  0
 15 23  1  0  0  0  0
 15 28  2  0  0  0  0
 16 24  2  0  0  0  0
 16 25  1  0  0  0  0
 17 30  2  0  0  0  0
 17 31  1  0  0  0  0
 18 32  1  0  0  0  0
 19 32  1  0  0  0  0
 19 33  2  0  0  0  0
 19 34  1  0  0  0  0
 20 22  2  0  0  0  0
 20 39  1  0  0  0  0
 21 23  2  0  0  0  0
 21 40  1  0  0  0  0
 22 48  1  0  0  0  0
 23 41  1  0  0  0  0
 24 57  1  0  0  0  0
 25 26  2  0  0  0  0
 25 51  1  0  0  0  0
 26 70  1  0  0  0  0
 27 80  1  0  0  0  0
 28 81  1  0  0  0  0
 29 31  2  0  0  0  0
 29 80  1  0  0  0  0
 30 82  1  0  0  0  0
 31 83  1  0  0  0  0
 32 64  2  0  0  0  0
 33 65  1  0  0  0  0
 33 68  1  0  0  0  0
 34 69  1  0  0  0  0
 34 75  2  0  0  0  0
 35 49  1  0  0  0  0
 35 71  1  0  0  0  0
 35 76  2  0  0  0  0
 36 61  1  0  0  0  0
 36 66  1  0  0  0  0
 36 77  2  0  0  0  0
 37 62  1  0  0  0  0
 37 72  1  0  0  0  0
 37 78  2  0  0  0  0
 38 67  1  0  0  0  0
 38 70  1  0  0  0  0
 38 79  2  0  0  0  0
 39 42  1  0  0  0  0
 40 49  1  0  0  0  0
 41 66  1  0  0  0  0
 42 44  1  0  0  0  0
 43 45  1  0  0  0  0
 43 46  1  0  0  0  0
 44 48  1  0  0  0  0
 45 50  1  0  0  0  0
 46 67  1  0  0  0  0
 47 50  1  0  0  0  0
 47 67  1  0  0  0  0
 48 71  1  0  0  0  0
 49 66  1  0  0  0  0
 50 65  1  0  0  0  0
 52 62  1  0  0  0  0
 53 63  1  0  0  0  0
 54 63  1  0  0  0  0
 55 63  1  0  0  0  0
 56 73  1  0  0  0  0
 57 74  1  0  0  0  0
 58 59  1  0  0  0  0
 58 60  1  0  0  0  0
 59 74  1  0  0  0  0
 60 81  1  0  0  0  0
 61 63  1  0  0  0  0
 61 72  1  0  0  0  0
 62 73  1  0  0  0  0
 64 65  1  0  0  0  0
M  CHG  2  73   1  74   1
M  ISO  4  38 100  60 101  70 100  81 101
M  END
> <Batch ID>
0041

> <Smiles>
CNC(C)C(=O)NC(C(=O)N1Cc2cc([101O:1][101CH2:1]CCNCc3ccc([100NH:0][100C:0](=O)N4CCCC(n5nc(-c6ccc(Oc7ccc(F)cc7F)cc6)c(C(N)=O)c5N)C4)c(C)c3)ccc2CC1C(=O)NC1CCCc2ccccc21)C(C)(C)C

> <Shape>
0.262

> <Color>
0.213

> <Negative vol penalty>
0.000

$$$$

  -OEChem-04042322093D

 85 93  0     1  0  0  0  0  0999 V2000
  -30.7113  -35.6067   20.8708 C   0  0  0  0  0  0  0  0  0  0  0  0
  -30.6283  -34.2729   20.4840 C   0  0  0  0  0  0  0  0  0  0  0  0
  -24.7387   -8.9529   21.3848 C   0  0  0  0  0  0  0  0  0  0  0  0
  -23.1507  -10.7735   21.4116 C   0  0  0  0  0  0  0  0  0  0  0  0
  -30.0349  -36.0447   22.0086 C   0  0  0  0  0  0  0  0  0  0  0  0
  -29.8697  -33.3761   21.2355 C   0  0  0  0  0  0  0  0  0  0  0  0
  -26.6281  -28.6271   19.1272 C   0  0  0  0  0  0  0  0  0  0  0  0
  -23.9991   -8.2934   22.3665 C   0  0  0  0  0  0  0  0  0  0  0  0
  -22.4111  -10.1140   22.3933 C   0  0  0  0  0  0  0  0  0  0  0  0
  -26.9039  -27.2626   19.0520 C   0  0  0  0  0  0  0  0  0  0  0  0
  -21.1830   -6.4292   22.5320 C   0  0  0  0  0  0  0  0  0  0  0  0
  -20.9438   -5.0662   22.3571 C   0  0  0  0  0  0  0  0  0  0  0  0
  -25.7215  -26.9155   21.1258 C   0  0  0  0  0  0  0  0  0  0  0  0
  -27.7762  -18.9519   18.8332 C   0  0  0  0  0  0  0  0  0  0  0  0
  -25.0825  -19.6667   18.9582 C   0  0  0  0  0  0  0  0  0  0  0  0
  -22.0929   -4.5986   24.4303 C   0  0  0  0  0  0  0  0  0  0  0  0
  -24.3145  -10.1930   20.9074 C   0  0  0  0  0  0  0  0  0  0  0  0
  -24.9283  -10.7650   18.4983 C   0  0  0  0  0  0  0  0  0  0  0  0
  -29.2598  -35.1549   22.7689 C   0  0  0  0  0  0  0  0  0  0  0  0
  -25.9050  -29.1486   20.2096 C   0  0  0  0  0  0  0  0  0  0  0  0
  -29.1834  -33.8024   22.3853 C   0  0  0  0  0  0  0  0  0  0  0  0
  -25.4356  -28.2866   21.2110 C   0  0  0  0  0  0  0  0  0  0  0  0
  -27.3385  -20.1298   18.2279 C   0  0  0  0  0  0  0  0  0  0  0  0
  -25.5203  -18.4887   19.5635 C   0  0  0  0  0  0  0  0  0  0  0  0
  -26.8671  -18.1313   19.5010 C   0  0  0  0  0  0  0  0  0  0  0  0
  -25.9916  -20.4872   18.2904 C   0  0  0  0  0  0  0  0  0  0  0  0
  -22.8353   -8.8739   22.8707 C   0  0  0  0  0  0  0  0  0  0  0  0
  -26.4531  -26.4069   20.0529 C   0  0  0  0  0  0  0  0  0  0  0  0
  -21.8773   -6.8769   23.6560 C   0  0  0  0  0  0  0  0  0  0  0  0
  -21.3987   -4.1509   23.3063 C   0  0  0  0  0  0  0  0  0  0  0  0
  -22.3322   -5.9616   24.6051 C   0  0  0  0  0  0  0  0  0  0  0  0
  -25.0783  -10.8750   19.8937 C   0  0  0  0  0  0  0  0  0  0  0  0
  -25.8834  -11.6068   17.9829 C   0  0  0  0  0  0  0  0  0  0  0  0
  -24.0078   -9.9728   17.7362 C   0  0  0  0  0  0  0  0  0  0  0  0
  -26.5238  -31.2409   22.5211 C   0  0  0  0  0  0  0  0  0  0  0  0
  -23.3820  -30.8199   23.2094 C   0  0  0  0  0  0  0  0  0  0  0  0
  -25.4848  -22.9269   18.3772 C   0  0  0  0  0  0  0  0  0  0  0  0
  -20.6165  -28.8290   23.0221 C   0  0  0  0  0  0  0  0  0  0  0  0
  -28.6394  -16.4547   20.1293 C   0  0  0  0  0  0  0  0  0  0  0  0
  -28.5849  -35.6647   24.0177 C   0  0  0  0  0  0  0  0  0  0  0  0
  -25.5927  -30.6190   20.2623 C   0  0  0  0  0  0  0  0  0  0  0  0
  -24.6377  -28.7935   22.3836 C   0  0  0  0  0  0  0  0  0  0  0  0
  -27.4992  -34.7315   24.5474 C   0  0  0  0  0  0  0  0  0  0  0  0
  -30.1844  -13.4551   18.9926 C   0  0  0  0  0  0  0  0  0  0  0  0
  -27.9989  -33.2905   24.5718 C   0  0  0  0  0  0  0  0  0  0  0  0
  -29.0354  -12.4446   18.9618 C   0  0  0  0  0  0  0  0  0  0  0  0
  -30.0618  -14.4176   20.1725 C   0  0  0  0  0  0  0  0  0  0  0  0
  -27.6205  -14.0961   20.2492 C   0  0  0  0  0  0  0  0  0  0  0  0
  -28.3505  -32.8046   23.1605 C   0  0  1  0  0  0  0  0  0  0  0  0
  -25.2901  -31.1154   21.6727 C   0  0  1  0  0  0  0  0  0  0  0  0
  -27.6655  -13.1464   19.0411 C   0  0  2  0  0  0  0  0  0  0  0  0
  -28.3341  -20.9886   17.5181 C   0  0  0  0  0  0  0  0  0  0  0  0
  -24.5250  -17.6285   20.2720 C   0  0  0  0  0  0  0  0  0  0  0  0
  -18.2046  -28.7379   23.7092 C   0  0  0  0  0  0  0  0  0  0  0  0
  -24.2239  -30.1747   26.0703 C   0  0  0  0  0  0  0  0  0  0  0  0
  -21.9526  -29.1893   26.4424 C   0  0  0  0  0  0  0  0  0  0  0  0
  -22.1839  -31.6089   25.8816 C   0  0  0  0  0  0  0  0  0  0  0  0
  -25.1770  -21.6215   16.2374 C   0  0  0  0  0  0  0  0  0  0  0  0
  -19.7010  -28.6837   20.2115 C   0  0  0  0  0  0  0  0  0  0  0  0
  -25.8251  -22.8402   19.8653 C   0  0  0  0  0  0  0  0  0  0  0  0
  -25.7723  -24.1887   20.5741 C   0  0  0  0  0  0  0  0  0  1  0  0
  -22.5971  -29.8758   24.0878 C   0  0  1  0  0  0  0  0  0  0  0  0
  -19.1852  -29.1288   22.6145 C   0  0  2  0  0  0  0  0  0  0  0  0
  -22.7561  -30.2026   25.5996 C   0  0  0  0  0  0  0  0  0  0  0  0
  -26.0521  -11.7200   20.2426 N   0  0  0  0  0  0  0  0  0  0  0  0
  -26.5228  -12.1484   19.0590 N   0  0  0  0  0  0  0  0  0  0  0  0
  -24.3636  -30.2399   22.3934 N   0  0  0  0  0  0  0  0  0  0  0  0
  -28.7400  -15.0483   20.1805 N   0  0  0  0  0  0  0  0  0  0  0  0
  -26.2304  -11.9290   16.7187 N   0  0  0  0  0  0  0  0  0  0  0  0
  -23.0933   -9.1640   18.4245 N   0  0  0  0  0  0  0  0  0  0  0  0
  -27.3318  -16.9388   20.1092 N   0  0  0  0  0  0  0  0  0  0  0  0
  -27.1486  -32.4698   22.4271 N   0  0  0  0  0  0  0  0  0  0  0  0
  -21.2201  -29.9215   23.6081 N   0  0  0  0  0  0  0  0  0  0  0  0
  -25.5173  -21.7061   17.6663 N   0  0  0  0  0  0  0  0  0  0  0  0
  -18.8312  -28.3784   21.3766 N   0  3  0  0  0  0  0  0  0  0  0  0
  -24.0076   -9.9694   16.4818 O   0  0  0  0  0  0  0  0  0  0  0  0
  -26.8816  -30.2934   23.2110 O   0  0  0  0  0  0  0  0  0  0  0  0
  -23.1284  -32.0267   23.2407 O   0  0  0  0  0  0  0  0  0  0  0  0
  -25.1770  -24.0173   17.8896 O   0  0  0  0  0  0  0  0  0  0  0  0
  -21.1448  -27.7340   22.8423 O   0  0  0  0  0  0  0  0  0  0  0  0
  -29.6393  -17.1755   20.0774 O   0  0  0  0  0  0  0  0  0  0  0  0
  -22.1133   -8.2305   23.8285 O   0  0  0  0  0  0  0  0  0  0  0  0
  -26.7216  -25.0747   19.9824 O   0  0  0  0  0  0  0  0  0  1  0  0
  -21.1675   -2.8422   23.1390 F   0  0  0  0  0  0  0  0  0  0  0  0
  -22.9987   -6.3858   25.6875 F   0  0  0  0  0  0  0  0  0  0  0  0
  1  2  1  0  0  0  0
  1  5  2  0  0  0  0
  2  6  2  0  0  0  0
  3  8  2  0  0  0  0
  3 17  1  0  0  0  0
  4  9  1  0  0  0  0
  4 17  2  0  0  0  0
  5 19  1  0  0  0  0
  6 21  1  0  0  0  0
  7 10  2  0  0  0  0
  7 20  1  0  0  0  0
  8 27  1  0  0  0  0
  9 27  2  0  0  0  0
 10 28  1  0  0  0  0
 11 12  2  0  0  0  0
 11 29  1  0  0  0  0
 12 30  1  0  0  0  0
 13 22  1  0  0  0  0
 13 28  2  0  0  0  0
 14 23  1  0  0  0  0
 14 25  2  0  0  0  0
 15 24  2  0  0  0  0
 15 26  1  0  0  0  0
 16 30  2  0  0  0  0
 16 31  1  0  0  0  0
 17 32  1  0  0  0  0
 18 32  1  0  0  0  0
 18 33  2  0  0  0  0
 18 34  1  0  0  0  0
 19 21  2  0  0  0  0
 19 40  1  0  0  0  0
 20 22  2  0  0  0  0
 20 41  1  0  0  0  0
 21 49  1  0  0  0  0
 22 42  1  0  0  0  0
 23 26  2  0  0  0  0
 23 52  1  0  0  0  0
 24 25  1  0  0  0  0
 24 53  1  0  0  0  0
 25 71  1  0  0  0  0
 26 74  1  0  0  0  0
 27 82  1  0  0  0  0
 28 83  1  0  0  0  0
 29 31  2  0  0  0  0
 29 82  1  0  0  0  0
 30 84  1  0  0  0  0
 31 85  1  0  0  0  0
 32 65  2  0  0  0  0
 33 66  1  0  0  0  0
 33 69  1  0  0  0  0
 34 70  1  0  0  0  0
 34 76  2  0  0  0  0
 35 50  1  0  0  0  0
 35 72  1  0  0  0  0
 35 77  2  0  0  0  0
 36 62  1  0  0  0  0
 36 67  1  0  0  0  0
 36 78  2  0  0  0  0
 37 60  1  0  0  0  0
 37 74  1  0  0  0  0
 37 79  2  0  0  0  0
 38 63  1  0  0  0  0
 38 73  1  0  0  0  0
 38 80  2  0  0  0  0
 39 68  1  0  0  0  0
 39 71  1  0  0  0  0
 39 81  2  0  0  0  0
 40 43  1  0  0  0  0
 41 50  1  0  0  0  0
 42 67  1  0  0  0  0
 43 45  1  0  0  0  0
 44 46  1  0  0  0  0
 44 47  1  0  0  0  0
 45 49  1  0  0  0  0
 46 51  1  0  0  0  0
 47 68  1  0  0  0  0
 48 51  1  0  0  0  0
 48 68  1  0  0  0  0
 49 72  1  0  0  0  0
 50 67  1  0  0  0  0
 51 66  1  0  0  0  0
 54 63  1  0  0  0  0
 55 64  1  0  0  0  0
 56 64  1  0  0  0  0
 57 64  1  0  0  0  0
 58 74  1  0  0  0  0
 59 75  1  0  0  0  0
 60 61  1  0  0  0  0
 61 83  1  0  0  0  0
 62 64  1  0  0  0  0
 62 73  1  0  0  0  0
 63 75  1  0  0  0  0
 65 66  1  0  0  0  0
M  CHG  1  75   1
M  ISO  4  39 100  61 101  71 100  83 101
M  END
> <Batch ID>
0041

> <Smiles>
CNC(C)C(=O)NC(C(=O)N1Cc2cc([101O:1][101CH2:1]CC(=O)N(C)c3cc(C)c([100NH:0][100C:0](=O)N4CCCC(n5nc(-c6ccc(Oc7ccc(F)cc7F)cc6)c(C(N)=O)c5N)C4)cc3C)ccc2CC1C(=O)NC1CCCc2ccccc21)C(C)(C)C

> <Shape>
0.259

> <Color>
0.105

> <Negative vol penalty>
0.000

$$$$

  -OEChem-04042322093D

 84 92  0     1  0  0  0  0  0999 V2000
  -32.7032  -32.8779   22.9504 C   0  0  0  0  0  0  0  0  0  0  0  0
  -32.4978  -31.5967   23.4521 C   0  0  0  0  0  0  0  0  0  0  0  0
  -22.9908   -9.9281   19.9956 C   0  0  0  0  0  0  0  0  0  0  0  0
  -23.7004  -10.0046   22.3038 C   0  0  0  0  0  0  0  0  0  0  0  0
  -31.8415  -33.3929   21.9829 C   0  0  0  0  0  0  0  0  0  0  0  0
  -31.4298  -30.8301   22.9873 C   0  0  0  0  0  0  0  0  0  0  0  0
  -32.7603  -26.0466   21.9910 C   0  0  0  0  0  0  0  0  0  0  0  0
  -32.6876  -17.4340   23.4315 C   0  0  0  0  0  0  0  0  0  0  0  0
  -32.0964  -16.5305   22.5486 C   0  0  0  0  0  0  0  0  0  0  0  0
  -22.2110   -8.8052   20.2725 C   0  0  0  0  0  0  0  0  0  0  0  0
  -22.9205   -8.8817   22.5808 C   0  0  0  0  0  0  0  0  0  0  0  0
  -32.8969  -25.1842   23.0779 C   0  0  0  0  0  0  0  0  0  0  0  0
  -21.3995   -5.8211   23.8172 C   0  0  0  0  0  0  0  0  0  0  0  0
  -21.9700   -4.8103   24.5909 C   0  0  0  0  0  0  0  0  0  0  0  0
  -29.9236  -17.4580   23.0543 C   0  0  0  0  0  0  0  0  0  0  0  0
  -30.7069  -24.2788   22.6271 C   0  0  0  0  0  0  0  0  0  0  0  0
  -23.7053   -4.5221   22.9348 C   0  0  0  0  0  0  0  0  0  0  0  0
  -23.7356  -10.5278   21.0113 C   0  0  0  0  0  0  0  0  0  0  0  0
  -30.5148  -18.3615   23.9373 C   0  0  0  0  0  0  0  0  0  0  0  0
  -24.1475  -13.0366   20.8024 C   0  0  0  0  0  0  0  0  0  0  0  0
  -30.7680  -32.6286   21.4990 C   0  0  0  0  0  0  0  0  0  0  0  0
  -31.5895  -26.0392   21.2193 C   0  0  0  0  0  0  0  0  0  0  0  0
  -30.5520  -31.3359   22.0134 C   0  0  0  0  0  0  0  0  0  0  0  0
  -30.5589  -25.1404   21.5294 C   0  0  0  0  0  0  0  0  0  0  0  0
  -31.8968  -18.3495   24.1260 C   0  0  0  0  0  0  0  0  0  0  0  0
  -30.7144  -16.5424   22.3599 C   0  0  0  0  0  0  0  0  0  0  0  0
  -22.1758   -8.2821   21.5651 C   0  0  0  0  0  0  0  0  0  0  0  0
  -31.8690  -24.3021   23.3979 C   0  0  0  0  0  0  0  0  0  0  0  0
  -21.9819   -6.1823   22.6023 C   0  0  0  0  0  0  0  0  0  0  0  0
  -23.1229   -4.1609   24.1497 C   0  0  0  0  0  0  0  0  0  0  0  0
  -23.1348   -5.5329   22.1611 C   0  0  0  0  0  0  0  0  0  0  0  0
  -24.5417  -11.6873   20.7257 C   0  0  0  0  0  0  0  0  0  0  0  0
  -25.2670  -13.7428   20.4357 C   0  0  0  0  0  0  0  0  0  0  0  0
  -29.6616  -19.3048   24.6482 C   0  0  0  0  0  0  0  0  0  0  0  0
  -28.8773  -20.2453   24.0780 C   0  0  0  0  0  0  0  0  0  0  0  0
  -22.8825  -13.6011   21.1721 C   0  0  0  0  0  0  0  0  0  0  0  0
  -29.3215  -28.1677   20.5638 C   0  0  0  0  0  0  0  0  0  0  0  0
  -28.2789  -25.8545   18.5428 C   0  0  0  0  0  0  0  0  0  0  0  0
  -28.1839  -22.5400   17.7353 C   0  0  0  0  0  0  0  0  0  0  0  0
  -30.7542  -14.6522   20.6951 C   0  0  0  0  0  0  0  0  0  0  0  0
  -29.8353  -33.2458   20.4872 C   0  0  0  0  0  0  0  0  0  0  0  0
  -31.4686  -26.9571   20.0339 C   0  0  0  0  0  0  0  0  0  0  0  0
  -29.2901  -25.0788   20.7202 C   0  0  0  0  0  0  0  0  0  0  0  0
  -28.9488  -32.2273   19.7751 C   0  0  0  0  0  0  0  0  0  0  0  0
  -29.6274  -12.1778   18.3962 C   0  0  0  0  0  0  0  0  0  0  0  0
  -28.3337  -31.2594   20.7810 C   0  0  0  0  0  0  0  0  0  0  0  0
  -28.1714  -11.9406   18.8036 C   0  0  0  0  0  0  0  0  0  0  0  0
  -30.5219  -12.4293   19.6088 C   0  0  0  0  0  0  0  0  0  0  0  0
  -28.6053  -13.2562   20.9173 C   0  0  0  0  0  0  0  0  0  0  0  0
  -29.4192  -30.4642   21.5162 C   0  0  1  0  0  0  0  0  0  0  0  0
  -30.0219  -27.2226   19.6289 C   0  0  1  0  0  0  0  0  0  0  0  0
  -27.6541  -13.0626   19.7251 C   0  0  2  0  0  0  0  0  0  0  0  0
  -28.0239  -21.1995   24.8488 C   0  0  0  0  0  0  0  0  0  0  0  0
  -27.2209  -20.9500   16.0495 C   0  0  0  0  0  0  0  0  0  0  0  0
  -25.5512  -26.0807   19.8912 C   0  0  0  0  0  0  0  0  0  0  0  0
  -24.9368  -23.8835   18.8600 C   0  0  0  0  0  0  0  0  0  0  0  0
  -25.4682  -25.8378   17.4035 C   0  0  0  0  0  0  0  0  0  0  0  0
  -30.8703  -21.6686   16.8506 C   0  0  0  0  0  0  0  0  0  0  0  0
  -32.5667  -19.3063   25.0677 C   0  0  0  0  0  0  0  0  0  0  0  0
  -33.2589  -21.6736   25.4618 C   0  0  0  0  0  0  0  0  0  0  0  0
  -33.3198  -23.0306   24.7886 C   0  0  0  0  0  0  0  0  0  1  0  0
  -27.3353  -24.6816   18.6562 C   0  0  1  0  0  0  0  0  0  0  0  0
  -28.4143  -21.8165   16.4208 C   0  0  2  0  0  0  0  0  0  0  0  0
  -25.8459  -25.1232   18.7193 C   0  0  0  0  0  0  0  0  0  0  0  0
  -25.8124  -11.5425   20.3404 N   0  0  0  0  0  0  0  0  0  0  0  0
  -26.2263  -12.8099   20.1716 N   0  0  0  0  0  0  0  0  0  0  0  0
  -29.2168  -26.0007   19.5747 N   0  0  0  0  0  0  0  0  0  0  0  0
  -29.9717  -13.5077   20.4330 N   0  0  0  0  0  0  0  0  0  0  0  0
  -25.5146  -15.0645   20.3166 N   0  0  0  0  0  0  0  0  0  0  0  0
  -21.8394  -12.7323   21.5208 N   0  0  0  0  0  0  0  0  0  0  0  0
  -30.1141  -15.6249   21.4624 N   0  0  0  0  0  0  0  0  0  0  0  0
  -29.9283  -29.4044   20.6724 N   0  0  0  0  0  0  0  0  0  0  0  0
  -27.6491  -23.7959   17.5402 N   0  0  0  0  0  0  0  0  0  0  0  0
  -29.6182  -20.9432   16.5143 N   0  3  0  0  0  0  0  0  0  0  0  0
  -32.6543  -20.6902   24.5282 N   0  3  0  0  0  0  0  0  0  0  0  0
  -22.6781  -14.8387   21.1769 O   0  0  0  0  0  0  0  0  0  0  0  0
  -28.3050  -27.8024   21.1425 O   0  0  0  0  0  0  0  0  0  0  0  0
  -28.1918  -26.6089   17.5707 O   0  0  0  0  0  0  0  0  0  0  0  0
  -28.4482  -22.0396   18.8263 O   0  0  0  0  0  0  0  0  0  0  0  0
  -31.8973  -14.7732   20.2472 O   0  0  0  0  0  0  0  0  0  0  0  0
  -21.4148   -7.1865   21.8357 O   0  0  0  0  0  0  0  0  0  0  0  0
  -31.9995  -23.4597   24.4586 O   0  0  0  0  0  0  0  0  0  1  0  0
  -23.6714   -3.1913   24.8935 F   0  0  0  0  0  0  0  0  0  0  0  0
  -23.6996   -5.8764   20.9954 F   0  0  0  0  0  0  0  0  0  0  0  0
  1  2  1  0  0  0  0
  1  5  2  0  0  0  0
  2  6  2  0  0  0  0
  3 10  2  0  0  0  0
  3 18  1  0  0  0  0
  4 11  1  0  0  0  0
  4 18  2  0  0  0  0
  5 21  1  0  0  0  0
  6 23  1  0  0  0  0
  7 12  2  0  0  0  0
  7 22  1  0  0  0  0
  8  9  2  0  0  0  0
  8 25  1  0  0  0  0
  9 26  1  0  0  0  0
 10 27  1  0  0  0  0
 11 27  2  0  0  0  0
 12 28  1  0  0  0  0
 13 14  2  0  0  0  0
 13 29  1  0  0  0  0
 14 30  1  0  0  0  0
 15 19  1  0  0  0  0
 15 26  2  0  0  0  0
 16 24  1  0  0  0  0
 16 28  2  0  0  0  0
 17 30  2  0  0  0  0
 17 31  1  0  0  0  0
 18 32  1  0  0  0  0
 19 25  2  0  0  0  0
 19 34  1  0  0  0  0
 20 32  1  0  0  0  0
 20 33  2  0  0  0  0
 20 36  1  0  0  0  0
 21 23  2  0  0  0  0
 21 41  1  0  0  0  0
 22 24  2  0  0  0  0
 22 42  1  0  0  0  0
 23 50  1  0  0  0  0
 24 43  1  0  0  0  0
 25 59  1  0  0  0  0
 26 71  1  0  0  0  0
 27 81  1  0  0  0  0
 28 82  1  0  0  0  0
 29 31  2  0  0  0  0
 29 81  1  0  0  0  0
 30 83  1  0  0  0  0
 31 84  1  0  0  0  0
 32 65  2  0  0  0  0
 33 66  1  0  0  0  0
 33 69  1  0  0  0  0
 34 35  2  0  0  0  0
 35 53  1  0  0  0  0
 36 70  1  0  0  0  0
 36 76  2  0  0  0  0
 37 51  1  0  0  0  0
 37 72  1  0  0  0  0
 37 77  2  0  0  0  0
 38 62  1  0  0  0  0
 38 67  1  0  0  0  0
 38 78  2  0  0  0  0
 39 63  1  0  0  0  0
 39 73  1  0  0  0  0
 39 79  2  0  0  0  0
 40 68  1  0  0  0  0
 40 71  1  0  0  0  0
 40 80  2  0  0  0  0
 41 44  1  0  0  0  0
 42 51  1  0  0  0  0
 43 67  1  0  0  0  0
 44 46  1  0  0  0  0
 45 47  1  0  0  0  0
 45 48  1  0  0  0  0
 46 50  1  0  0  0  0
 47 52  1  0  0  0  0
 48 68  1  0  0  0  0
 49 52  1  0  0  0  0
 49 68  1  0  0  0  0
 50 72  1  0  0  0  0
 51 67  1  0  0  0  0
 52 66  1  0  0  0  0
 54 63  1  0  0  0  0
 55 64  1  0  0  0  0
 56 64  1  0  0  0  0
 57 64  1  0  0  0  0
 58 74  1  0  0  0  0
 59 75  1  0  0  0  0
 60 61  1  0  0  0  0
 60 75  1  0  0  0  0
 61 82  1  0  0  0  0
 62 64  1  0  0  0  0
 62 73  1  0  0  0  0
 63 74  1  0  0  0  0
 65 66  1  0  0  0  0
M  CHG  2  74   1  75   1
M  ISO  4  40 100  61 101  71 100  82 101
M  END
> <Batch ID>
0041

> <Smiles>
CC=Cc1cc([100NH:0][100C:0](=O)N2CCCC(n3nc(-c4ccc(Oc5ccc(F)cc5F)cc4)c(C(N)=O)c3N)C2)ccc1CNC[101CH2:1][101O:1]c1ccc2c(c1)CN(C(=O)C(NC(=O)C(C)NC)C(C)(C)C)C(C(=O)NC1CCCc3ccccc31)C2

> <Shape>
0.241

> <Color>
0.203

> <Negative vol penalty>
0.000

$$$$

  -OEChem-04042322093D

 91100  0     1  0  0  0  0  0999 V2000
  -34.7204  -30.9490   18.3615 C   0  0  0  0  0  0  0  0  0  0  0  0
  -33.9231  -29.8464   18.6513 C   0  0  0  0  0  0  0  0  0  0  0  0
  -26.3063  -12.5259   19.3835 C   0  0  0  0  0  0  0  0  0  0  0  0
  -26.2244  -12.7879   21.7838 C   0  0  0  0  0  0  0  0  0  0  0  0
  -34.6541  -32.0863   19.1653 C   0  0  0  0  0  0  0  0  0  0  0  0
  -33.0597  -29.8801   19.7458 C   0  0  0  0  0  0  0  0  0  0  0  0
  -25.9678  -28.9371   18.9051 C   0  0  0  0  0  0  0  0  0  0  0  0
  -25.0984  -11.8293   19.4183 C   0  0  0  0  0  0  0  0  0  0  0  0
  -25.0164  -12.0913   21.8187 C   0  0  0  0  0  0  0  0  0  0  0  0
  -24.6268  -28.5562   18.8529 C   0  0  0  0  0  0  0  0  0  0  0  0
  -24.0448   -8.7075   20.1726 C   0  0  0  0  0  0  0  0  0  0  0  0
  -23.9501   -7.5380   19.4184 C   0  0  0  0  0  0  0  0  0  0  0  0
  -24.4098  -28.9562   21.2280 C   0  0  0  0  0  0  0  0  0  0  0  0
  -26.8878  -22.4207   19.8332 C   0  0  0  0  0  0  0  0  0  0  0  0
  -25.4967  -20.6657   18.9266 C   0  0  0  0  0  0  0  0  0  0  0  0
  -22.1235   -8.4968   18.1609 C   0  0  0  0  0  0  0  0  0  0  0  0
  -26.8693  -13.0052   20.5663 C   0  0  0  0  0  0  0  0  0  0  0  0
  -29.3575  -13.2525   20.0608 C   0  0  0  0  0  0  0  0  0  0  0  0
  -33.7825  -32.1376   20.2644 C   0  0  0  0  0  0  0  0  0  0  0  0
  -26.5315  -29.3443   20.1175 C   0  0  0  0  0  0  0  0  0  0  0  0
  -32.9827  -31.0187   20.5658 C   0  0  0  0  0  0  0  0  0  0  0  0
  -25.7492  -29.3508   21.2840 C   0  0  0  0  0  0  0  0  0  0  0  0
  -26.0296  -23.3793   19.2946 C   0  0  0  0  0  0  0  0  0  0  0  0
  -24.9049  -22.9811   18.5719 C   0  0  0  0  0  0  0  0  0  0  0  0
  -26.6214  -21.0639   19.6492 C   0  0  0  0  0  0  0  0  0  0  0  0
  -24.4534  -11.6120   20.6358 C   0  0  0  0  0  0  0  0  0  0  0  0
  -23.8498  -28.5655   20.0116 C   0  0  0  0  0  0  0  0  0  0  0  0
  -23.1788   -9.7717   19.9210 C   0  0  0  0  0  0  0  0  0  0  0  0
  -22.9895   -7.4326   18.4126 C   0  0  0  0  0  0  0  0  0  0  0  0
  -22.2182   -9.6663   18.9152 C   0  0  0  0  0  0  0  0  0  0  0  0
  -24.6384  -21.6243   18.3879 C   0  0  0  0  0  0  0  0  0  0  0  0
  -28.1174  -13.7244   20.5311 C   0  0  0  0  0  0  0  0  0  0  0  0
  -30.2175  -14.3080   20.2417 C   0  0  0  0  0  0  0  0  0  0  0  0
  -22.7122  -25.8438   20.1749 C   0  0  0  0  0  0  0  0  0  0  0  0
  -22.2426  -26.9147   19.5155 C   0  0  0  0  0  0  0  0  0  1  0  0
  -22.4850  -24.4465   19.8639 C   0  0  0  0  0  0  0  0  0  0  0  0
  -22.3090  -23.5498   20.8497 C   0  0  0  0  0  0  0  0  0  0  0  0
  -29.7013  -11.9744   19.5096 C   0  0  0  0  0  0  0  0  0  0  0  0
  -22.0775  -22.1245   20.5231 C   0  0  0  0  0  0  0  0  0  0  0  0
  -29.5738  -30.5901   21.9254 C   0  0  0  0  0  0  0  0  0  0  0  0
  -27.1748  -32.1395   23.0455 C   0  0  0  0  0  0  0  0  0  0  0  0
  -24.3395  -33.9169   23.7082 C   0  0  0  0  0  0  0  0  0  0  0  0
  -28.6561  -20.3079   20.9408 C   0  0  0  0  0  0  0  0  0  0  0  0
  -33.7802  -33.3712   21.1322 C   0  0  0  0  0  0  0  0  0  0  0  0
  -27.9879  -29.7041   20.2322 C   0  0  0  0  0  0  0  0  0  0  0  0
  -26.4071  -29.7631   22.5724 C   0  0  0  0  0  0  0  0  0  0  0  0
  -21.3337  -26.8995   18.3217 C   0  0  0  0  0  0  0  0  0  0  0  0
  -32.5657  -33.4665   22.0521 C   0  0  0  0  0  0  0  0  0  0  0  0
  -21.6725  -25.9076   17.2146 C   0  0  0  0  0  0  0  0  0  0  0  0
  -30.5942  -18.1237   23.2062 C   0  0  0  0  0  0  0  0  0  0  0  0
  -32.3173  -32.1322   22.7482 C   0  0  0  0  0  0  0  0  0  0  0  0
  -30.5092  -16.7163   22.6134 C   0  0  0  0  0  0  0  0  0  0  0  0
  -30.5315  -19.2167   22.1482 C   0  0  0  0  0  0  0  0  0  0  0  0
  -28.8518  -17.7634   20.9919 C   0  0  0  0  0  0  0  0  0  0  0  0
  -21.5098  -24.4454   17.6047 C   0  0  0  0  0  0  0  0  0  0  0  0
  -32.0155  -31.0263   21.7297 C   0  0  1  0  0  0  0  0  0  0  0  0
  -28.2539  -30.8260   21.2519 C   0  0  1  0  0  0  0  0  0  0  0  0
  -29.9410  -16.6966   21.1845 C   0  0  2  0  0  0  0  0  0  0  0  0
  -26.3391  -24.8254   19.5058 C   0  0  0  0  0  0  0  0  0  0  0  0
  -23.4837  -35.8049   25.1225 C   0  0  0  0  0  0  0  0  0  0  0  0
  -27.1509  -30.3008   25.4791 C   0  0  0  0  0  0  0  0  0  0  0  0
  -25.4790  -31.8368   26.5346 C   0  0  0  0  0  0  0  0  0  0  0  0
  -27.7597  -32.6759   25.9716 C   0  0  0  0  0  0  0  0  0  0  0  0
  -23.6070  -35.5196   21.3305 C   0  0  0  0  0  0  0  0  0  0  0  0
  -23.9926  -24.0248   17.9981 C   0  0  0  0  0  0  0  0  0  0  0  0
  -26.1099  -32.2260   24.1094 C   0  0  1  0  0  0  0  0  0  0  0  0
  -24.0808  -35.4109   23.7804 C   0  0  2  0  0  0  0  0  0  0  0  0
  -26.6197  -31.7480   25.4983 C   0  0  0  0  0  0  0  0  0  0  0  0
  -28.1798  -14.9818   20.9774 N   0  0  0  0  0  0  0  0  0  0  0  0
  -29.4695  -15.3089   20.7884 N   0  0  0  0  0  0  0  0  0  0  0  0
  -27.2712  -30.9317   22.3438 N   0  0  0  0  0  0  0  0  0  0  0  0
  -29.3090  -19.1181   21.3456 N   0  0  0  0  0  0  0  0  0  0  0  0
  -31.5331  -14.4683   19.9850 N   0  0  0  0  0  0  0  0  0  0  0  0
  -30.1319  -10.9648   20.3812 N   0  0  0  0  0  0  0  0  0  0  0  0
  -23.0457  -21.3063   21.0577 N   0  0  0  0  0  0  0  0  0  0  0  0
  -27.4939  -20.0905   20.1964 N   0  0  0  0  0  0  0  0  0  0  0  0
  -30.6526  -31.1344   21.2551 N   0  0  0  0  0  0  0  0  0  0  0  0
  -25.6260  -33.6022   24.0917 N   0  0  0  0  0  0  0  0  0  0  0  0
  -22.5832  -23.9287   18.5208 N   0  3  1  0  0  0  0  0  0  0  0  0
  -23.1354  -35.8255   22.7056 N   0  3  0  0  0  0  0  0  0  0  0  0
  -29.6444  -11.7397   18.2786 O   0  0  0  0  0  0  0  0  0  0  0  0
  -21.1311  -21.7274   19.8525 O   0  0  0  0  0  0  0  0  0  0  0  0
  -29.6118  -29.9618   22.9768 O   0  0  0  0  0  0  0  0  0  0  0  0
  -27.9064  -33.1128   22.8438 O   0  0  0  0  0  0  0  0  0  0  0  0
  -23.4846  -33.1093   23.3512 O   0  0  0  0  0  0  0  0  0  0  0  0
  -29.0900  -21.4208   21.2464 O   0  0  0  0  0  0  0  0  0  0  0  0
  -23.2746  -10.9324   20.6701 O   0  0  0  0  0  0  0  0  0  0  0  0
  -22.5401  -28.1968   19.9528 O   0  0  0  0  0  0  0  0  0  1  0  0
  -22.8996   -6.3100   17.6874 F   0  0  0  0  0  0  0  0  0  0  0  0
  -21.3842  -10.6858   18.6681 F   0  0  0  0  0  0  0  0  0  0  0  0
  -23.2558  -21.0903   17.5021 Cl  0  0  0  0  0  0  0  0  0  0  0  0
  1  2  1  0  0  0  0
  1  5  2  0  0  0  0
  2  6  2  0  0  0  0
  3  8  2  0  0  0  0
  3 17  1  0  0  0  0
  4  9  1  0  0  0  0
  4 17  2  0  0  0  0
  5 19  1  0  0  0  0
  6 21  1  0  0  0  0
  7 10  2  0  0  0  0
  7 20  1  0  0  0  0
  8 26  1  0  0  0  0
  9 26  2  0  0  0  0
 10 27  1  0  0  0  0
 11 12  2  0  0  0  0
 11 28  1  0  0  0  0
 12 29  1  0  0  0  0
 13 22  1  0  0  0  0
 13 27  2  0  0  0  0
 14 23  2  0  0  0  0
 14 25  1  0  0  0  0
 15 25  2  0  0  0  0
 15 31  1  0  0  0  0
 16 29  2  0  0  0  0
 16 30  1  0  0  0  0
 17 32  1  0  0  0  0
 18 32  1  0  0  0  0
 18 33  2  0  0  0  0
 18 38  1  0  0  0  0
 19 21  2  0  0  0  0
 19 44  1  0  0  0  0
 20 22  2  0  0  0  0
 20 45  1  0  0  0  0
 21 56  1  0  0  0  0
 22 46  1  0  0  0  0
 23 24  1  0  0  0  0
 23 59  1  0  0  0  0
 24 31  2  0  0  0  0
 24 65  1  0  0  0  0
 25 76  1  0  0  0  0
 26 87  1  0  0  0  0
 27 88  1  0  0  0  0
 28 30  2  0  0  0  0
 28 87  1  0  0  0  0
 29 89  1  0  0  0  0
 30 90  1  0  0  0  0
 31 91  1  0  0  0  0
 32 69  2  0  0  0  0
 33 70  1  0  0  0  0
 33 73  1  0  0  0  0
 34 35  2  0  0  0  0
 34 36  1  0  0  0  0
 35 47  1  0  0  0  0
 35 88  1  0  0  0  0
 36 37  2  0  0  0  0
 36 79  1  0  0  0  0
 37 39  1  0  0  0  0
 38 74  1  0  0  0  0
 38 81  2  0  0  0  0
 39 75  1  0  0  0  0
 39 82  2  0  0  0  0
 40 57  1  0  0  0  0
 40 77  1  0  0  0  0
 40 83  2  0  0  0  0
 41 66  1  0  0  0  0
 41 71  1  0  0  0  0
 41 84  2  0  0  0  0
 42 67  1  0  0  0  0
 42 78  1  0  0  0  0
 42 85  2  0  0  0  0
 43 72  1  0  0  0  0
 43 76  1  0  0  0  0
 43 86  2  0  0  0  0
 44 48  1  0  0  0  0
 45 57  1  0  0  0  0
 46 71  1  0  0  0  0
 47 49  1  0  0  0  0
 48 51  1  0  0  0  0
 49 55  1  0  0  0  0
 50 52  1  0  0  0  0
 50 53  1  0  0  0  0
 51 56  1  0  0  0  0
 52 58  1  0  0  0  0
 53 72  1  0  0  0  0
 54 58  1  0  0  0  0
 54 72  1  0  0  0  0
 55 79  1  0  0  0  0
 56 77  1  0  0  0  0
 57 71  1  0  0  0  0
 58 70  1  0  0  0  0
 60 67  1  0  0  0  0
 61 68  1  0  0  0  0
 62 68  1  0  0  0  0
 63 68  1  0  0  0  0
 64 80  1  0  0  0  0
 65 79  1  0  0  0  0
 66 68  1  0  0  0  0
 66 78  1  0  0  0  0
 67 80  1  0  0  0  0
 69 70  1  0  0  0  0
M  CHG  2  79   1  80   1
M  ISO  4  35 101  43 100  76 100  88 101
M  END
> <Batch ID>
0041

> <Smiles>
CNC(C)C(=O)NC(C(=O)N1Cc2cc([101O:1][101C:1]3=CC(=CC(N)=O)N(Cc4c(C)cc([100NH:0][100C:0](=O)N5CCCC(n6nc(-c7ccc(Oc8ccc(F)cc8F)cc7)c(C(N)=O)c6N)C5)cc4Cl)CCC3)ccc2CC1C(=O)NC1CCCc2ccccc21)C(C)(C)C

> <Shape>
0.249

> <Color>
0.075

> <Negative vol penalty>
0.000

$$$$

  -OEChem-04042322093D

 88 97  0     1  0  0  0  0  0999 V2000
  -16.1324  -26.7621   22.2491 C   0  0  0  0  0  0  0  0  0  0  0  0
  -17.3174  -26.4779   21.5778 C   0  0  0  0  0  0  0  0  0  0  0  0
  -25.7939  -12.4593   19.0086 C   0  0  0  0  0  0  0  0  0  0  0  0
  -26.1598  -12.1792   21.3803 C   0  0  0  0  0  0  0  0  0  0  0  0
  -16.0750  -27.8373   23.1349 C   0  0  0  0  0  0  0  0  0  0  0  0
  -18.4453  -27.2695   21.7911 C   0  0  0  0  0  0  0  0  0  0  0  0
  -22.6564  -24.5251   22.4079 C   0  0  0  0  0  0  0  0  0  0  0  0
  -24.4436  -12.1554   19.1810 C   0  0  0  0  0  0  0  0  0  0  0  0
  -24.8094  -11.8753   21.5527 C   0  0  0  0  0  0  0  0  0  0  0  0
  -23.2494  -24.0022   21.2597 C   0  0  0  0  0  0  0  0  0  0  0  0
  -21.5323  -10.6734   22.5658 C   0  0  0  0  0  0  0  0  0  0  0  0
  -21.2111   -9.5858   23.3779 C   0  0  0  0  0  0  0  0  0  0  0  0
  -24.8598  -25.7981   21.2808 C   0  0  0  0  0  0  0  0  0  0  0  0
  -30.7903  -19.8008   16.4312 C   0  0  0  0  0  0  0  0  0  0  0  0
  -22.4552   -8.1234   21.9114 C   0  0  0  0  0  0  0  0  0  0  0  0
  -28.7037  -20.0747   15.2445 C   0  0  0  0  0  0  0  0  0  0  0  0
  -26.6521  -12.4712   20.1083 C   0  0  0  0  0  0  0  0  0  0  0  0
  -28.9792  -12.0927   19.1343 C   0  0  0  0  0  0  0  0  0  0  0  0
  -17.2055  -28.6366   23.3665 C   0  0  0  0  0  0  0  0  0  0  0  0
  -23.1547  -25.6966   22.9960 C   0  0  0  0  0  0  0  0  0  0  0  0
  -18.4026  -28.3572   22.6799 C   0  0  0  0  0  0  0  0  0  0  0  0
  -24.2729  -26.3324   22.4380 C   0  0  0  0  0  0  0  0  0  0  0  0
  -30.1280  -20.0016   17.6422 C   0  0  0  0  0  0  0  0  0  0  0  0
  -28.7535  -20.2389   17.6544 C   0  0  0  0  0  0  0  0  0  0  0  0
  -23.9513  -11.8633   20.4530 C   0  0  0  0  0  0  0  0  0  0  0  0
  -24.3495  -24.6403   20.6943 C   0  0  0  0  0  0  0  0  0  0  0  0
  -22.3149  -10.4860   21.4265 C   0  0  0  0  0  0  0  0  0  0  0  0
  -21.6726   -8.3108   23.0508 C   0  0  0  0  0  0  0  0  0  0  0  0
  -22.7764   -9.2110   21.0993 C   0  0  0  0  0  0  0  0  0  0  0  0
  -30.0782  -19.8374   15.2323 C   0  0  0  0  0  0  0  0  0  0  0  0
  -28.0414  -20.2755   16.4556 C   0  0  0  0  0  0  0  0  0  0  0  0
  -28.0472  -12.7846   19.9308 C   0  0  0  0  0  0  0  0  0  0  0  0
  -30.1549  -12.7820   19.3044 C   0  0  0  0  0  0  0  0  0  0  0  0
  -26.4114  -22.2638   19.4008 C   0  0  0  0  0  0  0  0  0  0  0  0
  -28.7984  -10.9308   18.3140 C   0  0  0  0  0  0  0  0  0  0  0  0
  -21.9834  -28.5974   23.5590 C   0  0  0  0  0  0  0  0  0  0  0  0
  -24.7946  -29.0029   25.1259 C   0  0  0  0  0  0  0  0  0  0  0  0
  -28.2584  -28.1517   24.5832 C   0  0  0  0  0  0  0  0  0  0  0  0
  -31.3793  -18.4429   20.8231 C   0  0  0  0  0  0  0  0  0  0  0  0
  -17.0818  -29.8168   24.2974 C   0  0  0  0  0  0  0  0  0  0  0  0
  -22.5202  -26.2330   24.2498 C   0  0  0  0  0  0  0  0  0  0  0  0
  -24.8587  -27.5814   23.0425 C   0  0  0  0  0  0  0  0  0  0  0  0
  -18.4269  -30.3785   24.7507 C   0  0  0  0  0  0  0  0  0  0  0  0
  -28.5813  -24.1152   18.6362 C   0  0  0  0  0  0  0  0  0  0  0  0
  -32.4784  -15.4941   22.4883 C   0  0  0  0  0  0  0  0  0  0  0  0
  -19.3691  -30.5332   23.5611 C   0  0  0  0  0  0  0  0  0  0  0  0
  -27.1109  -24.5291   18.6368 C   0  0  0  0  0  0  0  0  0  0  0  0
  -31.5515  -14.4029   21.9498 C   0  0  0  0  0  0  0  0  0  0  0  0
  -28.8329  -22.7916   19.3529 C   0  0  0  0  0  0  0  0  0  0  0  0
  -31.7455  -16.8226   22.6608 C   0  0  0  0  0  0  0  0  0  0  0  0
  -30.1132  -16.2104   20.9188 C   0  0  0  0  0  0  0  0  0  0  0  0
  -19.6544  -29.1777   22.9034 C   0  0  1  0  0  0  0  0  0  0  0  0
  -26.2931  -23.7587   19.6655 C   0  0  1  0  0  0  0  0  0  1  0  0
  -22.7928  -27.7178   24.4694 C   0  0  1  0  0  0  0  0  0  0  0  0
  -30.8209  -14.8664   20.6752 C   0  0  2  0  0  0  0  0  0  0  0  0
  -30.1186  -27.7616   26.2217 C   0  0  0  0  0  0  0  0  0  0  0  0
  -25.4219  -31.9547   24.6745 C   0  0  0  0  0  0  0  0  0  0  0  0
  -27.8568  -31.3810   24.7755 C   0  0  0  0  0  0  0  0  0  0  0  0
  -26.4010  -30.9875   26.7627 C   0  0  0  0  0  0  0  0  0  0  0  0
  -28.8400  -25.4750   23.4626 C   0  0  0  0  0  0  0  0  0  0  0  0
  -28.0561  -20.4535   18.9665 C   0  0  0  0  0  0  0  0  0  0  0  0
  -30.9148  -19.9558   18.9114 C   0  0  0  0  0  0  0  0  0  0  0  0
  -26.1726  -29.4853   24.7420 C   0  0  1  0  0  0  0  0  0  0  0  0
  -29.0672  -27.1110   25.3363 C   0  0  2  0  0  0  0  0  0  0  0  0
  -26.4460  -30.9394   25.2198 C   0  0  0  0  0  0  0  0  0  0  0  0
  -28.5845  -13.8330   20.5602 N   0  0  0  0  0  0  0  0  0  0  0  0
  -29.8670  -13.8049   20.1594 N   0  0  0  0  0  0  0  0  0  0  0  0
  -27.7296  -21.8525   19.1865 N   0  0  0  0  0  0  0  0  0  0  0  0
  -24.1992  -28.0706   24.2645 N   0  0  0  0  0  0  0  0  0  0  0  0
  -31.0754  -17.2063   21.4159 N   0  0  0  0  0  0  0  0  0  0  0  0
  -31.3967  -12.6069   18.8046 N   0  0  0  0  0  0  0  0  0  0  0  0
  -27.5253  -10.3478   18.2526 N   0  0  0  0  0  0  0  0  0  0  0  0
  -20.6174  -28.4302   23.6834 N   0  0  0  0  0  0  0  0  0  0  0  0
  -27.1110  -28.4982   25.2648 N   0  0  0  0  0  0  0  0  0  0  0  0
  -30.7043  -18.7258   19.6420 N   0  0  0  0  0  0  0  0  0  0  0  0
  -29.7569  -26.1994   24.3800 N   0  3  0  0  0  0  0  0  0  0  0  0
  -25.4302  -21.5226   19.3953 O   0  0  0  0  0  0  0  0  0  0  0  0
  -29.7417  -10.4148   17.6679 O   0  0  0  0  0  0  0  0  0  0  0  0
  -22.5558  -29.3716   22.8009 O   0  0  0  0  0  0  0  0  0  0  0  0
  -24.2689  -29.4321   26.1560 O   0  0  0  0  0  0  0  0  0  0  0  0
  -28.6113  -28.6141   23.5005 O   0  0  0  0  0  0  0  0  0  0  0  0
  -32.1959  -19.2338   21.3076 O   0  0  0  0  0  0  0  0  0  0  0  0
  -22.6336  -11.5669   20.6216 O   0  0  0  0  0  0  0  0  0  0  0  0
  -24.9299  -24.1323   19.5731 O   0  0  0  0  0  0  0  0  0  1  0  0
  -21.3653   -7.2667   23.8316 F   0  0  0  0  0  0  0  0  0  0  0  0
  -23.5296   -9.0249   20.0066 F   0  0  0  0  0  0  0  0  0  0  0  0
  -30.8972  -19.5911   13.7387 Cl  0  0  0  0  0  0  0  0  0  0  0  0
  -26.3396  -20.5664   16.4283 Cl  0  0  0  0  0  0  0  0  0  0  0  0
  1  2  1  0  0  0  0
  1  5  2  0  0  0  0
  2  6  2  0  0  0  0
  3  8  2  0  0  0  0
  3 17  1  0  0  0  0
  4  9  1  0  0  0  0
  4 17  2  0  0  0  0
  5 19  1  0  0  0  0
  6 21  1  0  0  0  0
  7 10  2  0  0  0  0
  7 20  1  0  0  0  0
  8 25  1  0  0  0  0
  9 25  2  0  0  0  0
 10 26  1  0  0  0  0
 11 12  2  0  0  0  0
 11 27  1  0  0  0  0
 12 28  1  0  0  0  0
 13 22  1  0  0  0  0
 13 26  2  0  0  0  0
 14 23  1  0  0  0  0
 14 30  2  0  0  0  0
 15 28  2  0  0  0  0
 15 29  1  0  0  0  0
 16 30  1  0  0  0  0
 16 31  2  0  0  0  0
 17 32  1  0  0  0  0
 18 32  1  0  0  0  0
 18 33  2  0  0  0  0
 18 35  1  0  0  0  0
 19 21  2  0  0  0  0
 19 40  1  0  0  0  0
 20 22  2  0  0  0  0
 20 41  1  0  0  0  0
 21 52  1  0  0  0  0
 22 42  1  0  0  0  0
 23 24  2  0  0  0  0
 23 62  1  0  0  0  0
 24 31  1  0  0  0  0
 24 61  1  0  0  0  0
 25 83  1  0  0  0  0
 26 84  1  0  0  0  0
 27 29  2  0  0  0  0
 27 83  1  0  0  0  0
 28 85  1  0  0  0  0
 29 86  1  0  0  0  0
 30 87  1  0  0  0  0
 31 88  1  0  0  0  0
 32 66  2  0  0  0  0
 33 67  1  0  0  0  0
 33 71  1  0  0  0  0
 34 53  1  0  0  0  0
 34 68  1  0  0  0  0
 34 77  2  0  0  0  0
 35 72  1  0  0  0  0
 35 78  2  0  0  0  0
 36 54  1  0  0  0  0
 36 73  1  0  0  0  0
 36 79  2  0  0  0  0
 37 63  1  0  0  0  0
 37 69  1  0  0  0  0
 37 80  2  0  0  0  0
 38 64  1  0  0  0  0
 38 74  1  0  0  0  0
 38 81  2  0  0  0  0
 39 70  1  0  0  0  0
 39 75  1  0  0  0  0
 39 82  2  0  0  0  0
 40 43  1  0  0  0  0
 41 54  1  0  0  0  0
 42 69  1  0  0  0  0
 43 46  1  0  0  0  0
 44 47  1  0  0  0  0
 44 49  1  0  0  0  0
 45 48  1  0  0  0  0
 45 50  1  0  0  0  0
 46 52  1  0  0  0  0
 47 53  1  0  0  0  0
 48 55  1  0  0  0  0
 49 68  1  0  0  0  0
 50 70  1  0  0  0  0
 51 55  1  0  0  0  0
 51 70  1  0  0  0  0
 52 73  1  0  0  0  0
 53 84  1  0  0  0  0
 54 69  1  0  0  0  0
 55 67  1  0  0  0  0
 56 64  1  0  0  0  0
 57 65  1  0  0  0  0
 58 65  1  0  0  0  0
 59 65  1  0  0  0  0
 60 76  1  0  0  0  0
 61 68  1  0  0  0  0
 62 75  1  0  0  0  0
 63 65  1  0  0  0  0
 63 74  1  0  0  0  0
 64 76  1  0  0  0  0
 66 67  1  0  0  0  0
M  CHG  1  76   1
M  ISO  4  39 100  53 101  75 100  84 101
M  END
> <Batch ID>
0041

> <Smiles>
CNC(C)C(=O)NC(C(=O)N1Cc2cc([101O:1][101CH:1]3CCCN(Cc4c(Cl)cc(Cl)cc4C[100NH:0][100C:0](=O)N4CCCC(n5nc(-c6ccc(Oc7ccc(F)cc7F)cc6)c(C(N)=O)c5N)C4)C3=O)ccc2CC1C(=O)NC1CCCc2ccccc21)C(C)(C)C

> <Shape>
0.276

> <Color>
0.071

> <Negative vol penalty>
0.000

$$$$

  -OEChem-04042322093D

 86 95  0     1  0  0  0  0  0999 V2000
  -32.5494  -31.7751   21.9128 C   0  0  0  0  0  0  0  0  0  0  0  0
  -31.7962  -30.6132   21.7782 C   0  0  0  0  0  0  0  0  0  0  0  0
  -23.5705   -9.0770   21.0257 C   0  0  0  0  0  0  0  0  0  0  0  0
  -23.4571  -11.3106   21.9396 C   0  0  0  0  0  0  0  0  0  0  0  0
  -32.0940  -32.8090   22.7298 C   0  0  0  0  0  0  0  0  0  0  0  0
  -30.5875  -30.4842   22.4615 C   0  0  0  0  0  0  0  0  0  0  0  0
  -26.8987  -28.6040   19.5456 C   0  0  0  0  0  0  0  0  0  0  0  0
  -29.4797  -19.3555   21.7285 C   0  0  0  0  0  0  0  0  0  0  0  0
  -29.5865  -18.0703   21.1970 C   0  0  0  0  0  0  0  0  0  0  0  0
  -22.7216   -8.6213   22.0342 C   0  0  0  0  0  0  0  0  0  0  0  0
  -22.6081  -10.8549   22.9481 C   0  0  0  0  0  0  0  0  0  0  0  0
  -26.9072  -27.2289   19.3156 C   0  0  0  0  0  0  0  0  0  0  0  0
  -19.4085   -8.6616   22.7086 C   0  0  0  0  0  0  0  0  0  0  0  0
  -18.3620   -7.8156   22.3417 C   0  0  0  0  0  0  0  0  0  0  0  0
  -25.2110  -26.9417   21.0067 C   0  0  0  0  0  0  0  0  0  0  0  0
  -27.2547  -18.1364   20.5684 C   0  0  0  0  0  0  0  0  0  0  0  0
  -19.2457   -6.0949   23.7893 C   0  0  0  0  0  0  0  0  0  0  0  0
  -23.9384  -10.4217   20.9784 C   0  0  0  0  0  0  0  0  0  0  0  0
  -24.5906  -10.8432   18.5485 C   0  0  0  0  0  0  0  0  0  0  0  0
  -30.8744  -32.6965   23.4158 C   0  0  0  0  0  0  0  0  0  0  0  0
  -26.0527  -29.1580   20.5171 C   0  0  0  0  0  0  0  0  0  0  0  0
  -30.1159  -31.5171   23.2895 C   0  0  0  0  0  0  0  0  0  0  0  0
  -25.1918  -28.3244   21.2453 C   0  0  0  0  0  0  0  0  0  0  0  0
  -28.2603  -20.0311   21.6801 C   0  0  0  0  0  0  0  0  0  0  0  0
  -28.4741  -17.4608   20.6169 C   0  0  0  0  0  0  0  0  0  0  0  0
  -22.2403   -9.5101   22.9954 C   0  0  0  0  0  0  0  0  0  0  0  0
  -26.0654  -26.3972   20.0483 C   0  0  0  0  0  0  0  0  0  0  0  0
  -20.3737   -8.2243   23.6157 C   0  0  0  0  0  0  0  0  0  0  0  0
  -18.2806   -6.5322   22.8821 C   0  0  0  0  0  0  0  0  0  0  0  0
  -20.2923   -6.9410   24.1560 C   0  0  0  0  0  0  0  0  0  0  0  0
  -27.1478  -19.4216   21.1000 C   0  0  0  0  0  0  0  0  0  0  0  0
  -24.8158  -10.8931   19.9372 C   0  0  0  0  0  0  0  0  0  0  0  0
  -25.7128  -11.4126   17.9980 C   0  0  0  0  0  0  0  0  0  0  0  0
  -27.1051  -23.3504   21.1469 C   0  0  0  0  0  0  0  0  0  0  0  0
  -23.4675  -10.3284   17.8211 C   0  0  0  0  0  0  0  0  0  0  0  0
  -26.4943  -30.7890   23.2094 C   0  0  0  0  0  0  0  0  0  0  0  0
  -23.2604  -31.0317   23.1344 C   0  0  0  0  0  0  0  0  0  0  0  0
  -20.4749  -28.8727   22.3616 C   0  0  0  0  0  0  0  0  0  0  0  0
  -29.7180  -15.3458   20.0459 C   0  0  0  0  0  0  0  0  0  0  0  0
  -30.4462  -33.8215   24.3246 C   0  0  0  0  0  0  0  0  0  0  0  0
  -26.0361  -30.6462   20.7344 C   0  0  0  0  0  0  0  0  0  0  0  0
  -24.2500  -28.8718   22.2854 C   0  0  0  0  0  0  0  0  0  0  0  0
  -28.9730  -33.7584   24.7194 C   0  0  0  0  0  0  0  0  0  0  0  0
  -28.9969  -22.8495   18.9353 C   0  0  0  0  0  0  0  0  0  0  0  0
  -30.3818  -12.0610   18.8432 C   0  0  0  0  0  0  0  0  0  0  0  0
  -28.5948  -32.3437   25.1465 C   0  0  0  0  0  0  0  0  0  0  0  0
  -27.7186  -23.6658   18.7535 C   0  0  0  0  0  0  0  0  0  0  0  0
  -29.0083  -11.3861   18.8551 C   0  0  0  0  0  0  0  0  0  0  0  0
  -29.3457  -22.5981   20.3996 C   0  0  0  0  0  0  0  0  0  0  0  0
  -30.5589  -13.0075   20.0292 C   0  0  0  0  0  0  0  0  0  0  0  0
  -28.1231  -13.3339   20.2004 C   0  0  0  0  0  0  0  0  0  0  0  0
  -28.7876  -31.3497   23.9949 C   0  0  1  0  0  0  0  0  0  0  0  0
  -27.2962  -24.3729   20.0349 C   0  0  1  0  0  0  0  0  0  1  0  0
  -25.5045  -31.0437   22.1079 C   0  0  1  0  0  0  0  0  0  0  0  0
  -27.8734  -12.4203   18.9893 C   0  0  2  0  0  0  0  0  0  0  0  0
  -18.1731  -29.4163   21.5228 C   0  0  0  0  0  0  0  0  0  0  0  0
  -22.4934  -31.0083   26.0875 C   0  0  0  0  0  0  0  0  0  0  0  0
  -20.3328  -29.9181   25.4460 C   0  0  0  0  0  0  0  0  0  0  0  0
  -20.8758  -32.2007   24.5990 C   0  0  0  0  0  0  0  0  0  0  0  0
  -20.7655  -27.0578   20.0420 C   0  0  0  0  0  0  0  0  0  0  0  0
  -28.1872  -21.4128   22.2630 C   0  0  0  0  0  0  0  0  0  0  0  0
  -22.1137  -30.2046   23.6635 C   0  0  1  0  0  0  0  0  0  0  0  0
  -19.5718  -28.9550   21.1442 C   0  0  2  0  0  0  0  0  0  0  0  0
  -21.4788  -30.8211   24.9419 C   0  0  0  0  0  0  0  0  0  0  0  0
  -25.9889  -11.4500   20.2497 N   0  0  0  0  0  0  0  0  0  0  0  0
  -26.5110  -11.7553   19.0496 N   0  0  0  0  0  0  0  0  0  0  0  0
  -28.1594  -22.4371   21.2325 N   0  0  0  0  0  0  0  0  0  0  0  0
  -24.2753  -30.3327   22.4657 N   0  0  0  0  0  0  0  0  0  0  0  0
  -29.4493  -13.9614   20.0901 N   0  0  0  0  0  0  0  0  0  0  0  0
  -26.0848  -11.6486   16.7220 N   0  0  0  0  0  0  0  0  0  0  0  0
  -22.3994   -9.7780   18.5428 N   0  0  0  0  0  0  0  0  0  0  0  0
  -28.5826  -16.1548   20.0780 N   0  0  0  0  0  0  0  0  0  0  0  0
  -27.6959  -31.4525   23.0504 N   0  0  0  0  0  0  0  0  0  0  0  0
  -21.1819  -30.0410   22.5529 N   0  0  0  0  0  0  0  0  0  0  0  0
  -19.4652  -27.6215   20.4874 N   0  3  0  0  0  0  0  0  0  0  0  0
  -26.1198  -23.3629   21.8826 O   0  0  0  0  0  0  0  0  0  0  0  0
  -23.4198  -10.3406   16.5676 O   0  0  0  0  0  0  0  0  0  0  0  0
  -26.1898  -30.0467   24.1356 O   0  0  0  0  0  0  0  0  0  0  0  0
  -23.2524  -32.2538   23.3018 O   0  0  0  0  0  0  0  0  0  0  0  0
  -20.5433  -27.8736   23.0740 O   0  0  0  0  0  0  0  0  0  0  0  0
  -30.8689  -15.7810   19.9567 O   0  0  0  0  0  0  0  0  0  0  0  0
  -21.4116   -9.0658   23.9794 O   0  0  0  0  0  0  0  0  0  0  0  0
  -26.0722  -25.0546   19.8263 O   0  0  0  0  0  0  0  0  0  1  0  0
  -17.2747   -5.7204   22.5310 F   0  0  0  0  0  0  0  0  0  0  0  0
  -21.2159   -6.5157   25.0289 F   0  0  0  0  0  0  0  0  0  0  0  0
  -25.6228  -20.2266   21.0226 Cl  0  0  0  0  0  0  0  0  0  0  0  0
  1  2  1  0  0  0  0
  1  5  2  0  0  0  0
  2  6  2  0  0  0  0
  3 10  2  0  0  0  0
  3 18  1  0  0  0  0
  4 11  1  0  0  0  0
  4 18  2  0  0  0  0
  5 20  1  0  0  0  0
  6 22  1  0  0  0  0
  7 12  2  0  0  0  0
  7 21  1  0  0  0  0
  8  9  2  0  0  0  0
  8 24  1  0  0  0  0
  9 25  1  0  0  0  0
 10 26  1  0  0  0  0
 11 26  2  0  0  0  0
 12 27  1  0  0  0  0
 13 14  2  0  0  0  0
 13 28  1  0  0  0  0
 14 29  1  0  0  0  0
 15 23  1  0  0  0  0
 15 27  2  0  0  0  0
 16 25  2  0  0  0  0
 16 31  1  0  0  0  0
 17 29  2  0  0  0  0
 17 30  1  0  0  0  0
 18 32  1  0  0  0  0
 19 32  1  0  0  0  0
 19 33  2  0  0  0  0
 19 35  1  0  0  0  0
 20 22  2  0  0  0  0
 20 40  1  0  0  0  0
 21 23  2  0  0  0  0
 21 41  1  0  0  0  0
 22 52  1  0  0  0  0
 23 42  1  0  0  0  0
 24 31  2  0  0  0  0
 24 61  1  0  0  0  0
 25 72  1  0  0  0  0
 26 82  1  0  0  0  0
 27 83  1  0  0  0  0
 28 30  2  0  0  0  0
 28 82  1  0  0  0  0
 29 84  1  0  0  0  0
 30 85  1  0  0  0  0
 31 86  1  0  0  0  0
 32 65  2  0  0  0  0
 33 66  1  0  0  0  0
 33 70  1  0  0  0  0
 34 53  1  0  0  0  0
 34 67  1  0  0  0  0
 34 76  2  0  0  0  0
 35 71  1  0  0  0  0
 35 77  2  0  0  0  0
 36 54  1  0  0  0  0
 36 73  1  0  0  0  0
 36 78  2  0  0  0  0
 37 62  1  0  0  0  0
 37 68  1  0  0  0  0
 37 79  2  0  0  0  0
 38 63  1  0  0  0  0
 38 74  1  0  0  0  0
 38 80  2  0  0  0  0
 39 69  1  0  0  0  0
 39 72  1  0  0  0  0
 39 81  2  0  0  0  0
 40 43  1  0  0  0  0
 41 54  1  0  0  0  0
 42 68  1  0  0  0  0
 43 46  1  0  0  0  0
 44 47  1  0  0  0  0
 44 49  1  0  0  0  0
 45 48  1  0  0  0  0
 45 50  1  0  0  0  0
 46 52  1  0  0  0  0
 47 53  1  0  0  0  0
 48 55  1  0  0  0  0
 49 67  1  0  0  0  0
 50 69  1  0  0  0  0
 51 55  1  0  0  0  0
 51 69  1  0  0  0  0
 52 73  1  0  0  0  0
 53 83  1  0  0  0  0
 54 68  1  0  0  0  0
 55 66  1  0  0  0  0
 56 63  1  0  0  0  0
 57 64  1  0  0  0  0
 58 64  1  0  0  0  0
 59 64  1  0  0  0  0
 60 75  1  0  0  0  0
 61 67  1  0  0  0  0
 62 64  1  0  0  0  0
 62 74  1  0  0  0  0
 63 75  1  0  0  0  0
 65 66  1  0  0  0  0
M  CHG  1  75   1
M  ISO  4  39 100  53 101  72 100  83 101
M  END
> <Batch ID>
0041

> <Smiles>
CNC(C)C(=O)NC(C(=O)N1Cc2cc([101O:1][101CH:1]3CCCN(Cc4ccc([100NH:0][100C:0](=O)N5CCCC(n6nc(-c7ccc(Oc8ccc(F)cc8F)cc7)c(C(N)=O)c6N)C5)cc4Cl)C3=O)ccc2CC1C(=O)NC1CCCc2ccccc21)C(C)(C)C

> <Shape>
0.270

> <Color>
0.095

> <Negative vol penalty>
0.000

$$$$

  -OEChem-04042322093D

 83 91  0     1  0  0  0  0  0999 V2000
  -28.0227  -24.6642   16.8378 C   0  0  0  0  0  0  0  0  0  0  0  0
  -26.8427  -24.8741   17.5443 C   0  0  0  0  0  0  0  0  0  0  0  0
  -25.8144  -12.1247   20.0056 C   0  0  0  0  0  0  0  0  0  0  0  0
  -24.1745  -12.8974   21.6027 C   0  0  0  0  0  0  0  0  0  0  0  0
  -29.2260  -25.1711   17.3266 C   0  0  0  0  0  0  0  0  0  0  0  0
  -26.8657  -25.5901   18.7406 C   0  0  0  0  0  0  0  0  0  0  0  0
  -23.1142  -28.9777   19.0494 C   0  0  0  0  0  0  0  0  0  0  0  0
  -22.1500  -21.9057   23.3402 C   0  0  0  0  0  0  0  0  0  0  0  0
  -23.1309  -20.9676   23.0188 C   0  0  0  0  0  0  0  0  0  0  0  0
  -25.9720  -10.9475   20.7369 C   0  0  0  0  0  0  0  0  0  0  0  0
  -24.3320  -11.7201   22.3340 C   0  0  0  0  0  0  0  0  0  0  0  0
  -21.8460  -28.4958   19.3705 C   0  0  0  0  0  0  0  0  0  0  0  0
  -24.0379   -8.7615   24.4263 C   0  0  0  0  0  0  0  0  0  0  0  0
  -22.8854   -8.1174   24.8763 C   0  0  0  0  0  0  0  0  0  0  0  0
  -22.1666  -29.1932   21.6575 C   0  0  0  0  0  0  0  0  0  0  0  0
  -24.3155  -22.6433   21.7436 C   0  0  0  0  0  0  0  0  0  0  0  0
  -22.1351   -7.8654   22.5936 C   0  0  0  0  0  0  0  0  0  0  0  0
  -24.9157  -13.0997   20.4385 C   0  0  0  0  0  0  0  0  0  0  0  0
  -23.8427  -14.5512   18.6358 C   0  0  0  0  0  0  0  0  0  0  0  0
  -29.2622  -25.9020   18.5245 C   0  0  0  0  0  0  0  0  0  0  0  0
  -23.9239  -29.5621   20.0340 C   0  0  0  0  0  0  0  0  0  0  0  0
  -28.0709  -26.1061   19.2466 C   0  0  0  0  0  0  0  0  0  0  0  0
  -23.4437  -29.6840   21.3457 C   0  0  0  0  0  0  0  0  0  0  0  0
  -22.2518  -23.2126   22.8633 C   0  0  0  0  0  0  0  0  0  0  0  0
  -24.2137  -21.3364   22.2205 C   0  0  0  0  0  0  0  0  0  0  0  0
  -25.2308  -10.7452   21.9011 C   0  0  0  0  0  0  0  0  0  0  0  0
  -21.3731  -28.6009   20.6753 C   0  0  0  0  0  0  0  0  0  0  0  0
  -24.2390   -8.9576   23.0600 C   0  0  0  0  0  0  0  0  0  0  0  0
  -21.9340   -7.6694   23.9599 C   0  0  0  0  0  0  0  0  0  0  0  0
  -23.2876   -8.5095   22.1436 C   0  0  0  0  0  0  0  0  0  0  0  0
  -23.3346  -23.5814   22.0650 C   0  0  0  0  0  0  0  0  0  0  0  0
  -24.7529  -14.3163   19.6837 C   0  0  0  0  0  0  0  0  0  0  0  0
  -24.0834  -15.8491   18.2564 C   0  0  0  0  0  0  0  0  0  0  0  0
  -22.8668  -13.6746   18.0571 C   0  0  0  0  0  0  0  0  0  0  0  0
  -26.7576  -28.8809   21.3029 C   0  0  0  0  0  0  0  0  0  0  0  0
  -26.3306  -31.7220   22.8089 C   0  0  0  0  0  0  0  0  0  0  0  0
  -24.1645  -34.0996   23.9499 C   0  0  0  0  0  0  0  0  0  0  0  0
  -26.3475  -20.5840   21.1127 C   0  0  0  0  0  0  0  0  0  0  0  0
  -30.5941  -26.3897   19.0374 C   0  0  0  0  0  0  0  0  0  0  0  0
  -25.2789  -30.1012   19.6656 C   0  0  0  0  0  0  0  0  0  0  0  0
  -24.2657  -30.3214   22.4350 C   0  0  0  0  0  0  0  0  0  0  0  0
  -30.4753  -27.4587   20.1206 C   0  0  0  0  0  0  0  0  0  0  0  0
  -27.5776  -19.1207   18.1090 C   0  0  0  0  0  0  0  0  0  0  0  0
  -29.4417  -27.0483   21.1646 C   0  0  0  0  0  0  0  0  0  0  0  0
  -26.9053  -17.7463   18.0735 C   0  0  0  0  0  0  0  0  0  0  0  0
  -27.9509  -19.5328   19.5318 C   0  0  0  0  0  0  0  0  0  0  0  0
  -26.1793  -18.0997   20.4683 C   0  0  0  0  0  0  0  0  0  0  0  0
  -28.0512  -26.8989   20.5354 C   0  0  1  0  0  0  0  0  0  0  0  0
  -26.2222  -30.2130   20.8594 C   0  0  1  0  0  0  0  0  0  0  0  0
  -25.7263  -17.6700   19.0634 C   0  0  2  0  0  0  0  0  0  0  0  0
  -24.1094  -36.2897   25.1736 C   0  0  0  0  0  0  0  0  0  0  0  0
  -26.8432  -30.2625   25.4390 C   0  0  0  0  0  0  0  0  0  0  0  0
  -25.8572  -32.2256   26.6400 C   0  0  0  0  0  0  0  0  0  0  0  0
  -27.9204  -32.5130   25.2676 C   0  0  0  0  0  0  0  0  0  0  0  0
  -22.9298  -35.4882   21.6463 C   0  0  0  0  0  0  0  0  0  0  0  0
  -21.1760  -24.1912   23.2321 C   0  0  0  0  0  0  0  0  0  0  0  0
  -18.7063  -26.2085   21.1126 C   0  0  0  0  0  0  0  0  0  0  0  0
  -19.3569  -25.6758   22.3804 C   0  0  0  0  0  0  0  0  0  0  0  0
  -19.6492  -27.0229   20.2352 C   0  0  0  0  0  0  0  0  0  1  0  0
  -25.7010  -32.1585   24.1097 C   0  0  1  0  0  0  0  0  0  0  0  0
  -24.1652  -35.6115   23.8136 C   0  0  2  0  0  0  0  0  0  0  0  0
  -26.5655  -31.7761   25.3442 C   0  0  0  0  0  0  0  0  0  0  0  0
  -25.5151  -15.3796   19.9527 N   0  0  0  0  0  0  0  0  0  0  0  0
  -25.0844  -16.2952   19.0682 N   0  0  0  0  0  0  0  0  0  0  0  0
  -25.5864  -30.8277   22.0265 N   0  0  0  0  0  0  0  0  0  0  0  0
  -26.7841  -19.4398   20.4121 N   0  0  0  0  0  0  0  0  0  0  0  0
  -23.5345  -16.6408   17.3107 N   0  0  0  0  0  0  0  0  0  0  0  0
  -22.7513  -12.3740   18.5666 N   0  0  0  0  0  0  0  0  0  0  0  0
  -25.2095  -20.3830   21.8931 N   0  0  0  0  0  0  0  0  0  0  0  0
  -27.4510  -28.1984   20.3217 N   0  0  0  0  0  0  0  0  0  0  0  0
  -25.4449  -33.5888   23.9795 N   0  0  0  0  0  0  0  0  0  0  0  0
  -22.9890  -36.0603   23.0160 N   0  3  0  0  0  0  0  0  0  0  0  0
  -20.4681  -24.7535   22.0488 N   0  3  0  0  0  0  0  0  0  0  0  0
  -22.1306  -14.0286   17.1052 O   0  0  0  0  0  0  0  0  0  0  0  0
  -26.5576  -28.5012   22.4507 O   0  0  0  0  0  0  0  0  0  0  0  0
  -27.4387  -32.1641   22.4951 O   0  0  0  0  0  0  0  0  0  0  0  0
  -23.1314  -33.4382   24.0263 O   0  0  0  0  0  0  0  0  0  0  0  0
  -26.9236  -21.6697   21.0055 O   0  0  0  0  0  0  0  0  0  0  0  0
  -25.3842   -9.5965   22.6149 O   0  0  0  0  0  0  0  0  0  0  0  0
  -20.1359  -28.1308   20.9916 O   0  0  0  0  0  0  0  0  0  1  0  0
  -20.8280   -7.0496   24.3920 F   0  0  0  0  0  0  0  0  0  0  0  0
  -23.4759   -8.6940   20.8297 F   0  0  0  0  0  0  0  0  0  0  0  0
  -23.4935  -25.1889   21.4564 Cl  0  0  0  0  0  0  0  0  0  0  0  0
  1  2  1  0  0  0  0
  1  5  2  0  0  0  0
  2  6  2  0  0  0  0
  3 10  2  0  0  0  0
  3 18  1  0  0  0  0
  4 11  1  0  0  0  0
  4 18  2  0  0  0  0
  5 20  1  0  0  0  0
  6 22  1  0  0  0  0
  7 12  2  0  0  0  0
  7 21  1  0  0  0  0
  8  9  2  0  0  0  0
  8 24  1  0  0  0  0
  9 25  1  0  0  0  0
 10 26  1  0  0  0  0
 11 26  2  0  0  0  0
 12 27  1  0  0  0  0
 13 14  2  0  0  0  0
 13 28  1  0  0  0  0
 14 29  1  0  0  0  0
 15 23  1  0  0  0  0
 15 27  2  0  0  0  0
 16 25  2  0  0  0  0
 16 31  1  0  0  0  0
 17 29  2  0  0  0  0
 17 30  1  0  0  0  0
 18 32  1  0  0  0  0
 19 32  1  0  0  0  0
 19 33  2  0  0  0  0
 19 34  1  0  0  0  0
 20 22  2  0  0  0  0
 20 39  1  0  0  0  0
 21 23  2  0  0  0  0
 21 40  1  0  0  0  0
 22 48  1  0  0  0  0
 23 41  1  0  0  0  0
 24 31  2  0  0  0  0
 24 56  1  0  0  0  0
 25 69  1  0  0  0  0
 26 79  1  0  0  0  0
 27 80  1  0  0  0  0
 28 30  2  0  0  0  0
 28 79  1  0  0  0  0
 29 81  1  0  0  0  0
 30 82  1  0  0  0  0
 31 83  1  0  0  0  0
 32 63  2  0  0  0  0
 33 64  1  0  0  0  0
 33 67  1  0  0  0  0
 34 68  1  0  0  0  0
 34 74  2  0  0  0  0
 35 49  1  0  0  0  0
 35 70  1  0  0  0  0
 35 75  2  0  0  0  0
 36 60  1  0  0  0  0
 36 65  1  0  0  0  0
 36 76  2  0  0  0  0
 37 61  1  0  0  0  0
 37 71  1  0  0  0  0
 37 77  2  0  0  0  0
 38 66  1  0  0  0  0
 38 69  1  0  0  0  0
 38 78  2  0  0  0  0
 39 42  1  0  0  0  0
 40 49  1  0  0  0  0
 41 65  1  0  0  0  0
 42 44  1  0  0  0  0
 43 45  1  0  0  0  0
 43 46  1  0  0  0  0
 44 48  1  0  0  0  0
 45 50  1  0  0  0  0
 46 66  1  0  0  0  0
 47 50  1  0  0  0  0
 47 66  1  0  0  0  0
 48 70  1  0  0  0  0
 49 65  1  0  0  0  0
 50 64  1  0  0  0  0
 51 61  1  0  0  0  0
 52 62  1  0  0  0  0
 53 62  1  0  0  0  0
 54 62  1  0  0  0  0
 55 72  1  0  0  0  0
 56 73  1  0  0  0  0
 57 58  1  0  0  0  0
 57 59  1  0  0  0  0
 58 73  1  0  0  0  0
 59 80  1  0  0  0  0
 60 62  1  0  0  0  0
 60 71  1  0  0  0  0
 61 72  1  0  0  0  0
 63 64  1  0  0  0  0
M  CHG  2  72   1  73   1
M  ISO  4  38 100  59 101  69 100  80 101
M  END
> <Batch ID>
0041

> <Smiles>
CNC(C)C(=O)NC(C(=O)N1Cc2cc([101O:1][101CH2:1]CCNCc3ccc([100NH:0][100C:0](=O)N4CCCC(n5nc(-c6ccc(Oc7ccc(F)cc7F)cc6)c(C(N)=O)c5N)C4)cc3Cl)ccc2CC1C(=O)NC1CCCc2ccccc21)C(C)(C)C

> <Shape>
0.296

> <Color>
0.078

> <Negative vol penalty>
0.000

$$$$

  -OEChem-04042322093D

 83 91  0     1  0  0  0  0  0999 V2000
  -32.2864  -21.7198   22.4841 C   0  0  0  0  0  0  0  0  0  0  0  0
  -31.1097  -22.1488   23.0896 C   0  0  0  0  0  0  0  0  0  0  0  0
  -29.8281  -27.6940   20.2107 C   0  0  0  0  0  0  0  0  0  0  0  0
  -28.7301  -26.3711   21.9082 C   0  0  0  0  0  0  0  0  0  0  0  0
  -32.2344  -21.0252   21.2763 C   0  0  0  0  0  0  0  0  0  0  0  0
  -29.8802  -21.8844   22.4871 C   0  0  0  0  0  0  0  0  0  0  0  0
  -23.0519  -20.4647   24.1227 C   0  0  0  0  0  0  0  0  0  0  0  0
  -19.4929  -28.0193   21.3209 C   0  0  0  0  0  0  0  0  0  0  0  0
  -18.9882  -26.8087   20.8464 C   0  0  0  0  0  0  0  0  0  0  0  0
  -31.0699  -27.2694   20.6830 C   0  0  0  0  0  0  0  0  0  0  0  0
  -29.9720  -25.9464   22.3805 C   0  0  0  0  0  0  0  0  0  0  0  0
  -21.7612  -20.9057   23.8342 C   0  0  0  0  0  0  0  0  0  0  0  0
  -34.5187  -26.2498   21.2136 C   0  0  0  0  0  0  0  0  0  0  0  0
  -35.4686  -25.8514   20.2731 C   0  0  0  0  0  0  0  0  0  0  0  0
  -21.7886  -19.6285   21.7880 C   0  0  0  0  0  0  0  0  0  0  0  0
  -19.1459  -27.2736   23.5926 C   0  0  0  0  0  0  0  0  0  0  0  0
  -33.9728  -24.1208   19.4954 C   0  0  0  0  0  0  0  0  0  0  0  0
  -28.6581  -27.2449   20.8233 C   0  0  0  0  0  0  0  0  0  0  0  0
  -26.5858  -27.0681   19.3463 C   0  0  0  0  0  0  0  0  0  0  0  0
  -31.0032  -20.7437   20.6635 C   0  0  0  0  0  0  0  0  0  0  0  0
  -23.7260  -19.6095   23.2392 C   0  0  0  0  0  0  0  0  0  0  0  0
  -29.8118  -21.1866   21.2693 C   0  0  0  0  0  0  0  0  0  0  0  0
  -23.0869  -19.1760   22.0688 C   0  0  0  0  0  0  0  0  0  0  0  0
  -19.5719  -28.2517   22.6941 C   0  0  0  0  0  0  0  0  0  0  0  0
  -18.5622  -25.8305   21.7449 C   0  0  0  0  0  0  0  0  0  0  0  0
  -31.1419  -26.3956   21.7679 C   0  0  0  0  0  0  0  0  0  0  0  0
  -21.1304  -20.4900   22.6653 C   0  0  0  0  0  0  0  0  0  0  0  0
  -33.2959  -25.5837   21.2951 C   0  0  0  0  0  0  0  0  0  0  0  0
  -35.1956  -24.7870   19.4140 C   0  0  0  0  0  0  0  0  0  0  0  0
  -33.0229  -24.5192   20.4360 C   0  0  0  0  0  0  0  0  0  0  0  0
  -18.6411  -26.0629   23.1181 C   0  0  0  0  0  0  0  0  0  0  0  0
  -27.3750  -27.6836   20.3363 C   0  0  0  0  0  0  0  0  0  0  0  0
  -25.4723  -27.8664   19.2494 C   0  0  0  0  0  0  0  0  0  0  0  0
  -26.8366  -25.8809   18.5826 C   0  0  0  0  0  0  0  0  0  0  0  0
  -26.3925  -19.8088   21.5205 C   0  0  0  0  0  0  0  0  0  0  0  0
  -25.7420  -16.6984   20.8686 C   0  0  0  0  0  0  0  0  0  0  0  0
  -23.4172  -14.2101   20.6447 C   0  0  0  0  0  0  0  0  0  0  0  0
  -21.9656  -31.0669   22.5622 C   0  0  0  0  0  0  0  0  0  0  0  0
  -31.0000  -20.0312   19.3342 C   0  0  0  0  0  0  0  0  0  0  0  0
  -25.1078  -19.1214   23.5779 C   0  0  0  0  0  0  0  0  0  0  0  0
  -23.7595  -18.2421   21.0973 C   0  0  0  0  0  0  0  0  0  0  0  0
  -29.6356  -19.4642   18.9504 C   0  0  0  0  0  0  0  0  0  0  0  0
  -24.4243  -32.5454   20.4538 C   0  0  0  0  0  0  0  0  0  0  0  0
  -28.5422  -20.5028   19.1797 C   0  0  0  0  0  0  0  0  0  0  0  0
  -25.3625  -31.3853   20.1166 C   0  0  0  0  0  0  0  0  0  0  0  0
  -23.9046  -32.4527   21.8868 C   0  0  0  0  0  0  0  0  0  0  0  0
  -24.2083  -30.0070   21.8962 C   0  0  0  0  0  0  0  0  0  0  0  0
  -28.4575  -20.8973   20.6591 C   0  0  1  0  0  0  0  0  0  0  0  0
  -25.8959  -18.6622   22.3550 C   0  0  1  0  0  0  0  0  0  0  0  0
  -24.7141  -30.0266   20.4436 C   0  0  2  0  0  0  0  0  0  0  0  0
  -23.1800  -11.7835   20.0506 C   0  0  0  0  0  0  0  0  0  0  0  0
  -25.9498  -17.4055   17.9077 C   0  0  0  0  0  0  0  0  0  0  0  0
  -24.7950  -15.2471   17.3828 C   0  0  0  0  0  0  0  0  0  0  0  0
  -27.0064  -15.2278   18.5369 C   0  0  0  0  0  0  0  0  0  0  0  0
  -22.4538  -13.5207   23.3568 C   0  0  0  0  0  0  0  0  0  0  0  0
  -20.1114  -29.5462   23.2015 C   0  0  0  0  0  0  0  0  0  0  0  0
  -18.0248  -24.5426   21.1941 C   0  0  0  0  0  0  0  0  0  0  0  0
  -18.4529  -22.1068   20.8441 C   0  0  0  0  0  0  0  0  0  0  0  0
  -19.5230  -21.0449   21.0027 C   0  0  0  0  0  0  0  0  0  1  0  0
  -24.9512  -15.9711   19.8081 C   0  0  1  0  0  0  0  0  0  0  0  0
  -23.4122  -12.7860   21.1704 C   0  0  2  0  0  0  0  0  0  0  0  0
  -25.6634  -15.9820   18.4260 C   0  0  0  0  0  0  0  0  0  0  0  0
  -26.8109  -28.7878   20.8327 N   0  0  0  0  0  0  0  0  0  0  0  0
  -25.6553  -28.8725   20.1519 N   0  0  0  0  0  0  0  0  0  0  0  0
  -25.1127  -17.7977   21.4699 N   0  0  0  0  0  0  0  0  0  0  0  0
  -23.3005  -31.1408   22.1314 N   0  0  0  0  0  0  0  0  0  0  0  0
  -24.3643  -27.7989   18.4812 N   0  0  0  0  0  0  0  0  0  0  0  0
  -28.0299  -25.1811   18.8080 N   0  0  0  0  0  0  0  0  0  0  0  0
  -27.7689  -19.8741   21.4164 N   0  0  0  0  0  0  0  0  0  0  0  0
  -24.6918  -14.6361   20.3361 N   0  0  0  0  0  0  0  0  0  0  0  0
  -21.4689  -29.7850   22.7645 N   0  0  0  0  0  0  0  0  0  0  0  0
  -22.3362  -12.6128   22.1868 N   0  3  0  0  0  0  0  0  0  0  0  0
  -18.9791  -23.4087   21.3262 N   0  3  0  0  0  0  0  0  0  0  0  0
  -26.0342  -25.4623   17.7141 O   0  0  0  0  0  0  0  0  0  0  0  0
  -25.5866  -20.5765   21.0078 O   0  0  0  0  0  0  0  0  0  0  0  0
  -26.8735  -16.3014   21.1581 O   0  0  0  0  0  0  0  0  0  0  0  0
  -22.3925  -14.8765   20.5168 O   0  0  0  0  0  0  0  0  0  0  0  0
  -21.2665  -32.0688   22.7474 O   0  0  0  0  0  0  0  0  0  0  0  0
  -32.3535  -25.9809   22.2289 O   0  0  0  0  0  0  0  0  0  0  0  0
  -19.8709  -20.9195   22.3810 O   0  0  0  0  0  0  0  0  0  1  0  0
  -36.1073  -24.4055   18.5098 F   0  0  0  0  0  0  0  0  0  0  0  0
  -31.8495  -23.8761   20.5088 F   0  0  0  0  0  0  0  0  0  0  0  0
  -18.1225  -24.8762   24.2592 Cl  0  0  0  0  0  0  0  0  0  0  0  0
  1  2  1  0  0  0  0
  1  5  2  0  0  0  0
  2  6  2  0  0  0  0
  3 10  2  0  0  0  0
  3 18  1  0  0  0  0
  4 11  1  0  0  0  0
  4 18  2  0  0  0  0
  5 20  1  0  0  0  0
  6 22  1  0  0  0  0
  7 12  2  0  0  0  0
  7 21  1  0  0  0  0
  8  9  2  0  0  0  0
  8 24  1  0  0  0  0
  9 25  1  0  0  0  0
 10 26  1  0  0  0  0
 11 26  2  0  0  0  0
 12 27  1  0  0  0  0
 13 14  2  0  0  0  0
 13 28  1  0  0  0  0
 14 29  1  0  0  0  0
 15 23  1  0  0  0  0
 15 27  2  0  0  0  0
 16 24  2  0  0  0  0
 16 31  1  0  0  0  0
 17 29  2  0  0  0  0
 17 30  1  0  0  0  0
 18 32  1  0  0  0  0
 19 32  1  0  0  0  0
 19 33  2  0  0  0  0
 19 34  1  0  0  0  0
 20 22  2  0  0  0  0
 20 39  1  0  0  0  0
 21 23  2  0  0  0  0
 21 40  1  0  0  0  0
 22 48  1  0  0  0  0
 23 41  1  0  0  0  0
 24 56  1  0  0  0  0
 25 31  2  0  0  0  0
 25 57  1  0  0  0  0
 26 79  1  0  0  0  0
 27 80  1  0  0  0  0
 28 30  2  0  0  0  0
 28 79  1  0  0  0  0
 29 81  1  0  0  0  0
 30 82  1  0  0  0  0
 31 83  1  0  0  0  0
 32 63  2  0  0  0  0
 33 64  1  0  0  0  0
 33 67  1  0  0  0  0
 34 68  1  0  0  0  0
 34 74  2  0  0  0  0
 35 49  1  0  0  0  0
 35 69  1  0  0  0  0
 35 75  2  0  0  0  0
 36 60  1  0  0  0  0
 36 65  1  0  0  0  0
 36 76  2  0  0  0  0
 37 61  1  0  0  0  0
 37 70  1  0  0  0  0
 37 77  2  0  0  0  0
 38 66  1  0  0  0  0
 38 71  1  0  0  0  0
 38 78  2  0  0  0  0
 39 42  1  0  0  0  0
 40 49  1  0  0  0  0
 41 65  1  0  0  0  0
 42 44  1  0  0  0  0
 43 45  1  0  0  0  0
 43 46  1  0  0  0  0
 44 48  1  0  0  0  0
 45 50  1  0  0  0  0
 46 66  1  0  0  0  0
 47 50  1  0  0  0  0
 47 66  1  0  0  0  0
 48 69  1  0  0  0  0
 49 65  1  0  0  0  0
 50 64  1  0  0  0  0
 51 61  1  0  0  0  0
 52 62  1  0  0  0  0
 53 62  1  0  0  0  0
 54 62  1  0  0  0  0
 55 72  1  0  0  0  0
 56 71  1  0  0  0  0
 57 73  1  0  0  0  0
 58 59  1  0  0  0  0
 58 73  1  0  0  0  0
 59 80  1  0  0  0  0
 60 62  1  0  0  0  0
 60 70  1  0  0  0  0
 61 72  1  0  0  0  0
 63 64  1  0  0  0  0
M  CHG  2  72   1  73   1
M  ISO  4  38 100  59 101  71 100  80 101
M  END
> <Batch ID>
0041

> <Smiles>
CNC(C)C(=O)NC(C(=O)N1Cc2cc([101O:1][101CH2:1]CNCc3ccc(C[100NH:0][100C:0](=O)N4CCCC(n5nc(-c6ccc(Oc7ccc(F)cc7F)cc6)c(C(N)=O)c5N)C4)cc3Cl)ccc2CC1C(=O)NC1CCCc2ccccc21)C(C)(C)C

> <Shape>
0.209

> <Color>
0.089

> <Negative vol penalty>
0.000

$$$$

  -OEChem-04042322093D

 88 97  0     1  0  0  0  0  0999 V2000
  -38.2393  -26.8902   32.5693 C   0  0  0  0  0  0  0  0  0  0  0  0
  -36.9103  -26.5110   32.4102 C   0  0  0  0  0  0  0  0  0  0  0  0
  -23.0752   -9.8688   19.9404 C   0  0  0  0  0  0  0  0  0  0  0  0
  -23.8350   -9.8746   22.2338 C   0  0  0  0  0  0  0  0  0  0  0  0
  -39.2184  -26.3657   31.7267 C   0  0  0  0  0  0  0  0  0  0  0  0
  -36.5595  -25.6077   31.4074 C   0  0  0  0  0  0  0  0  0  0  0  0
  -32.1615  -21.3533   31.6589 C   0  0  0  0  0  0  0  0  0  0  0  0
  -32.0666  -16.5894   22.5363 C   0  0  0  0  0  0  0  0  0  0  0  0
  -22.3309   -8.7158   20.1899 C   0  0  0  0  0  0  0  0  0  0  0  0
  -23.0906   -8.7217   22.4833 C   0  0  0  0  0  0  0  0  0  0  0  0
  -30.8511  -21.3296   31.1833 C   0  0  0  0  0  0  0  0  0  0  0  0
  -19.8621   -7.9249   23.0854 C   0  0  0  0  0  0  0  0  0  0  0  0
  -19.1051   -7.8849   24.2563 C   0  0  0  0  0  0  0  0  0  0  0  0
  -32.6749  -17.4653   23.4354 C   0  0  0  0  0  0  0  0  0  0  0  0
  -31.5985  -20.1790   29.1992 C   0  0  0  0  0  0  0  0  0  0  0  0
  -20.3457   -5.9467   24.9921 C   0  0  0  0  0  0  0  0  0  0  0  0
  -23.8273  -10.4482   20.9623 C   0  0  0  0  0  0  0  0  0  0  0  0
  -24.1701  -12.9732   20.8432 C   0  0  0  0  0  0  0  0  0  0  0  0
  -38.8808  -25.4481   30.7193 C   0  0  0  0  0  0  0  0  0  0  0  0
  -33.2035  -20.7988   30.9019 C   0  0  0  0  0  0  0  0  0  0  0  0
  -37.5349  -25.0714   30.5496 C   0  0  0  0  0  0  0  0  0  0  0  0
  -32.9208  -20.1947   29.6685 C   0  0  0  0  0  0  0  0  0  0  0  0
  -29.8997  -17.4635   23.1507 C   0  0  0  0  0  0  0  0  0  0  0  0
  -30.5079  -18.3393   24.0499 C   0  0  0  0  0  0  0  0  0  0  0  0
  -30.6790  -16.5886   22.3938 C   0  0  0  0  0  0  0  0  0  0  0  0
  -22.3385   -8.1423   21.4614 C   0  0  0  0  0  0  0  0  0  0  0  0
  -30.5698  -20.7449   29.9520 C   0  0  0  0  0  0  0  0  0  0  0  0
  -20.8609   -6.9758   22.8678 C   0  0  0  0  0  0  0  0  0  0  0  0
  -19.3469   -6.8958   25.2096 C   0  0  0  0  0  0  0  0  0  0  0  0
  -21.1027   -5.9867   23.8212 C   0  0  0  0  0  0  0  0  0  0  0  0
  -31.8956  -18.3402   24.1923 C   0  0  0  0  0  0  0  0  0  0  0  0
  -24.5968  -11.6388   20.7050 C   0  0  0  0  0  0  0  0  0  0  0  0
  -25.2626  -13.7224   20.4803 C   0  0  0  0  0  0  0  0  0  0  0  0
  -28.5643  -17.7736   26.4040 C   0  0  0  0  0  0  0  0  0  0  0  0
  -29.0314  -16.5285   26.2069 C   0  0  0  0  0  0  0  0  0  0  0  0
  -22.8998  -13.4894   21.2622 C   0  0  0  0  0  0  0  0  0  0  0  0
  -35.8513  -21.9348   29.5594 C   0  0  0  0  0  0  0  0  0  0  0  0
  -36.4035  -18.8034   28.9178 C   0  0  0  0  0  0  0  0  0  0  0  0
  -35.1275  -15.6726   28.4521 C   0  0  0  0  0  0  0  0  0  0  0  0
  -30.7292  -14.7658   20.6556 C   0  0  0  0  0  0  0  0  0  0  0  0
  -39.9672  -24.9445   29.8024 C   0  0  0  0  0  0  0  0  0  0  0  0
  -34.6077  -20.8087   31.4411 C   0  0  0  0  0  0  0  0  0  0  0  0
  -34.0007  -19.5674   28.8266 C   0  0  0  0  0  0  0  0  0  0  0  0
  -27.1157  -18.0270   26.7206 C   0  0  0  0  0  0  0  0  0  0  0  0
  -39.5661  -23.7057   29.0057 C   0  0  0  0  0  0  0  0  0  0  0  0
  -26.8771  -18.1017   28.2275 C   0  0  0  0  0  0  0  0  0  0  0  0
  -29.6139  -12.3533   18.2864 C   0  0  0  0  0  0  0  0  0  0  0  0
  -38.1790  -23.8880   28.3978 C   0  0  0  0  0  0  0  0  0  0  0  0
  -28.1742  -12.0621   18.7158 C   0  0  0  0  0  0  0  0  0  0  0  0
  -27.4429  -19.3506   28.8978 C   0  0  0  0  0  0  0  0  0  0  0  0
  -30.5291  -12.5813   19.4882 C   0  0  0  0  0  0  0  0  0  0  0  0
  -28.6223  -13.3060   20.8696 C   0  0  0  0  0  0  0  0  0  0  0  0
  -29.2139  -20.0301   27.1932 C   0  0  0  0  0  0  0  0  0  0  0  0
  -37.1184  -24.0750   29.4895 C   0  0  1  0  0  0  0  0  0  0  0  0
  -35.6670  -20.6717   30.3519 C   0  0  1  0  0  0  0  0  0  0  0  0
  -27.6495  -13.1335   19.6917 C   0  0  2  0  0  0  0  0  0  0  0  0
  -28.9270  -19.6238   28.6398 C   0  0  1  0  0  0  0  0  0  1  0  0
  -28.4105  -17.4631   22.9975 C   0  0  0  0  0  0  0  0  0  0  0  0
  -35.8212  -13.3241   27.9039 C   0  0  0  0  0  0  0  0  0  0  0  0
  -36.7653  -19.5955   25.9935 C   0  0  0  0  0  0  0  0  0  0  0  0
  -36.5050  -17.1821   25.3800 C   0  0  0  0  0  0  0  0  0  0  0  0
  -38.4060  -17.9016   26.8262 C   0  0  0  0  0  0  0  0  0  0  0  0
  -34.0921  -14.6424   31.0261 C   0  0  0  0  0  0  0  0  0  0  0  0
  -29.6570  -19.2745   24.8576 C   0  0  0  0  0  0  0  0  0  0  0  0
  -36.0653  -17.8692   27.7812 C   0  0  1  0  0  0  0  0  0  0  0  0
  -35.5379  -14.3237   29.0144 C   0  0  2  0  0  0  0  0  0  0  0  0
  -36.9151  -18.1506   26.5100 C   0  0  0  0  0  0  0  0  0  0  0  0
  -25.8617  -11.5426   20.2868 N   0  0  0  0  0  0  0  0  0  0  0  0
  -26.2391  -12.8261   20.1589 N   0  0  0  0  0  0  0  0  0  0  0  0
  -35.3586  -19.6078   29.3941 N   0  0  0  0  0  0  0  0  0  0  0  0
  -29.9705  -13.6120   20.3659 N   0  0  0  0  0  0  0  0  0  0  0  0
  -25.4735  -15.0538   20.4077 N   0  0  0  0  0  0  0  0  0  0  0  0
  -21.8875  -12.5805   21.5991 N   0  0  0  0  0  0  0  0  0  0  0  0
  -30.0821  -15.6908   21.4743 N   0  0  0  0  0  0  0  0  0  0  0  0
  -36.7847  -22.8028   30.0932 N   0  0  0  0  0  0  0  0  0  0  0  0
  -36.2085  -16.5164   28.3083 N   0  0  0  0  0  0  0  0  0  0  0  0
  -29.5184  -18.8515   26.2998 N   0  3  2  0  0  0  0  0  0  0  0  0
  -34.4564  -13.7720   29.8787 N   0  3  0  0  0  0  0  0  0  0  0  0
  -22.6640  -14.7201   21.3200 O   0  0  0  0  0  0  0  0  0  0  0  0
  -35.1964  -22.1085   28.5383 O   0  0  0  0  0  0  0  0  0  0  0  0
  -37.5506  -18.8137   29.3712 O   0  0  0  0  0  0  0  0  0  0  0  0
  -33.9647  -15.9488   28.1652 O   0  0  0  0  0  0  0  0  0  0  0  0
  -31.8583  -14.9343   20.1881 O   0  0  0  0  0  0  0  0  0  0  0  0
  -21.6121   -7.0174   21.7053 O   0  0  0  0  0  0  0  0  0  0  0  0
  -29.2918  -20.7210   29.4851 O   0  0  0  0  0  0  0  0  0  1  0  0
  -18.6209   -6.8584   26.3346 F   0  0  0  0  0  0  0  0  0  0  0  0
  -22.0617   -5.0729   23.6183 F   0  0  0  0  0  0  0  0  0  0  0  0
  -32.6881  -19.4061   25.2953 Cl  0  0  0  0  0  0  0  0  0  0  0  0
  1  2  1  0  0  0  0
  1  5  2  0  0  0  0
  2  6  2  0  0  0  0
  3  9  2  0  0  0  0
  3 17  1  0  0  0  0
  4 10  1  0  0  0  0
  4 17  2  0  0  0  0
  5 19  1  0  0  0  0
  6 21  1  0  0  0  0
  7 11  2  0  0  0  0
  7 20  1  0  0  0  0
  8 14  1  0  0  0  0
  8 25  2  0  0  0  0
  9 26  1  0  0  0  0
 10 26  2  0  0  0  0
 11 27  1  0  0  0  0
 12 13  2  0  0  0  0
 12 28  1  0  0  0  0
 13 29  1  0  0  0  0
 14 31  2  0  0  0  0
 15 22  1  0  0  0  0
 15 27  2  0  0  0  0
 16 29  2  0  0  0  0
 16 30  1  0  0  0  0
 17 32  1  0  0  0  0
 18 32  1  0  0  0  0
 18 33  2  0  0  0  0
 18 36  1  0  0  0  0
 19 21  2  0  0  0  0
 19 41  1  0  0  0  0
 20 22  2  0  0  0  0
 20 42  1  0  0  0  0
 21 54  1  0  0  0  0
 22 43  1  0  0  0  0
 23 24  2  0  0  0  0
 23 25  1  0  0  0  0
 23 58  1  0  0  0  0
 24 31  1  0  0  0  0
 24 64  1  0  0  0  0
 25 74  1  0  0  0  0
 26 84  1  0  0  0  0
 27 85  1  0  0  0  0
 28 30  2  0  0  0  0
 28 84  1  0  0  0  0
 29 86  1  0  0  0  0
 30 87  1  0  0  0  0
 31 88  1  0  0  0  0
 32 68  2  0  0  0  0
 33 69  1  0  0  0  0
 33 72  1  0  0  0  0
 34 35  2  0  0  0  0
 34 44  1  0  0  0  0
 34 77  1  0  0  0  0
 36 73  1  0  0  0  0
 36 79  2  0  0  0  0
 37 55  1  0  0  0  0
 37 75  1  0  0  0  0
 37 80  2  0  0  0  0
 38 65  1  0  0  0  0
 38 70  1  0  0  0  0
 38 81  2  0  0  0  0
 39 66  1  0  0  0  0
 39 76  1  0  0  0  0
 39 82  2  0  0  0  0
 40 71  1  0  0  0  0
 40 74  1  0  0  0  0
 40 83  2  0  0  0  0
 41 45  1  0  0  0  0
 42 55  1  0  0  0  0
 43 70  1  0  0  0  0
 44 46  1  0  0  0  0
 45 48  1  0  0  0  0
 46 50  1  0  0  0  0
 47 49  1  0  0  0  0
 47 51  1  0  0  0  0
 48 54  1  0  0  0  0
 49 56  1  0  0  0  0
 50 57  1  0  0  0  0
 51 71  1  0  0  0  0
 52 56  1  0  0  0  0
 52 71  1  0  0  0  0
 53 57  1  0  0  0  0
 53 77  1  0  0  0  0
 54 75  1  0  0  0  0
 55 70  1  0  0  0  0
 56 69  1  0  0  0  0
 57 85  1  0  0  0  0
 59 66  1  0  0  0  0
 60 67  1  0  0  0  0
 61 67  1  0  0  0  0
 62 67  1  0  0  0  0
 63 78  1  0  0  0  0
 64 77  1  0  0  0  0
 65 67  1  0  0  0  0
 65 76  1  0  0  0  0
 66 78  1  0  0  0  0
 68 69  1  0  0  0  0
M  CHG  2  77   1  78   1
M  ISO  4  40 100  57 101  74 100  85 101
M  END
> <Batch ID>
0041

> <Smiles>
C=C1CCC[101CH:1]([101O:1]c2ccc3c(c2)CN(C(=O)C(NC(=O)C(C)NC)C(C)(C)C)C(C(=O)NC2CCCc4ccccc42)C3)CN1Cc1c(Cl)ccc([100NH:0][100C:0](=O)N2CCCC(n3nc(-c4ccc(Oc5ccc(F)cc5F)cc4)c(C(N)=O)c3N)C2)c1C

> <Shape>
0.164

> <Color>
0.188

> <Negative vol penalty>
0.000

$$$$

  -OEChem-04042322093D

 93102  0     1  0  0  0  0  0999 V2000
  -36.2436  -27.2220   24.9310 C   0  0  0  0  0  0  0  0  0  0  0  0
  -35.0298  -27.2965   25.6067 C   0  0  0  0  0  0  0  0  0  0  0  0
  -22.8636  -10.0464   20.0417 C   0  0  0  0  0  0  0  0  0  0  0  0
  -24.3085   -9.4504   21.8839 C   0  0  0  0  0  0  0  0  0  0  0  0
  -36.3123  -26.5867   23.6917 C   0  0  0  0  0  0  0  0  0  0  0  0
  -33.8838  -26.7368   25.0430 C   0  0  0  0  0  0  0  0  0  0  0  0
  -28.9794  -21.3942   27.9466 C   0  0  0  0  0  0  0  0  0  0  0  0
  -30.3407  -12.6577   25.7216 C   0  0  0  0  0  0  0  0  0  0  0  0
  -29.7184  -13.1046   26.8872 C   0  0  0  0  0  0  0  0  0  0  0  0
  -22.1716   -8.8452   20.1958 C   0  0  0  0  0  0  0  0  0  0  0  0
  -23.6165   -8.2492   22.0381 C   0  0  0  0  0  0  0  0  0  0  0  0
  -28.1312  -20.3405   28.2878 C   0  0  0  0  0  0  0  0  0  0  0  0
  -20.7039   -7.2118   23.4024 C   0  0  0  0  0  0  0  0  0  0  0  0
  -20.3549   -6.8283   24.6973 C   0  0  0  0  0  0  0  0  0  0  0  0
  -27.7473  -19.8769   25.9456 C   0  0  0  0  0  0  0  0  0  0  0  0
  -31.1180  -14.9014   25.2763 C   0  0  0  0  0  0  0  0  0  0  0  0
  -21.6514   -4.8050   24.4474 C   0  0  0  0  0  0  0  0  0  0  0  0
  -23.9321  -10.3490   20.8857 C   0  0  0  0  0  0  0  0  0  0  0  0
  -24.1230  -12.8921   20.8241 C   0  0  0  0  0  0  0  0  0  0  0  0
  -35.1685  -26.0105   23.1170 C   0  0  0  0  0  0  0  0  0  0  0  0
  -29.2272  -21.6838   26.6019 C   0  0  0  0  0  0  0  0  0  0  0  0
  -33.9370  -26.0944   23.7943 C   0  0  0  0  0  0  0  0  0  0  0  0
  -28.6058  -20.9232   25.5978 C   0  0  0  0  0  0  0  0  0  0  0  0
  -31.0405  -13.5561   24.9162 C   0  0  0  0  0  0  0  0  0  0  0  0
  -29.7958  -14.4499   27.2473 C   0  0  0  0  0  0  0  0  0  0  0  0
  -30.4957  -15.3484   26.4419 C   0  0  0  0  0  0  0  0  0  0  0  0
  -22.5480   -7.9466   21.1940 C   0  0  0  0  0  0  0  0  0  0  0  0
  -27.5165  -19.5839   27.2898 C   0  0  0  0  0  0  0  0  0  0  0  0
  -21.5266   -6.3919   22.6300 C   0  0  0  0  0  0  0  0  0  0  0  0
  -20.8287   -5.6249   25.2198 C   0  0  0  0  0  0  0  0  0  0  0  0
  -22.0003   -5.1885   23.1525 C   0  0  0  0  0  0  0  0  0  0  0  0
  -24.6477  -11.5894   20.7266 C   0  0  0  0  0  0  0  0  0  0  0  0
  -25.1992  -13.7139   20.5940 C   0  0  0  0  0  0  0  0  0  0  0  0
  -26.9875  -14.9487   29.6616 C   0  0  0  0  0  0  0  0  0  0  0  0
  -24.5958   -6.8154   28.6187 C   0  0  0  0  0  0  0  0  0  0  0  0
  -26.3918  -13.8010   30.0189 C   0  0  0  0  0  0  0  0  0  0  0  0
  -25.1896   -7.9600   28.2628 C   0  0  0  0  0  0  0  0  0  0  0  0
  -26.3892  -12.6202   29.1895 C   0  0  0  0  0  0  0  0  0  0  0  0
  -25.1908   -9.1449   29.0899 C   0  0  0  0  0  0  0  0  0  0  0  0
  -25.7912  -11.4758   29.5538 C   0  0  0  0  0  0  0  0  0  0  0  0
  -25.7888  -10.2893   28.7258 C   0  0  0  0  0  0  0  0  0  0  0  0
  -22.7826  -13.3210   21.0982 C   0  0  0  0  0  0  0  0  0  0  0  0
  -31.0243  -23.8437   24.1157 C   0  0  0  0  0  0  0  0  0  0  0  0
  -31.1328  -20.9715   23.0436 C   0  0  0  0  0  0  0  0  0  0  0  0
  -31.9771  -18.0429   21.5115 C   0  0  0  0  0  0  0  0  0  0  0  0
  -31.1041  -12.9830   21.2638 C   0  0  0  0  0  0  0  0  0  0  0  0
  -35.2823  -25.3758   21.7536 C   0  0  0  0  0  0  0  0  0  0  0  0
  -30.0852  -22.8484   26.1879 C   0  0  0  0  0  0  0  0  0  0  0  0
  -28.8744  -21.2930   24.1646 C   0  0  0  0  0  0  0  0  0  0  0  0
  -26.9877  -16.1777   30.5296 C   0  0  0  0  0  0  0  0  0  0  0  0
  -34.0985  -24.4801   21.3979 C   0  0  0  0  0  0  0  0  0  0  0  0
  -26.5213  -17.3899   29.7326 C   0  0  0  0  0  0  0  0  0  0  0  0
  -29.3797  -13.8470   18.2710 C   0  0  0  0  0  0  0  0  0  0  0  0
  -32.7829  -25.1786   21.7267 C   0  0  0  0  0  0  0  0  0  0  0  0
  -27.9241  -13.4839   18.5698 C   0  0  0  0  0  0  0  0  0  0  0  0
  -30.3508  -12.8550   18.9074 C   0  0  0  0  0  0  0  0  0  0  0  0
  -28.7087  -12.2851   20.6545 C   0  0  0  0  0  0  0  0  0  0  0  0
  -27.1447  -16.2061   27.5937 C   0  0  0  0  0  0  0  0  0  0  0  0
  -32.6769  -25.4777   23.2270 C   0  0  1  0  0  0  0  0  0  0  0  0
  -30.8957  -22.5760   24.9081 C   0  0  1  0  0  0  0  0  0  0  0  0
  -27.6937  -13.2883   20.0804 C   0  0  2  0  0  0  0  0  0  0  0  0
  -27.2614  -17.4975   28.3994 C   0  0  1  0  0  0  0  0  0  1  0  0
  -30.5918  -16.7934   26.8071 C   0  0  0  0  0  0  0  0  0  0  0  0
  -32.5863  -17.0978   19.2680 C   0  0  0  0  0  0  0  0  0  0  0  0
  -28.2072  -21.1152   22.1929 C   0  0  0  0  0  0  0  0  0  0  0  0
  -28.6976  -19.3709   20.4651 C   0  0  0  0  0  0  0  0  0  0  0  0
  -29.8495  -21.5813   20.3654 C   0  0  0  0  0  0  0  0  0  0  0  0
  -34.6328  -17.1607   22.4748 C   0  0  0  0  0  0  0  0  0  0  0  0
  -31.7054  -13.0781   23.6698 C   0  0  0  0  0  0  0  0  0  0  0  0
  -29.1175  -14.9074   28.5049 C   0  0  0  0  0  0  0  0  0  0  0  0
  -30.4984  -19.9255   22.1624 C   0  0  1  0  0  0  0  0  0  0  0  0
  -33.1115  -17.6909   20.5661 C   0  0  2  0  0  0  0  0  0  0  0  0
  -29.3185  -20.4932   21.3239 C   0  0  0  0  0  0  0  0  0  0  0  0
  -25.9556  -11.5793   20.4556 N   0  0  0  0  0  0  0  0  0  0  0  0
  -26.2617  -12.8857   20.3807 N   0  0  0  0  0  0  0  0  0  0  0  0
  -30.3028  -21.5953   23.9830 N   0  0  0  0  0  0  0  0  0  0  0  0
  -30.0798  -12.7165   20.3403 N   0  0  0  0  0  0  0  0  0  0  0  0
  -25.3309  -15.0568   20.5553 N   0  0  0  0  0  0  0  0  0  0  0  0
  -22.4080  -13.5313   22.4323 N   0  0  0  0  0  0  0  0  0  0  0  0
  -32.3263  -24.2787   23.9578 N   0  0  0  0  0  0  0  0  0  0  0  0
  -31.5781  -19.3545   21.3644 N   0  0  0  0  0  0  0  0  0  0  0  0
  -30.7614  -12.8338   22.6021 N   0  0  0  0  0  0  0  0  0  0  0  0
  -27.6231  -15.0019   28.3674 N   0  3  1  0  0  0  0  0  0  0  0  0
  -34.0253  -16.6990   21.2002 N   0  3  0  0  0  0  0  0  0  0  0  0
  -21.9372  -13.4962   20.1882 O   0  0  0  0  0  0  0  0  0  0  0  0
  -30.0172  -24.3874   23.6779 O   0  0  0  0  0  0  0  0  0  0  0  0
  -32.3303  -21.2345   22.9014 O   0  0  0  0  0  0  0  0  0  0  0  0
  -31.4910  -17.2340   22.2988 O   0  0  0  0  0  0  0  0  0  0  0  0
  -32.2385  -13.3336   20.9212 O   0  0  0  0  0  0  0  0  0  0  0  0
  -21.8728   -6.7744   21.3449 O   0  0  0  0  0  0  0  0  0  0  0  0
  -26.6931  -18.5538   27.6299 O   0  0  0  0  0  0  0  0  0  1  0  0
  -20.4947   -5.2575   26.4639 F   0  0  0  0  0  0  0  0  0  0  0  0
  -22.7919   -4.3972   22.4156 F   0  0  0  0  0  0  0  0  0  0  0  0
  1  2  1  0  0  0  0
  1  5  2  0  0  0  0
  2  6  2  0  0  0  0
  3 10  2  0  0  0  0
  3 18  1  0  0  0  0
  4 11  1  0  0  0  0
  4 18  2  0  0  0  0
  5 20  1  0  0  0  0
  6 22  1  0  0  0  0
  7 12  2  0  0  0  0
  7 21  1  0  0  0  0
  8  9  2  0  0  0  0
  8 24  1  0  0  0  0
  9 25  1  0  0  0  0
 10 27  1  0  0  0  0
 11 27  2  0  0  0  0
 12 28  1  0  0  0  0
 13 14  2  0  0  0  0
 13 29  1  0  0  0  0
 14 30  1  0  0  0  0
 15 23  1  0  0  0  0
 15 28  2  0  0  0  0
 16 24  2  0  0  0  0
 16 26  1  0  0  0  0
 17 30  2  0  0  0  0
 17 31  1  0  0  0  0
 18 32  1  0  0  0  0
 19 32  1  0  0  0  0
 19 33  2  0  0  0  0
 19 42  1  0  0  0  0
 20 22  2  0  0  0  0
 20 47  1  0  0  0  0
 21 23  2  0  0  0  0
 21 48  1  0  0  0  0
 22 59  1  0  0  0  0
 23 49  1  0  0  0  0
 24 69  1  0  0  0  0
 25 26  2  0  0  0  0
 25 70  1  0  0  0  0
 26 63  1  0  0  0  0
 27 90  1  0  0  0  0
 28 91  1  0  0  0  0
 29 31  2  0  0  0  0
 29 90  1  0  0  0  0
 30 92  1  0  0  0  0
 31 93  1  0  0  0  0
 32 74  2  0  0  0  0
 33 75  1  0  0  0  0
 33 78  1  0  0  0  0
 34 36  2  0  0  0  0
 34 50  1  0  0  0  0
 34 83  1  0  0  0  0
 35 37  2  0  0  0  0
 36 38  1  0  0  0  0
 37 39  1  0  0  0  0
 38 40  2  0  0  0  0
 39 41  2  0  0  0  0
 40 41  1  0  0  0  0
 42 79  1  0  0  0  0
 42 85  2  0  0  0  0
 43 60  1  0  0  0  0
 43 80  1  0  0  0  0
 43 86  2  0  0  0  0
 44 71  1  0  0  0  0
 44 76  1  0  0  0  0
 44 87  2  0  0  0  0
 45 72  1  0  0  0  0
 45 81  1  0  0  0  0
 45 88  2  0  0  0  0
 46 77  1  0  0  0  0
 46 82  1  0  0  0  0
 46 89  2  0  0  0  0
 47 51  1  0  0  0  0
 48 60  1  0  0  0  0
 49 76  1  0  0  0  0
 50 52  1  0  0  0  0
 51 54  1  0  0  0  0
 52 62  1  0  0  0  0
 53 55  1  0  0  0  0
 53 56  1  0  0  0  0
 54 59  1  0  0  0  0
 55 61  1  0  0  0  0
 56 77  1  0  0  0  0
 57 61  1  0  0  0  0
 57 77  1  0  0  0  0
 58 62  1  0  0  0  0
 58 83  1  0  0  0  0
 59 80  1  0  0  0  0
 60 76  1  0  0  0  0
 61 75  1  0  0  0  0
 62 91  1  0  0  0  0
 64 72  1  0  0  0  0
 65 73  1  0  0  0  0
 66 73  1  0  0  0  0
 67 73  1  0  0  0  0
 68 84  1  0  0  0  0
 69 82  1  0  0  0  0
 70 83  1  0  0  0  0
 71 73  1  0  0  0  0
 71 81  1  0  0  0  0
 72 84  1  0  0  0  0
 74 75  1  0  0  0  0
M  CHG  2  83   1  84   1
M  ISO  4  46 100  62 101  82 100  91 101
M  END
> <Batch ID>
0041

> <Smiles>
C=CC=CC=CC=C1CC[101CH:1]([101O:1]c2ccc3c(c2)CN(C(=O)C(NC(=O)C(C)NC)C(C)(C)C)C(C(=O)NC2CCCc4ccccc42)C3)CN1Cc1ccc(C[100NH:0][100C:0](=O)N2CCCC(n3nc(-c4ccc(Oc5ccc(F)cc5F)cc4)c(C(N)=O)c3N)C2)cc1C

> <Shape>
0.178

> <Color>
0.154

> <Negative vol penalty>
0.000

$$$$

  -OEChem-04042322093D

 90 99  0     1  0  0  0  0  0999 V2000
  -16.5921  -29.9136   23.9467 C   0  0  0  0  0  0  0  0  0  0  0  0
  -17.7301  -30.6522   24.2507 C   0  0  0  0  0  0  0  0  0  0  0  0
  -25.4730  -13.0646   22.1731 C   0  0  0  0  0  0  0  0  0  0  0  0
  -23.8185  -12.9877   20.4142 C   0  0  0  0  0  0  0  0  0  0  0  0
  -16.7131  -28.6995   23.2740 C   0  0  0  0  0  0  0  0  0  0  0  0
  -18.9882  -30.1829   23.8717 C   0  0  0  0  0  0  0  0  0  0  0  0
  -26.9063  -30.1252   23.1481 C   0  0  0  0  0  0  0  0  0  0  0  0
  -26.3620  -12.3525   21.3680 C   0  0  0  0  0  0  0  0  0  0  0  0
  -24.7074  -12.2756   19.6091 C   0  0  0  0  0  0  0  0  0  0  0  0
  -27.9949  -29.2899   22.9011 C   0  0  0  0  0  0  0  0  0  0  0  0
  -28.4349  -12.9931   18.7746 C   0  0  0  0  0  0  0  0  0  0  0  0
  -29.7541  -13.4417   18.7114 C   0  0  0  0  0  0  0  0  0  0  0  0
  -26.9705  -28.5751   20.8374 C   0  0  0  0  0  0  0  0  0  0  0  0
  -23.6862  -22.8133   22.8113 C   0  0  0  0  0  0  0  0  0  0  0  0
  -25.1698  -21.3866   24.0764 C   0  0  0  0  0  0  0  0  0  0  0  0
  -30.5172  -11.3188   19.5764 C   0  0  0  0  0  0  0  0  0  0  0  0
  -24.2012  -13.3821   21.6962 C   0  0  0  0  0  0  0  0  0  0  0  0
  -22.7809  -13.7336   23.7859 C   0  0  0  0  0  0  0  0  0  0  0  0
  -17.9747  -28.2097   22.8979 C   0  0  0  0  0  0  0  0  0  0  0  0
  -25.8348  -30.1837   22.2454 C   0  0  0  0  0  0  0  0  0  0  0  0
  -19.1291  -28.9714   23.1710 C   0  0  0  0  0  0  0  0  0  0  0  0
  -25.8707  -29.4139   21.0740 C   0  0  0  0  0  0  0  0  0  0  0  0
  -24.6206  -23.8465   22.8805 C   0  0  0  0  0  0  0  0  0  0  0  0
  -26.1044  -22.4198   24.1455 C   0  0  0  0  0  0  0  0  0  0  0  0
  -25.8297  -23.6498   23.5476 C   0  0  0  0  0  0  0  0  0  0  0  0
  -23.9607  -21.5833   23.4093 C   0  0  0  0  0  0  0  0  0  0  0  0
  -25.9792  -11.9580   20.0860 C   0  0  0  0  0  0  0  0  0  0  0  0
  -28.0258  -28.5125   21.7471 C   0  0  0  0  0  0  0  0  0  0  0  0
  -28.1567  -11.7074   19.2387 C   0  0  0  0  0  0  0  0  0  0  0  0
  -30.7953  -12.6045   19.1123 C   0  0  0  0  0  0  0  0  0  0  0  0
  -29.1979  -10.8702   19.6395 C   0  0  0  0  0  0  0  0  0  0  0  0
  -23.2822  -14.1172   22.5277 C   0  0  0  0  0  0  0  0  0  0  0  0
  -21.9534  -14.7658   24.1551 C   0  0  0  0  0  0  0  0  0  0  0  0
  -28.9146  -25.6066   22.7231 C   0  0  0  0  0  0  0  0  0  0  0  0
  -30.5702  -25.8263   25.9934 C   0  0  0  0  0  0  0  0  0  0  0  0
  -29.6994  -26.0472   23.7238 C   0  0  0  0  0  0  0  0  0  0  0  0
  -29.7900  -25.3879   24.9992 C   0  0  0  0  0  0  0  0  0  0  0  0
  -23.0401  -12.5501   24.5526 C   0  0  0  0  0  0  0  0  0  0  0  0
  -22.7313  -29.5145   22.4014 C   0  0  0  0  0  0  0  0  0  0  0  0
  -22.7064  -30.7774   19.4137 C   0  0  0  0  0  0  0  0  0  0  0  0
  -24.7925  -30.6268   16.4737 C   0  0  0  0  0  0  0  0  0  0  0  0
  -21.7652  -20.5619   22.7145 C   0  0  0  0  0  0  0  0  0  0  0  0
  -18.0472  -26.8935   22.1648 C   0  0  0  0  0  0  0  0  0  0  0  0
  -24.6803  -31.1098   22.5131 C   0  0  0  0  0  0  0  0  0  0  0  0
  -24.7550  -29.4556   20.0631 C   0  0  0  0  0  0  0  0  0  0  0  0
  -19.4385  -26.2695   22.1995 C   0  0  0  0  0  0  0  0  0  0  0  0
  -29.5248  -24.2997   19.9194 C   0  0  0  0  0  0  0  0  0  0  0  0
  -19.1576  -18.1756   22.2867 C   0  0  0  0  0  0  0  0  0  0  0  0
  -29.2804  -23.2715   21.0249 C   0  0  0  0  0  0  0  0  0  0  0  0
  -20.4812  -27.3018   21.7974 C   0  0  0  0  0  0  0  0  0  0  0  0
  -29.8324  -25.7181   20.3939 C   0  0  0  0  0  0  0  0  0  0  0  0
  -19.8727  -16.8292   22.4205 C   0  0  0  0  0  0  0  0  0  0  0  0
  -20.0239  -19.2090   21.5688 C   0  0  0  0  0  0  0  0  0  0  0  0
  -22.0812  -18.0485   22.2687 C   0  0  0  0  0  0  0  0  0  0  0  0
  -27.9786  -23.5109   21.7864 C   0  0  0  0  0  0  0  0  0  0  0  0
  -20.5105  -28.4660   22.7957 C   0  0  1  0  0  0  0  0  0  0  0  0
  -28.8168  -26.2969   21.3814 C   0  0  2  0  0  0  0  0  0  1  0  0
  -23.4060  -30.7040   21.7790 C   0  0  1  0  0  0  0  0  0  0  0  0
  -21.2731  -16.9943   23.0429 C   0  0  2  0  0  0  0  0  0  0  0  0
  -24.3021  -25.1541   22.2325 C   0  0  0  0  0  0  0  0  0  0  0  0
  -27.3914  -22.1833   24.8657 C   0  0  0  0  0  0  0  0  0  0  0  0
  -25.1119  -32.2806   14.6135 C   0  0  0  0  0  0  0  0  0  0  0  0
  -20.5433  -29.1602   17.9939 C   0  0  0  0  0  0  0  0  0  0  0  0
  -21.8027  -29.4848   15.8546 C   0  0  0  0  0  0  0  0  0  0  0  0
  -20.8961  -31.4605   17.0782 C   0  0  0  0  0  0  0  0  0  0  0  0
  -27.7229  -30.6959   16.8823 C   0  0  0  0  0  0  0  0  0  0  0  0
  -26.8350  -24.7610   23.6214 C   0  0  0  0  0  0  0  0  0  0  0  0
  -22.8934  -30.2290   18.0196 C   0  0  1  0  0  0  0  0  0  0  0  0
  -25.6665  -31.7385   15.9217 C   0  0  2  0  0  0  0  0  0  0  0  0
  -21.5465  -30.0716   17.2591 C   0  0  0  0  0  0  0  0  0  0  0  0
  -22.8124  -15.3007   22.1244 N   0  0  0  0  0  0  0  0  0  0  0  0
  -22.0071  -15.6696   23.1351 N   0  0  0  0  0  0  0  0  0  0  0  0
  -23.6451  -30.3720   20.3730 N   0  0  0  0  0  0  0  0  0  0  0  0
  -21.3333  -19.3145   22.2162 N   0  0  0  0  0  0  0  0  0  0  0  0
  -21.1924  -14.9795   25.2494 N   0  0  0  0  0  0  0  0  0  0  0  0
  -23.9157  -11.5910   24.0255 N   0  0  0  0  0  0  0  0  0  0  0  0
  -23.0121  -20.5332   23.3382 N   0  0  0  0  0  0  0  0  0  0  0  0
  -21.3556  -29.5162   22.2716 N   0  0  0  0  0  0  0  0  0  0  0  0
  -23.8527  -31.1085   17.3603 N   0  0  0  0  0  0  0  0  0  0  0  0
  -28.1583  -24.4038   22.9916 N   0  3  2  0  0  0  0  0  0  0  0  0
  -27.0479  -31.2370   15.6746 N   0  3  0  0  0  0  0  0  0  0  0  0
  -22.4981  -12.3413   25.6644 O   0  0  0  0  0  0  0  0  0  0  0  0
  -23.4088  -28.6578   22.9570 O   0  0  0  0  0  0  0  0  0  0  0  0
  -21.7665  -31.5430   19.6413 O   0  0  0  0  0  0  0  0  0  0  0  0
  -24.9273  -29.4494   16.1480 O   0  0  0  0  0  0  0  0  0  0  0  0
  -21.0675  -21.5750   22.6206 O   0  0  0  0  0  0  0  0  0  0  0  0
  -26.8465  -11.2633   19.3000 O   0  0  0  0  0  0  0  0  0  0  0  0
  -29.0869  -27.6959   21.5039 O   0  0  0  0  0  0  0  0  0  1  0  0
  -32.0622  -13.0348   19.0502 F   0  0  0  0  0  0  0  0  0  0  0  0
  -28.9371   -9.6336   20.0851 F   0  0  0  0  0  0  0  0  0  0  0  0
  1  2  1  0  0  0  0
  1  5  2  0  0  0  0
  2  6  2  0  0  0  0
  3  8  2  0  0  0  0
  3 17  1  0  0  0  0
  4  9  1  0  0  0  0
  4 17  2  0  0  0  0
  5 19  1  0  0  0  0
  6 21  1  0  0  0  0
  7 10  2  0  0  0  0
  7 20  1  0  0  0  0
  8 27  1  0  0  0  0
  9 27  2  0  0  0  0
 10 28  1  0  0  0  0
 11 12  2  0  0  0  0
 11 29  1  0  0  0  0
 12 30  1  0  0  0  0
 13 22  1  0  0  0  0
 13 28  2  0  0  0  0
 14 23  2  0  0  0  0
 14 26  1  0  0  0  0
 15 24  1  0  0  0  0
 15 26  2  0  0  0  0
 16 30  2  0  0  0  0
 16 31  1  0  0  0  0
 17 32  1  0  0  0  0
 18 32  1  0  0  0  0
 18 33  2  0  0  0  0
 18 38  1  0  0  0  0
 19 21  2  0  0  0  0
 19 43  1  0  0  0  0
 20 22  2  0  0  0  0
 20 44  1  0  0  0  0
 21 56  1  0  0  0  0
 22 45  1  0  0  0  0
 23 25  1  0  0  0  0
 23 60  1  0  0  0  0
 24 25  2  0  0  0  0
 24 61  1  0  0  0  0
 25 67  1  0  0  0  0
 26 77  1  0  0  0  0
 27 87  1  0  0  0  0
 28 88  1  0  0  0  0
 29 31  2  0  0  0  0
 29 87  1  0  0  0  0
 30 89  1  0  0  0  0
 31 90  1  0  0  0  0
 32 71  2  0  0  0  0
 33 72  1  0  0  0  0
 33 75  1  0  0  0  0
 34 36  2  0  0  0  0
 34 57  1  0  0  0  0
 34 80  1  0  0  0  0
 35 37  2  0  0  0  0
 36 37  1  0  0  0  0
 38 76  1  0  0  0  0
 38 82  2  0  0  0  0
 39 58  1  0  0  0  0
 39 78  1  0  0  0  0
 39 83  2  0  0  0  0
 40 68  1  0  0  0  0
 40 73  1  0  0  0  0
 40 84  2  0  0  0  0
 41 69  1  0  0  0  0
 41 79  1  0  0  0  0
 41 85  2  0  0  0  0
 42 74  1  0  0  0  0
 42 77  1  0  0  0  0
 42 86  2  0  0  0  0
 43 46  1  0  0  0  0
 44 58  1  0  0  0  0
 45 73  1  0  0  0  0
 46 50  1  0  0  0  0
 47 49  1  0  0  0  0
 47 51  1  0  0  0  0
 48 52  1  0  0  0  0
 48 53  1  0  0  0  0
 49 55  1  0  0  0  0
 50 56  1  0  0  0  0
 51 57  1  0  0  0  0
 52 59  1  0  0  0  0
 53 74  1  0  0  0  0
 54 59  1  0  0  0  0
 54 74  1  0  0  0  0
 55 80  1  0  0  0  0
 56 78  1  0  0  0  0
 57 88  1  0  0  0  0
 58 73  1  0  0  0  0
 59 72  1  0  0  0  0
 62 69  1  0  0  0  0
 63 70  1  0  0  0  0
 64 70  1  0  0  0  0
 65 70  1  0  0  0  0
 66 81  1  0  0  0  0
 67 80  1  0  0  0  0
 68 70  1  0  0  0  0
 68 79  1  0  0  0  0
 69 81  1  0  0  0  0
 71 72  1  0  0  0  0
M  CHG  2  80   1  81   1
M  ISO  4  42 100  57 101  77 100  88 101
M  END
> <Batch ID>
0041

> <Smiles>
C=CC=C1N(Cc2c(C)cc([100NH:0][100C:0](=O)N3CCCC(n4nc(-c5ccc(Oc6ccc(F)cc6F)cc5)c(C(N)=O)c4N)C3)cc2C)CCCC[101CH:1]1[101O:1]c1ccc2c(c1)CN(C(=O)C(NC(=O)C(C)NC)C(C)(C)C)C(C(=O)NC1CCCc3ccccc31)C2

> <Shape>
0.229

> <Color>
0.121

> <Negative vol penalty>
0.000

$$$$

  -OEChem-04042322093D

 84 92  0     1  0  0  0  0  0999 V2000
  -24.5001  -20.9814   20.3923 C   0  0  0  0  0  0  0  0  0  0  0  0
  -25.5557  -20.8414   21.2875 C   0  0  0  0  0  0  0  0  0  0  0  0
  -23.0012   -9.8927   19.9820 C   0  0  0  0  0  0  0  0  0  0  0  0
  -23.7239   -9.9475   22.2867 C   0  0  0  0  0  0  0  0  0  0  0  0
  -24.1538  -22.2455   19.9168 C   0  0  0  0  0  0  0  0  0  0  0  0
  -26.2664  -21.9653   21.7070 C   0  0  0  0  0  0  0  0  0  0  0  0
  -27.1065  -21.9806   26.7009 C   0  0  0  0  0  0  0  0  0  0  0  0
  -22.2345   -8.7586   20.2494 C   0  0  0  0  0  0  0  0  0  0  0  0
  -22.9572   -8.8134   22.5542 C   0  0  0  0  0  0  0  0  0  0  0  0
  -28.1314  -21.1639   27.1766 C   0  0  0  0  0  0  0  0  0  0  0  0
  -23.2022   -5.4737   22.0881 C   0  0  0  0  0  0  0  0  0  0  0  0
  -23.7890   -4.4578   22.8425 C   0  0  0  0  0  0  0  0  0  0  0  0
  -30.4978  -18.3494   23.9917 C   0  0  0  0  0  0  0  0  0  0  0  0
  -29.5929  -23.0792   27.2985 C   0  0  0  0  0  0  0  0  0  0  0  0
  -32.0566  -16.5399   22.5499 C   0  0  0  0  0  0  0  0  0  0  0  0
  -22.0634   -4.7034   24.5155 C   0  0  0  0  0  0  0  0  0  0  0  0
  -23.7460  -10.4871   21.0006 C   0  0  0  0  0  0  0  0  0  0  0  0
  -31.8825  -18.3341   24.1586 C   0  0  0  0  0  0  0  0  0  0  0  0
  -24.1313  -13.0025   20.8208 C   0  0  0  0  0  0  0  0  0  0  0  0
  -24.8545  -23.3866   20.3381 C   0  0  0  0  0  0  0  0  0  0  0  0
  -27.3207  -23.3531   26.5098 C   0  0  0  0  0  0  0  0  0  0  0  0
  -25.9300  -23.2457   21.2357 C   0  0  0  0  0  0  0  0  0  0  0  0
  -28.5683  -23.9116   26.8227 C   0  0  0  0  0  0  0  0  0  0  0  0
  -29.8924  -17.4599   23.1040 C   0  0  0  0  0  0  0  0  0  0  0  0
  -32.6619  -17.4294   23.4377 C   0  0  0  0  0  0  0  0  0  0  0  0
  -30.6718  -16.5552   22.3831 C   0  0  0  0  0  0  0  0  0  0  0  0
  -22.2124   -8.2190   21.5355 C   0  0  0  0  0  0  0  0  0  0  0  0
  -29.3757  -21.7126   27.4728 C   0  0  0  0  0  0  0  0  0  0  0  0
  -22.0460   -6.1046   22.5474 C   0  0  0  0  0  0  0  0  0  0  0  0
  -23.2196   -4.0727   24.0562 C   0  0  0  0  0  0  0  0  0  0  0  0
  -21.4766   -5.7194   23.7611 C   0  0  0  0  0  0  0  0  0  0  0  0
  -24.5387  -11.6583   20.7249 C   0  0  0  0  0  0  0  0  0  0  0  0
  -25.2414  -13.7245   20.4564 C   0  0  0  0  0  0  0  0  0  0  0  0
  -32.5007  -19.2913   25.1119 C   0  0  0  0  0  0  0  0  0  0  0  0
  -22.8629  -13.5494   21.2051 C   0  0  0  0  0  0  0  0  0  0  0  0
  -27.2522  -25.3064   24.0030 C   0  0  0  0  0  0  0  0  0  0  0  0
  -27.6877  -27.5914   26.2640 C   0  0  0  0  0  0  0  0  0  0  0  0
  -28.8071  -28.4040   29.3838 C   0  0  0  0  0  0  0  0  0  0  0  0
  -30.7206  -14.6864   20.6945 C   0  0  0  0  0  0  0  0  0  0  0  0
  -24.4739  -24.7267   19.7601 C   0  0  0  0  0  0  0  0  0  0  0  0
  -26.1968  -24.2252   26.0212 C   0  0  0  0  0  0  0  0  0  0  0  0
  -28.8432  -25.3828   26.6543 C   0  0  0  0  0  0  0  0  0  0  0  0
  -25.0369  -25.9099   20.5432 C   0  0  0  0  0  0  0  0  0  0  0  0
  -29.6049  -12.2295   18.3715 C   0  0  0  0  0  0  0  0  0  0  0  0
  -26.5128  -25.6878   20.8582 C   0  0  0  0  0  0  0  0  0  0  0  0
  -28.1539  -11.9725   18.7845 C   0  0  0  0  0  0  0  0  0  0  0  0
  -30.5041  -12.4750   19.5818 C   0  0  0  0  0  0  0  0  0  0  0  0
  -28.5873  -13.2660   20.9120 C   0  0  0  0  0  0  0  0  0  0  0  0
  -26.7091  -24.4439   21.7333 C   0  0  1  0  0  0  0  0  0  0  0  0
  -26.6819  -25.5200   25.3767 C   0  0  1  0  0  0  0  0  0  0  0  0
  -27.6309  -13.0776   19.7231 C   0  0  2  0  0  0  0  0  0  0  0  0
  -28.4072  -17.4989   22.9445 C   0  0  0  0  0  0  0  0  0  0  0  0
  -34.1470  -17.3926   23.5971 C   0  0  0  0  0  0  0  0  0  0  0  0
  -29.0648  -30.3579   30.9373 C   0  0  0  0  0  0  0  0  0  0  0  0
  -30.0862  -28.5591   24.6451 C   0  0  0  0  0  0  0  0  0  0  0  0
  -30.8426  -29.8373   26.6606 C   0  0  0  0  0  0  0  0  0  0  0  0
  -28.6584  -30.3837   25.5865 C   0  0  0  0  0  0  0  0  0  0  0  0
  -27.0380  -27.1731   31.4122 C   0  0  0  0  0  0  0  0  0  0  0  0
  -32.5754  -20.0609   27.4694 C   0  0  0  0  0  0  0  0  0  0  0  0
  -31.7140  -21.3026   27.6151 C   0  0  0  0  0  0  0  0  0  1  0  0
  -28.8875  -28.2415   26.9096 C   0  0  1  0  0  0  0  0  0  0  0  0
  -28.1711  -29.2058   30.5050 C   0  0  2  0  0  0  0  0  0  0  0  0
  -29.6144  -29.2273   25.9519 C   0  0  0  0  0  0  0  0  0  0  0  0
  -25.8084  -11.5313   20.3302 N   0  0  0  0  0  0  0  0  0  0  0  0
  -26.2084  -12.8048   20.1749 N   0  0  0  0  0  0  0  0  0  0  0  0
  -27.7143  -26.1929   26.1677 N   0  0  0  0  0  0  0  0  0  0  0  0
  -29.9481  -13.5373   20.4227 N   0  0  0  0  0  0  0  0  0  0  0  0
  -25.4749  -15.0501   20.3523 N   0  0  0  0  0  0  0  0  0  0  0  0
  -21.8308  -12.6658   21.5490 N   0  0  0  0  0  0  0  0  0  0  0  0
  -30.0754  -15.6429   21.4777 N   0  0  0  0  0  0  0  0  0  0  0  0
  -32.0867  -19.1894   26.4341 N   0  0  0  0  0  0  0  0  0  0  0  0
  -26.3670  -24.7347   23.1091 N   0  0  0  0  0  0  0  0  0  0  0  0
  -28.4057  -28.8531   28.1435 N   0  0  0  0  0  0  0  0  0  0  0  0
  -27.9222  -28.3346   31.6882 N   0  3  0  0  0  0  0  0  0  0  0  0
  -33.3090  -20.1164   24.6943 O   0  0  0  0  0  0  0  0  0  0  0  0
  -22.6461  -14.7847   21.2265 O   0  0  0  0  0  0  0  0  0  0  0  0
  -28.4090  -25.6373   23.7710 O   0  0  0  0  0  0  0  0  0  0  0  0
  -26.7580  -28.2978   25.8663 O   0  0  0  0  0  0  0  0  0  0  0  0
  -29.5852  -27.4748   29.5878 O   0  0  0  0  0  0  0  0  0  0  0  0
  -31.8597  -14.8246   20.2414 O   0  0  0  0  0  0  0  0  0  0  0  0
  -21.4642   -7.1125   21.7969 O   0  0  0  0  0  0  0  0  0  0  0  0
  -30.3780  -20.9176   27.9367 O   0  0  0  0  0  0  0  0  0  1  0  0
  -23.7824   -3.0960   24.7798 F   0  0  0  0  0  0  0  0  0  0  0  0
  -20.3652   -6.3209   24.2069 F   0  0  0  0  0  0  0  0  0  0  0  0
  1  2  1  0  0  0  0
  1  5  2  0  0  0  0
  2  6  2  0  0  0  0
  3  8  2  0  0  0  0
  3 17  1  0  0  0  0
  4  9  1  0  0  0  0
  4 17  2  0  0  0  0
  5 20  1  0  0  0  0
  6 22  1  0  0  0  0
  7 10  2  0  0  0  0
  7 21  1  0  0  0  0
  8 27  1  0  0  0  0
  9 27  2  0  0  0  0
 10 28  1  0  0  0  0
 11 12  2  0  0  0  0
 11 29  1  0  0  0  0
 12 30  1  0  0  0  0
 13 18  1  0  0  0  0
 13 24  2  0  0  0  0
 14 23  1  0  0  0  0
 14 28  2  0  0  0  0
 15 25  1  0  0  0  0
 15 26  2  0  0  0  0
 16 30  2  0  0  0  0
 16 31  1  0  0  0  0
 17 32  1  0  0  0  0
 18 25  2  0  0  0  0
 18 34  1  0  0  0  0
 19 32  1  0  0  0  0
 19 33  2  0  0  0  0
 19 35  1  0  0  0  0
 20 22  2  0  0  0  0
 20 40  1  0  0  0  0
 21 23  2  0  0  0  0
 21 41  1  0  0  0  0
 22 49  1  0  0  0  0
 23 42  1  0  0  0  0
 24 26  1  0  0  0  0
 24 52  1  0  0  0  0
 25 53  1  0  0  0  0
 26 70  1  0  0  0  0
 27 81  1  0  0  0  0
 28 82  1  0  0  0  0
 29 31  2  0  0  0  0
 29 81  1  0  0  0  0
 30 83  1  0  0  0  0
 31 84  1  0  0  0  0
 32 64  2  0  0  0  0
 33 65  1  0  0  0  0
 33 68  1  0  0  0  0
 34 71  1  0  0  0  0
 34 75  2  0  0  0  0
 35 69  1  0  0  0  0
 35 76  2  0  0  0  0
 36 50  1  0  0  0  0
 36 72  1  0  0  0  0
 36 77  2  0  0  0  0
 37 61  1  0  0  0  0
 37 66  1  0  0  0  0
 37 78  2  0  0  0  0
 38 62  1  0  0  0  0
 38 73  1  0  0  0  0
 38 79  2  0  0  0  0
 39 67  1  0  0  0  0
 39 70  1  0  0  0  0
 39 80  2  0  0  0  0
 40 43  1  0  0  0  0
 41 50  1  0  0  0  0
 42 66  1  0  0  0  0
 43 45  1  0  0  0  0
 44 46  1  0  0  0  0
 44 47  1  0  0  0  0
 45 49  1  0  0  0  0
 46 51  1  0  0  0  0
 47 67  1  0  0  0  0
 48 51  1  0  0  0  0
 48 67  1  0  0  0  0
 49 72  1  0  0  0  0
 50 66  1  0  0  0  0
 51 65  1  0  0  0  0
 54 62  1  0  0  0  0
 55 63  1  0  0  0  0
 56 63  1  0  0  0  0
 57 63  1  0  0  0  0
 58 74  1  0  0  0  0
 59 60  1  0  0  0  0
 59 71  1  0  0  0  0
 60 82  1  0  0  0  0
 61 63  1  0  0  0  0
 61 73  1  0  0  0  0
 62 74  1  0  0  0  0
 64 65  1  0  0  0  0
M  CHG  1  74   1
M  ISO  4  39 100  60 101  70 100  82 101
M  END
> <Batch ID>
0041

> <Smiles>
CNC(C)C(=O)NC(C(=O)N1Cc2cc([101O:1][101CH2:1]CNC(=O)c3cc(C)c([100NH:0][100C:0](=O)N4CCCC(n5nc(-c6ccc(Oc7ccc(F)cc7F)cc6)c(C(N)=O)c5N)C4)cc3C)ccc2CC1C(=O)NC1CCCc2ccccc21)C(C)(C)C

> <Shape>
0.185

> <Color>
0.198

> <Negative vol penalty>
0.000

$$$$

  -OEChem-04042322093D

 83 91  0     1  0  0  0  0  0999 V2000
  -24.5369   -8.5042   22.0158 C   0  0  0  0  0  0  0  0  0  0  0  0
  -24.9572   -9.5304   21.1757 C   0  0  0  0  0  0  0  0  0  0  0  0
  -23.9968  -30.8137   21.7265 C   0  0  0  0  0  0  0  0  0  0  0  0
  -23.9803  -29.0548   23.3827 C   0  0  0  0  0  0  0  0  0  0  0  0
  -23.2471   -8.5220   22.5449 C   0  0  0  0  0  0  0  0  0  0  0  0
  -24.0873  -10.5746   20.8633 C   0  0  0  0  0  0  0  0  0  0  0  0
  -26.3178  -15.1121   21.1469 C   0  0  0  0  0  0  0  0  0  0  0  0
  -29.4415  -20.4389   22.3671 C   0  0  0  0  0  0  0  0  0  0  0  0
  -22.6061  -30.8931   21.7969 C   0  0  0  0  0  0  0  0  0  0  0  0
  -22.5895  -29.1342   23.4531 C   0  0  0  0  0  0  0  0  0  0  0  0
  -27.1375  -15.4863   20.0829 C   0  0  0  0  0  0  0  0  0  0  0  0
  -19.0082  -28.6241   23.8059 C   0  0  0  0  0  0  0  0  0  0  0  0
  -18.2898  -27.4286   23.8050 C   0  0  0  0  0  0  0  0  0  0  0  0
  -29.0785  -21.4002   23.3104 C   0  0  0  0  0  0  0  0  0  0  0  0
  -25.3483  -16.8330   19.1860 C   0  0  0  0  0  0  0  0  0  0  0  0
  -29.9595  -22.1885   20.7835 C   0  0  0  0  0  0  0  0  0  0  0  0
  -19.2188  -26.8720   21.6453 C   0  0  0  0  0  0  0  0  0  0  0  0
  -24.6840  -29.8945   22.5194 C   0  0  0  0  0  0  0  0  0  0  0  0
  -27.0537  -30.5295   23.2187 C   0  0  0  0  0  0  0  0  0  0  0  0
  -22.3642   -9.5719   22.2465 C   0  0  0  0  0  0  0  0  0  0  0  0
  -25.0014  -15.5878   21.2327 C   0  0  0  0  0  0  0  0  0  0  0  0
  -22.7840  -10.6057   21.3878 C   0  0  0  0  0  0  0  0  0  0  0  0
  -24.5148  -16.4654   20.2534 C   0  0  0  0  0  0  0  0  0  0  0  0
  -29.8821  -20.8331   21.1037 C   0  0  0  0  0  0  0  0  0  0  0  0
  -29.5964  -23.1498   21.7268 C   0  0  0  0  0  0  0  0  0  0  0  0
  -21.9024  -30.0533   22.6602 C   0  0  0  0  0  0  0  0  0  0  0  0
  -26.6519  -16.3445   19.1008 C   0  0  0  0  0  0  0  0  0  0  0  0
  -19.8320  -28.9437   22.7265 C   0  0  0  0  0  0  0  0  0  0  0  0
  -18.3950  -26.5525   22.7247 C   0  0  0  0  0  0  0  0  0  0  0  0
  -19.9372  -28.0676   21.6462 C   0  0  0  0  0  0  0  0  0  0  0  0
  -29.1559  -22.7556   22.9902 C   0  0  0  0  0  0  0  0  0  0  0  0
  -26.1206  -29.8117   22.4468 C   0  0  0  0  0  0  0  0  0  0  0  0
  -28.2770  -30.0948   22.7705 C   0  0  0  0  0  0  0  0  0  0  0  0
  -26.8342  -31.5022   24.2489 C   0  0  0  0  0  0  0  0  0  0  0  0
  -22.1238  -14.2377   21.2272 C   0  0  0  0  0  0  0  0  0  0  0  0
  -21.1323  -17.2627   21.8506 C   0  0  0  0  0  0  0  0  0  0  0  0
  -21.7537  -20.6129   21.6579 C   0  0  0  0  0  0  0  0  0  0  0  0
  -30.1056  -25.0463   20.1487 C   0  0  0  0  0  0  0  0  0  0  0  0
  -20.9638   -9.5234   22.8043 C   0  0  0  0  0  0  0  0  0  0  0  0
  -24.1388  -15.1960   22.4009 C   0  0  0  0  0  0  0  0  0  0  0  0
  -23.1157  -17.0201   20.3103 C   0  0  0  0  0  0  0  0  0  0  0  0
  -20.2296  -10.8594   22.7242 C   0  0  0  0  0  0  0  0  0  0  0  0
  -30.4307  -28.3512   18.8646 C   0  0  0  0  0  0  0  0  0  0  0  0
  -20.4011  -11.4806   21.3416 C   0  0  0  0  0  0  0  0  0  0  0  0
  -29.4517  -29.1673   19.7118 C   0  0  0  0  0  0  0  0  0  0  0  0
  -29.8942  -26.9520   18.5680 C   0  0  0  0  0  0  0  0  0  0  0  0
  -28.4949  -27.0012   20.5949 C   0  0  0  0  0  0  0  0  0  0  0  0
  -21.8779  -11.7684   21.0454 C   0  0  1  0  0  0  0  0  0  0  0  0
  -22.6466  -15.3322   22.1140 C   0  0  1  0  0  0  0  0  0  0  0  0
  -29.0200  -28.3955   20.9742 C   0  0  2  0  0  0  0  0  0  0  0  0
  -20.7411  -22.8396   22.2178 C   0  0  0  0  0  0  0  0  0  0  0  0
  -19.2486  -17.0034   19.4642 C   0  0  0  0  0  0  0  0  0  0  0  0
  -18.9865  -19.4932   19.4893 C   0  0  0  0  0  0  0  0  0  0  0  0
  -18.2572  -18.1442   21.4568 C   0  0  0  0  0  0  0  0  0  0  0  0
  -23.9870  -21.3023   23.4734 C   0  0  0  0  0  0  0  0  0  0  0  0
  -30.2728  -19.7988   20.0894 C   0  0  0  0  0  0  0  0  0  0  0  0
  -28.5347  -18.5234   16.9250 C   0  0  0  0  0  0  0  0  0  0  0  0
  -29.6386  -18.6501   17.9641 C   0  0  0  0  0  0  0  0  0  0  0  0
  -27.2201  -17.9975   17.4881 C   0  0  0  0  0  0  0  0  0  1  0  0
  -20.7269  -18.4494   21.0101 C   0  0  1  0  0  0  0  0  0  0  0  0
  -21.6507  -21.7177   22.6938 C   0  0  2  0  0  0  0  0  0  0  0  0
  -19.3306  -18.2607   20.3527 C   0  0  0  0  0  0  0  0  0  0  0  0
  -26.7015  -28.9839   21.5742 N   0  0  0  0  0  0  0  0  0  0  0  0
  -28.0127  -29.1789   21.7951 N   0  0  0  0  0  0  0  0  0  0  0  0
  -22.3088  -16.6025   21.4687 N   0  0  0  0  0  0  0  0  0  0  0  0
  -29.5093  -26.2796   19.8108 N   0  0  0  0  0  0  0  0  0  0  0  0
  -29.5423  -30.4105   23.1195 N   0  0  0  0  0  0  0  0  0  0  0  0
  -25.5144  -31.8327   24.5856 N   0  0  0  0  0  0  0  0  0  0  0  0
  -29.6856  -24.5179   21.3689 N   0  0  0  0  0  0  0  0  0  0  0  0
  -22.3077  -12.9659   21.7352 N   0  0  0  0  0  0  0  0  0  0  0  0
  -20.8254  -19.6175   21.8787 N   0  0  0  0  0  0  0  0  0  0  0  0
  -22.9970  -22.2915   22.9749 N   0  3  0  0  0  0  0  0  0  0  0  0
  -29.2551  -19.6193   19.0173 N   0  3  0  0  0  0  0  0  0  0  0  0
  -27.7804  -32.0738   24.8417 O   0  0  0  0  0  0  0  0  0  0  0  0
  -21.5915  -14.5259   20.1617 O   0  0  0  0  0  0  0  0  0  0  0  0
  -20.4348  -16.9380   22.8147 O   0  0  0  0  0  0  0  0  0  0  0  0
  -22.5731  -20.6328   20.7420 O   0  0  0  0  0  0  0  0  0  0  0  0
  -30.9485  -24.5125   19.4230 O   0  0  0  0  0  0  0  0  0  0  0  0
  -20.5452  -30.1307   22.7293 O   0  0  0  0  0  0  0  0  0  0  0  0
  -27.4496  -16.7108   18.0609 O   0  0  0  0  0  0  0  0  0  1  0  0
  -17.7062  -25.4037   22.7246 F   0  0  0  0  0  0  0  0  0  0  0  0
  -20.7279  -28.3686   20.6070 F   0  0  0  0  0  0  0  0  0  0  0  0
  -28.6961  -23.9123   24.1884 Cl  0  0  0  0  0  0  0  0  0  0  0  0
  1  2  1  0  0  0  0
  1  5  2  0  0  0  0
  2  6  2  0  0  0  0
  3  9  2  0  0  0  0
  3 18  1  0  0  0  0
  4 10  1  0  0  0  0
  4 18  2  0  0  0  0
  5 20  1  0  0  0  0
  6 22  1  0  0  0  0
  7 11  2  0  0  0  0
  7 21  1  0  0  0  0
  8 14  2  0  0  0  0
  8 24  1  0  0  0  0
  9 26  1  0  0  0  0
 10 26  2  0  0  0  0
 11 27  1  0  0  0  0
 12 13  2  0  0  0  0
 12 28  1  0  0  0  0
 13 29  1  0  0  0  0
 14 31  1  0  0  0  0
 15 23  1  0  0  0  0
 15 27  2  0  0  0  0
 16 24  2  0  0  0  0
 16 25  1  0  0  0  0
 17 29  2  0  0  0  0
 17 30  1  0  0  0  0
 18 32  1  0  0  0  0
 19 32  1  0  0  0  0
 19 33  2  0  0  0  0
 19 34  1  0  0  0  0
 20 22  2  0  0  0  0
 20 39  1  0  0  0  0
 21 23  2  0  0  0  0
 21 40  1  0  0  0  0
 22 48  1  0  0  0  0
 23 41  1  0  0  0  0
 24 56  1  0  0  0  0
 25 31  2  0  0  0  0
 25 69  1  0  0  0  0
 26 79  1  0  0  0  0
 27 80  1  0  0  0  0
 28 30  2  0  0  0  0
 28 79  1  0  0  0  0
 29 81  1  0  0  0  0
 30 82  1  0  0  0  0
 31 83  1  0  0  0  0
 32 63  2  0  0  0  0
 33 64  1  0  0  0  0
 33 67  1  0  0  0  0
 34 68  1  0  0  0  0
 34 74  2  0  0  0  0
 35 49  1  0  0  0  0
 35 70  1  0  0  0  0
 35 75  2  0  0  0  0
 36 60  1  0  0  0  0
 36 65  1  0  0  0  0
 36 76  2  0  0  0  0
 37 61  1  0  0  0  0
 37 71  1  0  0  0  0
 37 77  2  0  0  0  0
 38 66  1  0  0  0  0
 38 69  1  0  0  0  0
 38 78  2  0  0  0  0
 39 42  1  0  0  0  0
 40 49  1  0  0  0  0
 41 65  1  0  0  0  0
 42 44  1  0  0  0  0
 43 45  1  0  0  0  0
 43 46  1  0  0  0  0
 44 48  1  0  0  0  0
 45 50  1  0  0  0  0
 46 66  1  0  0  0  0
 47 50  1  0  0  0  0
 47 66  1  0  0  0  0
 48 70  1  0  0  0  0
 49 65  1  0  0  0  0
 50 64  1  0  0  0  0
 51 61  1  0  0  0  0
 52 62  1  0  0  0  0
 53 62  1  0  0  0  0
 54 62  1  0  0  0  0
 55 72  1  0  0  0  0
 56 73  1  0  0  0  0
 57 58  1  0  0  0  0
 57 59  1  0  0  0  0
 58 73  1  0  0  0  0
 59 80  1  0  0  0  0
 60 62  1  0  0  0  0
 60 71  1  0  0  0  0
 61 72  1  0  0  0  0
 63 64  1  0  0  0  0
M  CHG  2  72   1  73   1
M  ISO  4  38 100  59 101  69 100  80 101
M  END
> <Batch ID>
0041

> <Smiles>
CNC(C)C(=O)NC(C(=O)N1Cc2cc([101O:1][101CH2:1]CCNCc3ccc(Cl)c([100NH:0][100C:0](=O)N4CCCC(n5nc(-c6ccc(Oc7ccc(F)cc7F)cc6)c(C(N)=O)c5N)C4)c3)ccc2CC1C(=O)NC1CCCc2ccccc21)C(C)(C)C

> <Shape>
0.257

> <Color>
0.062

> <Negative vol penalty>
0.000

$$$$

  -OEChem-04042322093D

 88 97  0     1  0  0  0  0  0999 V2000
  -17.9489  -15.5648   21.5072 C   0  0  0  0  0  0  0  0  0  0  0  0
  -19.2393  -16.0600   21.6650 C   0  0  0  0  0  0  0  0  0  0  0  0
  -22.9206  -30.6209   23.6740 C   0  0  0  0  0  0  0  0  0  0  0  0
  -23.0482  -31.3608   21.3776 C   0  0  0  0  0  0  0  0  0  0  0  0
  -17.6655  -14.2413   21.8420 C   0  0  0  0  0  0  0  0  0  0  0  0
  -20.2470  -15.2322   22.1588 C   0  0  0  0  0  0  0  0  0  0  0  0
  -24.5595  -15.6452   19.5364 C   0  0  0  0  0  0  0  0  0  0  0  0
  -21.5280  -30.6693   23.6122 C   0  0  0  0  0  0  0  0  0  0  0  0
  -21.6556  -31.4092   21.3158 C   0  0  0  0  0  0  0  0  0  0  0  0
  -25.3576  -16.7588   19.7947 C   0  0  0  0  0  0  0  0  0  0  0  0
  -19.0211  -28.7600   22.3863 C   0  0  0  0  0  0  0  0  0  0  0  0
  -18.3108  -27.6833   22.9171 C   0  0  0  0  0  0  0  0  0  0  0  0
  -26.7759  -15.4081   21.2029 C   0  0  0  0  0  0  0  0  0  0  0  0
  -29.2230  -22.0616   18.8276 C   0  0  0  0  0  0  0  0  0  0  0  0
  -17.2207  -29.1715   24.4772 C   0  0  0  0  0  0  0  0  0  0  0  0
  -23.6808  -30.9667   22.5567 C   0  0  0  0  0  0  0  0  0  0  0  0
  -25.9573  -31.6412   23.4895 C   0  0  0  0  0  0  0  0  0  0  0  0
  -18.6724  -13.3941   22.3310 C   0  0  0  0  0  0  0  0  0  0  0  0
  -24.8578  -14.4051   20.1191 C   0  0  0  0  0  0  0  0  0  0  0  0
  -19.9766  -13.8966   22.5017 C   0  0  0  0  0  0  0  0  0  0  0  0
  -25.9815  -14.2797   20.9484 C   0  0  0  0  0  0  0  0  0  0  0  0
  -30.4908  -21.4864   18.7415 C   0  0  0  0  0  0  0  0  0  0  0  0
  -31.6214  -22.2399   19.0570 C   0  0  0  0  0  0  0  0  0  0  0  0
  -31.4842  -23.5687   19.4587 C   0  0  0  0  0  0  0  0  0  0  0  0
  -30.2164  -24.1439   19.5448 C   0  0  0  0  0  0  0  0  0  0  0  0
  -20.8955  -31.0634   22.4331 C   0  0  0  0  0  0  0  0  0  0  0  0
  -26.4643  -16.6410   20.6303 C   0  0  0  0  0  0  0  0  0  0  0  0
  -18.8312  -30.0425   22.9010 C   0  0  0  0  0  0  0  0  0  0  0  0
  -17.4106  -27.8890   23.9625 C   0  0  0  0  0  0  0  0  0  0  0  0
  -17.9310  -30.2482   23.9464 C   0  0  0  0  0  0  0  0  0  0  0  0
  -29.0858  -23.3904   19.2292 C   0  0  0  0  0  0  0  0  0  0  0  0
  -25.1194  -30.9174   22.6201 C   0  0  0  0  0  0  0  0  0  0  0  0
  -27.2278  -31.2426   23.1528 C   0  0  0  0  0  0  0  0  0  0  0  0
  -28.9046  -18.6854   19.4428 C   0  0  0  0  0  0  0  0  0  0  0  0
  -25.6175  -32.5889   24.5103 C   0  0  0  0  0  0  0  0  0  0  0  0
  -23.3557  -12.4499   22.1252 C   0  0  0  0  0  0  0  0  0  0  0  0
  -25.8620  -10.4941   21.4805 C   0  0  0  0  0  0  0  0  0  0  0  0
  -29.4314  -10.8333   21.0783 C   0  0  0  0  0  0  0  0  0  0  0  0
  -29.0227  -26.0837   20.6387 C   0  0  0  0  0  0  0  0  0  0  0  0
  -18.3077  -11.9845   22.7239 C   0  0  0  0  0  0  0  0  0  0  0  0
  -24.0024  -13.2073   19.8092 C   0  0  0  0  0  0  0  0  0  0  0  0
  -26.3566  -12.9660   21.5824 C   0  0  0  0  0  0  0  0  0  0  0  0
  -19.5158  -11.0657   22.8874 C   0  0  0  0  0  0  0  0  0  0  0  0
  -30.9217  -17.7774   21.3649 C   0  0  0  0  0  0  0  0  0  0  0  0
  -29.0588  -29.5550   19.0038 C   0  0  0  0  0  0  0  0  0  0  0  0
  -20.6015  -11.7527   23.7096 C   0  0  0  0  0  0  0  0  0  0  0  0
  -29.4595  -17.7930   21.7589 C   0  0  0  0  0  0  0  0  0  0  0  0
  -28.7326  -30.4132   20.2238 C   0  0  0  0  0  0  0  0  0  0  0  0
  -31.2112  -18.9391   20.4313 C   0  0  0  0  0  0  0  0  0  0  0  0
  -29.6644  -28.2110   19.3884 C   0  0  0  0  0  0  0  0  0  0  0  0
  -27.7375  -28.1852   20.9829 C   0  0  0  0  0  0  0  0  0  0  0  0
  -21.1022  -13.0226   23.0110 C   0  0  1  0  0  0  0  0  0  0  0  0
  -28.6103  -17.6412   20.5123 C   0  0  1  0  0  0  0  0  0  1  0  0
  -24.1028  -12.1118   20.8661 C   0  0  1  0  0  0  0  0  0  0  0  0
  -28.1792  -29.5946   21.4070 C   0  0  2  0  0  0  0  0  0  0  0  0
  -32.9799  -21.6202   18.9629 C   0  0  0  0  0  0  0  0  0  0  0  0
  -32.7020  -24.3718   19.7961 C   0  0  0  0  0  0  0  0  0  0  0  0
  -31.0637   -9.4526   19.7643 C   0  0  0  0  0  0  0  0  0  0  0  0
  -26.2735   -9.0025   24.1104 C   0  0  0  0  0  0  0  0  0  0  0  0
  -28.7108   -8.8456   23.5594 C   0  0  0  0  0  0  0  0  0  0  0  0
  -27.0260   -7.7575   22.0761 C   0  0  0  0  0  0  0  0  0  0  0  0
  -30.4124  -13.1972   19.5921 C   0  0  0  0  0  0  0  0  0  0  0  0
  -30.6102  -20.0542   18.3073 C   0  0  0  0  0  0  0  0  0  0  0  0
  -27.2307  -10.2775   22.0795 C   0  0  1  0  0  0  0  0  0  0  0  0
  -30.2154  -10.7146   19.7838 C   0  0  2  0  0  0  0  0  0  0  0  0
  -27.2973   -8.9961   22.9576 C   0  0  0  0  0  0  0  0  0  0  0  0
  -25.8003  -30.1196   21.7931 N   0  0  0  0  0  0  0  0  0  0  0  0
  -27.0795  -30.3398   22.1413 N   0  0  0  0  0  0  0  0  0  0  0  0
  -30.2259  -19.1298   19.3656 N   0  0  0  0  0  0  0  0  0  0  0  0
  -25.4855  -11.8255   21.2539 N   0  0  0  0  0  0  0  0  0  0  0  0
  -28.8363  -27.4556   20.3396 N   0  0  0  0  0  0  0  0  0  0  0  0
  -28.4462  -31.5798   23.6262 N   0  0  0  0  0  0  0  0  0  0  0  0
  -25.5268  -33.9432   24.1611 N   0  0  0  0  0  0  0  0  0  0  0  0
  -30.0890  -25.4950   19.9538 N   0  0  0  0  0  0  0  0  0  0  0  0
  -22.0072  -12.6834   21.9338 N   0  0  0  0  0  0  0  0  0  0  0  0
  -28.1706  -10.2868   20.9638 N   0  0  0  0  0  0  0  0  0  0  0  0
  -31.1167  -11.8893   19.6145 N   0  3  0  0  0  0  0  0  0  0  0  0
  -28.0125  -19.0396   18.6677 O   0  0  0  0  0  0  0  0  0  0  0  0
  -25.4168  -32.2470   25.7004 O   0  0  0  0  0  0  0  0  0  0  0  0
  -23.9578  -12.4940   23.1916 O   0  0  0  0  0  0  0  0  0  0  0  0
  -25.1559   -9.5177   21.2167 O   0  0  0  0  0  0  0  0  0  0  0  0
  -29.8927  -11.3551   22.0910 O   0  0  0  0  0  0  0  0  0  0  0  0
  -28.3014  -25.4926   21.4451 O   0  0  0  0  0  0  0  0  0  0  0  0
  -19.5365  -31.1106   22.3724 O   0  0  0  0  0  0  0  0  0  0  0  0
  -27.2446  -17.7265   20.8846 O   0  0  0  0  0  0  0  0  0  1  0  0
  -16.7275  -26.8552   24.4711 F   0  0  0  0  0  0  0  0  0  0  0  0
  -17.7435  -31.4782   24.4442 F   0  0  0  0  0  0  0  0  0  0  0  0
  -27.4952  -24.0604   19.3213 Cl  0  0  0  0  0  0  0  0  0  0  0  0
  1  2  1  0  0  0  0
  1  5  2  0  0  0  0
  2  6  2  0  0  0  0
  3  8  2  0  0  0  0
  3 16  1  0  0  0  0
  4  9  1  0  0  0  0
  4 16  2  0  0  0  0
  5 18  1  0  0  0  0
  6 20  1  0  0  0  0
  7 10  2  0  0  0  0
  7 19  1  0  0  0  0
  8 26  1  0  0  0  0
  9 26  2  0  0  0  0
 10 27  1  0  0  0  0
 11 12  2  0  0  0  0
 11 28  1  0  0  0  0
 12 29  1  0  0  0  0
 13 21  1  0  0  0  0
 13 27  2  0  0  0  0
 14 22  1  0  0  0  0
 14 31  2  0  0  0  0
 15 29  2  0  0  0  0
 15 30  1  0  0  0  0
 16 32  1  0  0  0  0
 17 32  1  0  0  0  0
 17 33  2  0  0  0  0
 17 35  1  0  0  0  0
 18 20  2  0  0  0  0
 18 40  1  0  0  0  0
 19 21  2  0  0  0  0
 19 41  1  0  0  0  0
 20 52  1  0  0  0  0
 21 42  1  0  0  0  0
 22 23  2  0  0  0  0
 22 63  1  0  0  0  0
 23 24  1  0  0  0  0
 23 56  1  0  0  0  0
 24 25  2  0  0  0  0
 24 57  1  0  0  0  0
 25 31  1  0  0  0  0
 25 74  1  0  0  0  0
 26 84  1  0  0  0  0
 27 85  1  0  0  0  0
 28 30  2  0  0  0  0
 28 84  1  0  0  0  0
 29 86  1  0  0  0  0
 30 87  1  0  0  0  0
 31 88  1  0  0  0  0
 32 67  2  0  0  0  0
 33 68  1  0  0  0  0
 33 72  1  0  0  0  0
 34 53  1  0  0  0  0
 34 69  1  0  0  0  0
 34 78  2  0  0  0  0
 35 73  1  0  0  0  0
 35 79  2  0  0  0  0
 36 54  1  0  0  0  0
 36 75  1  0  0  0  0
 36 80  2  0  0  0  0
 37 64  1  0  0  0  0
 37 70  1  0  0  0  0
 37 81  2  0  0  0  0
 38 65  1  0  0  0  0
 38 76  1  0  0  0  0
 38 82  2  0  0  0  0
 39 71  1  0  0  0  0
 39 74  1  0  0  0  0
 39 83  2  0  0  0  0
 40 43  1  0  0  0  0
 41 54  1  0  0  0  0
 42 70  1  0  0  0  0
 43 46  1  0  0  0  0
 44 47  1  0  0  0  0
 44 49  1  0  0  0  0
 45 48  1  0  0  0  0
 45 50  1  0  0  0  0
 46 52  1  0  0  0  0
 47 53  1  0  0  0  0
 48 55  1  0  0  0  0
 49 69  1  0  0  0  0
 50 71  1  0  0  0  0
 51 55  1  0  0  0  0
 51 71  1  0  0  0  0
 52 75  1  0  0  0  0
 53 85  1  0  0  0  0
 54 70  1  0  0  0  0
 55 68  1  0  0  0  0
 58 65  1  0  0  0  0
 59 66  1  0  0  0  0
 60 66  1  0  0  0  0
 61 66  1  0  0  0  0
 62 77  1  0  0  0  0
 63 69  1  0  0  0  0
 64 66  1  0  0  0  0
 64 76  1  0  0  0  0
 65 77  1  0  0  0  0
 67 68  1  0  0  0  0
M  CHG  1  77   1
M  ISO  4  39 100  53 101  74 100  85 101
M  END
> <Batch ID>
0041

> <Smiles>
CNC(C)C(=O)NC(C(=O)N1Cc2cc([101O:1][101CH:1]3CCCN(Cc4cc(Cl)c([100NH:0][100C:0](=O)N5CCCC(n6nc(-c7ccc(Oc8ccc(F)cc8F)cc7)c(C(N)=O)c6N)C5)c(C)c4C)C3=O)ccc2CC1C(=O)NC1CCCc2ccccc21)C(C)(C)C

> <Shape>
0.302

> <Color>
0.068

> <Negative vol penalty>
0.000

$$$$

  -OEChem-04042322093D

 84 92  0     1  0  0  0  0  0999 V2000
  -29.4445  -23.4213   25.1577 C   0  0  0  0  0  0  0  0  0  0  0  0
  -28.1657  -23.2913   24.6255 C   0  0  0  0  0  0  0  0  0  0  0  0
  -31.8162  -26.4580   19.3604 C   0  0  0  0  0  0  0  0  0  0  0  0
  -30.7343  -24.7481   20.6807 C   0  0  0  0  0  0  0  0  0  0  0  0
  -30.4798  -22.6152   24.6862 C   0  0  0  0  0  0  0  0  0  0  0  0
  -27.9218  -22.3558   23.6206 C   0  0  0  0  0  0  0  0  0  0  0  0
  -23.6723  -19.7177   24.4126 C   0  0  0  0  0  0  0  0  0  0  0  0
  -18.6394  -27.0296   23.6061 C   0  0  0  0  0  0  0  0  0  0  0  0
  -19.0520  -28.3365   23.8659 C   0  0  0  0  0  0  0  0  0  0  0  0
  -33.0551  -26.0652   19.8669 C   0  0  0  0  0  0  0  0  0  0  0  0
  -31.9732  -24.3553   21.1872 C   0  0  0  0  0  0  0  0  0  0  0  0
  -22.4660  -20.3474   24.1092 C   0  0  0  0  0  0  0  0  0  0  0  0
  -34.8884  -22.6660   22.5531 C   0  0  0  0  0  0  0  0  0  0  0  0
  -35.1637  -21.2998   22.6083 C   0  0  0  0  0  0  0  0  0  0  0  0
  -22.3771  -19.1545   22.0144 C   0  0  0  0  0  0  0  0  0  0  0  0
  -19.5886  -27.1706   21.3889 C   0  0  0  0  0  0  0  0  0  0  0  0
  -34.8917  -21.1483   20.2124 C   0  0  0  0  0  0  0  0  0  0  0  0
  -30.6558  -25.7995   19.7674 C   0  0  0  0  0  0  0  0  0  0  0  0
  -28.7358  -25.7176   18.0897 C   0  0  0  0  0  0  0  0  0  0  0  0
  -30.2463  -21.6626   23.6819 C   0  0  0  0  0  0  0  0  0  0  0  0
  -24.2465  -18.8083   23.5128 C   0  0  0  0  0  0  0  0  0  0  0  0
  -28.9552  -21.5371   23.1343 C   0  0  0  0  0  0  0  0  0  0  0  0
  -23.5894  -18.5127   22.3099 C   0  0  0  0  0  0  0  0  0  0  0  0
  -18.9077  -26.4467   22.3676 C   0  0  0  0  0  0  0  0  0  0  0  0
  -19.7328  -29.0604   22.8871 C   0  0  0  0  0  0  0  0  0  0  0  0
  -20.0011  -28.4775   21.6486 C   0  0  0  0  0  0  0  0  0  0  0  0
  -33.1336  -25.0139   20.7803 C   0  0  0  0  0  0  0  0  0  0  0  0
  -21.8196  -20.0681   22.9087 C   0  0  0  0  0  0  0  0  0  0  0  0
  -34.6147  -23.2735   21.3277 C   0  0  0  0  0  0  0  0  0  0  0  0
  -35.1654  -20.5409   21.4379 C   0  0  0  0  0  0  0  0  0  0  0  0
  -34.6163  -22.5146   20.1573 C   0  0  0  0  0  0  0  0  0  0  0  0
  -29.3757  -26.2051   19.2450 C   0  0  0  0  0  0  0  0  0  0  0  0
  -27.5554  -26.4172   18.0299 C   0  0  0  0  0  0  0  0  0  0  0  0
  -29.1697  -24.7214   17.1542 C   0  0  0  0  0  0  0  0  0  0  0  0
  -26.9666  -18.6900   21.8725 C   0  0  0  0  0  0  0  0  0  0  0  0
  -25.9056  -15.7291   21.0790 C   0  0  0  0  0  0  0  0  0  0  0  0
  -19.5272  -22.7976   22.2432 C   0  0  0  0  0  0  0  0  0  0  0  0
  -23.2620  -13.6052   20.6951 C   0  0  0  0  0  0  0  0  0  0  0  0
  -23.0413  -28.3457   20.4487 C   0  0  0  0  0  0  0  0  0  0  0  0
  -31.4073  -20.8467   23.1711 C   0  0  0  0  0  0  0  0  0  0  0  0
  -25.5347  -18.1173   23.8668 C   0  0  0  0  0  0  0  0  0  0  0  0
  -24.1538  -17.5288   21.3190 C   0  0  0  0  0  0  0  0  0  0  0  0
  -30.9830  -19.6202   22.3673 C   0  0  0  0  0  0  0  0  0  0  0  0
  -25.9793  -30.4497   20.6464 C   0  0  0  0  0  0  0  0  0  0  0  0
  -29.9027  -19.9920   21.3566 C   0  0  0  0  0  0  0  0  0  0  0  0
  -27.0769  -29.4821   20.2000 C   0  0  0  0  0  0  0  0  0  0  0  0
  -24.9275  -29.7397   21.4936 C   0  0  0  0  0  0  0  0  0  0  0  0
  -25.4000  -27.5870   20.3908 C   0  0  0  0  0  0  0  0  0  0  0  0
  -28.6455  -20.5166   22.0606 C   0  0  1  0  0  0  0  0  0  0  0  0
  -26.2879  -17.5958   22.6470 C   0  0  1  0  0  0  0  0  0  0  0  0
  -26.4823  -28.2393   19.5115 C   0  0  2  0  0  0  0  0  0  0  0  0
  -20.1636  -30.4585   23.1879 C   0  0  0  0  0  0  0  0  0  0  0  0
  -22.7044  -11.2600   19.9976 C   0  0  0  0  0  0  0  0  0  0  0  0
  -26.3027  -16.5068   18.1554 C   0  0  0  0  0  0  0  0  0  0  0  0
  -24.8726  -14.5544   17.5142 C   0  0  0  0  0  0  0  0  0  0  0  0
  -27.0224  -14.1800   18.7228 C   0  0  0  0  0  0  0  0  0  0  0  0
  -22.1275  -12.9611   23.3516 C   0  0  0  0  0  0  0  0  0  0  0  0
  -18.4631  -25.0401   22.0881 C   0  0  0  0  0  0  0  0  0  0  0  0
  -20.7283  -29.2335   20.5854 C   0  0  0  0  0  0  0  0  0  0  0  0
  -20.4383  -21.9898   23.1427 C   0  0  0  0  0  0  0  0  0  1  0  0
  -25.0538  -15.1603   19.9700 C   0  0  1  0  0  0  0  0  0  0  0  0
  -23.0404  -12.1780   21.1625 C   0  0  2  0  0  0  0  0  0  0  0  0
  -25.8030  -15.1204   18.6082 C   0  0  0  0  0  0  0  0  0  0  0  0
  -28.6610  -27.1421   19.8737 N   0  0  0  0  0  0  0  0  0  0  0  0
  -27.5599  -27.2490   19.1107 N   0  0  0  0  0  0  0  0  0  0  0  0
  -25.4188  -16.8838   21.7078 N   0  0  0  0  0  0  0  0  0  0  0  0
  -24.3882  -28.5775   20.7735 N   0  0  0  0  0  0  0  0  0  0  0  0
  -26.5244  -26.3958   17.1587 N   0  0  0  0  0  0  0  0  0  0  0  0
  -30.4088  -24.1013   17.3652 N   0  0  0  0  0  0  0  0  0  0  0  0
  -27.8791  -19.4192   22.6107 N   0  0  0  0  0  0  0  0  0  0  0  0
  -19.2995  -24.0668   22.7515 N   0  0  0  0  0  0  0  0  0  0  0  0
  -24.5928  -13.8572   20.4368 N   0  0  0  0  0  0  0  0  0  0  0  0
  -22.1461  -29.3286   20.8529 N   0  0  0  0  0  0  0  0  0  0  0  0
  -21.9197  -12.1222   22.1432 N   0  3  0  0  0  0  0  0  0  0  0  0
  -28.4865  -24.4026   16.1517 O   0  0  0  0  0  0  0  0  0  0  0  0
  -26.6844  -18.8592   20.6920 O   0  0  0  0  0  0  0  0  0  0  0  0
  -26.9605  -15.1654   21.3810 O   0  0  0  0  0  0  0  0  0  0  0  0
  -19.0616  -22.3530   21.1975 O   0  0  0  0  0  0  0  0  0  0  0  0
  -22.3457  -14.4144   20.5681 O   0  0  0  0  0  0  0  0  0  0  0  0
  -22.6646  -27.3394   19.8384 O   0  0  0  0  0  0  0  0  0  0  0  0
  -34.3423  -24.6302   21.2745 O   0  0  0  0  0  0  0  0  0  0  0  0
  -20.6425  -20.6819   22.6098 O   0  0  0  0  0  0  0  0  0  1  0  0
  -35.4313  -19.2291   21.4908 F   0  0  0  0  0  0  0  0  0  0  0  0
  -34.3553  -23.0928   18.9769 F   0  0  0  0  0  0  0  0  0  0  0  0
  1  2  1  0  0  0  0
  1  5  2  0  0  0  0
  2  6  2  0  0  0  0
  3 10  2  0  0  0  0
  3 18  1  0  0  0  0
  4 11  1  0  0  0  0
  4 18  2  0  0  0  0
  5 20  1  0  0  0  0
  6 22  1  0  0  0  0
  7 12  2  0  0  0  0
  7 21  1  0  0  0  0
  8  9  2  0  0  0  0
  8 24  1  0  0  0  0
  9 25  1  0  0  0  0
 10 27  1  0  0  0  0
 11 27  2  0  0  0  0
 12 28  1  0  0  0  0
 13 14  2  0  0  0  0
 13 29  1  0  0  0  0
 14 30  1  0  0  0  0
 15 23  1  0  0  0  0
 15 28  2  0  0  0  0
 16 24  2  0  0  0  0
 16 26  1  0  0  0  0
 17 30  2  0  0  0  0
 17 31  1  0  0  0  0
 18 32  1  0  0  0  0
 19 32  1  0  0  0  0
 19 33  2  0  0  0  0
 19 34  1  0  0  0  0
 20 22  2  0  0  0  0
 20 40  1  0  0  0  0
 21 23  2  0  0  0  0
 21 41  1  0  0  0  0
 22 49  1  0  0  0  0
 23 42  1  0  0  0  0
 24 58  1  0  0  0  0
 25 26  2  0  0  0  0
 25 52  1  0  0  0  0
 26 59  1  0  0  0  0
 27 81  1  0  0  0  0
 28 82  1  0  0  0  0
 29 31  2  0  0  0  0
 29 81  1  0  0  0  0
 30 83  1  0  0  0  0
 31 84  1  0  0  0  0
 32 64  2  0  0  0  0
 33 65  1  0  0  0  0
 33 68  1  0  0  0  0
 34 69  1  0  0  0  0
 34 75  2  0  0  0  0
 35 50  1  0  0  0  0
 35 70  1  0  0  0  0
 35 76  2  0  0  0  0
 36 61  1  0  0  0  0
 36 66  1  0  0  0  0
 36 77  2  0  0  0  0
 37 60  1  0  0  0  0
 37 71  1  0  0  0  0
 37 78  2  0  0  0  0
 38 62  1  0  0  0  0
 38 72  1  0  0  0  0
 38 79  2  0  0  0  0
 39 67  1  0  0  0  0
 39 73  1  0  0  0  0
 39 80  2  0  0  0  0
 40 43  1  0  0  0  0
 41 50  1  0  0  0  0
 42 66  1  0  0  0  0
 43 45  1  0  0  0  0
 44 46  1  0  0  0  0
 44 47  1  0  0  0  0
 45 49  1  0  0  0  0
 46 51  1  0  0  0  0
 47 67  1  0  0  0  0
 48 51  1  0  0  0  0
 48 67  1  0  0  0  0
 49 70  1  0  0  0  0
 50 66  1  0  0  0  0
 51 65  1  0  0  0  0
 53 62  1  0  0  0  0
 54 63  1  0  0  0  0
 55 63  1  0  0  0  0
 56 63  1  0  0  0  0
 57 74  1  0  0  0  0
 58 71  1  0  0  0  0
 59 73  1  0  0  0  0
 60 82  1  0  0  0  0
 61 63  1  0  0  0  0
 61 72  1  0  0  0  0
 62 74  1  0  0  0  0
 64 65  1  0  0  0  0
M  CHG  1  74   1
M  ISO  4  39 100  60 101  73 100  82 101
M  END
> <Batch ID>
0041

> <Smiles>
CNC(C)C(=O)NC(C(=O)N1Cc2cc([101O:1][101CH2:1]C(=O)NCc3ccc(C)c(C[100NH:0][100C:0](=O)N4CCCC(n5nc(-c6ccc(Oc7ccc(F)cc7F)cc6)c(C(N)=O)c5N)C4)c3)ccc2CC1C(=O)NC1CCCc2ccccc21)C(C)(C)C

> <Shape>
0.189

> <Color>
0.078

> <Negative vol penalty>
0.000

$$$$

  -OEChem-04042322093D

 93102  0     1  0  0  0  0  0999 V2000
  -24.4486  -16.9516   23.8121 C   0  0  0  0  0  0  0  0  0  0  0  0
  -24.3868  -16.1221   24.6779 C   0  0  0  0  0  0  0  0  0  0  0  0
  -13.4175  -17.0436   26.9633 C   0  0  0  0  0  0  0  0  0  0  0  0
  -14.6218  -16.3528   27.0518 C   0  0  0  0  0  0  0  0  0  0  0  0
  -22.6671  -10.1983   20.1655 C   0  0  0  0  0  0  0  0  0  0  0  0
  -24.3249   -9.4106   21.7366 C   0  0  0  0  0  0  0  0  0  0  0  0
  -13.4183  -18.4350   26.8742 C   0  0  0  0  0  0  0  0  0  0  0  0
  -15.8277  -17.0529   27.0503 C   0  0  0  0  0  0  0  0  0  0  0  0
  -20.9307  -15.6024   30.1099 C   0  0  0  0  0  0  0  0  0  0  0  0
  -21.9331   -9.0271   20.3528 C   0  0  0  0  0  0  0  0  0  0  0  0
  -23.5908   -8.2394   21.9240 C   0  0  0  0  0  0  0  0  0  0  0  0
  -22.1023  -14.9520   29.7250 C   0  0  0  0  0  0  0  0  0  0  0  0
  -20.8491   -7.2685   23.6447 C   0  0  0  0  0  0  0  0  0  0  0  0
  -20.6688   -6.8208   24.9534 C   0  0  0  0  0  0  0  0  0  0  0  0
  -23.1558  -17.0883   29.3432 C   0  0  0  0  0  0  0  0  0  0  0  0
  -21.7901   -4.7533   24.4006 C   0  0  0  0  0  0  0  0  0  0  0  0
  -23.8631  -10.3900   20.8574 C   0  0  0  0  0  0  0  0  0  0  0  0
  -24.1971  -12.9185   20.9112 C   0  0  0  0  0  0  0  0  0  0  0  0
  -14.6245  -19.1532   26.8814 C   0  0  0  0  0  0  0  0  0  0  0  0
  -20.8593  -17.0029   30.1039 C   0  0  0  0  0  0  0  0  0  0  0  0
  -15.8447  -18.4552   26.9599 C   0  0  0  0  0  0  0  0  0  0  0  0
  -21.9830  -17.7541   29.7309 C   0  0  0  0  0  0  0  0  0  0  0  0
  -22.3949   -8.0476   21.2320 C   0  0  0  0  0  0  0  0  0  0  0  0
  -23.2141  -15.6948   29.3388 C   0  0  0  0  0  0  0  0  0  0  0  0
  -21.4998   -6.4586   22.7139 C   0  0  0  0  0  0  0  0  0  0  0  0
  -21.1393   -5.5632   25.3313 C   0  0  0  0  0  0  0  0  0  0  0  0
  -21.9703   -5.2010   23.0919 C   0  0  0  0  0  0  0  0  0  0  0  0
  -24.6221  -11.5994   20.6639 C   0  0  0  0  0  0  0  0  0  0  0  0
  -25.2765  -13.6965   20.5706 C   0  0  0  0  0  0  0  0  0  0  0  0
  -29.0840  -17.6148   23.5761 C   0  0  0  0  0  0  0  0  0  0  0  0
  -28.2482  -17.4949   24.6146 C   0  0  0  0  0  0  0  0  0  0  0  0
  -31.2674  -16.9168   24.4910 C   0  0  0  0  0  0  0  0  0  0  0  0
  -30.4200  -17.0700   23.4625 C   0  0  0  0  0  0  0  0  0  0  0  0
  -28.4711  -16.7719   25.8581 C   0  0  0  0  0  0  0  0  0  0  0  0
  -29.6693  -16.6695   26.4665 C   0  0  0  0  0  0  0  0  0  0  0  0
  -30.9535  -17.1998   25.9173 C   0  0  0  0  0  0  0  0  0  0  0  0
  -25.4015  -14.5934   26.2396 C   0  0  0  0  0  0  0  0  0  0  0  0
  -24.2999  -15.1458   25.6980 C   0  0  0  0  0  0  0  0  0  0  0  0
  -22.9391  -13.3976   21.4047 C   0  0  0  0  0  0  0  0  0  0  0  0
  -19.1042  -19.1528   28.5542 C   0  0  0  0  0  0  0  0  0  0  0  0
  -20.6157  -21.2359   30.5287 C   0  0  0  0  0  0  0  0  0  0  0  0
  -23.9593  -21.7046   31.8008 C   0  0  0  0  0  0  0  0  0  0  0  0
  -30.7618  -14.7199   20.6668 C   0  0  0  0  0  0  0  0  0  0  0  0
  -14.5768  -20.6536   26.7355 C   0  0  0  0  0  0  0  0  0  0  0  0
  -19.5968  -17.6898   30.5474 C   0  0  0  0  0  0  0  0  0  0  0  0
  -21.9643  -19.2601   29.7267 C   0  0  0  0  0  0  0  0  0  0  0  0
  -15.8832  -21.3445   27.1178 C   0  0  0  0  0  0  0  0  0  0  0  0
  -26.5819  -11.6876   26.0718 C   0  0  0  0  0  0  0  0  0  0  0  0
  -29.5559  -12.5110   18.1483 C   0  0  0  0  0  0  0  0  0  0  0  0
  -27.1350  -12.6283   25.0001 C   0  0  0  0  0  0  0  0  0  0  0  0
  -17.0716  -20.6267   26.4859 C   0  0  0  0  0  0  0  0  0  0  0  0
  -25.3017  -12.1502   26.7699 C   0  0  0  0  0  0  0  0  0  0  0  0
  -28.1328  -12.1811   18.6019 C   0  0  0  0  0  0  0  0  0  0  0  0
  -30.5088  -12.6474   19.3338 C   0  0  0  0  0  0  0  0  0  0  0  0
  -28.6490  -13.2685   20.8268 C   0  0  0  0  0  0  0  0  0  0  0  0
  -27.6959  -13.9266   25.5756 C   0  0  0  0  0  0  0  0  0  0  0  0
  -17.1725  -19.1807   26.9863 C   0  0  1  0  0  0  0  0  0  0  0  0
  -25.3718  -13.5685   27.3608 C   0  0  2  0  0  0  0  0  0  0  0  0
  -19.4704  -19.1123   30.0109 C   0  0  1  0  0  0  0  0  0  0  0  0
  -27.6397  -13.1763   19.6695 C   0  0  2  0  0  0  0  0  0  0  0  0
  -24.7621  -22.7782   33.9222 C   0  0  0  0  0  0  0  0  0  0  0  0
  -20.8879  -23.7451   28.8142 C   0  0  0  0  0  0  0  0  0  0  0  0
  -22.9888  -24.2866   30.0637 C   0  0  0  0  0  0  0  0  0  0  0  0
  -20.8129  -24.1681   31.2779 C   0  0  0  0  0  0  0  0  0  0  0  0
  -25.4627  -19.2821   32.5947 C   0  0  0  0  0  0  0  0  0  0  0  0
  -30.8619  -16.7751   22.0544 C   0  0  0  0  0  0  0  0  0  0  0  0
  -27.1810  -16.2215   26.4233 C   0  0  0  0  0  0  0  0  0  0  0  0
  -24.2217  -13.7775   28.3568 C   0  0  0  0  0  0  0  0  0  1  0  0
  -21.8958  -22.0335   30.4636 C   0  0  1  0  0  0  0  0  0  0  0  0
  -24.4315  -21.4682   33.2241 C   0  0  2  0  0  0  0  0  0  0  0  0
  -21.6436  -23.5335   30.1412 C   0  0  0  0  0  0  0  0  0  0  0  0
  -25.8738  -11.5390   20.2017 N   0  0  0  0  0  0  0  0  0  0  0  0
  -31.8120  -17.8026   26.6811 N   0  0  0  0  0  0  0  0  0  0  0  0
  -26.2446  -12.8299   20.1558 N   0  0  0  0  0  0  0  0  0  0  0  0
  -20.7047  -19.8853   30.1626 N   0  0  0  0  0  0  0  0  0  0  0  0
  -29.9838  -13.6067   20.3085 N   0  0  0  0  0  0  0  0  0  0  0  0
  -25.4825  -15.0305   20.5883 N   0  0  0  0  0  0  0  0  0  0  0  0
  -22.7753  -13.5406   22.7893 N   0  0  0  0  0  0  0  0  0  0  0  0
  -17.7432  -19.1447   28.3157 N   0  0  0  0  0  0  0  0  0  0  0  0
  -22.5858  -21.8019   31.7280 N   0  0  0  0  0  0  0  0  0  0  0  0
  -30.1871  -15.5828   21.5919 N   0  0  0  0  0  0  0  0  0  0  0  0
  -26.6613  -15.0226   25.6710 N   0  3  2  0  0  0  0  0  0  0  0  0
  -25.6511  -20.6118   33.2297 N   0  3  0  0  0  0  0  0  0  0  0  0
  -21.9830  -13.6748   20.6415 O   0  0  0  0  0  0  0  0  0  0  0  0
  -19.9909  -19.1902   27.7092 O   0  0  0  0  0  0  0  0  0  0  0  0
  -19.5767  -21.7888   30.8977 O   0  0  0  0  0  0  0  0  0  0  0  0
  -24.7318  -21.7976   30.8495 O   0  0  0  0  0  0  0  0  0  0  0  0
  -31.8832  -14.9322   20.1931 O   0  0  0  0  0  0  0  0  0  0  0  0
  -21.6788   -6.9048   21.4152 O   0  0  0  0  0  0  0  0  0  0  0  0
  -24.3587  -15.0625   28.9620 O   0  0  0  0  0  0  0  0  0  1  0  0
  -20.9674   -5.1341   26.5885 F   0  0  0  0  0  0  0  0  0  0  0  0
  -22.5973   -4.4190   22.2024 F   0  0  0  0  0  0  0  0  0  0  0  0
  -29.8590  -15.9024   28.0168 Cl  0  0  0  0  0  0  0  0  0  0  0  0
  1  2  3  0  0  0  0
  2 38  1  0  0  0  0
  3  4  1  0  0  0  0
  3  7  2  0  0  0  0
  4  8  2  0  0  0  0
  5 10  2  0  0  0  0
  5 17  1  0  0  0  0
  6 11  1  0  0  0  0
  6 17  2  0  0  0  0
  7 19  1  0  0  0  0
  8 21  1  0  0  0  0
  9 12  2  0  0  0  0
  9 20  1  0  0  0  0
 10 23  1  0  0  0  0
 11 23  2  0  0  0  0
 12 24  1  0  0  0  0
 13 14  2  0  0  0  0
 13 25  1  0  0  0  0
 14 26  1  0  0  0  0
 15 22  1  0  0  0  0
 15 24  2  0  0  0  0
 16 26  2  0  0  0  0
 16 27  1  0  0  0  0
 17 28  1  0  0  0  0
 18 28  1  0  0  0  0
 18 29  2  0  0  0  0
 18 39  1  0  0  0  0
 19 21  2  0  0  0  0
 19 44  1  0  0  0  0
 20 22  2  0  0  0  0
 20 45  1  0  0  0  0
 21 57  1  0  0  0  0
 22 46  1  0  0  0  0
 23 89  1  0  0  0  0
 24 90  1  0  0  0  0
 25 27  2  0  0  0  0
 25 89  1  0  0  0  0
 26 91  1  0  0  0  0
 27 92  1  0  0  0  0
 28 72  2  0  0  0  0
 29 74  1  0  0  0  0
 29 77  1  0  0  0  0
 30 31  2  0  0  0  0
 30 33  1  0  0  0  0
 31 34  1  0  0  0  0
 32 33  2  0  0  0  0
 32 36  1  0  0  0  0
 33 66  1  0  0  0  0
 34 35  2  0  0  0  0
 34 67  1  0  0  0  0
 35 36  1  0  0  0  0
 35 93  1  0  0  0  0
 36 73  2  0  0  0  0
 37 38  2  0  0  0  0
 37 58  1  0  0  0  0
 37 82  1  0  0  0  0
 39 78  1  0  0  0  0
 39 84  2  0  0  0  0
 40 59  1  0  0  0  0
 40 79  1  0  0  0  0
 40 85  2  0  0  0  0
 41 69  1  0  0  0  0
 41 75  1  0  0  0  0
 41 86  2  0  0  0  0
 42 70  1  0  0  0  0
 42 80  1  0  0  0  0
 42 87  2  0  0  0  0
 43 76  1  0  0  0  0
 43 81  1  0  0  0  0
 43 88  2  0  0  0  0
 44 47  1  0  0  0  0
 45 59  1  0  0  0  0
 46 75  1  0  0  0  0
 47 51  1  0  0  0  0
 48 50  1  0  0  0  0
 48 52  1  0  0  0  0
 49 53  1  0  0  0  0
 49 54  1  0  0  0  0
 50 56  1  0  0  0  0
 51 57  1  0  0  0  0
 52 58  1  0  0  0  0
 53 60  1  0  0  0  0
 54 76  1  0  0  0  0
 55 60  1  0  0  0  0
 55 76  1  0  0  0  0
 56 82  1  0  0  0  0
 57 79  1  0  0  0  0
 58 68  1  0  0  0  0
 59 75  1  0  0  0  0
 60 74  1  0  0  0  0
 61 70  1  0  0  0  0
 62 71  1  0  0  0  0
 63 71  1  0  0  0  0
 64 71  1  0  0  0  0
 65 83  1  0  0  0  0
 66 81  1  0  0  0  0
 67 82  1  0  0  0  0
 68 90  1  0  0  0  0
 69 71  1  0  0  0  0
 69 80  1  0  0  0  0
 70 83  1  0  0  0  0
 72 74  1  0  0  0  0
M  CHG  2  82   1  83   1
M  ISO  4  43 100  68 101  81 100  90 101
M  END
> <Batch ID>
0041

> <Smiles>
C#CC=C1C([101CH2:1][101O:1]c2ccc3c(c2)CN(C(=O)C(NC(=O)C(C)NC)C(C)(C)C)C(C(=O)NC2CCCc4ccccc42)C3)CCCCN1Cc1ccc(C[100NH:0][100C:0](=O)N2CCCC(n3nc(-c4ccc(Oc5ccc(F)cc5F)cc4)c(C(N)=O)c3N)C2)cc(=N)c1Cl

> <Shape>
0.174

> <Color>
0.169

> <Negative vol penalty>
0.000

$$$$

  -OEChem-04042322093D

 87 96  0     1  0  0  0  0  0999 V2000
  -23.7105  -24.4936   19.5058 C   0  0  0  0  0  0  0  0  0  0  0  0
  -24.5866  -23.4462   19.2445 C   0  0  0  0  0  0  0  0  0  0  0  0
  -23.0567  -29.6049   23.3616 C   0  0  0  0  0  0  0  0  0  0  0  0
  -23.1948  -30.4247   21.0931 C   0  0  0  0  0  0  0  0  0  0  0  0
  -22.6712  -24.3171   20.4168 C   0  0  0  0  0  0  0  0  0  0  0  0
  -24.4166  -22.2183   19.8851 C   0  0  0  0  0  0  0  0  0  0  0  0
  -27.3028  -18.5139   18.4185 C   0  0  0  0  0  0  0  0  0  0  0  0
  -29.7649  -20.7526   22.8794 C   0  0  0  0  0  0  0  0  0  0  0  0
  -28.4743  -21.2540   23.0480 C   0  0  0  0  0  0  0  0  0  0  0  0
  -21.6679  -29.7287   23.3218 C   0  0  0  0  0  0  0  0  0  0  0  0
  -21.8060  -30.5484   21.0533 C   0  0  0  0  0  0  0  0  0  0  0  0
  -28.6641  -18.4565   18.7141 C   0  0  0  0  0  0  0  0  0  0  0  0
  -18.0597  -29.4876   23.6925 C   0  0  0  0  0  0  0  0  0  0  0  0
  -17.2998  -28.4318   24.1959 C   0  0  0  0  0  0  0  0  0  0  0  0
  -28.2176  -16.8134   20.4229 C   0  0  0  0  0  0  0  0  0  0  0  0
  -30.3641  -22.7209   21.6130 C   0  0  0  0  0  0  0  0  0  0  0  0
  -18.2868  -26.9449   22.5673 C   0  0  0  0  0  0  0  0  0  0  0  0
  -23.8202  -29.9529   22.2472 C   0  0  0  0  0  0  0  0  0  0  0  0
  -26.1407  -30.4706   23.1719 C   0  0  0  0  0  0  0  0  0  0  0  0
  -22.4966  -23.0901   21.0778 C   0  0  0  0  0  0  0  0  0  0  0  0
  -26.3859  -17.7282   19.1316 C   0  0  0  0  0  0  0  0  0  0  0  0
  -23.3594  -22.0130   20.7899 C   0  0  0  0  0  0  0  0  0  0  0  0
  -26.8455  -16.8608   20.1328 C   0  0  0  0  0  0  0  0  0  0  0  0
  -30.7099  -21.4861   22.1619 C   0  0  0  0  0  0  0  0  0  0  0  0
  -28.1285  -22.4888   22.4991 C   0  0  0  0  0  0  0  0  0  0  0  0
  -29.0734  -23.2223   21.7815 C   0  0  0  0  0  0  0  0  0  0  0  0
  -21.0426  -30.2005   22.1676 C   0  0  0  0  0  0  0  0  0  0  0  0
  -29.1214  -17.6083   19.7184 C   0  0  0  0  0  0  0  0  0  0  0  0
  -18.9331  -29.2721   22.6265 C   0  0  0  0  0  0  0  0  0  0  0  0
  -17.4133  -27.1605   23.6333 C   0  0  0  0  0  0  0  0  0  0  0  0
  -19.0467  -28.0008   22.0639 C   0  0  0  0  0  0  0  0  0  0  0  0
  -25.2548  -29.8258   22.2879 C   0  0  0  0  0  0  0  0  0  0  0  0
  -27.3840  -30.0191   22.8021 C   0  0  0  0  0  0  0  0  0  0  0  0
  -25.8643  -31.3951   24.2324 C   0  0  0  0  0  0  0  0  0  0  0  0
  -23.9021  -18.3366   21.0195 C   0  0  0  0  0  0  0  0  0  0  0  0
  -23.5350  -15.1152   20.9210 C   0  0  0  0  0  0  0  0  0  0  0  0
  -24.9565  -12.0506   20.4365 C   0  0  0  0  0  0  0  0  0  0  0  0
  -29.2772  -25.0558   20.0660 C   0  0  0  0  0  0  0  0  0  0  0  0
  -21.3503  -22.9514   22.0483 C   0  0  0  0  0  0  0  0  0  0  0  0
  -24.9238  -17.7819   18.7825 C   0  0  0  0  0  0  0  0  0  0  0  0
  -25.9045  -15.9817   20.9138 C   0  0  0  0  0  0  0  0  0  0  0  0
  -21.5169  -21.7717   23.0006 C   0  0  0  0  0  0  0  0  0  0  0  0
  -29.8046  -28.4104   18.9959 C   0  0  0  0  0  0  0  0  0  0  0  0
  -21.8669  -20.5160   22.2161 C   0  0  0  0  0  0  0  0  0  0  0  0
  -28.7824  -29.2136   19.8036 C   0  0  0  0  0  0  0  0  0  0  0  0
  -32.6860  -17.7330   19.0988 C   0  0  0  0  0  0  0  0  0  0  0  0
  -33.4204  -17.6631   20.4327 C   0  0  0  0  0  0  0  0  0  0  0  0
  -29.2542  -27.0474   18.5801 C   0  0  0  0  0  0  0  0  0  0  0  0
  -27.6925  -27.0378   20.4854 C   0  0  0  0  0  0  0  0  0  0  0  0
  -31.4097  -19.7445   19.9258 C   0  0  0  0  0  0  0  0  0  0  0  0
  -23.2124  -20.6781   21.4977 C   0  0  1  0  0  0  0  0  0  0  0  0
  -24.0203  -17.3183   19.9210 C   0  0  1  0  0  0  0  0  0  0  0  0
  -28.2245  -28.3919   20.9822 C   0  0  2  0  0  0  0  0  0  0  0  0
  -31.3176  -18.3862   19.2468 C   0  0  2  0  0  0  0  0  0  1  0  0
  -33.5290  -19.0348   21.1092 C   0  0  2  0  0  0  0  0  0  0  0  0
  -26.7383  -23.0007   22.6948 C   0  0  0  0  0  0  0  0  0  0  0  0
  -35.5939  -18.3601   22.3458 C   0  0  0  0  0  0  0  0  0  0  0  0
  -24.4128   -9.6009   20.4602 C   0  0  0  0  0  0  0  0  0  0  0  0
  -23.5334  -15.1475   23.9720 C   0  0  0  0  0  0  0  0  0  0  0  0
  -23.9456  -12.6784   23.9290 C   0  0  0  0  0  0  0  0  0  0  0  0
  -21.8510  -13.6088   22.9442 C   0  0  0  0  0  0  0  0  0  0  0  0
  -25.6785  -11.7444   17.5828 C   0  0  0  0  0  0  0  0  0  0  0  0
  -32.0979  -20.9461   21.9812 C   0  0  0  0  0  0  0  0  0  0  0  0
  -34.2020  -18.8862   22.4724 C   0  0  0  0  0  0  0  0  0  0  0  0
  -24.0471  -13.9552   21.7403 C   0  0  1  0  0  0  0  0  0  0  0  0
  -24.5179  -10.8564   19.6084 C   0  0  2  0  0  0  0  0  0  0  0  0
  -23.3620  -13.8653   23.1332 C   0  0  0  0  0  0  0  0  0  0  0  0
  -25.8821  -29.0257   21.4218 N   0  0  0  0  0  0  0  0  0  0  0  0
  -27.1754  -29.1648   21.7596 N   0  0  0  0  0  0  0  0  0  0  0  0
  -24.4836  -16.0746   20.5397 N   0  0  0  0  0  0  0  0  0  0  0  0
  -28.7474  -26.3244   19.7485 N   0  0  0  0  0  0  0  0  0  0  0  0
  -28.6244  -30.2735   23.2702 N   0  0  0  0  0  0  0  0  0  0  0  0
  -25.8412  -32.7647   23.9358 N   0  0  0  0  0  0  0  0  0  0  0  0
  -28.7416  -24.4788   21.2170 N   0  0  0  0  0  0  0  0  0  0  0  0
  -23.4081  -19.5582   20.6036 N   0  0  0  0  0  0  0  0  0  0  0  0
  -23.8780  -12.7652   20.9134 N   0  0  0  0  0  0  0  0  0  0  0  0
  -32.1276  -19.6199   21.2596 N   0  3  1  0  0  0  0  0  0  0  0  0
  -25.4939  -10.5999   18.5118 N   0  3  0  0  0  0  0  0  0  0  0  0
  -25.6606  -31.0188   25.4115 O   0  0  0  0  0  0  0  0  0  0  0  0
  -24.2332  -18.0358   22.1604 O   0  0  0  0  0  0  0  0  0  0  0  0
  -22.3387  -15.1643   20.6240 O   0  0  0  0  0  0  0  0  0  0  0  0
  -26.1377  -12.3204   20.6430 O   0  0  0  0  0  0  0  0  0  0  0  0
  -30.1619  -24.5326   19.3835 O   0  0  0  0  0  0  0  0  0  0  0  0
  -19.6874  -30.3212   22.1283 O   0  0  0  0  0  0  0  0  0  0  0  0
  -30.4495  -17.5509   20.0093 O   0  0  0  0  0  0  0  0  0  1  0  0
  -16.6847  -26.1463   24.1178 F   0  0  0  0  0  0  0  0  0  0  0  0
  -19.8850  -27.7874   21.0404 F   0  0  0  0  0  0  0  0  0  0  0  0
  1  2  1  0  0  0  0
  1  5  2  0  0  0  0
  2  6  2  0  0  0  0
  3 10  2  0  0  0  0
  3 18  1  0  0  0  0
  4 11  1  0  0  0  0
  4 18  2  0  0  0  0
  5 20  1  0  0  0  0
  6 22  1  0  0  0  0
  7 12  2  0  0  0  0
  7 21  1  0  0  0  0
  8  9  2  0  0  0  0
  8 24  1  0  0  0  0
  9 25  1  0  0  0  0
 10 27  1  0  0  0  0
 11 27  2  0  0  0  0
 12 28  1  0  0  0  0
 13 14  2  0  0  0  0
 13 29  1  0  0  0  0
 14 30  1  0  0  0  0
 15 23  1  0  0  0  0
 15 28  2  0  0  0  0
 16 24  2  0  0  0  0
 16 26  1  0  0  0  0
 17 30  2  0  0  0  0
 17 31  1  0  0  0  0
 18 32  1  0  0  0  0
 19 32  1  0  0  0  0
 19 33  2  0  0  0  0
 19 34  1  0  0  0  0
 20 22  2  0  0  0  0
 20 39  1  0  0  0  0
 21 23  2  0  0  0  0
 21 40  1  0  0  0  0
 22 51  1  0  0  0  0
 23 41  1  0  0  0  0
 24 63  1  0  0  0  0
 25 26  2  0  0  0  0
 25 56  1  0  0  0  0
 26 74  1  0  0  0  0
 27 84  1  0  0  0  0
 28 85  1  0  0  0  0
 29 31  2  0  0  0  0
 29 84  1  0  0  0  0
 30 86  1  0  0  0  0
 31 87  1  0  0  0  0
 32 68  2  0  0  0  0
 33 69  1  0  0  0  0
 33 72  1  0  0  0  0
 34 73  1  0  0  0  0
 34 79  2  0  0  0  0
 35 52  1  0  0  0  0
 35 75  1  0  0  0  0
 35 80  2  0  0  0  0
 36 65  1  0  0  0  0
 36 70  1  0  0  0  0
 36 81  2  0  0  0  0
 37 66  1  0  0  0  0
 37 76  1  0  0  0  0
 37 82  2  0  0  0  0
 38 71  1  0  0  0  0
 38 74  1  0  0  0  0
 38 83  2  0  0  0  0
 39 42  1  0  0  0  0
 40 52  1  0  0  0  0
 41 70  1  0  0  0  0
 42 44  1  0  0  0  0
 43 45  1  0  0  0  0
 43 48  1  0  0  0  0
 44 51  1  0  0  0  0
 45 53  1  0  0  0  0
 46 47  1  0  0  0  0
 46 54  1  0  0  0  0
 47 55  1  0  0  0  0
 48 71  1  0  0  0  0
 49 53  1  0  0  0  0
 49 71  1  0  0  0  0
 50 54  1  0  0  0  0
 50 77  1  0  0  0  0
 51 75  1  0  0  0  0
 52 70  1  0  0  0  0
 53 69  1  0  0  0  0
 54 85  1  0  0  0  0
 55 64  1  0  0  0  0
 55 77  1  0  0  0  0
 57 64  1  0  0  0  0
 58 66  1  0  0  0  0
 59 67  1  0  0  0  0
 60 67  1  0  0  0  0
 61 67  1  0  0  0  0
 62 78  1  0  0  0  0
 63 77  1  0  0  0  0
 65 67  1  0  0  0  0
 65 76  1  0  0  0  0
 66 78  1  0  0  0  0
 68 69  1  0  0  0  0
M  CHG  2  77   1  78   1
M  ISO  4  38 100  54 101  74 100  85 101
M  END
> <Batch ID>
0041

> <Smiles>
CCC1CC[101CH:1]([101O:1]c2ccc3c(c2)CN(C(=O)C(NC(=O)C(C)NC)C(C)(C)C)C(C(=O)NC2CCCc4ccccc42)C3)CN1Cc1ccc(C)c([100NH:0][100C:0](=O)N2CCCC(n3nc(-c4ccc(Oc5ccc(F)cc5F)cc4)c(C(N)=O)c3N)C2)c1

> <Shape>
0.240

> <Color>
0.060

> <Negative vol penalty>
0.000

$$$$

  -OEChem-04042322093D

 89 98  0     1  0  0  0  0  0999 V2000
  -24.8704  -38.6922   22.8824 C   0  0  0  0  0  0  0  0  0  0  0  0
  -25.4516  -37.7022   23.6683 C   0  0  0  0  0  0  0  0  0  0  0  0
  -23.0356   -9.3948   19.6824 C   0  0  0  0  0  0  0  0  0  0  0  0
  -24.5789   -8.9152   21.4784 C   0  0  0  0  0  0  0  0  0  0  0  0
  -23.6931  -38.4252   22.1848 C   0  0  0  0  0  0  0  0  0  0  0  0
  -24.8552  -36.4450   23.7579 C   0  0  0  0  0  0  0  0  0  0  0  0
  -28.4328  -30.4977   21.8286 C   0  0  0  0  0  0  0  0  0  0  0  0
  -21.9733   -8.9759   20.4834 C   0  0  0  0  0  0  0  0  0  0  0  0
  -23.5165   -8.4964   22.2794 C   0  0  0  0  0  0  0  0  0  0  0  0
  -29.1227  -29.2945   21.6785 C   0  0  0  0  0  0  0  0  0  0  0  0
  -21.5783   -5.7458   22.6088 C   0  0  0  0  0  0  0  0  0  0  0  0
  -21.7374   -4.5621   23.3293 C   0  0  0  0  0  0  0  0  0  0  0  0
  -27.0982  -28.0616   22.1576 C   0  0  0  0  0  0  0  0  0  0  0  0
  -30.3758  -20.1299   19.0044 C   0  0  0  0  0  0  0  0  0  0  0  0
  -28.0673  -18.5711   18.8505 C   0  0  0  0  0  0  0  0  0  0  0  0
  -21.4111   -5.7746   25.3934 C   0  0  0  0  0  0  0  0  0  0  0  0
  -24.3385   -9.3644   20.1799 C   0  0  0  0  0  0  0  0  0  0  0  0
  -25.8319   -9.2559   18.1145 C   0  0  0  0  0  0  0  0  0  0  0  0
  -23.0872  -37.1610   22.2582 C   0  0  0  0  0  0  0  0  0  0  0  0
  -27.0678  -30.4873   22.1289 C   0  0  0  0  0  0  0  0  0  0  0  0
  -23.6680  -36.1612   23.0616 C   0  0  0  0  0  0  0  0  0  0  0  0
  -26.3991  -29.2636   22.2968 C   0  0  0  0  0  0  0  0  0  0  0  0
  -30.4507  -18.7513   19.2031 C   0  0  0  0  0  0  0  0  0  0  0  0
  -29.1467  -20.7291   18.7287 C   0  0  0  0  0  0  0  0  0  0  0  0
  -29.2965  -17.9719   19.1261 C   0  0  0  0  0  0  0  0  0  0  0  0
  -22.2137   -8.5267   21.7819 C   0  0  0  0  0  0  0  0  0  0  0  0
  -28.4570  -28.0795   21.8428 C   0  0  0  0  0  0  0  0  0  0  0  0
  -21.3358   -6.9439   23.2806 C   0  0  0  0  0  0  0  0  0  0  0  0
  -21.6538   -4.5765   24.7216 C   0  0  0  0  0  0  0  0  0  0  0  0
  -27.9925  -19.9497   18.6518 C   0  0  0  0  0  0  0  0  0  0  0  0
  -21.2521   -6.9583   24.6729 C   0  0  0  0  0  0  0  0  0  0  0  0
  -25.4363   -9.7964   19.3528 C   0  0  0  0  0  0  0  0  0  0  0  0
  -26.9164  -10.0112   17.7409 C   0  0  0  0  0  0  0  0  0  0  0  0
  -28.1016  -24.3162   19.2052 C   0  0  0  0  0  0  0  0  0  0  0  0
  -27.2000  -24.6981   18.2839 C   0  0  0  0  0  0  0  0  0  0  0  0
  -25.2692   -8.1683   17.3688 C   0  0  0  0  0  0  0  0  0  0  0  0
  -23.9619  -32.4888   22.7795 C   0  0  0  0  0  0  0  0  0  0  0  0
  -23.1332  -30.0947   21.0498 C   0  0  0  0  0  0  0  0  0  0  0  0
  -22.9528  -28.0916   18.6295 C   0  0  0  0  0  0  0  0  0  0  0  0
  -28.2938  -15.6578   19.2819 C   0  0  0  0  0  0  0  0  0  0  0  0
  -21.7896  -36.9342   21.5237 C   0  0  0  0  0  0  0  0  0  0  0  0
  -26.2984  -31.7594   22.3603 C   0  0  0  0  0  0  0  0  0  0  0  0
  -24.9382  -29.3011   22.6537 C   0  0  0  0  0  0  0  0  0  0  0  0
  -28.9902  -25.3165   19.8901 C   0  0  0  0  0  0  0  0  0  0  0  0
  -21.4240  -35.4597   21.3744 C   0  0  0  0  0  0  0  0  0  0  0  0
  -30.1531  -12.4785   20.3584 C   0  0  0  0  0  0  0  0  0  0  0  0
  -27.7729  -23.3880   21.9607 C   0  0  0  0  0  0  0  0  0  0  0  0
  -21.6036  -34.7281   22.7007 C   0  0  0  0  0  0  0  0  0  0  0  0
  -29.4692  -11.4634   19.4455 C   0  0  0  0  0  0  0  0  0  0  0  0
  -28.4172  -24.7258   22.3217 C   0  0  0  0  0  0  0  0  0  0  0  0
  -30.0607  -13.8986   19.8147 C   0  0  0  0  0  0  0  0  0  0  0  0
  -27.6586  -13.2652   19.5232 C   0  0  0  0  0  0  0  0  0  0  0  0
  -28.5756  -22.5997   20.9289 C   0  0  0  0  0  0  0  0  0  0  0  0
  -23.0645  -34.7773   23.1644 C   0  0  1  0  0  0  0  0  0  0  0  0
  -24.8411  -31.6806   21.8710 C   0  0  1  0  0  0  0  0  0  0  0  0
  -28.1663  -11.9977   18.8183 C   0  0  2  0  0  0  0  0  0  0  0  0
  -28.3915  -25.7836   21.2189 C   0  0  1  0  0  0  0  0  0  1  0  0
  -31.7806  -18.1361   19.4968 C   0  0  0  0  0  0  0  0  0  0  0  0
  -26.2936  -23.7566   17.5725 C   0  0  0  0  0  0  0  0  0  0  0  0
  -22.3901  -26.5291   16.7481 C   0  0  0  0  0  0  0  0  0  0  0  0
  -22.0893  -28.6818   23.5434 C   0  0  0  0  0  0  0  0  0  0  0  0
  -21.0685  -26.9516   22.0493 C   0  0  0  0  0  0  0  0  0  0  0  0
  -20.3241  -29.3273   21.8936 C   0  0  0  0  0  0  0  0  0  0  0  0
  -22.5342  -30.3311   16.7405 C   0  0  0  0  0  0  0  0  0  0  0  0
  -29.0693  -22.2121   18.5152 C   0  0  0  0  0  0  0  0  0  0  0  0
  -22.6049  -28.6830   21.0135 C   0  0  1  0  0  0  0  0  0  0  0  0
  -22.2006  -27.9249   17.3214 C   0  0  2  0  0  0  0  0  0  0  0  0
  -21.5496  -28.4164   22.1238 C   0  0  0  0  0  0  0  0  0  0  0  0
  -26.2070  -10.8163   19.7400 N   0  0  0  0  0  0  0  0  0  0  0  0
  -27.0977  -10.9226   18.7393 N   0  0  0  0  0  0  0  0  0  0  0  0
  -24.2527  -30.3306   21.8569 N   0  0  0  0  0  0  0  0  0  0  0  0
  -28.6815  -14.3174   19.5252 N   0  0  0  0  0  0  0  0  0  0  0  0
  -27.7232   -9.9781   16.6590 N   0  0  0  0  0  0  0  0  0  0  0  0
  -24.2586   -8.4480   16.4388 N   0  0  0  0  0  0  0  0  0  0  0  0
  -29.3518  -16.5697   19.3253 N   0  0  0  0  0  0  0  0  0  0  0  0
  -23.8615  -33.8210   22.4264 N   0  0  0  0  0  0  0  0  0  0  0  0
  -22.1132  -28.4658   19.6572 N   0  0  0  0  0  0  0  0  0  0  0  0
  -28.1680  -22.9062   19.5069 N   0  3  2  0  0  0  0  0  0  0  0  0
  -22.6824  -28.9149   16.3171 N   0  3  0  0  0  0  0  0  0  0  0  0
  -25.6397   -6.9813   17.5343 O   0  0  0  0  0  0  0  0  0  0  0  0
  -23.4131  -31.9445   23.7304 O   0  0  0  0  0  0  0  0  0  0  0  0
  -22.5671  -30.9677   20.3859 O   0  0  0  0  0  0  0  0  0  0  0  0
  -24.1633  -27.9047   18.7303 O   0  0  0  0  0  0  0  0  0  0  0  0
  -27.1228  -15.9604   19.0432 O   0  0  0  0  0  0  0  0  0  0  0  0
  -21.1773   -8.1182   22.5638 O   0  0  0  0  0  0  0  0  0  0  0  0
  -29.1355  -26.9085   21.6904 O   0  0  0  0  0  0  0  0  0  1  0  0
  -21.8050   -3.4394   25.4133 F   0  0  0  0  0  0  0  0  0  0  0  0
  -26.8070  -20.5165   18.3875 F   0  0  0  0  0  0  0  0  0  0  0  0
  -21.0181   -8.1061   25.3237 F   0  0  0  0  0  0  0  0  0  0  0  0
  1  2  1  0  0  0  0
  1  5  2  0  0  0  0
  2  6  2  0  0  0  0
  3  8  2  0  0  0  0
  3 17  1  0  0  0  0
  4  9  1  0  0  0  0
  4 17  2  0  0  0  0
  5 19  1  0  0  0  0
  6 21  1  0  0  0  0
  7 10  2  0  0  0  0
  7 20  1  0  0  0  0
  8 26  1  0  0  0  0
  9 26  2  0  0  0  0
 10 27  1  0  0  0  0
 11 12  2  0  0  0  0
 11 28  1  0  0  0  0
 12 29  1  0  0  0  0
 13 22  1  0  0  0  0
 13 27  2  0  0  0  0
 14 23  2  0  0  0  0
 14 24  1  0  0  0  0
 15 25  2  0  0  0  0
 15 30  1  0  0  0  0
 16 29  2  0  0  0  0
 16 31  1  0  0  0  0
 17 32  1  0  0  0  0
 18 32  1  0  0  0  0
 18 33  2  0  0  0  0
 18 36  1  0  0  0  0
 19 21  2  0  0  0  0
 19 41  1  0  0  0  0
 20 22  2  0  0  0  0
 20 42  1  0  0  0  0
 21 54  1  0  0  0  0
 22 43  1  0  0  0  0
 23 25  1  0  0  0  0
 23 58  1  0  0  0  0
 24 30  2  0  0  0  0
 24 65  1  0  0  0  0
 25 75  1  0  0  0  0
 26 85  1  0  0  0  0
 27 86  1  0  0  0  0
 28 31  2  0  0  0  0
 28 85  1  0  0  0  0
 29 87  1  0  0  0  0
 30 88  1  0  0  0  0
 31 89  1  0  0  0  0
 32 69  2  0  0  0  0
 33 70  1  0  0  0  0
 33 73  1  0  0  0  0
 34 35  2  0  0  0  0
 34 44  1  0  0  0  0
 34 78  1  0  0  0  0
 35 59  1  0  0  0  0
 36 74  1  0  0  0  0
 36 80  2  0  0  0  0
 37 55  1  0  0  0  0
 37 76  1  0  0  0  0
 37 81  2  0  0  0  0
 38 66  1  0  0  0  0
 38 71  1  0  0  0  0
 38 82  2  0  0  0  0
 39 67  1  0  0  0  0
 39 77  1  0  0  0  0
 39 83  2  0  0  0  0
 40 72  1  0  0  0  0
 40 75  1  0  0  0  0
 40 84  2  0  0  0  0
 41 45  1  0  0  0  0
 42 55  1  0  0  0  0
 43 71  1  0  0  0  0
 44 57  1  0  0  0  0
 45 48  1  0  0  0  0
 46 49  1  0  0  0  0
 46 51  1  0  0  0  0
 47 50  1  0  0  0  0
 47 53  1  0  0  0  0
 48 54  1  0  0  0  0
 49 56  1  0  0  0  0
 50 57  1  0  0  0  0
 51 72  1  0  0  0  0
 52 56  1  0  0  0  0
 52 72  1  0  0  0  0
 53 78  1  0  0  0  0
 54 76  1  0  0  0  0
 55 71  1  0  0  0  0
 56 70  1  0  0  0  0
 57 86  1  0  0  0  0
 60 67  1  0  0  0  0
 61 68  1  0  0  0  0
 62 68  1  0  0  0  0
 63 68  1  0  0  0  0
 64 79  1  0  0  0  0
 65 78  1  0  0  0  0
 66 68  1  0  0  0  0
 66 77  1  0  0  0  0
 67 79  1  0  0  0  0
 69 70  1  0  0  0  0
M  CHG  2  78   1  79   1
M  ISO  4  40 100  57 101  75 100  86 101
M  END
> <Batch ID>
0041

> <Smiles>
CC=C1C[101CH:1]([101O:1]c2ccc3c(c2)CN(C(=O)C(NC(=O)C(C)NC)C(C)(C)C)C(C(=O)NC2CCCc4ccccc42)C3)CCCN1Cc1cc(C)c([100NH:0][100C:0](=O)N2CCCC(n3nc(-c4ccc(Oc5ccc(F)cc5F)cc4)c(C(N)=O)c3N)C2)cc1F

> <Shape>
0.312

> <Color>
0.071

> <Negative vol penalty>
0.000

$$$$

  -OEChem-04042322093D

 88 96  0     1  0  0  0  0  0999 V2000
  -17.9651  -26.1906   23.0312 C   0  0  0  0  0  0  0  0  0  0  0  0
  -19.2034  -26.1409   23.6632 C   0  0  0  0  0  0  0  0  0  0  0  0
  -24.4740  -10.1205   22.0806 C   0  0  0  0  0  0  0  0  0  0  0  0
  -25.0229  -11.6521   23.8666 C   0  0  0  0  0  0  0  0  0  0  0  0
  -17.8218  -26.8927   21.8352 C   0  0  0  0  0  0  0  0  0  0  0  0
  -20.2995  -26.7925   23.0990 C   0  0  0  0  0  0  0  0  0  0  0  0
  -24.8771  -29.5558   26.0849 C   0  0  0  0  0  0  0  0  0  0  0  0
  -24.2341   -9.1148   23.0167 C   0  0  0  0  0  0  0  0  0  0  0  0
  -24.7829  -10.6464   24.8028 C   0  0  0  0  0  0  0  0  0  0  0  0
  -26.1669  -29.1418   26.4146 C   0  0  0  0  0  0  0  0  0  0  0  0
  -21.7583   -8.2296   25.1427 C   0  0  0  0  0  0  0  0  0  0  0  0
  -20.6102   -7.4542   24.9812 C   0  0  0  0  0  0  0  0  0  0  0  0
  -27.0193  -30.2534   24.4507 C   0  0  0  0  0  0  0  0  0  0  0  0
  -27.6782  -21.4739   19.8361 C   0  0  0  0  0  0  0  0  0  0  0  0
  -29.8821  -19.8774   19.2223 C   0  0  0  0  0  0  0  0  0  0  0  0
  -21.9763   -5.4702   24.7954 C   0  0  0  0  0  0  0  0  0  0  0  0
  -24.8684  -11.3892   22.5055 C   0  0  0  0  0  0  0  0  0  0  0  0
  -24.1880  -13.3555   21.0296 C   0  0  0  0  0  0  0  0  0  0  0  0
  -18.9145  -27.5613   21.2610 C   0  0  0  0  0  0  0  0  0  0  0  0
  -24.6469  -30.3138   24.9278 C   0  0  0  0  0  0  0  0  0  0  0  0
  -20.1711  -27.5032   21.8935 C   0  0  0  0  0  0  0  0  0  0  0  0
  -25.7260  -30.6780   24.1099 C   0  0  0  0  0  0  0  0  0  0  0  0
  -28.9440  -22.0479   19.7184 C   0  0  0  0  0  0  0  0  0  0  0  0
  -28.6163  -19.3034   19.3401 C   0  0  0  0  0  0  0  0  0  0  0  0
  -24.3885   -9.3777   24.3779 C   0  0  0  0  0  0  0  0  0  0  0  0
  -27.2379  -29.4881   25.5959 C   0  0  0  0  0  0  0  0  0  0  0  0
  -23.0154   -7.6254   25.1305 C   0  0  0  0  0  0  0  0  0  0  0  0
  -20.7192   -6.0744   24.8076 C   0  0  0  0  0  0  0  0  0  0  0  0
  -23.1245   -6.2457   24.9569 C   0  0  0  0  0  0  0  0  0  0  0  0
  -27.5144  -20.1016   19.6471 C   0  0  0  0  0  0  0  0  0  0  0  0
  -30.0459  -21.2497   19.4114 C   0  0  0  0  0  0  0  0  0  0  0  0
  -25.1169  -12.4285   21.5389 C   0  0  0  0  0  0  0  0  0  0  0  0
  -24.9140  -14.1216   20.1507 C   0  0  0  0  0  0  0  0  0  0  0  0
  -22.7935  -13.5105   21.3247 C   0  0  0  0  0  0  0  0  0  0  0  0
  -22.9745  -29.8822   22.2594 C   0  0  0  0  0  0  0  0  0  0  0  0
  -23.8416  -32.9541   21.6815 C   0  0  0  0  0  0  0  0  0  0  0  0
  -30.5707  -25.6053   22.7720 C   0  0  0  0  0  0  0  0  0  0  0  0
  -26.0380  -35.5018   22.2576 C   0  0  0  0  0  0  0  0  0  0  0  0
  -29.4950  -16.9981   18.8302 C   0  0  0  0  0  0  0  0  0  0  0  0
  -18.7220  -28.2679   19.9426 C   0  0  0  0  0  0  0  0  0  0  0  0
  -23.2532  -30.7753   24.6005 C   0  0  0  0  0  0  0  0  0  0  0  0
  -25.5347  -31.5076   22.8675 C   0  0  0  0  0  0  0  0  0  0  0  0
  -19.8459  -29.2442   19.6049 C   0  0  0  0  0  0  0  0  0  0  0  0
  -29.5803  -13.4787   18.2975 C   0  0  0  0  0  0  0  0  0  0  0  0
  -21.2058  -28.5982   19.8500 C   0  0  0  0  0  0  0  0  0  0  0  0
  -28.3503  -12.9680   19.0514 C   0  0  0  0  0  0  0  0  0  0  0  0
  -30.2521  -14.6396   19.0287 C   0  0  0  0  0  0  0  0  0  0  0  0
  -28.1314  -15.2445   20.1268 C   0  0  0  0  0  0  0  0  0  0  0  0
  -21.3780  -28.2179   21.3255 C   0  0  1  0  0  0  0  0  0  0  0  0
  -23.0655  -31.1081   23.1235 C   0  0  1  0  0  0  0  0  0  0  0  0
  -27.3832  -14.1175   19.3962 C   0  0  2  0  0  0  0  0  0  0  0  0
  -26.5069  -37.8817   21.6144 C   0  0  0  0  0  0  0  0  0  0  0  0
  -24.9231  -32.0107   18.9889 C   0  0  0  0  0  0  0  0  0  0  0  0
  -26.1915  -34.1629   18.8229 C   0  0  0  0  0  0  0  0  0  0  0  0
  -23.6988  -34.1902   18.9157 C   0  0  0  0  0  0  0  0  0  0  0  0
  -25.7457  -36.4362   25.0506 C   0  0  0  0  0  0  0  0  0  0  0  0
  -29.0779  -23.5273   19.9287 C   0  0  0  0  0  0  0  0  0  0  0  0
  -29.8944  -25.3301   21.4526 C   0  0  0  0  0  0  0  0  0  0  0  0
  -30.4134  -27.8024   25.2484 C   0  0  0  0  0  0  0  0  0  0  0  0
  -31.4187  -27.4807   24.1509 C   0  0  0  0  0  0  0  0  0  0  0  0
  -29.4028  -28.8649   24.8339 C   0  0  0  0  0  0  0  0  0  1  0  0
  -25.0107  -33.6252   21.0018 C   0  0  1  0  0  0  0  0  0  0  0  0
  -25.8171  -36.9619   22.6098 C   0  0  2  0  0  0  0  0  0  0  0  0
  -24.9597  -33.4799   19.4546 C   0  0  0  0  0  0  0  0  0  0  0  0
  -26.3397  -12.5890   21.0260 N   0  0  0  0  0  0  0  0  0  0  0  0
  -26.1842  -13.6259   20.1853 N   0  0  0  0  0  0  0  0  0  0  0  0
  -24.1524  -31.9293   22.5865 N   0  0  0  0  0  0  0  0  0  0  0  0
  -29.2763  -15.6925   19.3185 N   0  0  0  0  0  0  0  0  0  0  0  0
  -24.5835  -15.1641   19.3592 N   0  0  0  0  0  0  0  0  0  0  0  0
  -22.2059  -12.6389   22.2517 N   0  0  0  0  0  0  0  0  0  0  0  0
  -28.4838  -17.9068   19.1408 N   0  0  0  0  0  0  0  0  0  0  0  0
  -21.6917  -29.3889   22.1160 N   0  0  0  0  0  0  0  0  0  0  0  0
  -30.7892  -26.9645   22.9670 N   0  0  0  0  0  0  0  0  0  0  0  0
  -25.0187  -35.0061   21.4724 N   0  0  0  0  0  0  0  0  0  0  0  0
  -26.3536  -37.2536   23.9693 N   0  3  0  0  0  0  0  0  0  0  0  0
  -29.6906  -23.8771   21.2397 N   0  3  0  0  0  0  0  0  0  0  0  0
  -22.0856  -14.3851   20.7701 O   0  0  0  0  0  0  0  0  0  0  0  0
  -23.9926  -29.4191   21.7586 O   0  0  0  0  0  0  0  0  0  0  0  0
  -22.6953  -33.3303   21.4246 O   0  0  0  0  0  0  0  0  0  0  0  0
  -30.8825  -24.7224   23.5668 O   0  0  0  0  0  0  0  0  0  0  0  0
  -27.0186  -34.8659   22.6378 O   0  0  0  0  0  0  0  0  0  0  0  0
  -30.4917  -17.2822   18.1610 O   0  0  0  0  0  0  0  0  0  0  0  0
  -24.1543   -8.3965   25.2917 O   0  0  0  0  0  0  0  0  0  0  0  0
  -28.4977  -29.0846   25.9151 O   0  0  0  0  0  0  0  0  0  1  0  0
  -19.6165   -5.3297   24.6541 F   0  0  0  0  0  0  0  0  0  0  0  0
  -24.3294   -5.6594   24.9454 F   0  0  0  0  0  0  0  0  0  0  0  0
  -25.9298  -19.4314   19.8027 Cl  0  0  0  0  0  0  0  0  0  0  0  0
  -31.6270  -21.9254   19.2591 Cl  0  0  0  0  0  0  0  0  0  0  0  0
  1  2  1  0  0  0  0
  1  5  2  0  0  0  0
  2  6  2  0  0  0  0
  3  8  2  0  0  0  0
  3 17  1  0  0  0  0
  4  9  1  0  0  0  0
  4 17  2  0  0  0  0
  5 19  1  0  0  0  0
  6 21  1  0  0  0  0
  7 10  2  0  0  0  0
  7 20  1  0  0  0  0
  8 25  1  0  0  0  0
  9 25  2  0  0  0  0
 10 26  1  0  0  0  0
 11 12  2  0  0  0  0
 11 27  1  0  0  0  0
 12 28  1  0  0  0  0
 13 22  1  0  0  0  0
 13 26  2  0  0  0  0
 14 23  1  0  0  0  0
 14 30  2  0  0  0  0
 15 24  2  0  0  0  0
 15 31  1  0  0  0  0
 16 28  2  0  0  0  0
 16 29  1  0  0  0  0
 17 32  1  0  0  0  0
 18 32  1  0  0  0  0
 18 33  2  0  0  0  0
 18 34  1  0  0  0  0
 19 21  2  0  0  0  0
 19 40  1  0  0  0  0
 20 22  2  0  0  0  0
 20 41  1  0  0  0  0
 21 49  1  0  0  0  0
 22 42  1  0  0  0  0
 23 31  2  0  0  0  0
 23 57  1  0  0  0  0
 24 30  1  0  0  0  0
 24 71  1  0  0  0  0
 25 83  1  0  0  0  0
 26 84  1  0  0  0  0
 27 29  2  0  0  0  0
 27 83  1  0  0  0  0
 28 85  1  0  0  0  0
 29 86  1  0  0  0  0
 30 87  1  0  0  0  0
 31 88  1  0  0  0  0
 32 65  2  0  0  0  0
 33 66  1  0  0  0  0
 33 69  1  0  0  0  0
 34 70  1  0  0  0  0
 34 77  2  0  0  0  0
 35 50  1  0  0  0  0
 35 72  1  0  0  0  0
 35 78  2  0  0  0  0
 36 62  1  0  0  0  0
 36 67  1  0  0  0  0
 36 79  2  0  0  0  0
 37 58  1  0  0  0  0
 37 73  1  0  0  0  0
 37 80  2  0  0  0  0
 38 63  1  0  0  0  0
 38 74  1  0  0  0  0
 38 81  2  0  0  0  0
 39 68  1  0  0  0  0
 39 71  1  0  0  0  0
 39 82  2  0  0  0  0
 40 43  1  0  0  0  0
 41 50  1  0  0  0  0
 42 67  1  0  0  0  0
 43 45  1  0  0  0  0
 44 46  1  0  0  0  0
 44 47  1  0  0  0  0
 45 49  1  0  0  0  0
 46 51  1  0  0  0  0
 47 68  1  0  0  0  0
 48 51  1  0  0  0  0
 48 68  1  0  0  0  0
 49 72  1  0  0  0  0
 50 67  1  0  0  0  0
 51 66  1  0  0  0  0
 52 63  1  0  0  0  0
 53 64  1  0  0  0  0
 54 64  1  0  0  0  0
 55 64  1  0  0  0  0
 56 75  1  0  0  0  0
 57 76  1  0  0  0  0
 58 76  1  0  0  0  0
 59 60  1  0  0  0  0
 59 61  1  0  0  0  0
 60 73  1  0  0  0  0
 61 84  1  0  0  0  0
 62 64  1  0  0  0  0
 62 74  1  0  0  0  0
 63 75  1  0  0  0  0
 65 66  1  0  0  0  0
M  CHG  2  75   1  76   1
M  ISO  4  39 100  61 101  71 100  84 101
M  END
> <Batch ID>
0041

> <Smiles>
CNC(C)C(=O)NC(C(=O)N1Cc2cc([101O:1][101CH2:1]CCNC(=O)CNCc3cc(Cl)c([100NH:0][100C:0](=O)N4CCCC(n5nc(-c6ccc(Oc7ccc(F)cc7F)cc6)c(C(N)=O)c5N)C4)cc3Cl)ccc2CC1C(=O)NC1CCCc2ccccc21)C(C)(C)C

> <Shape>
0.307

> <Color>
0.146

> <Negative vol penalty>
0.000

$$$$

  -OEChem-04042322093D

 87 95  0     1  0  0  0  0  0999 V2000
  -28.5081  -37.6085   22.3413 C   0  0  0  0  0  0  0  0  0  0  0  0
  -28.9187  -36.3864   21.8184 C   0  0  0  0  0  0  0  0  0  0  0  0
  -23.6256  -11.3814   20.1264 C   0  0  0  0  0  0  0  0  0  0  0  0
  -22.7268  -13.4310   21.0368 C   0  0  0  0  0  0  0  0  0  0  0  0
  -27.5586  -37.6452   23.3616 C   0  0  0  0  0  0  0  0  0  0  0  0
  -28.3807  -35.2002   22.3163 C   0  0  0  0  0  0  0  0  0  0  0  0
  -27.2040  -30.0831   19.1641 C   0  0  0  0  0  0  0  0  0  0  0  0
  -30.2239  -21.3458   20.7805 C   0  0  0  0  0  0  0  0  0  0  0  0
  -29.9273  -19.9829   20.7761 C   0  0  0  0  0  0  0  0  0  0  0  0
  -22.4059  -10.7448   20.3556 C   0  0  0  0  0  0  0  0  0  0  0  0
  -21.5070  -12.7943   21.2659 C   0  0  0  0  0  0  0  0  0  0  0  0
  -27.9112  -28.8912   19.0126 C   0  0  0  0  0  0  0  0  0  0  0  0
  -19.3629  -10.5896   18.8895 C   0  0  0  0  0  0  0  0  0  0  0  0
  -18.8481   -9.7889   17.8700 C   0  0  0  0  0  0  0  0  0  0  0  0
  -26.5951  -27.8938   20.7711 C   0  0  0  0  0  0  0  0  0  0  0  0
  -31.1065  -19.7195   22.8684 C   0  0  0  0  0  0  0  0  0  0  0  0
  -18.8987   -7.8769   19.3460 C   0  0  0  0  0  0  0  0  0  0  0  0
  -23.7861  -12.7246   20.4671 C   0  0  0  0  0  0  0  0  0  0  0  0
  -25.4404  -14.0721   19.0689 C   0  0  0  0  0  0  0  0  0  0  0  0
  -27.0016  -36.4593   23.8657 C   0  0  0  0  0  0  0  0  0  0  0  0
  -26.1927  -30.1929   20.1293 C   0  0  0  0  0  0  0  0  0  0  0  0
  -27.4239  -35.2210   23.3453 C   0  0  0  0  0  0  0  0  0  0  0  0
  -25.8748  -29.0874   20.9311 C   0  0  0  0  0  0  0  0  0  0  0  0
  -30.9618  -21.8956   21.8288 C   0  0  0  0  0  0  0  0  0  0  0  0
  -31.4031  -21.0825   22.8727 C   0  0  0  0  0  0  0  0  0  0  0  0
  -30.3686  -19.1697   21.8200 C   0  0  0  0  0  0  0  0  0  0  0  0
  -21.3466  -11.4512   20.9252 C   0  0  0  0  0  0  0  0  0  0  0  0
  -27.6088  -27.7973   19.8181 C   0  0  0  0  0  0  0  0  0  0  0  0
  -19.6458  -10.0339   20.1373 C   0  0  0  0  0  0  0  0  0  0  0  0
  -18.6159   -8.4326   18.0983 C   0  0  0  0  0  0  0  0  0  0  0  0
  -19.4136   -8.6776   20.3656 C   0  0  0  0  0  0  0  0  0  0  0  0
  -25.0460  -13.3826   20.2312 C   0  0  0  0  0  0  0  0  0  0  0  0
  -26.7132  -14.5090   19.3441 C   0  0  0  0  0  0  0  0  0  0  0  0
  -24.7207  -14.2975   17.8496 C   0  0  0  0  0  0  0  0  0  0  0  0
  -25.7398  -31.9942   22.7088 C   0  0  0  0  0  0  0  0  0  0  0  0
  -22.8325  -30.5558   22.7245 C   0  0  0  0  0  0  0  0  0  0  0  0
  -29.7468  -25.0390   20.7409 C   0  0  0  0  0  0  0  0  0  0  0  0
  -20.9166  -27.8846   21.8073 C   0  0  0  0  0  0  0  0  0  0  0  0
  -30.4276  -16.8395   22.7755 C   0  0  0  0  0  0  0  0  0  0  0  0
  -26.0133  -36.5469   25.0015 C   0  0  0  0  0  0  0  0  0  0  0  0
  -25.4210  -31.4772   20.2620 C   0  0  0  0  0  0  0  0  0  0  0  0
  -24.7843  -29.1473   21.9683 C   0  0  0  0  0  0  0  0  0  0  0  0
  -25.2158  -35.2629   25.2154 C   0  0  0  0  0  0  0  0  0  0  0  0
  -29.8443  -13.3469   23.1478 C   0  0  0  0  0  0  0  0  0  0  0  0
  -26.1412  -34.0505   25.1974 C   0  0  0  0  0  0  0  0  0  0  0  0
  -28.5764  -13.1016   22.3266 C   0  0  0  0  0  0  0  0  0  0  0  0
  -29.8034  -14.6951   23.8650 C   0  0  0  0  0  0  0  0  0  0  0  0
  -28.2517  -15.6037   22.1810 C   0  0  0  0  0  0  0  0  0  0  0  0
  -26.8452  -33.9139   23.8420 C   0  0  1  0  0  0  0  0  0  0  0  0
  -24.7595  -31.6384   21.6272 C   0  0  1  0  0  0  0  0  0  0  0  0
  -28.2746  -14.2865   21.3883 C   0  0  2  0  0  0  0  0  0  0  0  0
  -18.5857  -26.9746   21.9967 C   0  0  0  0  0  0  0  0  0  0  0  0
  -23.3809  -29.7600   25.6187 C   0  0  0  0  0  0  0  0  0  0  0  0
  -21.5171  -28.0977   25.4416 C   0  0  0  0  0  0  0  0  0  0  0  0
  -21.0441  -30.5323   25.1740 C   0  0  0  0  0  0  0  0  0  0  0  0
  -29.1899  -24.0226   22.9566 C   0  0  0  0  0  0  0  0  0  0  0  0
  -20.5454  -27.9058   18.8712 C   0  0  0  0  0  0  0  0  0  0  0  0
  -31.2693  -23.3651   21.8111 C   0  0  0  0  0  0  0  0  0  0  0  0
  -28.4535  -25.8207   20.8357 C   0  0  0  0  0  0  0  0  0  1  0  0
  -22.2654  -29.2976   23.3365 C   0  0  1  0  0  0  0  0  0  0  0  0
  -19.5467  -27.8030   21.1584 C   0  0  2  0  0  0  0  0  0  0  0  0
  -32.1928  -21.6495   24.0065 C   0  0  0  0  0  0  0  0  0  0  0  0
  -22.0738  -29.4211   24.8745 C   0  0  0  0  0  0  0  0  0  0  0  0
  -25.9916  -13.3790   21.1745 N   0  0  0  0  0  0  0  0  0  0  0  0
  -26.9929  -14.0714   20.6053 N   0  0  0  0  0  0  0  0  0  0  0  0
  -24.0626  -30.4270   22.0642 N   0  0  0  0  0  0  0  0  0  0  0  0
  -29.5171  -15.7705   22.9129 N   0  0  0  0  0  0  0  0  0  0  0  0
  -27.6091  -15.2208   18.6280 N   0  0  0  0  0  0  0  0  0  0  0  0
  -23.4236  -13.7793   17.7337 N   0  0  0  0  0  0  0  0  0  0  0  0
  -30.0658  -17.7855   21.8170 N   0  0  0  0  0  0  0  0  0  0  0  0
  -25.9439  -33.3527   22.8586 N   0  0  0  0  0  0  0  0  0  0  0  0
  -21.0389  -29.0039   22.6032 N   0  0  0  0  0  0  0  0  0  0  0  0
  -30.0555  -24.1773   21.7940 N   0  0  0  0  0  0  0  0  0  0  0  0
  -19.6494  -27.1804   19.8083 N   0  3  0  0  0  0  0  0  0  0  0  0
  -25.2193  -14.9254   16.8849 O   0  0  0  0  0  0  0  0  0  0  0  0
  -26.2707  -31.1024   23.3604 O   0  0  0  0  0  0  0  0  0  0  0  0
  -22.2035  -31.6124   22.8223 O   0  0  0  0  0  0  0  0  0  0  0  0
  -30.4599  -25.1907   19.7442 O   0  0  0  0  0  0  0  0  0  0  0  0
  -21.7896  -27.0380   21.6292 O   0  0  0  0  0  0  0  0  0  0  0  0
  -31.4664  -16.8965   23.4386 O   0  0  0  0  0  0  0  0  0  0  0  0
  -20.1562  -10.8303   21.1487 O   0  0  0  0  0  0  0  0  0  0  0  0
  -28.2980  -26.6329   19.6727 O   0  0  0  0  0  0  0  0  0  1  0  0
  -18.1200   -7.6642   17.1196 F   0  0  0  0  0  0  0  0  0  0  0  0
  -19.6823   -8.1383   21.5626 F   0  0  0  0  0  0  0  0  0  0  0  0
  -32.5444  -20.7215   24.9441 F   0  0  0  0  0  0  0  0  0  0  0  0
  -33.3666  -22.2275   23.6174 F   0  0  0  0  0  0  0  0  0  0  0  0
  -31.5127  -22.6181   24.6847 F   0  0  0  0  0  0  0  0  0  0  0  0
  1  2  1  0  0  0  0
  1  5  2  0  0  0  0
  2  6  2  0  0  0  0
  3 10  2  0  0  0  0
  3 18  1  0  0  0  0
  4 11  1  0  0  0  0
  4 18  2  0  0  0  0
  5 20  1  0  0  0  0
  6 22  1  0  0  0  0
  7 12  2  0  0  0  0
  7 21  1  0  0  0  0
  8  9  2  0  0  0  0
  8 24  1  0  0  0  0
  9 26  1  0  0  0  0
 10 27  1  0  0  0  0
 11 27  2  0  0  0  0
 12 28  1  0  0  0  0
 13 14  2  0  0  0  0
 13 29  1  0  0  0  0
 14 30  1  0  0  0  0
 15 23  1  0  0  0  0
 15 28  2  0  0  0  0
 16 25  1  0  0  0  0
 16 26  2  0  0  0  0
 17 30  2  0  0  0  0
 17 31  1  0  0  0  0
 18 32  1  0  0  0  0
 19 32  1  0  0  0  0
 19 33  2  0  0  0  0
 19 34  1  0  0  0  0
 20 22  2  0  0  0  0
 20 40  1  0  0  0  0
 21 23  2  0  0  0  0
 21 41  1  0  0  0  0
 22 49  1  0  0  0  0
 23 42  1  0  0  0  0
 24 25  2  0  0  0  0
 24 58  1  0  0  0  0
 25 62  1  0  0  0  0
 26 70  1  0  0  0  0
 27 81  1  0  0  0  0
 28 82  1  0  0  0  0
 29 31  2  0  0  0  0
 29 81  1  0  0  0  0
 30 83  1  0  0  0  0
 31 84  1  0  0  0  0
 32 64  2  0  0  0  0
 33 65  1  0  0  0  0
 33 68  1  0  0  0  0
 34 69  1  0  0  0  0
 34 75  2  0  0  0  0
 35 50  1  0  0  0  0
 35 71  1  0  0  0  0
 35 76  2  0  0  0  0
 36 60  1  0  0  0  0
 36 66  1  0  0  0  0
 36 77  2  0  0  0  0
 37 59  1  0  0  0  0
 37 73  1  0  0  0  0
 37 78  2  0  0  0  0
 38 61  1  0  0  0  0
 38 72  1  0  0  0  0
 38 79  2  0  0  0  0
 39 67  1  0  0  0  0
 39 70  1  0  0  0  0
 39 80  2  0  0  0  0
 40 43  1  0  0  0  0
 41 50  1  0  0  0  0
 42 66  1  0  0  0  0
 43 45  1  0  0  0  0
 44 46  1  0  0  0  0
 44 47  1  0  0  0  0
 45 49  1  0  0  0  0
 46 51  1  0  0  0  0
 47 67  1  0  0  0  0
 48 51  1  0  0  0  0
 48 67  1  0  0  0  0
 49 71  1  0  0  0  0
 50 66  1  0  0  0  0
 51 65  1  0  0  0  0
 52 61  1  0  0  0  0
 53 63  1  0  0  0  0
 54 63  1  0  0  0  0
 55 63  1  0  0  0  0
 56 73  1  0  0  0  0
 57 74  1  0  0  0  0
 58 73  1  0  0  0  0
 59 82  1  0  0  0  0
 60 63  1  0  0  0  0
 60 72  1  0  0  0  0
 61 74  1  0  0  0  0
 62 85  1  0  0  0  0
 62 86  1  0  0  0  0
 62 87  1  0  0  0  0
 64 65  1  0  0  0  0
M  CHG  1  74   1
M  ISO  4  39 100  59 101  70 100  82 101
M  END
> <Batch ID>
0041

> <Smiles>
CNC(C)C(=O)NC(C(=O)N1Cc2cc([101O:1][101CH2:1]C(=O)N(C)Cc3ccc([100NH:0][100C:0](=O)N4CCCC(n5nc(-c6ccc(Oc7ccc(F)cc7F)cc6)c(C(N)=O)c5N)C4)cc3C(F)(F)F)ccc2CC1C(=O)NC1CCCc2ccccc21)C(C)(C)C

> <Shape>
0.265

> <Color>
0.073

> <Negative vol penalty>
0.000

$$$$

  -OEChem-04042322093D

 92101  0     1  0  0  0  0  0999 V2000
  -22.7169  -37.4174   24.5272 C   0  0  0  0  0  0  0  0  0  0  0  0
  -22.4869  -36.4837   23.5219 C   0  0  0  0  0  0  0  0  0  0  0  0
  -23.5521   -9.2654   19.8153 C   0  0  0  0  0  0  0  0  0  0  0  0
  -23.6666  -10.5542   21.8556 C   0  0  0  0  0  0  0  0  0  0  0  0
  -23.9645  -37.4801   25.1465 C   0  0  0  0  0  0  0  0  0  0  0  0
  -23.5047  -35.6129   23.1344 C   0  0  0  0  0  0  0  0  0  0  0  0
  -24.5308  -28.9479   20.7176 C   0  0  0  0  0  0  0  0  0  0  0  0
  -22.8499   -8.2646   20.4869 C   0  0  0  0  0  0  0  0  0  0  0  0
  -22.9645   -9.5534   22.5272 C   0  0  0  0  0  0  0  0  0  0  0  0
  -25.1665  -28.2634   19.6826 C   0  0  0  0  0  0  0  0  0  0  0  0
  -19.6828   -7.7207   21.5388 C   0  0  0  0  0  0  0  0  0  0  0  0
  -18.5604   -7.1824   20.9096 C   0  0  0  0  0  0  0  0  0  0  0  0
  -27.2569  -28.4102   20.8776 C   0  0  0  0  0  0  0  0  0  0  0  0
  -26.7932  -20.7125   19.0094 C   0  0  0  0  0  0  0  0  0  0  0  0
  -28.9962  -19.5023   20.2198 C   0  0  0  0  0  0  0  0  0  0  0  0
  -19.5872   -4.9958   20.9487 C   0  0  0  0  0  0  0  0  0  0  0  0
  -23.9605  -10.4102   20.4997 C   0  0  0  0  0  0  0  0  0  0  0  0
  -24.2499  -12.1904   18.6956 C   0  0  0  0  0  0  0  0  0  0  0  0
  -24.9952  -36.6032   24.7731 C   0  0  0  0  0  0  0  0  0  0  0  0
  -25.2568  -29.3789   21.8372 C   0  0  0  0  0  0  0  0  0  0  0  0
  -24.7677  -35.6649   23.7483 C   0  0  0  0  0  0  0  0  0  0  0  0
  -26.6276  -29.0977   21.9266 C   0  0  0  0  0  0  0  0  0  0  0  0
  -26.9477  -19.3275   18.9509 C   0  0  0  0  0  0  0  0  0  0  0  0
  -27.7403  -21.4924   19.6731 C   0  0  0  0  0  0  0  0  0  0  0  0
  -28.0492  -18.7223   19.5560 C   0  0  0  0  0  0  0  0  0  0  0  0
  -22.5561   -8.4086   21.8428 C   0  0  0  0  0  0  0  0  0  0  0  0
  -26.5303  -27.9970   19.7612 C   0  0  0  0  0  0  0  0  0  0  0  0
  -20.7575   -6.8966   21.8730 C   0  0  0  0  0  0  0  0  0  0  0  0
  -18.5126   -5.8199   20.6145 C   0  0  0  0  0  0  0  0  0  0  0  0
  -20.7096   -5.5341   21.5780 C   0  0  0  0  0  0  0  0  0  0  0  0
  -28.8418  -20.8873   20.2783 C   0  0  0  0  0  0  0  0  0  0  0  0
  -24.6863  -11.4441   19.8067 C   0  0  0  0  0  0  0  0  0  0  0  0
  -25.2962  -13.0356   18.4174 C   0  0  0  0  0  0  0  0  0  0  0  0
  -27.1907  -24.9357   18.3178 C   0  0  0  0  0  0  0  0  0  0  0  0
  -26.1005  -25.0056   17.5362 C   0  0  0  0  0  0  0  0  0  0  0  0
  -25.5667  -23.8718   16.8230 C   0  0  0  0  0  0  0  0  0  0  0  0
  -24.4789  -23.9575   16.0475 C   0  0  0  0  0  0  0  0  0  0  0  0
  -23.9996  -22.7449   15.3525 C   0  0  0  0  0  0  0  0  0  0  0  0
  -23.0096  -12.1255   17.9792 C   0  0  0  0  0  0  0  0  0  0  0  0
  -25.9137  -32.2066   23.1321 C   0  0  0  0  0  0  0  0  0  0  0  0
  -27.2320  -30.3911   25.4748 C   0  0  0  0  0  0  0  0  0  0  0  0
  -29.2598  -27.4134   25.6724 C   0  0  0  0  0  0  0  0  0  0  0  0
  -29.2675  -16.5757   20.0602 C   0  0  0  0  0  0  0  0  0  0  0  0
  -26.3417  -36.7404   25.4384 C   0  0  0  0  0  0  0  0  0  0  0  0
  -24.5511  -30.0926   22.9575 C   0  0  0  0  0  0  0  0  0  0  0  0
  -27.4482  -29.5211   23.1165 C   0  0  0  0  0  0  0  0  0  0  0  0
  -27.2506  -35.5319   25.2289 C   0  0  0  0  0  0  0  0  0  0  0  0
  -30.0377  -13.1019   20.1880 C   0  0  0  0  0  0  0  0  0  0  0  0
  -29.9857  -24.8715   18.9532 C   0  0  0  0  0  0  0  0  0  0  0  0
  -27.2444  -35.1069   23.7639 C   0  0  0  0  0  0  0  0  0  0  0  0
  -29.2798  -26.2130   18.7900 C   0  0  0  0  0  0  0  0  0  0  0  0
  -28.6782  -12.4223   20.0088 C   0  0  0  0  0  0  0  0  0  0  0  0
  -29.9279  -14.3799   21.0178 C   0  0  0  0  0  0  0  0  0  0  0  0
  -27.5707  -14.6664   20.3616 C   0  0  0  0  0  0  0  0  0  0  0  0
  -29.3254  -23.7880   18.1069 C   0  0  0  0  0  0  0  0  0  0  0  0
  -25.8389  -34.6867   23.3173 C   0  0  1  0  0  0  0  0  0  0  0  0
  -27.7847  -26.0969   19.0830 C   0  0  1  0  0  0  0  0  0  1  0  0
  -25.4903  -30.9363   23.8139 C   0  0  1  0  0  0  0  0  0  0  0  0
  -27.6204  -13.4095   19.4777 C   0  0  2  0  0  0  0  0  0  0  0  0
  -25.9188  -18.5169   18.2313 C   0  0  0  0  0  0  0  0  0  0  0  0
  -29.4578  -25.6918   27.4873 C   0  0  0  0  0  0  0  0  0  0  0  0
  -29.5825  -32.0870   26.4282 C   0  0  0  0  0  0  0  0  0  0  0  0
  -30.7899  -29.9688   26.9974 C   0  0  0  0  0  0  0  0  0  0  0  0
  -28.6513  -30.5321   28.1514 C   0  0  0  0  0  0  0  0  0  0  0  0
  -22.6230  -21.4839   13.9825 C   0  0  0  0  0  0  0  0  0  0  0  0
  -28.6173  -25.2062   23.8085 C   0  0  0  0  0  0  0  0  0  0  0  0
  -27.5385  -22.9786   19.7129 C   0  0  0  0  0  0  0  0  0  0  0  0
  -28.5990  -29.8039   25.7309 C   0  0  1  0  0  0  0  0  0  0  0  0
  -28.8177  -26.0431   26.1533 C   0  0  2  0  0  0  0  0  0  0  0  0
  -29.3962  -30.6025   26.8005 C   0  0  0  0  0  0  0  0  0  0  0  0
  -25.9142  -11.7851   20.2068 N   0  0  0  0  0  0  0  0  0  0  0  0
  -22.9584  -22.7645   14.5966 N   0  0  0  0  0  0  0  0  0  0  0  0
  -26.2583  -12.7549   19.3424 N   0  0  0  0  0  0  0  0  0  0  0  0
  -26.7138  -30.2216   24.1831 N   0  0  0  0  0  0  0  0  0  0  0  0
  -28.9101  -15.2685   20.4528 N   0  0  0  0  0  0  0  0  0  0  0  0
  -25.4778  -13.9841   17.4741 N   0  0  0  0  0  0  0  0  0  0  0  0
  -22.0437  -11.2003   18.3981 N   0  0  0  0  0  0  0  0  0  0  0  0
  -28.2241  -17.3171   19.5067 N   0  0  0  0  0  0  0  0  0  0  0  0
  -25.5328  -33.3562   23.7975 N   0  0  0  0  0  0  0  0  0  0  0  0
  -28.3838  -28.4013   26.0699 N   0  0  0  0  0  0  0  0  0  0  0  0
  -27.8500  -23.6508   18.4040 N   0  3  1  0  0  0  0  0  0  0  0  0
  -29.1971  -24.9985   25.1604 N   0  3  0  0  0  0  0  0  0  0  0  0
  -22.7717  -12.8546   16.9866 O   0  0  0  0  0  0  0  0  0  0  0  0
  -26.5410  -32.1480   22.0810 O   0  0  0  0  0  0  0  0  0  0  0  0
  -26.6425  -30.9723   26.3894 O   0  0  0  0  0  0  0  0  0  0  0  0
  -30.2821  -27.5903   25.0135 O   0  0  0  0  0  0  0  0  0  0  0  0
  -30.4211  -16.9965   20.1793 O   0  0  0  0  0  0  0  0  0  0  0  0
  -21.8708   -7.4324   22.4984 O   0  0  0  0  0  0  0  0  0  0  0  0
  -27.1534  -27.3297   18.7520 O   0  0  0  0  0  0  0  0  0  1  0  0
  -17.4340   -5.3029   20.0116 F   0  0  0  0  0  0  0  0  0  0  0  0
  -21.7384   -4.7371   21.8977 F   0  0  0  0  0  0  0  0  0  0  0  0
  -30.0339  -21.8201   21.1080 Cl  0  0  0  0  0  0  0  0  0  0  0  0
  1  2  1  0  0  0  0
  1  5  2  0  0  0  0
  2  6  2  0  0  0  0
  3  8  2  0  0  0  0
  3 17  1  0  0  0  0
  4  9  1  0  0  0  0
  4 17  2  0  0  0  0
  5 19  1  0  0  0  0
  6 21  1  0  0  0  0
  7 10  2  0  0  0  0
  7 20  1  0  0  0  0
  8 26  1  0  0  0  0
  9 26  2  0  0  0  0
 10 27  1  0  0  0  0
 11 12  2  0  0  0  0
 11 28  1  0  0  0  0
 12 29  1  0  0  0  0
 13 22  1  0  0  0  0
 13 27  2  0  0  0  0
 14 23  2  0  0  0  0
 14 24  1  0  0  0  0
 15 25  2  0  0  0  0
 15 31  1  0  0  0  0
 16 29  2  0  0  0  0
 16 30  1  0  0  0  0
 17 32  1  0  0  0  0
 18 32  1  0  0  0  0
 18 33  2  0  0  0  0
 18 39  1  0  0  0  0
 19 21  2  0  0  0  0
 19 44  1  0  0  0  0
 20 22  2  0  0  0  0
 20 45  1  0  0  0  0
 21 56  1  0  0  0  0
 22 46  1  0  0  0  0
 23 25  1  0  0  0  0
 23 60  1  0  0  0  0
 24 31  2  0  0  0  0
 24 67  1  0  0  0  0
 25 78  1  0  0  0  0
 26 88  1  0  0  0  0
 27 89  1  0  0  0  0
 28 30  2  0  0  0  0
 28 88  1  0  0  0  0
 29 90  1  0  0  0  0
 30 91  1  0  0  0  0
 31 92  1  0  0  0  0
 32 71  2  0  0  0  0
 33 73  1  0  0  0  0
 33 76  1  0  0  0  0
 34 35  2  0  0  0  0
 34 57  1  0  0  0  0
 34 81  1  0  0  0  0
 35 36  1  0  0  0  0
 36 37  2  0  0  0  0
 37 38  1  0  0  0  0
 38 72  2  0  0  0  0
 39 77  1  0  0  0  0
 39 83  2  0  0  0  0
 40 58  1  0  0  0  0
 40 79  1  0  0  0  0
 40 84  2  0  0  0  0
 41 68  1  0  0  0  0
 41 74  1  0  0  0  0
 41 85  2  0  0  0  0
 42 69  1  0  0  0  0
 42 80  1  0  0  0  0
 42 86  2  0  0  0  0
 43 75  1  0  0  0  0
 43 78  1  0  0  0  0
 43 87  2  0  0  0  0
 44 47  1  0  0  0  0
 45 58  1  0  0  0  0
 46 74  1  0  0  0  0
 47 50  1  0  0  0  0
 48 52  1  0  0  0  0
 48 53  1  0  0  0  0
 49 51  1  0  0  0  0
 49 55  1  0  0  0  0
 50 56  1  0  0  0  0
 51 57  1  0  0  0  0
 52 59  1  0  0  0  0
 53 75  1  0  0  0  0
 54 59  1  0  0  0  0
 54 75  1  0  0  0  0
 55 81  1  0  0  0  0
 56 79  1  0  0  0  0
 57 89  1  0  0  0  0
 58 74  1  0  0  0  0
 59 73  1  0  0  0  0
 61 69  1  0  0  0  0
 62 70  1  0  0  0  0
 63 70  1  0  0  0  0
 64 70  1  0  0  0  0
 65 72  1  0  0  0  0
 66 82  1  0  0  0  0
 67 81  1  0  0  0  0
 68 70  1  0  0  0  0
 68 80  1  0  0  0  0
 69 82  1  0  0  0  0
 71 73  1  0  0  0  0
M  CHG  2  81   1  82   1
M  ISO  4  43 100  57 101  78 100  89 101
M  END
> <Batch ID>
0041

> <Smiles>
CN=CC=CC=C1N(Cc2cc(C)c([100NH:0][100C:0](=O)N3CCCC(n4nc(-c5ccc(Oc6ccc(F)cc6F)cc5)c(C(N)=O)c4N)C3)cc2Cl)CCC[101CH:1]1[101O:1]c1ccc2c(c1)CN(C(=O)C(NC(=O)C(C)NC)C(C)(C)C)C(C(=O)NC1CCCc3ccccc31)C2

> <Shape>
0.307

> <Color>
0.077

> <Negative vol penalty>
0.000

$$$$

  -OEChem-04042322093D

 95104  0     1  0  0  0  0  0999 V2000
  -18.3623  -24.9580   24.0232 C   0  0  0  0  0  0  0  0  0  0  0  0
  -19.7005  -24.6805   23.7629 C   0  0  0  0  0  0  0  0  0  0  0  0
  -23.0839  -10.9693   21.9128 C   0  0  0  0  0  0  0  0  0  0  0  0
  -23.1728  -13.3819   21.8190 C   0  0  0  0  0  0  0  0  0  0  0  0
  -17.8293  -26.1994   23.6789 C   0  0  0  0  0  0  0  0  0  0  0  0
  -20.5062  -25.6440   23.1572 C   0  0  0  0  0  0  0  0  0  0  0  0
  -26.4588  -26.6448   24.1918 C   0  0  0  0  0  0  0  0  0  0  0  0
  -29.0244  -24.5313   17.3482 C   0  0  0  0  0  0  0  0  0  0  0  0
  -28.7097  -23.2470   16.9044 C   0  0  0  0  0  0  0  0  0  0  0  0
  -22.1046  -11.0439   22.9032 C   0  0  0  0  0  0  0  0  0  0  0  0
  -22.1934  -13.4564   22.8094 C   0  0  0  0  0  0  0  0  0  0  0  0
  -27.6088  -26.2490   23.5102 C   0  0  0  0  0  0  0  0  0  0  0  0
  -18.8351  -13.1419   23.0178 C   0  0  0  0  0  0  0  0  0  0  0  0
  -17.7913  -14.0475   22.8280 C   0  0  0  0  0  0  0  0  0  0  0  0
  -31.1026  -23.7059   18.2631 C   0  0  0  0  0  0  0  0  0  0  0  0
  -27.6414  -28.3634   22.3494 C   0  0  0  0  0  0  0  0  0  0  0  0
  -32.4774  -17.7290   19.0127 C   0  0  0  0  0  0  0  0  0  0  0  0
  -18.4117  -15.1893   24.8648 C   0  0  0  0  0  0  0  0  0  0  0  0
  -23.6181  -12.1383   21.3707 C   0  0  0  0  0  0  0  0  0  0  0  0
  -30.7878  -22.4215   17.8193 C   0  0  0  0  0  0  0  0  0  0  0  0
  -24.4297  -12.0154   18.9554 C   0  0  0  0  0  0  0  0  0  0  0  0
  -18.6313  -27.1822   23.0775 C   0  0  0  0  0  0  0  0  0  0  0  0
  -25.8842  -27.9007   23.9489 C   0  0  0  0  0  0  0  0  0  0  0  0
  -19.9830  -26.8993   22.8033 C   0  0  0  0  0  0  0  0  0  0  0  0
  -26.4856  -28.7738   23.0311 C   0  0  0  0  0  0  0  0  0  0  0  0
  -30.2209  -24.7608   18.0276 C   0  0  0  0  0  0  0  0  0  0  0  0
  -29.5913  -22.1921   17.1399 C   0  0  0  0  0  0  0  0  0  0  0  0
  -32.2787  -18.7030   19.9911 C   0  0  0  0  0  0  0  0  0  0  0  0
  -31.8635  -16.4824   19.1346 C   0  0  0  0  0  0  0  0  0  0  0  0
  -31.4663  -18.4304   21.0917 C   0  0  0  0  0  0  0  0  0  0  0  0
  -30.8524  -17.1838   21.2137 C   0  0  0  0  0  0  0  0  0  0  0  0
  -31.0510  -16.2098   20.2352 C   0  0  0  0  0  0  0  0  0  0  0  0
  -21.6593  -12.2874   23.3515 C   0  0  0  0  0  0  0  0  0  0  0  0
  -28.1987  -27.1071   22.5868 C   0  0  0  0  0  0  0  0  0  0  0  0
  -19.6671  -13.2599   24.1311 C   0  0  0  0  0  0  0  0  0  0  0  0
  -17.5796  -15.0712   23.7515 C   0  0  0  0  0  0  0  0  0  0  0  0
  -19.4554  -14.2837   25.0546 C   0  0  0  0  0  0  0  0  0  0  0  0
  -24.6302  -12.0619   20.3481 C   0  0  0  0  0  0  0  0  0  0  0  0
  -25.6963  -11.9491   18.4282 C   0  0  0  0  0  0  0  0  0  0  0  0
  -31.7262  -21.3379   18.0785 C   0  0  0  0  0  0  0  0  0  0  0  0
  -23.2079  -12.0308   18.2054 C   0  0  0  0  0  0  0  0  0  0  0  0
  -23.0840  -28.9083   22.8321 C   0  0  0  0  0  0  0  0  0  0  0  0
  -24.2587  -31.8263   23.6242 C   0  0  0  0  0  0  0  0  0  0  0  0
  -26.9886  -33.7911   24.2021 C   0  0  0  0  0  0  0  0  0  0  0  0
  -31.0479  -13.6982   20.4298 C   0  0  0  0  0  0  0  0  0  0  0  0
  -29.1937  -26.6806   20.5175 C   0  0  0  0  0  0  0  0  0  1  0  0
  -17.9986  -28.4924   22.6803 C   0  0  0  0  0  0  0  0  0  0  0  0
  -24.6589  -28.3234   24.7119 C   0  0  0  0  0  0  0  0  0  0  0  0
  -25.9196  -30.1408   22.7491 C   0  0  0  0  0  0  0  0  0  0  0  0
  -19.0133  -29.5933   22.3827 C   0  0  0  0  0  0  0  0  0  0  0  0
  -30.1081  -10.4020   19.4658 C   0  0  0  0  0  0  0  0  0  0  0  0
  -20.1272  -29.0642   21.4849 C   0  0  0  0  0  0  0  0  0  0  0  0
  -28.5786  -10.4511   19.4500 C   0  0  0  0  0  0  0  0  0  0  0  0
  -30.6909  -11.2448   20.5989 C   0  0  0  0  0  0  0  0  0  0  0  0
  -28.6921  -12.6846   20.6270 C   0  0  0  0  0  0  0  0  0  0  0  0
  -20.8952  -27.9275   22.1702 C   0  0  1  0  0  0  0  0  0  0  0  0
  -23.8659  -29.4206   24.0085 C   0  0  1  0  0  0  0  0  0  0  0  0
  -28.0612  -11.9029   19.4632 C   0  0  2  0  0  0  0  0  0  0  0  0
  -29.2293  -20.8267   16.6536 C   0  0  0  0  0  0  0  0  0  0  0  0
  -32.0946  -15.4600   18.0692 C   0  0  0  0  0  0  0  0  0  0  0  0
  -31.2554  -19.4772   22.1394 C   0  0  0  0  0  0  0  0  0  0  0  0
  -29.9815  -16.8963   22.3969 C   0  0  0  0  0  0  0  0  0  0  0  0
  -27.6332  -36.1433   24.7931 C   0  0  0  0  0  0  0  0  0  0  0  0
  -23.6500  -32.7084   20.7674 C   0  0  0  0  0  0  0  0  0  0  0  0
  -25.1458  -34.6826   21.1324 C   0  0  0  0  0  0  0  0  0  0  0  0
  -23.0939  -34.4008   22.5227 C   0  0  0  0  0  0  0  0  0  0  0  0
  -28.3095  -32.9237   26.7044 C   0  0  0  0  0  0  0  0  0  0  0  0
  -30.5592  -26.1434   18.5051 C   0  0  0  0  0  0  0  0  0  0  0  0
  -32.9499  -20.0369   19.8349 C   0  0  0  0  0  0  0  0  0  0  0  0
  -25.0747  -32.8791   22.9138 C   0  0  1  0  0  0  0  0  0  0  0  0
  -27.3154  -34.7556   25.3279 C   0  0  2  0  0  0  0  0  0  0  0  0
  -24.2509  -33.6413   21.8377 C   0  0  0  0  0  0  0  0  0  0  0  0
  -25.9224  -12.0279   20.6844 N   0  0  0  0  0  0  0  0  0  0  0  0
  -26.5453  -11.9592   19.4956 N   0  0  0  0  0  0  0  0  0  0  0  0
  -24.7168  -30.5056   23.5157 N   0  0  0  0  0  0  0  0  0  0  0  0
  -30.1592  -12.6083   20.5453 N   0  0  0  0  0  0  0  0  0  0  0  0
  -26.1554  -11.8836   17.1604 N   0  0  0  0  0  0  0  0  0  0  0  0
  -21.9954  -12.1019   18.9048 N   0  0  0  0  0  0  0  0  0  0  0  0
  -30.4258  -14.9440   20.3551 N   0  0  0  0  0  0  0  0  0  0  0  0
  -32.0221  -21.0636   19.4177 N   0  0  0  0  0  0  0  0  0  0  0  0
  -21.8166  -28.4597   23.1512 N   0  0  0  0  0  0  0  0  0  0  0  0
  -25.6332  -33.7344   23.9554 N   0  0  0  0  0  0  0  0  0  0  0  0
  -30.3775  -26.2822   19.9316 N   0  0  0  0  0  0  0  0  0  0  0  0
  -28.4926  -34.2690   26.1015 N   0  3  0  0  0  0  0  0  0  0  0  0
  -32.2429  -20.7143   17.1361 O   0  0  0  0  0  0  0  0  0  0  0  0
  -23.1912  -11.9663   16.9528 O   0  0  0  0  0  0  0  0  0  0  0  0
  -23.5924  -28.9205   21.7171 O   0  0  0  0  0  0  0  0  0  0  0  0
  -23.2559  -32.1642   24.2582 O   0  0  0  0  0  0  0  0  0  0  0  0
  -27.8499  -33.1547   23.5991 O   0  0  0  0  0  0  0  0  0  0  0  0
  -32.2695  -13.5361   20.3721 O   0  0  0  0  0  0  0  0  0  0  0  0
  -28.1599  -26.9647   19.9200 O   0  0  0  0  0  0  0  0  0  0  0  0
  -20.7034  -12.3605   24.3177 O   0  0  0  0  0  0  0  0  0  0  0  0
  -29.3208  -26.7230   21.9197 O   0  0  0  0  0  0  0  0  0  1  0  0
  -16.5782  -15.9417   23.5683 F   0  0  0  0  0  0  0  0  0  0  0  0
  -20.2522  -14.4029   26.1255 F   0  0  0  0  0  0  0  0  0  0  0  0
  1  2  1  0  0  0  0
  1  5  2  0  0  0  0
  2  6  2  0  0  0  0
  3 10  2  0  0  0  0
  3 19  1  0  0  0  0
  4 11  1  0  0  0  0
  4 19  2  0  0  0  0
  5 22  1  0  0  0  0
  6 24  1  0  0  0  0
  7 12  2  0  0  0  0
  7 23  1  0  0  0  0
  8  9  2  0  0  0  0
  8 26  1  0  0  0  0
  9 27  1  0  0  0  0
 10 33  1  0  0  0  0
 11 33  2  0  0  0  0
 12 34  1  0  0  0  0
 13 14  2  0  0  0  0
 13 35  1  0  0  0  0
 14 36  1  0  0  0  0
 15 20  1  0  0  0  0
 15 26  2  0  0  0  0
 16 25  1  0  0  0  0
 16 34  2  0  0  0  0
 17 28  1  0  0  0  0
 17 29  2  0  0  0  0
 18 36  2  0  0  0  0
 18 37  1  0  0  0  0
 19 38  1  0  0  0  0
 20 27  2  0  0  0  0
 20 40  1  0  0  0  0
 21 38  1  0  0  0  0
 21 39  2  0  0  0  0
 21 41  1  0  0  0  0
 22 24  2  0  0  0  0
 22 47  1  0  0  0  0
 23 25  2  0  0  0  0
 23 48  1  0  0  0  0
 24 56  1  0  0  0  0
 25 49  1  0  0  0  0
 26 68  1  0  0  0  0
 27 59  1  0  0  0  0
 28 30  2  0  0  0  0
 28 69  1  0  0  0  0
 29 32  1  0  0  0  0
 29 60  1  0  0  0  0
 30 31  1  0  0  0  0
 30 61  1  0  0  0  0
 31 32  2  0  0  0  0
 31 62  1  0  0  0  0
 32 79  1  0  0  0  0
 33 92  1  0  0  0  0
 34 93  1  0  0  0  0
 35 37  2  0  0  0  0
 35 92  1  0  0  0  0
 36 94  1  0  0  0  0
 37 95  1  0  0  0  0
 38 73  2  0  0  0  0
 39 74  1  0  0  0  0
 39 77  1  0  0  0  0
 40 80  1  0  0  0  0
 40 85  2  0  0  0  0
 41 78  1  0  0  0  0
 41 86  2  0  0  0  0
 42 57  1  0  0  0  0
 42 81  1  0  0  0  0
 42 87  2  0  0  0  0
 43 70  1  0  0  0  0
 43 75  1  0  0  0  0
 43 88  2  0  0  0  0
 44 71  1  0  0  0  0
 44 82  1  0  0  0  0
 44 89  2  0  0  0  0
 45 76  1  0  0  0  0
 45 79  1  0  0  0  0
 45 90  2  0  0  0  0
 46 83  1  0  0  0  0
 46 91  2  0  0  0  0
 46 93  1  0  0  0  0
 47 50  1  0  0  0  0
 48 57  1  0  0  0  0
 49 75  1  0  0  0  0
 50 52  1  0  0  0  0
 51 53  1  0  0  0  0
 51 54  1  0  0  0  0
 52 56  1  0  0  0  0
 53 58  1  0  0  0  0
 54 76  1  0  0  0  0
 55 58  1  0  0  0  0
 55 76  1  0  0  0  0
 56 81  1  0  0  0  0
 57 75  1  0  0  0  0
 58 74  1  0  0  0  0
 63 71  1  0  0  0  0
 64 72  1  0  0  0  0
 65 72  1  0  0  0  0
 66 72  1  0  0  0  0
 67 84  1  0  0  0  0
 68 83  1  0  0  0  0
 69 80  1  0  0  0  0
 70 72  1  0  0  0  0
 70 82  1  0  0  0  0
 71 84  1  0  0  0  0
 73 74  1  0  0  0  0
M  CHG  1  84   1
M  ISO  4  45 100  46 101  79 100  93 101
M  END
> <Batch ID>
0041

> <Smiles>
CNC(C)C(=O)NC(C(=O)N1Cc2cc([101O:1][101C:1](=O)NCc3ccc(C)c(C(=O)NCc4cc(C)c([100NH:0][100C:0](=O)N5CCCC(n6nc(-c7ccc(Oc8ccc(F)cc8F)cc7)c(C(N)=O)c6N)C5)c(C)c4C)c3)ccc2CC1C(=O)NC1CCCc2ccccc21)C(C)(C)C

> <Shape>
0.282

> <Color>
0.095

> <Negative vol penalty>
0.000

$$$$

  -OEChem-04042322093D

 81 89  0     1  0  0  0  0  0999 V2000
  -28.6496  -37.1676   18.8730 C   0  0  0  0  0  0  0  0  0  0  0  0
  -28.8357  -35.8089   18.6390 C   0  0  0  0  0  0  0  0  0  0  0  0
  -24.3433   -9.3490   21.5608 C   0  0  0  0  0  0  0  0  0  0  0  0
  -24.7459  -10.7125   23.5142 C   0  0  0  0  0  0  0  0  0  0  0  0
  -29.1938  -20.6472   18.0936 C   0  0  0  0  0  0  0  0  0  0  0  0
  -28.2052  -37.6045   20.1202 C   0  0  0  0  0  0  0  0  0  0  0  0
  -28.5787  -34.8864   19.6526 C   0  0  0  0  0  0  0  0  0  0  0  0
  -26.3240  -29.2302   18.9974 C   0  0  0  0  0  0  0  0  0  0  0  0
  -29.2161  -19.2740   18.3375 C   0  0  0  0  0  0  0  0  0  0  0  0
  -24.0333   -8.2646   22.3815 C   0  0  0  0  0  0  0  0  0  0  0  0
  -24.4359   -9.6281   24.3350 C   0  0  0  0  0  0  0  0  0  0  0  0
  -26.9329  -27.9766   18.9561 C   0  0  0  0  0  0  0  0  0  0  0  0
  -21.4004   -7.2038   24.2188 C   0  0  0  0  0  0  0  0  0  0  0  0
  -20.2706   -6.4509   23.8989 C   0  0  0  0  0  0  0  0  0  0  0  0
  -27.7706  -20.9662   20.0198 C   0  0  0  0  0  0  0  0  0  0  0  0
  -26.4832  -27.6873   21.3084 C   0  0  0  0  0  0  0  0  0  0  0  0
  -21.6525   -4.4855   23.6443 C   0  0  0  0  0  0  0  0  0  0  0  0
  -24.6997  -10.5729   22.1272 C   0  0  0  0  0  0  0  0  0  0  0  0
  -28.4711  -21.4933   18.9348 C   0  0  0  0  0  0  0  0  0  0  0  0
  -24.1321  -12.6662   20.7842 C   0  0  0  0  0  0  0  0  0  0  0  0
  -27.9333  -36.6862   21.1466 C   0  0  0  0  0  0  0  0  0  0  0  0
  -25.7990  -29.7271   20.1990 C   0  0  0  0  0  0  0  0  0  0  0  0
  -28.1315  -35.3115   20.9151 C   0  0  0  0  0  0  0  0  0  0  0  0
  -25.8659  -28.9463   21.3617 C   0  0  0  0  0  0  0  0  0  0  0  0
  -27.7929  -19.5930   20.2636 C   0  0  0  0  0  0  0  0  0  0  0  0
  -28.5156  -18.7469   19.4224 C   0  0  0  0  0  0  0  0  0  0  0  0
  -24.0795   -8.4042   23.7686 C   0  0  0  0  0  0  0  0  0  0  0  0
  -27.0152  -27.2062   20.1123 C   0  0  0  0  0  0  0  0  0  0  0  0
  -22.6563   -6.5976   24.2513 C   0  0  0  0  0  0  0  0  0  0  0  0
  -20.3967   -5.0918   23.6117 C   0  0  0  0  0  0  0  0  0  0  0  0
  -22.7823   -5.2385   23.9641 C   0  0  0  0  0  0  0  0  0  0  0  0
  -25.0206  -11.6933   21.2799 C   0  0  0  0  0  0  0  0  0  0  0  0
  -24.9229  -13.5046   20.0370 C   0  0  0  0  0  0  0  0  0  0  0  0
  -28.4481  -22.9428   18.6769 C   0  0  0  0  0  0  0  0  0  0  0  0
  -27.5262  -23.7980   19.1459 C   0  0  0  0  0  0  0  0  0  0  0  0
  -22.7183  -12.8002   20.9815 C   0  0  0  0  0  0  0  0  0  0  0  0
  -26.4097  -32.2430   22.0432 C   0  0  0  0  0  0  0  0  0  0  0  0
  -23.8019  -31.1973   23.6643 C   0  0  0  0  0  0  0  0  0  0  0  0
  -21.7404  -28.5995   24.4695 C   0  0  0  0  0  0  0  0  0  0  0  0
  -29.5857  -16.4676   19.3430 C   0  0  0  0  0  0  0  0  0  0  0  0
  -27.5001  -37.2095   22.4930 C   0  0  0  0  0  0  0  0  0  0  0  0
  -25.1215  -31.0699   20.2211 C   0  0  0  0  0  0  0  0  0  0  0  0
  -25.2996  -29.4256   22.6725 C   0  0  0  0  0  0  0  0  0  0  0  0
  -26.8918  -36.1392   23.3956 C   0  0  0  0  0  0  0  0  0  0  0  0
  -29.7221  -13.0096   18.5060 C   0  0  0  0  0  0  0  0  0  0  0  0
  -27.7549  -34.8815   23.3888 C   0  0  0  0  0  0  0  0  0  0  0  0
  -28.4380  -12.4389   19.1122 C   0  0  0  0  0  0  0  0  0  0  0  0
  -30.3312  -14.0976   19.3886 C   0  0  0  0  0  0  0  0  0  0  0  0
  -28.1291  -14.6111   20.3664 C   0  0  0  0  0  0  0  0  0  0  0  0
  -27.8397  -34.2782   21.9816 C   0  0  1  0  0  0  0  0  0  0  0  0
  -25.0788  -31.6948   21.6121 C   0  0  1  0  0  0  0  0  0  0  0  0
  -27.4437  -13.5572   19.4815 C   0  0  2  0  0  0  0  0  0  0  0  0
  -27.0335  -19.0555   21.4330 C   0  0  0  0  0  0  0  0  0  0  0  0
  -19.7170  -28.0439   25.8459 C   0  0  0  0  0  0  0  0  0  0  0  0
  -25.5140  -31.2294   26.1897 C   0  0  0  0  0  0  0  0  0  0  0  0
  -23.7822  -29.8010   27.2981 C   0  0  0  0  0  0  0  0  0  0  0  0
  -23.1850  -32.0868   26.4974 C   0  0  0  0  0  0  0  0  0  0  0  0
  -20.1901  -27.8000   22.0786 C   0  0  0  0  0  0  0  0  0  0  0  0
  -27.5367  -25.2625   18.8450 C   0  0  0  0  0  0  0  0  0  1  0  0
  -23.5672  -30.2430   24.8103 C   0  0  1  0  0  0  0  0  0  0  0  0
  -20.2271  -28.4808   24.4815 C   0  0  2  0  0  0  0  0  0  0  0  0
  -24.0246  -30.8316   26.1748 C   0  0  0  0  0  0  0  0  0  0  0  0
  -26.2795  -11.8937   20.8811 N   0  0  0  0  0  0  0  0  0  0  0  0
  -26.1877  -13.0022   20.1268 N   0  0  0  0  0  0  0  0  0  0  0  0
  -24.6525  -30.7478   22.6444 N   0  0  0  0  0  0  0  0  0  0  0  0
  -29.3328  -15.1246   19.6939 N   0  0  0  0  0  0  0  0  0  0  0  0
  -24.6527  -14.6151   19.3185 N   0  0  0  0  0  0  0  0  0  0  0  0
  -22.0620  -11.8518   21.7778 N   0  0  0  0  0  0  0  0  0  0  0  0
  -28.5508  -17.3493   19.6532 N   0  0  0  0  0  0  0  0  0  0  0  0
  -26.6260  -33.5551   21.6677 N   0  0  0  0  0  0  0  0  0  0  0  0
  -22.1545  -29.8826   24.7584 N   0  0  0  0  0  0  0  0  0  0  0  0
  -19.7777  -27.4828   23.4701 N   0  3  0  0  0  0  0  0  0  0  0  0
  -22.0538  -13.7239   20.4535 O   0  0  0  0  0  0  0  0  0  0  0  0
  -27.1826  -31.5289   22.6713 O   0  0  0  0  0  0  0  0  0  0  0  0
  -23.2453  -32.2981   23.6703 O   0  0  0  0  0  0  0  0  0  0  0  0
  -22.4813  -27.6481   24.2315 O   0  0  0  0  0  0  0  0  0  0  0  0
  -30.6311  -16.8060   18.7822 O   0  0  0  0  0  0  0  0  0  0  0  0
  -23.7768   -7.3463   24.5698 O   0  0  0  0  0  0  0  0  0  0  0  0
  -27.6096  -25.9826   20.0748 O   0  0  0  0  0  0  0  0  0  1  0  0
  -19.3115   -4.3685   23.3061 F   0  0  0  0  0  0  0  0  0  0  0  0
  -23.9860   -4.6503   23.9950 F   0  0  0  0  0  0  0  0  0  0  0  0
  1  2  1  0  0  0  0
  1  6  2  0  0  0  0
  2  7  2  0  0  0  0
  3 10  2  0  0  0  0
  3 18  1  0  0  0  0
  4 11  1  0  0  0  0
  4 18  2  0  0  0  0
  5  9  2  0  0  0  0
  5 19  1  0  0  0  0
  6 21  1  0  0  0  0
  7 23  1  0  0  0  0
  8 12  2  0  0  0  0
  8 22  1  0  0  0  0
  9 26  1  0  0  0  0
 10 27  1  0  0  0  0
 11 27  2  0  0  0  0
 12 28  1  0  0  0  0
 13 14  2  0  0  0  0
 13 29  1  0  0  0  0
 14 30  1  0  0  0  0
 15 19  2  0  0  0  0
 15 25  1  0  0  0  0
 16 24  1  0  0  0  0
 16 28  2  0  0  0  0
 17 30  2  0  0  0  0
 17 31  1  0  0  0  0
 18 32  1  0  0  0  0
 19 34  1  0  0  0  0
 20 32  1  0  0  0  0
 20 33  2  0  0  0  0
 20 36  1  0  0  0  0
 21 23  2  0  0  0  0
 21 41  1  0  0  0  0
 22 24  2  0  0  0  0
 22 42  1  0  0  0  0
 23 50  1  0  0  0  0
 24 43  1  0  0  0  0
 25 26  2  0  0  0  0
 25 53  1  0  0  0  0
 26 69  1  0  0  0  0
 27 78  1  0  0  0  0
 28 79  1  0  0  0  0
 29 31  2  0  0  0  0
 29 78  1  0  0  0  0
 30 80  1  0  0  0  0
 31 81  1  0  0  0  0
 32 63  2  0  0  0  0
 33 64  1  0  0  0  0
 33 67  1  0  0  0  0
 34 35  2  0  0  0  0
 35 59  1  0  0  0  0
 36 68  1  0  0  0  0
 36 73  2  0  0  0  0
 37 51  1  0  0  0  0
 37 70  1  0  0  0  0
 37 74  2  0  0  0  0
 38 60  1  0  0  0  0
 38 65  1  0  0  0  0
 38 75  2  0  0  0  0
 39 61  1  0  0  0  0
 39 71  1  0  0  0  0
 39 76  2  0  0  0  0
 40 66  1  0  0  0  0
 40 69  1  0  0  0  0
 40 77  2  0  0  0  0
 41 44  1  0  0  0  0
 42 51  1  0  0  0  0
 43 65  1  0  0  0  0
 44 46  1  0  0  0  0
 45 47  1  0  0  0  0
 45 48  1  0  0  0  0
 46 50  1  0  0  0  0
 47 52  1  0  0  0  0
 48 66  1  0  0  0  0
 49 52  1  0  0  0  0
 49 66  1  0  0  0  0
 50 70  1  0  0  0  0
 51 65  1  0  0  0  0
 52 64  1  0  0  0  0
 54 61  1  0  0  0  0
 55 62  1  0  0  0  0
 56 62  1  0  0  0  0
 57 62  1  0  0  0  0
 58 72  1  0  0  0  0
 59 79  1  0  0  0  0
 60 62  1  0  0  0  0
 60 71  1  0  0  0  0
 61 72  1  0  0  0  0
 63 64  1  0  0  0  0
M  CHG  1  72   1
M  ISO  4  40 100  59 101  69 100  79 101
M  END
> <Batch ID>
0041

> <Smiles>
CNC(C)C(=O)NC(C(=O)N1Cc2cc([101O:1][101CH2:1]C=Cc3ccc([100NH:0][100C:0](=O)N4CCCC(n5nc(-c6ccc(Oc7ccc(F)cc7F)cc6)c(C(N)=O)c5N)C4)c(C)c3)ccc2CC1C(=O)NC1CCCc2ccccc21)C(C)(C)C

> <Shape>
0.304

> <Color>
0.137

> <Negative vol penalty>
0.000

$$$$

  -OEChem-04042322093D

 85 93  0     1  0  0  0  0  0999 V2000
  -30.8514  -33.8440   16.5220 C   0  0  0  0  0  0  0  0  0  0  0  0
  -30.4457  -32.5830   16.9470 C   0  0  0  0  0  0  0  0  0  0  0  0
  -23.1463   -9.6877   20.2902 C   0  0  0  0  0  0  0  0  0  0  0  0
  -23.7796  -10.1032   22.5844 C   0  0  0  0  0  0  0  0  0  0  0  0
  -30.6534  -34.9525   17.3442 C   0  0  0  0  0  0  0  0  0  0  0  0
  -29.8426  -32.4296   18.1949 C   0  0  0  0  0  0  0  0  0  0  0  0
  -25.4100  -28.4735   19.6803 C   0  0  0  0  0  0  0  0  0  0  0  0
  -22.4063   -8.5770   20.6955 C   0  0  0  0  0  0  0  0  0  0  0  0
  -23.0395   -8.9925   22.9898 C   0  0  0  0  0  0  0  0  0  0  0  0
  -25.4353  -27.2284   20.3072 C   0  0  0  0  0  0  0  0  0  0  0  0
  -19.7948   -8.2341   23.5534 C   0  0  0  0  0  0  0  0  0  0  0  0
  -18.9757   -8.3767   24.6733 C   0  0  0  0  0  0  0  0  0  0  0  0
  -24.9468  -28.2882   22.4185 C   0  0  0  0  0  0  0  0  0  0  0  0
  -31.5966  -18.9675   23.4702 C   0  0  0  0  0  0  0  0  0  0  0  0
  -31.8840  -16.9642   22.1508 C   0  0  0  0  0  0  0  0  0  0  0  0
  -20.2023   -6.6226   25.7938 C   0  0  0  0  0  0  0  0  0  0  0  0
  -23.8330  -10.4507   21.2346 C   0  0  0  0  0  0  0  0  0  0  0  0
  -24.1451  -12.9257   20.7011 C   0  0  0  0  0  0  0  0  0  0  0  0
  -30.0389  -34.8141   18.5987 C   0  0  0  0  0  0  0  0  0  0  0  0
  -25.1632  -29.6384   20.4210 C   0  0  0  0  0  0  0  0  0  0  0  0
  -29.6375  -33.5371   19.0351 C   0  0  0  0  0  0  0  0  0  0  0  0
  -24.9163  -29.5465   21.7982 C   0  0  0  0  0  0  0  0  0  0  0  0
  -30.2192  -18.9092   23.2588 C   0  0  0  0  0  0  0  0  0  0  0  0
  -29.6741  -17.8784   22.4934 C   0  0  0  0  0  0  0  0  0  0  0  0
  -30.5065  -16.9058   21.9394 C   0  0  0  0  0  0  0  0  0  0  0  0
  -22.3528   -8.2294   22.0453 C   0  0  0  0  0  0  0  0  0  0  0  0
  -25.2066  -27.1359   21.6769 C   0  0  0  0  0  0  0  0  0  0  0  0
  -20.8177   -7.2857   23.5536 C   0  0  0  0  0  0  0  0  0  0  0  0
  -19.1794   -7.5710   25.7935 C   0  0  0  0  0  0  0  0  0  0  0  0
  -21.0214   -6.4800   24.6739 C   0  0  0  0  0  0  0  0  0  0  0  0
  -32.4291  -17.9950   22.9161 C   0  0  0  0  0  0  0  0  0  0  0  0
  -24.5981  -11.5978   20.8164 C   0  0  0  0  0  0  0  0  0  0  0  0
  -25.2448  -13.6276   20.2714 C   0  0  0  0  0  0  0  0  0  0  0  0
  -22.8465  -13.4757   20.9595 C   0  0  0  0  0  0  0  0  0  0  0  0
  -26.8062  -32.2852   21.0524 C   0  0  0  0  0  0  0  0  0  0  0  0
  -24.0290  -33.2092   22.4509 C   0  0  0  0  0  0  0  0  0  0  0  0
  -21.0815  -32.3056   23.9147 C   0  0  0  0  0  0  0  0  0  0  0  0
  -30.6779  -14.8147   20.5451 C   0  0  0  0  0  0  0  0  0  0  0  0
  -29.8891  -36.0344   19.4723 C   0  0  0  0  0  0  0  0  0  0  0  0
  -25.1128  -30.9710   19.7253 C   0  0  0  0  0  0  0  0  0  0  0  0
  -24.6266  -30.7649   22.6349 C   0  0  0  0  0  0  0  0  0  0  0  0
  -28.9034  -35.8431   20.6220 C   0  0  0  0  0  0  0  0  0  0  0  0
  -29.7289  -12.0072   18.5716 C   0  0  0  0  0  0  0  0  0  0  0  0
  -29.1583  -34.5153   21.3284 C   0  0  0  0  0  0  0  0  0  0  0  0
  -28.2722  -11.7596   18.9702 C   0  0  0  0  0  0  0  0  0  0  0  0
  -30.5736  -12.4587   19.7617 C   0  0  0  0  0  0  0  0  0  0  0  0
  -28.5840  -13.3634   20.8983 C   0  0  0  0  0  0  0  0  0  0  0  0
  -28.9573  -33.3339   20.3716 C   0  0  1  0  0  0  0  0  0  0  0  0
  -25.3608  -32.1460   20.6662 C   0  0  1  0  0  0  0  0  0  0  0  0
  -27.6795  -12.9693   19.7192 C   0  0  2  0  0  0  0  0  0  0  0  0
  -28.1955  -17.8198   22.2694 C   0  0  0  0  0  0  0  0  0  0  0  0
  -19.0362  -33.2822   24.9918 C   0  0  0  0  0  0  0  0  0  0  0  0
  -25.6400  -33.7921   24.9758 C   0  0  0  0  0  0  0  0  0  0  0  0
  -23.4880  -33.8378   26.2545 C   0  0  0  0  0  0  0  0  0  0  0  0
  -23.8921  -35.4975   24.4366 C   0  0  0  0  0  0  0  0  0  0  0  0
  -19.2974  -31.1162   21.8748 C   0  0  0  0  0  0  0  0  0  0  0  0
  -29.3462  -19.9677   23.8659 C   0  0  0  0  0  0  0  0  0  0  0  0
  -27.4907  -22.9131   22.3095 C   0  0  0  0  0  0  0  0  0  0  0  0
  -26.5795  -24.0154   22.8442 C   0  0  0  0  0  0  0  0  0  0  0  0
  -27.9406  -21.9855   23.4284 C   0  0  0  0  0  0  0  0  0  0  0  0
  -26.0861  -24.9269   21.7295 C   0  0  0  0  0  0  0  0  0  1  0  0
  -23.4352  -33.0852   23.8333 C   0  0  1  0  0  0  0  0  0  0  0  0
  -19.6587  -32.7874   23.6955 C   0  0  2  0  0  0  0  0  0  0  0  0
  -24.1212  -34.0302   24.8599 C   0  0  0  0  0  0  0  0  0  0  0  0
  -25.8852  -11.4616   20.4863 N   0  0  0  0  0  0  0  0  0  0  0  0
  -26.2503  -12.7129   20.1594 N   0  0  0  0  0  0  0  0  0  0  0  0
  -24.5942  -32.0458   21.9098 N   0  0  0  0  0  0  0  0  0  0  0  0
  -29.9530  -13.6107   20.4194 N   0  0  0  0  0  0  0  0  0  0  0  0
  -25.4400  -14.9316   19.9820 N   0  0  0  0  0  0  0  0  0  0  0  0
  -21.8306  -12.6140   21.3951 N   0  0  0  0  0  0  0  0  0  0  0  0
  -29.9738  -15.8503   21.1584 N   0  0  0  0  0  0  0  0  0  0  0  0
  -27.5469  -33.0674   20.1870 N   0  0  0  0  0  0  0  0  0  0  0  0
  -22.0010  -33.3066   23.6829 N   0  0  0  0  0  0  0  0  0  0  0  0
  -18.8142  -31.6822   23.1605 N   0  3  0  0  0  0  0  0  0  0  0  0
  -28.8567  -20.9613   22.8713 N   0  3  0  0  0  0  0  0  0  0  0  0
  -22.5901  -14.6922   20.7927 O   0  0  0  0  0  0  0  0  0  0  0  0
  -27.2184  -31.7257   22.0617 O   0  0  0  0  0  0  0  0  0  0  0  0
  -23.9863  -34.2964   21.8697 O   0  0  0  0  0  0  0  0  0  0  0  0
  -21.3500  -31.1573   24.2607 O   0  0  0  0  0  0  0  0  0  0  0  0
  -31.8284  -14.9275   20.1141 O   0  0  0  0  0  0  0  0  0  0  0  0
  -21.6306   -7.1458   22.4413 O   0  0  0  0  0  0  0  0  0  0  0  0
  -25.2314  -25.9220   22.2914 O   0  0  0  0  0  0  0  0  0  1  0  0
  -18.3937   -7.7092   26.8695 F   0  0  0  0  0  0  0  0  0  0  0  0
  -22.0032   -5.5679   24.6805 F   0  0  0  0  0  0  0  0  0  0  0  0
  -34.1287  -18.0679   23.1761 Cl  0  0  0  0  0  0  0  0  0  0  0  0
  1  2  1  0  0  0  0
  1  5  2  0  0  0  0
  2  6  2  0  0  0  0
  3  8  2  0  0  0  0
  3 17  1  0  0  0  0
  4  9  1  0  0  0  0
  4 17  2  0  0  0  0
  5 19  1  0  0  0  0
  6 21  1  0  0  0  0
  7 10  2  0  0  0  0
  7 20  1  0  0  0  0
  8 26  1  0  0  0  0
  9 26  2  0  0  0  0
 10 27  1  0  0  0  0
 11 12  2  0  0  0  0
 11 28  1  0  0  0  0
 12 29  1  0  0  0  0
 13 22  1  0  0  0  0
 13 27  2  0  0  0  0
 14 23  1  0  0  0  0
 14 31  2  0  0  0  0
 15 25  2  0  0  0  0
 15 31  1  0  0  0  0
 16 29  2  0  0  0  0
 16 30  1  0  0  0  0
 17 32  1  0  0  0  0
 18 32  1  0  0  0  0
 18 33  2  0  0  0  0
 18 34  1  0  0  0  0
 19 21  2  0  0  0  0
 19 39  1  0  0  0  0
 20 22  2  0  0  0  0
 20 40  1  0  0  0  0
 21 48  1  0  0  0  0
 22 41  1  0  0  0  0
 23 24  2  0  0  0  0
 23 57  1  0  0  0  0
 24 25  1  0  0  0  0
 24 51  1  0  0  0  0
 25 71  1  0  0  0  0
 26 81  1  0  0  0  0
 27 82  1  0  0  0  0
 28 30  2  0  0  0  0
 28 81  1  0  0  0  0
 29 83  1  0  0  0  0
 30 84  1  0  0  0  0
 31 85  1  0  0  0  0
 32 65  2  0  0  0  0
 33 66  1  0  0  0  0
 33 69  1  0  0  0  0
 34 70  1  0  0  0  0
 34 76  2  0  0  0  0
 35 49  1  0  0  0  0
 35 72  1  0  0  0  0
 35 77  2  0  0  0  0
 36 62  1  0  0  0  0
 36 67  1  0  0  0  0
 36 78  2  0  0  0  0
 37 63  1  0  0  0  0
 37 73  1  0  0  0  0
 37 79  2  0  0  0  0
 38 68  1  0  0  0  0
 38 71  1  0  0  0  0
 38 80  2  0  0  0  0
 39 42  1  0  0  0  0
 40 49  1  0  0  0  0
 41 67  1  0  0  0  0
 42 44  1  0  0  0  0
 43 45  1  0  0  0  0
 43 46  1  0  0  0  0
 44 48  1  0  0  0  0
 45 50  1  0  0  0  0
 46 68  1  0  0  0  0
 47 50  1  0  0  0  0
 47 68  1  0  0  0  0
 48 72  1  0  0  0  0
 49 67  1  0  0  0  0
 50 66  1  0  0  0  0
 52 63  1  0  0  0  0
 53 64  1  0  0  0  0
 54 64  1  0  0  0  0
 55 64  1  0  0  0  0
 56 74  1  0  0  0  0
 57 75  1  0  0  0  0
 58 59  1  0  0  0  0
 58 60  1  0  0  0  0
 59 61  1  0  0  0  0
 60 75  1  0  0  0  0
 61 82  1  0  0  0  0
 62 64  1  0  0  0  0
 62 73  1  0  0  0  0
 63 74  1  0  0  0  0
 65 66  1  0  0  0  0
M  CHG  2  74   1  75   1
M  ISO  4  38 100  61 101  71 100  82 101
M  END
> <Batch ID>
0041

> <Smiles>
CNC(C)C(=O)NC(C(=O)N1Cc2cc([101O:1][101CH2:1]CCCNCc3cc(Cl)cc([100NH:0][100C:0](=O)N4CCCC(n5nc(-c6ccc(Oc7ccc(F)cc7F)cc6)c(C(N)=O)c5N)C4)c3C)ccc2CC1C(=O)NC1CCCc2ccccc21)C(C)(C)C

> <Shape>
0.257

> <Color>
0.187

> <Negative vol penalty>
0.000

$$$$

  -OEChem-04042322093D

 86 94  0     1  0  0  0  0  0999 V2000
  -23.4994  -19.7064   33.2360 C   0  0  0  0  0  0  0  0  0  0  0  0
  -24.6012  -19.9451   32.4209 C   0  0  0  0  0  0  0  0  0  0  0  0
  -23.0003   -9.8940   19.9827 C   0  0  0  0  0  0  0  0  0  0  0  0
  -23.7239   -9.9480   22.2871 C   0  0  0  0  0  0  0  0  0  0  0  0
  -32.6676  -17.4244   23.4330 C   0  0  0  0  0  0  0  0  0  0  0  0
  -22.2108  -19.8840   32.7341 C   0  0  0  0  0  0  0  0  0  0  0  0
  -24.4150  -20.3605   31.1029 C   0  0  0  0  0  0  0  0  0  0  0  0
  -27.4961  -24.1665   29.8119 C   0  0  0  0  0  0  0  0  0  0  0  0
  -32.0588  -16.5355   22.5471 C   0  0  0  0  0  0  0  0  0  0  0  0
  -22.2333   -8.7600   20.2501 C   0  0  0  0  0  0  0  0  0  0  0  0
  -22.9568   -8.8141   22.5546 C   0  0  0  0  0  0  0  0  0  0  0  0
  -28.8191  -23.8420   29.5151 C   0  0  0  0  0  0  0  0  0  0  0  0
  -23.2007   -5.4744   22.0876 C   0  0  0  0  0  0  0  0  0  0  0  0
  -23.7875   -4.4582   22.8415 C   0  0  0  0  0  0  0  0  0  0  0  0
  -28.3097  -23.9456   27.1595 C   0  0  0  0  0  0  0  0  0  0  0  0
  -22.0625   -4.7039   24.5152 C   0  0  0  0  0  0  0  0  0  0  0  0
  -23.7456  -10.4879   21.0012 C   0  0  0  0  0  0  0  0  0  0  0  0
  -31.8913  -18.3313   24.1547 C   0  0  0  0  0  0  0  0  0  0  0  0
  -24.1317  -13.0032   20.8218 C   0  0  0  0  0  0  0  0  0  0  0  0
  -22.0089  -20.3111   31.4122 C   0  0  0  0  0  0  0  0  0  0  0  0
  -26.5658  -24.3726   28.7831 C   0  0  0  0  0  0  0  0  0  0  0  0
  -23.1225  -20.5427   30.5823 C   0  0  0  0  0  0  0  0  0  0  0  0
  -26.9761  -24.2751   27.4458 C   0  0  0  0  0  0  0  0  0  0  0  0
  -30.5063  -18.3493   23.9903 C   0  0  0  0  0  0  0  0  0  0  0  0
  -29.8975  -17.4604   23.1043 C   0  0  0  0  0  0  0  0  0  0  0  0
  -30.6738  -16.5535   22.3827 C   0  0  0  0  0  0  0  0  0  0  0  0
  -22.2115   -8.2201   21.5360 C   0  0  0  0  0  0  0  0  0  0  0  0
  -29.2254  -23.7286   28.1888 C   0  0  0  0  0  0  0  0  0  0  0  0
  -22.0448   -6.1055   22.5474 C   0  0  0  0  0  0  0  0  0  0  0  0
  -23.2184   -4.0729   24.0553 C   0  0  0  0  0  0  0  0  0  0  0  0
  -21.4757   -5.7202   23.7612 C   0  0  0  0  0  0  0  0  0  0  0  0
  -24.5386  -11.6590   20.7254 C   0  0  0  0  0  0  0  0  0  0  0  0
  -25.2418  -13.7250   20.4572 C   0  0  0  0  0  0  0  0  0  0  0  0
  -32.3176  -20.4831   28.0863 C   0  0  0  0  0  0  0  0  0  0  0  0
  -32.2670  -21.8228   28.1154 C   0  0  0  0  0  0  0  0  0  0  0  0
  -32.5580  -19.2622   25.0871 C   0  0  0  0  0  0  0  0  0  0  0  0
  -22.8636  -13.5505   21.2067 C   0  0  0  0  0  0  0  0  0  0  0  0
  -23.8597  -22.9640   27.8904 C   0  0  0  0  0  0  0  0  0  0  0  0
  -23.7303  -25.4253   25.7815 C   0  0  0  0  0  0  0  0  0  0  0  0
  -25.4051  -27.8118   24.0076 C   0  0  0  0  0  0  0  0  0  0  0  0
  -30.7214  -14.6851   20.6936 C   0  0  0  0  0  0  0  0  0  0  0  0
  -20.5965  -20.4436   30.8998 C   0  0  0  0  0  0  0  0  0  0  0  0
  -25.1487  -24.7483   29.1196 C   0  0  0  0  0  0  0  0  0  0  0  0
  -26.0211  -24.5066   26.3044 C   0  0  0  0  0  0  0  0  0  0  0  0
  -20.4908  -21.2470   29.6061 C   0  0  0  0  0  0  0  0  0  0  0  0
  -29.6041  -12.2292   18.3704 C   0  0  0  0  0  0  0  0  0  0  0  0
  -21.5481  -20.7900   28.6060 C   0  0  0  0  0  0  0  0  0  0  0  0
  -28.1532  -11.9725   18.7839 C   0  0  0  0  0  0  0  0  0  0  0  0
  -30.5039  -12.4741   19.5804 C   0  0  0  0  0  0  0  0  0  0  0  0
  -28.5878  -13.2653   20.9115 C   0  0  0  0  0  0  0  0  0  0  0  0
  -22.9617  -21.0183   29.1547 C   0  0  1  0  0  0  0  0  0  0  0  0
  -24.1642  -24.4314   27.9981 C   0  0  1  0  0  0  0  0  0  0  0  0
  -27.6309  -13.0775   19.7229 C   0  0  2  0  0  0  0  0  0  0  0  0
  -29.6764  -19.3236   24.7654 C   0  0  0  0  0  0  0  0  0  0  0  0
  -28.4111  -17.4829   22.9287 C   0  0  0  0  0  0  0  0  0  0  0  0
  -25.0338  -29.6496   22.3397 C   0  0  0  0  0  0  0  0  0  0  0  0
  -23.4035  -23.3489   23.5698 C   0  0  0  0  0  0  0  0  0  0  0  0
  -23.9888  -25.1282   21.9085 C   0  0  0  0  0  0  0  0  0  0  0  0
  -21.9506  -25.3699   23.3263 C   0  0  0  0  0  0  0  0  0  0  0  0
  -26.4448  -29.8666   25.8665 C   0  0  0  0  0  0  0  0  0  0  0  0
  -33.3766  -19.7095   27.3732 C   0  0  0  0  0  0  0  0  0  0  0  0
  -31.2143  -22.5978   28.8381 C   0  0  0  0  0  0  0  0  0  1  0  0
  -24.2323  -25.6571   24.3767 C   0  0  1  0  0  0  0  0  0  0  0  0
  -25.1409  -29.2941   23.8145 C   0  0  2  0  0  0  0  0  0  0  0  0
  -23.4116  -24.8697   23.3166 C   0  0  0  0  0  0  0  0  0  0  0  0
  -25.8081  -11.5316   20.3303 N   0  0  0  0  0  0  0  0  0  0  0  0
  -26.2085  -12.8051   20.1751 N   0  0  0  0  0  0  0  0  0  0  0  0
  -24.6448  -24.8653   26.6847 N   0  0  0  0  0  0  0  0  0  0  0  0
  -29.9485  -13.5364   20.4218 N   0  0  0  0  0  0  0  0  0  0  0  0
  -25.4757  -15.0505   20.3534 N   0  0  0  0  0  0  0  0  0  0  0  0
  -32.9550  -20.4449   24.6172 N   0  0  0  0  0  0  0  0  0  0  0  0
  -21.8313  -12.6670   21.5508 N   0  0  0  0  0  0  0  0  0  0  0  0
  -30.0768  -15.6416   21.4773 N   0  0  0  0  0  0  0  0  0  0  0  0
  -23.3287  -22.4136   29.0412 N   0  0  0  0  0  0  0  0  0  0  0  0
  -24.2350  -27.1023   24.1775 N   0  0  0  0  0  0  0  0  0  0  0  0
  -32.7346  -18.8757   26.3576 N   0  3  0  0  0  0  0  0  0  0  0  0
  -26.2430  -30.0990   24.4131 N   0  3  0  0  0  0  0  0  0  0  0  0
  -22.6471  -14.7858   21.2285 O   0  0  0  0  0  0  0  0  0  0  0  0
  -24.0883  -22.3750   26.8403 O   0  0  0  0  0  0  0  0  0  0  0  0
  -22.5717  -25.7365   26.0687 O   0  0  0  0  0  0  0  0  0  0  0  0
  -26.5361  -27.3308   24.0041 O   0  0  0  0  0  0  0  0  0  0  0  0
  -31.8604  -14.8231   20.2402 O   0  0  0  0  0  0  0  0  0  0  0  0
  -21.4630   -7.1138   21.7974 O   0  0  0  0  0  0  0  0  0  0  0  0
  -30.5160  -23.4113   27.8963 O   0  0  0  0  0  0  0  0  0  1  0  0
  -23.7811   -3.0959   24.7785 F   0  0  0  0  0  0  0  0  0  0  0  0
  -20.3647   -6.3220   24.2076 F   0  0  0  0  0  0  0  0  0  0  0  0
  1  2  1  0  0  0  0
  1  6  2  0  0  0  0
  2  7  2  0  0  0  0
  3 10  2  0  0  0  0
  3 17  1  0  0  0  0
  4 11  1  0  0  0  0
  4 17  2  0  0  0  0
  5  9  2  0  0  0  0
  5 18  1  0  0  0  0
  6 20  1  0  0  0  0
  7 22  1  0  0  0  0
  8 12  2  0  0  0  0
  8 21  1  0  0  0  0
  9 26  1  0  0  0  0
 10 27  1  0  0  0  0
 11 27  2  0  0  0  0
 12 28  1  0  0  0  0
 13 14  2  0  0  0  0
 13 29  1  0  0  0  0
 14 30  1  0  0  0  0
 15 23  1  0  0  0  0
 15 28  2  0  0  0  0
 16 30  2  0  0  0  0
 16 31  1  0  0  0  0
 17 32  1  0  0  0  0
 18 24  2  0  0  0  0
 18 36  1  0  0  0  0
 19 32  1  0  0  0  0
 19 33  2  0  0  0  0
 19 37  1  0  0  0  0
 20 22  2  0  0  0  0
 20 42  1  0  0  0  0
 21 23  2  0  0  0  0
 21 43  1  0  0  0  0
 22 51  1  0  0  0  0
 23 44  1  0  0  0  0
 24 25  1  0  0  0  0
 24 54  1  0  0  0  0
 25 26  2  0  0  0  0
 25 55  1  0  0  0  0
 26 73  1  0  0  0  0
 27 83  1  0  0  0  0
 28 84  1  0  0  0  0
 29 31  2  0  0  0  0
 29 83  1  0  0  0  0
 30 85  1  0  0  0  0
 31 86  1  0  0  0  0
 32 66  2  0  0  0  0
 33 67  1  0  0  0  0
 33 70  1  0  0  0  0
 34 35  2  0  0  0  0
 34 61  1  0  0  0  0
 35 62  1  0  0  0  0
 36 71  1  0  0  0  0
 36 76  2  0  0  0  0
 37 72  1  0  0  0  0
 37 78  2  0  0  0  0
 38 52  1  0  0  0  0
 38 74  1  0  0  0  0
 38 79  2  0  0  0  0
 39 63  1  0  0  0  0
 39 68  1  0  0  0  0
 39 80  2  0  0  0  0
 40 64  1  0  0  0  0
 40 75  1  0  0  0  0
 40 81  2  0  0  0  0
 41 69  1  0  0  0  0
 41 73  1  0  0  0  0
 41 82  2  0  0  0  0
 42 45  1  0  0  0  0
 43 52  1  0  0  0  0
 44 68  1  0  0  0  0
 45 47  1  0  0  0  0
 46 48  1  0  0  0  0
 46 49  1  0  0  0  0
 47 51  1  0  0  0  0
 48 53  1  0  0  0  0
 49 69  1  0  0  0  0
 50 53  1  0  0  0  0
 50 69  1  0  0  0  0
 51 74  1  0  0  0  0
 52 68  1  0  0  0  0
 53 67  1  0  0  0  0
 56 64  1  0  0  0  0
 57 65  1  0  0  0  0
 58 65  1  0  0  0  0
 59 65  1  0  0  0  0
 60 77  1  0  0  0  0
 61 76  1  0  0  0  0
 62 84  1  0  0  0  0
 63 65  1  0  0  0  0
 63 75  1  0  0  0  0
 64 77  1  0  0  0  0
 66 67  1  0  0  0  0
M  CHG  2  76   1  77   1
M  ISO  4  41 100  62 101  73 100  84 101
M  END
> <Batch ID>
0041

> <Smiles>
CNC(C)C(=O)NC(C(=O)N1Cc2cc([101O:1][101CH2:1]C=CCNC(=N)c3ccc([100NH:0][100C:0](=O)N4CCCC(n5nc(-c6ccc(Oc7ccc(F)cc7F)cc6)c(C(N)=O)c5N)C4)c(C)c3C)ccc2CC1C(=O)NC1CCCc2ccccc21)C(C)(C)C

> <Shape>
0.195

> <Color>
0.193

> <Negative vol penalty>
0.000

$$$$

  -OEChem-04042322093D

 84 92  0     1  0  0  0  0  0999 V2000
  -24.7243  -37.0816   21.1927 C   0  0  0  0  0  0  0  0  0  0  0  0
  -25.4428  -36.0059   20.6809 C   0  0  0  0  0  0  0  0  0  0  0  0
  -24.4311   -9.3827   21.7023 C   0  0  0  0  0  0  0  0  0  0  0  0
  -22.5958  -10.4682   20.5663 C   0  0  0  0  0  0  0  0  0  0  0  0
  -24.1220  -36.9828   22.4463 C   0  0  0  0  0  0  0  0  0  0  0  0
  -25.5603  -34.8311   21.4228 C   0  0  0  0  0  0  0  0  0  0  0  0
  -25.7707  -29.1095   19.2490 C   0  0  0  0  0  0  0  0  0  0  0  0
  -23.7053   -8.1921   21.7371 C   0  0  0  0  0  0  0  0  0  0  0  0
  -21.8701   -9.2775   20.6010 C   0  0  0  0  0  0  0  0  0  0  0  0
  -26.8312  -28.2405   18.9962 C   0  0  0  0  0  0  0  0  0  0  0  0
  -21.1958   -6.8577   23.5665 C   0  0  0  0  0  0  0  0  0  0  0  0
  -21.1810   -6.1434   24.7644 C   0  0  0  0  0  0  0  0  0  0  0  0
  -26.4969  -27.2146   21.1538 C   0  0  0  0  0  0  0  0  0  0  0  0
  -26.8563  -20.3668   21.5254 C   0  0  0  0  0  0  0  0  0  0  0  0
  -27.0489  -20.4821   18.7447 C   0  0  0  0  0  0  0  0  0  0  0  0
  -22.1779   -4.2478   23.6465 C   0  0  0  0  0  0  0  0  0  0  0  0
  -23.8763  -10.5208   21.1169 C   0  0  0  0  0  0  0  0  0  0  0  0
  -25.5054  -12.1816   20.0703 C   0  0  0  0  0  0  0  0  0  0  0  0
  -24.2240  -35.8028   23.1998 C   0  0  0  0  0  0  0  0  0  0  0  0
  -25.0711  -29.0447   20.4626 C   0  0  0  0  0  0  0  0  0  0  0  0
  -24.9599  -34.7169   22.6882 C   0  0  0  0  0  0  0  0  0  0  0  0
  -25.4262  -28.0822   21.4184 C   0  0  0  0  0  0  0  0  0  0  0  0
  -27.7152  -21.2863   20.9234 C   0  0  0  0  0  0  0  0  0  0  0  0
  -27.8114  -21.3440   19.5330 C   0  0  0  0  0  0  0  0  0  0  0  0
  -26.0938  -19.5049   20.7371 C   0  0  0  0  0  0  0  0  0  0  0  0
  -22.4248   -8.1394   21.1865 C   0  0  0  0  0  0  0  0  0  0  0  0
  -27.1964  -27.2948   19.9499 C   0  0  0  0  0  0  0  0  0  0  0  0
  -21.7017   -6.2670   22.4085 C   0  0  0  0  0  0  0  0  0  0  0  0
  -21.6720   -4.8385   24.8045 C   0  0  0  0  0  0  0  0  0  0  0  0
  -22.1927   -4.9620   22.4485 C   0  0  0  0  0  0  0  0  0  0  0  0
  -26.1900  -19.5626   19.3468 C   0  0  0  0  0  0  0  0  0  0  0  0
  -24.6253  -11.7512   21.0812 C   0  0  0  0  0  0  0  0  0  0  0  0
  -25.9573  -13.4033   20.5057 C   0  0  0  0  0  0  0  0  0  0  0  0
  -25.8807  -11.5349   18.8469 C   0  0  0  0  0  0  0  0  0  0  0  0
  -24.5931  -31.0455   22.8858 C   0  0  0  0  0  0  0  0  0  0  0  0
  -22.5964  -28.7053   23.9149 C   0  0  0  0  0  0  0  0  0  0  0  0
  -21.7351  -25.4034   23.8673 C   0  0  0  0  0  0  0  0  0  0  0  0
  -25.0457  -18.4157   22.7525 C   0  0  0  0  0  0  0  0  0  0  0  0
  -23.5956  -35.7599   24.5701 C   0  0  0  0  0  0  0  0  0  0  0  0
  -23.9123  -29.9715   20.7089 C   0  0  0  0  0  0  0  0  0  0  0  0
  -24.6941  -27.9582   22.7288 C   0  0  0  0  0  0  0  0  0  0  0  0
  -23.4523  -34.3472   25.1306 C   0  0  0  0  0  0  0  0  0  0  0  0
  -25.4709  -15.6853   24.9977 C   0  0  0  0  0  0  0  0  0  0  0  0
  -24.7469  -33.5633   24.9398 C   0  0  0  0  0  0  0  0  0  0  0  0
  -25.3612  -14.4538   24.0958 C   0  0  0  0  0  0  0  0  0  0  0  0
  -24.5166  -16.7953   24.5606 C   0  0  0  0  0  0  0  0  0  0  0  0
  -24.5110  -15.9513   22.2461 C   0  0  0  0  0  0  0  0  0  0  0  0
  -25.0891  -33.4170   23.4522 C   0  0  1  0  0  0  0  0  0  0  0  0
  -23.6003  -30.1573   22.1906 C   0  0  1  0  0  0  0  0  0  0  0  0
  -25.4997  -14.8309   22.6078 C   0  0  2  0  0  0  0  0  0  0  0  0
  -27.6951  -23.3454   22.3539 C   0  0  0  0  0  0  0  0  0  0  0  0
  -20.0814  -23.7847   24.8383 C   0  0  0  0  0  0  0  0  0  0  0  0
  -24.1111  -28.7503   26.5633 C   0  0  0  0  0  0  0  0  0  0  0  0
  -23.0784  -26.5365   27.1116 C   0  0  0  0  0  0  0  0  0  0  0  0
  -21.6289  -28.5401   26.7845 C   0  0  0  0  0  0  0  0  0  0  0  0
  -20.6738  -24.7049   21.1943 C   0  0  0  0  0  0  0  0  0  0  0  0
  -28.5242  -22.1964   21.7882 C   0  0  0  0  0  0  0  0  0  0  0  0
  -28.7285  -22.3244   18.8631 C   0  0  0  0  0  0  0  0  0  0  0  0
  -29.1236  -24.7223   18.2861 C   0  0  0  0  0  0  0  0  0  0  0  0
  -28.4732  -26.0903   18.3453 C   0  0  0  0  0  0  0  0  0  1  0  0
  -22.7449  -27.4773   24.7803 C   0  0  1  0  0  0  0  0  0  0  0  0
  -20.3959  -24.7143   23.6766 C   0  0  2  0  0  0  0  0  0  0  0  0
  -22.9061  -27.8294   26.2861 C   0  0  0  0  0  0  0  0  0  0  0  0
  -24.5229  -12.6281   22.0835 N   0  0  0  0  0  0  0  0  0  0  0  0
  -25.3446  -13.6218   21.7045 N   0  0  0  0  0  0  0  0  0  0  0  0
  -23.5723  -28.8911   22.9255 N   0  0  0  0  0  0  0  0  0  0  0  0
  -24.7078  -17.1022   23.1414 N   0  0  0  0  0  0  0  0  0  0  0  0
  -26.8152  -14.3013   19.9764 N   0  0  0  0  0  0  0  0  0  0  0  0
  -25.3225  -10.2831   18.5543 N   0  0  0  0  0  0  0  0  0  0  0  0
  -25.2341  -18.5804   21.3806 N   0  0  0  0  0  0  0  0  0  0  0  0
  -24.2719  -32.3888   22.8444 N   0  0  0  0  0  0  0  0  0  0  0  0
  -21.5958  -26.6283   24.4849 N   0  0  0  0  0  0  0  0  0  0  0  0
  -20.4004  -23.9121   22.4206 N   0  3  0  0  0  0  0  0  0  0  0  0
  -28.2103  -23.7189   18.8889 N   0  3  0  0  0  0  0  0  0  0  0  0
  -26.6999  -12.0444   18.0451 O   0  0  0  0  0  0  0  0  0  0  0  0
  -25.5769  -30.5486   23.4215 O   0  0  0  0  0  0  0  0  0  0  0  0
  -21.6455  -29.4676   24.1049 O   0  0  0  0  0  0  0  0  0  0  0  0
  -22.7987  -24.9032   23.5080 O   0  0  0  0  0  0  0  0  0  0  0  0
  -25.1862  -19.3212   23.5785 O   0  0  0  0  0  0  0  0  0  0  0  0
  -21.7165   -6.9777   21.2200 O   0  0  0  0  0  0  0  0  0  0  0  0
  -28.2316  -26.4459   19.7060 O   0  0  0  0  0  0  0  0  0  1  0  0
  -21.6591   -4.1532   25.9554 F   0  0  0  0  0  0  0  0  0  0  0  0
  -22.6810   -4.3897   21.3396 F   0  0  0  0  0  0  0  0  0  0  0  0
  -25.2634  -18.5142   18.3330 Cl  0  0  0  0  0  0  0  0  0  0  0  0
  1  2  1  0  0  0  0
  1  5  2  0  0  0  0
  2  6  2  0  0  0  0
  3  8  2  0  0  0  0
  3 17  1  0  0  0  0
  4  9  1  0  0  0  0
  4 17  2  0  0  0  0
  5 19  1  0  0  0  0
  6 21  1  0  0  0  0
  7 10  2  0  0  0  0
  7 20  1  0  0  0  0
  8 26  1  0  0  0  0
  9 26  2  0  0  0  0
 10 27  1  0  0  0  0
 11 12  2  0  0  0  0
 11 28  1  0  0  0  0
 12 29  1  0  0  0  0
 13 22  1  0  0  0  0
 13 27  2  0  0  0  0
 14 23  1  0  0  0  0
 14 25  2  0  0  0  0
 15 24  1  0  0  0  0
 15 31  2  0  0  0  0
 16 29  2  0  0  0  0
 16 30  1  0  0  0  0
 17 32  1  0  0  0  0
 18 32  1  0  0  0  0
 18 33  2  0  0  0  0
 18 34  1  0  0  0  0
 19 21  2  0  0  0  0
 19 39  1  0  0  0  0
 20 22  2  0  0  0  0
 20 40  1  0  0  0  0
 21 48  1  0  0  0  0
 22 41  1  0  0  0  0
 23 24  2  0  0  0  0
 23 57  1  0  0  0  0
 24 58  1  0  0  0  0
 25 31  1  0  0  0  0
 25 70  1  0  0  0  0
 26 80  1  0  0  0  0
 27 81  1  0  0  0  0
 28 30  2  0  0  0  0
 28 80  1  0  0  0  0
 29 82  1  0  0  0  0
 30 83  1  0  0  0  0
 31 84  1  0  0  0  0
 32 64  2  0  0  0  0
 33 65  1  0  0  0  0
 33 68  1  0  0  0  0
 34 69  1  0  0  0  0
 34 75  2  0  0  0  0
 35 49  1  0  0  0  0
 35 71  1  0  0  0  0
 35 76  2  0  0  0  0
 36 61  1  0  0  0  0
 36 66  1  0  0  0  0
 36 77  2  0  0  0  0
 37 62  1  0  0  0  0
 37 72  1  0  0  0  0
 37 78  2  0  0  0  0
 38 67  1  0  0  0  0
 38 70  1  0  0  0  0
 38 79  2  0  0  0  0
 39 42  1  0  0  0  0
 40 49  1  0  0  0  0
 41 66  1  0  0  0  0
 42 44  1  0  0  0  0
 43 45  1  0  0  0  0
 43 46  1  0  0  0  0
 44 48  1  0  0  0  0
 45 50  1  0  0  0  0
 46 67  1  0  0  0  0
 47 50  1  0  0  0  0
 47 67  1  0  0  0  0
 48 71  1  0  0  0  0
 49 66  1  0  0  0  0
 50 65  1  0  0  0  0
 51 57  1  0  0  0  0
 52 62  1  0  0  0  0
 53 63  1  0  0  0  0
 54 63  1  0  0  0  0
 55 63  1  0  0  0  0
 56 73  1  0  0  0  0
 58 74  1  0  0  0  0
 59 60  1  0  0  0  0
 59 74  1  0  0  0  0
 60 81  1  0  0  0  0
 61 63  1  0  0  0  0
 61 72  1  0  0  0  0
 62 73  1  0  0  0  0
 64 65  1  0  0  0  0
M  CHG  2  73   1  74   1
M  ISO  4  38 100  60 101  70 100  81 101
M  END
> <Batch ID>
0041

> <Smiles>
CCc1cc([100NH:0][100C:0](=O)N2CCCC(n3nc(-c4ccc(Oc5ccc(F)cc5F)cc4)c(C(N)=O)c3N)C2)c(Cl)cc1CNC[101CH2:1][101O:1]c1ccc2c(c1)CN(C(=O)C(NC(=O)C(C)NC)C(C)(C)C)C(C(=O)NC1CCCc3ccccc31)C2

> <Shape>
0.271

> <Color>
0.111

> <Negative vol penalty>
0.000

$$$$

  -OEChem-04042322093D

 85 93  0     1  0  0  0  0  0999 V2000
  -29.8793  -23.4468   27.0629 C   0  0  0  0  0  0  0  0  0  0  0  0
  -30.2593  -23.8282   25.7811 C   0  0  0  0  0  0  0  0  0  0  0  0
  -23.0762   -9.8692   19.9397 C   0  0  0  0  0  0  0  0  0  0  0  0
  -23.8361   -9.8742   22.2331 C   0  0  0  0  0  0  0  0  0  0  0  0
  -28.5300  -23.2719   27.3627 C   0  0  0  0  0  0  0  0  0  0  0  0
  -29.2895  -24.0465   24.8020 C   0  0  0  0  0  0  0  0  0  0  0  0
  -30.8250  -25.8910   20.5074 C   0  0  0  0  0  0  0  0  0  0  0  0
  -22.3326   -8.7156   20.1885 C   0  0  0  0  0  0  0  0  0  0  0  0
  -23.0925   -8.7206   22.4820 C   0  0  0  0  0  0  0  0  0  0  0  0
  -31.5583  -25.1450   19.5858 C   0  0  0  0  0  0  0  0  0  0  0  0
  -19.8646   -7.9213   23.0837 C   0  0  0  0  0  0  0  0  0  0  0  0
  -19.1076   -7.8801   24.2546 C   0  0  0  0  0  0  0  0  0  0  0  0
  -29.5790  -24.8832   18.2319 C   0  0  0  0  0  0  0  0  0  0  0  0
  -31.1491  -17.7003   20.6035 C   0  0  0  0  0  0  0  0  0  0  0  0
  -29.5179  -17.8876   22.3758 C   0  0  0  0  0  0  0  0  0  0  0  0
  -20.3496   -5.9423   24.9892 C   0  0  0  0  0  0  0  0  0  0  0  0
  -23.8280  -10.4485   20.9619 C   0  0  0  0  0  0  0  0  0  0  0  0
  -24.1691  -12.9738   20.8443 C   0  0  0  0  0  0  0  0  0  0  0  0
  -27.5446  -23.4763   26.3828 C   0  0  0  0  0  0  0  0  0  0  0  0
  -29.4583  -26.1299   20.3034 C   0  0  0  0  0  0  0  0  0  0  0  0
  -27.9210  -23.8984   25.0915 C   0  0  0  0  0  0  0  0  0  0  0  0
  -28.8311  -25.6347   19.1512 C   0  0  0  0  0  0  0  0  0  0  0  0
  -31.3169  -19.0849   20.6115 C   0  0  0  0  0  0  0  0  0  0  0  0
  -30.5852  -19.8710   21.5016 C   0  0  0  0  0  0  0  0  0  0  0  0
  -30.2496  -17.1016   21.4856 C   0  0  0  0  0  0  0  0  0  0  0  0
  -22.3408   -8.1413   21.4597 C   0  0  0  0  0  0  0  0  0  0  0  0
  -30.9347  -24.6385   18.4493 C   0  0  0  0  0  0  0  0  0  0  0  0
  -20.8640   -6.9730   22.8655 C   0  0  0  0  0  0  0  0  0  0  0  0
  -19.3501   -6.8906   25.2073 C   0  0  0  0  0  0  0  0  0  0  0  0
  -21.1065   -5.9835   23.8183 C   0  0  0  0  0  0  0  0  0  0  0  0
  -29.6857  -19.2723   22.3838 C   0  0  0  0  0  0  0  0  0  0  0  0
  -24.5968  -11.6398   20.7053 C   0  0  0  0  0  0  0  0  0  0  0  0
  -25.2611  -13.7239   20.4817 C   0  0  0  0  0  0  0  0  0  0  0  0
  -32.1028  -21.4653   15.1685 C   0  0  0  0  0  0  0  0  0  0  0  0
  -22.8985  -13.4889   21.2637 C   0  0  0  0  0  0  0  0  0  0  0  0
  -31.8803  -21.7916   16.4515 C   0  0  0  0  0  0  0  0  0  0  0  0
  -26.7942  -25.3994   21.8759 C   0  0  0  0  0  0  0  0  0  0  0  0
  -25.4125  -27.2830   19.6252 C   0  0  0  0  0  0  0  0  0  0  0  0
  -25.5626  -28.6510   16.5023 C   0  0  0  0  0  0  0  0  0  0  0  0
  -30.7270  -14.7708   20.6574 C   0  0  0  0  0  0  0  0  0  0  0  0
  -26.0983  -23.2804   26.7638 C   0  0  0  0  0  0  0  0  0  0  0  0
  -28.6874  -26.9591   21.2936 C   0  0  0  0  0  0  0  0  0  0  0  0
  -27.3709  -25.8802   18.8754 C   0  0  0  0  0  0  0  0  0  0  0  0
  -25.1842  -23.1020   25.5560 C   0  0  0  0  0  0  0  0  0  0  0  0
  -29.6132  -12.3589   18.2868 C   0  0  0  0  0  0  0  0  0  0  0  0
  -25.4504  -24.1992   24.5362 C   0  0  0  0  0  0  0  0  0  0  0  0
  -28.1737  -12.0666   18.7162 C   0  0  0  0  0  0  0  0  0  0  0  0
  -30.5283  -12.5869   19.4887 C   0  0  0  0  0  0  0  0  0  0  0  0
  -28.6211  -13.3095   20.8707 C   0  0  0  0  0  0  0  0  0  0  0  0
  -26.8857  -24.1118   24.0020 C   0  0  1  0  0  0  0  0  0  0  0  0
  -27.1840  -26.7054   21.2432 C   0  0  1  0  0  0  0  0  0  0  0  0
  -27.6484  -13.1371   19.6927 C   0  0  2  0  0  0  0  0  0  0  0  0
  -30.7761  -21.3560   21.4966 C   0  0  0  0  0  0  0  0  0  0  0  0
  -24.2681  -30.1162   14.9292 C   0  0  0  0  0  0  0  0  0  0  0  0
  -23.5227  -24.9641   19.0244 C   0  0  0  0  0  0  0  0  0  0  0  0
  -22.9217  -26.1017   16.8766 C   0  0  0  0  0  0  0  0  0  0  0  0
  -22.4346  -27.2156   19.0548 C   0  0  0  0  0  0  0  0  0  0  0  0
  -27.7252  -30.6697   16.4186 C   0  0  0  0  0  0  0  0  0  0  0  0
  -32.2902  -19.7028   19.6513 C   0  0  0  0  0  0  0  0  0  0  0  0
  -32.5667  -21.0561   17.5703 C   0  0  0  0  0  0  0  0  0  0  0  0
  -30.9410  -22.9080   16.8179 C   0  0  0  0  0  0  0  0  0  1  0  0
  -24.8268  -27.0545   18.2528 C   0  0  1  0  0  0  0  0  0  0  0  0
  -25.3350  -30.0695   16.0119 C   0  0  2  0  0  0  0  0  0  0  0  0
  -23.4535  -26.3275   18.3080 C   0  0  0  0  0  0  0  0  0  0  0  0
  -25.8616  -11.5447   20.2869 N   0  0  0  0  0  0  0  0  0  0  0  0
  -26.2382  -12.8285   20.1598 N   0  0  0  0  0  0  0  0  0  0  0  0
  -26.6586  -26.6913   19.8765 N   0  0  0  0  0  0  0  0  0  0  0  0
  -29.9690  -13.6167   20.3671 N   0  0  0  0  0  0  0  0  0  0  0  0
  -25.4711  -15.0555   20.4100 N   0  0  0  0  0  0  0  0  0  0  0  0
  -21.8869  -12.5791   21.6001 N   0  0  0  0  0  0  0  0  0  0  0  0
  -30.0794  -15.6949   21.4767 N   0  0  0  0  0  0  0  0  0  0  0  0
  -27.1640  -25.2844   23.2023 N   0  0  0  0  0  0  0  0  0  0  0  0
  -24.7858  -28.3605   17.6038 N   0  0  0  0  0  0  0  0  0  0  0  0
  -26.5964  -30.6332   15.4534 N   0  3  0  0  0  0  0  0  0  0  0  0
  -31.6277  -20.3856   18.5088 N   0  3  0  0  0  0  0  0  0  0  0  0
  -22.6619  -14.7194   21.3222 O   0  0  0  0  0  0  0  0  0  0  0  0
  -26.2006  -24.5590   21.2103 O   0  0  0  0  0  0  0  0  0  0  0  0
  -24.7908  -27.9673   20.4418 O   0  0  0  0  0  0  0  0  0  0  0  0
  -26.3481  -27.8767   15.9599 O   0  0  0  0  0  0  0  0  0  0  0  0
  -31.8561  -14.9403   20.1899 O   0  0  0  0  0  0  0  0  0  0  0  0
  -21.6151   -7.0158   21.7029 O   0  0  0  0  0  0  0  0  0  0  0  0
  -31.6480  -23.9095   17.5484 O   0  0  0  0  0  0  0  0  0  1  0  0
  -18.6242   -6.8520   26.3324 F   0  0  0  0  0  0  0  0  0  0  0  0
  -22.0660   -5.0705   23.6148 F   0  0  0  0  0  0  0  0  0  0  0  0
  -28.7631  -20.2095   23.5027 Cl  0  0  0  0  0  0  0  0  0  0  0  0
  1  2  1  0  0  0  0
  1  5  2  0  0  0  0
  2  6  2  0  0  0  0
  3  8  2  0  0  0  0
  3 17  1  0  0  0  0
  4  9  1  0  0  0  0
  4 17  2  0  0  0  0
  5 19  1  0  0  0  0
  6 21  1  0  0  0  0
  7 10  2  0  0  0  0
  7 20  1  0  0  0  0
  8 26  1  0  0  0  0
  9 26  2  0  0  0  0
 10 27  1  0  0  0  0
 11 12  2  0  0  0  0
 11 28  1  0  0  0  0
 12 29  1  0  0  0  0
 13 22  1  0  0  0  0
 13 27  2  0  0  0  0
 14 23  1  0  0  0  0
 14 25  2  0  0  0  0
 15 25  1  0  0  0  0
 15 31  2  0  0  0  0
 16 29  2  0  0  0  0
 16 30  1  0  0  0  0
 17 32  1  0  0  0  0
 18 32  1  0  0  0  0
 18 33  2  0  0  0  0
 18 35  1  0  0  0  0
 19 21  2  0  0  0  0
 19 41  1  0  0  0  0
 20 22  2  0  0  0  0
 20 42  1  0  0  0  0
 21 50  1  0  0  0  0
 22 43  1  0  0  0  0
 23 24  2  0  0  0  0
 23 59  1  0  0  0  0
 24 31  1  0  0  0  0
 24 53  1  0  0  0  0
 25 71  1  0  0  0  0
 26 81  1  0  0  0  0
 27 82  1  0  0  0  0
 28 30  2  0  0  0  0
 28 81  1  0  0  0  0
 29 83  1  0  0  0  0
 30 84  1  0  0  0  0
 31 85  1  0  0  0  0
 32 65  2  0  0  0  0
 33 66  1  0  0  0  0
 33 69  1  0  0  0  0
 34 36  2  0  0  0  0
 35 70  1  0  0  0  0
 35 76  2  0  0  0  0
 36 60  1  0  0  0  0
 36 61  1  0  0  0  0
 37 51  1  0  0  0  0
 37 72  1  0  0  0  0
 37 77  2  0  0  0  0
 38 62  1  0  0  0  0
 38 67  1  0  0  0  0
 38 78  2  0  0  0  0
 39 63  1  0  0  0  0
 39 73  1  0  0  0  0
 39 79  2  0  0  0  0
 40 68  1  0  0  0  0
 40 71  1  0  0  0  0
 40 80  2  0  0  0  0
 41 44  1  0  0  0  0
 42 51  1  0  0  0  0
 43 67  1  0  0  0  0
 44 46  1  0  0  0  0
 45 47  1  0  0  0  0
 45 48  1  0  0  0  0
 46 50  1  0  0  0  0
 47 52  1  0  0  0  0
 48 68  1  0  0  0  0
 49 52  1  0  0  0  0
 49 68  1  0  0  0  0
 50 72  1  0  0  0  0
 51 67  1  0  0  0  0
 52 66  1  0  0  0  0
 54 63  1  0  0  0  0
 55 64  1  0  0  0  0
 56 64  1  0  0  0  0
 57 64  1  0  0  0  0
 58 74  1  0  0  0  0
 59 75  1  0  0  0  0
 60 75  1  0  0  0  0
 61 82  1  0  0  0  0
 62 64  1  0  0  0  0
 62 73  1  0  0  0  0
 63 74  1  0  0  0  0
 65 66  1  0  0  0  0
M  CHG  2  74   1  75   1
M  ISO  4  40 100  61 101  71 100  82 101
M  END
> <Batch ID>
0041

> <Smiles>
C=C(CNCc1cc([100NH:0][100C:0](=O)N2CCCC(n3nc(-c4ccc(Oc5ccc(F)cc5F)cc4)c(C(N)=O)c3N)C2)cc(Cl)c1C)[101CH2:1][101O:1]c1ccc2c(c1)CN(C(=O)C(NC(=O)C(C)NC)C(C)(C)C)C(C(=O)NC1CCCc3ccccc31)C2

> <Shape>
0.261

> <Color>
0.188

> <Negative vol penalty>
0.000

$$$$

  -OEChem-04042322093D

 85 93  0     1  0  0  0  0  0999 V2000
  -16.9820  -27.0877   22.2282 C   0  0  0  0  0  0  0  0  0  0  0  0
  -17.7722  -26.3062   23.0651 C   0  0  0  0  0  0  0  0  0  0  0  0
  -22.7941  -10.2302   19.8890 C   0  0  0  0  0  0  0  0  0  0  0  0
  -23.6737   -9.9190   22.1175 C   0  0  0  0  0  0  0  0  0  0  0  0
  -16.3860  -26.5193   21.1033 C   0  0  0  0  0  0  0  0  0  0  0  0
  -17.9660  -24.9555   22.7779 C   0  0  0  0  0  0  0  0  0  0  0  0
  -23.0330  -21.6672   23.7874 C   0  0  0  0  0  0  0  0  0  0  0  0
  -28.9237  -19.6136   23.1293 C   0  0  0  0  0  0  0  0  0  0  0  0
  -21.9497   -9.1348   20.0692 C   0  0  0  0  0  0  0  0  0  0  0  0
  -22.8292   -8.8235   22.2978 C   0  0  0  0  0  0  0  0  0  0  0  0
  -23.3950  -20.7924   24.8108 C   0  0  0  0  0  0  0  0  0  0  0  0
  -19.5732   -8.2835   23.0242 C   0  0  0  0  0  0  0  0  0  0  0  0
  -18.8807   -8.1928   24.2316 C   0  0  0  0  0  0  0  0  0  0  0  0
  -29.6448  -19.6260   21.9355 C   0  0  0  0  0  0  0  0  0  0  0  0
  -22.6716  -18.9267   23.4637 C   0  0  0  0  0  0  0  0  0  0  0  0
  -19.9533   -6.0765   24.6878 C   0  0  0  0  0  0  0  0  0  0  0  0
  -23.6562  -10.6223   20.9131 C   0  0  0  0  0  0  0  0  0  0  0  0
  -24.2501  -13.1007   21.0258 C   0  0  0  0  0  0  0  0  0  0  0  0
  -16.5804  -25.1632   20.7969 C   0  0  0  0  0  0  0  0  0  0  0  0
  -22.4764  -21.1784   22.5968 C   0  0  0  0  0  0  0  0  0  0  0  0
  -17.3709  -24.3681   21.6485 C   0  0  0  0  0  0  0  0  0  0  0  0
  -22.3057  -19.7972   22.4257 C   0  0  0  0  0  0  0  0  0  0  0  0
  -28.9801  -18.4995   23.9667 C   0  0  0  0  0  0  0  0  0  0  0  0
  -29.7576  -17.3977   23.6101 C   0  0  0  0  0  0  0  0  0  0  0  0
  -30.4787  -17.4100   22.4162 C   0  0  0  0  0  0  0  0  0  0  0  0
  -21.9672   -8.4314   21.2736 C   0  0  0  0  0  0  0  0  0  0  0  0
  -23.2117  -19.4221   24.6502 C   0  0  0  0  0  0  0  0  0  0  0  0
  -20.4558   -7.2707   22.6486 C   0  0  0  0  0  0  0  0  0  0  0  0
  -19.0707   -7.0893   25.0634 C   0  0  0  0  0  0  0  0  0  0  0  0
  -20.6458   -6.1672   23.4804 C   0  0  0  0  0  0  0  0  0  0  0  0
  -30.4223  -18.5243   21.5789 C   0  0  0  0  0  0  0  0  0  0  0  0
  -24.5291  -11.7535   20.7273 C   0  0  0  0  0  0  0  0  0  0  0  0
  -25.3926  -13.7749   20.6699 C   0  0  0  0  0  0  0  0  0  0  0  0
  -23.0643  -13.6899   21.5756 C   0  0  0  0  0  0  0  0  0  0  0  0
  -19.6947  -21.5474   21.1036 C   0  0  0  0  0  0  0  0  0  0  0  0
  -21.1586  -19.8250   18.7771 C   0  0  0  0  0  0  0  0  0  0  0  0
  -23.5871  -17.5838   17.9249 C   0  0  0  0  0  0  0  0  0  0  0  0
  -30.9544  -14.2304   20.6053 C   0  0  0  0  0  0  0  0  0  0  0  0
  -15.8771  -24.5822   19.5958 C   0  0  0  0  0  0  0  0  0  0  0  0
  -22.1159  -22.1331   21.4918 C   0  0  0  0  0  0  0  0  0  0  0  0
  -21.7311  -19.2201   21.1587 C   0  0  0  0  0  0  0  0  0  0  0  0
  -16.4373  -23.2320   19.1560 C   0  0  0  0  0  0  0  0  0  0  0  0
  -29.4490  -12.2356   18.0694 C   0  0  0  0  0  0  0  0  0  0  0  0
  -16.6219  -22.3131   20.3595 C   0  0  0  0  0  0  0  0  0  0  0  0
  -28.0144  -12.0385   18.5625 C   0  0  0  0  0  0  0  0  0  0  0  0
  -30.4477  -12.2371   19.2246 C   0  0  0  0  0  0  0  0  0  0  0  0
  -28.7095  -12.9976   20.7976 C   0  0  0  0  0  0  0  0  0  0  0  0
  -17.6250  -22.9050   21.3569 C   0  0  1  0  0  0  0  0  0  0  0  0
  -21.0813  -21.5651   20.5252 C   0  0  1  0  0  0  0  0  0  0  0  0
  -27.6602  -13.0449   19.6737 C   0  0  2  0  0  0  0  0  0  0  0  0
  -29.8156  -16.2045   24.5111 C   0  0  0  0  0  0  0  0  0  0  0  0
  -24.5143  -16.3386   15.9534 C   0  0  0  0  0  0  0  0  0  0  0  0
  -18.7788  -17.9175   18.8657 C   0  0  0  0  0  0  0  0  0  0  0  0
  -20.1628  -16.2440   17.6198 C   0  0  0  0  0  0  0  0  0  0  0  0
  -19.6139  -18.4376   16.5665 C   0  0  0  0  0  0  0  0  0  0  0  0
  -26.2432  -18.8542   18.2247 C   0  0  0  0  0  0  0  0  0  0  0  0
  -31.3090  -16.2203   22.0454 C   0  0  0  0  0  0  0  0  0  0  0  0
  -28.1958  -18.5138   25.2456 C   0  0  0  0  0  0  0  0  0  0  0  0
  -24.9717  -16.7365   26.2983 C   0  0  0  0  0  0  0  0  0  0  0  0
  -26.2077  -17.6091   26.4572 C   0  0  0  0  0  0  0  0  0  0  0  0
  -23.9825  -17.2573   25.2629 C   0  0  0  0  0  0  0  0  0  1  0  0
  -21.2902  -18.3556   18.4573 C   0  0  1  0  0  0  0  0  0  0  0  0
  -24.6178  -17.5906   16.8105 C   0  0  2  0  0  0  0  0  0  0  0  0
  -19.9705  -17.7493   17.9021 C   0  0  0  0  0  0  0  0  0  0  0  0
  -25.7528  -11.5803   20.2207 N   0  0  0  0  0  0  0  0  0  0  0  0
  -26.2528  -12.8275   20.1980 N   0  0  0  0  0  0  0  0  0  0  0  0
  -21.3882  -20.1948   20.1099 N   0  0  0  0  0  0  0  0  0  0  0  0
  -30.0551  -13.2140   20.2432 N   0  0  0  0  0  0  0  0  0  0  0  0
  -25.7352  -15.0798   20.7177 N   0  0  0  0  0  0  0  0  0  0  0  0
  -21.9836  -12.8526   21.8844 N   0  0  0  0  0  0  0  0  0  0  0  0
  -18.9799  -22.7100   20.8871 N   0  0  0  0  0  0  0  0  0  0  0  0
  -22.4296  -18.2349   17.5541 N   0  0  0  0  0  0  0  0  0  0  0  0
  -30.5009  -15.1180   21.5734 N   0  0  0  0  0  0  0  0  0  0  0  0
  -25.9940  -17.6591   17.3781 N   0  3  0  0  0  0  0  0  0  0  0  0
  -26.9718  -17.6675   25.1890 N   0  3  0  0  0  0  0  0  0  0  0  0
  -22.9599  -14.9245   21.7715 O   0  0  0  0  0  0  0  0  0  0  0  0
  -19.3018  -20.5521   21.7009 O   0  0  0  0  0  0  0  0  0  0  0  0
  -20.8699  -20.6166   17.8762 O   0  0  0  0  0  0  0  0  0  0  0  0
  -23.7872  -17.0508   19.0141 O   0  0  0  0  0  0  0  0  0  0  0  0
  -32.0762  -14.3420   20.0993 O   0  0  0  0  0  0  0  0  0  0  0  0
  -21.1432   -7.3626   21.4500 O   0  0  0  0  0  0  0  0  0  0  0  0
  -23.5636  -18.5660   25.6478 O   0  0  0  0  0  0  0  0  0  1  0  0
  -18.4068   -7.0031   26.2235 F   0  0  0  0  0  0  0  0  0  0  0  0
  -21.4932   -5.1917   23.1254 F   0  0  0  0  0  0  0  0  0  0  0  0
  -31.2998  -18.5789   20.0930 Cl  0  0  0  0  0  0  0  0  0  0  0  0
  1  2  1  0  0  0  0
  1  5  2  0  0  0  0
  2  6  2  0  0  0  0
  3  9  2  0  0  0  0
  3 17  1  0  0  0  0
  4 10  1  0  0  0  0
  4 17  2  0  0  0  0
  5 19  1  0  0  0  0
  6 21  1  0  0  0  0
  7 11  2  0  0  0  0
  7 20  1  0  0  0  0
  8 14  2  0  0  0  0
  8 23  1  0  0  0  0
  9 26  1  0  0  0  0
 10 26  2  0  0  0  0
 11 27  1  0  0  0  0
 12 13  2  0  0  0  0
 12 28  1  0  0  0  0
 13 29  1  0  0  0  0
 14 31  1  0  0  0  0
 15 22  1  0  0  0  0
 15 27  2  0  0  0  0
 16 29  2  0  0  0  0
 16 30  1  0  0  0  0
 17 32  1  0  0  0  0
 18 32  1  0  0  0  0
 18 33  2  0  0  0  0
 18 34  1  0  0  0  0
 19 21  2  0  0  0  0
 19 39  1  0  0  0  0
 20 22  2  0  0  0  0
 20 40  1  0  0  0  0
 21 48  1  0  0  0  0
 22 41  1  0  0  0  0
 23 24  2  0  0  0  0
 23 58  1  0  0  0  0
 24 25  1  0  0  0  0
 24 51  1  0  0  0  0
 25 31  2  0  0  0  0
 25 57  1  0  0  0  0
 26 81  1  0  0  0  0
 27 82  1  0  0  0  0
 28 30  2  0  0  0  0
 28 81  1  0  0  0  0
 29 83  1  0  0  0  0
 30 84  1  0  0  0  0
 31 85  1  0  0  0  0
 32 65  2  0  0  0  0
 33 66  1  0  0  0  0
 33 69  1  0  0  0  0
 34 70  1  0  0  0  0
 34 76  2  0  0  0  0
 35 49  1  0  0  0  0
 35 71  1  0  0  0  0
 35 77  2  0  0  0  0
 36 62  1  0  0  0  0
 36 67  1  0  0  0  0
 36 78  2  0  0  0  0
 37 63  1  0  0  0  0
 37 72  1  0  0  0  0
 37 79  2  0  0  0  0
 38 68  1  0  0  0  0
 38 73  1  0  0  0  0
 38 80  2  0  0  0  0
 39 42  1  0  0  0  0
 40 49  1  0  0  0  0
 41 67  1  0  0  0  0
 42 44  1  0  0  0  0
 43 45  1  0  0  0  0
 43 46  1  0  0  0  0
 44 48  1  0  0  0  0
 45 50  1  0  0  0  0
 46 68  1  0  0  0  0
 47 50  1  0  0  0  0
 47 68  1  0  0  0  0
 48 71  1  0  0  0  0
 49 67  1  0  0  0  0
 50 66  1  0  0  0  0
 52 63  1  0  0  0  0
 53 64  1  0  0  0  0
 54 64  1  0  0  0  0
 55 64  1  0  0  0  0
 56 74  1  0  0  0  0
 57 73  1  0  0  0  0
 58 75  1  0  0  0  0
 59 60  1  0  0  0  0
 59 61  1  0  0  0  0
 60 75  1  0  0  0  0
 61 82  1  0  0  0  0
 62 64  1  0  0  0  0
 62 72  1  0  0  0  0
 63 74  1  0  0  0  0
 65 66  1  0  0  0  0
M  CHG  2  74   1  75   1
M  ISO  4  38 100  61 101  73 100  82 101
M  END
> <Batch ID>
0041

> <Smiles>
CNC(C)C(=O)NC(C(=O)N1Cc2cc([101O:1][101CH2:1]CCNCc3ccc(Cl)c(C[100NH:0][100C:0](=O)N4CCCC(n5nc(-c6ccc(Oc7ccc(F)cc7F)cc6)c(C(N)=O)c5N)C4)c3C)ccc2CC1C(=O)NC1CCCc2ccccc21)C(C)(C)C

> <Shape>
0.188

> <Color>
0.162

> <Negative vol penalty>
0.000

$$$$

  -OEChem-04042322093D

 83 91  0     1  0  0  0  0  0999 V2000
  -37.9259  -32.3573   16.7668 C   0  0  0  0  0  0  0  0  0  0  0  0
  -37.9670  -31.1227   17.4068 C   0  0  0  0  0  0  0  0  0  0  0  0
  -23.1019   -9.8340   19.9980 C   0  0  0  0  0  0  0  0  0  0  0  0
  -23.8232   -9.9443   22.3012 C   0  0  0  0  0  0  0  0  0  0  0  0
  -36.9012  -33.2574   17.0561 C   0  0  0  0  0  0  0  0  0  0  0  0
  -36.9840  -30.7880   18.3375 C   0  0  0  0  0  0  0  0  0  0  0  0
  -34.6227  -25.2308   19.3609 C   0  0  0  0  0  0  0  0  0  0  0  0
  -32.5903  -17.6452   23.3205 C   0  0  0  0  0  0  0  0  0  0  0  0
  -32.0048  -16.7265   22.4494 C   0  0  0  0  0  0  0  0  0  0  0  0
  -22.3610   -8.6876   20.2849 C   0  0  0  0  0  0  0  0  0  0  0  0
  -23.0822   -8.7979   22.5881 C   0  0  0  0  0  0  0  0  0  0  0  0
  -34.8915  -24.2605   20.3253 C   0  0  0  0  0  0  0  0  0  0  0  0
  -19.8493   -8.0047   23.1710 C   0  0  0  0  0  0  0  0  0  0  0  0
  -19.0731   -8.0098   24.3298 C   0  0  0  0  0  0  0  0  0  0  0  0
  -33.0577  -25.0855   21.6578 C   0  0  0  0  0  0  0  0  0  0  0  0
  -30.4063  -18.5268   23.8588 C   0  0  0  0  0  0  0  0  0  0  0  0
  -20.3137   -6.1141   25.1692 C   0  0  0  0  0  0  0  0  0  0  0  0
  -23.8331  -10.4624   21.0061 C   0  0  0  0  0  0  0  0  0  0  0  0
  -24.1615  -12.9823   20.7835 C   0  0  0  0  0  0  0  0  0  0  0  0
  -35.8997  -32.9297   17.9837 C   0  0  0  0  0  0  0  0  0  0  0  0
  -33.5745  -26.1442   19.5432 C   0  0  0  0  0  0  0  0  0  0  0  0
  -35.9457  -31.6852   18.6405 C   0  0  0  0  0  0  0  0  0  0  0  0
  -32.7761  -26.0648   20.6931 C   0  0  0  0  0  0  0  0  0  0  0  0
  -31.7910  -18.5453   24.0252 C   0  0  0  0  0  0  0  0  0  0  0  0
  -29.8207  -17.6080   22.9877 C   0  0  0  0  0  0  0  0  0  0  0  0
  -30.6200  -16.7079   22.2830 C   0  0  0  0  0  0  0  0  0  0  0  0
  -22.3511   -8.1695   21.5800 C   0  0  0  0  0  0  0  0  0  0  0  0
  -34.1108  -24.1896   21.4753 C   0  0  0  0  0  0  0  0  0  0  0  0
  -20.8577   -7.0543   23.0111 C   0  0  0  0  0  0  0  0  0  0  0  0
  -19.3053   -7.0645   25.3289 C   0  0  0  0  0  0  0  0  0  0  0  0
  -21.0899   -6.1090   24.0102 C   0  0  0  0  0  0  0  0  0  0  0  0
  -24.5991  -11.6463   20.7103 C   0  0  0  0  0  0  0  0  0  0  0  0
  -25.2550  -13.7230   20.4065 C   0  0  0  0  0  0  0  0  0  0  0  0
  -22.8811  -13.5070   21.1589 C   0  0  0  0  0  0  0  0  0  0  0  0
  -33.3752  -29.3049   19.8152 C   0  0  0  0  0  0  0  0  0  0  0  0
  -30.1854  -28.7184   19.7574 C   0  0  0  0  0  0  0  0  0  0  0  0
  -33.5022  -21.3440   23.6387 C   0  0  0  0  0  0  0  0  0  0  0  0
  -27.6346  -26.5151   20.2922 C   0  0  0  0  0  0  0  0  0  0  0  0
  -30.7111  -14.8122   20.6264 C   0  0  0  0  0  0  0  0  0  0  0  0
  -34.8387  -33.9542   18.2987 C   0  0  0  0  0  0  0  0  0  0  0  0
  -33.2806  -27.1679   18.4810 C   0  0  0  0  0  0  0  0  0  0  0  0
  -31.6262  -27.0090   20.9269 C   0  0  0  0  0  0  0  0  0  0  0  0
  -33.6256  -33.3727   19.0202 C   0  0  0  0  0  0  0  0  0  0  0  0
  -29.6513  -12.2917   18.3458 C   0  0  0  0  0  0  0  0  0  0  0  0
  -34.0689  -32.4641   20.1625 C   0  0  0  0  0  0  0  0  0  0  0  0
  -28.2064  -12.0090   18.7637 C   0  0  0  0  0  0  0  0  0  0  0  0
  -30.5447  -12.5780   19.5515 C   0  0  0  0  0  0  0  0  0  0  0  0
  -28.6104  -13.3479   20.8687 C   0  0  0  0  0  0  0  0  0  0  0  0
  -34.8836  -31.2757   19.6377 C   0  0  1  0  0  0  0  0  0  0  0  0
  -32.5121  -28.3747   19.0106 C   0  0  1  0  0  0  0  0  0  0  0  0
  -27.6586  -13.1178   19.6835 C   0  0  2  0  0  0  0  0  0  0  0  0
  -28.3350  -17.6128   22.8267 C   0  0  0  0  0  0  0  0  0  0  0  0
  -25.1335  -26.3358   20.1945 C   0  0  0  0  0  0  0  0  0  0  0  0
  -29.9722  -30.3116   22.3509 C   0  0  0  0  0  0  0  0  0  0  0  0
  -27.7019  -29.3139   22.6955 C   0  0  0  0  0  0  0  0  0  0  0  0
  -28.1421  -30.7500   20.7038 C   0  0  0  0  0  0  0  0  0  0  0  0
  -27.7521  -24.3665   18.2604 C   0  0  0  0  0  0  0  0  0  0  0  0
  -32.4216  -19.5358   24.9609 C   0  0  0  0  0  0  0  0  0  0  0  0
  -33.2654  -22.7685   23.1846 C   0  0  0  0  0  0  0  0  0  1  0  0
  -29.1331  -28.4260   20.7996 C   0  0  1  0  0  0  0  0  0  0  0  0
  -26.4381  -26.1332   19.4397 C   0  0  2  0  0  0  0  0  0  0  0  0
  -28.7601  -29.6837   21.6343 C   0  0  0  0  0  0  0  0  0  0  0  0
  -25.8714  -11.5413   20.3174 N   0  0  0  0  0  0  0  0  0  0  0  0
  -26.2426  -12.8207   20.1403 N   0  0  0  0  0  0  0  0  0  0  0  0
  -31.3827  -27.9963   19.8623 N   0  0  0  0  0  0  0  0  0  0  0  0
  -29.9648  -13.6416   20.3744 N   0  0  0  0  0  0  0  0  0  0  0  0
  -25.4585  -15.0515   20.2799 N   0  0  0  0  0  0  0  0  0  0  0  0
  -21.8692  -12.6062   21.5181 N   0  0  0  0  0  0  0  0  0  0  0  0
  -30.0444  -15.7670   21.3935 N   0  0  0  0  0  0  0  0  0  0  0  0
  -34.0080  -30.2767   19.0637 N   0  0  0  0  0  0  0  0  0  0  0  0
  -32.4475  -20.8674   24.4014 N   0  0  0  0  0  0  0  0  0  0  0  0
  -28.0095  -27.8263   20.0882 N   0  0  0  0  0  0  0  0  0  0  0  0
  -26.5280  -24.7026   19.0321 N   0  3  0  0  0  0  0  0  0  0  0  0
  -22.6364  -14.7373   21.1594 O   0  0  0  0  0  0  0  0  0  0  0  0
  -33.4596  -29.1532   21.0283 O   0  0  0  0  0  0  0  0  0  0  0  0
  -29.9509  -29.5514   18.8784 O   0  0  0  0  0  0  0  0  0  0  0  0
  -34.5166  -20.7148   23.3507 O   0  0  0  0  0  0  0  0  0  0  0  0
  -28.1797  -25.7300   21.0649 O   0  0  0  0  0  0  0  0  0  0  0  0
  -31.8468  -14.9684   20.1706 O   0  0  0  0  0  0  0  0  0  0  0  0
  -21.6280   -7.0510   21.8603 O   0  0  0  0  0  0  0  0  0  0  0  0
  -34.3715  -23.2439   22.4185 O   0  0  0  0  0  0  0  0  0  1  0  0
  -18.5608   -7.0705   26.4424 F   0  0  0  0  0  0  0  0  0  0  0  0
  -22.0581   -5.1942   23.8629 F   0  0  0  0  0  0  0  0  0  0  0  0
  1  2  1  0  0  0  0
  1  5  2  0  0  0  0
  2  6  2  0  0  0  0
  3 10  2  0  0  0  0
  3 18  1  0  0  0  0
  4 11  1  0  0  0  0
  4 18  2  0  0  0  0
  5 20  1  0  0  0  0
  6 22  1  0  0  0  0
  7 12  2  0  0  0  0
  7 21  1  0  0  0  0
  8  9  2  0  0  0  0
  8 24  1  0  0  0  0
  9 26  1  0  0  0  0
 10 27  1  0  0  0  0
 11 27  2  0  0  0  0
 12 28  1  0  0  0  0
 13 14  2  0  0  0  0
 13 29  1  0  0  0  0
 14 30  1  0  0  0  0
 15 23  1  0  0  0  0
 15 28  2  0  0  0  0
 16 24  2  0  0  0  0
 16 25  1  0  0  0  0
 17 30  2  0  0  0  0
 17 31  1  0  0  0  0
 18 32  1  0  0  0  0
 19 32  1  0  0  0  0
 19 33  2  0  0  0  0
 19 34  1  0  0  0  0
 20 22  2  0  0  0  0
 20 40  1  0  0  0  0
 21 23  2  0  0  0  0
 21 41  1  0  0  0  0
 22 49  1  0  0  0  0
 23 42  1  0  0  0  0
 24 58  1  0  0  0  0
 25 26  2  0  0  0  0
 25 52  1  0  0  0  0
 26 69  1  0  0  0  0
 27 80  1  0  0  0  0
 28 81  1  0  0  0  0
 29 31  2  0  0  0  0
 29 80  1  0  0  0  0
 30 82  1  0  0  0  0
 31 83  1  0  0  0  0
 32 63  2  0  0  0  0
 33 64  1  0  0  0  0
 33 67  1  0  0  0  0
 34 68  1  0  0  0  0
 34 74  2  0  0  0  0
 35 50  1  0  0  0  0
 35 70  1  0  0  0  0
 35 75  2  0  0  0  0
 36 60  1  0  0  0  0
 36 65  1  0  0  0  0
 36 76  2  0  0  0  0
 37 59  1  0  0  0  0
 37 71  1  0  0  0  0
 37 77  2  0  0  0  0
 38 61  1  0  0  0  0
 38 72  1  0  0  0  0
 38 78  2  0  0  0  0
 39 66  1  0  0  0  0
 39 69  1  0  0  0  0
 39 79  2  0  0  0  0
 40 43  1  0  0  0  0
 41 50  1  0  0  0  0
 42 65  1  0  0  0  0
 43 45  1  0  0  0  0
 44 46  1  0  0  0  0
 44 47  1  0  0  0  0
 45 49  1  0  0  0  0
 46 51  1  0  0  0  0
 47 66  1  0  0  0  0
 48 51  1  0  0  0  0
 48 66  1  0  0  0  0
 49 70  1  0  0  0  0
 50 65  1  0  0  0  0
 51 64  1  0  0  0  0
 53 61  1  0  0  0  0
 54 62  1  0  0  0  0
 55 62  1  0  0  0  0
 56 62  1  0  0  0  0
 57 73  1  0  0  0  0
 58 71  1  0  0  0  0
 59 81  1  0  0  0  0
 60 62  1  0  0  0  0
 60 72  1  0  0  0  0
 61 73  1  0  0  0  0
 63 64  1  0  0  0  0
M  CHG  1  73   1
M  ISO  4  39 100  59 101  69 100  81 101
M  END
> <Batch ID>
0041

> <Smiles>
CNC(C)C(=O)NC(C(=O)N1Cc2cc([101O:1][101CH2:1]C(=O)NCc3ccc([100NH:0][100C:0](=O)N4CCCC(n5nc(-c6ccc(Oc7ccc(F)cc7F)cc6)c(C(N)=O)c5N)C4)c(C)c3)ccc2CC1C(=O)NC1CCCc2ccccc21)C(C)(C)C

> <Shape>
0.225

> <Color>
0.193

> <Negative vol penalty>
0.000

$$$$

  -OEChem-04042322093D

 87 96  0     1  0  0  0  0  0999 V2000
  -22.4245  -28.7432   25.7899 C   0  0  0  0  0  0  0  0  0  0  0  0
  -23.4545  -27.9627   25.2746 C   0  0  0  0  0  0  0  0  0  0  0  0
  -22.6510  -10.2096   20.2528 C   0  0  0  0  0  0  0  0  0  0  0  0
  -24.2538   -9.5403   21.9320 C   0  0  0  0  0  0  0  0  0  0  0  0
  -22.6490  -30.0882   26.0803 C   0  0  0  0  0  0  0  0  0  0  0  0
  -24.7093  -28.5273   25.0485 C   0  0  0  0  0  0  0  0  0  0  0  0
  -28.4890  -25.5773   26.6783 C   0  0  0  0  0  0  0  0  0  0  0  0
  -21.9059   -9.0577   20.5048 C   0  0  0  0  0  0  0  0  0  0  0  0
  -23.5087   -8.3884   22.1841 C   0  0  0  0  0  0  0  0  0  0  0  0
  -28.8408  -24.4921   25.8768 C   0  0  0  0  0  0  0  0  0  0  0  0
  -19.6978   -7.9778   22.8267 C   0  0  0  0  0  0  0  0  0  0  0  0
  -18.3148   -8.1138   22.9467 C   0  0  0  0  0  0  0  0  0  0  0  0
  -30.6987  -25.7531   24.9953 C   0  0  0  0  0  0  0  0  0  0  0  0
  -30.4985  -18.3521   24.0351 C   0  0  0  0  0  0  0  0  0  0  0  0
  -32.0633  -16.5971   22.5339 C   0  0  0  0  0  0  0  0  0  0  0  0
  -18.0051   -6.6091   21.0819 C   0  0  0  0  0  0  0  0  0  0  0  0
  -23.8250  -10.4509   20.9663 C   0  0  0  0  0  0  0  0  0  0  0  0
  -24.1689  -12.9754   20.8383 C   0  0  0  0  0  0  0  0  0  0  0  0
  -23.9099  -30.6671   25.8667 C   0  0  0  0  0  0  0  0  0  0  0  0
  -29.2343  -26.7644   26.6362 C   0  0  0  0  0  0  0  0  0  0  0  0
  -24.9505  -29.8817   25.3351 C   0  0  0  0  0  0  0  0  0  0  0  0
  -30.3559  -26.8510   25.7992 C   0  0  0  0  0  0  0  0  0  0  0  0
  -29.8938  -17.4719   23.1379 C   0  0  0  0  0  0  0  0  0  0  0  0
  -31.8857  -18.3549   24.1817 C   0  0  0  0  0  0  0  0  0  0  0  0
  -30.6762  -16.5943   22.3873 C   0  0  0  0  0  0  0  0  0  0  0  0
  -22.3347   -8.1471   21.4705 C   0  0  0  0  0  0  0  0  0  0  0  0
  -29.9441  -24.5809   25.0330 C   0  0  0  0  0  0  0  0  0  0  0  0
  -20.2345   -7.1576   21.8343 C   0  0  0  0  0  0  0  0  0  0  0  0
  -17.4684   -7.4294   22.0743 C   0  0  0  0  0  0  0  0  0  0  0  0
  -19.3882   -6.4733   20.9619 C   0  0  0  0  0  0  0  0  0  0  0  0
  -32.6681  -17.4774   23.4312 C   0  0  0  0  0  0  0  0  0  0  0  0
  -24.5954  -11.6403   20.7060 C   0  0  0  0  0  0  0  0  0  0  0  0
  -25.2623  -13.7228   20.4745 C   0  0  0  0  0  0  0  0  0  0  0  0
  -31.4408  -21.5324   24.9296 C   0  0  0  0  0  0  0  0  0  0  0  0
  -22.8980  -13.4935   21.2531 C   0  0  0  0  0  0  0  0  0  0  0  0
  -28.6085  -29.7789   25.8460 C   0  0  0  0  0  0  0  0  0  0  0  0
  -31.6271  -30.2786   26.9235 C   0  0  0  0  0  0  0  0  0  0  0  0
  -34.8181  -28.6120   26.6844 C   0  0  0  0  0  0  0  0  0  0  0  0
  -30.7289  -14.7651   20.6560 C   0  0  0  0  0  0  0  0  0  0  0  0
  -24.0915  -32.1370   26.1515 C   0  0  0  0  0  0  0  0  0  0  0  0
  -28.8577  -27.9165   27.5268 C   0  0  0  0  0  0  0  0  0  0  0  0
  -31.2010  -28.0959   25.7320 C   0  0  0  0  0  0  0  0  0  0  0  0
  -25.5544  -32.5651   26.2346 C   0  0  0  0  0  0  0  0  0  0  0  0
  -33.7152  -22.4465   23.3238 C   0  0  0  0  0  0  0  0  0  0  0  0
  -29.6172  -12.3440   18.2939 C   0  0  0  0  0  0  0  0  0  0  0  0
  -26.3476  -31.9846   25.0681 C   0  0  0  0  0  0  0  0  0  0  0  0
  -32.3604  -23.1006   23.1510 C   0  0  0  0  0  0  0  0  0  0  0  0
  -28.1765  -12.0549   18.7217 C   0  0  0  0  0  0  0  0  0  0  0  0
  -33.5340  -20.9724   23.6386 C   0  0  0  0  0  0  0  0  0  0  0  0
  -30.5302  -12.5762   19.4965 C   0  0  0  0  0  0  0  0  0  0  0  0
  -28.6212  -13.3068   20.8716 C   0  0  0  0  0  0  0  0  0  0  0  0
  -26.3324  -30.4516   25.0993 C   0  0  1  0  0  0  0  0  0  0  0  0
  -31.5800  -22.9696   24.4441 C   0  0  1  0  0  0  0  0  0  1  0  0
  -29.3828  -29.2574   27.0234 C   0  0  1  0  0  0  0  0  0  0  0  0
  -27.6505  -13.1302   19.6926 C   0  0  2  0  0  0  0  0  0  0  0  0
  -28.4058  -17.4922   22.9996 C   0  0  0  0  0  0  0  0  0  0  0  0
  -36.7914  -28.6358   28.2346 C   0  0  0  0  0  0  0  0  0  0  0  0
  -32.6399  -32.5318   25.1326 C   0  0  0  0  0  0  0  0  0  0  0  0
  -34.9491  -31.5968   25.3805 C   0  0  0  0  0  0  0  0  0  0  0  0
  -33.7189  -32.4253   27.3862 C   0  0  0  0  0  0  0  0  0  0  0  0
  -34.8290  -25.6606   26.9029 C   0  0  0  0  0  0  0  0  0  0  0  0
  -32.4979  -19.3181   25.1572 C   0  0  0  0  0  0  0  0  0  0  0  0
  -33.0019  -30.2577   26.3003 C   0  0  1  0  0  0  0  0  0  0  0  0
  -35.5466  -27.8798   27.7968 C   0  0  2  0  0  0  0  0  0  0  0  0
  -33.5563  -31.6868   26.0398 C   0  0  0  0  0  0  0  0  0  0  0  0
  -25.8610  -11.5421   20.2904 N   0  0  0  0  0  0  0  0  0  0  0  0
  -26.2391  -12.8250   20.1584 N   0  0  0  0  0  0  0  0  0  0  0  0
  -32.5097  -20.6811   24.6430 N   0  0  0  0  0  0  0  0  0  0  0  0
  -30.7885  -29.1975   26.6173 N   0  0  0  0  0  0  0  0  0  0  0  0
  -29.9703  -13.6104   20.3693 N   0  0  0  0  0  0  0  0  0  0  0  0
  -25.4738  -15.0539   20.3974 N   0  0  0  0  0  0  0  0  0  0  0  0
  -21.8848  -12.5862   21.5915 N   0  0  0  0  0  0  0  0  0  0  0  0
  -30.0807  -15.6934   21.4700 N   0  0  0  0  0  0  0  0  0  0  0  0
  -27.2607  -29.9570   26.0933 N   0  0  0  0  0  0  0  0  0  0  0  0
  -33.8358  -29.4441   27.1783 N   0  0  0  0  0  0  0  0  0  0  0  0
  -35.9576  -26.5218   27.3407 N   0  3  0  0  0  0  0  0  0  0  0  0
  -30.4545  -21.2003   25.5922 O   0  0  0  0  0  0  0  0  0  0  0  0
  -22.6625  -14.7245   21.3058 O   0  0  0  0  0  0  0  0  0  0  0  0
  -29.1911  -30.0045   24.7918 O   0  0  0  0  0  0  0  0  0  0  0  0
  -31.3115  -31.2159   27.6608 O   0  0  0  0  0  0  0  0  0  0  0  0
  -35.0955  -28.4638   25.4962 O   0  0  0  0  0  0  0  0  0  0  0  0
  -31.8590  -14.9314   20.1899 O   0  0  0  0  0  0  0  0  0  0  0  0
  -21.6077   -7.0231   21.7170 O   0  0  0  0  0  0  0  0  0  0  0  0
  -30.2892  -23.5234   24.2491 O   0  0  0  0  0  0  0  0  0  1  0  0
  -16.1403   -7.5588   22.1906 F   0  0  0  0  0  0  0  0  0  0  0  0
  -19.8979   -5.6829   20.0073 F   0  0  0  0  0  0  0  0  0  0  0  0
  -34.3871  -17.4525   23.5857 Cl  0  0  0  0  0  0  0  0  0  0  0  0
  1  2  1  0  0  0  0
  1  5  2  0  0  0  0
  2  6  2  0  0  0  0
  3  8  2  0  0  0  0
  3 17  1  0  0  0  0
  4  9  1  0  0  0  0
  4 17  2  0  0  0  0
  5 19  1  0  0  0  0
  6 21  1  0  0  0  0
  7 10  2  0  0  0  0
  7 20  1  0  0  0  0
  8 26  1  0  0  0  0
  9 26  2  0  0  0  0
 10 27  1  0  0  0  0
 11 12  2  0  0  0  0
 11 28  1  0  0  0  0
 12 29  1  0  0  0  0
 13 22  1  0  0  0  0
 13 27  2  0  0  0  0
 14 23  2  0  0  0  0
 14 24  1  0  0  0  0
 15 25  2  0  0  0  0
 15 31  1  0  0  0  0
 16 29  2  0  0  0  0
 16 30  1  0  0  0  0
 17 32  1  0  0  0  0
 18 32  1  0  0  0  0
 18 33  2  0  0  0  0
 18 35  1  0  0  0  0
 19 21  2  0  0  0  0
 19 40  1  0  0  0  0
 20 22  2  0  0  0  0
 20 41  1  0  0  0  0
 21 52  1  0  0  0  0
 22 42  1  0  0  0  0
 23 25  1  0  0  0  0
 23 56  1  0  0  0  0
 24 31  2  0  0  0  0
 24 62  1  0  0  0  0
 25 73  1  0  0  0  0
 26 83  1  0  0  0  0
 27 84  1  0  0  0  0
 28 30  2  0  0  0  0
 28 83  1  0  0  0  0
 29 85  1  0  0  0  0
 30 86  1  0  0  0  0
 31 87  1  0  0  0  0
 32 66  2  0  0  0  0
 33 67  1  0  0  0  0
 33 71  1  0  0  0  0
 34 53  1  0  0  0  0
 34 68  1  0  0  0  0
 34 77  2  0  0  0  0
 35 72  1  0  0  0  0
 35 78  2  0  0  0  0
 36 54  1  0  0  0  0
 36 74  1  0  0  0  0
 36 79  2  0  0  0  0
 37 63  1  0  0  0  0
 37 69  1  0  0  0  0
 37 80  2  0  0  0  0
 38 64  1  0  0  0  0
 38 75  1  0  0  0  0
 38 81  2  0  0  0  0
 39 70  1  0  0  0  0
 39 73  1  0  0  0  0
 39 82  2  0  0  0  0
 40 43  1  0  0  0  0
 41 54  1  0  0  0  0
 42 69  1  0  0  0  0
 43 46  1  0  0  0  0
 44 47  1  0  0  0  0
 44 49  1  0  0  0  0
 45 48  1  0  0  0  0
 45 50  1  0  0  0  0
 46 52  1  0  0  0  0
 47 53  1  0  0  0  0
 48 55  1  0  0  0  0
 49 68  1  0  0  0  0
 50 70  1  0  0  0  0
 51 55  1  0  0  0  0
 51 70  1  0  0  0  0
 52 74  1  0  0  0  0
 53 84  1  0  0  0  0
 54 69  1  0  0  0  0
 55 67  1  0  0  0  0
 57 64  1  0  0  0  0
 58 65  1  0  0  0  0
 59 65  1  0  0  0  0
 60 65  1  0  0  0  0
 61 76  1  0  0  0  0
 62 68  1  0  0  0  0
 63 65  1  0  0  0  0
 63 75  1  0  0  0  0
 64 76  1  0  0  0  0
 66 67  1  0  0  0  0
M  CHG  1  76   1
M  ISO  4  39 100  53 101  73 100  84 101
M  END
> <Batch ID>
0041

> <Smiles>
CNC(C)C(=O)NC(C(=O)N1Cc2cc([101O:1][101CH:1]3CCCN(Cc4cc(C)c([100NH:0][100C:0](=O)N5CCCC(n6nc(-c7ccc(Oc8ccc(F)cc8F)cc7)c(C(N)=O)c6N)C5)cc4Cl)C3=O)ccc2CC1C(=O)NC1CCCc2ccccc21)C(C)(C)C

> <Shape>
0.194

> <Color>
0.191

> <Negative vol penalty>
0.000

$$$$

  -OEChem-04042322093D

 84 92  0     1  0  0  0  0  0999 V2000
  -25.6134  -33.2182   19.6101 C   0  0  0  0  0  0  0  0  0  0  0  0
  -26.1186  -32.1202   18.9213 C   0  0  0  0  0  0  0  0  0  0  0  0
  -23.0748   -9.8629   19.9502 C   0  0  0  0  0  0  0  0  0  0  0  0
  -23.8297   -9.8815   22.2451 C   0  0  0  0  0  0  0  0  0  0  0  0
  -26.3187  -33.7468   20.6904 C   0  0  0  0  0  0  0  0  0  0  0  0
  -27.3300  -31.5507   19.3118 C   0  0  0  0  0  0  0  0  0  0  0  0
  -28.8460  -25.6206   19.1069 C   0  0  0  0  0  0  0  0  0  0  0  0
  -29.6755  -19.2831   22.3567 C   0  0  0  0  0  0  0  0  0  0  0  0
  -29.5070  -17.8985   22.3545 C   0  0  0  0  0  0  0  0  0  0  0  0
  -22.3314   -8.7103   20.2040 C   0  0  0  0  0  0  0  0  0  0  0  0
  -23.0862   -8.7289   22.4990 C   0  0  0  0  0  0  0  0  0  0  0  0
  -29.5805  -24.8715   18.1888 C   0  0  0  0  0  0  0  0  0  0  0  0
  -22.9057   -5.3938   20.5121 C   0  0  0  0  0  0  0  0  0  0  0  0
  -22.9755   -4.3597   19.5786 C   0  0  0  0  0  0  0  0  0  0  0  0
  -31.5508  -25.1409   19.5542 C   0  0  0  0  0  0  0  0  0  0  0  0
  -31.1435  -17.7021   20.5880 C   0  0  0  0  0  0  0  0  0  0  0  0
  -20.5916   -4.5219   19.2209 C   0  0  0  0  0  0  0  0  0  0  0  0
  -23.8241  -10.4484   20.9707 C   0  0  0  0  0  0  0  0  0  0  0  0
  -24.1642  -12.9732   20.8393 C   0  0  0  0  0  0  0  0  0  0  0  0
  -27.5346  -33.1776   21.1004 C   0  0  0  0  0  0  0  0  0  0  0  0
  -29.4620  -26.1457   20.2520 C   0  0  0  0  0  0  0  0  0  0  0  0
  -28.0529  -32.0730   20.3977 C   0  0  0  0  0  0  0  0  0  0  0  0
  -30.8213  -25.8943   20.4866 C   0  0  0  0  0  0  0  0  0  0  0  0
  -30.5780  -19.8772   21.4745 C   0  0  0  0  0  0  0  0  0  0  0  0
  -31.3119  -19.0867   20.5902 C   0  0  0  0  0  0  0  0  0  0  0  0
  -30.2410  -17.1080   21.4702 C   0  0  0  0  0  0  0  0  0  0  0  0
  -22.3370   -8.1434   21.4785 C   0  0  0  0  0  0  0  0  0  0  0  0
  -30.9338  -24.6339   18.4109 C   0  0  0  0  0  0  0  0  0  0  0  0
  -21.6789   -5.9918   20.8001 C   0  0  0  0  0  0  0  0  0  0  0  0
  -21.8184   -3.9238   18.9330 C   0  0  0  0  0  0  0  0  0  0  0  0
  -20.5218   -5.5559   20.1545 C   0  0  0  0  0  0  0  0  0  0  0  0
  -24.5928  -11.6387   20.7089 C   0  0  0  0  0  0  0  0  0  0  0  0
  -25.2565  -13.7219   20.4748 C   0  0  0  0  0  0  0  0  0  0  0  0
  -32.1249  -21.4536   15.1452 C   0  0  0  0  0  0  0  0  0  0  0  0
  -22.8923  -13.4900   21.2530 C   0  0  0  0  0  0  0  0  0  0  0  0
  -31.8947  -21.7830   16.4261 C   0  0  0  0  0  0  0  0  0  0  0  0
  -29.9704  -29.0723   21.3836 C   0  0  0  0  0  0  0  0  0  0  0  0
  -31.0849  -27.4581   23.9671 C   0  0  0  0  0  0  0  0  0  0  0  0
  -32.4135  -24.5812   25.2342 C   0  0  0  0  0  0  0  0  0  0  0  0
  -30.7214  -14.7727   20.6564 C   0  0  0  0  0  0  0  0  0  0  0  0
  -28.2845  -33.8130   22.2443 C   0  0  0  0  0  0  0  0  0  0  0  0
  -28.6496  -26.9292   21.2463 C   0  0  0  0  0  0  0  0  0  0  0  0
  -31.5250  -26.4185   21.7108 C   0  0  0  0  0  0  0  0  0  0  0  0
  -29.3751  -32.9191   22.8289 C   0  0  0  0  0  0  0  0  0  0  0  0
  -29.6142  -12.3467   18.2973 C   0  0  0  0  0  0  0  0  0  0  0  0
  -30.2119  -32.2994   21.7143 C   0  0  0  0  0  0  0  0  0  0  0  0
  -28.1738  -12.0560   18.7252 C   0  0  0  0  0  0  0  0  0  0  0  0
  -30.5264  -12.5820   19.4999 C   0  0  0  0  0  0  0  0  0  0  0  0
  -28.6159  -13.3115   20.8735 C   0  0  0  0  0  0  0  0  0  0  0  0
  -29.3515  -31.4121   20.8066 C   0  0  1  0  0  0  0  0  0  0  0  0
  -29.4981  -27.8496   22.1182 C   0  0  1  0  0  0  0  0  0  0  0  0
  -27.6458  -13.1318   19.6944 C   0  0  2  0  0  0  0  0  0  0  0  0
  -30.7407  -21.3617   21.4948 C   0  0  0  0  0  0  0  0  0  0  0  0
  -33.2550  -23.5753   27.3736 C   0  0  0  0  0  0  0  0  0  0  0  0
  -33.6546  -29.0842   23.7181 C   0  0  0  0  0  0  0  0  0  0  0  0
  -34.7711  -27.4194   25.2181 C   0  0  0  0  0  0  0  0  0  0  0  0
  -32.8465  -28.7629   26.0629 C   0  0  0  0  0  0  0  0  0  0  0  0
  -30.3671  -22.4442   25.1699 C   0  0  0  0  0  0  0  0  0  0  0  0
  -32.2897  -19.7034   19.6338 C   0  0  0  0  0  0  0  0  0  0  0  0
  -32.5759  -21.0515   17.5507 C   0  0  0  0  0  0  0  0  0  0  0  0
  -30.9518  -22.8991   16.7842 C   0  0  0  0  0  0  0  0  0  1  0  0
  -32.4280  -26.9140   24.3901 C   0  0  1  0  0  0  0  0  0  0  0  0
  -32.0540  -23.7598   26.4591 C   0  0  2  0  0  0  0  0  0  0  0  0
  -33.4125  -28.0367   24.8231 C   0  0  0  0  0  0  0  0  0  0  0  0
  -25.8586  -11.5419   20.2939 N   0  0  0  0  0  0  0  0  0  0  0  0
  -26.2348  -12.8251   20.1602 N   0  0  0  0  0  0  0  0  0  0  0  0
  -30.6892  -27.1844   22.6501 N   0  0  0  0  0  0  0  0  0  0  0  0
  -29.9647  -13.6166   20.3711 N   0  0  0  0  0  0  0  0  0  0  0  0
  -25.4660  -15.0531   20.3959 N   0  0  0  0  0  0  0  0  0  0  0  0
  -21.8804  -12.5817   21.5924 N   0  0  0  0  0  0  0  0  0  0  0  0
  -30.0716  -15.7012   21.4690 N   0  0  0  0  0  0  0  0  0  0  0  0
  -29.0931  -30.1382   21.4430 N   0  0  0  0  0  0  0  0  0  0  0  0
  -32.1590  -25.9227   25.4261 N   0  0  0  0  0  0  0  0  0  0  0  0
  -31.5610  -22.4132   26.0534 N   0  3  0  0  0  0  0  0  0  0  0  0
  -31.6327  -20.3822   18.4857 N   0  3  0  0  0  0  0  0  0  0  0  0
  -22.6550  -14.7207   21.3039 O   0  0  0  0  0  0  0  0  0  0  0  0
  -31.0514  -29.0507   20.8068 O   0  0  0  0  0  0  0  0  0  0  0  0
  -30.4084  -28.0961   24.7776 O   0  0  0  0  0  0  0  0  0  0  0  0
  -32.8774  -24.0831   24.2108 O   0  0  0  0  0  0  0  0  0  0  0  0
  -31.8514  -14.9401   20.1905 O   0  0  0  0  0  0  0  0  0  0  0  0
  -21.6114   -7.0189   21.7266 O   0  0  0  0  0  0  0  0  0  0  0  0
  -31.6532  -23.9035   17.5160 O   0  0  0  0  0  0  0  0  0  1  0  0
  -21.8858   -2.9318   18.0354 F   0  0  0  0  0  0  0  0  0  0  0  0
  -19.3406   -6.1274   20.4262 F   0  0  0  0  0  0  0  0  0  0  0  0
  1  2  1  0  0  0  0
  1  5  2  0  0  0  0
  2  6  2  0  0  0  0
  3 10  2  0  0  0  0
  3 18  1  0  0  0  0
  4 11  1  0  0  0  0
  4 18  2  0  0  0  0
  5 20  1  0  0  0  0
  6 22  1  0  0  0  0
  7 12  2  0  0  0  0
  7 21  1  0  0  0  0
  8  9  2  0  0  0  0
  8 24  1  0  0  0  0
  9 26  1  0  0  0  0
 10 27  1  0  0  0  0
 11 27  2  0  0  0  0
 12 28  1  0  0  0  0
 13 14  2  0  0  0  0
 13 29  1  0  0  0  0
 14 30  1  0  0  0  0
 15 23  1  0  0  0  0
 15 28  2  0  0  0  0
 16 25  1  0  0  0  0
 16 26  2  0  0  0  0
 17 30  2  0  0  0  0
 17 31  1  0  0  0  0
 18 32  1  0  0  0  0
 19 32  1  0  0  0  0
 19 33  2  0  0  0  0
 19 35  1  0  0  0  0
 20 22  2  0  0  0  0
 20 41  1  0  0  0  0
 21 23  2  0  0  0  0
 21 42  1  0  0  0  0
 22 50  1  0  0  0  0
 23 43  1  0  0  0  0
 24 25  2  0  0  0  0
 24 53  1  0  0  0  0
 25 59  1  0  0  0  0
 26 71  1  0  0  0  0
 27 81  1  0  0  0  0
 28 82  1  0  0  0  0
 29 31  2  0  0  0  0
 29 81  1  0  0  0  0
 30 83  1  0  0  0  0
 31 84  1  0  0  0  0
 32 65  2  0  0  0  0
 33 66  1  0  0  0  0
 33 69  1  0  0  0  0
 34 36  2  0  0  0  0
 35 70  1  0  0  0  0
 35 76  2  0  0  0  0
 36 60  1  0  0  0  0
 36 61  1  0  0  0  0
 37 51  1  0  0  0  0
 37 72  1  0  0  0  0
 37 77  2  0  0  0  0
 38 62  1  0  0  0  0
 38 67  1  0  0  0  0
 38 78  2  0  0  0  0
 39 63  1  0  0  0  0
 39 73  1  0  0  0  0
 39 79  2  0  0  0  0
 40 68  1  0  0  0  0
 40 71  1  0  0  0  0
 40 80  2  0  0  0  0
 41 44  1  0  0  0  0
 42 51  1  0  0  0  0
 43 67  1  0  0  0  0
 44 46  1  0  0  0  0
 45 47  1  0  0  0  0
 45 48  1  0  0  0  0
 46 50  1  0  0  0  0
 47 52  1  0  0  0  0
 48 68  1  0  0  0  0
 49 52  1  0  0  0  0
 49 68  1  0  0  0  0
 50 72  1  0  0  0  0
 51 67  1  0  0  0  0
 52 66  1  0  0  0  0
 54 63  1  0  0  0  0
 55 64  1  0  0  0  0
 56 64  1  0  0  0  0
 57 64  1  0  0  0  0
 58 74  1  0  0  0  0
 59 75  1  0  0  0  0
 60 75  1  0  0  0  0
 61 82  1  0  0  0  0
 62 64  1  0  0  0  0
 62 73  1  0  0  0  0
 63 74  1  0  0  0  0
 65 66  1  0  0  0  0
M  CHG  2  74   1  75   1
M  ISO  4  40 100  61 101  71 100  82 101
M  END
> <Batch ID>
0041

> <Smiles>
C=C(CNCc1cc([100NH:0][100C:0](=O)N2CCCC(n3nc(-c4ccc(Oc5ccc(F)cc5F)cc4)c(C(N)=O)c3N)C2)ccc1C)[101CH2:1][101O:1]c1ccc2c(c1)CN(C(=O)C(NC(=O)C(C)NC)C(C)(C)C)C(C(=O)NC1CCCc3ccccc31)C2

> <Shape>
0.229

> <Color>
0.187

> <Negative vol penalty>
0.000

$$$$

  -OEChem-04042322093D

 82 90  0     1  0  0  0  0  0999 V2000
  -28.7029  -10.8740   16.3755 C   0  0  0  0  0  0  0  0  0  0  0  0
  -28.0552  -12.0438   15.9917 C   0  0  0  0  0  0  0  0  0  0  0  0
  -24.4872  -18.5471   18.3908 C   0  0  0  0  0  0  0  0  0  0  0  0
  -24.8518  -30.2021   19.8386 C   0  0  0  0  0  0  0  0  0  0  0  0
  -24.3660  -29.0445   21.9029 C   0  0  0  0  0  0  0  0  0  0  0  0
  -29.2068  -10.7499   17.6696 C   0  0  0  0  0  0  0  0  0  0  0  0
  -27.9101  -13.0900   16.9021 C   0  0  0  0  0  0  0  0  0  0  0  0
  -28.9921  -17.5997   14.8682 C   0  0  0  0  0  0  0  0  0  0  0  0
  -23.9929  -17.8938   17.2619 C   0  0  0  0  0  0  0  0  0  0  0  0
  -23.8858  -19.7251   18.8341 C   0  0  0  0  0  0  0  0  0  0  0  0
  -24.8760  -31.4161   20.5250 C   0  0  0  0  0  0  0  0  0  0  0  0
  -24.3903  -30.2586   22.5893 C   0  0  0  0  0  0  0  0  0  0  0  0
  -28.0200  -18.1815   14.0557 C   0  0  0  0  0  0  0  0  0  0  0  0
  -26.7189  -32.3833   23.8072 C   0  0  0  0  0  0  0  0  0  0  0  0
  -27.4112  -32.4281   25.0173 C   0  0  0  0  0  0  0  0  0  0  0  0
  -27.3353  -19.5878   15.8922 C   0  0  0  0  0  0  0  0  0  0  0  0
  -22.2960  -19.5965   17.0195 C   0  0  0  0  0  0  0  0  0  0  0  0
  -25.3759  -33.0549   26.1584 C   0  0  0  0  0  0  0  0  0  0  0  0
  -24.5967  -29.0163   20.5275 C   0  0  0  0  0  0  0  0  0  0  0  0
  -25.6548  -26.8939   19.5874 C   0  0  0  0  0  0  0  0  0  0  0  0
  -29.0763  -11.7988   18.5934 C   0  0  0  0  0  0  0  0  0  0  0  0
  -29.1362  -18.0005   16.2042 C   0  0  0  0  0  0  0  0  0  0  0  0
  -28.4115  -12.9793   18.2102 C   0  0  0  0  0  0  0  0  0  0  0  0
  -28.3118  -19.0113   16.7189 C   0  0  0  0  0  0  0  0  0  0  0  0
  -22.8974  -18.4185   16.5762 C   0  0  0  0  0  0  0  0  0  0  0  0
  -22.7903  -20.2497   18.1484 C   0  0  0  0  0  0  0  0  0  0  0  0
  -24.6453  -31.4443   21.9004 C   0  0  0  0  0  0  0  0  0  0  0  0
  -27.1895  -19.1736   14.5685 C   0  0  0  0  0  0  0  0  0  0  0  0
  -25.3552  -32.6744   23.7726 C   0  0  0  0  0  0  0  0  0  0  0  0
  -26.7397  -32.7638   26.1929 C   0  0  0  0  0  0  0  0  0  0  0  0
  -24.6837  -33.0101   24.9482 C   0  0  0  0  0  0  0  0  0  0  0  0
  -24.5710  -27.7620   19.8189 C   0  0  0  0  0  0  0  0  0  0  0  0
  -25.1136  -25.8510   18.8762 C   0  0  0  0  0  0  0  0  0  0  0  0
  -27.0280  -27.0192   19.9803 C   0  0  0  0  0  0  0  0  0  0  0  0
  -28.8568  -16.5564   19.0221 C   0  0  0  0  0  0  0  0  0  0  0  0
  -29.9668  -19.3895   20.1462 C   0  0  0  0  0  0  0  0  0  0  0  0
  -30.3532  -22.7461   19.6654 C   0  0  0  0  0  0  0  0  0  0  0  0
  -21.0850  -22.1006   18.0349 C   0  0  0  0  0  0  0  0  0  0  0  0
  -29.5954  -11.6001   19.9954 C   0  0  0  0  0  0  0  0  0  0  0  0
  -30.2075  -17.3819   17.0599 C   0  0  0  0  0  0  0  0  0  0  0  0
  -28.4394  -19.4916   18.1407 C   0  0  0  0  0  0  0  0  0  0  0  0
  -29.7307  -12.8997   20.7847 C   0  0  0  0  0  0  0  0  0  0  0  0
  -20.5741  -25.3582   16.6919 C   0  0  0  0  0  0  0  0  0  0  0  0
  -28.4760  -13.7529   20.6275 C   0  0  0  0  0  0  0  0  0  0  0  0
  -21.6575  -26.2026   17.3666 C   0  0  0  0  0  0  0  0  0  0  0  0
  -20.0051  -24.3033   17.6391 C   0  0  0  0  0  0  0  0  0  0  0  0
  -22.0888  -24.2833   18.9533 C   0  0  0  0  0  0  0  0  0  0  0  0
  -28.2562  -14.1459   19.1616 C   0  0  1  0  0  0  0  0  0  0  0  0
  -29.9240  -17.5048   18.5539 C   0  0  1  0  0  0  0  0  0  0  0  0
  -22.7377  -25.3171   18.0185 C   0  0  2  0  0  0  0  0  0  0  0  0
  -31.2654  -24.8030   20.7763 C   0  0  0  0  0  0  0  0  0  0  0  0
  -27.5413  -19.4632   21.9959 C   0  0  0  0  0  0  0  0  0  0  0  0
  -27.9828  -21.9000   22.3633 C   0  0  0  0  0  0  0  0  0  0  0  0
  -29.6820  -20.2087   23.0524 C   0  0  0  0  0  0  0  0  0  0  0  0
  -32.2944  -23.2068   17.4794 C   0  0  0  0  0  0  0  0  0  0  0  0
  -22.3661  -17.7154   15.3619 C   0  0  0  0  0  0  0  0  0  0  0  0
  -24.2533  -19.3877   12.4805 C   0  0  0  0  0  0  0  0  0  0  0  0
  -23.3479  -19.3003   13.6998 C   0  0  0  0  0  0  0  0  0  0  0  0
  -25.6829  -18.9310   12.7444 C   0  0  0  0  0  0  0  0  0  1  0  0
  -29.3328  -20.6843   20.5940 C   0  0  1  0  0  0  0  0  0  0  0  0
  -31.5593  -23.6541   19.8242 C   0  0  2  0  0  0  0  0  0  0  0  0
  -28.6308  -20.5539   21.9751 C   0  0  0  0  0  0  0  0  0  0  0  0
  -23.4277  -27.3098   19.2969 N   0  0  0  0  0  0  0  0  0  0  0  0
  -23.7901  -26.1464   18.7303 N   0  0  0  0  0  0  0  0  0  0  0  0
  -29.4976  -18.8515   18.9394 N   0  0  0  0  0  0  0  0  0  0  0  0
  -21.0856  -23.4999   18.2154 N   0  0  0  0  0  0  0  0  0  0  0  0
  -25.6455  -24.7192   18.3676 N   0  0  0  0  0  0  0  0  0  0  0  0
  -27.4144  -28.1539   20.7066 N   0  0  0  0  0  0  0  0  0  0  0  0
  -22.1793  -21.4460   18.5995 N   0  0  0  0  0  0  0  0  0  0  0  0
  -29.1453  -15.2253   18.7890 N   0  0  0  0  0  0  0  0  0  0  0  0
  -30.3878  -21.6911   20.5526 N   0  0  0  0  0  0  0  0  0  0  0  0
  -31.9547  -24.2256   18.5059 N   0  3  0  0  0  0  0  0  0  0  0  0
  -23.2257  -17.8971   14.1597 N   0  3  0  0  0  0  0  0  0  0  0  0
  -27.8903  -26.1585   19.6815 O   0  0  0  0  0  0  0  0  0  0  0  0
  -27.8470  -16.9994   19.5566 O   0  0  0  0  0  0  0  0  0  0  0  0
  -30.8509  -18.8782   20.8378 O   0  0  0  0  0  0  0  0  0  0  0  0
  -29.4671  -22.9540   18.8395 O   0  0  0  0  0  0  0  0  0  0  0  0
  -20.1946  -21.5283   17.4012 O   0  0  0  0  0  0  0  0  0  0  0  0
  -24.6691  -32.6287   22.5706 O   0  0  0  0  0  0  0  0  0  0  0  0
  -26.2393  -19.7427   13.7778 O   0  0  0  0  0  0  0  0  0  1  0  0
  -27.4043  -32.8053   27.3551 F   0  0  0  0  0  0  0  0  0  0  0  0
  -23.3733  -33.2896   24.9215 F   0  0  0  0  0  0  0  0  0  0  0  0
  1  2  1  0  0  0  0
  1  6  2  0  0  0  0
  2  7  2  0  0  0  0
  3  9  2  0  0  0  0
  3 10  1  0  0  0  0
  4 11  2  0  0  0  0
  4 19  1  0  0  0  0
  5 12  1  0  0  0  0
  5 19  2  0  0  0  0
  6 21  1  0  0  0  0
  7 23  1  0  0  0  0
  8 13  2  0  0  0  0
  8 22  1  0  0  0  0
  9 25  1  0  0  0  0
 10 26  2  0  0  0  0
 11 27  1  0  0  0  0
 12 27  2  0  0  0  0
 13 28  1  0  0  0  0
 14 15  2  0  0  0  0
 14 29  1  0  0  0  0
 15 30  1  0  0  0  0
 16 24  1  0  0  0  0
 16 28  2  0  0  0  0
 17 25  2  0  0  0  0
 17 26  1  0  0  0  0
 18 30  2  0  0  0  0
 18 31  1  0  0  0  0
 19 32  1  0  0  0  0
 20 32  1  0  0  0  0
 20 33  2  0  0  0  0
 20 34  1  0  0  0  0
 21 23  2  0  0  0  0
 21 39  1  0  0  0  0
 22 24  2  0  0  0  0
 22 40  1  0  0  0  0
 23 48  1  0  0  0  0
 24 41  1  0  0  0  0
 25 56  1  0  0  0  0
 26 69  1  0  0  0  0
 27 79  1  0  0  0  0
 28 80  1  0  0  0  0
 29 31  2  0  0  0  0
 29 79  1  0  0  0  0
 30 81  1  0  0  0  0
 31 82  1  0  0  0  0
 32 63  2  0  0  0  0
 33 64  1  0  0  0  0
 33 67  1  0  0  0  0
 34 68  1  0  0  0  0
 34 74  2  0  0  0  0
 35 49  1  0  0  0  0
 35 70  1  0  0  0  0
 35 75  2  0  0  0  0
 36 60  1  0  0  0  0
 36 65  1  0  0  0  0
 36 76  2  0  0  0  0
 37 61  1  0  0  0  0
 37 71  1  0  0  0  0
 37 77  2  0  0  0  0
 38 66  1  0  0  0  0
 38 69  1  0  0  0  0
 38 78  2  0  0  0  0
 39 42  1  0  0  0  0
 40 49  1  0  0  0  0
 41 65  1  0  0  0  0
 42 44  1  0  0  0  0
 43 45  1  0  0  0  0
 43 46  1  0  0  0  0
 44 48  1  0  0  0  0
 45 50  1  0  0  0  0
 46 66  1  0  0  0  0
 47 50  1  0  0  0  0
 47 66  1  0  0  0  0
 48 70  1  0  0  0  0
 49 65  1  0  0  0  0
 50 64  1  0  0  0  0
 51 61  1  0  0  0  0
 52 62  1  0  0  0  0
 53 62  1  0  0  0  0
 54 62  1  0  0  0  0
 55 72  1  0  0  0  0
 56 73  1  0  0  0  0
 57 58  1  0  0  0  0
 57 59  1  0  0  0  0
 58 73  1  0  0  0  0
 59 80  1  0  0  0  0
 60 62  1  0  0  0  0
 60 71  1  0  0  0  0
 61 72  1  0  0  0  0
 63 64  1  0  0  0  0
M  CHG  2  72   1  73   1
M  ISO  4  38 100  59 101  69 100  80 101
M  END
> <Batch ID>
0041

> <Smiles>
CNC(C)C(=O)NC(C(=O)N1Cc2cc([101O:1][101CH2:1]CCNCc3cccc([100NH:0][100C:0](=O)N4CCCC(n5nc(-c6ccc(Oc7ccc(F)cc7F)cc6)c(C(N)=O)c5N)C4)c3)ccc2CC1C(=O)NC1CCCc2ccccc21)C(C)(C)C

> <Shape>
0.222

> <Color>
0.064

> <Negative vol penalty>
0.000

$$$$

  -OEChem-04042322093D

 89 98  0     1  0  0  0  0  0999 V2000
  -16.5727  -29.8655   23.6783 C   0  0  0  0  0  0  0  0  0  0  0  0
  -17.6420  -30.7538   23.6575 C   0  0  0  0  0  0  0  0  0  0  0  0
  -23.6998  -10.6621   22.4732 C   0  0  0  0  0  0  0  0  0  0  0  0
  -23.8933  -12.7642   23.6482 C   0  0  0  0  0  0  0  0  0  0  0  0
  -16.8005  -28.5022   23.5028 C   0  0  0  0  0  0  0  0  0  0  0  0
  -18.9380  -30.2805   23.4494 C   0  0  0  0  0  0  0  0  0  0  0  0
  -26.8378  -30.5986   22.6041 C   0  0  0  0  0  0  0  0  0  0  0  0
  -23.1688  -10.0703   23.6193 C   0  0  0  0  0  0  0  0  0  0  0  0
  -23.3622  -12.1725   24.7943 C   0  0  0  0  0  0  0  0  0  0  0  0
  -27.9948  -29.8226   22.6589 C   0  0  0  0  0  0  0  0  0  0  0  0
  -20.1908   -9.9661   25.2172 C   0  0  0  0  0  0  0  0  0  0  0  0
  -19.0683   -9.1522   25.0658 C   0  0  0  0  0  0  0  0  0  0  0  0
  -27.0495  -28.3095   21.0353 C   0  0  0  0  0  0  0  0  0  0  0  0
  -28.5058  -21.5182   20.2135 C   0  0  0  0  0  0  0  0  0  0  0  0
  -28.0573  -21.2443   22.5716 C   0  0  0  0  0  0  0  0  0  0  0  0
  -20.3005   -7.2837   25.9754 C   0  0  0  0  0  0  0  0  0  0  0  0
  -24.0621  -12.0090   22.4877 C   0  0  0  0  0  0  0  0  0  0  0  0
  -23.9955  -12.7374   20.0438 C   0  0  0  0  0  0  0  0  0  0  0  0
  -18.1017  -28.0115   23.3050 C   0  0  0  0  0  0  0  0  0  0  0  0
  -25.7718  -30.2293   21.7712 C   0  0  0  0  0  0  0  0  0  0  0  0
  -19.1857  -28.9108   23.2465 C   0  0  0  0  0  0  0  0  0  0  0  0
  -25.8811  -29.0839   20.9698 C   0  0  0  0  0  0  0  0  0  0  0  0
  -28.2677  -22.0741   21.4704 C   0  0  0  0  0  0  0  0  0  0  0  0
  -28.5335  -20.1323   20.0578 C   0  0  0  0  0  0  0  0  0  0  0  0
  -28.0851  -19.8584   22.4160 C   0  0  0  0  0  0  0  0  0  0  0  0
  -28.3232  -19.3024   21.1590 C   0  0  0  0  0  0  0  0  0  0  0  0
  -22.9999  -10.8255   24.7798 C   0  0  0  0  0  0  0  0  0  0  0  0
  -28.0996  -28.6763   21.8766 C   0  0  0  0  0  0  0  0  0  0  0  0
  -21.3682   -9.4389   25.7477 C   0  0  0  0  0  0  0  0  0  0  0  0
  -19.1231   -7.8109   25.4449 C   0  0  0  0  0  0  0  0  0  0  0  0
  -21.4230   -8.0977   26.1269 C   0  0  0  0  0  0  0  0  0  0  0  0
  -24.6113  -12.6207   21.3043 C   0  0  0  0  0  0  0  0  0  0  0  0
  -24.9218  -13.3907   19.2682 C   0  0  0  0  0  0  0  0  0  0  0  0
  -29.5191  -25.5936   21.2657 C   0  0  0  0  0  0  0  0  0  0  0  0
  -30.6231  -25.3250   17.7736 C   0  0  0  0  0  0  0  0  0  0  0  0
  -29.8644  -25.9377   20.0139 C   0  0  0  0  0  0  0  0  0  0  0  0
  -30.2794  -24.9818   19.0201 C   0  0  0  0  0  0  0  0  0  0  0  0
  -22.7017  -12.2948   19.6125 C   0  0  0  0  0  0  0  0  0  0  0  0
  -22.7348  -29.4176   22.2415 C   0  0  0  0  0  0  0  0  0  0  0  0
  -22.6254  -29.4691   19.0000 C   0  0  0  0  0  0  0  0  0  0  0  0
  -24.7381  -28.4027   16.2766 C   0  0  0  0  0  0  0  0  0  0  0  0
  -29.4153  -17.1168   20.5450 C   0  0  0  0  0  0  0  0  0  0  0  0
  -18.2903  -26.5273   23.1128 C   0  0  0  0  0  0  0  0  0  0  0  0
  -24.5414  -31.0918   21.7035 C   0  0  0  0  0  0  0  0  0  0  0  0
  -24.7733  -28.6553   20.0439 C   0  0  0  0  0  0  0  0  0  0  0  0
  -19.7290  -26.0762   23.3428 C   0  0  0  0  0  0  0  0  0  0  0  0
  -29.6473  -14.0172   18.8084 C   0  0  0  0  0  0  0  0  0  0  0  0
  -29.9171  -24.8679   24.0106 C   0  0  0  0  0  0  0  0  0  0  0  0
  -20.6839  -26.9649   22.5599 C   0  0  0  0  0  0  0  0  0  0  0  0
  -29.8894  -26.3403   23.6160 C   0  0  0  0  0  0  0  0  0  0  0  0
  -28.3236  -13.3205   19.1317 C   0  0  0  0  0  0  0  0  0  0  0  0
  -30.1746  -14.8143   20.0002 C   0  0  0  0  0  0  0  0  0  0  0  0
  -27.8970  -15.0718   20.9032 C   0  0  0  0  0  0  0  0  0  0  0  0
  -30.4145  -23.9933   22.8643 C   0  0  0  0  0  0  0  0  0  0  0  0
  -20.6075  -28.4156   23.0523 C   0  0  1  0  0  0  0  0  0  0  0  0
  -29.0779  -26.5617   22.3404 C   0  0  1  0  0  0  0  0  0  1  0  0
  -23.3113  -30.3398   21.2047 C   0  0  1  0  0  0  0  0  0  0  0  0
  -27.2936  -14.3092   19.7124 C   0  0  2  0  0  0  0  0  0  0  0  0
  -28.7906  -19.5663   18.6986 C   0  0  0  0  0  0  0  0  0  0  0  0
  -27.8567  -18.9952   23.6147 C   0  0  0  0  0  0  0  0  0  0  0  0
  -24.9306  -29.2637   13.9273 C   0  0  0  0  0  0  0  0  0  0  0  0
  -20.6168  -27.2697   18.3378 C   0  0  0  0  0  0  0  0  0  0  0  0
  -21.8600  -26.8741   16.2009 C   0  0  0  0  0  0  0  0  0  0  0  0
  -20.7811  -29.0832   16.6235 C   0  0  0  0  0  0  0  0  0  0  0  0
  -27.6492  -28.8562   16.5577 C   0  0  0  0  0  0  0  0  0  0  0  0
  -28.2375  -23.5648   21.6378 C   0  0  0  0  0  0  0  0  0  0  0  0
  -22.8682  -28.4576   17.9059 C   0  0  1  0  0  0  0  0  0  0  0  0
  -25.5193  -29.2953   15.3292 C   0  0  2  0  0  0  0  0  0  0  0  0
  -21.5449  -27.9195   17.2920 C   0  0  0  0  0  0  0  0  0  0  0  0
  -25.8343  -13.1568   21.3323 N   0  0  0  0  0  0  0  0  0  0  0  0
  -25.9945  -13.6166   20.0797 N   0  0  0  0  0  0  0  0  0  0  0  0
  -23.5879  -29.5280   20.0178 N   0  0  0  0  0  0  0  0  0  0  0  0
  -29.1463  -15.7327   20.4943 N   0  0  0  0  0  0  0  0  0  0  0  0
  -24.9153  -13.7883   17.9781 N   0  0  0  0  0  0  0  0  0  0  0  0
  -21.8768  -11.6404   20.5374 N   0  0  0  0  0  0  0  0  0  0  0  0
  -28.3515  -17.8945   21.0012 N   0  0  0  0  0  0  0  0  0  0  0  0
  -21.3648  -29.2594   22.1544 N   0  0  0  0  0  0  0  0  0  0  0  0
  -23.7546  -29.1024   16.9432 N   0  0  0  0  0  0  0  0  0  0  0  0
  -29.6052  -24.1895   21.6032 N   0  3  1  0  0  0  0  0  0  0  0  0
  -26.9399  -28.8515   15.2524 N   0  3  0  0  0  0  0  0  0  0  0  0
  -22.2959  -12.4598   18.4371 O   0  0  0  0  0  0  0  0  0  0  0  0
  -23.4780  -28.8877   23.0591 O   0  0  0  0  0  0  0  0  0  0  0  0
  -21.6225  -30.1855   18.9495 O   0  0  0  0  0  0  0  0  0  0  0  0
  -24.9742  -27.2039   16.4092 O   0  0  0  0  0  0  0  0  0  0  0  0
  -30.4994  -17.5809   20.1828 O   0  0  0  0  0  0  0  0  0  0  0  0
  -22.4816  -10.2485   25.8982 O   0  0  0  0  0  0  0  0  0  0  0  0
  -29.2275  -27.9167   21.9286 O   0  0  0  0  0  0  0  0  0  1  0  0
  -18.0446   -7.0298   25.3008 F   0  0  0  0  0  0  0  0  0  0  0  0
  -22.5510   -7.5858   26.6382 F   0  0  0  0  0  0  0  0  0  0  0  0
  1  2  1  0  0  0  0
  1  5  2  0  0  0  0
  2  6  2  0  0  0  0
  3  8  2  0  0  0  0
  3 17  1  0  0  0  0
  4  9  1  0  0  0  0
  4 17  2  0  0  0  0
  5 19  1  0  0  0  0
  6 21  1  0  0  0  0
  7 10  2  0  0  0  0
  7 20  1  0  0  0  0
  8 27  1  0  0  0  0
  9 27  2  0  0  0  0
 10 28  1  0  0  0  0
 11 12  2  0  0  0  0
 11 29  1  0  0  0  0
 12 30  1  0  0  0  0
 13 22  1  0  0  0  0
 13 28  2  0  0  0  0
 14 23  1  0  0  0  0
 14 24  2  0  0  0  0
 15 23  2  0  0  0  0
 15 25  1  0  0  0  0
 16 30  2  0  0  0  0
 16 31  1  0  0  0  0
 17 32  1  0  0  0  0
 18 32  1  0  0  0  0
 18 33  2  0  0  0  0
 18 38  1  0  0  0  0
 19 21  2  0  0  0  0
 19 43  1  0  0  0  0
 20 22  2  0  0  0  0
 20 44  1  0  0  0  0
 21 55  1  0  0  0  0
 22 45  1  0  0  0  0
 23 66  1  0  0  0  0
 24 26  1  0  0  0  0
 24 59  1  0  0  0  0
 25 26  2  0  0  0  0
 25 60  1  0  0  0  0
 26 76  1  0  0  0  0
 27 86  1  0  0  0  0
 28 87  1  0  0  0  0
 29 31  2  0  0  0  0
 29 86  1  0  0  0  0
 30 88  1  0  0  0  0
 31 89  1  0  0  0  0
 32 70  2  0  0  0  0
 33 71  1  0  0  0  0
 33 74  1  0  0  0  0
 34 36  2  0  0  0  0
 34 56  1  0  0  0  0
 34 79  1  0  0  0  0
 35 37  2  0  0  0  0
 36 37  1  0  0  0  0
 38 75  1  0  0  0  0
 38 81  2  0  0  0  0
 39 57  1  0  0  0  0
 39 77  1  0  0  0  0
 39 82  2  0  0  0  0
 40 67  1  0  0  0  0
 40 72  1  0  0  0  0
 40 83  2  0  0  0  0
 41 68  1  0  0  0  0
 41 78  1  0  0  0  0
 41 84  2  0  0  0  0
 42 73  1  0  0  0  0
 42 76  1  0  0  0  0
 42 85  2  0  0  0  0
 43 46  1  0  0  0  0
 44 57  1  0  0  0  0
 45 72  1  0  0  0  0
 46 49  1  0  0  0  0
 47 51  1  0  0  0  0
 47 52  1  0  0  0  0
 48 50  1  0  0  0  0
 48 54  1  0  0  0  0
 49 55  1  0  0  0  0
 50 56  1  0  0  0  0
 51 58  1  0  0  0  0
 52 73  1  0  0  0  0
 53 58  1  0  0  0  0
 53 73  1  0  0  0  0
 54 79  1  0  0  0  0
 55 77  1  0  0  0  0
 56 87  1  0  0  0  0
 57 72  1  0  0  0  0
 58 71  1  0  0  0  0
 61 68  1  0  0  0  0
 62 69  1  0  0  0  0
 63 69  1  0  0  0  0
 64 69  1  0  0  0  0
 65 80  1  0  0  0  0
 66 79  1  0  0  0  0
 67 69  1  0  0  0  0
 67 78  1  0  0  0  0
 68 80  1  0  0  0  0
 70 71  1  0  0  0  0
M  CHG  2  79   1  80   1
M  ISO  4  42 100  56 101  76 100  87 101
M  END
> <Batch ID>
0041

> <Smiles>
C=CC=C1N(Cc2cc(C)c([100NH:0][100C:0](=O)N3CCCC(n4nc(-c5ccc(Oc6ccc(F)cc6F)cc5)c(C(N)=O)c4N)C3)c(C)c2)CCC[101CH:1]1[101O:1]c1ccc2c(c1)CN(C(=O)C(NC(=O)C(C)NC)C(C)(C)C)C(C(=O)NC1CCCc3ccccc31)C2

> <Shape>
0.288

> <Color>
0.122

> <Negative vol penalty>
0.000

$$$$

  -OEChem-04042322093D

 90 99  0     1  0  0  0  0  0999 V2000
  -16.6455  -30.0875   23.9812 C   0  0  0  0  0  0  0  0  0  0  0  0
  -17.7199  -30.8785   23.5905 C   0  0  0  0  0  0  0  0  0  0  0  0
  -23.3195  -10.0347   20.4937 C   0  0  0  0  0  0  0  0  0  0  0  0
  -24.4436   -8.8433   22.2696 C   0  0  0  0  0  0  0  0  0  0  0  0
  -16.7752  -28.7004   23.9963 C   0  0  0  0  0  0  0  0  0  0  0  0
  -18.9206  -30.2824   23.2033 C   0  0  0  0  0  0  0  0  0  0  0  0
  -26.4589  -29.8686   20.7081 C   0  0  0  0  0  0  0  0  0  0  0  0
  -22.3560   -9.0283   20.4284 C   0  0  0  0  0  0  0  0  0  0  0  0
  -23.4801   -7.8368   22.2043 C   0  0  0  0  0  0  0  0  0  0  0  0
  -27.5683  -29.0261   20.6542 C   0  0  0  0  0  0  0  0  0  0  0  0
  -20.3124   -7.3501   23.2765 C   0  0  0  0  0  0  0  0  0  0  0  0
  -19.7881   -6.8779   24.4797 C   0  0  0  0  0  0  0  0  0  0  0  0
  -26.2354  -27.3521   19.5404 C   0  0  0  0  0  0  0  0  0  0  0  0
  -27.2950  -19.7723   23.1035 C   0  0  0  0  0  0  0  0  0  0  0  0
  -20.5896   -4.6592   23.9584 C   0  0  0  0  0  0  0  0  0  0  0  0
  -24.3634   -9.9422   21.4143 C   0  0  0  0  0  0  0  0  0  0  0  0
  -26.2238  -11.3985   20.4521 C   0  0  0  0  0  0  0  0  0  0  0  0
  -17.9824  -28.0882   23.6208 C   0  0  0  0  0  0  0  0  0  0  0  0
  -25.2245  -29.4543   20.1874 C   0  0  0  0  0  0  0  0  0  0  0  0
  -19.0635  -28.8831   23.1888 C   0  0  0  0  0  0  0  0  0  0  0  0
  -25.1124  -28.1923   19.5866 C   0  0  0  0  0  0  0  0  0  0  0  0
  -27.2579  -21.0711   22.5961 C   0  0  0  0  0  0  0  0  0  0  0  0
  -27.5251  -20.2039   20.3569 C   0  0  0  0  0  0  0  0  0  0  0  0
  -27.3729  -21.2869   21.2228 C   0  0  0  0  0  0  0  0  0  0  0  0
  -27.5622  -18.9051   20.8644 C   0  0  0  0  0  0  0  0  0  0  0  0
  -27.4472  -18.6893   22.2376 C   0  0  0  0  0  0  0  0  0  0  0  0
  -22.4362   -7.9294   21.2837 C   0  0  0  0  0  0  0  0  0  0  0  0
  -27.4560  -27.7665   20.0729 C   0  0  0  0  0  0  0  0  0  0  0  0
  -20.9754   -6.4768   22.4142 C   0  0  0  0  0  0  0  0  0  0  0  0
  -19.9267   -5.5325   24.8207 C   0  0  0  0  0  0  0  0  0  0  0  0
  -21.1140   -5.1313   22.7551 C   0  0  0  0  0  0  0  0  0  0  0  0
  -25.3593  -10.9813   21.4819 C   0  0  0  0  0  0  0  0  0  0  0  0
  -26.9691  -12.4049   21.0162 C   0  0  0  0  0  0  0  0  0  0  0  0
  -28.5856  -24.5282   19.7142 C   0  0  0  0  0  0  0  0  0  0  0  0
  -28.8993  -23.6322   16.1668 C   0  0  0  0  0  0  0  0  0  0  0  0
  -28.6665  -24.6444   18.3784 C   0  0  0  0  0  0  0  0  0  0  0  0
  -28.8188  -23.5158   17.4970 C   0  0  0  0  0  0  0  0  0  0  0  0
  -26.3424  -10.9193   19.1060 C   0  0  0  0  0  0  0  0  0  0  0  0
  -22.3301  -28.9574   21.4036 C   0  0  0  0  0  0  0  0  0  0  0  0
  -21.5269  -28.5071   18.2932 C   0  0  0  0  0  0  0  0  0  0  0  0
  -22.9585  -26.8703   15.4142 C   0  0  0  0  0  0  0  0  0  0  0  0
  -27.3782  -17.0121   24.1161 C   0  0  0  0  0  0  0  0  0  0  0  0
  -18.0654  -26.5824   23.6482 C   0  0  0  0  0  0  0  0  0  0  0  0
  -24.0440  -30.3855   20.2294 C   0  0  0  0  0  0  0  0  0  0  0  0
  -23.8148  -27.7081   18.9950 C   0  0  0  0  0  0  0  0  0  0  0  0
  -19.5005  -26.0660   23.6501 C   0  0  0  0  0  0  0  0  0  0  0  0
  -27.3798  -13.8947   25.8363 C   0  0  0  0  0  0  0  0  0  0  0  0
  -29.5362  -24.2148   22.4007 C   0  0  0  0  0  0  0  0  0  0  0  0
  -20.2991  -26.7463   22.5483 C   0  0  0  0  0  0  0  0  0  0  0  0
  -29.4833  -25.6048   21.7767 C   0  0  0  0  0  0  0  0  0  0  0  0
  -26.9254  -12.8932   24.7721 C   0  0  0  0  0  0  0  0  0  0  0  0
  -26.6601  -15.2351   25.6977 C   0  0  0  0  0  0  0  0  0  0  0  0
  -26.2726  -14.8389   23.2973 C   0  0  0  0  0  0  0  0  0  0  0  0
  -29.7395  -23.1361   21.3418 C   0  0  0  0  0  0  0  0  0  0  0  0
  -20.3890  -28.2580   22.7928 C   0  0  1  0  0  0  0  0  0  0  0  0
  -28.4256  -25.6834   20.6768 C   0  0  1  0  0  0  0  0  0  1  0  0
  -22.7062  -29.6592   20.1294 C   0  0  1  0  0  0  0  0  0  0  0  0
  -27.0171  -13.4950   23.3561 C   0  0  2  0  0  0  0  0  0  0  0  0
  -27.0978  -22.2136   23.5450 C   0  0  0  0  0  0  0  0  0  0  0  0
  -27.6486  -20.4362   18.8839 C   0  0  0  0  0  0  0  0  0  0  0  0
  -27.7273  -17.7447   19.9333 C   0  0  0  0  0  0  0  0  0  0  0  0
  -22.6746  -27.3347   12.9645 C   0  0  0  0  0  0  0  0  0  0  0  0
  -19.3361  -26.3884   18.4413 C   0  0  0  0  0  0  0  0  0  0  0  0
  -20.0726  -25.5697   16.1928 C   0  0  0  0  0  0  0  0  0  0  0  0
  -19.1997  -27.8925   16.4479 C   0  0  0  0  0  0  0  0  0  0  0  0
  -25.8776  -27.1420   15.0089 C   0  0  0  0  0  0  0  0  0  0  0  0
  -27.3338  -22.6852   20.6806 C   0  0  0  0  0  0  0  0  0  0  0  0
  -21.4873  -27.3209   17.3602 C   0  0  1  0  0  0  0  0  0  0  0  0
  -23.5523  -27.5417   14.1890 C   0  0  2  0  0  0  0  0  0  0  0  0
  -20.0423  -26.7941   17.1322 C   0  0  0  0  0  0  0  0  0  0  0  0
  -25.5380  -11.6665   22.6144 N   0  0  0  0  0  0  0  0  0  0  0  0
  -26.5234  -12.5244   22.2996 N   0  0  0  0  0  0  0  0  0  0  0  0
  -22.6876  -28.6526   19.0660 N   0  0  0  0  0  0  0  0  0  0  0  0
  -26.7933  -15.7463   24.3318 N   0  0  0  0  0  0  0  0  0  0  0  0
  -27.9557  -13.1904   20.5345 N   0  0  0  0  0  0  0  0  0  0  0  0
  -27.2345   -9.8699   18.8466 N   0  0  0  0  0  0  0  0  0  0  0  0
  -27.4814  -17.3785   22.7745 N   0  0  0  0  0  0  0  0  0  0  0  0
  -20.9683  -28.8909   21.6285 N   0  0  0  0  0  0  0  0  0  0  0  0
  -22.1706  -27.7380   16.1406 N   0  0  0  0  0  0  0  0  0  0  0  0
  -28.6859  -23.1921   20.2597 N   0  3  1  0  0  0  0  0  0  0  0  0
  -24.9040  -26.9858   13.8977 N   0  3  0  0  0  0  0  0  0  0  0  0
  -25.6891  -11.4181   18.1585 O   0  0  0  0  0  0  0  0  0  0  0  0
  -23.2102  -28.5080   22.1283 O   0  0  0  0  0  0  0  0  0  0  0  0
  -20.5663  -29.2801   18.3297 O   0  0  0  0  0  0  0  0  0  0  0  0
  -23.1693  -25.6929   15.6965 O   0  0  0  0  0  0  0  0  0  0  0  0
  -27.7842  -17.7072   25.0509 O   0  0  0  0  0  0  0  0  0  0  0  0
  -21.4961   -6.9472   21.2204 O   0  0  0  0  0  0  0  0  0  0  0  0
  -28.5372  -26.9418   20.0196 O   0  0  0  0  0  0  0  0  0  1  0  0
  -19.4244   -5.0796   25.9769 F   0  0  0  0  0  0  0  0  0  0  0  0
  -21.7509   -4.2878   21.9313 F   0  0  0  0  0  0  0  0  0  0  0  0
  1  2  1  0  0  0  0
  1  5  2  0  0  0  0
  2  6  2  0  0  0  0
  3  8  2  0  0  0  0
  3 16  1  0  0  0  0
  4  9  1  0  0  0  0
  4 16  2  0  0  0  0
  5 18  1  0  0  0  0
  6 20  1  0  0  0  0
  7 10  2  0  0  0  0
  7 19  1  0  0  0  0
  8 27  1  0  0  0  0
  9 27  2  0  0  0  0
 10 28  1  0  0  0  0
 11 12  2  0  0  0  0
 11 29  1  0  0  0  0
 12 30  1  0  0  0  0
 13 21  1  0  0  0  0
 13 28  2  0  0  0  0
 14 22  2  0  0  0  0
 14 26  1  0  0  0  0
 15 30  2  0  0  0  0
 15 31  1  0  0  0  0
 16 32  1  0  0  0  0
 17 32  1  0  0  0  0
 17 33  2  0  0  0  0
 17 38  1  0  0  0  0
 18 20  2  0  0  0  0
 18 43  1  0  0  0  0
 19 21  2  0  0  0  0
 19 44  1  0  0  0  0
 20 55  1  0  0  0  0
 21 45  1  0  0  0  0
 22 24  1  0  0  0  0
 22 59  1  0  0  0  0
 23 24  2  0  0  0  0
 23 25  1  0  0  0  0
 23 60  1  0  0  0  0
 24 67  1  0  0  0  0
 25 26  2  0  0  0  0
 25 61  1  0  0  0  0
 26 77  1  0  0  0  0
 27 87  1  0  0  0  0
 28 88  1  0  0  0  0
 29 31  2  0  0  0  0
 29 87  1  0  0  0  0
 30 89  1  0  0  0  0
 31 90  1  0  0  0  0
 32 71  2  0  0  0  0
 33 72  1  0  0  0  0
 33 75  1  0  0  0  0
 34 36  2  0  0  0  0
 34 56  1  0  0  0  0
 34 80  1  0  0  0  0
 35 37  2  0  0  0  0
 36 37  1  0  0  0  0
 38 76  1  0  0  0  0
 38 82  2  0  0  0  0
 39 57  1  0  0  0  0
 39 78  1  0  0  0  0
 39 83  2  0  0  0  0
 40 68  1  0  0  0  0
 40 73  1  0  0  0  0
 40 84  2  0  0  0  0
 41 69  1  0  0  0  0
 41 79  1  0  0  0  0
 41 85  2  0  0  0  0
 42 74  1  0  0  0  0
 42 77  1  0  0  0  0
 42 86  2  0  0  0  0
 43 46  1  0  0  0  0
 44 57  1  0  0  0  0
 45 73  1  0  0  0  0
 46 49  1  0  0  0  0
 47 51  1  0  0  0  0
 47 52  1  0  0  0  0
 48 50  1  0  0  0  0
 48 54  1  0  0  0  0
 49 55  1  0  0  0  0
 50 56  1  0  0  0  0
 51 58  1  0  0  0  0
 52 74  1  0  0  0  0
 53 58  1  0  0  0  0
 53 74  1  0  0  0  0
 54 80  1  0  0  0  0
 55 78  1  0  0  0  0
 56 88  1  0  0  0  0
 57 73  1  0  0  0  0
 58 72  1  0  0  0  0
 62 69  1  0  0  0  0
 63 70  1  0  0  0  0
 64 70  1  0  0  0  0
 65 70  1  0  0  0  0
 66 81  1  0  0  0  0
 67 80  1  0  0  0  0
 68 70  1  0  0  0  0
 68 79  1  0  0  0  0
 69 81  1  0  0  0  0
 71 72  1  0  0  0  0
M  CHG  2  80   1  81   1
M  ISO  4  42 100  56 101  77 100  88 101
M  END
> <Batch ID>
0041

> <Smiles>
C=CC=C1N(Cc2c(C)cc([100NH:0][100C:0](=O)N3CCCC(n4nc(-c5ccc(Oc6ccc(F)cc6F)cc5)c(C(N)=O)c4N)C3)c(C)c2C)CCC[101CH:1]1[101O:1]c1ccc2c(c1)CN(C(=O)C(NC(=O)C(C)NC)C(C)(C)C)C(C(=O)NC1CCCc3ccccc31)C2

> <Shape>
0.274

> <Color>
0.115

> <Negative vol penalty>
0.000

$$$$

  -OEChem-04042322093D

 81 89  0     1  0  0  0  0  0999 V2000
  -30.8568  -34.1415   21.5563 C   0  0  0  0  0  0  0  0  0  0  0  0
  -31.3039  -33.0315   22.2658 C   0  0  0  0  0  0  0  0  0  0  0  0
  -23.0693   -9.9291   19.9266 C   0  0  0  0  0  0  0  0  0  0  0  0
  -23.8387   -9.9054   22.2167 C   0  0  0  0  0  0  0  0  0  0  0  0
  -29.6337  -34.0943   20.8887 C   0  0  0  0  0  0  0  0  0  0  0  0
  -30.5275  -31.8740   22.3090 C   0  0  0  0  0  0  0  0  0  0  0  0
  -32.5427  -26.0926   22.4502 C   0  0  0  0  0  0  0  0  0  0  0  0
  -30.5722  -18.2794   24.0788 C   0  0  0  0  0  0  0  0  0  0  0  0
  -32.7440  -17.4120   23.4723 C   0  0  0  0  0  0  0  0  0  0  0  0
  -29.9709  -17.4109   23.1679 C   0  0  0  0  0  0  0  0  0  0  0  0
  -32.1427  -16.5434   22.5615 C   0  0  0  0  0  0  0  0  0  0  0  0
  -22.3135   -8.7820   20.1687 C   0  0  0  0  0  0  0  0  0  0  0  0
  -23.0829   -8.7584   22.4588 C   0  0  0  0  0  0  0  0  0  0  0  0
  -32.7188  -25.1859   23.4946 C   0  0  0  0  0  0  0  0  0  0  0  0
  -19.8485   -7.9912   23.0674 C   0  0  0  0  0  0  0  0  0  0  0  0
  -19.0960   -7.9485   24.2411 C   0  0  0  0  0  0  0  0  0  0  0  0
  -30.5560  -24.2285   23.0201 C   0  0  0  0  0  0  0  0  0  0  0  0
  -20.3185   -5.9902   24.9536 C   0  0  0  0  0  0  0  0  0  0  0  0
  -23.8320  -10.4908   20.9506 C   0  0  0  0  0  0  0  0  0  0  0  0
  -24.2018  -13.0130   20.8533 C   0  0  0  0  0  0  0  0  0  0  0  0
  -28.8464  -32.9324   20.9157 C   0  0  0  0  0  0  0  0  0  0  0  0
  -31.3653  -26.0812   21.6887 C   0  0  0  0  0  0  0  0  0  0  0  0
  -29.2921  -31.8117   21.6423 C   0  0  0  0  0  0  0  0  0  0  0  0
  -30.3685  -25.1345   21.9650 C   0  0  0  0  0  0  0  0  0  0  0  0
  -31.9587  -18.2800   24.2310 C   0  0  0  0  0  0  0  0  0  0  0  0
  -30.7562  -16.5429   22.4092 C   0  0  0  0  0  0  0  0  0  0  0  0
  -22.3203   -8.1967   21.4348 C   0  0  0  0  0  0  0  0  0  0  0  0
  -31.7242  -24.2555   23.7815 C   0  0  0  0  0  0  0  0  0  0  0  0
  -20.8359   -7.0333   22.8368 C   0  0  0  0  0  0  0  0  0  0  0  0
  -19.3310   -6.9480   25.1842 C   0  0  0  0  0  0  0  0  0  0  0  0
  -21.0709   -6.0329   23.7799 C   0  0  0  0  0  0  0  0  0  0  0  0
  -24.6134  -11.6753   20.7010 C   0  0  0  0  0  0  0  0  0  0  0  0
  -25.3008  -13.7536   20.4926 C   0  0  0  0  0  0  0  0  0  0  0  0
  -22.9389  -13.5390   21.2826 C   0  0  0  0  0  0  0  0  0  0  0  0
  -29.0210  -28.1595   21.1517 C   0  0  0  0  0  0  0  0  0  0  0  0
  -28.0368  -25.9083   19.0337 C   0  0  0  0  0  0  0  0  0  0  0  0
  -28.0451  -22.6335   18.0733 C   0  0  0  0  0  0  0  0  0  0  0  0
  -30.7791  -14.7359   20.6540 C   0  0  0  0  0  0  0  0  0  0  0  0
  -27.5094  -32.9450   20.2180 C   0  0  0  0  0  0  0  0  0  0  0  0
  -31.2021  -27.0484   20.5484 C   0  0  0  0  0  0  0  0  0  0  0  0
  -29.0947  -25.0674   21.1642 C   0  0  0  0  0  0  0  0  0  0  0  0
  -26.9216  -31.5527   20.0026 C   0  0  0  0  0  0  0  0  0  0  0  0
  -29.6277  -12.3577   18.2675 C   0  0  0  0  0  0  0  0  0  0  0  0
  -27.0260  -30.7257   21.2801 C   0  0  0  0  0  0  0  0  0  0  0  0
  -28.1867  -12.0782   18.7004 C   0  0  0  0  0  0  0  0  0  0  0  0
  -30.5503  -12.5646   19.4674 C   0  0  0  0  0  0  0  0  0  0  0  0
  -28.6574  -13.2971   20.8636 C   0  0  0  0  0  0  0  0  0  0  0  0
  -28.4899  -30.5295   21.6922 C   0  0  1  0  0  0  0  0  0  0  0  0
  -29.7435  -27.2831   20.1680 C   0  0  1  0  0  0  0  0  0  0  0  0
  -27.6778  -13.1462   19.6884 C   0  0  2  0  0  0  0  0  0  0  0  0
  -27.1196  -21.0915   16.3231 C   0  0  0  0  0  0  0  0  0  0  0  0
  -25.3163  -25.9791   20.4135 C   0  0  0  0  0  0  0  0  0  0  0  0
  -24.7660  -23.8125   19.2860 C   0  0  0  0  0  0  0  0  0  0  0  0
  -25.2172  -25.8490   17.9179 C   0  0  0  0  0  0  0  0  0  0  0  0
  -30.7505  -21.8957   17.1269 C   0  0  0  0  0  0  0  0  0  0  0  0
  -32.6054  -19.2143   25.2107 C   0  0  0  0  0  0  0  0  0  0  0  0
  -33.2216  -21.5830   25.7091 C   0  0  0  0  0  0  0  0  0  0  0  0
  -33.2304  -22.9709   25.0995 C   0  0  0  0  0  0  0  0  0  1  0  0
  -27.1342  -24.7001   19.0999 C   0  0  1  0  0  0  0  0  0  0  0  0
  -28.2868  -21.9799   16.7246 C   0  0  2  0  0  0  0  0  0  0  0  0
  -25.6315  -25.0874   19.1959 C   0  0  0  0  0  0  0  0  0  0  0  0
  -25.8753  -11.5693   20.2765 N   0  0  0  0  0  0  0  0  0  0  0  0
  -26.2662  -12.8497   20.1588 N   0  0  0  0  0  0  0  0  0  0  0  0
  -28.9793  -26.0384   20.0635 N   0  0  0  0  0  0  0  0  0  0  0  0
  -30.0067  -13.5931   20.3570 N   0  0  0  0  0  0  0  0  0  0  0  0
  -25.5259  -15.0832   20.4315 N   0  0  0  0  0  0  0  0  0  0  0  0
  -21.9182  -12.6380   21.6154 N   0  0  0  0  0  0  0  0  0  0  0  0
  -30.1456  -15.6602   21.4840 N   0  0  0  0  0  0  0  0  0  0  0  0
  -29.1127  -29.5102   20.8750 N   0  0  0  0  0  0  0  0  0  0  0  0
  -27.4666  -23.8782   17.9413 N   0  0  0  0  0  0  0  0  0  0  0  0
  -29.5202  -21.1446   16.7674 N   0  3  0  0  0  0  0  0  0  0  0  0
  -32.6412  -20.6238   24.7357 N   0  3  0  0  0  0  0  0  0  0  0  0
  -22.7168  -14.7716   21.3527 O   0  0  0  0  0  0  0  0  0  0  0  0
  -28.4232  -27.6480   22.0912 O   0  0  0  0  0  0  0  0  0  0  0  0
  -27.9150  -26.7036   18.0986 O   0  0  0  0  0  0  0  0  0  0  0  0
  -28.3367  -22.0924   19.1376 O   0  0  0  0  0  0  0  0  0  0  0  0
  -31.9081  -14.8964   20.1833 O   0  0  0  0  0  0  0  0  0  0  0  0
  -21.5827   -7.0775   21.6714 O   0  0  0  0  0  0  0  0  0  0  0  0
  -31.8932  -23.3698   24.8007 O   0  0  0  0  0  0  0  0  0  1  0  0
  -18.6094   -6.9081   26.3119 F   0  0  0  0  0  0  0  0  0  0  0  0
  -22.0190   -5.1106   23.5644 F   0  0  0  0  0  0  0  0  0  0  0  0
  1  2  1  0  0  0  0
  1  5  2  0  0  0  0
  2  6  2  0  0  0  0
  3 12  2  0  0  0  0
  3 19  1  0  0  0  0
  4 13  1  0  0  0  0
  4 19  2  0  0  0  0
  5 21  1  0  0  0  0
  6 23  1  0  0  0  0
  7 14  2  0  0  0  0
  7 22  1  0  0  0  0
  8 10  2  0  0  0  0
  8 25  1  0  0  0  0
  9 11  1  0  0  0  0
  9 25  2  0  0  0  0
 10 26  1  0  0  0  0
 11 26  2  0  0  0  0
 12 27  1  0  0  0  0
 13 27  2  0  0  0  0
 14 28  1  0  0  0  0
 15 16  2  0  0  0  0
 15 29  1  0  0  0  0
 16 30  1  0  0  0  0
 17 24  1  0  0  0  0
 17 28  2  0  0  0  0
 18 30  2  0  0  0  0
 18 31  1  0  0  0  0
 19 32  1  0  0  0  0
 20 32  1  0  0  0  0
 20 33  2  0  0  0  0
 20 34  1  0  0  0  0
 21 23  2  0  0  0  0
 21 39  1  0  0  0  0
 22 24  2  0  0  0  0
 22 40  1  0  0  0  0
 23 48  1  0  0  0  0
 24 41  1  0  0  0  0
 25 56  1  0  0  0  0
 26 68  1  0  0  0  0
 27 78  1  0  0  0  0
 28 79  1  0  0  0  0
 29 31  2  0  0  0  0
 29 78  1  0  0  0  0
 30 80  1  0  0  0  0
 31 81  1  0  0  0  0
 32 62  2  0  0  0  0
 33 63  1  0  0  0  0
 33 66  1  0  0  0  0
 34 67  1  0  0  0  0
 34 73  2  0  0  0  0
 35 49  1  0  0  0  0
 35 69  1  0  0  0  0
 35 74  2  0  0  0  0
 36 59  1  0  0  0  0
 36 64  1  0  0  0  0
 36 75  2  0  0  0  0
 37 60  1  0  0  0  0
 37 70  1  0  0  0  0
 37 76  2  0  0  0  0
 38 65  1  0  0  0  0
 38 68  1  0  0  0  0
 38 77  2  0  0  0  0
 39 42  1  0  0  0  0
 40 49  1  0  0  0  0
 41 64  1  0  0  0  0
 42 44  1  0  0  0  0
 43 45  1  0  0  0  0
 43 46  1  0  0  0  0
 44 48  1  0  0  0  0
 45 50  1  0  0  0  0
 46 65  1  0  0  0  0
 47 50  1  0  0  0  0
 47 65  1  0  0  0  0
 48 69  1  0  0  0  0
 49 64  1  0  0  0  0
 50 63  1  0  0  0  0
 51 60  1  0  0  0  0
 52 61  1  0  0  0  0
 53 61  1  0  0  0  0
 54 61  1  0  0  0  0
 55 71  1  0  0  0  0
 56 72  1  0  0  0  0
 57 58  1  0  0  0  0
 57 72  1  0  0  0  0
 58 79  1  0  0  0  0
 59 61  1  0  0  0  0
 59 70  1  0  0  0  0
 60 71  1  0  0  0  0
 62 63  1  0  0  0  0
M  CHG  2  71   1  72   1
M  ISO  4  38 100  58 101  68 100  79 101
M  END
> <Batch ID>
0041

> <Smiles>
CNC(C)C(=O)NC(C(=O)N1Cc2cc([101O:1][101CH2:1]CNCc3ccc([100NH:0][100C:0](=O)N4CCCC(n5nc(-c6ccc(Oc7ccc(F)cc7F)cc6)c(C(N)=O)c5N)C4)cc3)ccc2CC1C(=O)NC1CCCc2ccccc21)C(C)(C)C

> <Shape>
0.247

> <Color>
0.199

> <Negative vol penalty>
0.000

$$$$

  -OEChem-04042322093D

 86 95  0     1  0  0  0  0  0999 V2000
  -16.9900  -28.4221   24.5166 C   0  0  0  0  0  0  0  0  0  0  0  0
  -17.6282  -27.8610   23.4151 C   0  0  0  0  0  0  0  0  0  0  0  0
  -28.7457  -22.8249   20.4751 C   0  0  0  0  0  0  0  0  0  0  0  0
  -26.7459  -13.3059   20.8157 C   0  0  0  0  0  0  0  0  0  0  0  0
  -28.0356  -11.9566   19.2817 C   0  0  0  0  0  0  0  0  0  0  0  0
  -28.7874  -22.1386   19.2615 C   0  0  0  0  0  0  0  0  0  0  0  0
  -17.1969  -29.7645   24.8317 C   0  0  0  0  0  0  0  0  0  0  0  0
  -18.4728  -28.6423   22.6274 C   0  0  0  0  0  0  0  0  0  0  0  0
  -25.9638  -27.5347   20.7076 C   0  0  0  0  0  0  0  0  0  0  0  0
  -29.5391  -23.9565   20.6641 C   0  0  0  0  0  0  0  0  0  0  0  0
  -25.9548  -12.1993   21.1240 C   0  0  0  0  0  0  0  0  0  0  0  0
  -27.2445  -10.8499   19.5900 C   0  0  0  0  0  0  0  0  0  0  0  0
  -27.3309  -27.5293   20.4297 C   0  0  0  0  0  0  0  0  0  0  0  0
  -23.3751  -10.5167   19.7318 C   0  0  0  0  0  0  0  0  0  0  0  0
  -21.9935  -10.7024   19.7818 C   0  0  0  0  0  0  0  0  0  0  0  0
  -27.3117  -29.9397   20.2359 C   0  0  0  0  0  0  0  0  0  0  0  0
  -21.9834  -10.0033   22.0945 C   0  0  0  0  0  0  0  0  0  0  0  0
  -27.7863  -13.1846   19.8945 C   0  0  0  0  0  0  0  0  0  0  0  0
  -29.6226  -22.5838   18.2369 C   0  0  0  0  0  0  0  0  0  0  0  0
  -29.3959  -15.0805   20.4623 C   0  0  0  0  0  0  0  0  0  0  0  0
  -18.0521  -30.5601   24.0531 C   0  0  0  0  0  0  0  0  0  0  0  0
  -25.2678  -28.7453   20.7660 C   0  0  0  0  0  0  0  0  0  0  0  0
  -18.6903  -29.9969   22.9315 C   0  0  0  0  0  0  0  0  0  0  0  0
  -25.9449  -29.9523   20.5262 C   0  0  0  0  0  0  0  0  0  0  0  0
  -30.4160  -23.7154   18.4258 C   0  0  0  0  0  0  0  0  0  0  0  0
  -30.3743  -24.4017   19.6395 C   0  0  0  0  0  0  0  0  0  0  0  0
  -26.2041  -10.9713   20.5112 C   0  0  0  0  0  0  0  0  0  0  0  0
  -28.0031  -28.7289   20.1942 C   0  0  0  0  0  0  0  0  0  0  0  0
  -24.0608  -10.0743   20.8631 C   0  0  0  0  0  0  0  0  0  0  0  0
  -21.2977  -10.4457   20.9631 C   0  0  0  0  0  0  0  0  0  0  0  0
  -23.3649   -9.8176   22.0444 C   0  0  0  0  0  0  0  0  0  0  0  0
  -28.6035  -14.3275   19.5752 C   0  0  0  0  0  0  0  0  0  0  0  0
  -29.9685  -16.0486   19.6740 C   0  0  0  0  0  0  0  0  0  0  0  0
  -29.6446  -21.8371   16.9665 C   0  0  0  0  0  0  0  0  0  0  0  0
  -29.5964  -14.9193   21.8728 C   0  0  0  0  0  0  0  0  0  0  0  0
  -21.9916  -30.4799   21.3437 C   0  0  0  0  0  0  0  0  0  0  0  0
  -24.1529  -32.1828   22.7000 C   0  0  0  0  0  0  0  0  0  0  0  0
  -26.7678  -33.5447   24.4159 C   0  0  0  0  0  0  0  0  0  0  0  0
  -29.4591  -19.9293   15.6949 C   0  0  0  0  0  0  0  0  0  0  0  0
  -18.2077  -32.0183   24.4052 C   0  0  0  0  0  0  0  0  0  0  0  0
  -23.7825  -28.7940   21.0013 C   0  0  0  0  0  0  0  0  0  0  0  0
  -25.1484  -31.2278   20.5652 C   0  0  0  0  0  0  0  0  0  0  0  0
  -19.4109  -32.6808   23.7392 C   0  0  0  0  0  0  0  0  0  0  0  0
  -32.1323  -27.3122   22.0730 C   0  0  0  0  0  0  0  0  0  0  0  0
  -33.0724  -26.6610   21.0589 C   0  0  0  0  0  0  0  0  0  0  0  0
  -30.1404  -16.5456   14.6503 C   0  0  0  0  0  0  0  0  0  0  0  0
  -19.4684  -32.3180   22.2586 C   0  0  0  0  0  0  0  0  0  0  0  0
  -29.8317  -15.7267   15.9036 C   0  0  0  0  0  0  0  0  0  0  0  0
  -31.1512  -28.2938   21.4381 C   0  0  0  0  0  0  0  0  0  0  0  0
  -32.5110  -25.3972   20.4046 C   0  0  0  0  0  0  0  0  0  0  0  0
  -29.2048  -17.7435   14.5196 C   0  0  0  0  0  0  0  0  0  0  0  0
  -28.8843  -17.8170   16.9773 C   0  0  0  0  0  0  0  0  0  0  0  0
  -30.7114  -26.8466   19.3717 C   0  0  0  0  0  0  0  0  0  0  0  0
  -19.6334  -30.8055   22.0673 C   0  0  1  0  0  0  0  0  0  0  0  0
  -23.3406  -30.0229   21.8160 C   0  0  1  0  0  0  0  0  0  0  0  0
  -29.8294  -16.6169   17.1591 C   0  0  1  0  0  0  0  0  0  0  0  0
  -30.1088  -27.6640   20.5141 C   0  0  2  0  0  0  0  0  0  1  0  0
  -31.3127  -24.1922   17.3259 C   0  0  0  0  0  0  0  0  0  0  0  0
  -27.3441  -35.4555   25.9373 C   0  0  0  0  0  0  0  0  0  0  0  0
  -24.1187  -34.0860   20.3166 C   0  0  0  0  0  0  0  0  0  0  0  0
  -25.5644  -35.6487   21.6341 C   0  0  0  0  0  0  0  0  0  0  0  0
  -23.2794  -35.0757   22.4544 C   0  0  0  0  0  0  0  0  0  0  0  0
  -27.5676  -31.7157   26.6009 C   0  0  0  0  0  0  0  0  0  0  0  0
  -25.1128  -33.3393   22.5794 C   0  0  1  0  0  0  0  0  0  0  0  0
  -26.8974  -34.0040   25.8570 C   0  0  2  0  0  0  0  0  0  0  0  0
  -24.5271  -34.5107   21.7413 C   0  0  0  0  0  0  0  0  0  0  0  0
  -28.6646  -14.7786   18.3195 N   0  0  0  0  0  0  0  0  0  0  0  0
  -29.4211  -20.5646   16.9214 N   0  0  0  0  0  0  0  0  0  0  0  0
  -29.5022  -15.8256   18.4119 N   0  0  0  0  0  0  0  0  0  0  0  0
  -31.1627  -25.5396   19.8489 N   0  0  3  0  0  0  0  0  0  0  0  0
  -24.2149  -31.2026   21.7021 N   0  0  0  0  0  0  0  0  0  0  0  0
  -29.2041  -18.5465   15.7432 N   0  0  0  0  0  0  0  0  0  0  0  0
  -30.8202  -17.0605   19.9443 N   0  0  0  0  0  0  0  0  0  0  0  0
  -28.9319  -13.8729   22.5268 N   0  0  0  0  0  0  0  0  0  0  0  0
  -21.0050  -30.4121   22.3088 N   0  0  0  0  0  0  0  0  0  0  0  0
  -25.4831  -33.7062   23.9420 N   0  0  0  0  0  0  0  0  0  0  0  0
  -27.8940  -33.1649   26.5805 N   0  3  0  0  0  0  0  0  0  0  0  0
  -30.3300  -15.6905   22.5366 O   0  0  0  0  0  0  0  0  0  0  0  0
  -21.8550  -30.8673   20.1892 O   0  0  0  0  0  0  0  0  0  0  0  0
  -23.3645  -32.1498   23.6491 O   0  0  0  0  0  0  0  0  0  0  0  0
  -27.7127  -33.0918   23.7737 O   0  0  0  0  0  0  0  0  0  0  0  0
  -29.6897  -20.5055   14.6291 O   0  0  0  0  0  0  0  0  0  0  0  0
  -25.4324   -9.8912   20.8120 O   0  0  0  0  0  0  0  0  0  0  0  0
  -29.3386  -28.7168   19.9278 O   0  0  0  0  0  0  0  0  0  1  0  0
  -19.9712  -10.6255   21.0115 F   0  0  0  0  0  0  0  0  0  0  0  0
  -24.0184   -9.3935   23.1348 F   0  0  0  0  0  0  0  0  0  0  0  0
  1  2  1  0  0  0  0
  1  7  2  0  0  0  0
  2  8  2  0  0  0  0
  3  6  1  0  0  0  0
  3 10  2  0  0  0  0
  4 11  2  0  0  0  0
  4 18  1  0  0  0  0
  5 12  1  0  0  0  0
  5 18  2  0  0  0  0
  6 19  2  0  0  0  0
  7 21  1  0  0  0  0
  8 23  1  0  0  0  0
  9 13  2  0  0  0  0
  9 22  1  0  0  0  0
 10 26  1  0  0  0  0
 11 27  1  0  0  0  0
 12 27  2  0  0  0  0
 13 28  1  0  0  0  0
 14 15  2  0  0  0  0
 14 29  1  0  0  0  0
 15 30  1  0  0  0  0
 16 24  1  0  0  0  0
 16 28  2  0  0  0  0
 17 30  2  0  0  0  0
 17 31  1  0  0  0  0
 18 32  1  0  0  0  0
 19 25  1  0  0  0  0
 19 34  1  0  0  0  0
 20 32  1  0  0  0  0
 20 33  2  0  0  0  0
 20 35  1  0  0  0  0
 21 23  2  0  0  0  0
 21 40  1  0  0  0  0
 22 24  2  0  0  0  0
 22 41  1  0  0  0  0
 23 54  1  0  0  0  0
 24 42  1  0  0  0  0
 25 26  2  0  0  0  0
 25 58  1  0  0  0  0
 26 70  1  0  0  0  0
 27 83  1  0  0  0  0
 28 84  1  0  0  0  0
 29 31  2  0  0  0  0
 29 83  1  0  0  0  0
 30 85  1  0  0  0  0
 31 86  1  0  0  0  0
 32 67  2  0  0  0  0
 33 69  1  0  0  0  0
 33 73  1  0  0  0  0
 34 68  2  0  0  0  0
 35 74  1  0  0  0  0
 35 78  2  0  0  0  0
 36 55  1  0  0  0  0
 36 75  1  0  0  0  0
 36 79  2  0  0  0  0
 37 64  1  0  0  0  0
 37 71  1  0  0  0  0
 37 80  2  0  0  0  0
 38 65  1  0  0  0  0
 38 76  1  0  0  0  0
 38 81  2  0  0  0  0
 39 68  1  0  0  0  0
 39 72  1  0  0  0  0
 39 82  2  0  0  0  0
 40 43  1  0  0  0  0
 41 55  1  0  0  0  0
 42 71  1  0  0  0  0
 43 47  1  0  0  0  0
 44 45  1  0  0  0  0
 44 49  1  0  0  0  0
 45 50  1  0  0  0  0
 46 48  1  0  0  0  0
 46 51  1  0  0  0  0
 47 54  1  0  0  0  0
 48 56  1  0  0  0  0
 49 57  1  0  0  0  0
 50 70  1  0  0  0  0
 51 72  1  0  0  0  0
 52 56  1  0  0  0  0
 52 72  1  0  0  0  0
 53 57  1  0  0  0  0
 53 70  1  0  0  0  0
 54 75  1  0  0  0  0
 55 71  1  0  0  0  0
 56 69  1  0  0  0  0
 57 84  1  0  0  0  0
 59 65  1  0  0  0  0
 60 66  1  0  0  0  0
 61 66  1  0  0  0  0
 62 66  1  0  0  0  0
 63 77  1  0  0  0  0
 64 66  1  0  0  0  0
 64 76  1  0  0  0  0
 65 77  1  0  0  0  0
 67 69  1  0  0  0  0
M  CHG  1  77   1
M  ISO  4  39 100  57 101  68 100  84 101
M  END
> <Batch ID>
0041

> <Smiles>
CNC(C)C(=O)NC(C(=O)N1Cc2cc([101O:1][101CH:1]3CCCCN(c4cccc(C=[100N:0][100C:0](=O)N5CCCC(n6nc(-c7ccc(Oc8ccc(F)cc8F)cc7)c(C(N)=O)c6N)C5)c4C)C3)ccc2CC1C(=O)NC1CCCc2ccccc21)C(C)(C)C

> <Shape>
0.325

> <Color>
0.105

> <Negative vol penalty>
0.000

$$$$

  -OEChem-04042322093D

 89 98  0     1  0  0  0  0  0999 V2000
  -16.4885  -29.5488   23.4489 C   0  0  0  0  0  0  0  0  0  0  0  0
  -17.4316  -30.5597   23.3025 C   0  0  0  0  0  0  0  0  0  0  0  0
  -24.3335  -12.1293   21.6340 C   0  0  0  0  0  0  0  0  0  0  0  0
  -25.3989  -13.4295   19.8986 C   0  0  0  0  0  0  0  0  0  0  0  0
  -16.9008  -28.2192   23.5062 C   0  0  0  0  0  0  0  0  0  0  0  0
  -18.7862  -30.2406   23.2013 C   0  0  0  0  0  0  0  0  0  0  0  0
  -26.9248  -29.8579   21.4643 C   0  0  0  0  0  0  0  0  0  0  0  0
  -24.7280  -10.9537   20.9953 C   0  0  0  0  0  0  0  0  0  0  0  0
  -25.7934  -12.2539   19.2600 C   0  0  0  0  0  0  0  0  0  0  0  0
  -27.8270  -28.8245   21.2155 C   0  0  0  0  0  0  0  0  0  0  0  0
  -27.3915   -9.5957   17.3631 C   0  0  0  0  0  0  0  0  0  0  0  0
  -28.7033   -9.5198   16.8951 C   0  0  0  0  0  0  0  0  0  0  0  0
  -26.1457  -27.6763   19.9217 C   0  0  0  0  0  0  0  0  0  0  0  0
  -24.9609  -23.8153   18.6247 C   0  0  0  0  0  0  0  0  0  0  0  0
  -29.5244   -9.8417   19.1444 C   0  0  0  0  0  0  0  0  0  0  0  0
  -24.6689  -13.3672   21.0856 C   0  0  0  0  0  0  0  0  0  0  0  0
  -24.6007  -14.9984   23.0458 C   0  0  0  0  0  0  0  0  0  0  0  0
  -18.2623  -27.8854   23.4182 C   0  0  0  0  0  0  0  0  0  0  0  0
  -25.6207  -29.8030   20.9519 C   0  0  0  0  0  0  0  0  0  0  0  0
  -19.2201  -28.9030   23.2329 C   0  0  0  0  0  0  0  0  0  0  0  0
  -25.2297  -28.7115   20.1633 C   0  0  0  0  0  0  0  0  0  0  0  0
  -25.6775  -23.6481   17.4398 C   0  0  0  0  0  0  0  0  0  0  0  0
  -24.2432  -22.7469   19.1625 C   0  0  0  0  0  0  0  0  0  0  0  0
  -25.6764  -22.4125   16.7925 C   0  0  0  0  0  0  0  0  0  0  0  0
  -24.9587  -21.3441   17.3303 C   0  0  0  0  0  0  0  0  0  0  0  0
  -24.2421  -21.5113   18.5152 C   0  0  0  0  0  0  0  0  0  0  0  0
  -25.4580  -11.0159   19.8083 C   0  0  0  0  0  0  0  0  0  0  0  0
  -27.4366  -27.7321   20.4465 C   0  0  0  0  0  0  0  0  0  0  0  0
  -27.1462   -9.7946   18.7218 C   0  0  0  0  0  0  0  0  0  0  0  0
  -29.7698   -9.6427   17.7857 C   0  0  0  0  0  0  0  0  0  0  0  0
  -28.2126   -9.9176   19.6124 C   0  0  0  0  0  0  0  0  0  0  0  0
  -24.2612  -14.5820   21.7446 C   0  0  0  0  0  0  0  0  0  0  0  0
  -23.9686  -16.2086   23.1949 C   0  0  0  0  0  0  0  0  0  0  0  0
  -28.2622  -25.0364   18.4598 C   0  0  0  0  0  0  0  0  0  0  0  0
  -28.2266  -24.0238   19.3457 C   0  0  0  0  0  0  0  0  0  0  0  0
  -25.4147  -14.3493   24.0316 C   0  0  0  0  0  0  0  0  0  0  0  0
  -22.7107  -29.7210   22.2282 C   0  0  0  0  0  0  0  0  0  0  0  0
  -21.7705  -29.9780   19.1343 C   0  0  0  0  0  0  0  0  0  0  0  0
  -22.7635  -28.5883   15.9563 C   0  0  0  0  0  0  0  0  0  0  0  0
  -22.1437  -20.3668   19.3110 C   0  0  0  0  0  0  0  0  0  0  0  0
  -18.6524  -26.4295   23.4781 C   0  0  0  0  0  0  0  0  0  0  0  0
  -24.6679  -30.9386   21.2070 C   0  0  0  0  0  0  0  0  0  0  0  0
  -23.8474  -28.6144   19.5731 C   0  0  0  0  0  0  0  0  0  0  0  0
  -20.1270  -26.2222   23.8080 C   0  0  0  0  0  0  0  0  0  0  0  0
  -30.6118  -26.7264   17.2093 C   0  0  0  0  0  0  0  0  0  0  0  0
  -20.1287  -18.6390   21.6841 C   0  0  0  0  0  0  0  0  0  0  0  0
  -30.2022  -25.5310   16.3476 C   0  0  0  0  0  0  0  0  0  0  0  0
  -20.9887  -27.0949   22.9078 C   0  0  0  0  0  0  0  0  0  0  0  0
  -30.1365  -26.6877   18.6598 C   0  0  0  0  0  0  0  0  0  0  0  0
  -20.9931  -17.4438   22.0919 C   0  0  0  0  0  0  0  0  0  0  0  0
  -20.2881  -18.9750   20.2024 C   0  0  0  0  0  0  0  0  0  0  0  0
  -22.5379  -17.9720   20.1627 C   0  0  0  0  0  0  0  0  0  0  0  0
  -28.7028  -25.4860   16.0621 C   0  0  0  0  0  0  0  0  0  0  0  0
  -20.7015  -28.5819   23.1515 C   0  0  1  0  0  0  0  0  0  0  0  0
  -28.6345  -26.4529   18.8350 C   0  0  2  0  0  0  0  0  0  1  0  0
  -23.2039  -30.5337   21.0646 C   0  0  1  0  0  0  0  0  0  0  0  0
  -22.4604  -17.6365   21.6611 C   0  0  2  0  0  0  0  0  0  0  0  0
  -23.4863  -22.9569   20.4340 C   0  0  0  0  0  0  0  0  0  0  0  0
  -26.4460  -22.2365   15.5218 C   0  0  0  0  0  0  0  0  0  0  0  0
  -24.9606  -20.0201   16.6316 C   0  0  0  0  0  0  0  0  0  0  0  0
  -22.5388  -29.5074   13.6320 C   0  0  0  0  0  0  0  0  0  0  0  0
  -19.1803  -28.3671   19.0593 C   0  0  0  0  0  0  0  0  0  0  0  0
  -19.6815  -27.8039   16.6719 C   0  0  0  0  0  0  0  0  0  0  0  0
  -19.3310  -30.1805   17.3438 C   0  0  0  0  0  0  0  0  0  0  0  0
  -25.6648  -28.3116   15.4416 C   0  0  0  0  0  0  0  0  0  0  0  0
  -26.4423  -24.8129   16.8835 C   0  0  0  0  0  0  0  0  0  0  0  0
  -21.4602  -29.0005   18.0265 C   0  0  1  0  0  0  0  0  0  0  0  0
  -23.4637  -29.3181   14.8242 C   0  0  2  0  0  0  0  0  0  0  0  0
  -19.9319  -28.8318   17.7960 C   0  0  0  0  0  0  0  0  0  0  0  0
  -23.4744  -15.4566   21.1121 N   0  0  0  0  0  0  0  0  0  0  0  0
  -23.3141  -16.4346   22.0198 N   0  0  0  0  0  0  0  0  0  0  0  0
  -22.9501  -29.7468   19.8561 N   0  0  0  0  0  0  0  0  0  0  0  0
  -21.7035  -19.1476   19.8683 N   0  0  0  0  0  0  0  0  0  0  0  0
  -23.9142  -17.0909   24.2152 N   0  0  0  0  0  0  0  0  0  0  0  0
  -26.7895  -14.6215   24.0473 N   0  0  0  0  0  0  0  0  0  0  0  0
  -23.5151  -20.4266   19.0653 N   0  0  0  0  0  0  0  0  0  0  0  0
  -21.3783  -29.3651   22.1414 N   0  0  0  0  0  0  0  0  0  0  0  0
  -22.1936  -29.4658   16.8543 N   0  0  0  0  0  0  0  0  0  0  0  0
  -27.9314  -24.6968   17.0937 N   0  3  2  0  0  0  0  0  0  0  0  0
  -24.6593  -28.5506   14.3743 N   0  3  0  0  0  0  0  0  0  0  0  0
  -24.9398  -13.5390   24.8630 O   0  0  0  0  0  0  0  0  0  0  0  0
  -23.4823  -29.4366   23.1368 O   0  0  0  0  0  0  0  0  0  0  0  0
  -20.9986  -30.9165   19.3466 O   0  0  0  0  0  0  0  0  0  0  0  0
  -22.7227  -27.3624   16.0339 O   0  0  0  0  0  0  0  0  0  0  0  0
  -21.3660  -21.2997   19.0947 O   0  0  0  0  0  0  0  0  0  0  0  0
  -25.8433   -9.8690   19.1850 O   0  0  0  0  0  0  0  0  0  0  0  0
  -28.3150  -26.7217   20.2027 O   0  0  0  0  0  0  0  0  0  1  0  0
  -31.0294   -9.5683   17.3364 F   0  0  0  0  0  0  0  0  0  0  0  0
  -27.9831  -10.1077   20.9189 F   0  0  0  0  0  0  0  0  0  0  0  0
  1  2  1  0  0  0  0
  1  5  2  0  0  0  0
  2  6  2  0  0  0  0
  3  8  2  0  0  0  0
  3 16  1  0  0  0  0
  4  9  1  0  0  0  0
  4 16  2  0  0  0  0
  5 18  1  0  0  0  0
  6 20  1  0  0  0  0
  7 10  2  0  0  0  0
  7 19  1  0  0  0  0
  8 27  1  0  0  0  0
  9 27  2  0  0  0  0
 10 28  1  0  0  0  0
 11 12  2  0  0  0  0
 11 29  1  0  0  0  0
 12 30  1  0  0  0  0
 13 21  1  0  0  0  0
 13 28  2  0  0  0  0
 14 22  1  0  0  0  0
 14 23  2  0  0  0  0
 15 30  2  0  0  0  0
 15 31  1  0  0  0  0
 16 32  1  0  0  0  0
 17 32  1  0  0  0  0
 17 33  2  0  0  0  0
 17 36  1  0  0  0  0
 18 20  2  0  0  0  0
 18 41  1  0  0  0  0
 19 21  2  0  0  0  0
 19 42  1  0  0  0  0
 20 54  1  0  0  0  0
 21 43  1  0  0  0  0
 22 24  2  0  0  0  0
 22 66  1  0  0  0  0
 23 26  1  0  0  0  0
 23 58  1  0  0  0  0
 24 25  1  0  0  0  0
 24 59  1  0  0  0  0
 25 26  2  0  0  0  0
 25 60  1  0  0  0  0
 26 76  1  0  0  0  0
 27 86  1  0  0  0  0
 28 87  1  0  0  0  0
 29 31  2  0  0  0  0
 29 86  1  0  0  0  0
 30 88  1  0  0  0  0
 31 89  1  0  0  0  0
 32 70  2  0  0  0  0
 33 71  1  0  0  0  0
 33 74  1  0  0  0  0
 34 35  2  0  0  0  0
 34 55  1  0  0  0  0
 34 79  1  0  0  0  0
 36 75  1  0  0  0  0
 36 81  2  0  0  0  0
 37 56  1  0  0  0  0
 37 77  1  0  0  0  0
 37 82  2  0  0  0  0
 38 67  1  0  0  0  0
 38 72  1  0  0  0  0
 38 83  2  0  0  0  0
 39 68  1  0  0  0  0
 39 78  1  0  0  0  0
 39 84  2  0  0  0  0
 40 73  1  0  0  0  0
 40 76  1  0  0  0  0
 40 85  2  0  0  0  0
 41 44  1  0  0  0  0
 42 56  1  0  0  0  0
 43 72  1  0  0  0  0
 44 48  1  0  0  0  0
 45 47  1  0  0  0  0
 45 49  1  0  0  0  0
 46 50  1  0  0  0  0
 46 51  1  0  0  0  0
 47 53  1  0  0  0  0
 48 54  1  0  0  0  0
 49 55  1  0  0  0  0
 50 57  1  0  0  0  0
 51 73  1  0  0  0  0
 52 57  1  0  0  0  0
 52 73  1  0  0  0  0
 53 79  1  0  0  0  0
 54 77  1  0  0  0  0
 55 87  1  0  0  0  0
 56 72  1  0  0  0  0
 57 71  1  0  0  0  0
 61 68  1  0  0  0  0
 62 69  1  0  0  0  0
 63 69  1  0  0  0  0
 64 69  1  0  0  0  0
 65 80  1  0  0  0  0
 66 79  1  0  0  0  0
 67 69  1  0  0  0  0
 67 78  1  0  0  0  0
 68 80  1  0  0  0  0
 70 71  1  0  0  0  0
M  CHG  2  79   1  80   1
M  ISO  4  40 100  55 101  76 100  87 101
M  END
> <Batch ID>
0041

> <Smiles>
C=C1N(Cc2cc(C)c([100NH:0][100C:0](=O)N3CCCC(n4nc(-c5ccc(Oc6ccc(F)cc6F)cc5)c(C(N)=O)c4N)C3)c(C)c2C)CCCC[101CH:1]1[101O:1]c1ccc2c(c1)CN(C(=O)C(NC(=O)C(C)NC)C(C)(C)C)C(C(=O)NC1CCCc3ccccc31)C2

> <Shape>
0.188

> <Color>
0.115

> <Negative vol penalty>
0.000

$$$$

  -OEChem-04042322093D

 83 91  0     1  0  0  0  0  0999 V2000
  -29.5809  -23.9882   17.1609 C   0  0  0  0  0  0  0  0  0  0  0  0
  -28.3899  -24.0162   17.8792 C   0  0  0  0  0  0  0  0  0  0  0  0
  -24.2946  -23.0244   25.5255 C   0  0  0  0  0  0  0  0  0  0  0  0
  -24.3146  -12.6037   19.6204 C   0  0  0  0  0  0  0  0  0  0  0  0
  -25.3403  -12.5913   21.8079 C   0  0  0  0  0  0  0  0  0  0  0  0
  -30.6610  -24.7675   17.5733 C   0  0  0  0  0  0  0  0  0  0  0  0
  -28.2786  -24.8229   19.0112 C   0  0  0  0  0  0  0  0  0  0  0  0
  -23.9205  -27.3987   19.1402 C   0  0  0  0  0  0  0  0  0  0  0  0
  -25.5631  -22.7414   25.0191 C   0  0  0  0  0  0  0  0  0  0  0  0
  -23.2020  -23.1090   24.6625 C   0  0  0  0  0  0  0  0  0  0  0  0
  -24.3873  -11.2114   19.5784 C   0  0  0  0  0  0  0  0  0  0  0  0
  -25.4130  -11.1989   21.7659 C   0  0  0  0  0  0  0  0  0  0  0  0
  -22.7797  -26.7007   19.5343 C   0  0  0  0  0  0  0  0  0  0  0  0
  -25.5395   -7.6193   22.3892 C   0  0  0  0  0  0  0  0  0  0  0  0
  -25.1561   -6.9145   23.5301 C   0  0  0  0  0  0  0  0  0  0  0  0
  -22.9743  -27.6435   21.7462 C   0  0  0  0  0  0  0  0  0  0  0  0
  -22.9440   -7.8744   23.3797 C   0  0  0  0  0  0  0  0  0  0  0  0
  -24.7912  -13.2937   20.7351 C   0  0  0  0  0  0  0  0  0  0  0  0
  -23.6586  -15.5137   21.2798 C   0  0  0  0  0  0  0  0  0  0  0  0
  -30.5597  -25.5915   18.7053 C   0  0  0  0  0  0  0  0  0  0  0  0
  -24.6041  -28.2172   20.0508 C   0  0  0  0  0  0  0  0  0  0  0  0
  -29.3587  -25.6129   19.4399 C   0  0  0  0  0  0  0  0  0  0  0  0
  -24.1220  -28.3528   21.3605 C   0  0  0  0  0  0  0  0  0  0  0  0
  -25.7390  -22.5431   23.6497 C   0  0  0  0  0  0  0  0  0  0  0  0
  -24.6464  -22.6277   22.7866 C   0  0  0  0  0  0  0  0  0  0  0  0
  -23.3779  -22.9107   23.2931 C   0  0  0  0  0  0  0  0  0  0  0  0
  -24.9365  -10.5090   20.6511 C   0  0  0  0  0  0  0  0  0  0  0  0
  -22.3082  -26.8207   20.8383 C   0  0  0  0  0  0  0  0  0  0  0  0
  -24.6253   -8.4518   21.7436 C   0  0  0  0  0  0  0  0  0  0  0  0
  -23.8583   -7.0419   24.0254 C   0  0  0  0  0  0  0  0  0  0  0  0
  -23.3276   -8.5793   22.2388 C   0  0  0  0  0  0  0  0  0  0  0  0
  -24.7169  -14.7319   20.7789 C   0  0  0  0  0  0  0  0  0  0  0  0
  -24.0719  -16.8103   21.0943 C   0  0  0  0  0  0  0  0  0  0  0  0
  -22.4134  -15.1043   21.8609 C   0  0  0  0  0  0  0  0  0  0  0  0
  -27.5293  -28.2334   21.2945 C   0  0  0  0  0  0  0  0  0  0  0  0
  -26.5489  -31.0496   22.5714 C   0  0  0  0  0  0  0  0  0  0  0  0
  -23.9562  -33.0313   23.5700 C   0  0  0  0  0  0  0  0  0  0  0  0
  -28.0169  -20.7479   21.3725 C   0  0  0  0  0  0  0  0  0  0  0  0
  -31.7696  -26.3801   19.1398 C   0  0  0  0  0  0  0  0  0  0  0  0
  -25.8177  -28.9844   19.6026 C   0  0  0  0  0  0  0  0  0  0  0  0
  -24.8079  -29.2346   22.3707 C   0  0  0  0  0  0  0  0  0  0  0  0
  -31.4467  -27.4929   20.1336 C   0  0  0  0  0  0  0  0  0  0  0  0
  -27.9751  -18.6790   18.4752 C   0  0  0  0  0  0  0  0  0  0  0  0
  -30.5282  -26.9744   21.2356 C   0  0  0  0  0  0  0  0  0  0  0  0
  -27.0418  -17.5296   18.8599 C   0  0  0  0  0  0  0  0  0  0  0  0
  -28.8161  -19.1444   19.6618 C   0  0  0  0  0  0  0  0  0  0  0  0
  -27.1105  -18.3478   21.2525 C   0  0  0  0  0  0  0  0  0  0  0  0
  -29.1910  -26.4940   20.6588 C   0  0  1  0  0  0  0  0  0  0  0  0
  -26.7303  -29.3868   20.7570 C   0  0  1  0  0  0  0  0  0  0  0  0
  -26.2017  -17.8814   20.1024 C   0  0  2  0  0  0  0  0  0  0  0  0
  -24.8397  -22.4145   21.3180 C   0  0  0  0  0  0  0  0  0  0  0  0
  -23.4693  -35.2629   24.6095 C   0  0  0  0  0  0  0  0  0  0  0  0
  -27.3728  -29.9564   25.2983 C   0  0  0  0  0  0  0  0  0  0  0  0
  -26.0204  -31.7768   26.3590 C   0  0  0  0  0  0  0  0  0  0  0  0
  -27.9688  -32.3544   24.9123 C   0  0  0  0  0  0  0  0  0  0  0  0
  -22.4428  -33.9380   21.1937 C   0  0  0  0  0  0  0  0  0  0  0  0
  -27.1080  -22.2416   23.1338 C   0  0  0  0  0  0  0  0  0  0  0  0
  -20.2260  -23.9699   21.5576 C   0  0  0  0  0  0  0  0  0  0  0  0
  -21.0536  -23.6739   22.8025 C   0  0  0  0  0  0  0  0  0  0  0  0
  -20.9364  -24.8956   20.5771 C   0  0  0  0  0  0  0  0  0  1  0  0
  -25.8565  -31.4610   23.8482 C   0  0  1  0  0  0  0  0  0  0  0  0
  -23.6485  -34.4948   23.3092 C   0  0  2  0  0  0  0  0  0  0  0  0
  -26.7926  -31.3689   25.0862 C   0  0  0  0  0  0  0  0  0  0  0  0
  -25.7264  -15.4703   20.3103 N   0  0  0  0  0  0  0  0  0  0  0  0
  -25.3044  -16.7296   20.5158 N   0  0  0  0  0  0  0  0  0  0  0  0
  -25.9943  -29.9593   21.8861 N   0  0  0  0  0  0  0  0  0  0  0  0
  -27.9593  -19.4637   20.8063 N   0  0  0  0  0  0  0  0  0  0  0  0
  -23.4976  -18.0002   21.3711 N   0  0  0  0  0  0  0  0  0  0  0  0
  -22.1489  -13.7328   21.9763 N   0  0  0  0  0  0  0  0  0  0  0  0
  -22.2796  -22.9984   22.4520 N   0  0  0  0  0  0  0  0  0  0  0  0
  -28.3373  -27.6224   20.3547 N   0  0  0  0  0  0  0  0  0  0  0  0
  -25.3139  -32.7936   23.6071 N   0  0  0  0  0  0  0  0  0  0  0  0
  -27.1675  -20.9690   22.4497 N   0  0  0  0  0  0  0  0  0  0  0  0
  -22.3980  -34.6266   22.5093 N   0  3  0  0  0  0  0  0  0  0  0  0
  -21.5537  -15.9304   22.2507 O   0  0  0  0  0  0  0  0  0  0  0  0
  -27.4219  -27.9219   22.4748 O   0  0  0  0  0  0  0  0  0  0  0  0
  -27.5409  -31.6770   22.1921 O   0  0  0  0  0  0  0  0  0  0  0  0
  -23.0798  -32.1844   23.7288 O   0  0  0  0  0  0  0  0  0  0  0  0
  -28.7657  -21.6335   20.9460 O   0  0  0  0  0  0  0  0  0  0  0  0
  -25.0073   -9.1504   20.6105 O   0  0  0  0  0  0  0  0  0  0  0  0
  -21.1953  -26.1400   21.2258 O   0  0  0  0  0  0  0  0  0  1  0  0
  -23.4897   -6.3638   25.1201 F   0  0  0  0  0  0  0  0  0  0  0  0
  -22.4445   -9.3766   21.6221 F   0  0  0  0  0  0  0  0  0  0  0  0
  1  2  1  0  0  0  0
  1  6  2  0  0  0  0
  2  7  2  0  0  0  0
  3  9  1  0  0  0  0
  3 10  2  0  0  0  0
  4 11  2  0  0  0  0
  4 18  1  0  0  0  0
  5 12  1  0  0  0  0
  5 18  2  0  0  0  0
  6 20  1  0  0  0  0
  7 22  1  0  0  0  0
  8 13  2  0  0  0  0
  8 21  1  0  0  0  0
  9 24  2  0  0  0  0
 10 26  1  0  0  0  0
 11 27  1  0  0  0  0
 12 27  2  0  0  0  0
 13 28  1  0  0  0  0
 14 15  2  0  0  0  0
 14 29  1  0  0  0  0
 15 30  1  0  0  0  0
 16 23  1  0  0  0  0
 16 28  2  0  0  0  0
 17 30  2  0  0  0  0
 17 31  1  0  0  0  0
 18 32  1  0  0  0  0
 19 32  1  0  0  0  0
 19 33  2  0  0  0  0
 19 34  1  0  0  0  0
 20 22  2  0  0  0  0
 20 39  1  0  0  0  0
 21 23  2  0  0  0  0
 21 40  1  0  0  0  0
 22 48  1  0  0  0  0
 23 41  1  0  0  0  0
 24 25  1  0  0  0  0
 24 57  1  0  0  0  0
 25 26  2  0  0  0  0
 25 51  1  0  0  0  0
 26 70  1  0  0  0  0
 27 80  1  0  0  0  0
 28 81  1  0  0  0  0
 29 31  2  0  0  0  0
 29 80  1  0  0  0  0
 30 82  1  0  0  0  0
 31 83  1  0  0  0  0
 32 64  2  0  0  0  0
 33 65  1  0  0  0  0
 33 68  1  0  0  0  0
 34 69  1  0  0  0  0
 34 75  2  0  0  0  0
 35 49  1  0  0  0  0
 35 71  1  0  0  0  0
 35 76  2  0  0  0  0
 36 61  1  0  0  0  0
 36 66  1  0  0  0  0
 36 77  2  0  0  0  0
 37 62  1  0  0  0  0
 37 72  1  0  0  0  0
 37 78  2  0  0  0  0
 38 67  1  0  0  0  0
 38 73  1  0  0  0  0
 38 79  2  0  0  0  0
 39 42  1  0  0  0  0
 40 49  1  0  0  0  0
 41 66  1  0  0  0  0
 42 44  1  0  0  0  0
 43 45  1  0  0  0  0
 43 46  1  0  0  0  0
 44 48  1  0  0  0  0
 45 50  1  0  0  0  0
 46 67  1  0  0  0  0
 47 50  1  0  0  0  0
 47 67  1  0  0  0  0
 48 71  1  0  0  0  0
 49 66  1  0  0  0  0
 50 65  1  0  0  0  0
 52 62  1  0  0  0  0
 53 63  1  0  0  0  0
 54 63  1  0  0  0  0
 55 63  1  0  0  0  0
 56 74  1  0  0  0  0
 57 73  1  0  0  0  0
 58 59  1  0  0  0  0
 58 60  1  0  0  0  0
 59 70  1  0  0  0  0
 60 81  1  0  0  0  0
 61 63  1  0  0  0  0
 61 72  1  0  0  0  0
 62 74  1  0  0  0  0
 64 65  1  0  0  0  0
M  CHG  1  74   1
M  ISO  4  38 100  60 101  73 100  81 101
M  END
> <Batch ID>
0041

> <Smiles>
CNC(C)C(=O)NC(C(=O)N1Cc2cc([101O:1][101CH2:1]CCNc3cccc(C[100NH:0][100C:0](=O)N4CCCC(n5nc(-c6ccc(Oc7ccc(F)cc7F)cc6)c(C(N)=O)c5N)C4)c3C)ccc2CC1C(=O)NC1CCCc2ccccc21)C(C)(C)C

> <Shape>
0.282

> <Color>
0.079

> <Negative vol penalty>
0.000

$$$$

  -OEChem-04042322093D

 88 97  0     1  0  0  0  0  0999 V2000
  -18.2608  -28.8720   22.5380 C   0  0  0  0  0  0  0  0  0  0  0  0
  -17.8851  -27.5579   22.2783 C   0  0  0  0  0  0  0  0  0  0  0  0
  -29.3744  -23.1684   21.3828 C   0  0  0  0  0  0  0  0  0  0  0  0
  -28.7721  -22.7492   19.0810 C   0  0  0  0  0  0  0  0  0  0  0  0
  -19.5855  -29.1669   22.8574 C   0  0  0  0  0  0  0  0  0  0  0  0
  -18.8343  -26.5380   22.3369 C   0  0  0  0  0  0  0  0  0  0  0  0
  -19.4872  -19.6103   24.0391 C   0  0  0  0  0  0  0  0  0  0  0  0
  -29.6702  -24.4937   21.0641 C   0  0  0  0  0  0  0  0  0  0  0  0
  -29.0679  -24.0746   18.7623 C   0  0  0  0  0  0  0  0  0  0  0  0
  -19.9641  -18.4116   23.5103 C   0  0  0  0  0  0  0  0  0  0  0  0
  -27.9681  -27.3635   20.5167 C   0  0  0  0  0  0  0  0  0  0  0  0
  -27.4962  -28.3572   21.3742 C   0  0  0  0  0  0  0  0  0  0  0  0
  -22.2067  -19.0286   24.1499 C   0  0  0  0  0  0  0  0  0  0  0  0
  -26.6984  -12.2437   20.0779 C   0  0  0  0  0  0  0  0  0  0  0  0
  -29.7650  -29.0775   21.7879 C   0  0  0  0  0  0  0  0  0  0  0  0
  -28.9254  -22.2961   20.3913 C   0  0  0  0  0  0  0  0  0  0  0  0
  -27.6618  -20.4673   21.6428 C   0  0  0  0  0  0  0  0  0  0  0  0
  -20.5494  -28.1488   22.9294 C   0  0  0  0  0  0  0  0  0  0  0  0
  -20.3695  -20.5336   24.6184 C   0  0  0  0  0  0  0  0  0  0  0  0
  -20.1734  -26.8198   22.6563 C   0  0  0  0  0  0  0  0  0  0  0  0
  -21.7382  -20.2371   24.6876 C   0  0  0  0  0  0  0  0  0  0  0  0
  -24.0729  -12.7602   20.8672 C   0  0  0  0  0  0  0  0  0  0  0  0
  -24.8107  -13.7456   20.2111 C   0  0  0  0  0  0  0  0  0  0  0  0
  -24.6479  -11.5166   21.1286 C   0  0  0  0  0  0  0  0  0  0  0  0
  -26.1234  -13.4874   19.8164 C   0  0  0  0  0  0  0  0  0  0  0  0
  -29.5169  -24.9468   19.7539 C   0  0  0  0  0  0  0  0  0  0  0  0
  -21.3243  -18.1219   23.5631 C   0  0  0  0  0  0  0  0  0  0  0  0
  -29.3384  -27.2267   20.2948 C   0  0  0  0  0  0  0  0  0  0  0  0
  -28.3946  -29.2143   22.0098 C   0  0  0  0  0  0  0  0  0  0  0  0
  -30.2368  -28.0837   20.9304 C   0  0  0  0  0  0  0  0  0  0  0  0
  -25.9606  -11.2583   20.7339 C   0  0  0  0  0  0  0  0  0  0  0  0
  -28.6203  -20.9267   20.7197 C   0  0  0  0  0  0  0  0  0  0  0  0
  -27.7605  -19.0984   21.5876 C   0  0  0  0  0  0  0  0  0  0  0  0
  -26.7627  -21.2113   22.4757 C   0  0  0  0  0  0  0  0  0  0  0  0
  -21.2123  -23.5323   23.9854 C   0  0  0  0  0  0  0  0  0  0  0  0
  -22.8559  -23.2461   26.7673 C   0  0  0  0  0  0  0  0  0  0  0  0
  -24.8867  -20.7375   28.3799 C   0  0  0  0  0  0  0  0  0  0  0  0
  -28.2054  -14.3596   18.6981 C   0  0  0  0  0  0  0  0  0  0  0  0
  -21.9788  -28.5226   23.2323 C   0  0  0  0  0  0  0  0  0  0  0  0
  -19.8359  -21.8102   25.2082 C   0  0  0  0  0  0  0  0  0  0  0  0
  -22.7243  -21.1857   25.3172 C   0  0  0  0  0  0  0  0  0  0  0  0
  -22.8456  -27.3344   23.6407 C   0  0  0  0  0  0  0  0  0  0  0  0
  -31.2173  -16.1315   19.3808 C   0  0  0  0  0  0  0  0  0  0  0  0
  -22.6251  -26.1612   22.6911 C   0  0  0  0  0  0  0  0  0  0  0  0
  -30.7313  -17.4992   19.8659 C   0  0  0  0  0  0  0  0  0  0  0  0
  -22.1405  -15.3871   24.8238 C   0  0  0  0  0  0  0  0  0  0  0  0
  -22.2321  -13.8786   25.0021 C   0  0  0  0  0  0  0  0  0  0  0  0
  -30.3294  -15.5759   18.2687 C   0  0  0  0  0  0  0  0  0  0  0  0
  -28.4099  -16.8966   19.0690 C   0  0  0  0  0  0  0  0  0  0  0  0
  -21.2400  -14.6493   22.5464 C   0  0  0  0  0  0  0  0  0  0  0  0
  -21.1689  -25.6826   22.7343 C   0  0  1  0  0  0  0  0  0  0  0  0
  -20.8912  -22.9068   25.3132 C   0  0  1  0  0  0  0  0  0  0  0  0
  -29.2349  -17.4676   20.2339 C   0  0  2  0  0  0  0  0  0  0  0  0
  -21.2836  -15.7454   23.6096 C   0  0  2  0  0  0  0  0  0  1  0  0
  -22.9006  -13.1919   23.7997 C   0  0  2  0  0  0  0  0  0  0  0  0
  -24.1920  -15.0797   19.9314 C   0  0  0  0  0  0  0  0  0  0  0  0
  -23.8445  -10.4681   21.8336 C   0  0  0  0  0  0  0  0  0  0  0  0
  -24.4204  -13.1460   23.9632 C   0  0  0  0  0  0  0  0  0  0  0  0
  -25.3449  -20.3259   30.8126 C   0  0  0  0  0  0  0  0  0  0  0  0
  -25.3228  -24.9794   26.2981 C   0  0  0  0  0  0  0  0  0  0  0  0
  -26.5973  -23.4558   27.8221 C   0  0  0  0  0  0  0  0  0  0  0  0
  -24.6509  -24.7483   28.6959 C   0  0  0  0  0  0  0  0  0  0  0  0
  -23.9758  -17.9277   28.1953 C   0  0  0  0  0  0  0  0  0  0  0  0
  -22.6611  -13.0394   21.2911 C   0  0  0  0  0  0  0  0  0  0  0  0
  -24.2448  -22.7921   27.1466 C   0  0  1  0  0  0  0  0  0  0  0  0
  -24.5176  -19.9183   29.6034 C   0  0  2  0  0  0  0  0  0  0  0  0
  -25.1907  -23.9836   27.4677 C   0  0  0  0  0  0  0  0  0  0  0  0
  -29.2795  -19.9306   20.1220 N   0  0  0  0  0  0  0  0  0  0  0  0
  -28.7344  -18.8316   20.6707 N   0  0  0  0  0  0  0  0  0  0  0  0
  -22.1545  -22.4236   25.8743 N   0  0  0  0  0  0  0  0  0  0  0  0
  -28.9269  -15.5722   18.6903 N   0  0  0  0  0  0  0  0  0  0  0  0
  -27.1085  -18.1090   22.2344 N   0  0  0  0  0  0  0  0  0  0  0  0
  -25.4955  -21.5327   21.9706 N   0  0  0  0  0  0  0  0  0  0  0  0
  -26.8907  -14.4739   19.1488 N   0  0  0  0  0  0  0  0  0  0  0  0
  -20.9342  -24.8842   23.9183 N   0  0  0  0  0  0  0  0  0  0  0  0
  -24.0795  -21.8474   28.2459 N   0  0  0  0  0  0  0  0  0  0  0  0
  -22.5736  -13.9345   22.5023 N   0  3  1  0  0  0  0  0  0  0  0  0
  -24.7464  -18.4686   29.3444 N   0  3  0  0  0  0  0  0  0  0  0  0
  -27.0798  -21.5942   23.6273 O   0  0  0  0  0  0  0  0  0  0  0  0
  -21.6793  -22.8401   23.0885 O   0  0  0  0  0  0  0  0  0  0  0  0
  -22.4071  -24.2882   27.2512 O   0  0  0  0  0  0  0  0  0  0  0  0
  -25.8021  -20.4263   27.6212 O   0  0  0  0  0  0  0  0  0  0  0  0
  -28.7245  -13.2934   18.3579 O   0  0  0  0  0  0  0  0  0  0  0  0
  -29.8052  -26.2401   19.4426 O   0  0  0  0  0  0  0  0  0  0  0  0
  -21.7925  -16.9529   23.0472 O   0  0  0  0  0  0  0  0  0  1  0  0
  -27.9413  -30.1695   22.8321 F   0  0  0  0  0  0  0  0  0  0  0  0
  -31.5543  -27.9579   20.7202 F   0  0  0  0  0  0  0  0  0  0  0  0
  -26.7088   -9.7322   21.0386 Cl  0  0  0  0  0  0  0  0  0  0  0  0
  1  2  1  0  0  0  0
  1  5  2  0  0  0  0
  2  6  2  0  0  0  0
  3  8  2  0  0  0  0
  3 16  1  0  0  0  0
  4  9  1  0  0  0  0
  4 16  2  0  0  0  0
  5 18  1  0  0  0  0
  6 20  1  0  0  0  0
  7 10  2  0  0  0  0
  7 19  1  0  0  0  0
  8 26  1  0  0  0  0
  9 26  2  0  0  0  0
 10 27  1  0  0  0  0
 11 12  2  0  0  0  0
 11 28  1  0  0  0  0
 12 29  1  0  0  0  0
 13 21  1  0  0  0  0
 13 27  2  0  0  0  0
 14 25  2  0  0  0  0
 14 31  1  0  0  0  0
 15 29  2  0  0  0  0
 15 30  1  0  0  0  0
 16 32  1  0  0  0  0
 17 32  1  0  0  0  0
 17 33  2  0  0  0  0
 17 34  1  0  0  0  0
 18 20  2  0  0  0  0
 18 39  1  0  0  0  0
 19 21  2  0  0  0  0
 19 40  1  0  0  0  0
 20 51  1  0  0  0  0
 21 41  1  0  0  0  0
 22 23  2  0  0  0  0
 22 24  1  0  0  0  0
 22 64  1  0  0  0  0
 23 25  1  0  0  0  0
 23 56  1  0  0  0  0
 24 31  2  0  0  0  0
 24 57  1  0  0  0  0
 25 74  1  0  0  0  0
 26 84  1  0  0  0  0
 27 85  1  0  0  0  0
 28 30  2  0  0  0  0
 28 84  1  0  0  0  0
 29 86  1  0  0  0  0
 30 87  1  0  0  0  0
 31 88  1  0  0  0  0
 32 68  2  0  0  0  0
 33 69  1  0  0  0  0
 33 72  1  0  0  0  0
 34 73  1  0  0  0  0
 34 79  2  0  0  0  0
 35 52  1  0  0  0  0
 35 75  1  0  0  0  0
 35 80  2  0  0  0  0
 36 65  1  0  0  0  0
 36 70  1  0  0  0  0
 36 81  2  0  0  0  0
 37 66  1  0  0  0  0
 37 76  1  0  0  0  0
 37 82  2  0  0  0  0
 38 71  1  0  0  0  0
 38 74  1  0  0  0  0
 38 83  2  0  0  0  0
 39 42  1  0  0  0  0
 40 52  1  0  0  0  0
 41 70  1  0  0  0  0
 42 44  1  0  0  0  0
 43 45  1  0  0  0  0
 43 48  1  0  0  0  0
 44 51  1  0  0  0  0
 45 53  1  0  0  0  0
 46 47  1  0  0  0  0
 46 54  1  0  0  0  0
 47 55  1  0  0  0  0
 48 71  1  0  0  0  0
 49 53  1  0  0  0  0
 49 71  1  0  0  0  0
 50 54  1  0  0  0  0
 50 77  1  0  0  0  0
 51 75  1  0  0  0  0
 52 70  1  0  0  0  0
 53 69  1  0  0  0  0
 54 85  1  0  0  0  0
 55 58  1  0  0  0  0
 55 77  1  0  0  0  0
 59 66  1  0  0  0  0
 60 67  1  0  0  0  0
 61 67  1  0  0  0  0
 62 67  1  0  0  0  0
 63 78  1  0  0  0  0
 64 77  1  0  0  0  0
 65 67  1  0  0  0  0
 65 76  1  0  0  0  0
 66 78  1  0  0  0  0
 68 69  1  0  0  0  0
M  CHG  2  77   1  78   1
M  ISO  4  38 100  54 101  74 100  85 101
M  END
> <Batch ID>
0041

> <Smiles>
CNC(C)C(=O)NC(C(=O)N1Cc2cc([101O:1][101CH:1]3CCC(C)N(Cc4c(C)c(Cl)cc([100NH:0][100C:0](=O)N5CCCC(n6nc(-c7ccc(Oc8ccc(F)cc8F)cc7)c(C(N)=O)c6N)C5)c4C)C3)ccc2CC1C(=O)NC1CCCc2ccccc21)C(C)(C)C

> <Shape>
0.227

> <Color>
0.057

> <Negative vol penalty>
0.000

$$$$

  -OEChem-04042322093D

 85 93  0     1  0  0  0  0  0999 V2000
  -17.7104  -24.8827   25.3966 C   0  0  0  0  0  0  0  0  0  0  0  0
  -18.4462  -24.0738   24.5365 C   0  0  0  0  0  0  0  0  0  0  0  0
  -26.3679  -13.1165   21.4916 C   0  0  0  0  0  0  0  0  0  0  0  0
  -25.1882  -14.4415   19.8516 C   0  0  0  0  0  0  0  0  0  0  0  0
  -17.6071  -26.2506   25.1475 C   0  0  0  0  0  0  0  0  0  0  0  0
  -19.0784  -24.6323   23.4262 C   0  0  0  0  0  0  0  0  0  0  0  0
  -24.9279  -23.8699   19.3619 C   0  0  0  0  0  0  0  0  0  0  0  0
  -29.6277  -25.2802   19.5934 C   0  0  0  0  0  0  0  0  0  0  0  0
  -29.3772  -24.2012   20.4411 C   0  0  0  0  0  0  0  0  0  0  0  0
  -25.3885  -12.1278   21.3974 C   0  0  0  0  0  0  0  0  0  0  0  0
  -24.2088  -13.4528   19.7573 C   0  0  0  0  0  0  0  0  0  0  0  0
  -25.3006  -23.7344   18.0253 C   0  0  0  0  0  0  0  0  0  0  0  0
  -24.5827   -9.6132   19.2855 C   0  0  0  0  0  0  0  0  0  0  0  0
  -25.0066   -8.2875   19.1938 C   0  0  0  0  0  0  0  0  0  0  0  0
  -25.1186  -26.1227   17.7388 C   0  0  0  0  0  0  0  0  0  0  0  0
  -30.2556  -22.6882   18.7748 C   0  0  0  0  0  0  0  0  0  0  0  0
  -23.8129   -7.7651   21.2284 C   0  0  0  0  0  0  0  0  0  0  0  0
  -26.2677  -14.2734   20.7188 C   0  0  0  0  0  0  0  0  0  0  0  0
  -28.4572  -15.4007   20.0532 C   0  0  0  0  0  0  0  0  0  0  0  0
  -18.2463  -26.8277   24.0389 C   0  0  0  0  0  0  0  0  0  0  0  0
  -24.6367  -25.1337   19.8951 C   0  0  0  0  0  0  0  0  0  0  0  0
  -18.9825  -26.0090   23.1612 C   0  0  0  0  0  0  0  0  0  0  0  0
  -24.7450  -26.2718   19.0831 C   0  0  0  0  0  0  0  0  0  0  0  0
  -30.1921  -25.0632   18.3364 C   0  0  0  0  0  0  0  0  0  0  0  0
  -30.5060  -23.7672   17.9271 C   0  0  0  0  0  0  0  0  0  0  0  0
  -29.6912  -22.9052   20.0318 C   0  0  0  0  0  0  0  0  0  0  0  0
  -24.3090  -12.2959   20.5302 C   0  0  0  0  0  0  0  0  0  0  0  0
  -25.3932  -24.8606   17.2128 C   0  0  0  0  0  0  0  0  0  0  0  0
  -23.7739  -10.0149   20.3486 C   0  0  0  0  0  0  0  0  0  0  0  0
  -24.6217   -7.3635   20.1652 C   0  0  0  0  0  0  0  0  0  0  0  0
  -23.3890   -9.0909   21.3200 C   0  0  0  0  0  0  0  0  0  0  0  0
  -27.2787  -15.2953   20.8161 C   0  0  0  0  0  0  0  0  0  0  0  0
  -29.0719  -16.5344   20.5258 C   0  0  0  0  0  0  0  0  0  0  0  0
  -28.9519  -14.5498   19.0107 C   0  0  0  0  0  0  0  0  0  0  0  0
  -22.0635  -26.4882   21.1786 C   0  0  0  0  0  0  0  0  0  0  0  0
  -24.1187  -28.9291   21.7617 C   0  0  0  0  0  0  0  0  0  0  0  0
  -29.3712  -22.5442   15.1059 C   0  0  0  0  0  0  0  0  0  0  0  0
  -27.0073  -30.5455   20.9311 C   0  0  0  0  0  0  0  0  0  0  0  0
  -28.8856  -21.8500   22.1728 C   0  0  0  0  0  0  0  0  0  0  0  0
  -18.0669  -28.3034   23.7844 C   0  0  0  0  0  0  0  0  0  0  0  0
  -24.2621  -25.2658   21.3458 C   0  0  0  0  0  0  0  0  0  0  0  0
  -24.4626  -27.6533   19.6124 C   0  0  0  0  0  0  0  0  0  0  0  0
  -19.0769  -28.8780   22.7944 C   0  0  0  0  0  0  0  0  0  0  0  0
  -28.0699  -19.3720   24.5959 C   0  0  0  0  0  0  0  0  0  0  0  0
  -19.1972  -27.9759   21.5703 C   0  0  0  0  0  0  0  0  0  0  0  0
  -27.8883  -18.0991   23.7658 C   0  0  0  0  0  0  0  0  0  0  0  0
  -27.5516  -20.6070   23.8612 C   0  0  0  0  0  0  0  0  0  0  0  0
  -27.9081  -19.5229   21.6778 C   0  0  0  0  0  0  0  0  0  0  0  0
  -19.7031  -26.5817   21.9600 C   0  0  1  0  0  0  0  0  0  0  0  0
  -23.4893  -26.5457   21.6492 C   0  0  1  0  0  0  0  0  0  0  0  0
  -28.4747  -18.2614   22.3497 C   0  0  2  0  0  0  0  0  0  0  0  0
  -30.4503  -26.2341   17.4460 C   0  0  0  0  0  0  0  0  0  0  0  0
  -28.4049  -32.5317   21.5628 C   0  0  0  0  0  0  0  0  0  0  0  0
  -22.1361  -30.7699   20.3507 C   0  0  0  0  0  0  0  0  0  0  0  0
  -23.9578  -32.4778   20.1692 C   0  0  0  0  0  0  0  0  0  0  0  0
  -23.1673  -31.7338   22.4152 C   0  0  0  0  0  0  0  0  0  0  0  0
  -29.3222  -28.8399   21.6319 C   0  0  0  0  0  0  0  0  0  0  0  0
  -31.1160  -23.5098   16.5796 C   0  0  0  0  0  0  0  0  0  0  0  0
  -28.4327  -22.9293   13.9762 C   0  0  0  0  0  0  0  0  0  0  0  0
  -27.4666  -24.0394   14.3737 C   0  0  0  0  0  0  0  0  0  0  0  0
  -26.6248  -23.6476   15.5794 C   0  0  0  0  0  0  0  0  0  1  0  0
  -24.5578  -30.1605   21.0068 C   0  0  1  0  0  0  0  0  0  0  0  0
  -28.1614  -31.0465   21.7806 C   0  0  2  0  0  0  0  0  0  0  0  0
  -23.4582  -31.2594   20.9747 C   0  0  0  0  0  0  0  0  0  0  0  0
  -27.1504  -16.2833   21.7058 N   0  0  0  0  0  0  0  0  0  0  0  0
  -28.2562  -17.0201   21.5050 N   0  0  0  0  0  0  0  0  0  0  0  0
  -24.0939  -27.7299   21.0357 N   0  0  0  0  0  0  0  0  0  0  0  0
  -28.1535  -20.6976   22.5291 N   0  0  0  0  0  0  0  0  0  0  0  0
  -30.2252  -17.1532   20.1950 N   0  0  0  0  0  0  0  0  0  0  0  0
  -28.1951  -13.4270   18.6490 N   0  0  0  0  0  0  0  0  0  0  0  0
  -29.4387  -21.8090   20.8934 N   0  0  0  0  0  0  0  0  0  0  0  0
  -21.1314  -26.6088   22.1916 N   0  0  0  0  0  0  0  0  0  0  0  0
  -30.1448  -23.6198   15.5170 N   0  0  0  0  0  0  0  0  0  0  0  0
  -25.8120  -30.5879   21.6172 N   0  0  0  0  0  0  0  0  0  0  0  0
  -29.4120  -30.3105   21.4413 N   0  3  0  0  0  0  0  0  0  0  0  0
  -30.0412  -14.7694   18.4286 O   0  0  0  0  0  0  0  0  0  0  0  0
  -21.8265  -26.3464   19.9847 O   0  0  0  0  0  0  0  0  0  0  0  0
  -23.8160  -29.0264   22.9536 O   0  0  0  0  0  0  0  0  0  0  0  0
  -29.4238  -21.4142   15.5839 O   0  0  0  0  0  0  0  0  0  0  0  0
  -27.1512  -30.1590   19.7733 O   0  0  0  0  0  0  0  0  0  0  0  0
  -29.0353  -22.7915   22.9558 O   0  0  0  0  0  0  0  0  0  0  0  0
  -23.3532  -11.3312   20.4378 O   0  0  0  0  0  0  0  0  0  0  0  0
  -25.7561  -24.7311   15.9076 O   0  0  0  0  0  0  0  0  0  1  0  0
  -25.0275   -6.0901   20.0763 F   0  0  0  0  0  0  0  0  0  0  0  0
  -22.6111   -9.4706   22.3431 F   0  0  0  0  0  0  0  0  0  0  0  0
  1  2  1  0  0  0  0
  1  5  2  0  0  0  0
  2  6  2  0  0  0  0
  3 10  2  0  0  0  0
  3 18  1  0  0  0  0
  4 11  1  0  0  0  0
  4 18  2  0  0  0  0
  5 20  1  0  0  0  0
  6 22  1  0  0  0  0
  7 12  2  0  0  0  0
  7 21  1  0  0  0  0
  8  9  2  0  0  0  0
  8 24  1  0  0  0  0
  9 26  1  0  0  0  0
 10 27  1  0  0  0  0
 11 27  2  0  0  0  0
 12 28  1  0  0  0  0
 13 14  2  0  0  0  0
 13 29  1  0  0  0  0
 14 30  1  0  0  0  0
 15 23  1  0  0  0  0
 15 28  2  0  0  0  0
 16 25  1  0  0  0  0
 16 26  2  0  0  0  0
 17 30  2  0  0  0  0
 17 31  1  0  0  0  0
 18 32  1  0  0  0  0
 19 32  1  0  0  0  0
 19 33  2  0  0  0  0
 19 34  1  0  0  0  0
 20 22  2  0  0  0  0
 20 40  1  0  0  0  0
 21 23  2  0  0  0  0
 21 41  1  0  0  0  0
 22 49  1  0  0  0  0
 23 42  1  0  0  0  0
 24 25  2  0  0  0  0
 24 52  1  0  0  0  0
 25 58  1  0  0  0  0
 26 71  1  0  0  0  0
 27 82  1  0  0  0  0
 28 83  1  0  0  0  0
 29 31  2  0  0  0  0
 29 82  1  0  0  0  0
 30 84  1  0  0  0  0
 31 85  1  0  0  0  0
 32 65  2  0  0  0  0
 33 66  1  0  0  0  0
 33 69  1  0  0  0  0
 34 70  1  0  0  0  0
 34 76  2  0  0  0  0
 35 50  1  0  0  0  0
 35 72  1  0  0  0  0
 35 77  2  0  0  0  0
 36 62  1  0  0  0  0
 36 67  1  0  0  0  0
 36 78  2  0  0  0  0
 37 59  1  0  0  0  0
 37 73  1  0  0  0  0
 37 79  2  0  0  0  0
 38 63  1  0  0  0  0
 38 74  1  0  0  0  0
 38 80  2  0  0  0  0
 39 68  1  0  0  0  0
 39 71  1  0  0  0  0
 39 81  2  0  0  0  0
 40 43  1  0  0  0  0
 41 50  1  0  0  0  0
 42 67  1  0  0  0  0
 43 45  1  0  0  0  0
 44 46  1  0  0  0  0
 44 47  1  0  0  0  0
 45 49  1  0  0  0  0
 46 51  1  0  0  0  0
 47 68  1  0  0  0  0
 48 51  1  0  0  0  0
 48 68  1  0  0  0  0
 49 72  1  0  0  0  0
 50 67  1  0  0  0  0
 51 66  1  0  0  0  0
 53 63  1  0  0  0  0
 54 64  1  0  0  0  0
 55 64  1  0  0  0  0
 56 64  1  0  0  0  0
 57 75  1  0  0  0  0
 58 73  1  0  0  0  0
 59 60  1  0  0  0  0
 60 61  1  0  0  0  0
 61 83  1  0  0  0  0
 62 64  1  0  0  0  0
 62 74  1  0  0  0  0
 63 75  1  0  0  0  0
 65 66  1  0  0  0  0
M  CHG  1  75   1
M  ISO  4  39 100  61 101  71 100  83 101
M  END
> <Batch ID>
0041

> <Smiles>
CNC(C)C(=O)NC(C(=O)N1Cc2cc([101O:1][101CH2:1]CCC(=O)NCc3cc([100NH:0][100C:0](=O)N4CCCC(n5nc(-c6ccc(Oc7ccc(F)cc7F)cc6)c(C(N)=O)c5N)C4)ccc3C)ccc2CC1C(=O)NC1CCCc2ccccc21)C(C)(C)C

> <Shape>
0.256

> <Color>
0.055

> <Negative vol penalty>
0.000

$$$$

  -OEChem-04042322093D

107116  0     1  0  0  0  0  0999 V2000
  -23.8751  -38.3176   22.0419 C   0  0  0  0  0  0  0  0  0  0  0  0
  -25.1886  -37.8657   21.9655 C   0  0  0  0  0  0  0  0  0  0  0  0
  -23.4746   -8.7635   20.0863 C   0  0  0  0  0  0  0  0  0  0  0  0
  -23.5747  -10.7147   21.5075 C   0  0  0  0  0  0  0  0  0  0  0  0
  -23.0149  -37.7965   23.0075 C   0  0  0  0  0  0  0  0  0  0  0  0
  -25.6430  -36.8931   22.8554 C   0  0  0  0  0  0  0  0  0  0  0  0
  -28.8871  -29.9314   21.4277 C   0  0  0  0  0  0  0  0  0  0  0  0
  -22.5946   -8.1562   20.9820 C   0  0  0  0  0  0  0  0  0  0  0  0
  -22.6946  -10.1074   22.4032 C   0  0  0  0  0  0  0  0  0  0  0  0
  -29.3257  -28.6131   21.3019 C   0  0  0  0  0  0  0  0  0  0  0  0
  -20.6024   -5.9480   23.0745 C   0  0  0  0  0  0  0  0  0  0  0  0
  -20.8315   -4.6128   23.4067 C   0  0  0  0  0  0  0  0  0  0  0  0
  -28.3935  -28.0848   23.4698 C   0  0  0  0  0  0  0  0  0  0  0  0
  -29.8666  -19.0153   20.4047 C   0  0  0  0  0  0  0  0  0  0  0  0
  -28.7756  -18.6097   22.5218 C   0  0  0  0  0  0  0  0  0  0  0  0
  -23.0060   -5.2030   24.2787 C   0  0  0  0  0  0  0  0  0  0  0  0
  -23.9647  -10.0427   20.3491 C   0  0  0  0  0  0  0  0  0  0  0  0
  -24.6352  -10.9741   18.0708 C   0  0  0  0  0  0  0  0  0  0  0  0
  -23.4561  -36.8101   23.9035 C   0  0  0  0  0  0  0  0  0  0  0  0
  -28.1857  -30.3280   22.5697 C   0  0  0  0  0  0  0  0  0  0  0  0
  -24.7882  -36.3593   23.8348 C   0  0  0  0  0  0  0  0  0  0  0  0
  -27.9408  -29.4008   23.5959 C   0  0  0  0  0  0  0  0  0  0  0  0
  -29.3626  -19.4920   21.6148 C   0  0  0  0  0  0  0  0  0  0  0  0
  -29.7834  -17.6563   20.1015 C   0  0  0  0  0  0  0  0  0  0  0  0
  -28.6924  -17.2507   22.2186 C   0  0  0  0  0  0  0  0  0  0  0  0
  -29.1964  -16.7740   21.0084 C   0  0  0  0  0  0  0  0  0  0  0  0
  -22.2046   -8.8282   22.1405 C   0  0  0  0  0  0  0  0  0  0  0  0
  -29.0797  -27.6922   22.3206 C   0  0  0  0  0  0  0  0  0  0  0  0
  -21.5750   -6.9107   23.3443 C   0  0  0  0  0  0  0  0  0  0  0  0
  -22.0333   -4.2403   24.0088 C   0  0  0  0  0  0  0  0  0  0  0  0
  -22.7768   -6.5382   23.9465 C   0  0  0  0  0  0  0  0  0  0  0  0
  -24.8742  -10.6704   19.4244 C   0  0  0  0  0  0  0  0  0  0  0  0
  -25.8011  -11.5577   17.6388 C   0  0  0  0  0  0  0  0  0  0  0  0
  -28.1311  -22.8925   22.5828 C   0  0  0  0  0  0  0  0  0  0  0  0
  -27.4358  -22.8652   23.7324 C   0  0  0  0  0  0  0  0  0  0  0  0
  -26.7395  -21.6931   24.2117 C   0  0  0  0  0  0  0  0  0  0  0  0
  -26.0474  -21.6751   25.3614 C   0  0  0  0  0  0  0  0  0  0  0  0
  -25.3100  -20.5392   25.8720 C   0  0  0  0  0  0  0  0  0  0  0  0
  -25.7213  -19.2630   25.8157 C   0  0  0  0  0  0  0  0  0  0  0  0
  -24.9582  -18.1650   26.3690 C   0  0  0  0  0  0  0  0  0  0  0  0
  -25.3699  -16.8889   26.3124 C   0  0  0  0  0  0  0  0  0  0  0  0
  -24.6331  -15.7523   26.8223 C   0  0  0  0  0  0  0  0  0  0  0  0
  -25.0449  -14.4762   26.7656 C   0  0  0  0  0  0  0  0  0  0  0  0
  -24.2546  -13.3718   27.2652 C   0  0  0  0  0  0  0  0  0  0  0  0
  -24.6642  -12.0954   27.2097 C   0  0  0  0  0  0  0  0  0  0  0  0
  -23.8740  -10.9918   27.7108 C   0  0  0  0  0  0  0  0  0  0  0  0
  -24.2831   -9.7152   27.6555 C   0  0  0  0  0  0  0  0  0  0  0  0
  -23.4931   -8.6119   28.1582 C   0  0  0  0  0  0  0  0  0  0  0  0
  -23.9015   -7.3344   28.1034 C   0  0  0  0  0  0  0  0  0  0  0  0
  -23.1059   -6.2362   28.6104 C   0  0  0  0  0  0  0  0  0  0  0  0
  -23.4170   -4.9298   28.6057 C   0  0  0  0  0  0  0  0  0  0  0  0
  -22.6216   -3.8323   29.1126 C   0  0  0  0  0  0  0  0  0  0  0  0
  -23.0265   -2.5542   29.0595 C   0  0  0  0  0  0  0  0  0  0  0  0
  -23.4639  -10.7490   17.2750 C   0  0  0  0  0  0  0  0  0  0  0  0
  -26.4266  -33.0948   24.3936 C   0  0  0  0  0  0  0  0  0  0  0  0
  -24.7613  -30.5526   24.8111 C   0  0  0  0  0  0  0  0  0  0  0  0
  -22.9994  -27.6345   24.6801 C   0  0  0  0  0  0  0  0  0  0  0  0
  -30.1674  -14.5190   20.4443 C   0  0  0  0  0  0  0  0  0  0  0  0
  -22.5033  -36.3110   24.9606 C   0  0  0  0  0  0  0  0  0  0  0  0
  -27.7481  -31.7529   22.7751 C   0  0  0  0  0  0  0  0  0  0  0  0
  -27.2127  -29.8809   24.8216 C   0  0  0  0  0  0  0  0  0  0  0  0
  -22.9552  -35.0125   25.6239 C   0  0  0  0  0  0  0  0  0  0  0  0
  -30.5161  -11.5719   18.4770 C   0  0  0  0  0  0  0  0  0  0  0  0
  -28.5112  -23.0623   19.7473 C   0  0  0  0  0  0  0  0  0  0  0  0
  -24.4297  -35.0934   26.0061 C   0  0  0  0  0  0  0  0  0  0  0  0
  -28.4433  -24.3409   20.5785 C   0  0  0  0  0  0  0  0  0  0  0  0
  -29.0863  -11.0372   18.3684 C   0  0  0  0  0  0  0  0  0  0  0  0
  -30.7886  -12.1880   19.8481 C   0  0  0  0  0  0  0  0  0  0  0  0
  -28.3947  -12.6768   20.1630 C   0  0  0  0  0  0  0  0  0  0  0  0
  -27.7070  -21.9367   20.3858 C   0  0  0  0  0  0  0  0  0  0  0  0
  -25.3111  -35.2875   24.7664 C   0  0  1  0  0  0  0  0  0  0  0  0
  -28.8817  -24.0941   22.0299 C   0  0  1  0  0  0  0  0  0  0  0  0
  -26.4096  -31.8709   23.5258 C   0  0  1  0  0  0  0  0  0  0  0  0
  -28.0527  -12.1050   18.7774 C   0  0  2  0  0  0  0  0  0  0  0  0
  -30.3318  -17.1757   18.7968 C   0  0  0  0  0  0  0  0  0  0  0  0
  -28.0583  -16.3299   23.2107 C   0  0  0  0  0  0  0  0  0  0  0  0
  -22.2210   -1.4077   29.5769 C   0  0  0  0  0  0  0  0  0  0  0  0
  -20.8717  -26.5800   25.4916 C   0  0  0  0  0  0  0  0  0  0  0  0
  -25.9825  -30.2345   27.5880 C   0  0  0  0  0  0  0  0  0  0  0  0
  -24.3148  -28.4217   28.0362 C   0  0  0  0  0  0  0  0  0  0  0  0
  -23.5346  -30.7462   27.5769 C   0  0  0  0  0  0  0  0  0  0  0  0
  -22.0262  -27.1981   21.9194 C   0  0  0  0  0  0  0  0  0  0  0  0
  -29.4518  -20.9538   21.9408 C   0  0  0  0  0  0  0  0  0  0  0  0
  -28.7485  -25.3923   22.8328 C   0  0  0  0  0  0  0  0  0  1  0  0
  -24.4745  -29.3576   25.6846 C   0  0  1  0  0  0  0  0  0  0  0  0
  -21.5417  -27.3509   24.3649 C   0  0  2  0  0  0  0  0  0  0  0  0
  -24.5942  -29.6883   27.1992 C   0  0  0  0  0  0  0  0  0  0  0  0
  -26.0960  -11.0310   19.8258 N   0  0  0  0  0  0  0  0  0  0  0  0
  -26.6352  -11.5673   18.7178 N   0  0  0  0  0  0  0  0  0  0  0  0
  -26.0941  -30.7536   24.4319 N   0  0  0  0  0  0  0  0  0  0  0  0
  -29.7723  -13.1933   20.1663 N   0  0  0  0  0  0  0  0  0  0  0  0
  -26.1839  -12.0584   16.4450 N   0  0  0  0  0  0  0  0  0  0  0  0
  -22.4847  -11.7507   17.2291 N   0  0  0  0  0  0  0  0  0  0  0  0
  -29.1119  -15.3935   20.7008 N   0  0  0  0  0  0  0  0  0  0  0  0
  -25.4710  -34.0352   24.0588 N   0  0  0  0  0  0  0  0  0  0  0  0
  -23.1618  -28.8639   25.2828 N   0  0  0  0  0  0  0  0  0  0  0  0
  -28.1352  -21.6684   21.8083 N   0  3  1  0  0  0  0  0  0  0  0  0
  -21.4288  -26.5483   23.1143 N   0  3  0  0  0  0  0  0  0  0  0  0
  -23.2833   -9.6841   16.6371 O   0  0  0  0  0  0  0  0  0  0  0  0
  -27.2451  -33.1804   25.3015 O   0  0  0  0  0  0  0  0  0  0  0  0
  -23.8318  -31.2926   24.4772 O   0  0  0  0  0  0  0  0  0  0  0  0
  -23.9031  -26.8428   24.4211 O   0  0  0  0  0  0  0  0  0  0  0  0
  -31.3529  -14.8599   20.4274 O   0  0  0  0  0  0  0  0  0  0  0  0
  -21.3457   -8.2360   23.0147 O   0  0  0  0  0  0  0  0  0  0  0  0
  -29.5109  -26.3932   22.1880 O   0  0  0  0  0  0  0  0  0  1  0  0
  -22.2527   -2.9583   24.3292 F   0  0  0  0  0  0  0  0  0  0  0  0
  -23.7145   -7.4588   24.2093 F   0  0  0  0  0  0  0  0  0  0  0  0
  1  2  1  0  0  0  0
  1  5  2  0  0  0  0
  2  6  2  0  0  0  0
  3  8  2  0  0  0  0
  3 17  1  0  0  0  0
  4  9  1  0  0  0  0
  4 17  2  0  0  0  0
  5 19  1  0  0  0  0
  6 21  1  0  0  0  0
  7 10  2  0  0  0  0
  7 20  1  0  0  0  0
  8 27  1  0  0  0  0
  9 27  2  0  0  0  0
 10 28  1  0  0  0  0
 11 12  2  0  0  0  0
 11 29  1  0  0  0  0
 12 30  1  0  0  0  0
 13 22  1  0  0  0  0
 13 28  2  0  0  0  0
 14 23  1  0  0  0  0
 14 24  2  0  0  0  0
 15 23  2  0  0  0  0
 15 25  1  0  0  0  0
 16 30  2  0  0  0  0
 16 31  1  0  0  0  0
 17 32  1  0  0  0  0
 18 32  1  0  0  0  0
 18 33  2  0  0  0  0
 18 54  1  0  0  0  0
 19 21  2  0  0  0  0
 19 59  1  0  0  0  0
 20 22  2  0  0  0  0
 20 60  1  0  0  0  0
 21 71  1  0  0  0  0
 22 61  1  0  0  0  0
 23 83  1  0  0  0  0
 24 26  1  0  0  0  0
 24 75  1  0  0  0  0
 25 26  2  0  0  0  0
 25 76  1  0  0  0  0
 26 94  1  0  0  0  0
 27104  1  0  0  0  0
 28105  1  0  0  0  0
 29 31  2  0  0  0  0
 29104  1  0  0  0  0
 30106  1  0  0  0  0
 31107  1  0  0  0  0
 32 88  2  0  0  0  0
 33 89  1  0  0  0  0
 33 92  1  0  0  0  0
 34 35  2  0  0  0  0
 34 72  1  0  0  0  0
 34 97  1  0  0  0  0
 35 36  1  0  0  0  0
 36 37  2  0  0  0  0
 37 38  1  0  0  0  0
 38 39  2  0  0  0  0
 39 40  1  0  0  0  0
 40 41  2  0  0  0  0
 41 42  1  0  0  0  0
 42 43  2  0  0  0  0
 43 44  1  0  0  0  0
 44 45  2  0  0  0  0
 45 46  1  0  0  0  0
 46 47  2  0  0  0  0
 47 48  1  0  0  0  0
 48 49  2  0  0  0  0
 49 50  1  0  0  0  0
 50 51  2  0  0  0  0
 51 52  1  0  0  0  0
 52 53  2  0  0  0  0
 53 77  1  0  0  0  0
 54 93  1  0  0  0  0
 54 99  2  0  0  0  0
 55 73  1  0  0  0  0
 55 95  1  0  0  0  0
 55100  2  0  0  0  0
 56 85  1  0  0  0  0
 56 90  1  0  0  0  0
 56101  2  0  0  0  0
 57 86  1  0  0  0  0
 57 96  1  0  0  0  0
 57102  2  0  0  0  0
 58 91  1  0  0  0  0
 58 94  1  0  0  0  0
 58103  2  0  0  0  0
 59 62  1  0  0  0  0
 60 73  1  0  0  0  0
 61 90  1  0  0  0  0
 62 65  1  0  0  0  0
 63 67  1  0  0  0  0
 63 68  1  0  0  0  0
 64 66  1  0  0  0  0
 64 70  1  0  0  0  0
 65 71  1  0  0  0  0
 66 72  1  0  0  0  0
 67 74  1  0  0  0  0
 68 91  1  0  0  0  0
 69 74  1  0  0  0  0
 69 91  1  0  0  0  0
 70 97  1  0  0  0  0
 71 95  1  0  0  0  0
 72 84  1  0  0  0  0
 73 90  1  0  0  0  0
 74 89  1  0  0  0  0
 78 86  1  0  0  0  0
 79 87  1  0  0  0  0
 80 87  1  0  0  0  0
 81 87  1  0  0  0  0
 82 98  1  0  0  0  0
 83 97  1  0  0  0  0
 84105  1  0  0  0  0
 85 87  1  0  0  0  0
 85 96  1  0  0  0  0
 86 98  1  0  0  0  0
 88 89  1  0  0  0  0
M  CHG  2  97   1  98   1
M  ISO  4  58 100  84 101  94 100 105 101
M  END
> <Batch ID>
0041

> <Smiles>
CC=CC=CC=CC=CC=CC=CC=CC=CC=CC=C1C([101CH2:1][101O:1]c2ccc3c(c2)CN(C(=O)C(NC(=O)C(C)NC)C(C)(C)C)C(C(=O)NC2CCCc4ccccc42)C3)CCCN1Cc1cc(C)c([100NH:0][100C:0](=O)N2CCCC(n3nc(-c4ccc(Oc5ccc(F)cc5F)cc4)c(C(N)=O)c3N)C2)c(C)c1

> <Shape>
0.285

> <Color>
0.086

> <Negative vol penalty>
0.000

$$$$

  -OEChem-04042322093D

 91100  0     1  0  0  0  0  0999 V2000
  -27.1741  -24.5339   16.6463 C   0  0  0  0  0  0  0  0  0  0  0  0
  -27.2827  -23.9642   17.9109 C   0  0  0  0  0  0  0  0  0  0  0  0
  -22.6737  -10.1787   20.1921 C   0  0  0  0  0  0  0  0  0  0  0  0
  -24.3049   -9.4581   21.8222 C   0  0  0  0  0  0  0  0  0  0  0  0
  -28.2198  -25.3028   16.1372 C   0  0  0  0  0  0  0  0  0  0  0  0
  -28.4376  -24.1624   18.6667 C   0  0  0  0  0  0  0  0  0  0  0  0
  -27.4272  -25.2939   23.4982 C   0  0  0  0  0  0  0  0  0  0  0  0
  -21.9403   -9.0125   20.4105 C   0  0  0  0  0  0  0  0  0  0  0  0
  -23.5714   -8.2919   22.0406 C   0  0  0  0  0  0  0  0  0  0  0  0
  -27.0677  -24.2400   24.3372 C   0  0  0  0  0  0  0  0  0  0  0  0
  -21.9404   -5.2926   23.2903 C   0  0  0  0  0  0  0  0  0  0  0  0
  -21.7377   -4.8907   24.6105 C   0  0  0  0  0  0  0  0  0  0  0  0
  -29.3160  -24.1748   25.2088 C   0  0  0  0  0  0  0  0  0  0  0  0
  -31.1282  -17.7091   20.6964 C   0  0  0  0  0  0  0  0  0  0  0  0
  -29.5186  -17.8243   22.4944 C   0  0  0  0  0  0  0  0  0  0  0  0
  -20.5987   -6.9715   25.0691 C   0  0  0  0  0  0  0  0  0  0  0  0
  -23.8560  -10.4015   20.8979 C   0  0  0  0  0  0  0  0  0  0  0  0
  -24.1805  -12.9315   20.8614 C   0  0  0  0  0  0  0  0  0  0  0  0
  -29.3841  -25.5185   16.8911 C   0  0  0  0  0  0  0  0  0  0  0  0
  -28.7389  -25.7897   23.5004 C   0  0  0  0  0  0  0  0  0  0  0  0
  -29.5004  -24.9338   18.1666 C   0  0  0  0  0  0  0  0  0  0  0  0
  -29.6890  -25.2367   24.3708 C   0  0  0  0  0  0  0  0  0  0  0  0
  -31.2880  -19.0937   20.7508 C   0  0  0  0  0  0  0  0  0  0  0  0
  -29.6785  -19.2089   22.5489 C   0  0  0  0  0  0  0  0  0  0  0  0
  -30.5632  -19.8436   21.6770 C   0  0  0  0  0  0  0  0  0  0  0  0
  -30.2434  -17.0744   21.5682 C   0  0  0  0  0  0  0  0  0  0  0  0
  -22.3891   -8.0691   21.3347 C   0  0  0  0  0  0  0  0  0  0  0  0
  -28.0128  -23.6784   25.1906 C   0  0  0  0  0  0  0  0  0  0  0  0
  -21.4723   -6.5340   22.8595 C   0  0  0  0  0  0  0  0  0  0  0  0
  -21.0668   -5.7301   25.4999 C   0  0  0  0  0  0  0  0  0  0  0  0
  -20.8014   -7.3733   23.7488 C   0  0  0  0  0  0  0  0  0  0  0  0
  -24.6144  -11.6057   20.6724 C   0  0  0  0  0  0  0  0  0  0  0  0
  -25.2634  -13.7004   20.5112 C   0  0  0  0  0  0  0  0  0  0  0  0
  -28.3145  -20.3302   25.8711 C   0  0  0  0  0  0  0  0  0  0  0  0
  -25.6420  -17.8294   26.1734 C   0  0  0  0  0  0  0  0  0  0  0  0
  -27.1658  -19.7362   26.2422 C   0  0  0  0  0  0  0  0  0  0  0  0
  -26.7843  -18.4196   25.8041 C   0  0  0  0  0  0  0  0  0  0  0  0
  -22.9121  -13.4240   21.3133 C   0  0  0  0  0  0  0  0  0  0  0  0
  -31.0646  -25.9907   21.3430 C   0  0  0  0  0  0  0  0  0  0  0  0
  -32.5587  -27.6696   23.6821 C   0  0  0  0  0  0  0  0  0  0  0  0
  -32.8763  -28.3451   27.0122 C   0  0  0  0  0  0  0  0  0  0  0  0
  -30.7246  -14.7759   20.6561 C   0  0  0  0  0  0  0  0  0  0  0  0
  -30.5073  -26.3178   16.2794 C   0  0  0  0  0  0  0  0  0  0  0  0
  -29.1040  -26.9447   22.6086 C   0  0  0  0  0  0  0  0  0  0  0  0
  -31.1053  -25.7462   24.4260 C   0  0  0  0  0  0  0  0  0  0  0  0
  -31.5431  -26.7900   17.2965 C   0  0  0  0  0  0  0  0  0  0  0  0
  -31.0696  -20.3107   27.7779 C   0  0  0  0  0  0  0  0  0  0  0  0
  -29.7529  -20.6532   28.4740 C   0  0  0  0  0  0  0  0  0  0  0  0
  -29.5964  -12.4381   18.2192 C   0  0  0  0  0  0  0  0  0  0  0  0
  -30.9780  -19.2010   26.7210 C   0  0  0  0  0  0  0  0  0  0  0  0
  -31.9361  -25.6475   18.2277 C   0  0  0  0  0  0  0  0  0  0  0  0
  -28.9485  -21.7951   27.8487 C   0  0  0  0  0  0  0  0  0  0  0  0
  -28.1640  -12.1222   18.6557 C   0  0  0  0  0  0  0  0  0  0  0  0
  -30.5247  -12.6313   19.4169 C   0  0  0  0  0  0  0  0  0  0  0  0
  -28.6304  -13.2948   20.8454 C   0  0  0  0  0  0  0  0  0  0  0  0
  -30.6409  -19.6710   25.3072 C   0  0  0  0  0  0  0  0  0  0  0  0
  -30.7272  -25.1464   19.0269 C   0  0  1  0  0  0  0  0  0  0  0  0
  -28.6979  -21.7118   26.3407 C   0  0  2  0  0  0  0  0  0  1  0  0
  -30.6003  -27.0300   22.3238 C   0  0  1  0  0  0  0  0  0  0  0  0
  -27.6443  -13.1558   19.6741 C   0  0  2  0  0  0  0  0  0  0  0  0
  -32.2412  -19.7492   19.8058 C   0  0  0  0  0  0  0  0  0  0  0  0
  -30.7352  -21.3282   21.7357 C   0  0  0  0  0  0  0  0  0  0  0  0
  -34.2088  -29.7344   28.6221 C   0  0  0  0  0  0  0  0  0  0  0  0
  -34.9202  -25.7629   23.3693 C   0  0  0  0  0  0  0  0  0  0  0  0
  -35.7775  -26.5736   25.5775 C   0  0  0  0  0  0  0  0  0  0  0  0
  -35.5510  -28.1643   23.6694 C   0  0  0  0  0  0  0  0  0  0  0  0
  -30.4626  -29.7727   27.9581 C   0  0  0  0  0  0  0  0  0  0  0  0
  -28.8871  -19.9921   23.5545 C   0  0  0  0  0  0  0  0  0  0  0  0
  -33.4712  -27.3199   24.8328 C   0  0  1  0  0  0  0  0  0  0  0  0
  -32.9507  -29.6577   27.7711 C   0  0  2  0  0  0  0  0  0  0  0  0
  -34.9039  -26.9441   24.3601 C   0  0  0  0  0  0  0  0  0  0  0  0
  -25.8746  -11.5329   20.2358 N   0  0  0  0  0  0  0  0  0  0  0  0
  -26.2418  -12.8226   20.1475 N   0  0  0  0  0  0  0  0  0  0  0  0
  -31.4151  -26.8728   23.5303 N   0  0  0  0  0  0  0  0  0  0  0  0
  -29.9701  -13.6274   20.3362 N   0  0  0  0  0  0  0  0  0  0  0  0
  -25.4645  -15.0350   20.4819 N   0  0  0  0  0  0  0  0  0  0  0  0
  -21.9101  -12.4969   21.6310 N   0  0  0  0  0  0  0  0  0  0  0  0
  -30.0816  -15.6677   21.5139 N   0  0  0  0  0  0  0  0  0  0  0  0
  -30.4311  -26.0518   20.1165 N   0  0  0  0  0  0  0  0  0  0  0  0
  -33.4228  -28.4528   25.7509 N   0  0  0  0  0  0  0  0  0  0  0  0
  -29.1681  -19.5801   24.9788 N   0  3  2  0  0  0  0  0  0  0  0  0
  -31.7682  -29.8063   28.6660 N   0  3  0  0  0  0  0  0  0  0  0  0
  -22.6688  -14.6503   21.4161 O   0  0  0  0  0  0  0  0  0  0  0  0
  -31.9344  -25.1935   21.6739 O   0  0  0  0  0  0  0  0  0  0  0  0
  -32.8463  -28.6194   22.9493 O   0  0  0  0  0  0  0  0  0  0  0  0
  -32.3861  -27.3252   27.4918 O   0  0  0  0  0  0  0  0  0  0  0  0
  -31.8468  -14.9683   20.1810 O   0  0  0  0  0  0  0  0  0  0  0  0
  -21.6736   -6.9312   21.5482 O   0  0  0  0  0  0  0  0  0  0  0  0
  -27.6632  -22.6449   26.0135 O   0  0  0  0  0  0  0  0  0  1  0  0
  -20.8709   -5.3434   26.7673 F   0  0  0  0  0  0  0  0  0  0  0  0
  -20.3483   -8.5666   23.3404 F   0  0  0  0  0  0  0  0  0  0  0  0
  1  2  1  0  0  0  0
  1  5  2  0  0  0  0
  2  6  2  0  0  0  0
  3  8  2  0  0  0  0
  3 17  1  0  0  0  0
  4  9  1  0  0  0  0
  4 17  2  0  0  0  0
  5 19  1  0  0  0  0
  6 21  1  0  0  0  0
  7 10  2  0  0  0  0
  7 20  1  0  0  0  0
  8 27  1  0  0  0  0
  9 27  2  0  0  0  0
 10 28  1  0  0  0  0
 11 12  2  0  0  0  0
 11 29  1  0  0  0  0
 12 30  1  0  0  0  0
 13 22  1  0  0  0  0
 13 28  2  0  0  0  0
 14 23  2  0  0  0  0
 14 26  1  0  0  0  0
 15 24  1  0  0  0  0
 15 26  2  0  0  0  0
 16 30  2  0  0  0  0
 16 31  1  0  0  0  0
 17 32  1  0  0  0  0
 18 32  1  0  0  0  0
 18 33  2  0  0  0  0
 18 38  1  0  0  0  0
 19 21  2  0  0  0  0
 19 43  1  0  0  0  0
 20 22  2  0  0  0  0
 20 44  1  0  0  0  0
 21 57  1  0  0  0  0
 22 45  1  0  0  0  0
 23 25  1  0  0  0  0
 23 61  1  0  0  0  0
 24 25  2  0  0  0  0
 24 68  1  0  0  0  0
 25 62  1  0  0  0  0
 26 78  1  0  0  0  0
 27 88  1  0  0  0  0
 28 89  1  0  0  0  0
 29 31  2  0  0  0  0
 29 88  1  0  0  0  0
 30 90  1  0  0  0  0
 31 91  1  0  0  0  0
 32 72  2  0  0  0  0
 33 73  1  0  0  0  0
 33 76  1  0  0  0  0
 34 36  2  0  0  0  0
 34 58  1  0  0  0  0
 34 81  1  0  0  0  0
 35 37  2  0  0  0  0
 36 37  1  0  0  0  0
 38 77  1  0  0  0  0
 38 83  2  0  0  0  0
 39 59  1  0  0  0  0
 39 79  1  0  0  0  0
 39 84  2  0  0  0  0
 40 69  1  0  0  0  0
 40 74  1  0  0  0  0
 40 85  2  0  0  0  0
 41 70  1  0  0  0  0
 41 80  1  0  0  0  0
 41 86  2  0  0  0  0
 42 75  1  0  0  0  0
 42 78  1  0  0  0  0
 42 87  2  0  0  0  0
 43 46  1  0  0  0  0
 44 59  1  0  0  0  0
 45 74  1  0  0  0  0
 46 51  1  0  0  0  0
 47 48  1  0  0  0  0
 47 50  1  0  0  0  0
 48 52  1  0  0  0  0
 49 53  1  0  0  0  0
 49 54  1  0  0  0  0
 50 56  1  0  0  0  0
 51 57  1  0  0  0  0
 52 58  1  0  0  0  0
 53 60  1  0  0  0  0
 54 75  1  0  0  0  0
 55 60  1  0  0  0  0
 55 75  1  0  0  0  0
 56 81  1  0  0  0  0
 57 79  1  0  0  0  0
 58 89  1  0  0  0  0
 59 74  1  0  0  0  0
 60 73  1  0  0  0  0
 63 70  1  0  0  0  0
 64 71  1  0  0  0  0
 65 71  1  0  0  0  0
 66 71  1  0  0  0  0
 67 82  1  0  0  0  0
 68 81  1  0  0  0  0
 69 71  1  0  0  0  0
 69 80  1  0  0  0  0
 70 82  1  0  0  0  0
 72 73  1  0  0  0  0
M  CHG  2  81   1  82   1
M  ISO  4  42 100  58 101  78 100  89 101
M  END
> <Batch ID>
0041

> <Smiles>
C=CC=C1N(Cc2cc([100NH:0][100C:0](=O)N3CCCC(n4nc(-c5ccc(Oc6ccc(F)cc6F)cc5)c(C(N)=O)c4N)C3)cc(C)c2C)CCCCC[101CH:1]1[101O:1]c1ccc2c(c1)CN(C(=O)C(NC(=O)C(C)NC)C(C)(C)C)C(C(=O)NC1CCCc3ccccc31)C2

> <Shape>
0.233

> <Color>
0.192

> <Negative vol penalty>
0.000

$$$$

  -OEChem-04042322093D

 89 98  0     1  0  0  0  0  0999 V2000
  -27.0524  -39.0116   23.6228 C   0  0  0  0  0  0  0  0  0  0  0  0
  -27.6865  -38.1241   24.4862 C   0  0  0  0  0  0  0  0  0  0  0  0
  -22.8665   -9.7278   20.0744 C   0  0  0  0  0  0  0  0  0  0  0  0
  -24.4484   -9.0394   21.7657 C   0  0  0  0  0  0  0  0  0  0  0  0
  -25.7487  -38.7582   23.1984 C   0  0  0  0  0  0  0  0  0  0  0  0
  -27.0168  -36.9831   24.9268 C   0  0  0  0  0  0  0  0  0  0  0  0
  -29.0664  -29.4634   24.3974 C   0  0  0  0  0  0  0  0  0  0  0  0
  -21.8647   -8.9980   20.7142 C   0  0  0  0  0  0  0  0  0  0  0  0
  -23.4466   -8.3096   22.4056 C   0  0  0  0  0  0  0  0  0  0  0  0
  -29.2455  -28.0909   24.2235 C   0  0  0  0  0  0  0  0  0  0  0  0
  -21.8926   -5.3332   22.0088 C   0  0  0  0  0  0  0  0  0  0  0  0
  -22.2043   -4.0432   22.4381 C   0  0  0  0  0  0  0  0  0  0  0  0
  -26.8518  -27.7573   24.3053 C   0  0  0  0  0  0  0  0  0  0  0  0
  -24.8850  -20.6249   19.5026 C   0  0  0  0  0  0  0  0  0  0  0  0
  -24.6401  -18.2222   19.5672 C   0  0  0  0  0  0  0  0  0  0  0  0
  -26.6383  -19.2569   20.4469 C   0  0  0  0  0  0  0  0  0  0  0  0
  -21.7050   -4.6800   24.7146 C   0  0  0  0  0  0  0  0  0  0  0  0
  -24.1584   -9.7485   20.6001 C   0  0  0  0  0  0  0  0  0  0  0  0
  -25.6662  -10.3253   18.6249 C   0  0  0  0  0  0  0  0  0  0  0  0
  -25.0662  -37.6085   23.6263 C   0  0  0  0  0  0  0  0  0  0  0  0
  -27.7770  -29.9906   24.5106 C   0  0  0  0  0  0  0  0  0  0  0  0
  -25.7023  -36.7147   24.5088 C   0  0  0  0  0  0  0  0  0  0  0  0
  -26.6656  -29.1328   24.4671 C   0  0  0  0  0  0  0  0  0  0  0  0
  -24.1373  -19.4791   19.2309 C   0  0  0  0  0  0  0  0  0  0  0  0
  -26.1355  -20.5138   20.1106 C   0  0  0  0  0  0  0  0  0  0  0  0
  -25.8906  -18.1111   20.1753 C   0  0  0  0  0  0  0  0  0  0  0  0
  -22.1548   -8.2889   21.8798 C   0  0  0  0  0  0  0  0  0  0  0  0
  -28.1409  -27.2400   24.1778 C   0  0  0  0  0  0  0  0  0  0  0  0
  -21.4872   -6.2967   22.9325 C   0  0  0  0  0  0  0  0  0  0  0  0
  -22.1105   -3.7166   23.7909 C   0  0  0  0  0  0  0  0  0  0  0  0
  -21.3934   -5.9701   24.2853 C   0  0  0  0  0  0  0  0  0  0  0  0
  -25.1937  -10.5017   19.9392 C   0  0  0  0  0  0  0  0  0  0  0  0
  -26.6421  -11.2808   18.4797 C   0  0  0  0  0  0  0  0  0  0  0  0
  -26.7736  -24.0350   21.1605 C   0  0  0  0  0  0  0  0  0  0  0  0
  -26.2545  -24.7801   20.1690 C   0  0  0  0  0  0  0  0  0  0  0  0
  -25.2593   -9.3821   17.6247 C   0  0  0  0  0  0  0  0  0  0  0  0
  -25.6397  -33.0448   24.9341 C   0  0  0  0  0  0  0  0  0  0  0  0
  -24.2320  -31.2497   22.8832 C   0  0  0  0  0  0  0  0  0  0  0  0
  -23.2220  -29.1855   20.3620 C   0  0  0  0  0  0  0  0  0  0  0  0
  -27.6234  -16.5483   21.1247 C   0  0  0  0  0  0  0  0  0  0  0  0
  -23.6411  -37.4014   23.1781 C   0  0  0  0  0  0  0  0  0  0  0  0
  -27.5395  -31.4551   24.7608 C   0  0  0  0  0  0  0  0  0  0  0  0
  -25.2988  -29.7402   24.6279 C   0  0  0  0  0  0  0  0  0  0  0  0
  -27.8593  -24.5688   22.0524 C   0  0  0  0  0  0  0  0  0  0  0  0
  -23.1356  -35.9773   23.3940 C   0  0  0  0  0  0  0  0  0  0  0  0
  -29.8504  -13.7724   21.0162 C   0  0  0  0  0  0  0  0  0  0  0  0
  -25.6683  -23.2163   23.7432 C   0  0  0  0  0  0  0  0  0  0  0  0
  -23.4973  -35.4887   24.7930 C   0  0  0  0  0  0  0  0  0  0  0  0
  -28.9531  -12.6037   20.6022 C   0  0  0  0  0  0  0  0  0  0  0  0
  -26.7168  -24.1689   24.3162 C   0  0  0  0  0  0  0  0  0  0  0  0
  -29.1235  -14.7445   21.9438 C   0  0  0  0  0  0  0  0  0  0  0  0
  -26.9392  -14.0709   21.0249 C   0  0  0  0  0  0  0  0  0  0  0  0
  -26.2542  -22.2106   22.7555 C   0  0  0  0  0  0  0  0  0  0  0  0
  -25.0178  -35.4534   24.9890 C   0  0  1  0  0  0  0  0  0  0  0  0
  -26.2671  -31.9857   24.0762 C   0  0  1  0  0  0  0  0  0  0  0  0
  -27.6069  -13.0991   20.0383 C   0  0  2  0  0  0  0  0  0  0  0  0
  -27.2849  -25.1878   23.3288 C   0  0  1  0  0  0  0  0  0  1  0  0
  -22.8004  -19.5980   18.5807 C   0  0  0  0  0  0  0  0  0  0  0  0
  -24.8014  -25.3751   18.2356 C   0  0  0  0  0  0  0  0  0  0  0  0
  -21.8636  -28.3883   18.4084 C   0  0  0  0  0  0  0  0  0  0  0  0
  -22.3315  -30.2840   25.0648 C   0  0  0  0  0  0  0  0  0  0  0  0
  -20.9713  -29.1648   23.2857 C   0  0  0  0  0  0  0  0  0  0  0  0
  -21.2503  -31.6436   23.2657 C   0  0  0  0  0  0  0  0  0  0  0  0
  -24.9590  -30.6006   18.4283 C   0  0  0  0  0  0  0  0  0  0  0  0
  -26.9395  -21.7463   20.4029 C   0  0  0  0  0  0  0  0  0  0  0  0
  -25.1745  -24.3054   19.2500 C   0  0  0  0  0  0  0  0  0  0  0  0
  -23.2074  -30.1709   22.6387 C   0  0  1  0  0  0  0  0  0  0  0  0
  -22.7883  -29.4742   18.9362 C   0  0  2  0  0  0  0  0  0  0  0  0
  -21.9678  -30.3097   23.5668 C   0  0  0  0  0  0  0  0  0  0  0  0
  -25.8182  -11.4914   20.5832 N   0  0  0  0  0  0  0  0  0  0  0  0
  -26.6931  -11.9454   19.6697 N   0  0  0  0  0  0  0  0  0  0  0  0
  -25.2085  -30.9867   23.8516 N   0  0  0  0  0  0  0  0  0  0  0  0
  -27.8593  -15.1743   21.3421 N   0  0  0  0  0  0  0  0  0  0  0  0
  -27.4531  -11.6090   17.4516 N   0  0  0  0  0  0  0  0  0  0  0  0
  -24.2423   -8.4708   17.9401 N   0  0  0  0  0  0  0  0  0  0  0  0
  -26.4013  -16.8343   20.5170 N   0  0  0  0  0  0  0  0  0  0  0  0
  -25.5843  -34.2909   24.3393 N   0  0  0  0  0  0  0  0  0  0  0  0
  -22.8958  -30.2192   21.2143 N   0  0  0  0  0  0  0  0  0  0  0  0
  -26.2339  -22.7068   21.3287 N   0  3  2  0  0  0  0  0  0  0  0  0
  -23.9762  -29.5564   18.0400 N   0  3  0  0  0  0  0  0  0  0  0  0
  -25.7934   -9.3377   16.4905 O   0  0  0  0  0  0  0  0  0  0  0  0
  -25.2338  -32.7539   26.0532 O   0  0  0  0  0  0  0  0  0  0  0  0
  -24.1674  -32.3002   22.2386 O   0  0  0  0  0  0  0  0  0  0  0  0
  -23.7898  -28.1453   20.6879 O   0  0  0  0  0  0  0  0  0  0  0  0
  -28.4566  -17.4059   21.4285 O   0  0  0  0  0  0  0  0  0  0  0  0
  -21.1774   -7.5768   22.5046 O   0  0  0  0  0  0  0  0  0  0  0  0
  -28.3227  -25.9016   24.0033 O   0  0  0  0  0  0  0  0  0  1  0  0
  -22.4083   -2.4773   24.2028 F   0  0  0  0  0  0  0  0  0  0  0  0
  -21.0034   -6.8912   25.1771 F   0  0  0  0  0  0  0  0  0  0  0  0
  1  2  1  0  0  0  0
  1  5  2  0  0  0  0
  2  6  2  0  0  0  0
  3  8  2  0  0  0  0
  3 18  1  0  0  0  0
  4  9  1  0  0  0  0
  4 18  2  0  0  0  0
  5 20  1  0  0  0  0
  6 22  1  0  0  0  0
  7 10  2  0  0  0  0
  7 21  1  0  0  0  0
  8 27  1  0  0  0  0
  9 27  2  0  0  0  0
 10 28  1  0  0  0  0
 11 12  2  0  0  0  0
 11 29  1  0  0  0  0
 12 30  1  0  0  0  0
 13 23  1  0  0  0  0
 13 28  2  0  0  0  0
 14 24  2  0  0  0  0
 14 25  1  0  0  0  0
 15 24  1  0  0  0  0
 15 26  2  0  0  0  0
 16 25  2  0  0  0  0
 16 26  1  0  0  0  0
 17 30  2  0  0  0  0
 17 31  1  0  0  0  0
 18 32  1  0  0  0  0
 19 32  1  0  0  0  0
 19 33  2  0  0  0  0
 19 36  1  0  0  0  0
 20 22  2  0  0  0  0
 20 41  1  0  0  0  0
 21 23  2  0  0  0  0
 21 42  1  0  0  0  0
 22 54  1  0  0  0  0
 23 43  1  0  0  0  0
 24 58  1  0  0  0  0
 25 65  1  0  0  0  0
 26 76  1  0  0  0  0
 27 86  1  0  0  0  0
 28 87  1  0  0  0  0
 29 31  2  0  0  0  0
 29 86  1  0  0  0  0
 30 88  1  0  0  0  0
 31 89  1  0  0  0  0
 32 70  2  0  0  0  0
 33 71  1  0  0  0  0
 33 74  1  0  0  0  0
 34 35  2  0  0  0  0
 34 44  1  0  0  0  0
 34 79  1  0  0  0  0
 35 66  1  0  0  0  0
 36 75  1  0  0  0  0
 36 81  2  0  0  0  0
 37 55  1  0  0  0  0
 37 77  1  0  0  0  0
 37 82  2  0  0  0  0
 38 67  1  0  0  0  0
 38 72  1  0  0  0  0
 38 83  2  0  0  0  0
 39 68  1  0  0  0  0
 39 78  1  0  0  0  0
 39 84  2  0  0  0  0
 40 73  1  0  0  0  0
 40 76  1  0  0  0  0
 40 85  2  0  0  0  0
 41 45  1  0  0  0  0
 42 55  1  0  0  0  0
 43 72  1  0  0  0  0
 44 57  1  0  0  0  0
 45 48  1  0  0  0  0
 46 49  1  0  0  0  0
 46 51  1  0  0  0  0
 47 50  1  0  0  0  0
 47 53  1  0  0  0  0
 48 54  1  0  0  0  0
 49 56  1  0  0  0  0
 50 57  1  0  0  0  0
 51 73  1  0  0  0  0
 52 56  1  0  0  0  0
 52 73  1  0  0  0  0
 53 79  1  0  0  0  0
 54 77  1  0  0  0  0
 55 72  1  0  0  0  0
 56 71  1  0  0  0  0
 57 87  1  0  0  0  0
 59 66  1  0  0  0  0
 60 68  1  0  0  0  0
 61 69  1  0  0  0  0
 62 69  1  0  0  0  0
 63 69  1  0  0  0  0
 64 80  1  0  0  0  0
 65 79  1  0  0  0  0
 67 69  1  0  0  0  0
 67 78  1  0  0  0  0
 68 80  1  0  0  0  0
 70 71  1  0  0  0  0
M  CHG  2  79   1  80   1
M  ISO  4  40 100  57 101  76 100  87 101
M  END
> <Batch ID>
0041

> <Smiles>
CCC=C1C[101CH:1]([101O:1]c2ccc3c(c2)CN(C(=O)C(NC(=O)C(C)NC)C(C)(C)C)C(C(=O)NC2CCCc4ccccc42)C3)CCCN1Cc1cc(C)cc([100NH:0][100C:0](=O)N2CCCC(n3nc(-c4ccc(Oc5ccc(F)cc5F)cc4)c(C(N)=O)c3N)C2)c1

> <Shape>
0.300

> <Color>
0.073

> <Negative vol penalty>
0.000

$$$$

  -OEChem-04042322093D

 84 92  0     1  0  0  0  0  0999 V2000
  -27.9850  -24.6173   16.8752 C   0  0  0  0  0  0  0  0  0  0  0  0
  -26.8048  -24.8392   17.5776 C   0  0  0  0  0  0  0  0  0  0  0  0
  -25.8421  -12.1691   19.9633 C   0  0  0  0  0  0  0  0  0  0  0  0
  -24.2007  -12.9081   21.5748 C   0  0  0  0  0  0  0  0  0  0  0  0
  -29.1909  -25.1170   17.3650 C   0  0  0  0  0  0  0  0  0  0  0  0
  -26.8301  -25.5601   18.7709 C   0  0  0  0  0  0  0  0  0  0  0  0
  -23.1039  -28.9777   19.0553 C   0  0  0  0  0  0  0  0  0  0  0  0
  -26.0185  -10.9883   20.6845 C   0  0  0  0  0  0  0  0  0  0  0  0
  -24.3771  -11.7272   22.2960 C   0  0  0  0  0  0  0  0  0  0  0  0
  -21.8312  -28.5069   19.3750 C   0  0  0  0  0  0  0  0  0  0  0  0
  -24.1314   -8.7486   24.3661 C   0  0  0  0  0  0  0  0  0  0  0  0
  -22.9895   -8.0863   24.8167 C   0  0  0  0  0  0  0  0  0  0  0  0
  -22.1511  -29.2115   21.6598 C   0  0  0  0  0  0  0  0  0  0  0  0
  -22.0744  -21.9317   23.3732 C   0  0  0  0  0  0  0  0  0  0  0  0
  -24.2485  -22.6458   21.7776 C   0  0  0  0  0  0  0  0  0  0  0  0
  -22.2307   -7.8428   22.5359 C   0  0  0  0  0  0  0  0  0  0  0  0
  -24.9333  -13.1291   20.4086 C   0  0  0  0  0  0  0  0  0  0  0  0
  -23.8326  -14.5809   18.6230 C   0  0  0  0  0  0  0  0  0  0  0  0
  -29.2295  -25.8527   18.5600 C   0  0  0  0  0  0  0  0  0  0  0  0
  -23.9154  -29.5601   20.0395 C   0  0  0  0  0  0  0  0  0  0  0  0
  -28.0378  -26.0690   19.2779 C   0  0  0  0  0  0  0  0  0  0  0  0
  -23.4327  -29.6913   21.3494 C   0  0  0  0  0  0  0  0  0  0  0  0
  -22.1871  -23.2357   22.8912 C   0  0  0  0  0  0  0  0  0  0  0  0
  -24.1357  -21.3418   22.2597 C   0  0  0  0  0  0  0  0  0  0  0  0
  -25.2859  -10.7673   21.8508 C   0  0  0  0  0  0  0  0  0  0  0  0
  -21.3557  -28.6212   20.6781 C   0  0  0  0  0  0  0  0  0  0  0  0
  -24.3230   -8.9580   23.0004 C   0  0  0  0  0  0  0  0  0  0  0  0
  -22.0392   -7.6334   23.9016 C   0  0  0  0  0  0  0  0  0  0  0  0
  -23.3726   -8.5051   22.0853 C   0  0  0  0  0  0  0  0  0  0  0  0
  -23.0487  -20.9847   23.0575 C   0  0  0  0  0  0  0  0  0  0  0  0
  -23.2741  -23.5928   22.0934 C   0  0  0  0  0  0  0  0  0  0  0  0
  -24.7511  -14.3494   19.6644 C   0  0  0  0  0  0  0  0  0  0  0  0
  -24.0548  -15.8848   18.2527 C   0  0  0  0  0  0  0  0  0  0  0  0
  -22.8649  -13.6965   18.0423 C   0  0  0  0  0  0  0  0  0  0  0  0
  -26.7404  -28.8626   21.3189 C   0  0  0  0  0  0  0  0  0  0  0  0
  -26.3313  -31.7133   22.8117 C   0  0  0  0  0  0  0  0  0  0  0  0
  -24.1804  -34.1122   23.9367 C   0  0  0  0  0  0  0  0  0  0  0  0
  -26.2732  -20.6255   21.1352 C   0  0  0  0  0  0  0  0  0  0  0  0
  -30.5637  -26.3324   19.0744 C   0  0  0  0  0  0  0  0  0  0  0  0
  -25.2755  -30.0872   19.6725 C   0  0  0  0  0  0  0  0  0  0  0  0
  -24.2566  -30.3270   22.4382 C   0  0  0  0  0  0  0  0  0  0  0  0
  -30.4502  -27.4069   20.1527 C   0  0  0  0  0  0  0  0  0  0  0  0
  -27.5062  -19.2018   18.1137 C   0  0  0  0  0  0  0  0  0  0  0  0
  -29.4107  -27.0088   21.1957 C   0  0  0  0  0  0  0  0  0  0  0  0
  -26.8513  -17.8193   18.0706 C   0  0  0  0  0  0  0  0  0  0  0  0
  -27.8816  -19.6074   19.5379 C   0  0  0  0  0  0  0  0  0  0  0  0
  -26.1333  -18.1444   20.4718 C   0  0  0  0  0  0  0  0  0  0  0  0
  -28.0208  -26.8675   20.5633 C   0  0  1  0  0  0  0  0  0  0  0  0
  -26.2165  -30.1968   20.8683 C   0  0  1  0  0  0  0  0  0  0  0  0
  -25.6785  -17.7200   19.0658 C   0  0  2  0  0  0  0  0  0  0  0  0
  -24.1389  -36.3079   25.1510 C   0  0  0  0  0  0  0  0  0  0  0  0
  -26.8256  -30.2611   25.4493 C   0  0  0  0  0  0  0  0  0  0  0  0
  -25.8515  -32.2368   26.6393 C   0  0  0  0  0  0  0  0  0  0  0  0
  -27.9205  -32.5025   25.2713 C   0  0  0  0  0  0  0  0  0  0  0  0
  -22.9626  -35.5004   21.6240 C   0  0  0  0  0  0  0  0  0  0  0  0
  -21.1179  -24.2241   23.2530 C   0  0  0  0  0  0  0  0  0  0  0  0
  -18.6694  -26.2512   21.1183 C   0  0  0  0  0  0  0  0  0  0  0  0
  -19.3125  -25.7189   22.3900 C   0  0  0  0  0  0  0  0  0  0  0  0
  -19.6208  -27.0545   20.2400 C   0  0  0  0  0  0  0  0  0  1  0  0
  -25.7016  -32.1601   24.1090 C   0  0  1  0  0  0  0  0  0  0  0  0
  -24.1931  -35.6235   23.7941 C   0  0  2  0  0  0  0  0  0  0  0  0
  -26.5598  -31.7764   25.3474 C   0  0  0  0  0  0  0  0  0  0  0  0
  -25.5011  -15.4202   19.9380 N   0  0  0  0  0  0  0  0  0  0  0  0
  -25.0542  -16.3372   19.0630 N   0  0  0  0  0  0  0  0  0  0  0  0
  -25.5823  -30.8213   22.0311 N   0  0  0  0  0  0  0  0  0  0  0  0
  -26.7207  -19.4925   20.4233 N   0  0  0  0  0  0  0  0  0  0  0  0
  -23.4909  -16.6769   17.3162 N   0  0  0  0  0  0  0  0  0  0  0  0
  -22.7686  -12.3906   18.5420 N   0  0  0  0  0  0  0  0  0  0  0  0
  -25.1418  -20.4038   21.9197 N   0  0  0  0  0  0  0  0  0  0  0  0
  -27.4312  -28.1705   20.3425 N   0  0  0  0  0  0  0  0  0  0  0  0
  -25.4568  -33.5918   23.9720 N   0  0  0  0  0  0  0  0  0  0  0  0
  -23.0225  -36.0779   22.9914 N   0  3  0  0  0  0  0  0  0  0  0  0
  -20.4175  -24.7867   22.0654 N   0  3  0  0  0  0  0  0  0  0  0  0
  -22.1194  -14.0486   17.0970 O   0  0  0  0  0  0  0  0  0  0  0  0
  -26.5345  -28.4893   22.4678 O   0  0  0  0  0  0  0  0  0  0  0  0
  -27.4435  -32.1455   22.4990 O   0  0  0  0  0  0  0  0  0  0  0  0
  -23.1421  -33.4591   24.0132 O   0  0  0  0  0  0  0  0  0  0  0  0
  -26.8348  -21.7193   21.0337 O   0  0  0  0  0  0  0  0  0  0  0  0
  -25.4576   -9.6150   22.5546 O   0  0  0  0  0  0  0  0  0  0  0  0
  -20.1140  -28.1619   20.9930 O   0  0  0  0  0  0  0  0  0  1  0  0
  -20.9434   -6.9961   24.3344 F   0  0  0  0  0  0  0  0  0  0  0  0
  -23.5517   -8.7024   20.7720 F   0  0  0  0  0  0  0  0  0  0  0  0
  -22.8709  -19.3814   23.6757 Cl  0  0  0  0  0  0  0  0  0  0  0  0
  -23.4468  -25.1972   21.4804 Cl  0  0  0  0  0  0  0  0  0  0  0  0
  1  2  1  0  0  0  0
  1  5  2  0  0  0  0
  2  6  2  0  0  0  0
  3  8  2  0  0  0  0
  3 17  1  0  0  0  0
  4  9  1  0  0  0  0
  4 17  2  0  0  0  0
  5 19  1  0  0  0  0
  6 21  1  0  0  0  0
  7 10  2  0  0  0  0
  7 20  1  0  0  0  0
  8 25  1  0  0  0  0
  9 25  2  0  0  0  0
 10 26  1  0  0  0  0
 11 12  2  0  0  0  0
 11 27  1  0  0  0  0
 12 28  1  0  0  0  0
 13 22  1  0  0  0  0
 13 26  2  0  0  0  0
 14 23  1  0  0  0  0
 14 30  2  0  0  0  0
 15 24  2  0  0  0  0
 15 31  1  0  0  0  0
 16 28  2  0  0  0  0
 16 29  1  0  0  0  0
 17 32  1  0  0  0  0
 18 32  1  0  0  0  0
 18 33  2  0  0  0  0
 18 34  1  0  0  0  0
 19 21  2  0  0  0  0
 19 39  1  0  0  0  0
 20 22  2  0  0  0  0
 20 40  1  0  0  0  0
 21 48  1  0  0  0  0
 22 41  1  0  0  0  0
 23 31  2  0  0  0  0
 23 56  1  0  0  0  0
 24 30  1  0  0  0  0
 24 69  1  0  0  0  0
 25 79  1  0  0  0  0
 26 80  1  0  0  0  0
 27 29  2  0  0  0  0
 27 79  1  0  0  0  0
 28 81  1  0  0  0  0
 29 82  1  0  0  0  0
 30 83  1  0  0  0  0
 31 84  1  0  0  0  0
 32 63  2  0  0  0  0
 33 64  1  0  0  0  0
 33 67  1  0  0  0  0
 34 68  1  0  0  0  0
 34 74  2  0  0  0  0
 35 49  1  0  0  0  0
 35 70  1  0  0  0  0
 35 75  2  0  0  0  0
 36 60  1  0  0  0  0
 36 65  1  0  0  0  0
 36 76  2  0  0  0  0
 37 61  1  0  0  0  0
 37 71  1  0  0  0  0
 37 77  2  0  0  0  0
 38 66  1  0  0  0  0
 38 69  1  0  0  0  0
 38 78  2  0  0  0  0
 39 42  1  0  0  0  0
 40 49  1  0  0  0  0
 41 65  1  0  0  0  0
 42 44  1  0  0  0  0
 43 45  1  0  0  0  0
 43 46  1  0  0  0  0
 44 48  1  0  0  0  0
 45 50  1  0  0  0  0
 46 66  1  0  0  0  0
 47 50  1  0  0  0  0
 47 66  1  0  0  0  0
 48 70  1  0  0  0  0
 49 65  1  0  0  0  0
 50 64  1  0  0  0  0
 51 61  1  0  0  0  0
 52 62  1  0  0  0  0
 53 62  1  0  0  0  0
 54 62  1  0  0  0  0
 55 72  1  0  0  0  0
 56 73  1  0  0  0  0
 57 58  1  0  0  0  0
 57 59  1  0  0  0  0
 58 73  1  0  0  0  0
 59 80  1  0  0  0  0
 60 62  1  0  0  0  0
 60 71  1  0  0  0  0
 61 72  1  0  0  0  0
 63 64  1  0  0  0  0
M  CHG  2  72   1  73   1
M  ISO  4  38 100  59 101  69 100  80 101
M  END
> <Batch ID>
0041

> <Smiles>
CNC(C)C(=O)NC(C(=O)N1Cc2cc([101O:1][101CH2:1]CCNCc3cc(Cl)c([100NH:0][100C:0](=O)N4CCCC(n5nc(-c6ccc(Oc7ccc(F)cc7F)cc6)c(C(N)=O)c5N)C4)cc3Cl)ccc2CC1C(=O)NC1CCCc2ccccc21)C(C)(C)C

> <Shape>
0.295

> <Color>
0.078

> <Negative vol penalty>
0.000

$$$$

  -OEChem-04042322093D

 90 99  0     1  0  0  0  0  0999 V2000
  -28.1572  -38.1623   21.6895 C   0  0  0  0  0  0  0  0  0  0  0  0
  -28.2461  -37.1758   20.7125 C   0  0  0  0  0  0  0  0  0  0  0  0
  -25.0205   -8.0453   22.1231 C   0  0  0  0  0  0  0  0  0  0  0  0
  -23.5225   -9.9342   21.9632 C   0  0  0  0  0  0  0  0  0  0  0  0
  -28.0025  -37.8042   23.0280 C   0  0  0  0  0  0  0  0  0  0  0  0
  -28.1814  -35.8305   21.0738 C   0  0  0  0  0  0  0  0  0  0  0  0
  -25.8724  -29.5012   18.6398 C   0  0  0  0  0  0  0  0  0  0  0  0
  -23.9460   -7.1769   21.9309 C   0  0  0  0  0  0  0  0  0  0  0  0
  -22.4480   -9.0657   21.7710 C   0  0  0  0  0  0  0  0  0  0  0  0
  -26.3243  -28.1998   18.4254 C   0  0  0  0  0  0  0  0  0  0  0  0
  -21.4169   -5.8983   23.7730 C   0  0  0  0  0  0  0  0  0  0  0  0
  -21.3293   -4.7828   24.6056 C   0  0  0  0  0  0  0  0  0  0  0  0
  -25.9762  -27.7009   20.7598 C   0  0  0  0  0  0  0  0  0  0  0  0
  -29.8174  -18.8652   20.6732 C   0  0  0  0  0  0  0  0  0  0  0  0
  -28.8509  -18.9340   23.2892 C   0  0  0  0  0  0  0  0  0  0  0  0
  -21.4548   -3.3333   22.6768 C   0  0  0  0  0  0  0  0  0  0  0  0
  -24.8087   -9.4240   22.1394 C   0  0  0  0  0  0  0  0  0  0  0  0
  -27.0659  -10.4462   21.5329 C   0  0  0  0  0  0  0  0  0  0  0  0
  -27.9262  -36.4541   23.4048 C   0  0  0  0  0  0  0  0  0  0  0  0
  -25.4788  -29.9162   19.9201 C   0  0  0  0  0  0  0  0  0  0  0  0
  -28.0268  -35.4540   22.4188 C   0  0  0  0  0  0  0  0  0  0  0  0
  -25.5174  -29.0074   20.9872 C   0  0  0  0  0  0  0  0  0  0  0  0
  -29.6433  -20.0885   21.3203 C   0  0  0  0  0  0  0  0  0  0  0  0
  -29.5082  -17.6763   21.3340 C   0  0  0  0  0  0  0  0  0  0  0  0
  -29.1601  -20.1229   22.6284 C   0  0  0  0  0  0  0  0  0  0  0  0
  -29.0250  -17.7107   22.6420 C   0  0  0  0  0  0  0  0  0  0  0  0
  -22.6598   -7.6871   21.7548 C   0  0  0  0  0  0  0  0  0  0  0  0
  -26.3790  -27.3003   19.4861 C   0  0  0  0  0  0  0  0  0  0  0  0
  -21.5234   -5.7314   22.3922 C   0  0  0  0  0  0  0  0  0  0  0  0
  -21.3482   -3.5002   24.0576 C   0  0  0  0  0  0  0  0  0  0  0  0
  -21.5424   -4.4489   21.8441 C   0  0  0  0  0  0  0  0  0  0  0  0
  -25.9182  -10.3216   22.3385 C   0  0  0  0  0  0  0  0  0  0  0  0
  -27.8090  -11.4268   22.1434 C   0  0  0  0  0  0  0  0  0  0  0  0
  -29.5932  -22.7481   18.6544 C   0  0  0  0  0  0  0  0  0  0  0  0
  -30.6409  -22.6439   17.8182 C   0  0  0  0  0  0  0  0  0  0  0  0
  -27.4280   -9.7390   20.3395 C   0  0  0  0  0  0  0  0  0  0  0  0
  -26.4878  -32.1248   21.9713 C   0  0  0  0  0  0  0  0  0  0  0  0
  -23.8692  -31.2036   23.6497 C   0  0  0  0  0  0  0  0  0  0  0  0
  -21.5612  -28.7802   24.3182 C   0  0  0  0  0  0  0  0  0  0  0  0
  -28.2168  -16.3919   24.6304 C   0  0  0  0  0  0  0  0  0  0  0  0
  -27.8062  -36.1148   24.8694 C   0  0  0  0  0  0  0  0  0  0  0  0
  -24.9685  -31.3155   20.1294 C   0  0  0  0  0  0  0  0  0  0  0  0
  -25.0868  -29.3973   22.3768 C   0  0  0  0  0  0  0  0  0  0  0  0
  -28.8929  -24.0626   18.8728 C   0  0  0  0  0  0  0  0  0  0  0  0
  -27.3701  -34.6748   25.1274 C   0  0  0  0  0  0  0  0  0  0  0  0
  -27.2722  -13.6298   26.6690 C   0  0  0  0  0  0  0  0  0  0  0  0
  -26.8478  -21.8156   18.3801 C   0  0  0  0  0  0  0  0  0  0  0  0
  -28.1717  -33.7106   24.2587 C   0  0  0  0  0  0  0  0  0  0  0  0
  -26.5093  -23.3043   18.2786 C   0  0  0  0  0  0  0  0  0  0  0  0
  -26.9302  -12.5331   25.6578 C   0  0  0  0  0  0  0  0  0  0  0  0
  -26.8447  -15.0105   26.1745 C   0  0  0  0  0  0  0  0  0  0  0  0
  -26.9955  -14.2752   23.8281 C   0  0  0  0  0  0  0  0  0  0  0  0
  -27.6934  -21.4785   19.6049 C   0  0  0  0  0  0  0  0  0  0  0  0
  -27.9359  -33.9845   22.7684 C   0  0  1  0  0  0  0  0  0  0  0  0
  -25.0789  -31.7814   21.5779 C   0  0  1  0  0  0  0  0  0  0  0  0
  -27.6876  -24.2290   17.9325 C   0  0  1  0  0  0  0  0  0  0  0  0
  -27.4656  -12.8746   24.2534 C   0  0  2  0  0  0  0  0  0  0  0  0
  -29.7046  -16.3803   20.6164 C   0  0  0  0  0  0  0  0  0  0  0  0
  -28.9654  -21.4208   23.3413 C   0  0  0  0  0  0  0  0  0  0  0  0
  -31.3723  -21.3738   17.5620 C   0  0  0  0  0  0  0  0  0  0  0  0
  -19.5666  -28.3048   25.7648 C   0  0  0  0  0  0  0  0  0  0  0  0
  -25.7122  -30.7598   26.0406 C   0  0  0  0  0  0  0  0  0  0  0  0
  -23.8874  -29.4199   27.1098 C   0  0  0  0  0  0  0  0  0  0  0  0
  -23.5229  -31.8336   26.5961 C   0  0  0  0  0  0  0  0  0  0  0  0
  -19.7948  -28.4331   21.9691 C   0  0  0  0  0  0  0  0  0  0  0  0
  -29.9823  -21.3541   20.5893 C   0  0  0  0  0  0  0  0  0  0  0  0
  -27.2114  -25.6856   17.9512 C   0  0  0  0  0  0  0  0  0  1  0  0
  -23.5871  -30.1594   24.7027 C   0  0  1  0  0  0  0  0  0  0  0  0
  -20.0476  -28.8318   24.4218 C   0  0  2  0  0  0  0  0  0  0  0  0
  -24.1874  -30.5361   26.0866 C   0  0  0  0  0  0  0  0  0  0  0  0
  -25.9269  -11.1561   23.3813 N   0  0  0  0  0  0  0  0  0  0  0  0
  -27.0894  -11.8146   23.2352 N   0  0  0  0  0  0  0  0  0  0  0  0
  -24.6015  -30.7785   22.5321 N   0  0  0  0  0  0  0  0  0  0  0  0
  -27.3924  -15.2663   24.8405 N   0  0  0  0  0  0  0  0  0  0  0  0
  -29.0013  -11.9866   21.8475 N   0  0  0  0  0  0  0  0  0  0  0  0
  -27.0268  -10.2645   19.1037 N   0  0  0  0  0  0  0  0  0  0  0  0
  -28.7055  -16.5140   23.3301 N   0  0  0  0  0  0  0  0  0  0  0  0
  -26.6609  -33.4423   22.3504 N   0  0  0  0  0  0  0  0  0  0  0  0
  -22.1409  -29.9681   24.7108 N   0  0  0  0  0  0  0  0  0  0  0  0
  -29.1760  -21.5423   19.3280 N   0  3  2  0  0  0  0  0  0  0  0  0
  -19.4263  -28.0103   23.3448 N   0  3  0  0  0  0  0  0  0  0  0  0
  -28.0736   -8.6639   20.3689 O   0  0  0  0  0  0  0  0  0  0  0  0
  -27.3535  -31.2581   21.9352 O   0  0  0  0  0  0  0  0  0  0  0  0
  -23.4490  -32.3523   23.8093 O   0  0  0  0  0  0  0  0  0  0  0  0
  -22.1688  -27.7843   23.9314 O   0  0  0  0  0  0  0  0  0  0  0  0
  -28.4928  -17.1738   25.5439 O   0  0  0  0  0  0  0  0  0  0  0  0
  -21.6112   -6.8400   21.5669 O   0  0  0  0  0  0  0  0  0  0  0  0
  -26.8202  -26.0296   19.2798 O   0  0  0  0  0  0  0  0  0  1  0  0
  -21.2656   -2.4290   24.8574 F   0  0  0  0  0  0  0  0  0  0  0  0
  -21.6458   -4.2822   20.5185 F   0  0  0  0  0  0  0  0  0  0  0  0
  1  2  1  0  0  0  0
  1  5  2  0  0  0  0
  2  6  2  0  0  0  0
  3  8  2  0  0  0  0
  3 17  1  0  0  0  0
  4  9  1  0  0  0  0
  4 17  2  0  0  0  0
  5 19  1  0  0  0  0
  6 21  1  0  0  0  0
  7 10  2  0  0  0  0
  7 20  1  0  0  0  0
  8 27  1  0  0  0  0
  9 27  2  0  0  0  0
 10 28  1  0  0  0  0
 11 12  2  0  0  0  0
 11 29  1  0  0  0  0
 12 30  1  0  0  0  0
 13 22  1  0  0  0  0
 13 28  2  0  0  0  0
 14 23  1  0  0  0  0
 14 24  2  0  0  0  0
 15 25  1  0  0  0  0
 15 26  2  0  0  0  0
 16 30  2  0  0  0  0
 16 31  1  0  0  0  0
 17 32  1  0  0  0  0
 18 32  1  0  0  0  0
 18 33  2  0  0  0  0
 18 36  1  0  0  0  0
 19 21  2  0  0  0  0
 19 41  1  0  0  0  0
 20 22  2  0  0  0  0
 20 42  1  0  0  0  0
 21 54  1  0  0  0  0
 22 43  1  0  0  0  0
 23 25  2  0  0  0  0
 23 66  1  0  0  0  0
 24 26  1  0  0  0  0
 24 58  1  0  0  0  0
 25 59  1  0  0  0  0
 26 77  1  0  0  0  0
 27 87  1  0  0  0  0
 28 88  1  0  0  0  0
 29 31  2  0  0  0  0
 29 87  1  0  0  0  0
 30 89  1  0  0  0  0
 31 90  1  0  0  0  0
 32 71  2  0  0  0  0
 33 72  1  0  0  0  0
 33 75  1  0  0  0  0
 34 35  2  0  0  0  0
 34 44  1  0  0  0  0
 34 80  1  0  0  0  0
 35 60  1  0  0  0  0
 36 76  1  0  0  0  0
 36 82  2  0  0  0  0
 37 55  1  0  0  0  0
 37 78  1  0  0  0  0
 37 83  2  0  0  0  0
 38 68  1  0  0  0  0
 38 73  1  0  0  0  0
 38 84  2  0  0  0  0
 39 69  1  0  0  0  0
 39 79  1  0  0  0  0
 39 85  2  0  0  0  0
 40 74  1  0  0  0  0
 40 77  1  0  0  0  0
 40 86  2  0  0  0  0
 41 45  1  0  0  0  0
 42 55  1  0  0  0  0
 43 73  1  0  0  0  0
 44 56  1  0  0  0  0
 45 48  1  0  0  0  0
 46 50  1  0  0  0  0
 46 51  1  0  0  0  0
 47 49  1  0  0  0  0
 47 53  1  0  0  0  0
 48 54  1  0  0  0  0
 49 56  1  0  0  0  0
 50 57  1  0  0  0  0
 51 74  1  0  0  0  0
 52 57  1  0  0  0  0
 52 74  1  0  0  0  0
 53 80  1  0  0  0  0
 54 78  1  0  0  0  0
 55 73  1  0  0  0  0
 56 67  1  0  0  0  0
 57 72  1  0  0  0  0
 61 69  1  0  0  0  0
 62 70  1  0  0  0  0
 63 70  1  0  0  0  0
 64 70  1  0  0  0  0
 65 81  1  0  0  0  0
 66 80  1  0  0  0  0
 67 88  1  0  0  0  0
 68 70  1  0  0  0  0
 68 79  1  0  0  0  0
 69 81  1  0  0  0  0
 71 72  1  0  0  0  0
M  CHG  2  80   1  81   1
M  ISO  4  40 100  67 101  77 100  88 101
M  END
> <Batch ID>
0041

> <Smiles>
CC=C1CC([101CH2:1][101O:1]c2ccc3c(c2)CN(C(=O)C(NC(=O)C(C)NC)C(C)(C)C)C(C(=O)NC2CCCc4ccccc42)C3)CCCN1Cc1cc(C)c([100NH:0][100C:0](=O)N2CCCC(n3nc(-c4ccc(Oc5ccc(F)cc5F)cc4)c(C(N)=O)c3N)C2)cc1C

> <Shape>
0.271

> <Color>
0.081

> <Negative vol penalty>
0.000

$$$$

  -OEChem-04042322093D

 93102  0     1  0  0  0  0  0999 V2000
  -33.4255  -26.5383   16.5379 C   0  0  0  0  0  0  0  0  0  0  0  0
  -32.2904  -25.8926   17.0176 C   0  0  0  0  0  0  0  0  0  0  0  0
  -22.9287  -15.3027   21.3994 C   0  0  0  0  0  0  0  0  0  0  0  0
  -24.7817  -15.4256   22.9448 C   0  0  0  0  0  0  0  0  0  0  0  0
  -33.9566  -27.6224   17.2355 C   0  0  0  0  0  0  0  0  0  0  0  0
  -31.6864  -26.3300   18.1959 C   0  0  0  0  0  0  0  0  0  0  0  0
  -26.6450  -26.6092   17.8070 C   0  0  0  0  0  0  0  0  0  0  0  0
  -22.3238  -16.3849   22.0386 C   0  0  0  0  0  0  0  0  0  0  0  0
  -24.1768  -16.5078   23.5840 C   0  0  0  0  0  0  0  0  0  0  0  0
  -25.9325  -25.4140   17.8940 C   0  0  0  0  0  0  0  0  0  0  0  0
  -20.1202  -18.8879   23.4888 C   0  0  0  0  0  0  0  0  0  0  0  0
  -18.7561  -18.7995   23.7660 C   0  0  0  0  0  0  0  0  0  0  0  0
  -25.4115  -25.8993   20.1988 C   0  0  0  0  0  0  0  0  0  0  0  0
  -28.8059  -18.8030   19.8540 C   0  0  0  0  0  0  0  0  0  0  0  0
  -29.9522  -20.7161   20.7828 C   0  0  0  0  0  0  0  0  0  0  0  0
  -30.8745  -18.5010   21.0651 C   0  0  0  0  0  0  0  0  0  0  0  0
  -19.1592  -16.8438   25.1261 C   0  0  0  0  0  0  0  0  0  0  0  0
  -24.1576  -14.8230   21.8526 C   0  0  0  0  0  0  0  0  0  0  0  0
  -24.2615  -12.4054   21.0450 C   0  0  0  0  0  0  0  0  0  0  0  0
  -33.3532  -28.0793   18.4178 C   0  0  0  0  0  0  0  0  0  0  0  0
  -26.7554  -27.4547   18.9203 C   0  0  0  0  0  0  0  0  0  0  0  0
  -32.2107  -27.4204   18.9107 C   0  0  0  0  0  0  0  0  0  0  0  0
  -26.1238  -27.1059   20.1226 C   0  0  0  0  0  0  0  0  0  0  0  0
  -28.8806  -20.1791   20.0695 C   0  0  0  0  0  0  0  0  0  0  0  0
  -29.8029  -17.9640   20.3519 C   0  0  0  0  0  0  0  0  0  0  0  0
  -22.9479  -16.9875   23.1309 C   0  0  0  0  0  0  0  0  0  0  0  0
  -25.3180  -25.0575   19.0908 C   0  0  0  0  0  0  0  0  0  0  0  0
  -21.0039  -17.9542   24.0302 C   0  0  0  0  0  0  0  0  0  0  0  0
  -18.2755  -17.7775   24.5847 C   0  0  0  0  0  0  0  0  0  0  0  0
  -20.5233  -16.9322   24.8489 C   0  0  0  0  0  0  0  0  0  0  0  0
  -30.9492  -19.8771   21.2806 C   0  0  0  0  0  0  0  0  0  0  0  0
  -24.7827  -13.7048   21.1931 C   0  0  0  0  0  0  0  0  0  0  0  0
  -25.2311  -11.7236   20.3511 C   0  0  0  0  0  0  0  0  0  0  0  0
  -25.4544  -21.6333   19.4812 C   0  0  0  0  0  0  0  0  0  0  0  0
  -24.3695  -16.2027   12.9782 C   0  0  0  0  0  0  0  0  0  0  0  0
  -24.9105  -21.2055   18.3267 C   0  0  0  0  0  0  0  0  0  0  0  0
  -24.9098  -16.6282   14.1255 C   0  0  0  0  0  0  0  0  0  0  0  0
  -25.2782  -19.9628   17.6976 C   0  0  0  0  0  0  0  0  0  0  0  0
  -24.5477  -17.8751   14.7596 C   0  0  0  0  0  0  0  0  0  0  0  0
  -24.7315  -19.5430   16.5466 C   0  0  0  0  0  0  0  0  0  0  0  0
  -25.0942  -18.2951   15.9106 C   0  0  0  0  0  0  0  0  0  0  0  0
  -23.0126  -11.8633   21.4945 C   0  0  0  0  0  0  0  0  0  0  0  0
  -29.1678  -28.5362   20.6851 C   0  0  0  0  0  0  0  0  0  0  0  0
  -26.8396  -30.3134   22.0792 C   0  0  0  0  0  0  0  0  0  0  0  0
  -23.4373  -29.8082   23.1684 C   0  0  0  0  0  0  0  0  0  0  0  0
  -28.7341  -15.8591   19.4483 C   0  0  0  0  0  0  0  0  0  0  0  0
  -33.9911  -29.2253   19.1624 C   0  0  0  0  0  0  0  0  0  0  0  0
  -27.5050  -28.7533   18.8025 C   0  0  0  0  0  0  0  0  0  0  0  0
  -26.1952  -27.9885   21.3410 C   0  0  0  0  0  0  0  0  0  0  0  0
  -33.0730  -29.8622   20.2024 C   0  0  0  0  0  0  0  0  0  0  0  0
  -24.3247  -21.9602   22.4066 C   0  0  0  0  0  0  0  0  0  0  0  0
  -30.0154  -12.2595   19.9657 C   0  0  0  0  0  0  0  0  0  0  0  0
  -25.0229  -20.6193   22.1748 C   0  0  0  0  0  0  0  0  0  0  0  0
  -32.3913  -28.7870   21.0427 C   0  0  0  0  0  0  0  0  0  0  0  0
  -23.9328  -22.7266   21.1453 C   0  0  0  0  0  0  0  0  0  0  0  0
  -28.6173  -11.7938   20.3524 C   0  0  0  0  0  0  0  0  0  0  0  0
  -30.1001  -13.7824   20.0214 C   0  0  0  0  0  0  0  0  0  0  0  0
  -28.0325  -13.6170   18.6322 C   0  0  0  0  0  0  0  0  0  0  0  0
  -26.4262  -20.7692   21.5916 C   0  0  0  0  0  0  0  0  0  0  0  0
  -31.5126  -27.8809   20.1719 C   0  0  1  0  0  0  0  0  0  0  0  0
  -25.0712  -22.9369   20.1446 C   0  0  2  0  0  0  0  0  0  1  0  0
  -27.9847  -29.2905   20.1474 C   0  0  1  0  0  0  0  0  0  0  0  0
  -27.5466  -12.3752   19.4076 C   0  0  2  0  0  0  0  0  0  0  0  0
  -21.5423  -31.4358   23.4082 C   0  0  0  0  0  0  0  0  0  0  0  0
  -27.7654  -30.5192   24.9793 C   0  0  0  0  0  0  0  0  0  0  0  0
  -25.3607  -30.6404   25.6653 C   0  0  0  0  0  0  0  0  0  0  0  0
  -26.3303  -32.4154   24.2053 C   0  0  0  0  0  0  0  0  0  0  0  0
  -21.6769  -28.1942   21.4207 C   0  0  0  0  0  0  0  0  0  0  0  0
  -27.8079  -21.0814   19.5346 C   0  0  0  0  0  0  0  0  0  0  0  0
  -25.8976  -30.1181   23.2425 C   0  0  1  0  0  0  0  0  0  0  0  0
  -22.1839  -30.3755   22.5268 C   0  0  2  0  0  0  0  0  0  0  0  0
  -26.3481  -30.9012   24.5079 C   0  0  0  0  0  0  0  0  0  0  0  0
  -25.9897  -13.8426   20.6380 N   0  0  0  0  0  0  0  0  0  0  0  0
  -26.2351  -12.6210   20.1345 N   0  0  0  0  0  0  0  0  0  0  0  0
  -26.9451  -29.2449   21.1776 N   0  0  0  0  0  0  0  0  0  0  0  0
  -28.9490  -14.4587   19.4055 N   0  0  0  0  0  0  0  0  0  0  0  0
  -25.3143  -10.4500   19.9113 N   0  0  0  0  0  0  0  0  0  0  0  0
  -22.9575  -11.2782   22.7669 N   0  0  0  0  0  0  0  0  0  0  0  0
  -29.7264  -16.5652   20.1336 N   0  0  0  0  0  0  0  0  0  0  0  0
  -30.2675  -28.5440   19.8484 N   0  0  0  0  0  0  0  0  0  0  0  0
  -24.5698  -30.4790   22.7577 N   0  0  0  0  0  0  0  0  0  0  0  0
  -26.4390  -20.7607   20.0811 N   0  3  2  0  0  0  0  0  0  0  0  0
  -21.1868  -29.2931   22.2920 N   0  3  0  0  0  0  0  0  0  0  0  0
  -21.9803  -11.8820   20.7821 O   0  0  0  0  0  0  0  0  0  0  0  0
  -29.0892  -27.9890   21.7787 O   0  0  0  0  0  0  0  0  0  0  0  0
  -27.4537  -31.3777   21.9704 O   0  0  0  0  0  0  0  0  0  0  0  0
  -23.4137  -28.8668   23.9582 O   0  0  0  0  0  0  0  0  0  0  0  0
  -27.7519  -16.3802   18.9158 O   0  0  0  0  0  0  0  0  0  0  0  0
  -22.3580  -18.0437   23.7547 O   0  0  0  0  0  0  0  0  0  0  0  0
  -24.6225  -23.8911   19.1786 O   0  0  0  0  0  0  0  0  0  1  0  0
  -16.9657  -17.6937   24.8520 F   0  0  0  0  0  0  0  0  0  0  0  0
  -21.3675  -16.0329   25.3728 F   0  0  0  0  0  0  0  0  0  0  0  0
  -32.2705  -20.5394   22.1624 Cl  0  0  0  0  0  0  0  0  0  0  0  0
  1  2  1  0  0  0  0
  1  5  2  0  0  0  0
  2  6  2  0  0  0  0
  3  8  2  0  0  0  0
  3 18  1  0  0  0  0
  4  9  1  0  0  0  0
  4 18  2  0  0  0  0
  5 20  1  0  0  0  0
  6 22  1  0  0  0  0
  7 10  2  0  0  0  0
  7 21  1  0  0  0  0
  8 26  1  0  0  0  0
  9 26  2  0  0  0  0
 10 27  1  0  0  0  0
 11 12  2  0  0  0  0
 11 28  1  0  0  0  0
 12 29  1  0  0  0  0
 13 23  1  0  0  0  0
 13 27  2  0  0  0  0
 14 24  2  0  0  0  0
 14 25  1  0  0  0  0
 15 24  1  0  0  0  0
 15 31  2  0  0  0  0
 16 25  2  0  0  0  0
 16 31  1  0  0  0  0
 17 29  2  0  0  0  0
 17 30  1  0  0  0  0
 18 32  1  0  0  0  0
 19 32  1  0  0  0  0
 19 33  2  0  0  0  0
 19 42  1  0  0  0  0
 20 22  2  0  0  0  0
 20 47  1  0  0  0  0
 21 23  2  0  0  0  0
 21 48  1  0  0  0  0
 22 60  1  0  0  0  0
 23 49  1  0  0  0  0
 24 69  1  0  0  0  0
 25 79  1  0  0  0  0
 26 89  1  0  0  0  0
 27 90  1  0  0  0  0
 28 30  2  0  0  0  0
 28 89  1  0  0  0  0
 29 91  1  0  0  0  0
 30 92  1  0  0  0  0
 31 93  1  0  0  0  0
 32 73  2  0  0  0  0
 33 74  1  0  0  0  0
 33 77  1  0  0  0  0
 34 36  2  0  0  0  0
 34 61  1  0  0  0  0
 34 82  1  0  0  0  0
 35 37  2  0  0  0  0
 36 38  1  0  0  0  0
 37 39  1  0  0  0  0
 38 40  2  0  0  0  0
 39 41  2  0  0  0  0
 40 41  1  0  0  0  0
 42 78  1  0  0  0  0
 42 84  2  0  0  0  0
 43 62  1  0  0  0  0
 43 80  1  0  0  0  0
 43 85  2  0  0  0  0
 44 70  1  0  0  0  0
 44 75  1  0  0  0  0
 44 86  2  0  0  0  0
 45 71  1  0  0  0  0
 45 81  1  0  0  0  0
 45 87  2  0  0  0  0
 46 76  1  0  0  0  0
 46 79  1  0  0  0  0
 46 88  2  0  0  0  0
 47 50  1  0  0  0  0
 48 62  1  0  0  0  0
 49 75  1  0  0  0  0
 50 54  1  0  0  0  0
 51 53  1  0  0  0  0
 51 55  1  0  0  0  0
 52 56  1  0  0  0  0
 52 57  1  0  0  0  0
 53 59  1  0  0  0  0
 54 60  1  0  0  0  0
 55 61  1  0  0  0  0
 56 63  1  0  0  0  0
 57 76  1  0  0  0  0
 58 63  1  0  0  0  0
 58 76  1  0  0  0  0
 59 82  1  0  0  0  0
 60 80  1  0  0  0  0
 61 90  1  0  0  0  0
 62 75  1  0  0  0  0
 63 74  1  0  0  0  0
 64 71  1  0  0  0  0
 65 72  1  0  0  0  0
 66 72  1  0  0  0  0
 67 72  1  0  0  0  0
 68 83  1  0  0  0  0
 69 82  1  0  0  0  0
 70 72  1  0  0  0  0
 70 81  1  0  0  0  0
 71 83  1  0  0  0  0
 73 74  1  0  0  0  0
M  CHG  2  82   1  83   1
M  ISO  4  46 100  61 101  79 100  90 101
M  END
> <Batch ID>
0041

> <Smiles>
C=CC=CC=CC=C1N(Cc2cc(Cl)cc([100NH:0][100C:0](=O)N3CCCC(n4nc(-c5ccc(Oc6ccc(F)cc6F)cc5)c(C(N)=O)c4N)C3)c2)CCCC[101CH:1]1[101O:1]c1ccc2c(c1)CN(C(=O)C(NC(=O)C(C)NC)C(C)(C)C)C(C(=O)NC1CCCc3ccccc31)C2

> <Shape>
0.246

> <Color>
0.090

> <Negative vol penalty>
0.000

$$$$

  -OEChem-04042322093D

 83 91  0     1  0  0  0  0  0999 V2000
  -23.1885   -8.6920   21.9071 C   0  0  0  0  0  0  0  0  0  0  0  0
  -24.3818   -9.4071   21.8957 C   0  0  0  0  0  0  0  0  0  0  0  0
  -22.0801  -27.7387   21.0333 C   0  0  0  0  0  0  0  0  0  0  0  0
  -23.4145  -27.3580   23.0111 C   0  0  0  0  0  0  0  0  0  0  0  0
  -22.1365   -9.0802   21.0785 C   0  0  0  0  0  0  0  0  0  0  0  0
  -24.5241  -10.5103   21.0548 C   0  0  0  0  0  0  0  0  0  0  0  0
  -27.6842  -15.6294   22.2009 C   0  0  0  0  0  0  0  0  0  0  0  0
  -20.9210  -27.7023   21.8084 C   0  0  0  0  0  0  0  0  0  0  0  0
  -22.2554  -27.3217   23.7862 C   0  0  0  0  0  0  0  0  0  0  0  0
  -28.9604  -16.0476   21.8264 C   0  0  0  0  0  0  0  0  0  0  0  0
  -19.2470  -29.7802   23.8851 C   0  0  0  0  0  0  0  0  0  0  0  0
  -18.2847  -30.7643   23.6588 C   0  0  0  0  0  0  0  0  0  0  0  0
  -28.0109  -17.2654   19.9732 C   0  0  0  0  0  0  0  0  0  0  0  0
  -33.1798  -21.5502   18.9395 C   0  0  0  0  0  0  0  0  0  0  0  0
  -33.8183  -23.7107   19.8122 C   0  0  0  0  0  0  0  0  0  0  0  0
  -34.6320  -21.6941   20.8650 C   0  0  0  0  0  0  0  0  0  0  0  0
  -16.6715  -29.0569   23.0935 C   0  0  0  0  0  0  0  0  0  0  0  0
  -23.3269  -27.5665   21.6347 C   0  0  0  0  0  0  0  0  0  0  0  0
  -25.3058  -28.7329   20.5251 C   0  0  0  0  0  0  0  0  0  0  0  0
  -22.2626  -10.1945   20.2341 C   0  0  0  0  0  0  0  0  0  0  0  0
  -26.5610  -16.0178   21.4567 C   0  0  0  0  0  0  0  0  0  0  0  0
  -23.4733  -10.9130   20.2131 C   0  0  0  0  0  0  0  0  0  0  0  0
  -26.7213  -16.8529   20.3418 C   0  0  0  0  0  0  0  0  0  0  0  0
  -33.1214  -22.9426   18.8795 C   0  0  0  0  0  0  0  0  0  0  0  0
  -33.9351  -20.9260   19.9323 C   0  0  0  0  0  0  0  0  0  0  0  0
  -21.0086  -27.4939   23.1848 C   0  0  0  0  0  0  0  0  0  0  0  0
  -29.1242  -16.8634   20.7107 C   0  0  0  0  0  0  0  0  0  0  0  0
  -18.9215  -28.4345   23.7156 C   0  0  0  0  0  0  0  0  0  0  0  0
  -16.9970  -30.4027   23.2630 C   0  0  0  0  0  0  0  0  0  0  0  0
  -17.6338  -28.0728   23.3198 C   0  0  0  0  0  0  0  0  0  0  0  0
  -34.5736  -23.0865   20.8050 C   0  0  0  0  0  0  0  0  0  0  0  0
  -24.5246  -27.6033   20.8345 C   0  0  0  0  0  0  0  0  0  0  0  0
  -26.3242  -28.2427   19.7447 C   0  0  0  0  0  0  0  0  0  0  0  0
  -25.1270  -30.1027   20.9089 C   0  0  0  0  0  0  0  0  0  0  0  0
  -24.3352  -14.4807   19.7873 C   0  0  0  0  0  0  0  0  0  0  0  0
  -23.0260  -17.4390   19.5482 C   0  0  0  0  0  0  0  0  0  0  0  0
  -23.4781  -20.8210   19.6112 C   0  0  0  0  0  0  0  0  0  0  0  0
  -30.2355  -24.5317   18.8081 C   0  0  0  0  0  0  0  0  0  0  0  0
  -21.1148  -10.5476   19.3217 C   0  0  0  0  0  0  0  0  0  0  0  0
  -25.1885  -15.5801   21.8895 C   0  0  0  0  0  0  0  0  0  0  0  0
  -25.5458  -17.3145   19.5211 C   0  0  0  0  0  0  0  0  0  0  0  0
  -21.2136  -11.9531   18.7343 C   0  0  0  0  0  0  0  0  0  0  0  0
  -26.9303  -23.7081   17.5856 C   0  0  0  0  0  0  0  0  0  0  0  0
  -22.6208  -12.2131   18.2060 C   0  0  0  0  0  0  0  0  0  0  0  0
  -26.0718  -24.7510   18.3036 C   0  0  0  0  0  0  0  0  0  0  0  0
  -28.0591  -23.2088   18.4826 C   0  0  0  0  0  0  0  0  0  0  0  0
  -28.0818  -25.3274   19.7414 C   0  0  0  0  0  0  0  0  0  0  0  0
  -23.6573  -12.1302   19.3330 C   0  0  1  0  0  0  0  0  0  0  0  0
  -24.1658  -15.6150   20.7580 C   0  0  1  0  0  0  0  0  0  0  0  0
  -26.9363  -25.8882   18.8793 C   0  0  2  0  0  0  0  0  0  0  0  0
  -22.2282  -22.9808   19.3460 C   0  0  0  0  0  0  0  0  0  0  0  0
  -22.9745  -17.0351   16.5243 C   0  0  0  0  0  0  0  0  0  0  0  0
  -22.6323  -19.5022   16.2707 C   0  0  0  0  0  0  0  0  0  0  0  0
  -20.9302  -18.1252   17.4662 C   0  0  0  0  0  0  0  0  0  0  0  0
  -24.1317  -21.6722   22.3693 C   0  0  0  0  0  0  0  0  0  0  0  0
  -32.3148  -23.6094   17.8167 C   0  0  0  0  0  0  0  0  0  0  0  0
  -33.9985  -19.4283   19.9948 C   0  0  0  0  0  0  0  0  0  0  0  0
  -32.7638  -17.3295   20.5507 C   0  0  0  0  0  0  0  0  0  0  0  0
  -31.4622  -16.8283   21.1448 C   0  0  0  0  0  0  0  0  0  1  0  0
  -23.1527  -18.5890   18.5785 C   0  0  1  0  0  0  0  0  0  0  0  0
  -22.7196  -21.9256   20.3247 C   0  0  2  0  0  0  0  0  0  0  0  0
  -22.4450  -18.3028   17.2240 C   0  0  0  0  0  0  0  0  0  0  0  0
  -25.0054  -26.4803   20.2946 N   0  0  0  0  0  0  0  0  0  0  0  0
  -26.0996  -26.9016   19.6379 N   0  0  0  0  0  0  0  0  0  0  0  0
  -24.2249  -16.8546   19.9808 N   0  0  0  0  0  0  0  0  0  0  0  0
  -28.8549  -24.3389   18.9822 N   0  0  0  0  0  0  0  0  0  0  0  0
  -27.3809  -28.8322   19.1461 N   0  0  0  0  0  0  0  0  0  0  0  0
  -24.0278  -30.4331   21.7132 N   0  0  0  0  0  0  0  0  0  0  0  0
  -23.6362  -13.3387   20.1289 N   0  0  0  0  0  0  0  0  0  0  0  0
  -22.6527  -19.7685   19.2765 N   0  0  0  0  0  0  0  0  0  0  0  0
  -30.8950  -23.5465   18.0834 N   0  0  0  0  0  0  0  0  0  0  0  0
  -23.5960  -22.5894   21.3307 N   0  3  0  0  0  0  0  0  0  0  0  0
  -32.7545  -18.8140   20.5323 N   0  3  0  0  0  0  0  0  0  0  0  0
  -25.9093  -31.0094   20.5357 O   0  0  0  0  0  0  0  0  0  0  0  0
  -25.0462  -14.6310   18.8006 O   0  0  0  0  0  0  0  0  0  0  0  0
  -21.9049  -17.0772   19.9142 O   0  0  0  0  0  0  0  0  0  0  0  0
  -24.6817  -20.8871   19.3712 O   0  0  0  0  0  0  0  0  0  0  0  0
  -30.8357  -25.5125   19.2607 O   0  0  0  0  0  0  0  0  0  0  0  0
  -19.8778  -27.4586   23.9414 O   0  0  0  0  0  0  0  0  0  0  0  0
  -30.3688  -17.2725   20.3426 O   0  0  0  0  0  0  0  0  0  1  0  0
  -16.0726  -31.3477   23.0471 F   0  0  0  0  0  0  0  0  0  0  0  0
  -17.3150  -26.7815   23.1564 F   0  0  0  0  0  0  0  0  0  0  0  0
  -35.4325  -24.0343   21.9566 Cl  0  0  0  0  0  0  0  0  0  0  0  0
  1  2  1  0  0  0  0
  1  5  2  0  0  0  0
  2  6  2  0  0  0  0
  3  8  2  0  0  0  0
  3 18  1  0  0  0  0
  4  9  1  0  0  0  0
  4 18  2  0  0  0  0
  5 20  1  0  0  0  0
  6 22  1  0  0  0  0
  7 10  2  0  0  0  0
  7 21  1  0  0  0  0
  8 26  1  0  0  0  0
  9 26  2  0  0  0  0
 10 27  1  0  0  0  0
 11 12  2  0  0  0  0
 11 28  1  0  0  0  0
 12 29  1  0  0  0  0
 13 23  1  0  0  0  0
 13 27  2  0  0  0  0
 14 24  1  0  0  0  0
 14 25  2  0  0  0  0
 15 24  2  0  0  0  0
 15 31  1  0  0  0  0
 16 25  1  0  0  0  0
 16 31  2  0  0  0  0
 17 29  2  0  0  0  0
 17 30  1  0  0  0  0
 18 32  1  0  0  0  0
 19 32  1  0  0  0  0
 19 33  2  0  0  0  0
 19 34  1  0  0  0  0
 20 22  2  0  0  0  0
 20 39  1  0  0  0  0
 21 23  2  0  0  0  0
 21 40  1  0  0  0  0
 22 48  1  0  0  0  0
 23 41  1  0  0  0  0
 24 56  1  0  0  0  0
 25 57  1  0  0  0  0
 26 79  1  0  0  0  0
 27 80  1  0  0  0  0
 28 30  2  0  0  0  0
 28 79  1  0  0  0  0
 29 81  1  0  0  0  0
 30 82  1  0  0  0  0
 31 83  1  0  0  0  0
 32 63  2  0  0  0  0
 33 64  1  0  0  0  0
 33 67  1  0  0  0  0
 34 68  1  0  0  0  0
 34 74  2  0  0  0  0
 35 49  1  0  0  0  0
 35 69  1  0  0  0  0
 35 75  2  0  0  0  0
 36 60  1  0  0  0  0
 36 65  1  0  0  0  0
 36 76  2  0  0  0  0
 37 61  1  0  0  0  0
 37 70  1  0  0  0  0
 37 77  2  0  0  0  0
 38 66  1  0  0  0  0
 38 71  1  0  0  0  0
 38 78  2  0  0  0  0
 39 42  1  0  0  0  0
 40 49  1  0  0  0  0
 41 65  1  0  0  0  0
 42 44  1  0  0  0  0
 43 45  1  0  0  0  0
 43 46  1  0  0  0  0
 44 48  1  0  0  0  0
 45 50  1  0  0  0  0
 46 66  1  0  0  0  0
 47 50  1  0  0  0  0
 47 66  1  0  0  0  0
 48 69  1  0  0  0  0
 49 65  1  0  0  0  0
 50 64  1  0  0  0  0
 51 61  1  0  0  0  0
 52 62  1  0  0  0  0
 53 62  1  0  0  0  0
 54 62  1  0  0  0  0
 55 72  1  0  0  0  0
 56 71  1  0  0  0  0
 57 73  1  0  0  0  0
 58 59  1  0  0  0  0
 58 73  1  0  0  0  0
 59 80  1  0  0  0  0
 60 62  1  0  0  0  0
 60 70  1  0  0  0  0
 61 72  1  0  0  0  0
 63 64  1  0  0  0  0
M  CHG  2  72   1  73   1
M  ISO  4  38 100  59 101  71 100  80 101
M  END
> <Batch ID>
0041

> <Smiles>
CNC(C)C(=O)NC(C(=O)N1Cc2cc([101O:1][101CH2:1]CNCc3cc(Cl)cc(C[100NH:0][100C:0](=O)N4CCCC(n5nc(-c6ccc(Oc7ccc(F)cc7F)cc6)c(C(N)=O)c5N)C4)c3)ccc2CC1C(=O)NC1CCCc2ccccc21)C(C)(C)C

> <Shape>
0.230

> <Color>
0.074

> <Negative vol penalty>
0.000

$$$$

  -OEChem-04042322093D

 89 98  0     1  0  0  0  0  0999 V2000
  -41.6060  -28.4970   21.8789 C   0  0  0  0  0  0  0  0  0  0  0  0
  -40.4660  -27.7059   21.7795 C   0  0  0  0  0  0  0  0  0  0  0  0
  -22.6694  -10.1957   20.1642 C   0  0  0  0  0  0  0  0  0  0  0  0
  -24.3217   -9.4123   21.7432 C   0  0  0  0  0  0  0  0  0  0  0  0
  -41.5866  -29.6504   22.6620 C   0  0  0  0  0  0  0  0  0  0  0  0
  -39.3062  -28.0671   22.4641 C   0  0  0  0  0  0  0  0  0  0  0  0
  -33.5284  -27.2493   20.6055 C   0  0  0  0  0  0  0  0  0  0  0  0
  -31.3495  -19.0316   20.8750 C   0  0  0  0  0  0  0  0  0  0  0  0
  -31.1681  -17.6510   20.7932 C   0  0  0  0  0  0  0  0  0  0  0  0
  -21.9343   -9.0254   20.3527 C   0  0  0  0  0  0  0  0  0  0  0  0
  -23.5865   -8.2420   21.9318 C   0  0  0  0  0  0  0  0  0  0  0  0
  -32.5758  -26.2762   20.9044 C   0  0  0  0  0  0  0  0  0  0  0  0
  -20.8388   -7.2774   23.6465 C   0  0  0  0  0  0  0  0  0  0  0  0
  -20.6541   -6.8339   24.9560 C   0  0  0  0  0  0  0  0  0  0  0  0
  -31.6365  -27.7224   22.5912 C   0  0  0  0  0  0  0  0  0  0  0  0
  -21.7763   -4.7643   24.4133 C   0  0  0  0  0  0  0  0  0  0  0  0
  -23.8631  -10.3892   20.8594 C   0  0  0  0  0  0  0  0  0  0  0  0
  -24.1979  -12.9177   20.9065 C   0  0  0  0  0  0  0  0  0  0  0  0
  -40.4230  -30.0312   23.3489 C   0  0  0  0  0  0  0  0  0  0  0  0
  -33.5490  -28.4640   21.3060 C   0  0  0  0  0  0  0  0  0  0  0  0
  -39.2716  -29.2260   23.2582 C   0  0  0  0  0  0  0  0  0  0  0  0
  -32.5888  -28.7103   22.2976 C   0  0  0  0  0  0  0  0  0  0  0  0
  -30.6515  -19.7714   21.8296 C   0  0  0  0  0  0  0  0  0  0  0  0
  -29.7720  -19.1306   22.7022 C   0  0  0  0  0  0  0  0  0  0  0  0
  -29.5905  -17.7500   22.6204 C   0  0  0  0  0  0  0  0  0  0  0  0
  -30.2886  -17.0102   21.6658 C   0  0  0  0  0  0  0  0  0  0  0  0
  -22.3928   -8.0486   21.2365 C   0  0  0  0  0  0  0  0  0  0  0  0
  -31.6314  -26.5114   21.8994 C   0  0  0  0  0  0  0  0  0  0  0  0
  -21.4923   -6.4644   22.7204 C   0  0  0  0  0  0  0  0  0  0  0  0
  -21.1228   -5.5773   25.3394 C   0  0  0  0  0  0  0  0  0  0  0  0
  -21.9610   -5.2079   23.1038 C   0  0  0  0  0  0  0  0  0  0  0  0
  -24.6232  -11.5977   20.6646 C   0  0  0  0  0  0  0  0  0  0  0  0
  -25.2788  -13.6943   20.5670 C   0  0  0  0  0  0  0  0  0  0  0  0
  -22.9385  -13.3989   21.3944 C   0  0  0  0  0  0  0  0  0  0  0  0
  -35.6447  -29.9293   23.1940 C   0  0  0  0  0  0  0  0  0  0  0  0
  -33.4896  -32.3496   23.0541 C   0  0  0  0  0  0  0  0  0  0  0  0
  -30.2615  -33.3282   22.5355 C   0  0  0  0  0  0  0  0  0  0  0  0
  -30.7462  -14.7433   20.6667 C   0  0  0  0  0  0  0  0  0  0  0  0
  -40.4644  -31.2610   24.2209 C   0  0  0  0  0  0  0  0  0  0  0  0
  -34.5665  -29.5141   20.9532 C   0  0  0  0  0  0  0  0  0  0  0  0
  -32.5554  -30.0060   23.0648 C   0  0  0  0  0  0  0  0  0  0  0  0
  -39.0821  -31.7753   24.6146 C   0  0  0  0  0  0  0  0  0  0  0  0
  -26.3493  -22.7503   20.6585 C   0  0  0  0  0  0  0  0  0  0  0  0
  -27.1340  -21.7727   19.7817 C   0  0  0  0  0  0  0  0  0  0  0  0
  -27.0209  -23.2091   21.9547 C   0  0  0  0  0  0  0  0  0  0  0  0
  -29.5714  -12.4965   18.1669 C   0  0  0  0  0  0  0  0  0  0  0  0
  -28.4001  -22.3559   19.1507 C   0  0  0  0  0  0  0  0  0  0  0  0
  -38.1984  -30.6245   25.0853 C   0  0  0  0  0  0  0  0  0  0  0  0
  -28.1444  -12.1710   18.6138 C   0  0  0  0  0  0  0  0  0  0  0  0
  -28.2444  -24.1042   21.7460 C   0  0  0  0  0  0  0  0  0  0  0  0
  -30.5184  -12.6442   19.3565 C   0  0  0  0  0  0  0  0  0  0  0  0
  -28.6486  -13.2644   20.8358 C   0  0  0  0  0  0  0  0  0  0  0  0
  -29.7093  -21.9399   19.8123 C   0  0  0  0  0  0  0  0  0  0  0  0
  -37.9867  -29.5980   23.9660 C   0  0  1  0  0  0  0  0  0  0  0  0
  -34.8151  -30.5085   22.0832 C   0  0  1  0  0  0  0  0  0  0  0  0
  -27.6445  -13.1703   19.6754 C   0  0  2  0  0  0  0  0  0  0  0  0
  -29.6169  -23.4371   21.9351 C   0  0  2  0  0  0  0  0  0  0  0  0
  -29.0248  -19.9267   23.7251 C   0  0  0  0  0  0  0  0  0  0  0  0
  -28.6462  -17.0643   23.5579 C   0  0  0  0  0  0  0  0  0  0  0  0
  -28.7983  -35.3669   22.5270 C   0  0  0  0  0  0  0  0  0  0  0  0
  -33.4923  -32.3614   26.1053 C   0  0  0  0  0  0  0  0  0  0  0  0
  -31.3778  -33.6999   26.0326 C   0  0  0  0  0  0  0  0  0  0  0  0
  -33.4750  -34.6302   25.0533 C   0  0  0  0  0  0  0  0  0  0  0  0
  -29.5728  -32.9642   19.6803 C   0  0  0  0  0  0  0  0  0  0  0  0
  -30.8652  -21.2549   21.8962 C   0  0  0  0  0  0  0  0  0  0  0  0
  -30.7418  -24.3517   21.4520 C   0  0  0  0  0  0  0  0  0  1  0  0
  -32.2777  -32.7500   23.8603 C   0  0  1  0  0  0  0  0  0  0  0  0
  -29.6700  -34.4426   21.6913 C   0  0  2  0  0  0  0  0  0  0  0  0
  -32.6572  -33.3351   25.2499 C   0  0  0  0  0  0  0  0  0  0  0  0
  -25.8764  -11.5354   20.2067 N   0  0  0  0  0  0  0  0  0  0  0  0
  -26.2478  -12.8260   20.1581 N   0  0  0  0  0  0  0  0  0  0  0  0
  -33.5748  -30.9990   22.6876 N   0  0  0  0  0  0  0  0  0  0  0  0
  -29.9820  -13.6095   20.3183 N   0  0  0  0  0  0  0  0  0  0  0  0
  -25.4852  -15.0283   20.5813 N   0  0  0  0  0  0  0  0  0  0  0  0
  -22.7702  -13.5461   22.7780 N   0  0  0  0  0  0  0  0  0  0  0  0
  -30.1199  -15.6070   21.5648 N   0  0  0  0  0  0  0  0  0  0  0  0
  -37.0068  -30.0803   23.0166 N   0  0  0  0  0  0  0  0  0  0  0  0
  -31.5097  -33.6606   23.0181 N   0  0  0  0  0  0  0  0  0  0  0  0
  -29.7085  -22.0489   21.3177 N   0  3  2  0  0  0  0  0  0  0  0  0
  -28.8361  -33.8746   20.5944 N   0  3  0  0  0  0  0  0  0  0  0  0
  -21.9850  -13.6740   20.6272 O   0  0  0  0  0  0  0  0  0  0  0  0
  -35.0901  -29.3868   24.1426 O   0  0  0  0  0  0  0  0  0  0  0  0
  -34.3260  -33.2052   22.7542 O   0  0  0  0  0  0  0  0  0  0  0  0
  -29.6734  -32.2703   22.7489 O   0  0  0  0  0  0  0  0  0  0  0  0
  -31.8619  -14.9479   20.1818 O   0  0  0  0  0  0  0  0  0  0  0  0
  -21.6756   -6.9065   21.4209 O   0  0  0  0  0  0  0  0  0  0  0  0
  -30.6922  -25.5542   22.1963 O   0  0  0  0  0  0  0  0  0  1  0  0
  -20.9467   -5.1522   26.5973 F   0  0  0  0  0  0  0  0  0  0  0  0
  -22.5906   -4.4228   22.2188 F   0  0  0  0  0  0  0  0  0  0  0  0
  1  2  1  0  0  0  0
  1  5  2  0  0  0  0
  2  6  2  0  0  0  0
  3 10  2  0  0  0  0
  3 17  1  0  0  0  0
  4 11  1  0  0  0  0
  4 17  2  0  0  0  0
  5 19  1  0  0  0  0
  6 21  1  0  0  0  0
  7 12  2  0  0  0  0
  7 20  1  0  0  0  0
  8  9  2  0  0  0  0
  8 23  1  0  0  0  0
  9 26  1  0  0  0  0
 10 27  1  0  0  0  0
 11 27  2  0  0  0  0
 12 28  1  0  0  0  0
 13 14  2  0  0  0  0
 13 29  1  0  0  0  0
 14 30  1  0  0  0  0
 15 22  1  0  0  0  0
 15 28  2  0  0  0  0
 16 30  2  0  0  0  0
 16 31  1  0  0  0  0
 17 32  1  0  0  0  0
 18 32  1  0  0  0  0
 18 33  2  0  0  0  0
 18 34  1  0  0  0  0
 19 21  2  0  0  0  0
 19 39  1  0  0  0  0
 20 22  2  0  0  0  0
 20 40  1  0  0  0  0
 21 54  1  0  0  0  0
 22 41  1  0  0  0  0
 23 24  2  0  0  0  0
 23 65  1  0  0  0  0
 24 25  1  0  0  0  0
 24 58  1  0  0  0  0
 25 26  2  0  0  0  0
 25 59  1  0  0  0  0
 26 76  1  0  0  0  0
 27 86  1  0  0  0  0
 28 87  1  0  0  0  0
 29 31  2  0  0  0  0
 29 86  1  0  0  0  0
 30 88  1  0  0  0  0
 31 89  1  0  0  0  0
 32 70  2  0  0  0  0
 33 71  1  0  0  0  0
 33 74  1  0  0  0  0
 34 75  1  0  0  0  0
 34 81  2  0  0  0  0
 35 55  1  0  0  0  0
 35 77  1  0  0  0  0
 35 82  2  0  0  0  0
 36 67  1  0  0  0  0
 36 72  1  0  0  0  0
 36 83  2  0  0  0  0
 37 68  1  0  0  0  0
 37 78  1  0  0  0  0
 37 84  2  0  0  0  0
 38 73  1  0  0  0  0
 38 76  1  0  0  0  0
 38 85  2  0  0  0  0
 39 42  1  0  0  0  0
 40 55  1  0  0  0  0
 41 72  1  0  0  0  0
 42 48  1  0  0  0  0
 43 44  1  0  0  0  0
 43 45  1  0  0  0  0
 44 47  1  0  0  0  0
 45 50  1  0  0  0  0
 46 49  1  0  0  0  0
 46 51  1  0  0  0  0
 47 53  1  0  0  0  0
 48 54  1  0  0  0  0
 49 56  1  0  0  0  0
 50 57  1  0  0  0  0
 51 73  1  0  0  0  0
 52 56  1  0  0  0  0
 52 73  1  0  0  0  0
 53 79  1  0  0  0  0
 54 77  1  0  0  0  0
 55 72  1  0  0  0  0
 56 71  1  0  0  0  0
 57 66  1  0  0  0  0
 57 79  1  0  0  0  0
 60 68  1  0  0  0  0
 61 69  1  0  0  0  0
 62 69  1  0  0  0  0
 63 69  1  0  0  0  0
 64 80  1  0  0  0  0
 65 79  1  0  0  0  0
 66 87  1  0  0  0  0
 67 69  1  0  0  0  0
 67 78  1  0  0  0  0
 68 80  1  0  0  0  0
 70 71  1  0  0  0  0
M  CHG  2  79   1  80   1
M  ISO  4  38 100  66 101  76 100  87 101
M  END
> <Batch ID>
0041

> <Smiles>
CNC(C)C(=O)NC(C(=O)N1Cc2cc([101O:1][101CH2:1]C3CCCCCCN3Cc3ccc([100NH:0][100C:0](=O)N4CCCC(n5nc(-c6ccc(Oc7ccc(F)cc7F)cc6)c(C(N)=O)c5N)C4)c(C)c3C)ccc2CC1C(=O)NC1CCCc2ccccc21)C(C)(C)C

> <Shape>
0.226

> <Color>
0.179

> <Negative vol penalty>
0.000

$$$$

  -OEChem-04042322093D

 85 94  0     1  0  0  0  0  0999 V2000
  -28.5533  -12.1439   20.8656 C   0  0  0  0  0  0  0  0  0  0  0  0
  -28.7371  -13.5215   20.8295 C   0  0  0  0  0  0  0  0  0  0  0  0
  -18.3172  -27.5329   23.9957 C   0  0  0  0  0  0  0  0  0  0  0  0
  -28.9883  -26.2505   18.9400 C   0  0  0  0  0  0  0  0  0  0  0  0
  -26.8782  -25.1320   19.3054 C   0  0  0  0  0  0  0  0  0  0  0  0
  -27.2719  -11.6120   20.7383 C   0  0  0  0  0  0  0  0  0  0  0  0
  -27.6384  -14.3681   20.6779 C   0  0  0  0  0  0  0  0  0  0  0  0
  -23.6839  -21.2260   19.9333 C   0  0  0  0  0  0  0  0  0  0  0  0
  -17.7577  -26.8105   22.9417 C   0  0  0  0  0  0  0  0  0  0  0  0
  -19.5277  -28.2026   23.8171 C   0  0  0  0  0  0  0  0  0  0  0  0
  -29.6212  -25.0143   18.8101 C   0  0  0  0  0  0  0  0  0  0  0  0
  -27.5111  -23.8957   19.1755 C   0  0  0  0  0  0  0  0  0  0  0  0
  -22.4761  -21.7727   19.5020 C   0  0  0  0  0  0  0  0  0  0  0  0
  -29.4290  -21.8662   21.0816 C   0  0  0  0  0  0  0  0  0  0  0  0
  -29.1163  -20.8769   22.0139 C   0  0  0  0  0  0  0  0  0  0  0  0
  -21.2824  -20.2859   20.9797 C   0  0  0  0  0  0  0  0  0  0  0  0
  -19.6193  -27.4275   21.5307 C   0  0  0  0  0  0  0  0  0  0  0  0
  -28.3216  -19.4503   20.2333 C   0  0  0  0  0  0  0  0  0  0  0  0
  -27.6168  -26.3094   19.1877 C   0  0  0  0  0  0  0  0  0  0  0  0
  -26.8944  -28.6121   18.3611 C   0  0  0  0  0  0  0  0  0  0  0  0
  -26.1589  -12.4527   20.5726 C   0  0  0  0  0  0  0  0  0  0  0  0
  -23.6995  -20.1959   20.8847 C   0  0  0  0  0  0  0  0  0  0  0  0
  -26.3344  -13.8515   20.5717 C   0  0  0  0  0  0  0  0  0  0  0  0
  -22.4919  -19.7296   21.4234 C   0  0  0  0  0  0  0  0  0  0  0  0
  -18.4088  -26.7578   21.7092 C   0  0  0  0  0  0  0  0  0  0  0  0
  -20.1788  -28.1499   22.5846 C   0  0  0  0  0  0  0  0  0  0  0  0
  -28.8826  -23.8369   18.9278 C   0  0  0  0  0  0  0  0  0  0  0  0
  -21.2749  -21.3006   20.0231 C   0  0  0  0  0  0  0  0  0  0  0  0
  -29.1880  -21.6476   19.7252 C   0  0  0  0  0  0  0  0  0  0  0  0
  -28.5626  -19.6690   21.5897 C   0  0  0  0  0  0  0  0  0  0  0  0
  -28.6343  -20.4396   19.3011 C   0  0  0  0  0  0  0  0  0  0  0  0
  -26.9626  -27.5860   19.3226 C   0  0  0  0  0  0  0  0  0  0  0  0
  -26.1690  -29.6063   18.9708 C   0  0  0  0  0  0  0  0  0  0  0  0
  -19.1300  -23.9240   20.2720 C   0  0  0  0  0  0  0  0  0  0  0  0
  -27.4381  -28.6619   17.0353 C   0  0  0  0  0  0  0  0  0  0  0  0
  -24.6918  -17.1762   20.9050 C   0  0  0  0  0  0  0  0  0  0  0  0
  -23.9341  -17.3571   24.0539 C   0  0  0  0  0  0  0  0  0  0  0  0
  -21.2717  -18.7581   26.0455 C   0  0  0  0  0  0  0  0  0  0  0  0
  -22.0985  -29.5929   23.3453 C   0  0  0  0  0  0  0  0  0  0  0  0
  -24.7935  -11.8239   20.4473 C   0  0  0  0  0  0  0  0  0  0  0  0
  -25.0121  -19.6353   21.3592 C   0  0  0  0  0  0  0  0  0  0  0  0
  -22.4553  -18.6394   22.4619 C   0  0  0  0  0  0  0  0  0  0  0  0
  -23.7564  -12.7689   19.8494 C   0  0  0  0  0  0  0  0  0  0  0  0
  -17.0406  -22.3852   21.6335 C   0  0  0  0  0  0  0  0  0  0  0  0
  -25.1686  -31.3955   23.2989 C   0  0  0  0  0  0  0  0  0  0  0  0
  -23.7973  -14.1084   20.5695 C   0  0  0  0  0  0  0  0  0  0  0  0
  -17.9531  -21.6993   20.6384 C   0  0  0  0  0  0  0  0  0  0  0  0
  -25.9685  -30.7204   22.1824 C   0  0  0  0  0  0  0  0  0  0  0  0
  -16.7831  -23.8140   21.1895 C   0  0  0  0  0  0  0  0  0  0  0  0
  -24.3330  -30.3880   24.0867 C   0  0  0  0  0  0  0  0  0  0  0  0
  -24.2579  -28.8603   22.1554 C   0  0  0  0  0  0  0  0  0  0  0  0
  -25.1577  -14.7906   20.3771 C   0  0  1  0  0  0  0  0  0  0  0  0
  -19.2745  -22.4406   20.5873 C   0  0  1  0  0  0  0  0  0  1  0  0
  -24.8844  -18.2357   21.9528 C   0  0  1  0  0  0  0  0  0  0  0  0
  -25.0653  -29.8439   21.2927 C   0  0  2  0  0  0  0  0  0  0  0  0
  -21.2620  -19.5618   28.4227 C   0  0  0  0  0  0  0  0  0  0  0  0
  -22.9677  -14.5358   24.6990 C   0  0  0  0  0  0  0  0  0  0  0  0
  -21.4506  -15.5257   26.4272 C   0  0  0  0  0  0  0  0  0  0  0  0
  -23.9223  -15.7822   26.6458 C   0  0  0  0  0  0  0  0  0  0  0  0
  -20.2471  -21.4220   25.2627 C   0  0  0  0  0  0  0  0  0  0  0  0
  -17.8061  -25.9801   20.5751 C   0  0  0  0  0  0  0  0  0  0  0  0
  -22.6918  -17.0971   24.8712 C   0  0  1  0  0  0  0  0  0  0  0  0
  -21.3602  -19.9665   26.9601 C   0  0  2  0  0  0  0  0  0  0  0  0
  -22.7566  -15.7436   25.6337 C   0  0  0  0  0  0  0  0  0  0  0  0
  -26.3311  -27.8996   20.4569 N   0  0  0  0  0  0  0  0  0  0  0  0
  -25.8592  -29.1339   20.2122 N   0  0  0  0  0  0  0  0  0  0  0  0
  -17.9736  -24.5435   20.7495 N   0  0  0  0  0  0  0  0  0  0  0  0
  -23.7646  -18.1189   22.8891 N   0  0  0  0  0  0  0  0  0  0  0  0
  -23.4996  -29.5966   23.1790 N   0  0  0  0  0  0  0  0  0  0  0  0
  -25.7723  -30.8298   18.5608 N   0  0  0  0  0  0  0  0  0  0  0  0
  -28.1566  -27.5540   16.5658 N   0  0  0  0  0  0  0  0  0  0  0  0
  -21.4081  -28.8309   22.4034 N   0  0  0  0  0  0  0  0  0  0  0  0
  -25.2312  -15.9489   21.2401 N   0  0  0  0  0  0  0  0  0  0  0  0
  -22.5195  -18.2611   25.7337 N   0  0  0  0  0  0  0  0  0  0  0  0
  -20.2574  -20.9235   26.6621 N   0  3  0  0  0  0  0  0  0  0  0  0
  -20.0375  -24.5187   19.6847 O   0  0  0  0  0  0  0  0  0  0  0  0
  -27.3051  -29.6659   16.2952 O   0  0  0  0  0  0  0  0  0  0  0  0
  -24.0965  -17.4513   19.8698 O   0  0  0  0  0  0  0  0  0  0  0  0
  -25.0163  -16.9071   24.4387 O   0  0  0  0  0  0  0  0  0  0  0  0
  -20.2025  -18.2987   25.6504 O   0  0  0  0  0  0  0  0  0  0  0  0
  -21.5494  -30.2415   24.2396 O   0  0  0  0  0  0  0  0  0  0  0  0
  -29.4997  -22.6304   18.8008 O   0  0  0  0  0  0  0  0  0  0  0  0
  -20.0945  -21.8320   19.6033 O   0  0  0  0  0  0  0  0  0  1  0  0
  -28.2638  -18.7184   22.4849 F   0  0  0  0  0  0  0  0  0  0  0  0
  -28.4015  -20.2234   17.9992 F   0  0  0  0  0  0  0  0  0  0  0  0
  1  2  1  0  0  0  0
  1  6  2  0  0  0  0
  2  7  2  0  0  0  0
  3  9  2  0  0  0  0
  3 10  1  0  0  0  0
  4 11  2  0  0  0  0
  4 19  1  0  0  0  0
  5 12  1  0  0  0  0
  5 19  2  0  0  0  0
  6 21  1  0  0  0  0
  7 23  1  0  0  0  0
  8 13  2  0  0  0  0
  8 22  1  0  0  0  0
  9 25  1  0  0  0  0
 10 26  2  0  0  0  0
 11 27  1  0  0  0  0
 12 27  2  0  0  0  0
 13 28  1  0  0  0  0
 14 15  2  0  0  0  0
 14 29  1  0  0  0  0
 15 30  1  0  0  0  0
 16 24  1  0  0  0  0
 16 28  2  0  0  0  0
 17 25  2  0  0  0  0
 17 26  1  0  0  0  0
 18 30  2  0  0  0  0
 18 31  1  0  0  0  0
 19 32  1  0  0  0  0
 20 32  1  0  0  0  0
 20 33  2  0  0  0  0
 20 35  1  0  0  0  0
 21 23  2  0  0  0  0
 21 40  1  0  0  0  0
 22 24  2  0  0  0  0
 22 41  1  0  0  0  0
 23 52  1  0  0  0  0
 24 42  1  0  0  0  0
 25 61  1  0  0  0  0
 26 72  1  0  0  0  0
 27 82  1  0  0  0  0
 28 83  1  0  0  0  0
 29 31  2  0  0  0  0
 29 82  1  0  0  0  0
 30 84  1  0  0  0  0
 31 85  1  0  0  0  0
 32 65  2  0  0  0  0
 33 66  1  0  0  0  0
 33 70  1  0  0  0  0
 34 53  1  0  0  0  0
 34 67  1  0  0  0  0
 34 76  2  0  0  0  0
 35 71  1  0  0  0  0
 35 77  2  0  0  0  0
 36 54  1  0  0  0  0
 36 73  1  0  0  0  0
 36 78  2  0  0  0  0
 37 62  1  0  0  0  0
 37 68  1  0  0  0  0
 37 79  2  0  0  0  0
 38 63  1  0  0  0  0
 38 74  1  0  0  0  0
 38 80  2  0  0  0  0
 39 69  1  0  0  0  0
 39 72  1  0  0  0  0
 39 81  2  0  0  0  0
 40 43  1  0  0  0  0
 41 54  1  0  0  0  0
 42 68  1  0  0  0  0
 43 46  1  0  0  0  0
 44 47  1  0  0  0  0
 44 49  1  0  0  0  0
 45 48  1  0  0  0  0
 45 50  1  0  0  0  0
 46 52  1  0  0  0  0
 47 53  1  0  0  0  0
 48 55  1  0  0  0  0
 49 67  1  0  0  0  0
 50 69  1  0  0  0  0
 51 55  1  0  0  0  0
 51 69  1  0  0  0  0
 52 73  1  0  0  0  0
 53 83  1  0  0  0  0
 54 68  1  0  0  0  0
 55 66  1  0  0  0  0
 56 63  1  0  0  0  0
 57 64  1  0  0  0  0
 58 64  1  0  0  0  0
 59 64  1  0  0  0  0
 60 75  1  0  0  0  0
 61 67  1  0  0  0  0
 62 64  1  0  0  0  0
 62 74  1  0  0  0  0
 63 75  1  0  0  0  0
 65 66  1  0  0  0  0
M  CHG  1  75   1
M  ISO  4  39 100  53 101  72 100  83 101
M  END
> <Batch ID>
0041

> <Smiles>
CNC(C)C(=O)NC(C(=O)N1Cc2cc([101O:1][101CH:1]3CCCN(Cc4cccc([100NH:0][100C:0](=O)N5CCCC(n6nc(-c7ccc(Oc8ccc(F)cc8F)cc7)c(C(N)=O)c6N)C5)c4)C3=O)ccc2CC1C(=O)NC1CCCc2ccccc21)C(C)(C)C

> <Shape>
0.219

> <Color>
0.070

> <Negative vol penalty>
0.000

$$$$

  -OEChem-04042322093D

 83 91  0     1  0  0  0  0  0999 V2000
  -24.7396  -37.0989   21.1146 C   0  0  0  0  0  0  0  0  0  0  0  0
  -25.4504  -36.0178   20.6032 C   0  0  0  0  0  0  0  0  0  0  0  0
  -24.4298   -9.3805   21.7114 C   0  0  0  0  0  0  0  0  0  0  0  0
  -22.5958  -10.4722   20.5794 C   0  0  0  0  0  0  0  0  0  0  0  0
  -24.1567  -37.0135   22.3783 C   0  0  0  0  0  0  0  0  0  0  0  0
  -25.5796  -34.8510   21.3558 C   0  0  0  0  0  0  0  0  0  0  0  0
  -25.7577  -29.1066   19.2402 C   0  0  0  0  0  0  0  0  0  0  0  0
  -23.7036   -8.1900   21.7400 C   0  0  0  0  0  0  0  0  0  0  0  0
  -21.8695   -9.2817   20.6079 C   0  0  0  0  0  0  0  0  0  0  0  0
  -26.8144  -28.2350   18.9804 C   0  0  0  0  0  0  0  0  0  0  0  0
  -21.1924   -6.8479   23.5612 C   0  0  0  0  0  0  0  0  0  0  0  0
  -21.1764   -6.1279   24.7557 C   0  0  0  0  0  0  0  0  0  0  0  0
  -26.5137  -27.2322   21.1537 C   0  0  0  0  0  0  0  0  0  0  0  0
  -27.0363  -20.4810   18.7946 C   0  0  0  0  0  0  0  0  0  0  0  0
  -26.8651  -20.3703   21.5769 C   0  0  0  0  0  0  0  0  0  0  0  0
  -22.1733   -4.2372   23.6294 C   0  0  0  0  0  0  0  0  0  0  0  0
  -23.8759  -10.5217   21.1311 C   0  0  0  0  0  0  0  0  0  0  0  0
  -25.5063  -12.1868   20.0935 C   0  0  0  0  0  0  0  0  0  0  0  0
  -24.2707  -35.8416   23.1427 C   0  0  0  0  0  0  0  0  0  0  0  0
  -25.0769  -29.0547   20.4651 C   0  0  0  0  0  0  0  0  0  0  0  0
  -24.9988  -34.7503   22.6314 C   0  0  0  0  0  0  0  0  0  0  0  0
  -25.4470  -28.1025   21.4255 C   0  0  0  0  0  0  0  0  0  0  0  0
  -26.1828  -19.5619   19.4048 C   0  0  0  0  0  0  0  0  0  0  0  0
  -27.8044  -21.3447   19.5756 C   0  0  0  0  0  0  0  0  0  0  0  0
  -26.0971  -19.5066   20.7959 C   0  0  0  0  0  0  0  0  0  0  0  0
  -22.4234   -8.1406   21.1882 C   0  0  0  0  0  0  0  0  0  0  0  0
  -27.1944  -27.2996   19.9383 C   0  0  0  0  0  0  0  0  0  0  0  0
  -21.6987   -6.2626   22.4007 C   0  0  0  0  0  0  0  0  0  0  0  0
  -21.6669   -4.8226   24.7899 C   0  0  0  0  0  0  0  0  0  0  0  0
  -22.1892   -4.9572   22.4349 C   0  0  0  0  0  0  0  0  0  0  0  0
  -27.7187  -21.2894   20.9667 C   0  0  0  0  0  0  0  0  0  0  0  0
  -24.6254  -11.7519   21.1018 C   0  0  0  0  0  0  0  0  0  0  0  0
  -25.9584  -13.4063   20.5351 C   0  0  0  0  0  0  0  0  0  0  0  0
  -25.8822  -11.5459   18.8673 C   0  0  0  0  0  0  0  0  0  0  0  0
  -24.6360  -31.0812   22.8739 C   0  0  0  0  0  0  0  0  0  0  0  0
  -22.6560  -28.7520   23.9586 C   0  0  0  0  0  0  0  0  0  0  0  0
  -21.7948  -25.4497   23.9596 C   0  0  0  0  0  0  0  0  0  0  0  0
  -25.0473  -18.4082   22.8053 C   0  0  0  0  0  0  0  0  0  0  0  0
  -23.6635  -35.8133   24.5230 C   0  0  0  0  0  0  0  0  0  0  0  0
  -23.9219  -29.9839   20.7193 C   0  0  0  0  0  0  0  0  0  0  0  0
  -24.7353  -27.9924   22.7483 C   0  0  0  0  0  0  0  0  0  0  0  0
  -23.5292  -34.4066   25.1006 C   0  0  0  0  0  0  0  0  0  0  0  0
  -25.4700  -15.6668   25.0377 C   0  0  0  0  0  0  0  0  0  0  0  0
  -24.8209  -33.6209   24.8982 C   0  0  0  0  0  0  0  0  0  0  0  0
  -25.3604  -14.4397   24.1298 C   0  0  0  0  0  0  0  0  0  0  0  0
  -24.5164  -16.7792   24.6052 C   0  0  0  0  0  0  0  0  0  0  0  0
  -24.5119  -15.9465   22.2867 C   0  0  0  0  0  0  0  0  0  0  0  0
  -25.1401  -33.4587   23.4072 C   0  0  1  0  0  0  0  0  0  0  0  0
  -23.6328  -30.1856   22.2036 C   0  0  1  0  0  0  0  0  0  0  0  0
  -25.5000  -14.8239   22.6437 C   0  0  2  0  0  0  0  0  0  0  0  0
  -25.3733  -18.6474   18.5435 C   0  0  0  0  0  0  0  0  0  0  0  0
  -20.1567  -23.8414   24.9733 C   0  0  0  0  0  0  0  0  0  0  0  0
  -24.2113  -28.8254   26.5826 C   0  0  0  0  0  0  0  0  0  0  0  0
  -23.1878  -26.6175   27.1704 C   0  0  0  0  0  0  0  0  0  0  0  0
  -21.7329  -28.6174   26.8445 C   0  0  0  0  0  0  0  0  0  0  0  0
  -20.6925  -24.7226   21.3110 C   0  0  0  0  0  0  0  0  0  0  0  0
  -28.7107  -22.3179   18.8811 C   0  0  0  0  0  0  0  0  0  0  0  0
  -29.0964  -24.7095   18.2726 C   0  0  0  0  0  0  0  0  0  0  0  0
  -28.4466  -26.0781   18.3271 C   0  0  0  0  0  0  0  0  0  1  0  0
  -22.8181  -27.5333   24.8347 C   0  0  1  0  0  0  0  0  0  0  0  0
  -20.4530  -24.7586   23.7970 C   0  0  2  0  0  0  0  0  0  0  0  0
  -23.0024  -27.9015   26.3340 C   0  0  0  0  0  0  0  0  0  0  0  0
  -24.5227  -12.6241   22.1082 N   0  0  0  0  0  0  0  0  0  0  0  0
  -25.3450  -13.6192   21.7345 N   0  0  0  0  0  0  0  0  0  0  0  0
  -23.6164  -28.9273   22.9523 N   0  0  0  0  0  0  0  0  0  0  0  0
  -24.7086  -17.0929   23.1877 N   0  0  0  0  0  0  0  0  0  0  0  0
  -26.8170  -14.3064   20.0107 N   0  0  0  0  0  0  0  0  0  0  0  0
  -25.3237  -10.2957   18.5683 N   0  0  0  0  0  0  0  0  0  0  0  0
  -25.2367  -18.5794   21.4344 N   0  0  0  0  0  0  0  0  0  0  0  0
  -24.3138  -32.4240   22.8231 N   0  0  0  0  0  0  0  0  0  0  0  0
  -21.6648  -26.6812   24.5661 N   0  0  0  0  0  0  0  0  0  0  0  0
  -20.4382  -23.9430   22.5498 N   0  3  0  0  0  0  0  0  0  0  0  0
  -28.1927  -23.7126   18.9001 N   0  3  0  0  0  0  0  0  0  0  0  0
  -26.7021  -12.0589   18.0685 O   0  0  0  0  0  0  0  0  0  0  0  0
  -25.6280  -30.5902   23.3996 O   0  0  0  0  0  0  0  0  0  0  0  0
  -21.7079  -29.5163   24.1552 O   0  0  0  0  0  0  0  0  0  0  0  0
  -22.8528  -24.9458   23.5893 O   0  0  0  0  0  0  0  0  0  0  0  0
  -25.1876  -19.3096   23.6358 O   0  0  0  0  0  0  0  0  0  0  0  0
  -21.7146   -6.9790   21.2158 O   0  0  0  0  0  0  0  0  0  0  0  0
  -28.2260  -26.4481   19.6875 O   0  0  0  0  0  0  0  0  0  1  0  0
  -21.6530   -4.1318   25.9374 F   0  0  0  0  0  0  0  0  0  0  0  0
  -22.6780   -4.3900   21.3235 F   0  0  0  0  0  0  0  0  0  0  0  0
  -28.6539  -22.3420   21.9653 Cl  0  0  0  0  0  0  0  0  0  0  0  0
  1  2  1  0  0  0  0
  1  5  2  0  0  0  0
  2  6  2  0  0  0  0
  3  8  2  0  0  0  0
  3 17  1  0  0  0  0
  4  9  1  0  0  0  0
  4 17  2  0  0  0  0
  5 19  1  0  0  0  0
  6 21  1  0  0  0  0
  7 10  2  0  0  0  0
  7 20  1  0  0  0  0
  8 26  1  0  0  0  0
  9 26  2  0  0  0  0
 10 27  1  0  0  0  0
 11 12  2  0  0  0  0
 11 28  1  0  0  0  0
 12 29  1  0  0  0  0
 13 22  1  0  0  0  0
 13 27  2  0  0  0  0
 14 23  2  0  0  0  0
 14 24  1  0  0  0  0
 15 25  2  0  0  0  0
 15 31  1  0  0  0  0
 16 29  2  0  0  0  0
 16 30  1  0  0  0  0
 17 32  1  0  0  0  0
 18 32  1  0  0  0  0
 18 33  2  0  0  0  0
 18 34  1  0  0  0  0
 19 21  2  0  0  0  0
 19 39  1  0  0  0  0
 20 22  2  0  0  0  0
 20 40  1  0  0  0  0
 21 48  1  0  0  0  0
 22 41  1  0  0  0  0
 23 25  1  0  0  0  0
 23 51  1  0  0  0  0
 24 31  2  0  0  0  0
 24 57  1  0  0  0  0
 25 69  1  0  0  0  0
 26 79  1  0  0  0  0
 27 80  1  0  0  0  0
 28 30  2  0  0  0  0
 28 79  1  0  0  0  0
 29 81  1  0  0  0  0
 30 82  1  0  0  0  0
 31 83  1  0  0  0  0
 32 63  2  0  0  0  0
 33 64  1  0  0  0  0
 33 67  1  0  0  0  0
 34 68  1  0  0  0  0
 34 74  2  0  0  0  0
 35 49  1  0  0  0  0
 35 70  1  0  0  0  0
 35 75  2  0  0  0  0
 36 60  1  0  0  0  0
 36 65  1  0  0  0  0
 36 76  2  0  0  0  0
 37 61  1  0  0  0  0
 37 71  1  0  0  0  0
 37 77  2  0  0  0  0
 38 66  1  0  0  0  0
 38 69  1  0  0  0  0
 38 78  2  0  0  0  0
 39 42  1  0  0  0  0
 40 49  1  0  0  0  0
 41 65  1  0  0  0  0
 42 44  1  0  0  0  0
 43 45  1  0  0  0  0
 43 46  1  0  0  0  0
 44 48  1  0  0  0  0
 45 50  1  0  0  0  0
 46 66  1  0  0  0  0
 47 50  1  0  0  0  0
 47 66  1  0  0  0  0
 48 70  1  0  0  0  0
 49 65  1  0  0  0  0
 50 64  1  0  0  0  0
 52 61  1  0  0  0  0
 53 62  1  0  0  0  0
 54 62  1  0  0  0  0
 55 62  1  0  0  0  0
 56 72  1  0  0  0  0
 57 73  1  0  0  0  0
 58 59  1  0  0  0  0
 58 73  1  0  0  0  0
 59 80  1  0  0  0  0
 60 62  1  0  0  0  0
 60 71  1  0  0  0  0
 61 72  1  0  0  0  0
 63 64  1  0  0  0  0
M  CHG  2  72   1  73   1
M  ISO  4  38 100  59 101  69 100  80 101
M  END
> <Batch ID>
0041

> <Smiles>
CNC(C)C(=O)NC(C(=O)N1Cc2cc([101O:1][101CH2:1]CNCc3cc(C)c([100NH:0][100C:0](=O)N4CCCC(n5nc(-c6ccc(Oc7ccc(F)cc7F)cc6)c(C(N)=O)c5N)C4)cc3Cl)ccc2CC1C(=O)NC1CCCc2ccccc21)C(C)(C)C

> <Shape>
0.269

> <Color>
0.113

> <Negative vol penalty>
0.000

$$$$

  -OEChem-04042322093D

 89 98  0     1  0  0  0  0  0999 V2000
  -18.7639  -25.0355   21.7295 C   0  0  0  0  0  0  0  0  0  0  0  0
  -20.0329  -25.2171   21.1890 C   0  0  0  0  0  0  0  0  0  0  0  0
  -24.7533  -11.5139   22.7231 C   0  0  0  0  0  0  0  0  0  0  0  0
  -25.7229  -13.5494   23.5914 C   0  0  0  0  0  0  0  0  0  0  0  0
  -18.0165  -26.1397   22.1369 C   0  0  0  0  0  0  0  0  0  0  0  0
  -20.5547  -26.5032   21.0545 C   0  0  0  0  0  0  0  0  0  0  0  0
  -25.3767  -26.8116   22.5703 C   0  0  0  0  0  0  0  0  0  0  0  0
  -30.7265  -21.2824   19.5631 C   0  0  0  0  0  0  0  0  0  0  0  0
  -30.1930  -20.1090   19.0299 C   0  0  0  0  0  0  0  0  0  0  0  0
  -24.8894  -10.9149   23.9754 C   0  0  0  0  0  0  0  0  0  0  0  0
  -25.8589  -12.9504   24.8437 C   0  0  0  0  0  0  0  0  0  0  0  0
  -26.3510  -26.3326   21.6956 C   0  0  0  0  0  0  0  0  0  0  0  0
  -23.2700  -10.9520   26.9435 C   0  0  0  0  0  0  0  0  0  0  0  0
  -22.1866  -10.2237   27.4348 C   0  0  0  0  0  0  0  0  0  0  0  0
  -26.8164  -28.5909   20.9868 C   0  0  0  0  0  0  0  0  0  0  0  0
  -28.2314  -20.3712   20.4157 C   0  0  0  0  0  0  0  0  0  0  0  0
  -23.5629   -8.2403   27.5295 C   0  0  0  0  0  0  0  0  0  0  0  0
  -25.1702  -12.8311   22.5311 C   0  0  0  0  0  0  0  0  0  0  0  0
  -23.8378  -13.6590   20.5193 C   0  0  0  0  0  0  0  0  0  0  0  0
  -18.5333  -27.4393   22.0162 C   0  0  0  0  0  0  0  0  0  0  0  0
  -25.1069  -28.1852   22.6520 C   0  0  0  0  0  0  0  0  0  0  0  0
  -19.8129  -27.6259   21.4593 C   0  0  0  0  0  0  0  0  0  0  0  0
  -25.8399  -29.0850   21.8652 C   0  0  0  0  0  0  0  0  0  0  0  0
  -30.0124  -22.0001   20.5227 C   0  0  0  0  0  0  0  0  0  0  0  0
  -28.7649  -21.5445   20.9489 C   0  0  0  0  0  0  0  0  0  0  0  0
  -28.9455  -19.6534   19.4562 C   0  0  0  0  0  0  0  0  0  0  0  0
  -25.4421  -11.6332   25.0357 C   0  0  0  0  0  0  0  0  0  0  0  0
  -27.0690  -27.2220   20.9016 C   0  0  0  0  0  0  0  0  0  0  0  0
  -24.4999  -10.3245   26.7451 C   0  0  0  0  0  0  0  0  0  0  0  0
  -22.3331   -8.8679   27.7278 C   0  0  0  0  0  0  0  0  0  0  0  0
  -24.6463   -8.9686   27.0381 C   0  0  0  0  0  0  0  0  0  0  0  0
  -25.0305  -13.4503   21.2375 C   0  0  0  0  0  0  0  0  0  0  0  0
  -24.2387  -14.2776   19.3604 C   0  0  0  0  0  0  0  0  0  0  0  0
  -29.6465  -24.9864   19.6715 C   0  0  0  0  0  0  0  0  0  0  0  0
  -29.0771  -23.3022   16.4584 C   0  0  0  0  0  0  0  0  0  0  0  0
  -29.0875  -24.6474   18.4981 C   0  0  0  0  0  0  0  0  0  0  0  0
  -29.6343  -23.6394   17.6269 C   0  0  0  0  0  0  0  0  0  0  0  0
  -22.4882  -13.3239   20.8686 C   0  0  0  0  0  0  0  0  0  0  0  0
  -22.5652  -30.0093   22.0896 C   0  0  0  0  0  0  0  0  0  0  0  0
  -24.4566  -32.3447   23.3107 C   0  0  0  0  0  0  0  0  0  0  0  0
  -27.9152  -33.3380   23.0493 C   0  0  0  0  0  0  0  0  0  0  0  0
  -28.9788  -17.6324   17.9526 C   0  0  0  0  0  0  0  0  0  0  0  0
  -17.6690  -28.6053   22.4266 C   0  0  0  0  0  0  0  0  0  0  0  0
  -24.0714  -28.6883   23.6201 C   0  0  0  0  0  0  0  0  0  0  0  0
  -25.6026  -30.5709   21.9302 C   0  0  0  0  0  0  0  0  0  0  0  0
  -18.4452  -29.9087   22.5964 C   0  0  0  0  0  0  0  0  0  0  0  0
  -27.9784  -14.5957   16.3858 C   0  0  0  0  0  0  0  0  0  0  0  0
  -31.4765  -26.3023   21.4433 C   0  0  0  0  0  0  0  0  0  0  0  0
  -19.3851  -30.1281   21.4152 C   0  0  0  0  0  0  0  0  0  0  0  0
  -30.2118  -27.0246   20.9926 C   0  0  0  0  0  0  0  0  0  0  0  0
  -26.9957  -13.9793   17.3841 C   0  0  0  0  0  0  0  0  0  0  0  0
  -29.1321  -15.3067   17.0910 C   0  0  0  0  0  0  0  0  0  0  0  0
  -27.7460  -15.6839   19.0924 C   0  0  0  0  0  0  0  0  0  0  0  0
  -31.9478  -25.2984   20.3963 C   0  0  0  0  0  0  0  0  0  0  0  0
  -20.4234  -29.0036   21.3201 C   0  0  1  0  0  0  0  0  0  0  0  0
  -29.1082  -26.0369   20.6168 C   0  0  1  0  0  0  0  0  0  1  0  0
  -23.5220  -30.0617   23.2470 C   0  0  1  0  0  0  0  0  0  0  0  0
  -26.5321  -15.0125   18.4296 C   0  0  2  0  0  0  0  0  0  0  0  0
  -28.5147  -22.0777   23.3861 C   0  0  0  0  0  0  0  0  0  0  0  0
  -29.3843  -34.5740   24.6653 C   0  0  0  0  0  0  0  0  0  0  0  0
  -23.5998  -34.8209   21.7473 C   0  0  0  0  0  0  0  0  0  0  0  0
  -25.9300  -35.7009   21.9996 C   0  0  0  0  0  0  0  0  0  0  0  0
  -24.5274  -35.2922   24.0215 C   0  0  0  0  0  0  0  0  0  0  0  0
  -29.9482  -31.1873   23.0257 C   0  0  0  0  0  0  0  0  0  0  0  0
  -27.9815  -22.2975   21.9736 C   0  0  0  0  0  0  0  0  0  0  0  0
  -30.6071  -23.2588   21.0821 C   0  0  0  0  0  0  0  0  0  0  0  0
  -25.4542  -33.3217   22.7370 C   0  0  1  0  0  0  0  0  0  0  0  0
  -28.9807  -33.2117   24.1232 C   0  0  2  0  0  0  0  0  0  0  0  0
  -24.8732  -34.7586   22.6143 C   0  0  0  0  0  0  0  0  0  0  0  0
  -26.1083  -13.8995   20.5890 N   0  0  0  0  0  0  0  0  0  0  0  0
  -25.5943  -14.3967   19.4511 N   0  0  0  0  0  0  0  0  0  0  0  0
  -24.5753  -31.0133   22.8875 N   0  0  0  0  0  0  0  0  0  0  0  0
  -28.6170  -16.2731   18.0634 N   0  0  0  0  0  0  0  0  0  0  0  0
  -23.5603  -14.7256   18.2827 N   0  0  0  0  0  0  0  0  0  0  0  0
  -22.2535  -12.6914   22.0971 N   0  0  0  0  0  0  0  0  0  0  0  0
  -28.4023  -18.4626   18.9134 N   0  0  0  0  0  0  0  0  0  0  0  0
  -21.4684  -29.1963   22.3027 N   0  0  0  0  0  0  0  0  0  0  0  0
  -26.6451  -33.2282   23.5746 N   0  0  0  0  0  0  0  0  0  0  0  0
  -30.8697  -24.3036   20.0326 N   0  3  1  0  0  0  0  0  0  0  0  0
  -30.1951  -32.5464   23.5723 N   0  3  0  0  0  0  0  0  0  0  0  0
  -21.5210  -13.5630   20.1065 O   0  0  0  0  0  0  0  0  0  0  0  0
  -22.8037  -30.6596   21.0787 O   0  0  0  0  0  0  0  0  0  0  0  0
  -23.6079  -32.7466   24.1106 O   0  0  0  0  0  0  0  0  0  0  0  0
  -28.1829  -33.5198   21.8636 O   0  0  0  0  0  0  0  0  0  0  0  0
  -29.7220  -18.0350   17.0540 O   0  0  0  0  0  0  0  0  0  0  0  0
  -25.5747  -11.0491   26.2580 O   0  0  0  0  0  0  0  0  0  0  0  0
  -28.0201  -26.7571   20.0465 O   0  0  0  0  0  0  0  0  0  1  0  0
  -21.2930   -8.1690   28.2011 F   0  0  0  0  0  0  0  0  0  0  0  0
  -25.8257   -8.3605   26.8507 F   0  0  0  0  0  0  0  0  0  0  0  0
  1  2  1  0  0  0  0
  1  5  2  0  0  0  0
  2  6  2  0  0  0  0
  3 10  2  0  0  0  0
  3 18  1  0  0  0  0
  4 11  1  0  0  0  0
  4 18  2  0  0  0  0
  5 20  1  0  0  0  0
  6 22  1  0  0  0  0
  7 12  2  0  0  0  0
  7 21  1  0  0  0  0
  8  9  2  0  0  0  0
  8 24  1  0  0  0  0
  9 26  1  0  0  0  0
 10 27  1  0  0  0  0
 11 27  2  0  0  0  0
 12 28  1  0  0  0  0
 13 14  2  0  0  0  0
 13 29  1  0  0  0  0
 14 30  1  0  0  0  0
 15 23  1  0  0  0  0
 15 28  2  0  0  0  0
 16 25  1  0  0  0  0
 16 26  2  0  0  0  0
 17 30  2  0  0  0  0
 17 31  1  0  0  0  0
 18 32  1  0  0  0  0
 19 32  1  0  0  0  0
 19 33  2  0  0  0  0
 19 38  1  0  0  0  0
 20 22  2  0  0  0  0
 20 43  1  0  0  0  0
 21 23  2  0  0  0  0
 21 44  1  0  0  0  0
 22 55  1  0  0  0  0
 23 45  1  0  0  0  0
 24 25  2  0  0  0  0
 24 66  1  0  0  0  0
 25 65  1  0  0  0  0
 26 76  1  0  0  0  0
 27 86  1  0  0  0  0
 28 87  1  0  0  0  0
 29 31  2  0  0  0  0
 29 86  1  0  0  0  0
 30 88  1  0  0  0  0
 31 89  1  0  0  0  0
 32 70  2  0  0  0  0
 33 71  1  0  0  0  0
 33 74  1  0  0  0  0
 34 36  2  0  0  0  0
 34 56  1  0  0  0  0
 34 79  1  0  0  0  0
 35 37  2  0  0  0  0
 36 37  1  0  0  0  0
 38 75  1  0  0  0  0
 38 81  2  0  0  0  0
 39 57  1  0  0  0  0
 39 77  1  0  0  0  0
 39 82  2  0  0  0  0
 40 67  1  0  0  0  0
 40 72  1  0  0  0  0
 40 83  2  0  0  0  0
 41 68  1  0  0  0  0
 41 78  1  0  0  0  0
 41 84  2  0  0  0  0
 42 73  1  0  0  0  0
 42 76  1  0  0  0  0
 42 85  2  0  0  0  0
 43 46  1  0  0  0  0
 44 57  1  0  0  0  0
 45 72  1  0  0  0  0
 46 49  1  0  0  0  0
 47 51  1  0  0  0  0
 47 52  1  0  0  0  0
 48 50  1  0  0  0  0
 48 54  1  0  0  0  0
 49 55  1  0  0  0  0
 50 56  1  0  0  0  0
 51 58  1  0  0  0  0
 52 73  1  0  0  0  0
 53 58  1  0  0  0  0
 53 73  1  0  0  0  0
 54 79  1  0  0  0  0
 55 77  1  0  0  0  0
 56 87  1  0  0  0  0
 57 72  1  0  0  0  0
 58 71  1  0  0  0  0
 59 65  1  0  0  0  0
 60 68  1  0  0  0  0
 61 69  1  0  0  0  0
 62 69  1  0  0  0  0
 63 69  1  0  0  0  0
 64 80  1  0  0  0  0
 66 79  1  0  0  0  0
 67 69  1  0  0  0  0
 67 78  1  0  0  0  0
 68 80  1  0  0  0  0
 70 71  1  0  0  0  0
M  CHG  2  79   1  80   1
M  ISO  4  42 100  56 101  76 100  87 101
M  END
> <Batch ID>
0041

> <Smiles>
C=CC=C1N(Cc2ccc([100NH:0][100C:0](=O)N3CCCC(n4nc(-c5ccc(Oc6ccc(F)cc6F)cc5)c(C(N)=O)c4N)C3)cc2CC)CCC[101CH:1]1[101O:1]c1ccc2c(c1)CN(C(=O)C(NC(=O)C(C)NC)C(C)(C)C)C(C(=O)NC1CCCc3ccccc31)C2

> <Shape>
0.280

> <Color>
0.078

> <Negative vol penalty>
0.000

$$$$

  -OEChem-04042322093D

 85 93  0     1  0  0  0  0  0999 V2000
  -20.1994  -24.2575   15.8202 C   0  0  0  0  0  0  0  0  0  0  0  0
  -21.0890  -25.2150   16.2941 C   0  0  0  0  0  0  0  0  0  0  0  0
  -23.9222  -16.9182   23.0421 C   0  0  0  0  0  0  0  0  0  0  0  0
  -22.1299  -17.7265   21.6381 C   0  0  0  0  0  0  0  0  0  0  0  0
  -20.3141  -22.9350   16.2433 C   0  0  0  0  0  0  0  0  0  0  0  0
  -22.1010  -24.8481   17.1819 C   0  0  0  0  0  0  0  0  0  0  0  0
  -25.4382  -28.2824   18.3096 C   0  0  0  0  0  0  0  0  0  0  0  0
  -18.9585  -28.5274   23.3208 C   0  0  0  0  0  0  0  0  0  0  0  0
  -18.2983  -27.3036   23.4307 C   0  0  0  0  0  0  0  0  0  0  0  0
  -23.7775  -15.6441   22.4932 C   0  0  0  0  0  0  0  0  0  0  0  0
  -21.9852  -16.4524   21.0891 C   0  0  0  0  0  0  0  0  0  0  0  0
  -25.1484  -29.3764   19.1238 C   0  0  0  0  0  0  0  0  0  0  0  0
  -24.6723  -14.0381   19.6554 C   0  0  0  0  0  0  0  0  0  0  0  0
  -25.8314  -13.3570   19.2837 C   0  0  0  0  0  0  0  0  0  0  0  0
  -26.3095  -28.3151   20.9527 C   0  0  0  0  0  0  0  0  0  0  0  0
  -20.3310  -27.6276   21.5477 C   0  0  0  0  0  0  0  0  0  0  0  0
  -25.2832  -11.5816   20.8279 C   0  0  0  0  0  0  0  0  0  0  0  0
  -23.0983  -17.9594   22.6146 C   0  0  0  0  0  0  0  0  0  0  0  0
  -24.3946  -20.0901   23.1505 C   0  0  0  0  0  0  0  0  0  0  0  0
  -21.3205  -22.5550   17.1465 C   0  0  0  0  0  0  0  0  0  0  0  0
  -26.1577  -27.1899   18.8148 C   0  0  0  0  0  0  0  0  0  0  0  0
  -22.2480  -23.5139   17.6023 C   0  0  0  0  0  0  0  0  0  0  0  0
  -26.6093  -27.2096   20.1421 C   0  0  0  0  0  0  0  0  0  0  0  0
  -19.9749  -28.6894   22.3792 C   0  0  0  0  0  0  0  0  0  0  0  0
  -18.6544  -26.2418   22.5992 C   0  0  0  0  0  0  0  0  0  0  0  0
  -22.8091  -15.4112   21.5167 C   0  0  0  0  0  0  0  0  0  0  0  0
  -25.5815  -29.3916   20.4464 C   0  0  0  0  0  0  0  0  0  0  0  0
  -23.8187  -13.4910   20.6133 C   0  0  0  0  0  0  0  0  0  0  0  0
  -26.1369  -12.1288   19.8700 C   0  0  0  0  0  0  0  0  0  0  0  0
  -24.1241  -12.2627   21.1995 C   0  0  0  0  0  0  0  0  0  0  0  0
  -19.6708  -26.4038   21.6577 C   0  0  0  0  0  0  0  0  0  0  0  0
  -23.2468  -19.2756   23.1817 C   0  0  0  0  0  0  0  0  0  0  0  0
  -24.0250  -21.2300   23.8218 C   0  0  0  0  0  0  0  0  0  0  0  0
  -24.5953  -32.0305   24.2228 C   0  0  0  0  0  0  0  0  0  0  0  0
  -25.6799  -19.8389   22.5670 C   0  0  0  0  0  0  0  0  0  0  0  0
  -24.2026  -31.2067   23.2383 C   0  0  0  0  0  0  0  0  0  0  0  0
  -25.5416  -24.1002   19.2366 C   0  0  0  0  0  0  0  0  0  0  0  0
  -28.6729  -23.9900   20.0765 C   0  0  0  0  0  0  0  0  0  0  0  0
  -31.4184  -25.6447   21.2473 C   0  0  0  0  0  0  0  0  0  0  0  0
  -18.7287  -23.8388   24.8188 C   0  0  0  0  0  0  0  0  0  0  0  0
  -21.4037  -21.1083   17.5654 C   0  0  0  0  0  0  0  0  0  0  0  0
  -26.4852  -26.0293   17.9158 C   0  0  0  0  0  0  0  0  0  0  0  0
  -27.4026  -26.0706   20.7268 C   0  0  0  0  0  0  0  0  0  0  0  0
  -22.2194  -20.9038   18.8379 C   0  0  0  0  0  0  0  0  0  0  0  0
  -21.0771  -22.7576   27.2667 C   0  0  0  0  0  0  0  0  0  0  0  0
  -23.5510  -21.6307   18.7240 C   0  0  0  0  0  0  0  0  0  0  0  0
  -22.0030  -21.8161   26.4945 C   0  0  0  0  0  0  0  0  0  0  0  0
  -19.6306  -22.6419   26.7912 C   0  0  0  0  0  0  0  0  0  0  0  0
  -20.3660  -21.8761   24.5671 C   0  0  0  0  0  0  0  0  0  0  0  0
  -23.3377  -23.1440   18.5923 C   0  0  1  0  0  0  0  0  0  0  0  0
  -26.7811  -24.7443   18.6830 C   0  0  1  0  0  0  0  0  0  0  0  0
  -21.8448  -21.9973   24.9729 C   0  0  2  0  0  0  0  0  0  0  0  0
  -33.8232  -25.2803   21.8650 C   0  0  0  0  0  0  0  0  0  0  0  0
  -27.7999  -22.6466   22.6733 C   0  0  0  0  0  0  0  0  0  0  0  0
  -30.0572  -23.1698   23.6213 C   0  0  0  0  0  0  0  0  0  0  0  0
  -29.8567  -21.6734   21.6355 C   0  0  0  0  0  0  0  0  0  0  0  0
  -32.3561  -27.5624   19.1974 C   0  0  0  0  0  0  0  0  0  0  0  0
  -17.9235  -24.9469   22.7493 C   0  0  0  0  0  0  0  0  0  0  0  0
  -20.6852  -30.0056   22.2610 C   0  0  0  0  0  0  0  0  0  0  0  0
  -22.8013  -31.2603   22.6932 C   0  0  0  0  0  0  0  0  0  0  0  0
  -25.1506  -30.2036   22.6398 C   0  0  0  0  0  0  0  0  0  1  0  0
  -29.4401  -24.1526   21.3665 C   0  0  1  0  0  0  0  0  0  0  0  0
  -32.8562  -25.6803   20.7615 C   0  0  2  0  0  0  0  0  0  0  0  0
  -29.2719  -22.9314   22.3140 C   0  0  0  0  0  0  0  0  0  0  0  0
  -22.2247  -19.8493   23.8222 N   0  0  0  0  0  0  0  0  0  0  0  0
  -22.7289  -21.0364   24.1998 N   0  0  0  0  0  0  0  0  0  0  0  0
  -27.6921  -24.9558   19.8098 N   0  0  0  0  0  0  0  0  0  0  0  0
  -19.5495  -22.8251   25.3400 N   0  0  0  0  0  0  0  0  0  0  0  0
  -24.6855  -22.3691   24.1197 N   0  0  0  0  0  0  0  0  0  0  0  0
  -26.6620  -19.2223   23.3540 N   0  0  0  0  0  0  0  0  0  0  0  0
  -24.6014  -23.7733   18.2781 N   0  0  0  0  0  0  0  0  0  0  0  0
  -30.8215  -24.4291   20.9877 N   0  0  0  0  0  0  0  0  0  0  0  0
  -18.7143  -23.9484   23.4337 N   0  0  0  0  0  0  0  0  0  0  0  0
  -33.2126  -27.0512   20.2983 N   0  3  0  0  0  0  0  0  0  0  0  0
  -22.0518  -29.9848   22.8464 N   0  3  0  0  0  0  0  0  0  0  0  0
  -25.9546  -20.1667   21.3877 O   0  0  0  0  0  0  0  0  0  0  0  0
  -25.4460  -23.9123   20.4437 O   0  0  0  0  0  0  0  0  0  0  0  0
  -28.9390  -23.0451   19.3296 O   0  0  0  0  0  0  0  0  0  0  0  0
  -30.8799  -26.5984   21.8050 O   0  0  0  0  0  0  0  0  0  0  0  0
  -18.0624  -24.5939   25.5349 O   0  0  0  0  0  0  0  0  0  0  0  0
  -22.6679  -14.1681   20.9807 O   0  0  0  0  0  0  0  0  0  0  0  0
  -25.2995  -30.4578   21.2435 O   0  0  0  0  0  0  0  0  0  1  0  0
  -27.2492  -11.4741   19.5118 F   0  0  0  0  0  0  0  0  0  0  0  0
  -23.3073  -11.7315   22.1195 F   0  0  0  0  0  0  0  0  0  0  0  0
  -20.1388  -25.1120   20.6128 Cl  0  0  0  0  0  0  0  0  0  0  0  0
  1  2  1  0  0  0  0
  1  5  2  0  0  0  0
  2  6  2  0  0  0  0
  3 10  2  0  0  0  0
  3 18  1  0  0  0  0
  4 11  1  0  0  0  0
  4 18  2  0  0  0  0
  5 20  1  0  0  0  0
  6 22  1  0  0  0  0
  7 12  2  0  0  0  0
  7 21  1  0  0  0  0
  8  9  2  0  0  0  0
  8 24  1  0  0  0  0
  9 25  1  0  0  0  0
 10 26  1  0  0  0  0
 11 26  2  0  0  0  0
 12 27  1  0  0  0  0
 13 14  2  0  0  0  0
 13 28  1  0  0  0  0
 14 29  1  0  0  0  0
 15 23  1  0  0  0  0
 15 27  2  0  0  0  0
 16 24  2  0  0  0  0
 16 31  1  0  0  0  0
 17 29  2  0  0  0  0
 17 30  1  0  0  0  0
 18 32  1  0  0  0  0
 19 32  1  0  0  0  0
 19 33  2  0  0  0  0
 19 35  1  0  0  0  0
 20 22  2  0  0  0  0
 20 41  1  0  0  0  0
 21 23  2  0  0  0  0
 21 42  1  0  0  0  0
 22 50  1  0  0  0  0
 23 43  1  0  0  0  0
 24 59  1  0  0  0  0
 25 31  2  0  0  0  0
 25 58  1  0  0  0  0
 26 81  1  0  0  0  0
 27 82  1  0  0  0  0
 28 30  2  0  0  0  0
 28 81  1  0  0  0  0
 29 83  1  0  0  0  0
 30 84  1  0  0  0  0
 31 85  1  0  0  0  0
 32 65  2  0  0  0  0
 33 66  1  0  0  0  0
 33 69  1  0  0  0  0
 34 36  2  0  0  0  0
 35 70  1  0  0  0  0
 35 76  2  0  0  0  0
 36 60  1  0  0  0  0
 36 61  1  0  0  0  0
 37 51  1  0  0  0  0
 37 71  1  0  0  0  0
 37 77  2  0  0  0  0
 38 62  1  0  0  0  0
 38 67  1  0  0  0  0
 38 78  2  0  0  0  0
 39 63  1  0  0  0  0
 39 72  1  0  0  0  0
 39 79  2  0  0  0  0
 40 68  1  0  0  0  0
 40 73  1  0  0  0  0
 40 80  2  0  0  0  0
 41 44  1  0  0  0  0
 42 51  1  0  0  0  0
 43 67  1  0  0  0  0
 44 46  1  0  0  0  0
 45 47  1  0  0  0  0
 45 48  1  0  0  0  0
 46 50  1  0  0  0  0
 47 52  1  0  0  0  0
 48 68  1  0  0  0  0
 49 52  1  0  0  0  0
 49 68  1  0  0  0  0
 50 71  1  0  0  0  0
 51 67  1  0  0  0  0
 52 66  1  0  0  0  0
 53 63  1  0  0  0  0
 54 64  1  0  0  0  0
 55 64  1  0  0  0  0
 56 64  1  0  0  0  0
 57 74  1  0  0  0  0
 58 73  1  0  0  0  0
 59 75  1  0  0  0  0
 60 75  1  0  0  0  0
 61 82  1  0  0  0  0
 62 64  1  0  0  0  0
 62 72  1  0  0  0  0
 63 74  1  0  0  0  0
 65 66  1  0  0  0  0
M  CHG  2  74   1  75   1
M  ISO  4  40 100  61 101  73 100  82 101
M  END
> <Batch ID>
0041

> <Smiles>
C=C(CNCc1ccc(C[100NH:0][100C:0](=O)N2CCCC(n3nc(-c4ccc(Oc5ccc(F)cc5F)cc4)c(C(N)=O)c3N)C2)c(Cl)c1)[101CH2:1][101O:1]c1ccc2c(c1)CN(C(=O)C(NC(=O)C(C)NC)C(C)(C)C)C(C(=O)NC1CCCc3ccccc31)C2

> <Shape>
0.182

> <Color>
0.083

> <Negative vol penalty>
0.000

$$$$

  -OEChem-04042322093D

 86 95  0     1  0  0  0  0  0999 V2000
  -39.4729  -28.5236   19.3444 C   0  0  0  0  0  0  0  0  0  0  0  0
  -38.7524  -27.8637   20.3348 C   0  0  0  0  0  0  0  0  0  0  0  0
  -22.6620  -10.1206   20.2528 C   0  0  0  0  0  0  0  0  0  0  0  0
  -24.2665   -9.5175   21.9554 C   0  0  0  0  0  0  0  0  0  0  0  0
  -38.8360  -28.9250   18.1709 C   0  0  0  0  0  0  0  0  0  0  0  0
  -37.3942  -27.6058   20.1526 C   0  0  0  0  0  0  0  0  0  0  0  0
  -36.1158  -22.8915   21.4891 C   0  0  0  0  0  0  0  0  0  0  0  0
  -32.4416  -17.7102   23.4242 C   0  0  0  0  0  0  0  0  0  0  0  0
  -31.8859  -16.7949   22.5304 C   0  0  0  0  0  0  0  0  0  0  0  0
  -21.9443   -8.9539   20.5159 C   0  0  0  0  0  0  0  0  0  0  0  0
  -23.5488   -8.3508   22.2185 C   0  0  0  0  0  0  0  0  0  0  0  0
  -35.9750  -22.6320   22.8516 C   0  0  0  0  0  0  0  0  0  0  0  0
  -19.7441   -7.8523   22.8351 C   0  0  0  0  0  0  0  0  0  0  0  0
  -18.3570   -7.9545   22.9413 C   0  0  0  0  0  0  0  0  0  0  0  0
  -33.5802  -22.8241   22.6345 C   0  0  0  0  0  0  0  0  0  0  0  0
  -29.6753  -17.5996   23.0807 C   0  0  0  0  0  0  0  0  0  0  0  0
  -18.1023   -6.4150   21.0968 C   0  0  0  0  0  0  0  0  0  0  0  0
  -23.8232  -10.4024   20.9725 C   0  0  0  0  0  0  0  0  0  0  0  0
  -24.1037  -12.9327   20.8095 C   0  0  0  0  0  0  0  0  0  0  0  0
  -37.4715  -28.6632   17.9701 C   0  0  0  0  0  0  0  0  0  0  0  0
  -34.9887  -23.1304   20.6898 C   0  0  0  0  0  0  0  0  0  0  0  0
  -36.7382  -28.0052   18.9759 C   0  0  0  0  0  0  0  0  0  0  0  0
  -33.7092  -23.0838   21.2616 C   0  0  0  0  0  0  0  0  0  0  0  0
  -30.2311  -18.5149   23.9746 C   0  0  0  0  0  0  0  0  0  0  0  0
  -31.6142  -18.5702   24.1464 C   0  0  0  0  0  0  0  0  0  0  0  0
  -30.5028  -16.7397   22.3586 C   0  0  0  0  0  0  0  0  0  0  0  0
  -22.3877   -8.0689   21.4987 C   0  0  0  0  0  0  0  0  0  0  0  0
  -34.7072  -22.6011   23.4252 C   0  0  0  0  0  0  0  0  0  0  0  0
  -20.3102   -7.0315   21.8596 C   0  0  0  0  0  0  0  0  0  0  0  0
  -17.5361   -7.2358   22.0723 C   0  0  0  0  0  0  0  0  0  0  0  0
  -19.4893   -6.3128   20.9905 C   0  0  0  0  0  0  0  0  0  0  0  0
  -24.5653  -11.6072   20.7008 C   0  0  0  0  0  0  0  0  0  0  0  0
  -25.1809  -13.7024   20.4437 C   0  0  0  0  0  0  0  0  0  0  0  0
  -31.9165  -19.5124   26.4321 C   0  0  0  0  0  0  0  0  0  0  0  0
  -31.4897  -18.4642   27.1632 C   0  0  0  0  0  0  0  0  0  0  0  0
  -22.8164  -13.4242   21.2057 C   0  0  0  0  0  0  0  0  0  0  0  0
  -33.9500  -25.5806   18.9515 C   0  0  0  0  0  0  0  0  0  0  0  0
  -31.6532  -23.4707   18.0598 C   0  0  0  0  0  0  0  0  0  0  0  0
  -29.8698  -20.6523   18.7829 C   0  0  0  0  0  0  0  0  0  0  0  0
  -30.6173  -14.8869   20.6555 C   0  0  0  0  0  0  0  0  0  0  0  0
  -36.8158  -29.1583   16.7054 C   0  0  0  0  0  0  0  0  0  0  0  0
  -35.1558  -23.3824   19.2164 C   0  0  0  0  0  0  0  0  0  0  0  0
  -32.4660  -23.3136   20.4431 C   0  0  0  0  0  0  0  0  0  0  0  0
  -32.1471  -20.8250   27.1558 C   0  0  0  0  0  0  0  0  0  0  0  0
  -35.4593  -28.5144   16.4303 C   0  0  0  0  0  0  0  0  0  0  0  0
  -33.4049  -21.5371   26.6807 C   0  0  0  0  0  0  0  0  0  0  0  0
  -29.5885  -12.4034   18.3208 C   0  0  0  0  0  0  0  0  0  0  0  0
  -34.6052  -28.5084   17.6941 C   0  0  0  0  0  0  0  0  0  0  0  0
  -28.1520  -12.0839   18.7408 C   0  0  0  0  0  0  0  0  0  0  0  0
  -30.4847  -12.6767   19.5274 C   0  0  0  0  0  0  0  0  0  0  0  0
  -28.5456  -13.3785   20.8753 C   0  0  0  0  0  0  0  0  0  0  0  0
  -33.2636  -20.3388   24.4782 C   0  0  0  0  0  0  0  0  0  0  0  0
  -35.2690  -27.6853   18.8047 C   0  0  1  0  0  0  0  0  0  0  0  0
  -33.9722  -24.1203   18.5984 C   0  0  1  0  0  0  0  0  0  0  0  0
  -27.5901  -13.1596   19.6909 C   0  0  2  0  0  0  0  0  0  0  0  0
  -33.3701  -21.6973   25.1683 C   0  0  2  0  0  0  0  0  0  1  0  0
  -29.3218  -19.4234   24.7364 C   0  0  0  0  0  0  0  0  0  0  0  0
  -31.2205  -17.1168   26.5954 C   0  0  0  0  0  0  0  0  0  0  0  0
  -28.0357  -19.1962   17.8811 C   0  0  0  0  0  0  0  0  0  0  0  0
  -29.5888  -25.5536   18.9020 C   0  0  0  0  0  0  0  0  0  0  0  0
  -27.8587  -23.7440   18.8850 C   0  0  0  0  0  0  0  0  0  0  0  0
  -29.0488  -24.3491   16.7778 C   0  0  0  0  0  0  0  0  0  0  0  0
  -31.6550  -18.2966   18.6340 C   0  0  0  0  0  0  0  0  0  0  0  0
  -30.2901  -23.0892   18.5844 C   0  0  1  0  0  0  0  0  0  0  0  0
  -29.5370  -19.4289   17.9480 C   0  0  2  0  0  0  0  0  0  0  0  0
  -29.2199  -24.1815   18.3034 C   0  0  0  0  0  0  0  0  0  0  0  0
  -25.8366  -11.5353   20.2974 N   0  0  0  0  0  0  0  0  0  0  0  0
  -26.1830  -12.8253   20.1493 N   0  0  0  0  0  0  0  0  0  0  0  0
  -32.1991  -19.4978   25.0554 N   0  0  0  0  0  0  0  0  0  0  0  0
  -32.6818  -23.5623   19.0082 N   0  0  0  0  0  0  0  0  0  0  0  0
  -29.8910  -13.7091   20.3798 N   0  0  0  0  0  0  0  0  0  0  0  0
  -25.3591  -15.0372   20.3484 N   0  0  0  0  0  0  0  0  0  0  0  0
  -21.8237  -12.4964   21.5492 N   0  0  0  0  0  0  0  0  0  0  0  0
  -29.9385  -15.8102   21.4500 N   0  0  0  0  0  0  0  0  0  0  0  0
  -35.0833  -26.2702   18.5648 N   0  0  0  0  0  0  0  0  0  0  0  0
  -29.9801  -21.7862   18.0061 N   0  0  0  0  0  0  0  0  0  0  0  0
  -30.1753  -18.2149   18.5308 N   0  3  0  0  0  0  0  0  0  0  0  0
  -22.5492  -14.6494   21.2379 O   0  0  0  0  0  0  0  0  0  0  0  0
  -32.9762  -26.0475   19.5307 O   0  0  0  0  0  0  0  0  0  0  0  0
  -31.8016  -23.6727   16.8520 O   0  0  0  0  0  0  0  0  0  0  0  0
  -30.0135  -20.6073   20.0027 O   0  0  0  0  0  0  0  0  0  0  0  0
  -31.7469  -15.0752   20.1965 O   0  0  0  0  0  0  0  0  0  0  0  0
  -21.6874   -6.9305   21.7559 O   0  0  0  0  0  0  0  0  0  0  0  0
  -34.5670  -22.3487   24.7550 O   0  0  0  0  0  0  0  0  0  1  0  0
  -16.2042   -7.3329   22.1754 F   0  0  0  0  0  0  0  0  0  0  0  0
  -20.0274   -5.5217   20.0522 F   0  0  0  0  0  0  0  0  0  0  0  0
  1  2  1  0  0  0  0
  1  5  2  0  0  0  0
  2  6  2  0  0  0  0
  3 10  2  0  0  0  0
  3 18  1  0  0  0  0
  4 11  1  0  0  0  0
  4 18  2  0  0  0  0
  5 20  1  0  0  0  0
  6 22  1  0  0  0  0
  7 12  2  0  0  0  0
  7 21  1  0  0  0  0
  8  9  2  0  0  0  0
  8 25  1  0  0  0  0
  9 26  1  0  0  0  0
 10 27  1  0  0  0  0
 11 27  2  0  0  0  0
 12 28  1  0  0  0  0
 13 14  2  0  0  0  0
 13 29  1  0  0  0  0
 14 30  1  0  0  0  0
 15 23  1  0  0  0  0
 15 28  2  0  0  0  0
 16 24  1  0  0  0  0
 16 26  2  0  0  0  0
 17 30  2  0  0  0  0
 17 31  1  0  0  0  0
 18 32  1  0  0  0  0
 19 32  1  0  0  0  0
 19 33  2  0  0  0  0
 19 36  1  0  0  0  0
 20 22  2  0  0  0  0
 20 41  1  0  0  0  0
 21 23  2  0  0  0  0
 21 42  1  0  0  0  0
 22 53  1  0  0  0  0
 23 43  1  0  0  0  0
 24 25  2  0  0  0  0
 24 57  1  0  0  0  0
 25 69  1  0  0  0  0
 26 74  1  0  0  0  0
 27 83  1  0  0  0  0
 28 84  1  0  0  0  0
 29 31  2  0  0  0  0
 29 83  1  0  0  0  0
 30 85  1  0  0  0  0
 31 86  1  0  0  0  0
 32 67  2  0  0  0  0
 33 68  1  0  0  0  0
 33 72  1  0  0  0  0
 34 35  2  0  0  0  0
 34 44  1  0  0  0  0
 34 69  1  0  0  0  0
 35 58  1  0  0  0  0
 36 73  1  0  0  0  0
 36 78  2  0  0  0  0
 37 54  1  0  0  0  0
 37 75  1  0  0  0  0
 37 79  2  0  0  0  0
 38 64  1  0  0  0  0
 38 70  1  0  0  0  0
 38 80  2  0  0  0  0
 39 65  1  0  0  0  0
 39 76  1  0  0  0  0
 39 81  2  0  0  0  0
 40 71  1  0  0  0  0
 40 74  1  0  0  0  0
 40 82  2  0  0  0  0
 41 45  1  0  0  0  0
 42 54  1  0  0  0  0
 43 70  1  0  0  0  0
 44 46  1  0  0  0  0
 45 48  1  0  0  0  0
 46 56  1  0  0  0  0
 47 49  1  0  0  0  0
 47 50  1  0  0  0  0
 48 53  1  0  0  0  0
 49 55  1  0  0  0  0
 50 71  1  0  0  0  0
 51 55  1  0  0  0  0
 51 71  1  0  0  0  0
 52 56  1  0  0  0  0
 52 69  1  0  0  0  0
 53 75  1  0  0  0  0
 54 70  1  0  0  0  0
 55 68  1  0  0  0  0
 56 84  1  0  0  0  0
 59 65  1  0  0  0  0
 60 66  1  0  0  0  0
 61 66  1  0  0  0  0
 62 66  1  0  0  0  0
 63 77  1  0  0  0  0
 64 66  1  0  0  0  0
 64 76  1  0  0  0  0
 65 77  1  0  0  0  0
 67 68  1  0  0  0  0
M  CHG  1  77   1
M  ISO  4  40 100  56 101  74 100  84 101
M  END
> <Batch ID>
0041

> <Smiles>
CC=C1CC[101CH:1]([101O:1]c2ccc3c(c2)CN(C(=O)C(NC(=O)C(C)NC)C(C)(C)C)C(C(=O)NC2CCCc4ccccc42)C3)CN1c1ccc([100NH:0][100C:0](=O)N2CCCC(n3nc(-c4ccc(Oc5ccc(F)cc5F)cc4)c(C(N)=O)c3N)C2)cc1C

> <Shape>
0.206

> <Color>
0.205

> <Negative vol penalty>
0.000

$$$$

  -OEChem-04042322093D

 83 91  0     1  0  0  0  0  0999 V2000
  -32.0554  -24.2877   17.4076 C   0  0  0  0  0  0  0  0  0  0  0  0
  -30.7149  -24.0702   17.7096 C   0  0  0  0  0  0  0  0  0  0  0  0
  -27.8498  -20.9684   21.8917 C   0  0  0  0  0  0  0  0  0  0  0  0
  -24.7830   -8.7367   20.1681 C   0  0  0  0  0  0  0  0  0  0  0  0
  -24.2584   -9.8270   22.2594 C   0  0  0  0  0  0  0  0  0  0  0  0
  -32.8328  -25.0969   18.2351 C   0  0  0  0  0  0  0  0  0  0  0  0
  -30.1513  -24.6611   18.8399 C   0  0  0  0  0  0  0  0  0  0  0  0
  -25.6138  -26.7061   17.9051 C   0  0  0  0  0  0  0  0  0  0  0  0
  -26.5446  -21.4599   21.8711 C   0  0  0  0  0  0  0  0  0  0  0  0
  -28.1192  -19.6845   21.4175 C   0  0  0  0  0  0  0  0  0  0  0  0
  -24.5025   -7.4976   20.7437 C   0  0  0  0  0  0  0  0  0  0  0  0
  -23.9778   -8.5878   22.8350 C   0  0  0  0  0  0  0  0  0  0  0  0
  -24.5272  -25.8361   17.8270 C   0  0  0  0  0  0  0  0  0  0  0  0
  -21.4324   -6.3649   22.8404 C   0  0  0  0  0  0  0  0  0  0  0  0
  -20.2773   -6.2585   23.6150 C   0  0  0  0  0  0  0  0  0  0  0  0
  -23.9105  -26.4130   20.0866 C   0  0  0  0  0  0  0  0  0  0  0  0
  -21.6169   -5.6371   25.5273 C   0  0  0  0  0  0  0  0  0  0  0  0
  -24.6611   -9.9015   20.9260 C   0  0  0  0  0  0  0  0  0  0  0  0
  -24.0509  -12.0323   19.6630 C   0  0  0  0  0  0  0  0  0  0  0  0
  -32.2760  -25.7058   19.3708 C   0  0  0  0  0  0  0  0  0  0  0  0
  -25.8636  -27.4291   19.0804 C   0  0  0  0  0  0  0  0  0  0  0  0
  -30.9223  -25.4781   19.6841 C   0  0  0  0  0  0  0  0  0  0  0  0
  -24.9994  -27.2935   20.1762 C   0  0  0  0  0  0  0  0  0  0  0  0
  -25.5087  -20.6675   21.3765 C   0  0  0  0  0  0  0  0  0  0  0  0
  -27.0833  -18.8922   20.9229 C   0  0  0  0  0  0  0  0  0  0  0  0
  -24.0998   -7.4231   22.0771 C   0  0  0  0  0  0  0  0  0  0  0  0
  -23.6770  -25.6872   18.9188 C   0  0  0  0  0  0  0  0  0  0  0  0
  -22.6798   -6.1073   23.4092 C   0  0  0  0  0  0  0  0  0  0  0  0
  -20.3695   -5.8946   24.9584 C   0  0  0  0  0  0  0  0  0  0  0  0
  -22.7720   -5.7435   24.7526 C   0  0  0  0  0  0  0  0  0  0  0  0
  -25.7780  -19.3836   20.9023 C   0  0  0  0  0  0  0  0  0  0  0  0
  -24.9513  -11.1818   20.3321 C   0  0  0  0  0  0  0  0  0  0  0  0
  -24.8117  -13.1136   19.2911 C   0  0  0  0  0  0  0  0  0  0  0  0
  -22.6518  -11.8603   19.4012 C   0  0  0  0  0  0  0  0  0  0  0  0
  -28.2493  -27.5462   21.1777 C   0  0  0  0  0  0  0  0  0  0  0  0
  -26.5185  -29.9916   22.4214 C   0  0  0  0  0  0  0  0  0  0  0  0
  -23.4770  -31.4954   22.7885 C   0  0  0  0  0  0  0  0  0  0  0  0
  -28.6509  -16.9862   20.4166 C   0  0  0  0  0  0  0  0  0  0  0  0
  -33.1680  -26.5341   20.2613 C   0  0  0  0  0  0  0  0  0  0  0  0
  -27.0245  -28.3837   19.1394 C   0  0  0  0  0  0  0  0  0  0  0  0
  -25.2122  -28.0622   21.4538 C   0  0  0  0  0  0  0  0  0  0  0  0
  -32.3995  -27.4257   21.2332 C   0  0  0  0  0  0  0  0  0  0  0  0
  -29.8270  -13.7942   19.3656 C   0  0  0  0  0  0  0  0  0  0  0  0
  -31.2848  -26.6374   21.9136 C   0  0  0  0  0  0  0  0  0  0  0  0
  -28.5893  -12.8999   19.4683 C   0  0  0  0  0  0  0  0  0  0  0  0
  -29.8764  -14.8258   20.4913 C   0  0  0  0  0  0  0  0  0  0  0  0
  -27.4268  -14.7476   20.7418 C   0  0  0  0  0  0  0  0  0  0  0  0
  -30.2685  -26.1216   20.8877 C   0  0  1  0  0  0  0  0  0  0  0  0
  -27.4807  -28.6823   20.5642 C   0  0  1  0  0  0  0  0  0  0  0  0
  -27.2996  -13.7347   19.5922 C   0  0  2  0  0  0  0  0  0  0  0  0
  -22.3708  -33.4591   23.8918 C   0  0  0  0  0  0  0  0  0  0  0  0
  -26.6508  -28.5530   25.1090 C   0  0  0  0  0  0  0  0  0  0  0  0
  -24.7846  -30.0189   25.9068 C   0  0  0  0  0  0  0  0  0  0  0  0
  -26.9636  -31.0310   25.2357 C   0  0  0  0  0  0  0  0  0  0  0  0
  -22.6189  -32.6203   20.1890 C   0  0  0  0  0  0  0  0  0  0  0  0
  -24.1212  -21.2384   21.3746 C   0  0  0  0  0  0  0  0  0  0  0  0
  -21.8977  -22.5682   18.5552 C   0  0  0  0  0  0  0  0  0  0  0  0
  -22.2710  -22.1600   19.9724 C   0  0  0  0  0  0  0  0  0  0  0  0
  -22.7534  -23.6988   17.9973 C   0  0  0  0  0  0  0  0  0  1  0  0
  -25.4240  -30.1097   23.4544 C   0  0  1  0  0  0  0  0  0  0  0  0
  -23.0425  -32.9412   22.6296 C   0  0  2  0  0  0  0  0  0  0  0  0
  -25.9526  -29.9120   24.9032 C   0  0  0  0  0  0  0  0  0  0  0  0
  -26.1896  -11.6798   20.3836 N   0  0  0  0  0  0  0  0  0  0  0  0
  -26.0726  -12.8549   19.7422 N   0  0  0  0  0  0  0  0  0  0  0  0
  -26.3646  -28.9783   21.4647 N   0  0  0  0  0  0  0  0  0  0  0  0
  -28.6230  -15.5814   20.5454 N   0  0  0  0  0  0  0  0  0  0  0  0
  -24.5186  -14.2508   18.6255 N   0  0  0  0  0  0  0  0  0  0  0  0
  -22.0263  -10.6904   19.8533 N   0  0  0  0  0  0  0  0  0  0  0  0
  -27.3959  -17.5933   20.4506 N   0  0  0  0  0  0  0  0  0  0  0  0
  -29.3829  -27.1885   20.4731 N   0  0  0  0  0  0  0  0  0  0  0  0
  -24.7820  -31.3992   23.2233 N   0  0  0  0  0  0  0  0  0  0  0  0
  -22.0813  -33.0719   21.4982 N   0  3  0  0  0  0  0  0  0  0  0  0
  -23.6616  -21.6504   20.0195 N   0  3  0  0  0  0  0  0  0  0  0  0
  -21.9799  -12.7111   18.7702 O   0  0  0  0  0  0  0  0  0  0  0  0
  -27.8445  -27.0331   22.2143 O   0  0  0  0  0  0  0  0  0  0  0  0
  -27.4712  -30.7743   22.4577 O   0  0  0  0  0  0  0  0  0  0  0  0
  -22.7321  -30.5464   22.5541 O   0  0  0  0  0  0  0  0  0  0  0  0
  -29.7078  -17.6026   20.2584 O   0  0  0  0  0  0  0  0  0  0  0  0
  -23.8257   -6.2141   22.6391 O   0  0  0  0  0  0  0  0  0  0  0  0
  -22.6160  -24.8382   18.8454 O   0  0  0  0  0  0  0  0  0  1  0  0
  -19.2603   -5.7940   25.7026 F   0  0  0  0  0  0  0  0  0  0  0  0
  -23.9676   -5.4960   25.3049 F   0  0  0  0  0  0  0  0  0  0  0  0
  -24.4865  -18.4032   20.2886 Cl  0  0  0  0  0  0  0  0  0  0  0  0
  1  2  1  0  0  0  0
  1  6  2  0  0  0  0
  2  7  2  0  0  0  0
  3  9  2  0  0  0  0
  3 10  1  0  0  0  0
  4 11  2  0  0  0  0
  4 18  1  0  0  0  0
  5 12  1  0  0  0  0
  5 18  2  0  0  0  0
  6 20  1  0  0  0  0
  7 22  1  0  0  0  0
  8 13  2  0  0  0  0
  8 21  1  0  0  0  0
  9 24  1  0  0  0  0
 10 25  2  0  0  0  0
 11 26  1  0  0  0  0
 12 26  2  0  0  0  0
 13 27  1  0  0  0  0
 14 15  2  0  0  0  0
 14 28  1  0  0  0  0
 15 29  1  0  0  0  0
 16 23  1  0  0  0  0
 16 27  2  0  0  0  0
 17 29  2  0  0  0  0
 17 30  1  0  0  0  0
 18 32  1  0  0  0  0
 19 32  1  0  0  0  0
 19 33  2  0  0  0  0
 19 34  1  0  0  0  0
 20 22  2  0  0  0  0
 20 39  1  0  0  0  0
 21 23  2  0  0  0  0
 21 40  1  0  0  0  0
 22 48  1  0  0  0  0
 23 41  1  0  0  0  0
 24 31  2  0  0  0  0
 24 56  1  0  0  0  0
 25 31  1  0  0  0  0
 25 69  1  0  0  0  0
 26 79  1  0  0  0  0
 27 80  1  0  0  0  0
 28 30  2  0  0  0  0
 28 79  1  0  0  0  0
 29 81  1  0  0  0  0
 30 82  1  0  0  0  0
 31 83  1  0  0  0  0
 32 63  2  0  0  0  0
 33 64  1  0  0  0  0
 33 67  1  0  0  0  0
 34 68  1  0  0  0  0
 34 74  2  0  0  0  0
 35 49  1  0  0  0  0
 35 70  1  0  0  0  0
 35 75  2  0  0  0  0
 36 60  1  0  0  0  0
 36 65  1  0  0  0  0
 36 76  2  0  0  0  0
 37 61  1  0  0  0  0
 37 71  1  0  0  0  0
 37 77  2  0  0  0  0
 38 66  1  0  0  0  0
 38 69  1  0  0  0  0
 38 78  2  0  0  0  0
 39 42  1  0  0  0  0
 40 49  1  0  0  0  0
 41 65  1  0  0  0  0
 42 44  1  0  0  0  0
 43 45  1  0  0  0  0
 43 46  1  0  0  0  0
 44 48  1  0  0  0  0
 45 50  1  0  0  0  0
 46 66  1  0  0  0  0
 47 50  1  0  0  0  0
 47 66  1  0  0  0  0
 48 70  1  0  0  0  0
 49 65  1  0  0  0  0
 50 64  1  0  0  0  0
 51 61  1  0  0  0  0
 52 62  1  0  0  0  0
 53 62  1  0  0  0  0
 54 62  1  0  0  0  0
 55 72  1  0  0  0  0
 56 73  1  0  0  0  0
 57 58  1  0  0  0  0
 57 59  1  0  0  0  0
 58 73  1  0  0  0  0
 59 80  1  0  0  0  0
 60 62  1  0  0  0  0
 60 71  1  0  0  0  0
 61 72  1  0  0  0  0
 63 64  1  0  0  0  0
M  CHG  2  72   1  73   1
M  ISO  4  38 100  59 101  69 100  80 101
M  END
> <Batch ID>
0041

> <Smiles>
CNC(C)C(=O)NC(C(=O)N1Cc2cc([101O:1][101CH2:1]CCNCc3cccc([100NH:0][100C:0](=O)N4CCCC(n5nc(-c6ccc(Oc7ccc(F)cc7F)cc6)c(C(N)=O)c5N)C4)c3Cl)ccc2CC1C(=O)NC1CCCc2ccccc21)C(C)(C)C

> <Shape>
0.272

> <Color>
0.069

> <Negative vol penalty>
0.000

$$$$

  -OEChem-04042322093D

 85 93  0     1  0  0  0  0  0999 V2000
  -32.3121  -21.8224   21.9097 C   0  0  0  0  0  0  0  0  0  0  0  0
  -31.1663  -22.2418   22.5781 C   0  0  0  0  0  0  0  0  0  0  0  0
  -29.7742  -27.8328   20.1038 C   0  0  0  0  0  0  0  0  0  0  0  0
  -28.7614  -26.5079   21.8518 C   0  0  0  0  0  0  0  0  0  0  0  0
  -32.2005  -21.1267   20.7066 C   0  0  0  0  0  0  0  0  0  0  0  0
  -29.9083  -21.9665   22.0433 C   0  0  0  0  0  0  0  0  0  0  0  0
  -23.1912  -20.4898   24.0474 C   0  0  0  0  0  0  0  0  0  0  0  0
  -31.0398  -27.4412   20.5403 C   0  0  0  0  0  0  0  0  0  0  0  0
  -30.0270  -26.1163   22.2883 C   0  0  0  0  0  0  0  0  0  0  0  0
  -21.8830  -20.9197   23.8293 C   0  0  0  0  0  0  0  0  0  0  0  0
  -33.0415  -24.7301   20.2644 C   0  0  0  0  0  0  0  0  0  0  0  0
  -33.9676  -24.3371   19.2983 C   0  0  0  0  0  0  0  0  0  0  0  0
  -21.8102  -19.6414   21.7848 C   0  0  0  0  0  0  0  0  0  0  0  0
  -19.1937  -27.2319   23.7586 C   0  0  0  0  0  0  0  0  0  0  0  0
  -35.4530  -26.1078   20.0019 C   0  0  0  0  0  0  0  0  0  0  0  0
  -28.6350  -27.3662   20.7596 C   0  0  0  0  0  0  0  0  0  0  0  0
  -26.5202  -27.1258   19.3533 C   0  0  0  0  0  0  0  0  0  0  0  0
  -30.9403  -20.8343   20.1616 C   0  0  0  0  0  0  0  0  0  0  0  0
  -23.8236  -19.6398   23.1287 C   0  0  0  0  0  0  0  0  0  0  0  0
  -29.7799  -21.2674   20.8311 C   0  0  0  0  0  0  0  0  0  0  0  0
  -23.1256  -19.2002   21.9948 C   0  0  0  0  0  0  0  0  0  0  0  0
  -19.5693  -28.2286   22.8581 C   0  0  0  0  0  0  0  0  0  0  0  0
  -19.4268  -28.0190   21.4865 C   0  0  0  0  0  0  0  0  0  0  0  0
  -18.9089  -26.8125   21.0153 C   0  0  0  0  0  0  0  0  0  0  0  0
  -18.5334  -25.8157   21.9159 C   0  0  0  0  0  0  0  0  0  0  0  0
  -31.1662  -26.5830   21.6325 C   0  0  0  0  0  0  0  0  0  0  0  0
  -21.1933  -20.4978   22.6964 C   0  0  0  0  0  0  0  0  0  0  0  0
  -33.3211  -25.8120   21.0993 C   0  0  0  0  0  0  0  0  0  0  0  0
  -35.1734  -25.0259   19.1670 C   0  0  0  0  0  0  0  0  0  0  0  0
  -34.5269  -26.5008   20.9680 C   0  0  0  0  0  0  0  0  0  0  0  0
  -18.6759  -26.0254   23.2876 C   0  0  0  0  0  0  0  0  0  0  0  0
  -27.3274  -27.7707   20.3095 C   0  0  0  0  0  0  0  0  0  0  0  0
  -25.3868  -27.8985   19.2833 C   0  0  0  0  0  0  0  0  0  0  0  0
  -26.7724  -25.9347   18.5960 C   0  0  0  0  0  0  0  0  0  0  0  0
  -26.3911  -19.8607   21.2678 C   0  0  0  0  0  0  0  0  0  0  0  0
  -25.7327  -16.7445   20.6527 C   0  0  0  0  0  0  0  0  0  0  0  0
  -23.4205  -14.2363   20.5557 C   0  0  0  0  0  0  0  0  0  0  0  0
  -21.9195  -31.0637   22.6706 C   0  0  0  0  0  0  0  0  0  0  0  0
  -30.8710  -20.1209   18.8346 C   0  0  0  0  0  0  0  0  0  0  0  0
  -25.2259  -19.1637   23.3921 C   0  0  0  0  0  0  0  0  0  0  0  0
  -23.7525  -18.2714   20.9884 C   0  0  0  0  0  0  0  0  0  0  0  0
  -29.4927  -19.5421   18.5255 C   0  0  0  0  0  0  0  0  0  0  0  0
  -24.2753  -32.5685   20.4654 C   0  0  0  0  0  0  0  0  0  0  0  0
  -28.4046  -20.5715   18.8136 C   0  0  0  0  0  0  0  0  0  0  0  0
  -25.2275  -31.4248   20.1115 C   0  0  0  0  0  0  0  0  0  0  0  0
  -23.8045  -32.4827   21.9156 C   0  0  0  0  0  0  0  0  0  0  0  0
  -24.1623  -30.0445   21.9443 C   0  0  0  0  0  0  0  0  0  0  0  0
  -28.3969  -20.9662   20.2954 C   0  0  1  0  0  0  0  0  0  0  0  0
  -25.9503  -18.7105   22.1282 C   0  0  1  0  0  0  0  0  0  0  0  0
  -24.6202  -30.0566   20.4758 C   0  0  2  0  0  0  0  0  0  0  0  0
  -19.8307  -29.0901   20.5231 C   0  0  0  0  0  0  0  0  0  0  0  0
  -18.7564  -26.5895   19.5434 C   0  0  0  0  0  0  0  0  0  0  0  0
  -23.1721  -11.8075   19.9758 C   0  0  0  0  0  0  0  0  0  0  0  0
  -25.7735  -17.4515   17.6848 C   0  0  0  0  0  0  0  0  0  0  0  0
  -24.6103  -15.2830   17.2236 C   0  0  0  0  0  0  0  0  0  0  0  0
  -26.8812  -15.2833   18.2560 C   0  0  0  0  0  0  0  0  0  0  0  0
  -22.6117  -13.5405   23.3162 C   0  0  0  0  0  0  0  0  0  0  0  0
  -20.1211  -29.5114   23.3882 C   0  0  0  0  0  0  0  0  0  0  0  0
  -17.9779  -24.5229   21.3953 C   0  0  0  0  0  0  0  0  0  0  0  0
  -18.4071  -22.0907   21.0229 C   0  0  0  0  0  0  0  0  0  0  0  0
  -19.4934  -21.0380   21.1234 C   0  0  0  0  0  0  0  0  0  1  0  0
  -24.8918  -16.0099   19.6368 C   0  0  1  0  0  0  0  0  0  0  0  0
  -23.4562  -12.8126   21.0811 C   0  0  2  0  0  0  0  0  0  0  0  0
  -25.5278  -16.0260   18.2181 C   0  0  0  0  0  0  0  0  0  0  0  0
  -26.7554  -28.8687   20.8109 N   0  0  0  0  0  0  0  0  0  0  0  0
  -25.5768  -28.9197   20.1672 N   0  0  0  0  0  0  0  0  0  0  0  0
  -25.1277  -17.8388   21.2871 N   0  0  0  0  0  0  0  0  0  0  0  0
  -23.2378  -31.1612   22.1955 N   0  0  0  0  0  0  0  0  0  0  0  0
  -24.2563  -27.7972   18.5526 N   0  0  0  0  0  0  0  0  0  0  0  0
  -27.9875  -25.2640   18.7907 N   0  0  0  0  0  0  0  0  0  0  0  0
  -27.7592  -19.9377   21.0891 N   0  0  0  0  0  0  0  0  0  0  0  0
  -24.6728  -14.6730   20.1783 N   0  0  0  0  0  0  0  0  0  0  0  0
  -21.4581  -29.7741   22.9042 N   0  0  0  0  0  0  0  0  0  0  0  0
  -22.4385  -12.6309   22.1545 N   0  3  0  0  0  0  0  0  0  0  0  0
  -18.9476  -23.3973   21.4756 N   0  3  0  0  0  0  0  0  0  0  0  0
  -25.9517  -25.4879   17.7592 O   0  0  0  0  0  0  0  0  0  0  0  0
  -25.5521  -20.6212   20.7994 O   0  0  0  0  0  0  0  0  0  0  0  0
  -26.8816  -16.3573   20.8804 O   0  0  0  0  0  0  0  0  0  0  0  0
  -22.3847  -14.8940   20.4835 O   0  0  0  0  0  0  0  0  0  0  0  0
  -21.2048  -32.0525   22.8665 O   0  0  0  0  0  0  0  0  0  0  0  0
  -32.4010  -26.2005   22.0586 O   0  0  0  0  0  0  0  0  0  0  0  0
  -19.9165  -20.9164   22.4808 O   0  0  0  0  0  0  0  0  0  1  0  0
  -36.0632  -24.6475   18.2402 F   0  0  0  0  0  0  0  0  0  0  0  0
  -34.8017  -27.5402   21.7680 F   0  0  0  0  0  0  0  0  0  0  0  0
  -18.2223  -24.8176   24.4352 Cl  0  0  0  0  0  0  0  0  0  0  0  0
  1  2  1  0  0  0  0
  1  5  2  0  0  0  0
  2  6  2  0  0  0  0
  3  8  2  0  0  0  0
  3 16  1  0  0  0  0
  4  9  1  0  0  0  0
  4 16  2  0  0  0  0
  5 18  1  0  0  0  0
  6 20  1  0  0  0  0
  7 10  2  0  0  0  0
  7 19  1  0  0  0  0
  8 26  1  0  0  0  0
  9 26  2  0  0  0  0
 10 27  1  0  0  0  0
 11 12  2  0  0  0  0
 11 28  1  0  0  0  0
 12 29  1  0  0  0  0
 13 21  1  0  0  0  0
 13 27  2  0  0  0  0
 14 22  1  0  0  0  0
 14 31  2  0  0  0  0
 15 29  2  0  0  0  0
 15 30  1  0  0  0  0
 16 32  1  0  0  0  0
 17 32  1  0  0  0  0
 17 33  2  0  0  0  0
 17 34  1  0  0  0  0
 18 20  2  0  0  0  0
 18 39  1  0  0  0  0
 19 21  2  0  0  0  0
 19 40  1  0  0  0  0
 20 48  1  0  0  0  0
 21 41  1  0  0  0  0
 22 23  2  0  0  0  0
 22 58  1  0  0  0  0
 23 24  1  0  0  0  0
 23 51  1  0  0  0  0
 24 25  2  0  0  0  0
 24 52  1  0  0  0  0
 25 31  1  0  0  0  0
 25 59  1  0  0  0  0
 26 81  1  0  0  0  0
 27 82  1  0  0  0  0
 28 30  2  0  0  0  0
 28 81  1  0  0  0  0
 29 83  1  0  0  0  0
 30 84  1  0  0  0  0
 31 85  1  0  0  0  0
 32 65  2  0  0  0  0
 33 66  1  0  0  0  0
 33 69  1  0  0  0  0
 34 70  1  0  0  0  0
 34 76  2  0  0  0  0
 35 49  1  0  0  0  0
 35 71  1  0  0  0  0
 35 77  2  0  0  0  0
 36 62  1  0  0  0  0
 36 67  1  0  0  0  0
 36 78  2  0  0  0  0
 37 63  1  0  0  0  0
 37 72  1  0  0  0  0
 37 79  2  0  0  0  0
 38 68  1  0  0  0  0
 38 73  1  0  0  0  0
 38 80  2  0  0  0  0
 39 42  1  0  0  0  0
 40 49  1  0  0  0  0
 41 67  1  0  0  0  0
 42 44  1  0  0  0  0
 43 45  1  0  0  0  0
 43 46  1  0  0  0  0
 44 48  1  0  0  0  0
 45 50  1  0  0  0  0
 46 68  1  0  0  0  0
 47 50  1  0  0  0  0
 47 68  1  0  0  0  0
 48 71  1  0  0  0  0
 49 67  1  0  0  0  0
 50 66  1  0  0  0  0
 53 63  1  0  0  0  0
 54 64  1  0  0  0  0
 55 64  1  0  0  0  0
 56 64  1  0  0  0  0
 57 74  1  0  0  0  0
 58 73  1  0  0  0  0
 59 75  1  0  0  0  0
 60 61  1  0  0  0  0
 60 75  1  0  0  0  0
 61 82  1  0  0  0  0
 62 64  1  0  0  0  0
 62 72  1  0  0  0  0
 63 74  1  0  0  0  0
 65 66  1  0  0  0  0
M  CHG  2  74   1  75   1
M  ISO  4  38 100  61 101  73 100  82 101
M  END
> <Batch ID>
0041

> <Smiles>
CNC(C)C(=O)NC(C(=O)N1Cc2cc([101O:1][101CH2:1]CNCc3c(Cl)cc(C[100NH:0][100C:0](=O)N4CCCC(n5nc(-c6ccc(Oc7ccc(F)cc7F)cc6)c(C(N)=O)c5N)C4)c(C)c3C)ccc2CC1C(=O)NC1CCCc2ccccc21)C(C)(C)C

> <Shape>
0.210

> <Color>
0.087

> <Negative vol penalty>
0.000

$$$$
