
  -OEChem-04042322123D

 85 93  0     1  0  0  0  0  0999 V2000
  -32.6160  -23.8046   17.3909 C   0  0  0  0  0  0  0  0  0  0  0  0
  -31.6478  -23.3759   18.2932 C   0  0  0  0  0  0  0  0  0  0  0  0
  -30.5032  -17.0198   22.8269 C   0  0  0  0  0  0  0  0  0  0  0  0
  -28.2252  -16.7161   22.0813 C   0  0  0  0  0  0  0  0  0  0  0  0
  -33.1271  -25.0986   17.4811 C   0  0  0  0  0  0  0  0  0  0  0  0
  -31.1907  -24.2408   19.2870 C   0  0  0  0  0  0  0  0  0  0  0  0
  -26.1507  -24.1526   19.7719 C   0  0  0  0  0  0  0  0  0  0  0  0
  -22.2690  -20.9458   28.6088 C   0  0  0  0  0  0  0  0  0  0  0  0
  -30.7435  -15.6576   22.6478 C   0  0  0  0  0  0  0  0  0  0  0  0
  -28.4655  -15.3538   21.9022 C   0  0  0  0  0  0  0  0  0  0  0  0
  -25.5964  -23.0765   20.4637 C   0  0  0  0  0  0  0  0  0  0  0  0
  -29.9540  -13.3694   19.6071 C   0  0  0  0  0  0  0  0  0  0  0  0
  -29.4914  -12.7806   18.4303 C   0  0  0  0  0  0  0  0  0  0  0  0
  -21.6114  -20.0083   29.4051 C   0  0  0  0  0  0  0  0  0  0  0  0
  -25.3914  -24.4554   22.4324 C   0  0  0  0  0  0  0  0  0  0  0  0
  -20.5983  -19.0451   27.4346 C   0  0  0  0  0  0  0  0  0  0  0  0
  -28.1194  -11.2711   19.7249 C   0  0  0  0  0  0  0  0  0  0  0  0
  -29.2440  -17.5491   22.5437 C   0  0  0  0  0  0  0  0  0  0  0  0
  -29.1683  -19.9822   21.7810 C   0  0  0  0  0  0  0  0  0  0  0  0
  -32.6691  -25.9830   18.4704 C   0  0  0  0  0  0  0  0  0  0  0  0
  -26.3400  -25.3871   20.4095 C   0  0  0  0  0  0  0  0  0  0  0  0
  -31.6971  -25.5475   19.3913 C   0  0  0  0  0  0  0  0  0  0  0  0
  -25.9460  -25.5463   21.7458 C   0  0  0  0  0  0  0  0  0  0  0  0
  -22.0912  -20.9330   27.2253 C   0  0  0  0  0  0  0  0  0  0  0  0
  -21.2558  -19.9827   26.6382 C   0  0  0  0  0  0  0  0  0  0  0  0
  -29.7247  -14.8246   22.1854 C   0  0  0  0  0  0  0  0  0  0  0  0
  -25.2193  -23.2270   21.7949 C   0  0  0  0  0  0  0  0  0  0  0  0
  -29.4993  -12.9091   20.8429 C   0  0  0  0  0  0  0  0  0  0  0  0
  -28.5741  -11.7314   18.4892 C   0  0  0  0  0  0  0  0  0  0  0  0
  -28.5820  -11.8599   20.9018 C   0  0  0  0  0  0  0  0  0  0  0  0
  -20.7761  -19.0579   28.8181 C   0  0  0  0  0  0  0  0  0  0  0  0
  -28.9950  -18.9561   22.7291 C   0  0  0  0  0  0  0  0  0  0  0  0
  -28.7981  -21.1274   22.4428 C   0  0  0  0  0  0  0  0  0  0  0  0
  -29.6231  -19.9070   20.4233 C   0  0  0  0  0  0  0  0  0  0  0  0
  -28.8646  -27.1892   21.1043 C   0  0  0  0  0  0  0  0  0  0  0  0
  -26.6015  -29.2999   22.0767 C   0  0  0  0  0  0  0  0  0  0  0  0
  -22.5362  -20.2832   23.1809 C   0  0  0  0  0  0  0  0  0  0  0  0
  -23.4191  -29.8269   23.1911 C   0  0  0  0  0  0  0  0  0  0  0  0
  -25.1752  -22.1562   27.0976 C   0  0  0  0  0  0  0  0  0  0  0  0
  -33.2855  -27.3567   18.5578 C   0  0  0  0  0  0  0  0  0  0  0  0
  -26.9146  -26.5458   19.6415 C   0  0  0  0  0  0  0  0  0  0  0  0
  -26.1094  -26.8568   22.4699 C   0  0  0  0  0  0  0  0  0  0  0  0
  -32.4767  -28.3344   19.4065 C   0  0  0  0  0  0  0  0  0  0  0  0
  -28.6181  -23.0235   26.8318 C   0  0  0  0  0  0  0  0  0  0  0  0
  -32.0570  -27.6811   20.7194 C   0  0  0  0  0  0  0  0  0  0  0  0
  -29.1207  -22.1721   25.6646 C   0  0  0  0  0  0  0  0  0  0  0  0
  -27.5823  -22.2773   27.6698 C   0  0  0  0  0  0  0  0  0  0  0  0
  -26.9452  -20.8837   25.7396 C   0  0  0  0  0  0  0  0  0  0  0  0
  -31.1581  -26.4645   20.4677 C   0  0  1  0  0  0  0  0  0  0  0  0
  -27.5364  -27.6094   20.5412 C   0  0  1  0  0  0  0  0  0  0  0  0
  -27.9503  -21.6141   24.8327 C   0  0  2  0  0  0  0  0  0  0  0  0
  -21.8709  -31.6553   23.9378 C   0  0  0  0  0  0  0  0  0  0  0  0
  -28.0580  -29.4365   24.7543 C   0  0  0  0  0  0  0  0  0  0  0  0
  -26.0073  -30.4836   25.7374 C   0  0  0  0  0  0  0  0  0  0  0  0
  -27.2369  -31.6388   23.8999 C   0  0  0  0  0  0  0  0  0  0  0  0
  -21.5074  -29.2600   21.0041 C   0  0  0  0  0  0  0  0  0  0  0  0
  -22.8048  -21.9471   26.3929 C   0  0  0  0  0  0  0  0  0  0  0  0
  -21.0479  -19.9505   25.1517 C   0  0  0  0  0  0  0  0  0  0  0  0
  -23.9202  -19.9036   22.6780 C   0  0  0  0  0  0  0  0  0  0  0  0
  -24.5261  -20.9523   21.7581 C   0  0  0  0  0  0  0  0  0  1  0  0
  -25.8799  -29.5713   23.3747 C   0  0  1  0  0  0  0  0  0  0  0  0
  -22.3532  -30.8192   22.7626 C   0  0  2  0  0  0  0  0  0  0  0  0
  -26.7941  -30.2571   24.4288 C   0  0  0  0  0  0  0  0  0  0  0  0
  -28.5496  -19.4094   23.9038 N   0  0  0  0  0  0  0  0  0  0  0  0
  -28.4398  -20.7330   23.6983 N   0  0  0  0  0  0  0  0  0  0  0  0
  -26.6818  -27.9581   21.6780 N   0  0  0  0  0  0  0  0  0  0  0  0
  -26.4987  -21.7753   26.8215 N   0  0  0  0  0  0  0  0  0  0  0  0
  -28.7473  -22.4231   22.0676 N   0  0  0  0  0  0  0  0  0  0  0  0
  -29.9623  -18.6514   19.9010 N   0  0  0  0  0  0  0  0  0  0  0  0
  -29.8126  -26.8885   20.1449 N   0  0  0  0  0  0  0  0  0  0  0  0
  -22.2872  -19.7478   24.4365 N   0  0  0  0  0  0  0  0  0  0  0  0
  -24.6889  -30.3387   23.0269 N   0  0  0  0  0  0  0  0  0  0  0  0
  -24.2098  -21.6410   26.2413 N   0  0  0  0  0  0  0  0  0  0  0  0
  -21.1817  -30.1030   22.1832 N   0  3  0  0  0  0  0  0  0  0  0  0
  -29.7413  -20.9251   19.7002 O   0  0  0  0  0  0  0  0  0  0  0  0
  -29.0184  -27.1427   22.3191 O   0  0  0  0  0  0  0  0  0  0  0  0
  -27.0702  -30.2444   21.4365 O   0  0  0  0  0  0  0  0  0  0  0  0
  -21.7533  -20.9780   22.5387 O   0  0  0  0  0  0  0  0  0  0  0  0
  -23.1520  -28.7109   23.6312 O   0  0  0  0  0  0  0  0  0  0  0  0
  -24.8766  -22.9047   28.0344 O   0  0  0  0  0  0  0  0  0  0  0  0
  -29.9589  -13.4953   22.0103 O   0  0  0  0  0  0  0  0  0  0  0  0
  -24.6786  -22.1781   22.4727 O   0  0  0  0  0  0  0  0  0  1  0  0
  -28.1289  -11.1671   17.3590 F   0  0  0  0  0  0  0  0  0  0  0  0
  -28.1407  -11.4141   22.0859 F   0  0  0  0  0  0  0  0  0  0  0  0
  -19.9637  -17.9027   29.8010 Cl  0  0  0  0  0  0  0  0  0  0  0  0
  1  2  1  0  0  0  0
  1  5  2  0  0  0  0
  2  6  2  0  0  0  0
  3  9  2  0  0  0  0
  3 18  1  0  0  0  0
  4 10  1  0  0  0  0
  4 18  2  0  0  0  0
  5 20  1  0  0  0  0
  6 22  1  0  0  0  0
  7 11  2  0  0  0  0
  7 21  1  0  0  0  0
  8 14  2  0  0  0  0
  8 24  1  0  0  0  0
  9 26  1  0  0  0  0
 10 26  2  0  0  0  0
 11 27  1  0  0  0  0
 12 13  2  0  0  0  0
 12 28  1  0  0  0  0
 13 29  1  0  0  0  0
 14 31  1  0  0  0  0
 15 23  1  0  0  0  0
 15 27  2  0  0  0  0
 16 25  1  0  0  0  0
 16 31  2  0  0  0  0
 17 29  2  0  0  0  0
 17 30  1  0  0  0  0
 18 32  1  0  0  0  0
 19 32  1  0  0  0  0
 19 33  2  0  0  0  0
 19 34  1  0  0  0  0
 20 22  2  0  0  0  0
 20 40  1  0  0  0  0
 21 23  2  0  0  0  0
 21 41  1  0  0  0  0
 22 49  1  0  0  0  0
 23 42  1  0  0  0  0
 24 25  2  0  0  0  0
 24 57  1  0  0  0  0
 25 58  1  0  0  0  0
 26 81  1  0  0  0  0
 27 82  1  0  0  0  0
 28 30  2  0  0  0  0
 28 81  1  0  0  0  0
 29 83  1  0  0  0  0
 30 84  1  0  0  0  0
 31 85  1  0  0  0  0
 32 64  2  0  0  0  0
 33 65  1  0  0  0  0
 33 68  1  0  0  0  0
 34 69  1  0  0  0  0
 34 75  2  0  0  0  0
 35 50  1  0  0  0  0
 35 70  1  0  0  0  0
 35 76  2  0  0  0  0
 36 61  1  0  0  0  0
 36 66  1  0  0  0  0
 36 77  2  0  0  0  0
 37 59  1  0  0  0  0
 37 71  1  0  0  0  0
 37 78  2  0  0  0  0
 38 62  1  0  0  0  0
 38 72  1  0  0  0  0
 38 79  2  0  0  0  0
 39 67  1  0  0  0  0
 39 73  1  0  0  0  0
 39 80  2  0  0  0  0
 40 43  1  0  0  0  0
 41 50  1  0  0  0  0
 42 66  1  0  0  0  0
 43 45  1  0  0  0  0
 44 46  1  0  0  0  0
 44 47  1  0  0  0  0
 45 49  1  0  0  0  0
 46 51  1  0  0  0  0
 47 67  1  0  0  0  0
 48 51  1  0  0  0  0
 48 67  1  0  0  0  0
 49 70  1  0  0  0  0
 50 66  1  0  0  0  0
 51 65  1  0  0  0  0
 52 62  1  0  0  0  0
 53 63  1  0  0  0  0
 54 63  1  0  0  0  0
 55 63  1  0  0  0  0
 56 74  1  0  0  0  0
 57 73  1  0  0  0  0
 58 71  1  0  0  0  0
 59 60  1  0  0  0  0
 60 82  1  0  0  0  0
 61 63  1  0  0  0  0
 61 72  1  0  0  0  0
 62 74  1  0  0  0  0
 64 65  1  0  0  0  0
M  CHG  1  74   1
M  ISO  4  39 100  60 101  73 100  82 101
M  END
> <Batch ID>
0042

> <Smiles>
CNC(C)C(=O)NC(C(=O)N1Cc2cc([101O:1][101CH2:1]CC(=O)NCc3cc(Cl)ccc3C[100NH:0][100C:0](=O)N3CCCC(n4nc(-c5ccc(Oc6ccc(F)cc6F)cc5)c(C(N)=O)c4N)C3)ccc2CC1C(=O)NC1CCCc2ccccc21)C(C)(C)C

> <Shape>
0.205

> <Color>
0.057

> <Negative vol penalty>
0.000

$$$$

  -OEChem-04042322123D

 87 96  0     1  0  0  0  0  0999 V2000
  -19.1389  -33.4695   20.6773 C   0  0  0  0  0  0  0  0  0  0  0  0
  -20.4265  -33.0924   20.3097 C   0  0  0  0  0  0  0  0  0  0  0  0
  -21.6040  -14.0598   22.4569 C   0  0  0  0  0  0  0  0  0  0  0  0
  -22.1919  -12.5675   20.6501 C   0  0  0  0  0  0  0  0  0  0  0  0
  -18.5612  -32.9402   21.8306 C   0  0  0  0  0  0  0  0  0  0  0  0
  -21.1377  -32.1864   21.0958 C   0  0  0  0  0  0  0  0  0  0  0  0
  -25.1001  -27.9418   19.1497 C   0  0  0  0  0  0  0  0  0  0  0  0
  -20.8049  -13.0643   23.0191 C   0  0  0  0  0  0  0  0  0  0  0  0
  -21.3928  -11.5720   21.2123 C   0  0  0  0  0  0  0  0  0  0  0  0
  -26.4925  -27.9190   19.0825 C   0  0  0  0  0  0  0  0  0  0  0  0
  -21.6131   -9.3302   23.7316 C   0  0  0  0  0  0  0  0  0  0  0  0
  -22.1397   -8.0405   23.8005 C   0  0  0  0  0  0  0  0  0  0  0  0
  -26.5696  -26.7603   21.1968 C   0  0  0  0  0  0  0  0  0  0  0  0
  -29.2707  -20.5065   18.8222 C   0  0  0  0  0  0  0  0  0  0  0  0
  -28.6329  -22.7591   20.3393 C   0  0  0  0  0  0  0  0  0  0  0  0
  -20.3224   -7.2254   22.4330 C   0  0  0  0  0  0  0  0  0  0  0  0
  -22.2975  -13.8114   21.2723 C   0  0  0  0  0  0  0  0  0  0  0  0
  -22.7123  -16.1135   20.2545 C   0  0  0  0  0  0  0  0  0  0  0  0
  -19.2620  -32.0199   22.6260 C   0  0  0  0  0  0  0  0  0  0  0  0
  -24.4313  -27.3826   20.2481 C   0  0  0  0  0  0  0  0  0  0  0  0
  -20.5693  -31.6453   22.2615 C   0  0  0  0  0  0  0  0  0  0  0  0
  -25.1686  -26.7749   21.2743 C   0  0  0  0  0  0  0  0  0  0  0  0
  -29.4776  -21.7822   18.2974 C   0  0  0  0  0  0  0  0  0  0  0  0
  -29.1588  -22.9085   19.0559 C   0  0  0  0  0  0  0  0  0  0  0  0
  -28.7448  -20.3571   20.1054 C   0  0  0  0  0  0  0  0  0  0  0  0
  -20.6993  -11.8204   22.3968 C   0  0  0  0  0  0  0  0  0  0  0  0
  -27.2276  -27.3308   20.1075 C   0  0  0  0  0  0  0  0  0  0  0  0
  -20.4410   -9.5676   23.0134 C   0  0  0  0  0  0  0  0  0  0  0  0
  -21.4944   -6.9880   23.1512 C   0  0  0  0  0  0  0  0  0  0  0  0
  -19.7957   -8.5151   22.3641 C   0  0  0  0  0  0  0  0  0  0  0  0
  -28.4259  -21.4834   20.8640 C   0  0  0  0  0  0  0  0  0  0  0  0
  -23.1226  -14.8395   20.6908 C   0  0  0  0  0  0  0  0  0  0  0  0
  -23.8614  -16.7029   19.7870 C   0  0  0  0  0  0  0  0  0  0  0  0
  -21.4089  -16.7106   20.2703 C   0  0  0  0  0  0  0  0  0  0  0  0
  -22.5063  -28.5088   22.5130 C   0  0  0  0  0  0  0  0  0  0  0  0
  -22.2464  -25.3741   23.3058 C   0  0  0  0  0  0  0  0  0  0  0  0
  -23.6050  -22.2444   23.2307 C   0  0  0  0  0  0  0  0  0  0  0  0
  -29.2751  -17.9017   20.2952 C   0  0  0  0  0  0  0  0  0  0  0  0
  -18.6140  -31.5110   23.8892 C   0  0  0  0  0  0  0  0  0  0  0  0
  -22.9279  -27.3915   20.2926 C   0  0  0  0  0  0  0  0  0  0  0  0
  -24.4977  -26.1427   22.4654 C   0  0  0  0  0  0  0  0  0  0  0  0
  -19.2923  -30.2703   24.4645 C   0  0  0  0  0  0  0  0  0  0  0  0
  -32.7799  -26.5644   19.9829 C   0  0  0  0  0  0  0  0  0  0  0  0
  -28.4395  -14.7399   18.8872 C   0  0  0  0  0  0  0  0  0  0  0  0
  -32.5549  -25.1339   20.4470 C   0  0  0  0  0  0  0  0  0  0  0  0
  -20.8064  -30.4534   24.4906 C   0  0  0  0  0  0  0  0  0  0  0  0
  -26.9480  -14.5888   19.1950 C   0  0  0  0  0  0  0  0  0  0  0  0
  -31.4545  -27.2874   19.7864 C   0  0  0  0  0  0  0  0  0  0  0  0
  -29.1861  -15.4330   20.0256 C   0  0  0  0  0  0  0  0  0  0  0  0
  -27.1253  -16.5673   20.7574 C   0  0  0  0  0  0  0  0  0  0  0  0
  -31.6426  -24.3783   19.4957 C   0  0  0  0  0  0  0  0  0  0  0  0
  -21.3633  -30.6462   23.0749 C   0  0  1  0  0  0  0  0  0  0  0  0
  -22.3712  -27.2487   21.7058 C   0  0  1  0  0  0  0  0  0  0  0  0
  -26.3195  -15.9330   19.6119 C   0  0  2  0  0  0  0  0  0  0  0  0
  -30.5166  -26.5382   18.8314 C   0  0  2  0  0  0  0  0  0  0  0  0
  -30.0384  -21.9170   16.9197 C   0  0  0  0  0  0  0  0  0  0  0  0
  -23.1779  -19.8926   23.9951 C   0  0  0  0  0  0  0  0  0  0  0  0
  -23.0410  -26.1556   26.1462 C   0  0  0  0  0  0  0  0  0  0  0  0
  -23.5192  -23.7408   26.6022 C   0  0  0  0  0  0  0  0  0  0  0  0
  -21.2069  -24.4613   26.0048 C   0  0  0  0  0  0  0  0  0  0  0  0
  -23.5671  -21.2249   20.4526 C   0  0  0  0  0  0  0  0  0  0  0  0
  -29.3723  -24.2905   18.5125 C   0  0  0  0  0  0  0  0  0  0  0  0
  -29.1764  -27.2657   18.7459 C   0  0  0  0  0  0  0  0  0  1  0  0
  -22.9976  -24.4368   24.2201 C   0  0  1  0  0  0  0  0  0  0  0  0
  -23.0100  -20.8965   22.8651 C   0  0  2  0  0  0  0  0  0  0  0  0
  -22.7042  -24.7122   25.7220 C   0  0  0  0  0  0  0  0  0  0  0  0
  -24.4303  -14.6311   20.5160 N   0  0  0  0  0  0  0  0  0  0  0  0
  -24.8516  -15.7820   19.9645 N   0  0  0  0  0  0  0  0  0  0  0  0
  -23.0260  -26.1823   22.4662 N   0  0  0  0  0  0  0  0  0  0  0  0
  -28.5366  -16.7014   20.3634 N   0  0  0  0  0  0  0  0  0  0  0  0
  -24.1113  -17.9140   19.2455 N   0  0  0  0  0  0  0  0  0  0  0  0
  -20.5788  -16.5327   19.1552 N   0  0  0  0  0  0  0  0  0  0  0  0
  -28.5436  -19.0472   20.6070 N   0  0  0  0  0  0  0  0  0  0  0  0
  -21.4388  -29.3767   22.3842 N   0  0  0  0  0  0  0  0  0  0  0  0
  -22.6627  -23.0855   23.7839 N   0  0  0  0  0  0  0  0  0  0  0  0
  -30.3249  -25.1133   19.3462 N   0  3  1  0  0  0  0  0  0  0  0  0
  -23.6744  -20.3499   21.6483 N   0  3  0  0  0  0  0  0  0  0  0  0
  -20.9989  -17.3959   21.2377 O   0  0  0  0  0  0  0  0  0  0  0  0
  -23.5046  -28.6803   23.2027 O   0  0  0  0  0  0  0  0  0  0  0  0
  -21.0131  -25.3837   23.3304 O   0  0  0  0  0  0  0  0  0  0  0  0
  -24.7882  -22.5220   23.0476 O   0  0  0  0  0  0  0  0  0  0  0  0
  -30.4613  -17.9154   19.9567 O   0  0  0  0  0  0  0  0  0  0  0  0
  -19.9198  -10.8487   22.9453 O   0  0  0  0  0  0  0  0  0  0  0  0
  -28.5868  -27.3079   20.0448 O   0  0  0  0  0  0  0  0  0  1  0  0
  -22.0011   -5.7498   23.2161 F   0  0  0  0  0  0  0  0  0  0  0  0
  -18.6701   -8.7372   21.6716 F   0  0  0  0  0  0  0  0  0  0  0  0
  -27.7731  -21.3438   22.4577 Cl  0  0  0  0  0  0  0  0  0  0  0  0
  1  2  1  0  0  0  0
  1  5  2  0  0  0  0
  2  6  2  0  0  0  0
  3  8  2  0  0  0  0
  3 17  1  0  0  0  0
  4  9  1  0  0  0  0
  4 17  2  0  0  0  0
  5 19  1  0  0  0  0
  6 21  1  0  0  0  0
  7 10  2  0  0  0  0
  7 20  1  0  0  0  0
  8 26  1  0  0  0  0
  9 26  2  0  0  0  0
 10 27  1  0  0  0  0
 11 12  2  0  0  0  0
 11 28  1  0  0  0  0
 12 29  1  0  0  0  0
 13 22  1  0  0  0  0
 13 27  2  0  0  0  0
 14 23  1  0  0  0  0
 14 25  2  0  0  0  0
 15 24  1  0  0  0  0
 15 31  2  0  0  0  0
 16 29  2  0  0  0  0
 16 30  1  0  0  0  0
 17 32  1  0  0  0  0
 18 32  1  0  0  0  0
 18 33  2  0  0  0  0
 18 34  1  0  0  0  0
 19 21  2  0  0  0  0
 19 39  1  0  0  0  0
 20 22  2  0  0  0  0
 20 40  1  0  0  0  0
 21 52  1  0  0  0  0
 22 41  1  0  0  0  0
 23 24  2  0  0  0  0
 23 56  1  0  0  0  0
 24 62  1  0  0  0  0
 25 31  1  0  0  0  0
 25 73  1  0  0  0  0
 26 83  1  0  0  0  0
 27 84  1  0  0  0  0
 28 30  2  0  0  0  0
 28 83  1  0  0  0  0
 29 85  1  0  0  0  0
 30 86  1  0  0  0  0
 31 87  1  0  0  0  0
 32 67  2  0  0  0  0
 33 68  1  0  0  0  0
 33 71  1  0  0  0  0
 34 72  1  0  0  0  0
 34 78  2  0  0  0  0
 35 53  1  0  0  0  0
 35 74  1  0  0  0  0
 35 79  2  0  0  0  0
 36 64  1  0  0  0  0
 36 69  1  0  0  0  0
 36 80  2  0  0  0  0
 37 65  1  0  0  0  0
 37 75  1  0  0  0  0
 37 81  2  0  0  0  0
 38 70  1  0  0  0  0
 38 73  1  0  0  0  0
 38 82  2  0  0  0  0
 39 42  1  0  0  0  0
 40 53  1  0  0  0  0
 41 69  1  0  0  0  0
 42 46  1  0  0  0  0
 43 45  1  0  0  0  0
 43 48  1  0  0  0  0
 44 47  1  0  0  0  0
 44 49  1  0  0  0  0
 45 51  1  0  0  0  0
 46 52  1  0  0  0  0
 47 54  1  0  0  0  0
 48 55  1  0  0  0  0
 49 70  1  0  0  0  0
 50 54  1  0  0  0  0
 50 70  1  0  0  0  0
 51 76  1  0  0  0  0
 52 74  1  0  0  0  0
 53 69  1  0  0  0  0
 54 68  1  0  0  0  0
 55 63  1  0  0  0  0
 55 76  1  0  0  0  0
 57 65  1  0  0  0  0
 58 66  1  0  0  0  0
 59 66  1  0  0  0  0
 60 66  1  0  0  0  0
 61 77  1  0  0  0  0
 62 76  1  0  0  0  0
 63 84  1  0  0  0  0
 64 66  1  0  0  0  0
 64 75  1  0  0  0  0
 65 77  1  0  0  0  0
 67 68  1  0  0  0  0
M  CHG  2  76   1  77   1
M  ISO  4  38 100  63 101  73 100  84 101
M  END
> <Batch ID>
0042

> <Smiles>
CNC(C)C(=O)NC(C(=O)N1Cc2cc([101O:1][101CH2:1]C3CCCCN3Cc3cc(Cl)c([100NH:0][100C:0](=O)N4CCCC(n5nc(-c6ccc(Oc7ccc(F)cc7F)cc6)c(C(N)=O)c5N)C4)cc3C)ccc2CC1C(=O)NC1CCCc2ccccc21)C(C)(C)C

> <Shape>
0.224

> <Color>
0.082

> <Negative vol penalty>
0.000

$$$$

  -OEChem-04042322123D

 87 95  0     1  0  0  0  0  0999 V2000
  -21.9237  -11.2677   20.1689 C   0  0  0  0  0  0  0  0  0  0  0  0
  -21.6342  -12.6022   20.4352 C   0  0  0  0  0  0  0  0  0  0  0  0
  -29.4176  -26.1657   24.0157 C   0  0  0  0  0  0  0  0  0  0  0  0
  -27.3394  -26.2115   25.2469 C   0  0  0  0  0  0  0  0  0  0  0  0
  -23.2404  -10.8143   20.2369 C   0  0  0  0  0  0  0  0  0  0  0  0
  -22.6612  -13.4837   20.7707 C   0  0  0  0  0  0  0  0  0  0  0  0
  -22.3004  -17.9059   18.3296 C   0  0  0  0  0  0  0  0  0  0  0  0
  -30.1017  -25.8263   25.1829 C   0  0  0  0  0  0  0  0  0  0  0  0
  -28.0234  -25.8721   26.4141 C   0  0  0  0  0  0  0  0  0  0  0  0
  -21.3662  -18.8233   18.8087 C   0  0  0  0  0  0  0  0  0  0  0  0
  -29.3139  -23.0838   27.8216 C   0  0  0  0  0  0  0  0  0  0  0  0
  -28.7574  -22.0949   28.6327 C   0  0  0  0  0  0  0  0  0  0  0  0
  -23.1288  -20.0160   19.9445 C   0  0  0  0  0  0  0  0  0  0  0  0
  -18.9103  -27.8572   23.6063 C   0  0  0  0  0  0  0  0  0  0  0  0
  -28.6128  -23.6725   30.4568 C   0  0  0  0  0  0  0  0  0  0  0  0
  -28.0364  -26.3584   24.0476 C   0  0  0  0  0  0  0  0  0  0  0  0
  -27.2587  -25.9640   21.6503 C   0  0  0  0  0  0  0  0  0  0  0  0
  -24.2853  -11.6929   20.5640 C   0  0  0  0  0  0  0  0  0  0  0  0
  -23.6566  -18.0307   18.6639 C   0  0  0  0  0  0  0  0  0  0  0  0
  -23.9929  -13.0413   20.8444 C   0  0  0  0  0  0  0  0  0  0  0  0
  -24.0786  -19.1004   19.4663 C   0  0  0  0  0  0  0  0  0  0  0  0
  -19.6114  -28.3719   22.5158 C   0  0  0  0  0  0  0  0  0  0  0  0
  -19.7870  -27.5957   21.3703 C   0  0  0  0  0  0  0  0  0  0  0  0
  -19.2616  -26.3047   21.3152 C   0  0  0  0  0  0  0  0  0  0  0  0
  -18.5605  -25.7900   22.4057 C   0  0  0  0  0  0  0  0  0  0  0  0
  -29.4046  -25.6794   26.3821 C   0  0  0  0  0  0  0  0  0  0  0  0
  -21.7799  -19.8769   19.6186 C   0  0  0  0  0  0  0  0  0  0  0  0
  -29.5199  -24.3671   28.3281 C   0  0  0  0  0  0  0  0  0  0  0  0
  -28.4069  -22.3892   29.9503 C   0  0  0  0  0  0  0  0  0  0  0  0
  -29.1693  -24.6614   29.6457 C   0  0  0  0  0  0  0  0  0  0  0  0
  -18.3849  -26.5662   23.5513 C   0  0  0  0  0  0  0  0  0  0  0  0
  -27.3293  -26.7096   22.8423 C   0  0  0  0  0  0  0  0  0  0  0  0
  -26.4731  -26.7223   20.8171 C   0  0  0  0  0  0  0  0  0  0  0  0
  -27.8502  -24.6990   21.3253 C   0  0  0  0  0  0  0  0  0  0  0  0
  -25.7544  -16.2315   20.2342 C   0  0  0  0  0  0  0  0  0  0  0  0
  -27.8504  -18.5040   19.2517 C   0  0  0  0  0  0  0  0  0  0  0  0
  -20.1903  -23.0795   20.1008 C   0  0  0  0  0  0  0  0  0  0  0  0
  -28.3688  -21.7156   18.2203 C   0  0  0  0  0  0  0  0  0  0  0  0
  -22.2548  -30.8493   21.8290 C   0  0  0  0  0  0  0  0  0  0  0  0
  -25.6868  -11.1461   20.6713 C   0  0  0  0  0  0  0  0  0  0  0  0
  -24.6556  -17.0481   18.1172 C   0  0  0  0  0  0  0  0  0  0  0  0
  -25.5258  -19.2904   19.8375 C   0  0  0  0  0  0  0  0  0  0  0  0
  -26.7644  -12.2273   20.6675 C   0  0  0  0  0  0  0  0  0  0  0  0
  -25.2421  -31.2610   19.9360 C   0  0  0  0  0  0  0  0  0  0  0  0
  -26.3895  -13.3580   21.6203 C   0  0  0  0  0  0  0  0  0  0  0  0
  -26.1094  -30.0739   20.3587 C   0  0  0  0  0  0  0  0  0  0  0  0
  -24.4221  -31.8049   21.1039 C   0  0  0  0  0  0  0  0  0  0  0  0
  -24.4700  -29.6128   22.2291 C   0  0  0  0  0  0  0  0  0  0  0  0
  -25.0827  -14.0337   21.1876 C   0  0  1  0  0  0  0  0  0  0  0  0
  -25.9368  -16.9769   18.9424 C   0  0  1  0  0  0  0  0  0  0  0  0
  -25.2733  -28.9944   21.0721 C   0  0  2  0  0  0  0  0  0  0  0  0
  -20.5397  -28.1507   20.2024 C   0  0  0  0  0  0  0  0  0  0  0  0
  -18.0019  -24.4024   22.3329 C   0  0  0  0  0  0  0  0  0  0  0  0
  -29.6188  -23.7050   17.3388 C   0  0  0  0  0  0  0  0  0  0  0  0
  -28.6893  -18.8136   22.1689 C   0  0  0  0  0  0  0  0  0  0  0  0
  -29.7699  -20.9869   21.5549 C   0  0  0  0  0  0  0  0  0  0  0  0
  -30.5775  -18.8610   20.5298 C   0  0  0  0  0  0  0  0  0  0  0  0
  -21.7850  -24.9253   20.6505 C   0  0  0  0  0  0  0  0  0  0  0  0
  -27.8163  -20.9640   15.4116 C   0  0  0  0  0  0  0  0  0  0  0  0
  -20.1640  -29.7570   22.6001 C   0  0  0  0  0  0  0  0  0  0  0  0
  -19.4512  -25.4709   20.0812 C   0  0  0  0  0  0  0  0  0  0  0  0
  -21.3289  -22.1050   20.3171 C   0  0  0  0  0  0  0  0  0  1  0  0
  -28.3480  -19.8139   19.8133 C   0  0  1  0  0  0  0  0  0  0  0  0
  -29.1570  -22.2843   17.0542 C   0  0  2  0  0  0  0  0  0  0  0  0
  -29.3186  -19.6145   21.0115 C   0  0  0  0  0  0  0  0  0  0  0  0
  -26.6435  -27.8538   22.7762 N   0  0  0  0  0  0  0  0  0  0  0  0
  -26.1345  -27.8329   21.5326 N   0  0  0  0  0  0  0  0  0  0  0  0
  -26.4636  -18.2999   19.2835 N   0  0  0  0  0  0  0  0  0  0  0  0
  -23.6513  -30.7314   21.7359 N   0  0  0  0  0  0  0  0  0  0  0  0
  -26.0460  -26.5408   19.5494 N   0  0  0  0  0  0  0  0  0  0  0  0
  -29.1296  -24.6870   20.7532 N   0  0  0  0  0  0  0  0  0  0  0  0
  -25.3208  -14.9291   20.0758 N   0  0  0  0  0  0  0  0  0  0  0  0
  -28.9262  -20.5457   18.6914 N   0  0  0  0  0  0  0  0  0  0  0  0
  -21.6004  -29.7847   22.4364 N   0  0  0  0  0  0  0  0  0  0  0  0
  -20.4652  -24.4368   20.2708 N   0  0  0  0  0  0  0  0  0  0  0  0
  -28.3195  -22.3002   15.8216 N   0  3  0  0  0  0  0  0  0  0  0  0
  -27.2549  -23.6123   21.5209 O   0  0  0  0  0  0  0  0  0  0  0  0
  -25.9911  -16.7958   21.2959 O   0  0  0  0  0  0  0  0  0  0  0  0
  -28.6616  -17.6947   18.7949 O   0  0  0  0  0  0  0  0  0  0  0  0
  -19.0832  -22.6364   19.7799 O   0  0  0  0  0  0  0  0  0  0  0  0
  -27.3617  -22.2571   18.6708 O   0  0  0  0  0  0  0  0  0  0  0  0
  -21.6363  -31.8283   21.3976 O   0  0  0  0  0  0  0  0  0  0  0  0
  -30.0717  -25.3480   27.5213 O   0  0  0  0  0  0  0  0  0  0  0  0
  -20.8700  -20.7733   20.0881 O   0  0  0  0  0  0  0  0  0  1  0  0
  -27.8711  -21.4399   30.7287 F   0  0  0  0  0  0  0  0  0  0  0  0
  -29.3637  -25.8927   30.1375 F   0  0  0  0  0  0  0  0  0  0  0  0
  -17.5229  -25.9666   24.9220 Cl  0  0  0  0  0  0  0  0  0  0  0  0
  1  2  1  0  0  0  0
  1  5  2  0  0  0  0
  2  6  2  0  0  0  0
  3  8  2  0  0  0  0
  3 16  1  0  0  0  0
  4  9  1  0  0  0  0
  4 16  2  0  0  0  0
  5 18  1  0  0  0  0
  6 20  1  0  0  0  0
  7 10  2  0  0  0  0
  7 19  1  0  0  0  0
  8 26  1  0  0  0  0
  9 26  2  0  0  0  0
 10 27  1  0  0  0  0
 11 12  2  0  0  0  0
 11 28  1  0  0  0  0
 12 29  1  0  0  0  0
 13 21  1  0  0  0  0
 13 27  2  0  0  0  0
 14 22  2  0  0  0  0
 14 31  1  0  0  0  0
 15 29  2  0  0  0  0
 15 30  1  0  0  0  0
 16 32  1  0  0  0  0
 17 32  1  0  0  0  0
 17 33  2  0  0  0  0
 17 34  1  0  0  0  0
 18 20  2  0  0  0  0
 18 40  1  0  0  0  0
 19 21  2  0  0  0  0
 19 41  1  0  0  0  0
 20 49  1  0  0  0  0
 21 42  1  0  0  0  0
 22 23  1  0  0  0  0
 22 60  1  0  0  0  0
 23 24  2  0  0  0  0
 23 52  1  0  0  0  0
 24 25  1  0  0  0  0
 24 61  1  0  0  0  0
 25 31  2  0  0  0  0
 25 53  1  0  0  0  0
 26 83  1  0  0  0  0
 27 84  1  0  0  0  0
 28 30  2  0  0  0  0
 28 83  1  0  0  0  0
 29 85  1  0  0  0  0
 30 86  1  0  0  0  0
 31 87  1  0  0  0  0
 32 66  2  0  0  0  0
 33 67  1  0  0  0  0
 33 70  1  0  0  0  0
 34 71  1  0  0  0  0
 34 77  2  0  0  0  0
 35 50  1  0  0  0  0
 35 72  1  0  0  0  0
 35 78  2  0  0  0  0
 36 63  1  0  0  0  0
 36 68  1  0  0  0  0
 36 79  2  0  0  0  0
 37 62  1  0  0  0  0
 37 75  1  0  0  0  0
 37 80  2  0  0  0  0
 38 64  1  0  0  0  0
 38 73  1  0  0  0  0
 38 81  2  0  0  0  0
 39 69  1  0  0  0  0
 39 74  1  0  0  0  0
 39 82  2  0  0  0  0
 40 43  1  0  0  0  0
 41 50  1  0  0  0  0
 42 68  1  0  0  0  0
 43 45  1  0  0  0  0
 44 46  1  0  0  0  0
 44 47  1  0  0  0  0
 45 49  1  0  0  0  0
 46 51  1  0  0  0  0
 47 69  1  0  0  0  0
 48 51  1  0  0  0  0
 48 69  1  0  0  0  0
 49 72  1  0  0  0  0
 50 68  1  0  0  0  0
 51 67  1  0  0  0  0
 54 64  1  0  0  0  0
 55 65  1  0  0  0  0
 56 65  1  0  0  0  0
 57 65  1  0  0  0  0
 58 75  1  0  0  0  0
 59 76  1  0  0  0  0
 60 74  1  0  0  0  0
 61 75  1  0  0  0  0
 62 84  1  0  0  0  0
 63 65  1  0  0  0  0
 63 73  1  0  0  0  0
 64 76  1  0  0  0  0
 66 67  1  0  0  0  0
M  CHG  1  76   1
M  ISO  4  39 100  62 101  74 100  84 101
M  END
> <Batch ID>
0042

> <Smiles>
CNC(C)C(=O)NC(C(=O)N1Cc2cc([101O:1][101CH2:1]C(=O)N(C)Cc3c(C)c(Cl)cc(C[100NH:0][100C:0](=O)N4CCCC(n5nc(-c6ccc(Oc7ccc(F)cc7F)cc6)c(C(N)=O)c5N)C4)c3C)ccc2CC1C(=O)NC1CCCc2ccccc21)C(C)(C)C

> <Shape>
0.208

> <Color>
0.083

> <Negative vol penalty>
0.000

$$$$

  -OEChem-04042322123D

 84 92  0     1  0  0  0  0  0999 V2000
  -28.7636  -34.2946   19.8938 C   0  0  0  0  0  0  0  0  0  0  0  0
  -29.7491  -33.6038   20.5916 C   0  0  0  0  0  0  0  0  0  0  0  0
  -23.0670   -9.9293   19.9266 C   0  0  0  0  0  0  0  0  0  0  0  0
  -23.8407   -9.8997   22.2152 C   0  0  0  0  0  0  0  0  0  0  0  0
  -27.5068  -33.7191   19.7117 C   0  0  0  0  0  0  0  0  0  0  0  0
  -29.4781  -32.3375   21.1087 C   0  0  0  0  0  0  0  0  0  0  0  0
  -32.6585  -26.0643   22.4681 C   0  0  0  0  0  0  0  0  0  0  0  0
  -22.3117   -8.7816   20.1670 C   0  0  0  0  0  0  0  0  0  0  0  0
  -23.0854   -8.7519   22.4557 C   0  0  0  0  0  0  0  0  0  0  0  0
  -32.8395  -25.1510   23.5059 C   0  0  0  0  0  0  0  0  0  0  0  0
  -19.8521   -7.9828   23.0682 C   0  0  0  0  0  0  0  0  0  0  0  0
  -19.1018   -7.9370   24.2431 C   0  0  0  0  0  0  0  0  0  0  0  0
  -30.6577  -24.2229   23.0614 C   0  0  0  0  0  0  0  0  0  0  0  0
  -32.1463  -16.5213   22.5464 C   0  0  0  0  0  0  0  0  0  0  0  0
  -20.3258   -5.9769   24.9482 C   0  0  0  0  0  0  0  0  0  0  0  0
  -23.8315  -10.4884   20.9507 C   0  0  0  0  0  0  0  0  0  0  0  0
  -24.2010  -13.0108   20.8594 C   0  0  0  0  0  0  0  0  0  0  0  0
  -27.2232  -32.4410   20.2185 C   0  0  0  0  0  0  0  0  0  0  0  0
  -31.4693  -26.0709   21.7251 C   0  0  0  0  0  0  0  0  0  0  0  0
  -28.2159  -31.7449   20.9343 C   0  0  0  0  0  0  0  0  0  0  0  0
  -30.4652  -25.1356   22.0131 C   0  0  0  0  0  0  0  0  0  0  0  0
  -32.7694  -17.3788   23.4530 C   0  0  0  0  0  0  0  0  0  0  0  0
  -30.6158  -18.2679   24.0922 C   0  0  0  0  0  0  0  0  0  0  0  0
  -32.0041  -18.2521   24.2259 C   0  0  0  0  0  0  0  0  0  0  0  0
  -29.9927  -17.4104   23.1855 C   0  0  0  0  0  0  0  0  0  0  0  0
  -30.7579  -16.5371   22.4126 C   0  0  0  0  0  0  0  0  0  0  0  0
  -22.3209   -8.1929   21.4315 C   0  0  0  0  0  0  0  0  0  0  0  0
  -31.8378  -24.2320   23.8046 C   0  0  0  0  0  0  0  0  0  0  0  0
  -20.8392   -7.0257   22.8332 C   0  0  0  0  0  0  0  0  0  0  0  0
  -19.3387   -6.9340   25.1832 C   0  0  0  0  0  0  0  0  0  0  0  0
  -21.0761   -6.0227   23.7732 C   0  0  0  0  0  0  0  0  0  0  0  0
  -24.6124  -11.6737   20.7028 C   0  0  0  0  0  0  0  0  0  0  0  0
  -25.2993  -13.7525   20.4987 C   0  0  0  0  0  0  0  0  0  0  0  0
  -22.9389  -13.5356   21.2924 C   0  0  0  0  0  0  0  0  0  0  0  0
  -29.1432  -28.1807   21.2334 C   0  0  0  0  0  0  0  0  0  0  0  0
  -28.0978  -25.9511   19.1219 C   0  0  0  0  0  0  0  0  0  0  0  0
  -28.0500  -22.6806   18.1482 C   0  0  0  0  0  0  0  0  0  0  0  0
  -30.7778  -14.7348   20.6526 C   0  0  0  0  0  0  0  0  0  0  0  0
  -25.8351  -31.8798   20.0373 C   0  0  0  0  0  0  0  0  0  0  0  0
  -31.3005  -27.0450   20.5914 C   0  0  0  0  0  0  0  0  0  0  0  0
  -29.1782  -25.0880   21.2321 C   0  0  0  0  0  0  0  0  0  0  0  0
  -25.7473  -30.3775   20.2932 C   0  0  0  0  0  0  0  0  0  0  0  0
  -29.6222  -12.3628   18.2619 C   0  0  0  0  0  0  0  0  0  0  0  0
  -26.4772  -30.0118   21.5818 C   0  0  0  0  0  0  0  0  0  0  0  0
  -28.1819  -12.0821   18.6967 C   0  0  0  0  0  0  0  0  0  0  0  0
  -30.5470  -12.5666   19.4606 C   0  0  0  0  0  0  0  0  0  0  0  0
  -28.6566  -13.2953   20.8623 C   0  0  0  0  0  0  0  0  0  0  0  0
  -27.9680  -30.3589   21.4889 C   0  0  1  0  0  0  0  0  0  0  0  0
  -29.8392  -27.2995   20.2350 C   0  0  1  0  0  0  0  0  0  0  0  0
  -27.6749  -13.1474   19.6884 C   0  0  2  0  0  0  0  0  0  0  0  0
  -34.2579  -17.3448   23.5744 C   0  0  0  0  0  0  0  0  0  0  0  0
  -29.7955  -19.2051   24.9215 C   0  0  0  0  0  0  0  0  0  0  0  0
  -28.5028  -17.4304   23.0425 C   0  0  0  0  0  0  0  0  0  0  0  0
  -27.0779  -21.1578   16.4065 C   0  0  0  0  0  0  0  0  0  0  0  0
  -25.4004  -26.0500   20.5445 C   0  0  0  0  0  0  0  0  0  0  0  0
  -24.8052  -23.8953   19.4169 C   0  0  0  0  0  0  0  0  0  0  0  0
  -25.2607  -25.9319   18.0503 C   0  0  0  0  0  0  0  0  0  0  0  0
  -30.7307  -21.9130   17.1565 C   0  0  0  0  0  0  0  0  0  0  0  0
  -32.6777  -19.1741   25.1992 C   0  0  0  0  0  0  0  0  0  0  0  0
  -33.3314  -21.5327   25.6975 C   0  0  0  0  0  0  0  0  0  0  0  0
  -33.3481  -22.9230   25.0935 C   0  0  0  0  0  0  0  0  0  1  0  0
  -27.1813  -24.7540   19.1974 C   0  0  1  0  0  0  0  0  0  0  0  0
  -28.2623  -22.0298   16.7932 C   0  0  2  0  0  0  0  0  0  0  0  0
  -25.6852  -25.1597   19.3184 C   0  0  0  0  0  0  0  0  0  0  0  0
  -25.8735  -11.5689   20.2756 N   0  0  0  0  0  0  0  0  0  0  0  0
  -26.2641  -12.8496   20.1607 N   0  0  0  0  0  0  0  0  0  0  0  0
  -29.0579  -26.0649   20.1374 N   0  0  0  0  0  0  0  0  0  0  0  0
  -30.0049  -13.5928   20.3539 N   0  0  0  0  0  0  0  0  0  0  0  0
  -25.5242  -15.0823   20.4406 N   0  0  0  0  0  0  0  0  0  0  0  0
  -21.9189  -12.6337   21.6248 N   0  0  0  0  0  0  0  0  0  0  0  0
  -30.1458  -15.6569   21.4862 N   0  0  0  0  0  0  0  0  0  0  0  0
  -28.6701  -29.3662   20.7040 N   0  0  0  0  0  0  0  0  0  0  0  0
  -27.4852  -23.9329   18.0304 N   0  0  0  0  0  0  0  0  0  0  0  0
  -29.4856  -21.1789   16.8133 N   0  3  0  0  0  0  0  0  0  0  0  0
  -32.7239  -20.5851   24.7294 N   0  3  0  0  0  0  0  0  0  0  0  0
  -22.7168  -14.7680   21.3662 O   0  0  0  0  0  0  0  0  0  0  0  0
  -29.0417  -27.8117   22.3975 O   0  0  0  0  0  0  0  0  0  0  0  0
  -27.9715  -26.7518   18.1921 O   0  0  0  0  0  0  0  0  0  0  0  0
  -28.3513  -22.1313   19.2055 O   0  0  0  0  0  0  0  0  0  0  0  0
  -31.9059  -14.8966   20.1801 O   0  0  0  0  0  0  0  0  0  0  0  0
  -21.5838   -7.0730   21.6666 O   0  0  0  0  0  0  0  0  0  0  0  0
  -32.0116  -23.3399   24.8174 O   0  0  0  0  0  0  0  0  0  1  0  0
  -18.6191   -6.8910   26.3121 F   0  0  0  0  0  0  0  0  0  0  0  0
  -22.0238   -5.1011   23.5536 F   0  0  0  0  0  0  0  0  0  0  0  0
  1  2  1  0  0  0  0
  1  5  2  0  0  0  0
  2  6  2  0  0  0  0
  3  8  2  0  0  0  0
  3 16  1  0  0  0  0
  4  9  1  0  0  0  0
  4 16  2  0  0  0  0
  5 18  1  0  0  0  0
  6 20  1  0  0  0  0
  7 10  2  0  0  0  0
  7 19  1  0  0  0  0
  8 27  1  0  0  0  0
  9 27  2  0  0  0  0
 10 28  1  0  0  0  0
 11 12  2  0  0  0  0
 11 29  1  0  0  0  0
 12 30  1  0  0  0  0
 13 21  1  0  0  0  0
 13 28  2  0  0  0  0
 14 22  2  0  0  0  0
 14 26  1  0  0  0  0
 15 30  2  0  0  0  0
 15 31  1  0  0  0  0
 16 32  1  0  0  0  0
 17 32  1  0  0  0  0
 17 33  2  0  0  0  0
 17 34  1  0  0  0  0
 18 20  2  0  0  0  0
 18 39  1  0  0  0  0
 19 21  2  0  0  0  0
 19 40  1  0  0  0  0
 20 48  1  0  0  0  0
 21 41  1  0  0  0  0
 22 24  1  0  0  0  0
 22 51  1  0  0  0  0
 23 24  2  0  0  0  0
 23 25  1  0  0  0  0
 23 52  1  0  0  0  0
 24 59  1  0  0  0  0
 25 26  2  0  0  0  0
 25 53  1  0  0  0  0
 26 71  1  0  0  0  0
 27 81  1  0  0  0  0
 28 82  1  0  0  0  0
 29 31  2  0  0  0  0
 29 81  1  0  0  0  0
 30 83  1  0  0  0  0
 31 84  1  0  0  0  0
 32 65  2  0  0  0  0
 33 66  1  0  0  0  0
 33 69  1  0  0  0  0
 34 70  1  0  0  0  0
 34 76  2  0  0  0  0
 35 49  1  0  0  0  0
 35 72  1  0  0  0  0
 35 77  2  0  0  0  0
 36 62  1  0  0  0  0
 36 67  1  0  0  0  0
 36 78  2  0  0  0  0
 37 63  1  0  0  0  0
 37 73  1  0  0  0  0
 37 79  2  0  0  0  0
 38 68  1  0  0  0  0
 38 71  1  0  0  0  0
 38 80  2  0  0  0  0
 39 42  1  0  0  0  0
 40 49  1  0  0  0  0
 41 67  1  0  0  0  0
 42 44  1  0  0  0  0
 43 45  1  0  0  0  0
 43 46  1  0  0  0  0
 44 48  1  0  0  0  0
 45 50  1  0  0  0  0
 46 68  1  0  0  0  0
 47 50  1  0  0  0  0
 47 68  1  0  0  0  0
 48 72  1  0  0  0  0
 49 67  1  0  0  0  0
 50 66  1  0  0  0  0
 54 63  1  0  0  0  0
 55 64  1  0  0  0  0
 56 64  1  0  0  0  0
 57 64  1  0  0  0  0
 58 74  1  0  0  0  0
 59 75  1  0  0  0  0
 60 61  1  0  0  0  0
 60 75  1  0  0  0  0
 61 82  1  0  0  0  0
 62 64  1  0  0  0  0
 62 73  1  0  0  0  0
 63 74  1  0  0  0  0
 65 66  1  0  0  0  0
M  CHG  2  74   1  75   1
M  ISO  4  38 100  61 101  71 100  82 101
M  END
> <Batch ID>
0042

> <Smiles>
CNC(C)C(=O)NC(C(=O)N1Cc2cc([101O:1][101CH2:1]CNCc3c(C)cc([100NH:0][100C:0](=O)N4CCCC(n5nc(-c6ccc(Oc7ccc(F)cc7F)cc6)c(C(N)=O)c5N)C4)c(C)c3C)ccc2CC1C(=O)NC1CCCc2ccccc21)C(C)(C)C

> <Shape>
0.260

> <Color>
0.199

> <Negative vol penalty>
0.000

$$$$

  -OEChem-04042322123D

 82 90  0     1  0  0  0  0  0999 V2000
  -17.5824  -28.4098   22.8375 C   0  0  0  0  0  0  0  0  0  0  0  0
  -17.4917  -27.1958   22.1642 C   0  0  0  0  0  0  0  0  0  0  0  0
  -30.2731  -23.4259   20.2953 C   0  0  0  0  0  0  0  0  0  0  0  0
  -27.9000  -23.0713   20.5776 C   0  0  0  0  0  0  0  0  0  0  0  0
  -18.8121  -28.8397   23.3346 C   0  0  0  0  0  0  0  0  0  0  0  0
  -18.6309  -26.4114   21.9866 C   0  0  0  0  0  0  0  0  0  0  0  0
  -20.6816  -19.5608   21.5621 C   0  0  0  0  0  0  0  0  0  0  0  0
  -30.0332  -24.7556   19.9489 C   0  0  0  0  0  0  0  0  0  0  0  0
  -27.6601  -24.4010   20.2312 C   0  0  0  0  0  0  0  0  0  0  0  0
  -21.4049  -18.7023   20.7353 C   0  0  0  0  0  0  0  0  0  0  0  0
  -27.8377  -27.4312   21.7167 C   0  0  0  0  0  0  0  0  0  0  0  0
  -26.9343  -28.1504   22.4991 C   0  0  0  0  0  0  0  0  0  0  0  0
  -23.4606  -19.5088   21.7062 C   0  0  0  0  0  0  0  0  0  0  0  0
  -25.6399  -11.9514   21.2006 C   0  0  0  0  0  0  0  0  0  0  0  0
  -25.5449  -28.5179   20.5571 C   0  0  0  0  0  0  0  0  0  0  0  0
  -29.2064  -22.5837   20.6097 C   0  0  0  0  0  0  0  0  0  0  0  0
  -29.6837  -20.6953   22.2570 C   0  0  0  0  0  0  0  0  0  0  0  0
  -19.9650  -28.0557   23.1715 C   0  0  0  0  0  0  0  0  0  0  0  0
  -21.3441  -20.4091   22.4610 C   0  0  0  0  0  0  0  0  0  0  0  0
  -19.8773  -26.8319   22.4809 C   0  0  0  0  0  0  0  0  0  0  0  0
  -22.7434  -20.3753   22.5452 C   0  0  0  0  0  0  0  0  0  0  0  0
  -24.2655  -12.1765   21.1240 C   0  0  0  0  0  0  0  0  0  0  0  0
  -26.5323  -12.9288   20.7599 C   0  0  0  0  0  0  0  0  0  0  0  0
  -23.7834  -13.3787   20.6066 C   0  0  0  0  0  0  0  0  0  0  0  0
  -24.6757  -14.3561   20.1658 C   0  0  0  0  0  0  0  0  0  0  0  0
  -26.0502  -14.1310   20.2424 C   0  0  0  0  0  0  0  0  0  0  0  0
  -28.7267  -25.2431   19.9168 C   0  0  0  0  0  0  0  0  0  0  0  0
  -22.7947  -18.6783   20.8052 C   0  0  0  0  0  0  0  0  0  0  0  0
  -27.5948  -27.2555   20.3544 C   0  0  0  0  0  0  0  0  0  0  0  0
  -25.7879  -28.6937   21.9194 C   0  0  0  0  0  0  0  0  0  0  0  0
  -26.4484  -27.7988   19.7746 C   0  0  0  0  0  0  0  0  0  0  0  0
  -29.4535  -21.2099   20.9671 C   0  0  0  0  0  0  0  0  0  0  0  0
  -29.8611  -19.3473   22.0623 C   0  0  0  0  0  0  0  0  0  0  0  0
  -29.7326  -21.3750   23.5185 C   0  0  0  0  0  0  0  0  0  0  0  0
  -21.5557  -23.5588   22.8322 C   0  0  0  0  0  0  0  0  0  0  0  0
  -23.1803  -22.7414   25.5182 C   0  0  0  0  0  0  0  0  0  0  0  0
  -25.0442  -20.4168   27.1822 C   0  0  0  0  0  0  0  0  0  0  0  0
  -27.9148  -15.0037   18.7905 C   0  0  0  0  0  0  0  0  0  0  0  0
  -21.2810  -28.5843   23.6849 C   0  0  0  0  0  0  0  0  0  0  0  0
  -20.5482  -21.3100   23.3650 C   0  0  0  0  0  0  0  0  0  0  0  0
  -23.5013  -21.2514   23.5077 C   0  0  0  0  0  0  0  0  0  0  0  0
  -22.3693  -27.5183   23.7824 C   0  0  0  0  0  0  0  0  0  0  0  0
  -31.0820  -16.5162   18.1923 C   0  0  0  0  0  0  0  0  0  0  0  0
  -22.4115  -26.6805   22.5083 C   0  0  0  0  0  0  0  0  0  0  0  0
  -31.0092  -17.8308   18.9724 C   0  0  0  0  0  0  0  0  0  0  0  0
  -29.7389  -16.1573   17.5590 C   0  0  0  0  0  0  0  0  0  0  0  0
  -28.5271  -17.4561   19.2660 C   0  0  0  0  0  0  0  0  0  0  0  0
  -21.0859  -25.9413   22.2899 C   0  0  1  0  0  0  0  0  0  0  0  0
  -21.3512  -22.5009   23.8793 C   0  0  1  0  0  0  0  0  0  0  0  0
  -29.8395  -17.8263   19.9762 C   0  0  2  0  0  0  0  0  0  0  0  0
  -23.3315  -11.1143   21.6042 C   0  0  0  0  0  0  0  0  0  0  0  0
  -27.9991  -12.6587   20.8561 C   0  0  0  0  0  0  0  0  0  0  0  0
  -22.3086  -13.6168   20.5257 C   0  0  0  0  0  0  0  0  0  0  0  0
  -26.2623  -20.0499   29.3453 C   0  0  0  0  0  0  0  0  0  0  0  0
  -25.4448  -24.5402   24.5454 C   0  0  0  0  0  0  0  0  0  0  0  0
  -26.9536  -23.4164   26.1973 C   0  0  0  0  0  0  0  0  0  0  0  0
  -24.9671  -24.6970   26.9952 C   0  0  0  0  0  0  0  0  0  0  0  0
  -23.3311  -18.1095   27.8896 C   0  0  0  0  0  0  0  0  0  0  0  0
  -24.1501  -15.6520   19.6079 C   0  0  0  0  0  0  0  0  0  0  0  0
  -24.6273  -22.4682   25.8509 C   0  0  1  0  0  0  0  0  0  0  0  0
  -24.9498  -19.8752   28.5972 C   0  0  2  0  0  0  0  0  0  0  0  0
  -25.4843  -23.7652   25.8776 C   0  0  0  0  0  0  0  0  0  0  0  0
  -29.4817  -20.2658   20.0227 N   0  0  0  0  0  0  0  0  0  0  0  0
  -29.7318  -19.1444   20.7198 N   0  0  0  0  0  0  0  0  0  0  0  0
  -22.6786  -22.1196   24.3660 N   0  0  0  0  0  0  0  0  0  0  0  0
  -28.6794  -16.1688   18.5700 N   0  0  0  0  0  0  0  0  0  0  0  0
  -30.1135  -18.3277   22.9102 N   0  0  0  0  0  0  0  0  0  0  0  0
  -29.5286  -22.7615   23.5388 N   0  0  0  0  0  0  0  0  0  0  0  0
  -26.9587  -15.1236   19.7985 N   0  0  0  0  0  0  0  0  0  0  0  0
  -21.0040  -24.7840   23.1550 N   0  0  0  0  0  0  0  0  0  0  0  0
  -24.6243  -21.7281   27.1082 N   0  0  0  0  0  0  0  0  0  0  0  0
  -23.6999  -16.5520   20.6600 N   0  0  0  0  0  0  0  0  0  1  0  0
  -24.6111  -18.4241   28.5749 N   0  3  0  0  0  0  0  0  0  0  0  0
  -29.9671  -20.7732   24.5938 O   0  0  0  0  0  0  0  0  0  0  0  0
  -22.1698  -23.2844   21.8079 O   0  0  0  0  0  0  0  0  0  0  0  0
  -22.5176  -23.4736   26.2573 O   0  0  0  0  0  0  0  0  0  0  0  0
  -25.4534  -19.7451   26.2378 O   0  0  0  0  0  0  0  0  0  0  0  0
  -28.1132  -13.9668   18.1521 O   0  0  0  0  0  0  0  0  0  0  0  0
  -28.4923  -26.5406   19.5790 O   0  0  0  0  0  0  0  0  0  0  0  0
  -23.5031  -17.8417   19.9988 O   0  0  0  0  0  0  0  0  0  1  0  0
  -24.9196  -29.3829   22.6712 F   0  0  0  0  0  0  0  0  0  0  0  0
  -26.2090  -27.6322   18.4666 F   0  0  0  0  0  0  0  0  0  0  0  0
  1  2  1  0  0  0  0
  1  5  2  0  0  0  0
  2  6  2  0  0  0  0
  3  8  2  0  0  0  0
  3 16  1  0  0  0  0
  4  9  1  0  0  0  0
  4 16  2  0  0  0  0
  5 18  1  0  0  0  0
  6 20  1  0  0  0  0
  7 10  2  0  0  0  0
  7 19  1  0  0  0  0
  8 27  1  0  0  0  0
  9 27  2  0  0  0  0
 10 28  1  0  0  0  0
 11 12  2  0  0  0  0
 11 29  1  0  0  0  0
 12 30  1  0  0  0  0
 13 21  1  0  0  0  0
 13 28  2  0  0  0  0
 14 22  1  0  0  0  0
 14 23  2  0  0  0  0
 15 30  2  0  0  0  0
 15 31  1  0  0  0  0
 16 32  1  0  0  0  0
 17 32  1  0  0  0  0
 17 33  2  0  0  0  0
 17 34  1  0  0  0  0
 18 20  2  0  0  0  0
 18 39  1  0  0  0  0
 19 21  2  0  0  0  0
 19 40  1  0  0  0  0
 20 48  1  0  0  0  0
 21 41  1  0  0  0  0
 22 24  2  0  0  0  0
 22 51  1  0  0  0  0
 23 26  1  0  0  0  0
 23 52  1  0  0  0  0
 24 25  1  0  0  0  0
 24 53  1  0  0  0  0
 25 26  2  0  0  0  0
 25 59  1  0  0  0  0
 26 69  1  0  0  0  0
 27 79  1  0  0  0  0
 28 80  1  0  0  0  0
 29 31  2  0  0  0  0
 29 79  1  0  0  0  0
 30 81  1  0  0  0  0
 31 82  1  0  0  0  0
 32 63  2  0  0  0  0
 33 64  1  0  0  0  0
 33 67  1  0  0  0  0
 34 68  1  0  0  0  0
 34 74  2  0  0  0  0
 35 49  1  0  0  0  0
 35 70  1  0  0  0  0
 35 75  2  0  0  0  0
 36 60  1  0  0  0  0
 36 65  1  0  0  0  0
 36 76  2  0  0  0  0
 37 61  1  0  0  0  0
 37 71  1  0  0  0  0
 37 77  2  0  0  0  0
 38 66  1  0  0  0  0
 38 69  1  0  0  0  0
 38 78  2  0  0  0  0
 39 42  1  0  0  0  0
 40 49  1  0  0  0  0
 41 65  1  0  0  0  0
 42 44  1  0  0  0  0
 43 45  1  0  0  0  0
 43 46  1  0  0  0  0
 44 48  1  0  0  0  0
 45 50  1  0  0  0  0
 46 66  1  0  0  0  0
 47 50  1  0  0  0  0
 47 66  1  0  0  0  0
 48 70  1  0  0  0  0
 49 65  1  0  0  0  0
 50 64  1  0  0  0  0
 54 61  1  0  0  0  0
 55 62  1  0  0  0  0
 56 62  1  0  0  0  0
 57 62  1  0  0  0  0
 58 73  1  0  0  0  0
 59 72  1  0  0  0  0
 60 62  1  0  0  0  0
 60 71  1  0  0  0  0
 61 73  1  0  0  0  0
 63 64  1  0  0  0  0
 72 80  1  0  0  0  0
M  CHG  1  73   1
M  ISO  4  38 100  69 100  72 101  80 101
M  END
> <Batch ID>
0042

> <Smiles>
CNC(C)C(=O)NC(C(=O)N1Cc2cc([101O:1][101NH:1]Cc3c(C)c(C)cc(C)c3[100NH:0][100C:0](=O)N3CCCC(n4nc(-c5ccc(Oc6ccc(F)cc6F)cc5)c(C(N)=O)c4N)C3)ccc2CC1C(=O)NC1CCCc2ccccc21)C(C)(C)C

> <Shape>
0.220

> <Color>
0.071

> <Negative vol penalty>
0.000

$$$$

  -OEChem-04042322123D

 86 95  0     1  0  0  0  0  0999 V2000
  -26.3347  -34.3099   25.4294 C   0  0  0  0  0  0  0  0  0  0  0  0
  -26.8251  -33.1474   24.8433 C   0  0  0  0  0  0  0  0  0  0  0  0
  -28.6660  -13.5211   20.8856 C   0  0  0  0  0  0  0  0  0  0  0  0
  -26.8216  -12.5067   19.6999 C   0  0  0  0  0  0  0  0  0  0  0  0
  -25.0090  -34.3678   25.8571 C   0  0  0  0  0  0  0  0  0  0  0  0
  -25.9902  -32.0417   24.6855 C   0  0  0  0  0  0  0  0  0  0  0  0
  -26.4160  -29.9238   20.1053 C   0  0  0  0  0  0  0  0  0  0  0  0
  -26.3366  -23.2614   16.7381 C   0  0  0  0  0  0  0  0  0  0  0  0
  -25.5645  -22.2572   17.3221 C   0  0  0  0  0  0  0  0  0  0  0  0
  -29.5350  -12.5737   20.3446 C   0  0  0  0  0  0  0  0  0  0  0  0
  -27.6906  -11.5592   19.1588 C   0  0  0  0  0  0  0  0  0  0  0  0
  -27.5251  -29.1092   19.8811 C   0  0  0  0  0  0  0  0  0  0  0  0
  -29.9638  -11.4049   16.6629 C   0  0  0  0  0  0  0  0  0  0  0  0
  -29.8491  -11.1255   15.3012 C   0  0  0  0  0  0  0  0  0  0  0  0
  -26.1577  -27.1563   20.2496 C   0  0  0  0  0  0  0  0  0  0  0  0
  -27.3959  -21.7082   18.7992 C   0  0  0  0  0  0  0  0  0  0  0  0
  -29.3696   -8.8142   15.8159 C   0  0  0  0  0  0  0  0  0  0  0  0
  -27.3093  -13.4876   20.5633 C   0  0  0  0  0  0  0  0  0  0  0  0
  -26.1436  -14.6933   22.4856 C   0  0  0  0  0  0  0  0  0  0  0  0
  -24.1547  -33.2656   25.6957 C   0  0  0  0  0  0  0  0  0  0  0  0
  -25.1698  -29.3601   20.4146 C   0  0  0  0  0  0  0  0  0  0  0  0
  -24.6521  -32.0845   25.1126 C   0  0  0  0  0  0  0  0  0  0  0  0
  -25.0339  -27.9658   20.4748 C   0  0  0  0  0  0  0  0  0  0  0  0
  -27.6384  -23.4890   17.1846 C   0  0  0  0  0  0  0  0  0  0  0  0
  -28.1680  -22.7124   18.2152 C   0  0  0  0  0  0  0  0  0  0  0  0
  -26.0941  -21.4806   18.3527 C   0  0  0  0  0  0  0  0  0  0  0  0
  -29.0473  -11.5927   19.4811 C   0  0  0  0  0  0  0  0  0  0  0  0
  -27.3967  -27.7254   19.9561 C   0  0  0  0  0  0  0  0  0  0  0  0
  -29.7815  -10.3890   17.6012 C   0  0  0  0  0  0  0  0  0  0  0  0
  -29.5519   -9.8302   14.8777 C   0  0  0  0  0  0  0  0  0  0  0  0
  -29.4844   -9.0936   17.1777 C   0  0  0  0  0  0  0  0  0  0  0  0
  -26.4110  -14.4658   21.1223 C   0  0  0  0  0  0  0  0  0  0  0  0
  -25.2297  -15.7186   22.4898 C   0  0  0  0  0  0  0  0  0  0  0  0
  -26.6739  -14.0366   23.6446 C   0  0  0  0  0  0  0  0  0  0  0  0
  -23.2001  -29.5013   22.9054 C   0  0  0  0  0  0  0  0  0  0  0  0
  -21.2438  -27.7957   20.9597 C   0  0  0  0  0  0  0  0  0  0  0  0
  -21.5774  -25.0559   18.6360 C   0  0  0  0  0  0  0  0  0  0  0  0
  -24.0002  -20.1067   18.6248 C   0  0  0  0  0  0  0  0  0  0  0  0
  -22.7424  -33.3594   26.2166 C   0  0  0  0  0  0  0  0  0  0  0  0
  -23.9772  -30.2516   20.6275 C   0  0  0  0  0  0  0  0  0  0  0  0
  -23.7134  -27.3104   20.7835 C   0  0  0  0  0  0  0  0  0  0  0  0
  -21.8191  -32.2724   25.6723 C   0  0  0  0  0  0  0  0  0  0  0  0
  -21.7388  -17.6344   19.8294 C   0  0  0  0  0  0  0  0  0  0  0  0
  -22.4956  -30.9076   25.7529 C   0  0  0  0  0  0  0  0  0  0  0  0
  -22.6558  -16.5648   20.4272 C   0  0  0  0  0  0  0  0  0  0  0  0
  -30.2933  -26.4043   21.2527 C   0  0  0  0  0  0  0  0  0  0  0  0
  -31.3174  -26.0558   20.1788 C   0  0  0  0  0  0  0  0  0  0  0  0
  -22.3402  -18.2583   18.5713 C   0  0  0  0  0  0  0  0  0  0  0  0
  -24.6206  -17.7111   19.3259 C   0  0  0  0  0  0  0  0  0  0  0  0
  -28.7559  -24.6256   20.3404 C   0  0  0  0  0  0  0  0  0  0  0  0
  -23.7706  -30.8728   24.9016 C   0  0  1  0  0  0  0  0  0  0  0  0
  -22.8717  -29.5865   21.4417 C   0  0  1  0  0  0  0  0  0  0  0  0
  -24.0868  -17.0996   20.6316 C   0  0  2  0  0  0  0  0  0  0  0  0
  -28.8762  -26.0695   20.8046 C   0  0  2  0  0  0  0  0  0  1  0  0
  -31.2082  -24.5958   19.7232 C   0  0  2  0  0  0  0  0  0  0  0  0
  -28.4460  -24.5693   16.5433 C   0  0  0  0  0  0  0  0  0  0  0  0
  -32.2035  -24.3314   18.5951 C   0  0  0  0  0  0  0  0  0  0  0  0
  -20.7211  -23.9282   16.5642 C   0  0  0  0  0  0  0  0  0  0  0  0
  -19.7270  -25.9976   22.9029 C   0  0  0  0  0  0  0  0  0  0  0  0
  -19.5688  -24.2838   21.0846 C   0  0  0  0  0  0  0  0  0  0  0  0
  -18.4988  -26.5176   20.7873 C   0  0  0  0  0  0  0  0  0  0  0  0
  -23.6621  -26.3108   16.9513 C   0  0  0  0  0  0  0  0  0  0  0  0
  -29.5647  -22.9405   18.7132 C   0  0  0  0  0  0  0  0  0  0  0  0
  -21.0181  -26.3274   20.6915 C   0  0  1  0  0  0  0  0  0  0  0  0
  -21.4685  -25.1287   17.1236 C   0  0  2  0  0  0  0  0  0  0  0  0
  -19.7285  -25.7915   21.3750 C   0  0  0  0  0  0  0  0  0  0  0  0
  -25.7226  -15.2809   20.3188 N   0  0  0  0  0  0  0  0  0  0  0  0
  -25.0135  -16.0306   21.1798 N   0  0  0  0  0  0  0  0  0  0  0  0
  -22.5783  -28.2249   20.9900 N   0  0  0  0  0  0  0  0  0  0  0  0
  -23.6942  -18.7465   18.8417 N   0  0  0  0  0  0  0  0  0  0  0  0
  -24.5980  -16.3748   23.4862 N   0  0  0  0  0  0  0  0  0  0  0  0
  -27.6031  -13.0036   23.4606 N   0  0  0  0  0  0  0  0  0  0  0  0
  -25.3095  -20.4617   18.9476 N   0  0  0  0  0  0  0  0  0  0  0  0
  -23.4390  -30.7253   23.5006 N   0  0  0  0  0  0  0  0  0  0  0  0
  -21.0352  -26.1700   19.2412 N   0  0  0  0  0  0  0  0  0  0  0  0
  -29.7795  -24.3333   19.2556 N   0  3  1  0  0  0  0  0  0  0  0  0
  -22.8252  -25.1663   16.5078 N   0  3  0  0  0  0  0  0  0  0  0  0
  -26.3214  -14.3452   24.8082 O   0  0  0  0  0  0  0  0  0  0  0  0
  -23.2329  -28.4063   23.4546 O   0  0  0  0  0  0  0  0  0  0  0  0
  -20.2717  -28.5360   21.1287 O   0  0  0  0  0  0  0  0  0  0  0  0
  -22.0886  -24.1042   19.2220 O   0  0  0  0  0  0  0  0  0  0  0  0
  -23.1547  -20.9040   18.2107 O   0  0  0  0  0  0  0  0  0  0  0  0
  -29.8950  -10.6682   18.9528 O   0  0  0  0  0  0  0  0  0  0  0  0
  -28.4778  -26.9281   19.7383 O   0  0  0  0  0  0  0  0  0  1  0  0
  -29.4402   -9.5623   13.5700 F   0  0  0  0  0  0  0  0  0  0  0  0
  -29.3070   -8.1137   18.0744 F   0  0  0  0  0  0  0  0  0  0  0  0
  1  2  1  0  0  0  0
  1  5  2  0  0  0  0
  2  6  2  0  0  0  0
  3 10  2  0  0  0  0
  3 18  1  0  0  0  0
  4 11  1  0  0  0  0
  4 18  2  0  0  0  0
  5 20  1  0  0  0  0
  6 22  1  0  0  0  0
  7 12  2  0  0  0  0
  7 21  1  0  0  0  0
  8  9  2  0  0  0  0
  8 24  1  0  0  0  0
  9 26  1  0  0  0  0
 10 27  1  0  0  0  0
 11 27  2  0  0  0  0
 12 28  1  0  0  0  0
 13 14  2  0  0  0  0
 13 29  1  0  0  0  0
 14 30  1  0  0  0  0
 15 23  1  0  0  0  0
 15 28  2  0  0  0  0
 16 25  1  0  0  0  0
 16 26  2  0  0  0  0
 17 30  2  0  0  0  0
 17 31  1  0  0  0  0
 18 32  1  0  0  0  0
 19 32  1  0  0  0  0
 19 33  2  0  0  0  0
 19 34  1  0  0  0  0
 20 22  2  0  0  0  0
 20 39  1  0  0  0  0
 21 23  2  0  0  0  0
 21 40  1  0  0  0  0
 22 51  1  0  0  0  0
 23 41  1  0  0  0  0
 24 25  2  0  0  0  0
 24 56  1  0  0  0  0
 25 63  1  0  0  0  0
 26 73  1  0  0  0  0
 27 83  1  0  0  0  0
 28 84  1  0  0  0  0
 29 31  2  0  0  0  0
 29 83  1  0  0  0  0
 30 85  1  0  0  0  0
 31 86  1  0  0  0  0
 32 67  2  0  0  0  0
 33 68  1  0  0  0  0
 33 71  1  0  0  0  0
 34 72  1  0  0  0  0
 34 78  2  0  0  0  0
 35 52  1  0  0  0  0
 35 74  1  0  0  0  0
 35 79  2  0  0  0  0
 36 64  1  0  0  0  0
 36 69  1  0  0  0  0
 36 80  2  0  0  0  0
 37 65  1  0  0  0  0
 37 75  1  0  0  0  0
 37 81  2  0  0  0  0
 38 70  1  0  0  0  0
 38 73  1  0  0  0  0
 38 82  2  0  0  0  0
 39 42  1  0  0  0  0
 40 52  1  0  0  0  0
 41 69  1  0  0  0  0
 42 44  1  0  0  0  0
 43 45  1  0  0  0  0
 43 48  1  0  0  0  0
 44 51  1  0  0  0  0
 45 53  1  0  0  0  0
 46 47  1  0  0  0  0
 46 54  1  0  0  0  0
 47 55  1  0  0  0  0
 48 70  1  0  0  0  0
 49 53  1  0  0  0  0
 49 70  1  0  0  0  0
 50 54  1  0  0  0  0
 50 76  1  0  0  0  0
 51 74  1  0  0  0  0
 52 69  1  0  0  0  0
 53 68  1  0  0  0  0
 54 84  1  0  0  0  0
 55 57  1  0  0  0  0
 55 76  1  0  0  0  0
 58 65  1  0  0  0  0
 59 66  1  0  0  0  0
 60 66  1  0  0  0  0
 61 66  1  0  0  0  0
 62 77  1  0  0  0  0
 63 76  1  0  0  0  0
 64 66  1  0  0  0  0
 64 75  1  0  0  0  0
 65 77  1  0  0  0  0
 67 68  1  0  0  0  0
M  CHG  2  76   1  77   1
M  ISO  4  38 100  54 101  73 100  84 101
M  END
> <Batch ID>
0042

> <Smiles>
CNC(C)C(=O)NC(C(=O)N1Cc2cc([101O:1][101CH:1]3CCC(C)N(Cc4cc([100NH:0][100C:0](=O)N5CCCC(n6nc(-c7ccc(Oc8ccc(F)cc8F)cc7)c(C(N)=O)c6N)C5)ccc4C)C3)ccc2CC1C(=O)NC1CCCc2ccccc21)C(C)(C)C

> <Shape>
0.229

> <Color>
0.073

> <Negative vol penalty>
0.000

$$$$

  -OEChem-04042322123D

 88 97  0     1  0  0  0  0  0999 V2000
  -17.9489  -15.5648   21.5072 C   0  0  0  0  0  0  0  0  0  0  0  0
  -19.2393  -16.0600   21.6650 C   0  0  0  0  0  0  0  0  0  0  0  0
  -22.9206  -30.6209   23.6740 C   0  0  0  0  0  0  0  0  0  0  0  0
  -23.0482  -31.3608   21.3776 C   0  0  0  0  0  0  0  0  0  0  0  0
  -17.6655  -14.2413   21.8420 C   0  0  0  0  0  0  0  0  0  0  0  0
  -20.2470  -15.2322   22.1588 C   0  0  0  0  0  0  0  0  0  0  0  0
  -24.5595  -15.6452   19.5364 C   0  0  0  0  0  0  0  0  0  0  0  0
  -21.5280  -30.6693   23.6122 C   0  0  0  0  0  0  0  0  0  0  0  0
  -21.6556  -31.4092   21.3158 C   0  0  0  0  0  0  0  0  0  0  0  0
  -25.3576  -16.7588   19.7947 C   0  0  0  0  0  0  0  0  0  0  0  0
  -19.0211  -28.7600   22.3863 C   0  0  0  0  0  0  0  0  0  0  0  0
  -18.3108  -27.6833   22.9171 C   0  0  0  0  0  0  0  0  0  0  0  0
  -26.7759  -15.4081   21.2029 C   0  0  0  0  0  0  0  0  0  0  0  0
  -29.2230  -22.0616   18.8276 C   0  0  0  0  0  0  0  0  0  0  0  0
  -17.2207  -29.1715   24.4772 C   0  0  0  0  0  0  0  0  0  0  0  0
  -23.6808  -30.9667   22.5567 C   0  0  0  0  0  0  0  0  0  0  0  0
  -25.9573  -31.6412   23.4895 C   0  0  0  0  0  0  0  0  0  0  0  0
  -18.6724  -13.3941   22.3310 C   0  0  0  0  0  0  0  0  0  0  0  0
  -24.8578  -14.4051   20.1191 C   0  0  0  0  0  0  0  0  0  0  0  0
  -19.9766  -13.8966   22.5017 C   0  0  0  0  0  0  0  0  0  0  0  0
  -25.9815  -14.2797   20.9484 C   0  0  0  0  0  0  0  0  0  0  0  0
  -30.4908  -21.4864   18.7415 C   0  0  0  0  0  0  0  0  0  0  0  0
  -31.6214  -22.2399   19.0570 C   0  0  0  0  0  0  0  0  0  0  0  0
  -31.4842  -23.5687   19.4587 C   0  0  0  0  0  0  0  0  0  0  0  0
  -30.2164  -24.1439   19.5448 C   0  0  0  0  0  0  0  0  0  0  0  0
  -20.8955  -31.0634   22.4331 C   0  0  0  0  0  0  0  0  0  0  0  0
  -26.4643  -16.6410   20.6303 C   0  0  0  0  0  0  0  0  0  0  0  0
  -18.8312  -30.0425   22.9010 C   0  0  0  0  0  0  0  0  0  0  0  0
  -17.4106  -27.8890   23.9625 C   0  0  0  0  0  0  0  0  0  0  0  0
  -17.9310  -30.2482   23.9464 C   0  0  0  0  0  0  0  0  0  0  0  0
  -29.0858  -23.3904   19.2292 C   0  0  0  0  0  0  0  0  0  0  0  0
  -25.1194  -30.9174   22.6201 C   0  0  0  0  0  0  0  0  0  0  0  0
  -27.2278  -31.2426   23.1528 C   0  0  0  0  0  0  0  0  0  0  0  0
  -28.9046  -18.6854   19.4428 C   0  0  0  0  0  0  0  0  0  0  0  0
  -25.6175  -32.5889   24.5103 C   0  0  0  0  0  0  0  0  0  0  0  0
  -23.3557  -12.4499   22.1252 C   0  0  0  0  0  0  0  0  0  0  0  0
  -25.8620  -10.4941   21.4805 C   0  0  0  0  0  0  0  0  0  0  0  0
  -29.4314  -10.8333   21.0783 C   0  0  0  0  0  0  0  0  0  0  0  0
  -29.0227  -26.0837   20.6387 C   0  0  0  0  0  0  0  0  0  0  0  0
  -18.3077  -11.9845   22.7239 C   0  0  0  0  0  0  0  0  0  0  0  0
  -24.0024  -13.2073   19.8092 C   0  0  0  0  0  0  0  0  0  0  0  0
  -26.3566  -12.9660   21.5824 C   0  0  0  0  0  0  0  0  0  0  0  0
  -19.5158  -11.0657   22.8874 C   0  0  0  0  0  0  0  0  0  0  0  0
  -30.9217  -17.7774   21.3649 C   0  0  0  0  0  0  0  0  0  0  0  0
  -29.0588  -29.5550   19.0038 C   0  0  0  0  0  0  0  0  0  0  0  0
  -20.6015  -11.7527   23.7096 C   0  0  0  0  0  0  0  0  0  0  0  0
  -29.4595  -17.7930   21.7589 C   0  0  0  0  0  0  0  0  0  0  0  0
  -28.7326  -30.4132   20.2238 C   0  0  0  0  0  0  0  0  0  0  0  0
  -31.2112  -18.9391   20.4313 C   0  0  0  0  0  0  0  0  0  0  0  0
  -29.6644  -28.2110   19.3884 C   0  0  0  0  0  0  0  0  0  0  0  0
  -27.7375  -28.1852   20.9829 C   0  0  0  0  0  0  0  0  0  0  0  0
  -21.1022  -13.0226   23.0110 C   0  0  1  0  0  0  0  0  0  0  0  0
  -28.6103  -17.6412   20.5123 C   0  0  1  0  0  0  0  0  0  1  0  0
  -24.1028  -12.1118   20.8661 C   0  0  1  0  0  0  0  0  0  0  0  0
  -28.1792  -29.5946   21.4070 C   0  0  2  0  0  0  0  0  0  0  0  0
  -32.9799  -21.6202   18.9629 C   0  0  0  0  0  0  0  0  0  0  0  0
  -32.7020  -24.3718   19.7961 C   0  0  0  0  0  0  0  0  0  0  0  0
  -31.0637   -9.4526   19.7643 C   0  0  0  0  0  0  0  0  0  0  0  0
  -26.2735   -9.0025   24.1104 C   0  0  0  0  0  0  0  0  0  0  0  0
  -28.7108   -8.8456   23.5594 C   0  0  0  0  0  0  0  0  0  0  0  0
  -27.0260   -7.7575   22.0761 C   0  0  0  0  0  0  0  0  0  0  0  0
  -30.4124  -13.1972   19.5921 C   0  0  0  0  0  0  0  0  0  0  0  0
  -30.6102  -20.0542   18.3073 C   0  0  0  0  0  0  0  0  0  0  0  0
  -27.2307  -10.2775   22.0795 C   0  0  1  0  0  0  0  0  0  0  0  0
  -30.2154  -10.7146   19.7838 C   0  0  2  0  0  0  0  0  0  0  0  0
  -27.2973   -8.9961   22.9576 C   0  0  0  0  0  0  0  0  0  0  0  0
  -25.8003  -30.1196   21.7931 N   0  0  0  0  0  0  0  0  0  0  0  0
  -27.0795  -30.3398   22.1413 N   0  0  0  0  0  0  0  0  0  0  0  0
  -30.2259  -19.1298   19.3656 N   0  0  0  0  0  0  0  0  0  0  0  0
  -25.4855  -11.8255   21.2539 N   0  0  0  0  0  0  0  0  0  0  0  0
  -28.8363  -27.4556   20.3396 N   0  0  0  0  0  0  0  0  0  0  0  0
  -28.4462  -31.5798   23.6262 N   0  0  0  0  0  0  0  0  0  0  0  0
  -25.5268  -33.9432   24.1611 N   0  0  0  0  0  0  0  0  0  0  0  0
  -30.0890  -25.4950   19.9538 N   0  0  0  0  0  0  0  0  0  0  0  0
  -22.0072  -12.6834   21.9338 N   0  0  0  0  0  0  0  0  0  0  0  0
  -28.1706  -10.2868   20.9638 N   0  0  0  0  0  0  0  0  0  0  0  0
  -31.1167  -11.8893   19.6145 N   0  3  0  0  0  0  0  0  0  0  0  0
  -28.0125  -19.0396   18.6677 O   0  0  0  0  0  0  0  0  0  0  0  0
  -25.4168  -32.2470   25.7004 O   0  0  0  0  0  0  0  0  0  0  0  0
  -23.9578  -12.4940   23.1916 O   0  0  0  0  0  0  0  0  0  0  0  0
  -25.1559   -9.5177   21.2167 O   0  0  0  0  0  0  0  0  0  0  0  0
  -29.8927  -11.3551   22.0910 O   0  0  0  0  0  0  0  0  0  0  0  0
  -28.3014  -25.4926   21.4451 O   0  0  0  0  0  0  0  0  0  0  0  0
  -19.5365  -31.1106   22.3724 O   0  0  0  0  0  0  0  0  0  0  0  0
  -27.2446  -17.7265   20.8846 O   0  0  0  0  0  0  0  0  0  1  0  0
  -16.7275  -26.8552   24.4711 F   0  0  0  0  0  0  0  0  0  0  0  0
  -17.7435  -31.4782   24.4442 F   0  0  0  0  0  0  0  0  0  0  0  0
  -27.4952  -24.0604   19.3213 Cl  0  0  0  0  0  0  0  0  0  0  0  0
  1  2  1  0  0  0  0
  1  5  2  0  0  0  0
  2  6  2  0  0  0  0
  3  8  2  0  0  0  0
  3 16  1  0  0  0  0
  4  9  1  0  0  0  0
  4 16  2  0  0  0  0
  5 18  1  0  0  0  0
  6 20  1  0  0  0  0
  7 10  2  0  0  0  0
  7 19  1  0  0  0  0
  8 26  1  0  0  0  0
  9 26  2  0  0  0  0
 10 27  1  0  0  0  0
 11 12  2  0  0  0  0
 11 28  1  0  0  0  0
 12 29  1  0  0  0  0
 13 21  1  0  0  0  0
 13 27  2  0  0  0  0
 14 22  1  0  0  0  0
 14 31  2  0  0  0  0
 15 29  2  0  0  0  0
 15 30  1  0  0  0  0
 16 32  1  0  0  0  0
 17 32  1  0  0  0  0
 17 33  2  0  0  0  0
 17 35  1  0  0  0  0
 18 20  2  0  0  0  0
 18 40  1  0  0  0  0
 19 21  2  0  0  0  0
 19 41  1  0  0  0  0
 20 52  1  0  0  0  0
 21 42  1  0  0  0  0
 22 23  2  0  0  0  0
 22 63  1  0  0  0  0
 23 24  1  0  0  0  0
 23 56  1  0  0  0  0
 24 25  2  0  0  0  0
 24 57  1  0  0  0  0
 25 31  1  0  0  0  0
 25 74  1  0  0  0  0
 26 84  1  0  0  0  0
 27 85  1  0  0  0  0
 28 30  2  0  0  0  0
 28 84  1  0  0  0  0
 29 86  1  0  0  0  0
 30 87  1  0  0  0  0
 31 88  1  0  0  0  0
 32 67  2  0  0  0  0
 33 68  1  0  0  0  0
 33 72  1  0  0  0  0
 34 53  1  0  0  0  0
 34 69  1  0  0  0  0
 34 78  2  0  0  0  0
 35 73  1  0  0  0  0
 35 79  2  0  0  0  0
 36 54  1  0  0  0  0
 36 75  1  0  0  0  0
 36 80  2  0  0  0  0
 37 64  1  0  0  0  0
 37 70  1  0  0  0  0
 37 81  2  0  0  0  0
 38 65  1  0  0  0  0
 38 76  1  0  0  0  0
 38 82  2  0  0  0  0
 39 71  1  0  0  0  0
 39 74  1  0  0  0  0
 39 83  2  0  0  0  0
 40 43  1  0  0  0  0
 41 54  1  0  0  0  0
 42 70  1  0  0  0  0
 43 46  1  0  0  0  0
 44 47  1  0  0  0  0
 44 49  1  0  0  0  0
 45 48  1  0  0  0  0
 45 50  1  0  0  0  0
 46 52  1  0  0  0  0
 47 53  1  0  0  0  0
 48 55  1  0  0  0  0
 49 69  1  0  0  0  0
 50 71  1  0  0  0  0
 51 55  1  0  0  0  0
 51 71  1  0  0  0  0
 52 75  1  0  0  0  0
 53 85  1  0  0  0  0
 54 70  1  0  0  0  0
 55 68  1  0  0  0  0
 58 65  1  0  0  0  0
 59 66  1  0  0  0  0
 60 66  1  0  0  0  0
 61 66  1  0  0  0  0
 62 77  1  0  0  0  0
 63 69  1  0  0  0  0
 64 66  1  0  0  0  0
 64 76  1  0  0  0  0
 65 77  1  0  0  0  0
 67 68  1  0  0  0  0
M  CHG  1  77   1
M  ISO  4  39 100  53 101  74 100  85 101
M  END
> <Batch ID>
0042

> <Smiles>
CNC(C)C(=O)NC(C(=O)N1Cc2cc([101O:1][101CH:1]3CCCN(Cc4cc(Cl)c([100NH:0][100C:0](=O)N5CCCC(n6nc(-c7ccc(Oc8ccc(F)cc8F)cc7)c(C(N)=O)c6N)C5)c(C)c4C)C3=O)ccc2CC1C(=O)NC1CCCc2ccccc21)C(C)(C)C

> <Shape>
0.302

> <Color>
0.068

> <Negative vol penalty>
0.000

$$$$

  -OEChem-04042322123D

 84 92  0     1  0  0  0  0  0999 V2000
  -24.4745  -18.9290   21.1796 C   0  0  0  0  0  0  0  0  0  0  0  0
  -25.3907  -18.5993   22.1732 C   0  0  0  0  0  0  0  0  0  0  0  0
  -23.0738   -9.8692   19.9425 C   0  0  0  0  0  0  0  0  0  0  0  0
  -23.8382   -9.8757   22.2344 C   0  0  0  0  0  0  0  0  0  0  0  0
  -24.6791  -20.0614   20.3923 C   0  0  0  0  0  0  0  0  0  0  0  0
  -26.5127  -19.4012   22.3793 C   0  0  0  0  0  0  0  0  0  0  0  0
  -27.3687  -20.3204   27.2851 C   0  0  0  0  0  0  0  0  0  0  0  0
  -22.3308   -8.7157   20.1935 C   0  0  0  0  0  0  0  0  0  0  0  0
  -23.0951   -8.7223   22.4855 C   0  0  0  0  0  0  0  0  0  0  0  0
  -27.9675  -19.3041   28.0284 C   0  0  0  0  0  0  0  0  0  0  0  0
  -19.8683   -7.9233   23.0940 C   0  0  0  0  0  0  0  0  0  0  0  0
  -19.1137   -7.8828   24.2663 C   0  0  0  0  0  0  0  0  0  0  0  0
  -30.0966  -20.4202   27.8280 C   0  0  0  0  0  0  0  0  0  0  0  0
  -32.9326  -16.9730   23.1913 C   0  0  0  0  0  0  0  0  0  0  0  0
  -32.9933  -16.4754   25.5547 C   0  0  0  0  0  0  0  0  0  0  0  0
  -20.3571   -5.9456   24.9998 C   0  0  0  0  0  0  0  0  0  0  0  0
  -23.8276  -10.4492   20.9629 C   0  0  0  0  0  0  0  0  0  0  0  0
  -24.1684  -12.9745   20.8429 C   0  0  0  0  0  0  0  0  0  0  0  0
  -25.7992  -20.8829   20.5953 C   0  0  0  0  0  0  0  0  0  0  0  0
  -28.1328  -21.3905   26.7977 C   0  0  0  0  0  0  0  0  0  0  0  0
  -26.7332  -20.5449   21.5931 C   0  0  0  0  0  0  0  0  0  0  0  0
  -29.5047  -21.4502   27.0811 C   0  0  0  0  0  0  0  0  0  0  0  0
  -31.5567  -16.7446   23.1784 C   0  0  0  0  0  0  0  0  0  0  0  0
  -30.8990  -16.3816   24.3537 C   0  0  0  0  0  0  0  0  0  0  0  0
  -31.6173  -16.2469   25.5419 C   0  0  0  0  0  0  0  0  0  0  0  0
  -22.3414   -8.1423   21.4650 C   0  0  0  0  0  0  0  0  0  0  0  0
  -29.3321  -19.3524   28.2975 C   0  0  0  0  0  0  0  0  0  0  0  0
  -20.8674   -6.9749   22.8745 C   0  0  0  0  0  0  0  0  0  0  0  0
  -19.3580   -6.8940   25.2193 C   0  0  0  0  0  0  0  0  0  0  0  0
  -21.1117   -5.9860   23.8274 C   0  0  0  0  0  0  0  0  0  0  0  0
  -33.6509  -16.8384   24.3794 C   0  0  0  0  0  0  0  0  0  0  0  0
  -24.5958  -11.6404   20.7040 C   0  0  0  0  0  0  0  0  0  0  0  0
  -25.2596  -13.7244   20.4777 C   0  0  0  0  0  0  0  0  0  0  0  0
  -22.8985  -13.4898   21.2644 C   0  0  0  0  0  0  0  0  0  0  0  0
  -28.8422  -22.5069   23.9073 C   0  0  0  0  0  0  0  0  0  0  0  0
  -30.2304  -24.9009   25.5997 C   0  0  0  0  0  0  0  0  0  0  0  0
  -31.6405  -25.9378   28.5294 C   0  0  0  0  0  0  0  0  0  0  0  0
  -30.7434  -14.7451   20.6558 C   0  0  0  0  0  0  0  0  0  0  0  0
  -26.0025  -22.0704   19.6879 C   0  0  0  0  0  0  0  0  0  0  0  0
  -27.4669  -22.4926   26.0203 C   0  0  0  0  0  0  0  0  0  0  0  0
  -30.3656  -22.5877   26.5979 C   0  0  0  0  0  0  0  0  0  0  0  0
  -27.0213  -23.0754   20.2191 C   0  0  0  0  0  0  0  0  0  0  0  0
  -29.6019  -12.3609   18.2705 C   0  0  0  0  0  0  0  0  0  0  0  0
  -28.2751  -22.3571   20.7076 C   0  0  0  0  0  0  0  0  0  0  0  0
  -28.1654  -12.0666   18.7062 C   0  0  0  0  0  0  0  0  0  0  0  0
  -30.5213  -12.5817   19.4697 C   0  0  0  0  0  0  0  0  0  0  0  0
  -28.6220  -13.3118   20.8602 C   0  0  0  0  0  0  0  0  0  0  0  0
  -27.9496  -21.4035   21.8636 C   0  0  1  0  0  0  0  0  0  0  0  0
  -28.4369  -23.2705   25.1363 C   0  0  1  0  0  0  0  0  0  0  0  0
  -27.6456  -13.1372   19.6844 C   0  0  2  0  0  0  0  0  0  0  0  0
  -29.4228  -16.1362   24.3357 C   0  0  0  0  0  0  0  0  0  0  0  0
  -32.7167  -27.9368   29.5985 C   0  0  0  0  0  0  0  0  0  0  0  0
  -32.7855  -24.3673   24.0196 C   0  0  0  0  0  0  0  0  0  0  0  0
  -34.0409  -25.6851   25.7388 C   0  0  0  0  0  0  0  0  0  0  0  0
  -32.2658  -26.7874   24.3763 C   0  0  0  0  0  0  0  0  0  0  0  0
  -29.5545  -26.0859   30.6236 C   0  0  0  0  0  0  0  0  0  0  0  0
  -30.8109  -16.8953   21.8931 C   0  0  0  0  0  0  0  0  0  0  0  0
  -30.4480  -16.0218   29.0987 C   0  0  0  0  0  0  0  0  0  0  0  0
  -31.5321  -16.1237   28.0325 C   0  0  0  0  0  0  0  0  0  0  0  0
  -29.3444  -17.0588   28.9260 C   0  0  0  0  0  0  0  0  0  1  0  0
  -31.6029  -25.1437   26.1794 C   0  0  1  0  0  0  0  0  0  0  0  0
  -31.4165  -27.1817   29.3703 C   0  0  2  0  0  0  0  0  0  0  0  0
  -32.6582  -25.4733   25.0861 C   0  0  0  0  0  0  0  0  0  0  0  0
  -25.8599  -11.5450   20.2832 N   0  0  0  0  0  0  0  0  0  0  0  0
  -26.2361  -12.8288   20.1545 N   0  0  0  0  0  0  0  0  0  0  0  0
  -29.6693  -23.6379   25.8365 N   0  0  0  0  0  0  0  0  0  0  0  0
  -29.9721  -13.6098   20.3570 N   0  0  0  0  0  0  0  0  0  0  0  0
  -25.4694  -15.0559   20.4047 N   0  0  0  0  0  0  0  0  0  0  0  0
  -21.8876  -12.5802   21.6034 N   0  0  0  0  0  0  0  0  0  0  0  0
  -30.9813  -15.8874   26.7199 N   0  0  0  0  0  0  0  0  0  0  0  0
  -27.7839  -22.1425   23.0969 N   0  0  0  0  0  0  0  0  0  0  0  0
  -31.4417  -26.1857   27.1877 N   0  0  0  0  0  0  0  0  0  0  0  0
  -30.1456  -15.6735   21.4992 N   0  0  0  0  0  0  0  0  0  0  0  0
  -30.8473  -26.8141   30.6976 N   0  3  0  0  0  0  0  0  0  0  0  0
  -22.6620  -14.7203   21.3225 O   0  0  0  0  0  0  0  0  0  0  0  0
  -30.0274  -22.2674   23.7083 O   0  0  0  0  0  0  0  0  0  0  0  0
  -29.6735  -25.8011   24.9664 O   0  0  0  0  0  0  0  0  0  0  0  0
  -31.9633  -24.8554   29.0139 O   0  0  0  0  0  0  0  0  0  0  0  0
  -31.8784  -14.9210   20.2000 O   0  0  0  0  0  0  0  0  0  0  0  0
  -21.6163   -7.0169   21.7104 O   0  0  0  0  0  0  0  0  0  0  0  0
  -29.9192  -18.3614   29.0221 O   0  0  0  0  0  0  0  0  0  1  0  0
  -18.6343   -6.8561   26.3457 F   0  0  0  0  0  0  0  0  0  0  0  0
  -22.0710   -5.0729   23.6227 F   0  0  0  0  0  0  0  0  0  0  0  0
  -35.3485  -17.1211   24.3951 Cl  0  0  0  0  0  0  0  0  0  0  0  0
  1  2  1  0  0  0  0
  1  5  2  0  0  0  0
  2  6  2  0  0  0  0
  3  8  2  0  0  0  0
  3 17  1  0  0  0  0
  4  9  1  0  0  0  0
  4 17  2  0  0  0  0
  5 19  1  0  0  0  0
  6 21  1  0  0  0  0
  7 10  2  0  0  0  0
  7 20  1  0  0  0  0
  8 26  1  0  0  0  0
  9 26  2  0  0  0  0
 10 27  1  0  0  0  0
 11 12  2  0  0  0  0
 11 28  1  0  0  0  0
 12 29  1  0  0  0  0
 13 22  1  0  0  0  0
 13 27  2  0  0  0  0
 14 23  2  0  0  0  0
 14 31  1  0  0  0  0
 15 25  1  0  0  0  0
 15 31  2  0  0  0  0
 16 29  2  0  0  0  0
 16 30  1  0  0  0  0
 17 32  1  0  0  0  0
 18 32  1  0  0  0  0
 18 33  2  0  0  0  0
 18 34  1  0  0  0  0
 19 21  2  0  0  0  0
 19 39  1  0  0  0  0
 20 22  2  0  0  0  0
 20 40  1  0  0  0  0
 21 48  1  0  0  0  0
 22 41  1  0  0  0  0
 23 24  1  0  0  0  0
 23 57  1  0  0  0  0
 24 25  2  0  0  0  0
 24 51  1  0  0  0  0
 25 70  1  0  0  0  0
 26 80  1  0  0  0  0
 27 81  1  0  0  0  0
 28 30  2  0  0  0  0
 28 80  1  0  0  0  0
 29 82  1  0  0  0  0
 30 83  1  0  0  0  0
 31 84  1  0  0  0  0
 32 64  2  0  0  0  0
 33 65  1  0  0  0  0
 33 68  1  0  0  0  0
 34 69  1  0  0  0  0
 34 75  2  0  0  0  0
 35 49  1  0  0  0  0
 35 71  1  0  0  0  0
 35 76  2  0  0  0  0
 36 61  1  0  0  0  0
 36 66  1  0  0  0  0
 36 77  2  0  0  0  0
 37 62  1  0  0  0  0
 37 72  1  0  0  0  0
 37 78  2  0  0  0  0
 38 67  1  0  0  0  0
 38 73  1  0  0  0  0
 38 79  2  0  0  0  0
 39 42  1  0  0  0  0
 40 49  1  0  0  0  0
 41 66  1  0  0  0  0
 42 44  1  0  0  0  0
 43 45  1  0  0  0  0
 43 46  1  0  0  0  0
 44 48  1  0  0  0  0
 45 50  1  0  0  0  0
 46 67  1  0  0  0  0
 47 50  1  0  0  0  0
 47 67  1  0  0  0  0
 48 71  1  0  0  0  0
 49 66  1  0  0  0  0
 50 65  1  0  0  0  0
 52 62  1  0  0  0  0
 53 63  1  0  0  0  0
 54 63  1  0  0  0  0
 55 63  1  0  0  0  0
 56 74  1  0  0  0  0
 57 73  1  0  0  0  0
 58 59  1  0  0  0  0
 58 60  1  0  0  0  0
 59 70  1  0  0  0  0
 60 81  1  0  0  0  0
 61 63  1  0  0  0  0
 61 72  1  0  0  0  0
 62 74  1  0  0  0  0
 64 65  1  0  0  0  0
M  CHG  1  74   1
M  ISO  4  38 100  60 101  73 100  81 101
M  END
> <Batch ID>
0042

> <Smiles>
CNC(C)C(=O)NC(C(=O)N1Cc2cc([101O:1][101CH2:1]CCNc3cc(Cl)cc(C[100NH:0][100C:0](=O)N4CCCC(n5nc(-c6ccc(Oc7ccc(F)cc7F)cc6)c(C(N)=O)c5N)C4)c3C)ccc2CC1C(=O)NC1CCCc2ccccc21)C(C)(C)C

> <Shape>
0.181

> <Color>
0.196

> <Negative vol penalty>
0.000

$$$$

  -OEChem-04042322123D

 85 93  0     1  0  0  0  0  0999 V2000
  -15.5378  -26.2630   20.0374 C   0  0  0  0  0  0  0  0  0  0  0  0
  -16.3410  -25.6558   20.9974 C   0  0  0  0  0  0  0  0  0  0  0  0
  -23.0715   -9.8707   19.9446 C   0  0  0  0  0  0  0  0  0  0  0  0
  -23.8346   -9.8792   22.2369 C   0  0  0  0  0  0  0  0  0  0  0  0
  -15.0751  -25.5246   18.9490 C   0  0  0  0  0  0  0  0  0  0  0  0
  -16.6810  -24.3095   20.8702 C   0  0  0  0  0  0  0  0  0  0  0  0
  -21.9586  -21.6739   22.5155 C   0  0  0  0  0  0  0  0  0  0  0  0
  -29.7760  -19.0171   21.1078 C   0  0  0  0  0  0  0  0  0  0  0  0
  -22.3278   -8.7179   20.1965 C   0  0  0  0  0  0  0  0  0  0  0  0
  -23.0908   -8.7264   22.4888 C   0  0  0  0  0  0  0  0  0  0  0  0
  -22.3329  -20.9500   23.6467 C   0  0  0  0  0  0  0  0  0  0  0  0
  -22.9000   -5.3995   20.4890 C   0  0  0  0  0  0  0  0  0  0  0  0
  -22.9654   -4.3692   19.5510 C   0  0  0  0  0  0  0  0  0  0  0  0
  -28.8883  -20.0817   21.2632 C   0  0  0  0  0  0  0  0  0  0  0  0
  -21.8817  -18.8922   22.4715 C   0  0  0  0  0  0  0  0  0  0  0  0
  -20.5804   -4.5352   19.2025 C   0  0  0  0  0  0  0  0  0  0  0  0
  -23.8250  -10.4514   20.9649 C   0  0  0  0  0  0  0  0  0  0  0  0
  -24.1670  -12.9764   20.8425 C   0  0  0  0  0  0  0  0  0  0  0  0
  -15.4176  -24.1711   18.8033 C   0  0  0  0  0  0  0  0  0  0  0  0
  -21.5319  -21.0115   21.3555 C   0  0  0  0  0  0  0  0  0  0  0  0
  -16.2213  -23.5519   19.7795 C   0  0  0  0  0  0  0  0  0  0  0  0
  -21.5050  -19.6099   21.3261 C   0  0  0  0  0  0  0  0  0  0  0  0
  -29.8529  -18.0248   22.0851 C   0  0  0  0  0  0  0  0  0  0  0  0
  -29.0421  -18.0972   23.2178 C   0  0  0  0  0  0  0  0  0  0  0  0
  -28.1544  -19.1618   23.3733 C   0  0  0  0  0  0  0  0  0  0  0  0
  -22.3374   -8.1457   21.4685 C   0  0  0  0  0  0  0  0  0  0  0  0
  -22.2917  -19.5590   23.6258 C   0  0  0  0  0  0  0  0  0  0  0  0
  -21.6748   -5.9976   20.7838 C   0  0  0  0  0  0  0  0  0  0  0  0
  -21.8056   -3.9371   18.9078 C   0  0  0  0  0  0  0  0  0  0  0  0
  -20.5150   -5.5654   20.1406 C   0  0  0  0  0  0  0  0  0  0  0  0
  -28.0775  -20.1541   22.3959 C   0  0  0  0  0  0  0  0  0  0  0  0
  -24.5939  -11.6419   20.7052 C   0  0  0  0  0  0  0  0  0  0  0  0
  -25.2588  -13.7254   20.4772 C   0  0  0  0  0  0  0  0  0  0  0  0
  -22.8972  -13.4927   21.2628 C   0  0  0  0  0  0  0  0  0  0  0  0
  -18.8338  -20.9410   19.6765 C   0  0  0  0  0  0  0  0  0  0  0  0
  -20.6071  -19.1467   17.6373 C   0  0  0  0  0  0  0  0  0  0  0  0
  -23.2891  -17.0882   17.1721 C   0  0  0  0  0  0  0  0  0  0  0  0
  -30.7429  -14.7437   20.6571 C   0  0  0  0  0  0  0  0  0  0  0  0
  -14.8546  -23.4016   17.6347 C   0  0  0  0  0  0  0  0  0  0  0  0
  -21.1570  -21.8063   20.1347 C   0  0  0  0  0  0  0  0  0  0  0  0
  -21.0739  -18.8505   20.0989 C   0  0  0  0  0  0  0  0  0  0  0  0
  -15.5687  -22.0773   17.3766 C   0  0  0  0  0  0  0  0  0  0  0  0
  -29.6016  -12.3577   18.2737 C   0  0  0  0  0  0  0  0  0  0  0  0
  -15.7589  -21.3102   18.6812 C   0  0  0  0  0  0  0  0  0  0  0  0
  -28.1647  -12.0645   18.7088 C   0  0  0  0  0  0  0  0  0  0  0  0
  -30.5205  -12.5792   19.4731 C   0  0  0  0  0  0  0  0  0  0  0  0
  -28.6208  -13.3116   20.8618 C   0  0  0  0  0  0  0  0  0  0  0  0
  -16.6322  -22.1001   19.6634 C   0  0  1  0  0  0  0  0  0  0  0  0
  -20.2481  -21.0400   19.1787 C   0  0  1  0  0  0  0  0  0  0  0  0
  -27.6450  -13.1363   19.6857 C   0  0  2  0  0  0  0  0  0  0  0  0
  -29.1274  -17.0307   24.2638 C   0  0  0  0  0  0  0  0  0  0  0  0
  -24.4603  -15.7480   15.4030 C   0  0  0  0  0  0  0  0  0  0  0  0
  -18.4188  -17.0265   17.7982 C   0  0  0  0  0  0  0  0  0  0  0  0
  -20.0358  -15.3833   16.8216 C   0  0  0  0  0  0  0  0  0  0  0  0
  -19.3526  -17.3901   15.5068 C   0  0  0  0  0  0  0  0  0  0  0  0
  -25.7865  -18.6459   17.4814 C   0  0  0  0  0  0  0  0  0  0  0  0
  -30.8109  -16.8952   21.8923 C   0  0  0  0  0  0  0  0  0  0  0  0
  -27.2885  -19.2275   24.5968 C   0  0  0  0  0  0  0  0  0  0  0  0
  -24.1848  -17.2493   25.6527 C   0  0  0  0  0  0  0  0  0  0  0  0
  -25.3189  -18.2547   25.7853 C   0  0  0  0  0  0  0  0  0  0  0  0
  -23.2221  -17.5580   24.5127 C   0  0  0  0  0  0  0  0  0  1  0  0
  -20.8989  -17.6732   17.4869 C   0  0  1  0  0  0  0  0  0  0  0  0
  -24.3868  -17.0853   16.1235 C   0  0  2  0  0  0  0  0  0  0  0  0
  -19.6828  -16.8823   16.9273 C   0  0  0  0  0  0  0  0  0  0  0  0
  -25.8581  -11.5456   20.2852 N   0  0  0  0  0  0  0  0  0  0  0  0
  -26.2351  -12.8290   20.1554 N   0  0  0  0  0  0  0  0  0  0  0  0
  -20.7109  -19.6727   18.9328 N   0  0  0  0  0  0  0  0  0  0  0  0
  -29.9713  -13.6085   20.3591 N   0  0  0  0  0  0  0  0  0  0  0  0
  -25.4693  -15.0568   20.4029 N   0  0  0  0  0  0  0  0  0  0  0  0
  -21.8856  -12.5840   21.6022 N   0  0  0  0  0  0  0  0  0  0  0  0
  -18.0279  -21.9966   19.2948 N   0  0  0  0  0  0  0  0  0  0  0  0
  -22.1024  -17.5769   16.6679 N   0  0  0  0  0  0  0  0  0  0  0  0
  -30.1451  -15.6733   21.4993 N   0  0  0  0  0  0  0  0  0  0  0  0
  -25.7092  -17.3512   16.7571 N   0  3  0  0  0  0  0  0  0  0  0  0
  -26.1571  -18.2600   24.5635 N   0  3  0  0  0  0  0  0  0  0  0  0
  -22.6612  -14.7234   21.3196 O   0  0  0  0  0  0  0  0  0  0  0  0
  -18.4983  -19.9774   20.3552 O   0  0  0  0  0  0  0  0  0  0  0  0
  -20.3054  -19.8082   16.6408 O   0  0  0  0  0  0  0  0  0  0  0  0
  -23.4657  -16.6928   18.3223 O   0  0  0  0  0  0  0  0  0  0  0  0
  -31.8783  -14.9187   20.2018 O   0  0  0  0  0  0  0  0  0  0  0  0
  -21.6117   -7.0209   21.7147 O   0  0  0  0  0  0  0  0  0  0  0  0
  -22.6559  -18.8500   24.7288 O   0  0  0  0  0  0  0  0  0  1  0  0
  -21.8688   -2.9487   18.0059 F   0  0  0  0  0  0  0  0  0  0  0  0
  -19.3353   -6.1370   20.4188 F   0  0  0  0  0  0  0  0  0  0  0  0
  -26.9922  -21.4878   22.5509 Cl  0  0  0  0  0  0  0  0  0  0  0  0
  1  2  1  0  0  0  0
  1  5  2  0  0  0  0
  2  6  2  0  0  0  0
  3  9  2  0  0  0  0
  3 17  1  0  0  0  0
  4 10  1  0  0  0  0
  4 17  2  0  0  0  0
  5 19  1  0  0  0  0
  6 21  1  0  0  0  0
  7 11  2  0  0  0  0
  7 20  1  0  0  0  0
  8 14  1  0  0  0  0
  8 23  2  0  0  0  0
  9 26  1  0  0  0  0
 10 26  2  0  0  0  0
 11 27  1  0  0  0  0
 12 13  2  0  0  0  0
 12 28  1  0  0  0  0
 13 29  1  0  0  0  0
 14 31  2  0  0  0  0
 15 22  1  0  0  0  0
 15 27  2  0  0  0  0
 16 29  2  0  0  0  0
 16 30  1  0  0  0  0
 17 32  1  0  0  0  0
 18 32  1  0  0  0  0
 18 33  2  0  0  0  0
 18 34  1  0  0  0  0
 19 21  2  0  0  0  0
 19 39  1  0  0  0  0
 20 22  2  0  0  0  0
 20 40  1  0  0  0  0
 21 48  1  0  0  0  0
 22 41  1  0  0  0  0
 23 24  1  0  0  0  0
 23 57  1  0  0  0  0
 24 25  2  0  0  0  0
 24 51  1  0  0  0  0
 25 31  1  0  0  0  0
 25 58  1  0  0  0  0
 26 81  1  0  0  0  0
 27 82  1  0  0  0  0
 28 30  2  0  0  0  0
 28 81  1  0  0  0  0
 29 83  1  0  0  0  0
 30 84  1  0  0  0  0
 31 85  1  0  0  0  0
 32 65  2  0  0  0  0
 33 66  1  0  0  0  0
 33 69  1  0  0  0  0
 34 70  1  0  0  0  0
 34 76  2  0  0  0  0
 35 49  1  0  0  0  0
 35 71  1  0  0  0  0
 35 77  2  0  0  0  0
 36 62  1  0  0  0  0
 36 67  1  0  0  0  0
 36 78  2  0  0  0  0
 37 63  1  0  0  0  0
 37 72  1  0  0  0  0
 37 79  2  0  0  0  0
 38 68  1  0  0  0  0
 38 73  1  0  0  0  0
 38 80  2  0  0  0  0
 39 42  1  0  0  0  0
 40 49  1  0  0  0  0
 41 67  1  0  0  0  0
 42 44  1  0  0  0  0
 43 45  1  0  0  0  0
 43 46  1  0  0  0  0
 44 48  1  0  0  0  0
 45 50  1  0  0  0  0
 46 68  1  0  0  0  0
 47 50  1  0  0  0  0
 47 68  1  0  0  0  0
 48 71  1  0  0  0  0
 49 67  1  0  0  0  0
 50 66  1  0  0  0  0
 52 63  1  0  0  0  0
 53 64  1  0  0  0  0
 54 64  1  0  0  0  0
 55 64  1  0  0  0  0
 56 74  1  0  0  0  0
 57 73  1  0  0  0  0
 58 75  1  0  0  0  0
 59 60  1  0  0  0  0
 59 61  1  0  0  0  0
 60 75  1  0  0  0  0
 61 82  1  0  0  0  0
 62 64  1  0  0  0  0
 62 72  1  0  0  0  0
 63 74  1  0  0  0  0
 65 66  1  0  0  0  0
M  CHG  2  74   1  75   1
M  ISO  4  38 100  61 101  73 100  82 101
M  END
> <Batch ID>
0042

> <Smiles>
CNC(C)C(=O)NC(C(=O)N1Cc2cc([101O:1][101CH2:1]CCNCc3c(Cl)ccc(C[100NH:0][100C:0](=O)N4CCCC(n5nc(-c6ccc(Oc7ccc(F)cc7F)cc6)c(C(N)=O)c5N)C4)c3C)ccc2CC1C(=O)NC1CCCc2ccccc21)C(C)(C)C

> <Shape>
0.164

> <Color>
0.191

> <Negative vol penalty>
0.000

$$$$

  -OEChem-04042322123D

 88 97  0     1  0  0  0  0  0999 V2000
  -16.6411  -28.0322   23.8643 C   0  0  0  0  0  0  0  0  0  0  0  0
  -17.3361  -27.7283   22.6981 C   0  0  0  0  0  0  0  0  0  0  0  0
  -24.5726   -9.4804   21.2683 C   0  0  0  0  0  0  0  0  0  0  0  0
  -24.5185  -11.3071   22.8486 C   0  0  0  0  0  0  0  0  0  0  0  0
  -16.9092  -29.2191   24.5449 C   0  0  0  0  0  0  0  0  0  0  0  0
  -18.2990  -28.6117   22.2113 C   0  0  0  0  0  0  0  0  0  0  0  0
  -25.1301  -26.5161   21.2972 C   0  0  0  0  0  0  0  0  0  0  0  0
  -24.2370   -8.5889   22.2873 C   0  0  0  0  0  0  0  0  0  0  0  0
  -24.1828  -10.4156   23.8676 C   0  0  0  0  0  0  0  0  0  0  0  0
  -26.4097  -26.1318   20.8960 C   0  0  0  0  0  0  0  0  0  0  0  0
  -21.4519   -7.6518   23.9600 C   0  0  0  0  0  0  0  0  0  0  0  0
  -20.4666   -6.7018   23.6916 C   0  0  0  0  0  0  0  0  0  0  0  0
  -26.8964  -28.4059   20.2329 C   0  0  0  0  0  0  0  0  0  0  0  0
  -26.4271  -19.1879   22.2356 C   0  0  0  0  0  0  0  0  0  0  0  0
  -28.5846  -19.8713   21.3897 C   0  0  0  0  0  0  0  0  0  0  0  0
  -22.0521   -4.9329   24.1323 C   0  0  0  0  0  0  0  0  0  0  0  0
  -24.7134  -10.8395   21.5490 C   0  0  0  0  0  0  0  0  0  0  0  0
  -24.3353  -12.0174   19.3181 C   0  0  0  0  0  0  0  0  0  0  0  0
  -17.8826  -30.1130   24.0715 C   0  0  0  0  0  0  0  0  0  0  0  0
  -24.7337  -27.8514   21.1820 C   0  0  0  0  0  0  0  0  0  0  0  0
  -18.5794  -29.8123   22.8855 C   0  0  0  0  0  0  0  0  0  0  0  0
  -25.6203  -28.7991   20.6447 C   0  0  0  0  0  0  0  0  0  0  0  0
  -26.1886  -20.4890   22.6783 C   0  0  0  0  0  0  0  0  0  0  0  0
  -28.3460  -21.1724   21.8324 C   0  0  0  0  0  0  0  0  0  0  0  0
  -27.6252  -18.8791   21.5914 C   0  0  0  0  0  0  0  0  0  0  0  0
  -24.0421   -9.0565   23.5869 C   0  0  0  0  0  0  0  0  0  0  0  0
  -27.2906  -27.0743   20.3649 C   0  0  0  0  0  0  0  0  0  0  0  0
  -22.7374   -7.2424   24.3144 C   0  0  0  0  0  0  0  0  0  0  0  0
  -20.7666   -5.3423   23.7778 C   0  0  0  0  0  0  0  0  0  0  0  0
  -23.0375   -5.8830   24.4006 C   0  0  0  0  0  0  0  0  0  0  0  0
  -27.1480  -21.4812   22.4767 C   0  0  0  0  0  0  0  0  0  0  0  0
  -25.0606  -11.7608   20.4970 C   0  0  0  0  0  0  0  0  0  0  0  0
  -25.0794  -12.9633   18.6562 C   0  0  0  0  0  0  0  0  0  0  0  0
  -28.9752  -24.4827   20.7381 C   0  0  0  0  0  0  0  0  0  0  0  0
  -23.0993  -11.4516   18.8621 C   0  0  0  0  0  0  0  0  0  0  0  0
  -22.0349  -30.4020   21.7174 C   0  0  0  0  0  0  0  0  0  0  0  0
  -24.6864  -31.7332   22.4970 C   0  0  0  0  0  0  0  0  0  0  0  0
  -27.7508  -32.6894   23.6514 C   0  0  0  0  0  0  0  0  0  0  0  0
  -29.0021  -17.0838   20.4836 C   0  0  0  0  0  0  0  0  0  0  0  0
  -18.1042  -31.4060   24.8156 C   0  0  0  0  0  0  0  0  0  0  0  0
  -23.3436  -28.2987   21.5444 C   0  0  0  0  0  0  0  0  0  0  0  0
  -25.1385  -30.2175   20.5074 C   0  0  0  0  0  0  0  0  0  0  0  0
  -19.4044  -32.1110   24.4379 C   0  0  0  0  0  0  0  0  0  0  0  0
  -29.7756  -24.1421   17.5381 C   0  0  0  0  0  0  0  0  0  0  0  0
  -29.8882  -22.7693   18.1935 C   0  0  0  0  0  0  0  0  0  0  0  0
  -29.5905  -14.4812   18.1262 C   0  0  0  0  0  0  0  0  0  0  0  0
  -19.5698  -32.1497   22.9220 C   0  0  0  0  0  0  0  0  0  0  0  0
  -29.8412  -25.3193   18.5061 C   0  0  0  0  0  0  0  0  0  0  0  0
  -28.4262  -13.5146   18.3551 C   0  0  0  0  0  0  0  0  0  0  0  0
  -28.7852  -22.4888   19.2072 C   0  0  0  0  0  0  0  0  0  0  0  0
  -30.0761  -15.1040   19.4338 C   0  0  0  0  0  0  0  0  0  0  0  0
  -27.8663  -14.7761   20.4722 C   0  0  0  0  0  0  0  0  0  0  0  0
  -19.6487  -30.7334   22.3394 C   0  0  1  0  0  0  0  0  0  0  0  0
  -28.6948  -25.3531   19.5166 C   0  0  2  0  0  0  0  0  0  1  0  0
  -23.3020  -29.7178   22.1389 C   0  0  1  0  0  0  0  0  0  0  0  0
  -27.3003  -14.1731   19.1762 C   0  0  2  0  0  0  0  0  0  0  0  0
  -24.8917  -20.7740   23.3655 C   0  0  0  0  0  0  0  0  0  0  0  0
  -28.9412  -34.6321   24.7031 C   0  0  0  0  0  0  0  0  0  0  0  0
  -24.7409  -33.1555   19.7992 C   0  0  0  0  0  0  0  0  0  0  0  0
  -26.6654  -34.5201   20.6374 C   0  0  0  0  0  0  0  0  0  0  0  0
  -24.4477  -34.6669   21.7701 C   0  0  0  0  0  0  0  0  0  0  0  0
  -28.4240  -31.1183   26.0674 C   0  0  0  0  0  0  0  0  0  0  0  0
  -29.4069  -22.2076   21.5936 C   0  0  0  0  0  0  0  0  0  0  0  0
  -25.8515  -32.5841   22.0589 C   0  0  1  0  0  0  0  0  0  0  0  0
  -28.1784  -33.3407   24.9542 C   0  0  2  0  0  0  0  0  0  0  0  0
  -25.4278  -33.7032   21.0662 C   0  0  0  0  0  0  0  0  0  0  0  0
  -26.1797  -12.4850   20.5819 N   0  0  0  0  0  0  0  0  0  0  0  0
  -26.1632  -13.2059   19.4479 N   0  0  0  0  0  0  0  0  0  0  0  0
  -29.0532  -23.1099   20.5051 N   0  0  0  0  0  0  0  0  0  0  0  0
  -24.3905  -30.6129   21.7111 N   0  0  0  0  0  0  0  0  0  0  0  0
  -28.9562  -15.7123   20.1554 N   0  0  0  0  0  0  0  0  0  0  0  0
  -24.9060  -13.6027   17.4800 N   0  0  0  0  0  0  0  0  0  0  0  0
  -22.4671  -10.4926   19.6652 N   0  0  0  0  0  0  0  0  0  0  0  0
  -27.8669  -17.5578   21.1403 N   0  0  0  0  0  0  0  0  0  0  0  0
  -20.9633  -30.1693   22.5582 N   0  0  0  0  0  0  0  0  0  0  0  0
  -26.4802  -33.0755   23.2803 N   0  0  0  0  0  0  0  0  0  0  0  0
  -29.0562  -32.4196   25.7301 N   0  3  0  0  0  0  0  0  0  0  0  0
  -29.1231  -24.9954   21.8506 O   0  0  0  0  0  0  0  0  0  0  0  0
  -22.5797  -11.7744   17.7670 O   0  0  0  0  0  0  0  0  0  0  0  0
  -22.0289  -31.0920   20.7046 O   0  0  0  0  0  0  0  0  0  0  0  0
  -24.0506  -32.0540   23.5051 O   0  0  0  0  0  0  0  0  0  0  0  0
  -28.4732  -31.9183   23.0236 O   0  0  0  0  0  0  0  0  0  0  0  0
  -29.9650  -17.7922   20.1785 O   0  0  0  0  0  0  0  0  0  0  0  0
  -23.7144   -8.1869   24.5814 O   0  0  0  0  0  0  0  0  0  0  0  0
  -28.5399  -26.6932   19.9793 O   0  0  0  0  0  0  0  0  0  1  0  0
  -19.8199   -4.4300   23.5215 F   0  0  0  0  0  0  0  0  0  0  0  0
  -24.2703   -5.4836   24.7418 F   0  0  0  0  0  0  0  0  0  0  0  0
  -26.8523  -23.0967   23.0260 Cl  0  0  0  0  0  0  0  0  0  0  0  0
  1  2  1  0  0  0  0
  1  5  2  0  0  0  0
  2  6  2  0  0  0  0
  3  8  2  0  0  0  0
  3 17  1  0  0  0  0
  4  9  1  0  0  0  0
  4 17  2  0  0  0  0
  5 19  1  0  0  0  0
  6 21  1  0  0  0  0
  7 10  2  0  0  0  0
  7 20  1  0  0  0  0
  8 26  1  0  0  0  0
  9 26  2  0  0  0  0
 10 27  1  0  0  0  0
 11 12  2  0  0  0  0
 11 28  1  0  0  0  0
 12 29  1  0  0  0  0
 13 22  1  0  0  0  0
 13 27  2  0  0  0  0
 14 23  2  0  0  0  0
 14 25  1  0  0  0  0
 15 24  1  0  0  0  0
 15 25  2  0  0  0  0
 16 29  2  0  0  0  0
 16 30  1  0  0  0  0
 17 32  1  0  0  0  0
 18 32  1  0  0  0  0
 18 33  2  0  0  0  0
 18 35  1  0  0  0  0
 19 21  2  0  0  0  0
 19 40  1  0  0  0  0
 20 22  2  0  0  0  0
 20 41  1  0  0  0  0
 21 53  1  0  0  0  0
 22 42  1  0  0  0  0
 23 31  1  0  0  0  0
 23 57  1  0  0  0  0
 24 31  2  0  0  0  0
 24 63  1  0  0  0  0
 25 74  1  0  0  0  0
 26 84  1  0  0  0  0
 27 85  1  0  0  0  0
 28 30  2  0  0  0  0
 28 84  1  0  0  0  0
 29 86  1  0  0  0  0
 30 87  1  0  0  0  0
 31 88  1  0  0  0  0
 32 67  2  0  0  0  0
 33 68  1  0  0  0  0
 33 72  1  0  0  0  0
 34 54  1  0  0  0  0
 34 69  1  0  0  0  0
 34 78  2  0  0  0  0
 35 73  1  0  0  0  0
 35 79  2  0  0  0  0
 36 55  1  0  0  0  0
 36 75  1  0  0  0  0
 36 80  2  0  0  0  0
 37 64  1  0  0  0  0
 37 70  1  0  0  0  0
 37 81  2  0  0  0  0
 38 65  1  0  0  0  0
 38 76  1  0  0  0  0
 38 82  2  0  0  0  0
 39 71  1  0  0  0  0
 39 74  1  0  0  0  0
 39 83  2  0  0  0  0
 40 43  1  0  0  0  0
 41 55  1  0  0  0  0
 42 70  1  0  0  0  0
 43 47  1  0  0  0  0
 44 45  1  0  0  0  0
 44 48  1  0  0  0  0
 45 50  1  0  0  0  0
 46 49  1  0  0  0  0
 46 51  1  0  0  0  0
 47 53  1  0  0  0  0
 48 54  1  0  0  0  0
 49 56  1  0  0  0  0
 50 69  1  0  0  0  0
 51 71  1  0  0  0  0
 52 56  1  0  0  0  0
 52 71  1  0  0  0  0
 53 75  1  0  0  0  0
 54 85  1  0  0  0  0
 55 70  1  0  0  0  0
 56 68  1  0  0  0  0
 58 65  1  0  0  0  0
 59 66  1  0  0  0  0
 60 66  1  0  0  0  0
 61 66  1  0  0  0  0
 62 77  1  0  0  0  0
 63 69  1  0  0  0  0
 64 66  1  0  0  0  0
 64 76  1  0  0  0  0
 65 77  1  0  0  0  0
 67 68  1  0  0  0  0
M  CHG  1  77   1
M  ISO  4  39 100  54 101  74 100  85 101
M  END
> <Batch ID>
0042

> <Smiles>
CNC(C)C(=O)NC(C(=O)N1Cc2cc([101O:1][101CH:1]3CCCCN(Cc4cc([100NH:0][100C:0](=O)N5CCCC(n6nc(-c7ccc(Oc8ccc(F)cc8F)cc7)c(C(N)=O)c6N)C5)cc(C)c4Cl)C3=O)ccc2CC1C(=O)NC1CCCc2ccccc21)C(C)(C)C

> <Shape>
0.325

> <Color>
0.113

> <Negative vol penalty>
0.000

$$$$

  -OEChem-04042322123D

 87 96  0     1  0  0  0  0  0999 V2000
  -23.4958   -7.8439   20.7474 C   0  0  0  0  0  0  0  0  0  0  0  0
  -23.3775   -8.7825   19.7286 C   0  0  0  0  0  0  0  0  0  0  0  0
  -19.6868  -24.8968   15.7990 C   0  0  0  0  0  0  0  0  0  0  0  0
  -27.7626  -27.7229   18.9238 C   0  0  0  0  0  0  0  0  0  0  0  0
  -27.9137  -27.3046   21.2985 C   0  0  0  0  0  0  0  0  0  0  0  0
  -23.4188   -8.2513   22.0776 C   0  0  0  0  0  0  0  0  0  0  0  0
  -23.1943  -10.1303   20.0397 C   0  0  0  0  0  0  0  0  0  0  0  0
  -22.1166  -17.8996   18.7363 C   0  0  0  0  0  0  0  0  0  0  0  0
  -19.4344  -26.2609   15.6538 C   0  0  0  0  0  0  0  0  0  0  0  0
  -19.6180  -24.3051   17.0603 C   0  0  0  0  0  0  0  0  0  0  0  0
  -28.8157  -26.8360   18.7006 C   0  0  0  0  0  0  0  0  0  0  0  0
  -28.9668  -26.4176   21.0753 C   0  0  0  0  0  0  0  0  0  0  0  0
  -21.6730  -19.0774   19.3363 C   0  0  0  0  0  0  0  0  0  0  0  0
  -29.2610  -23.4881   18.5383 C   0  0  0  0  0  0  0  0  0  0  0  0
  -29.1249  -22.5689   17.4981 C   0  0  0  0  0  0  0  0  0  0  0  0
  -23.2519  -18.7510   21.1306 C   0  0  0  0  0  0  0  0  0  0  0  0
  -31.0892  -23.4856   16.4310 C   0  0  0  0  0  0  0  0  0  0  0  0
  -27.3116  -27.9573   20.2228 C   0  0  0  0  0  0  0  0  0  0  0  0
  -26.1819  -30.2425   20.1277 C   0  0  0  0  0  0  0  0  0  0  0  0
  -23.2220   -9.6032   22.4040 C   0  0  0  0  0  0  0  0  0  0  0  0
  -23.1253  -17.1317   19.3357 C   0  0  0  0  0  0  0  0  0  0  0  0
  -23.1379  -10.5646   21.3764 C   0  0  0  0  0  0  0  0  0  0  0  0
  -23.7083  -17.5652   20.5349 C   0  0  0  0  0  0  0  0  0  0  0  0
  -19.1131  -27.0334   16.7700 C   0  0  0  0  0  0  0  0  0  0  0  0
  -19.2968  -25.0776   18.1764 C   0  0  0  0  0  0  0  0  0  0  0  0
  -19.0443  -26.4417   18.0313 C   0  0  0  0  0  0  0  0  0  0  0  0
  -29.4178  -26.1834   19.7763 C   0  0  0  0  0  0  0  0  0  0  0  0
  -22.2386  -19.5017   20.5350 C   0  0  0  0  0  0  0  0  0  0  0  0
  -30.3111  -24.4062   18.5249 C   0  0  0  0  0  0  0  0  0  0  0  0
  -30.0390  -22.5676   16.4445 C   0  0  0  0  0  0  0  0  0  0  0  0
  -31.2252  -24.4049   17.4713 C   0  0  0  0  0  0  0  0  0  0  0  0
  -26.2241  -28.8738   20.4542 C   0  0  0  0  0  0  0  0  0  0  0  0
  -24.9425  -30.6580   20.5495 C   0  0  0  0  0  0  0  0  0  0  0  0
  -20.5596  -22.4226   20.0948 C   0  0  0  0  0  0  0  0  0  0  0  0
  -27.1742  -31.0648   19.4994 C   0  0  0  0  0  0  0  0  0  0  0  0
  -23.3043  -14.1794   20.4999 C   0  0  0  0  0  0  0  0  0  0  0  0
  -26.4487  -14.9118   20.8135 C   0  0  0  0  0  0  0  0  0  0  0  0
  -28.3968  -17.7597   21.8679 C   0  0  0  0  0  0  0  0  0  0  0  0
  -19.7566  -27.7921   21.4121 C   0  0  0  0  0  0  0  0  0  0  0  0
  -23.1541   -9.9900   23.8604 C   0  0  0  0  0  0  0  0  0  0  0  0
  -23.6112  -15.8777   18.6621 C   0  0  0  0  0  0  0  0  0  0  0  0
  -24.8083  -16.7875   21.2085 C   0  0  0  0  0  0  0  0  0  0  0  0
  -22.5186  -11.3585   24.0830 C   0  0  0  0  0  0  0  0  0  0  0  0
  -22.9413  -24.1043   20.3889 C   0  0  0  0  0  0  0  0  0  0  0  0
  -21.5783  -29.6906   23.8109 C   0  0  0  0  0  0  0  0  0  0  0  0
  -23.1597  -12.3854   23.1615 C   0  0  0  0  0  0  0  0  0  0  0  0
  -22.8481  -22.7931   21.1409 C   0  0  0  0  0  0  0  0  0  0  0  0
  -22.9717  -29.8200   23.1932 C   0  0  0  0  0  0  0  0  0  0  0  0
  -21.5622  -24.7297   20.2800 C   0  0  0  0  0  0  0  0  0  0  0  0
  -20.9534  -28.3293   23.5135 C   0  0  0  0  0  0  0  0  0  0  0  0
  -22.3065  -28.0946   21.4671 C   0  0  0  0  0  0  0  0  0  0  0  0
  -22.9076  -12.0318   21.6904 C   0  0  1  0  0  0  0  0  0  0  0  0
  -21.9423  -21.8482   20.3760 C   0  0  1  0  0  0  0  0  0  1  0  0
  -24.2863  -14.9056   19.6247 C   0  0  1  0  0  0  0  0  0  0  0  0
  -22.9545  -29.4714   21.6927 C   0  0  2  0  0  0  0  0  0  0  0  0
  -18.8470  -28.4920   16.5873 C   0  0  0  0  0  0  0  0  0  0  0  0
  -30.7237  -18.4649   21.2469 C   0  0  0  0  0  0  0  0  0  0  0  0
  -27.2699  -13.3868   23.3255 C   0  0  0  0  0  0  0  0  0  0  0  0
  -28.9613  -15.1771   23.7752 C   0  0  0  0  0  0  0  0  0  0  0  0
  -29.1269  -13.7997   21.7020 C   0  0  0  0  0  0  0  0  0  0  0  0
  -27.4777  -20.4333   20.9927 C   0  0  0  0  0  0  0  0  0  0  0  0
  -19.2290  -24.4161   19.5226 C   0  0  0  0  0  0  0  0  0  0  0  0
  -18.6999  -27.2700   19.2281 C   0  0  0  0  0  0  0  0  0  0  0  0
  -27.2986  -15.5354   21.8942 C   0  0  1  0  0  0  0  0  0  0  0  0
  -29.2388  -18.6622   20.9842 C   0  0  2  0  0  0  0  0  0  0  0  0
  -28.1366  -14.4813   22.6714 C   0  0  0  0  0  0  0  0  0  0  0  0
  -25.1009  -28.4481   21.0384 N   0  0  0  0  0  0  0  0  0  0  0  0
  -24.3413  -29.5559   21.0824 N   0  0  0  0  0  0  0  0  0  0  0  0
  -20.4973  -23.8027   19.8931 N   0  0  0  0  0  0  0  0  0  0  0  0
  -25.2447  -15.5648   20.5141 N   0  0  0  0  0  0  0  0  0  0  0  0
  -20.9664  -28.0604   22.0735 N   0  0  0  0  0  0  0  0  0  0  0  0
  -24.3193  -31.8549   20.5128 N   0  0  0  0  0  0  0  0  0  0  0  0
  -28.1058  -31.7260   20.3114 N   0  0  0  0  0  0  0  0  0  0  0  0
  -23.7012  -12.9036   20.8526 N   0  0  0  0  0  0  0  0  0  0  0  0
  -28.0951  -16.5689   21.2417 N   0  0  0  0  0  0  0  0  0  0  0  0
  -19.8574  -27.5543   20.0468 N   0  0  0  0  0  0  0  0  0  0  0  0
  -28.9032  -20.0923   21.2350 N   0  3  0  0  0  0  0  0  0  0  0  0
  -19.5894  -21.6673   19.9933 O   0  0  0  0  0  0  0  0  0  0  0  0
  -27.2228  -31.2221   18.2559 O   0  0  0  0  0  0  0  0  0  0  0  0
  -22.2642  -14.7359   20.8319 O   0  0  0  0  0  0  0  0  0  0  0  0
  -26.8422  -13.8870   20.2507 O   0  0  0  0  0  0  0  0  0  0  0  0
  -28.0452  -18.0777   23.0018 O   0  0  0  0  0  0  0  0  0  0  0  0
  -18.6668  -27.7717   21.9942 O   0  0  0  0  0  0  0  0  0  0  0  0
  -30.4454  -25.3176   19.5588 O   0  0  0  0  0  0  0  0  0  0  0  0
  -21.8071  -20.6506   21.1231 O   0  0  0  0  0  0  0  0  0  1  0  0
  -29.9091  -21.6838   15.4464 F   0  0  0  0  0  0  0  0  0  0  0  0
  -32.2368  -25.2837   17.4535 F   0  0  0  0  0  0  0  0  0  0  0  0
  1  2  1  0  0  0  0
  1  6  2  0  0  0  0
  2  7  2  0  0  0  0
  3  9  1  0  0  0  0
  3 10  2  0  0  0  0
  4 11  2  0  0  0  0
  4 18  1  0  0  0  0
  5 12  1  0  0  0  0
  5 18  2  0  0  0  0
  6 20  1  0  0  0  0
  7 22  1  0  0  0  0
  8 13  2  0  0  0  0
  8 21  1  0  0  0  0
  9 24  2  0  0  0  0
 10 25  1  0  0  0  0
 11 27  1  0  0  0  0
 12 27  2  0  0  0  0
 13 28  1  0  0  0  0
 14 15  2  0  0  0  0
 14 29  1  0  0  0  0
 15 30  1  0  0  0  0
 16 23  1  0  0  0  0
 16 28  2  0  0  0  0
 17 30  2  0  0  0  0
 17 31  1  0  0  0  0
 18 32  1  0  0  0  0
 19 32  1  0  0  0  0
 19 33  2  0  0  0  0
 19 35  1  0  0  0  0
 20 22  2  0  0  0  0
 20 40  1  0  0  0  0
 21 23  2  0  0  0  0
 21 41  1  0  0  0  0
 22 52  1  0  0  0  0
 23 42  1  0  0  0  0
 24 26  1  0  0  0  0
 24 56  1  0  0  0  0
 25 26  2  0  0  0  0
 25 62  1  0  0  0  0
 26 63  1  0  0  0  0
 27 84  1  0  0  0  0
 28 85  1  0  0  0  0
 29 31  2  0  0  0  0
 29 84  1  0  0  0  0
 30 86  1  0  0  0  0
 31 87  1  0  0  0  0
 32 67  2  0  0  0  0
 33 68  1  0  0  0  0
 33 72  1  0  0  0  0
 34 53  1  0  0  0  0
 34 69  1  0  0  0  0
 34 78  2  0  0  0  0
 35 73  1  0  0  0  0
 35 79  2  0  0  0  0
 36 54  1  0  0  0  0
 36 74  1  0  0  0  0
 36 80  2  0  0  0  0
 37 64  1  0  0  0  0
 37 70  1  0  0  0  0
 37 81  2  0  0  0  0
 38 65  1  0  0  0  0
 38 75  1  0  0  0  0
 38 82  2  0  0  0  0
 39 71  1  0  0  0  0
 39 76  1  0  0  0  0
 39 83  2  0  0  0  0
 40 43  1  0  0  0  0
 41 54  1  0  0  0  0
 42 70  1  0  0  0  0
 43 46  1  0  0  0  0
 44 47  1  0  0  0  0
 44 49  1  0  0  0  0
 45 48  1  0  0  0  0
 45 50  1  0  0  0  0
 46 52  1  0  0  0  0
 47 53  1  0  0  0  0
 48 55  1  0  0  0  0
 49 69  1  0  0  0  0
 50 71  1  0  0  0  0
 51 55  1  0  0  0  0
 51 71  1  0  0  0  0
 52 74  1  0  0  0  0
 53 85  1  0  0  0  0
 54 70  1  0  0  0  0
 55 68  1  0  0  0  0
 57 65  1  0  0  0  0
 58 66  1  0  0  0  0
 59 66  1  0  0  0  0
 60 66  1  0  0  0  0
 61 77  1  0  0  0  0
 62 69  1  0  0  0  0
 63 76  1  0  0  0  0
 64 66  1  0  0  0  0
 64 75  1  0  0  0  0
 65 77  1  0  0  0  0
 67 68  1  0  0  0  0
M  CHG  1  77   1
M  ISO  4  39 100  53 101  76 100  85 101
M  END
> <Batch ID>
0042

> <Smiles>
CNC(C)C(=O)NC(C(=O)N1Cc2cc([101O:1][101CH:1]3CCCN(Cc4cccc(C)c4C[100NH:0][100C:0](=O)N4CCCC(n5nc(-c6ccc(Oc7ccc(F)cc7F)cc6)c(C(N)=O)c5N)C4)C3=O)ccc2CC1C(=O)NC1CCCc2ccccc21)C(C)(C)C

> <Shape>
0.245

> <Color>
0.064

> <Negative vol penalty>
0.000

$$$$

  -OEChem-04042322123D

 91100  0     1  0  0  0  0  0999 V2000
  -16.6167  -26.6147   21.8284 C   0  0  0  0  0  0  0  0  0  0  0  0
  -17.4259  -26.9970   20.7633 C   0  0  0  0  0  0  0  0  0  0  0  0
  -24.1686  -12.3662   21.8948 C   0  0  0  0  0  0  0  0  0  0  0  0
  -21.8871  -12.2519   21.1080 C   0  0  0  0  0  0  0  0  0  0  0  0
  -16.7096  -27.2837   23.0482 C   0  0  0  0  0  0  0  0  0  0  0  0
  -18.3279  -28.0493   20.9171 C   0  0  0  0  0  0  0  0  0  0  0  0
  -25.3869  -27.0658   19.8708 C   0  0  0  0  0  0  0  0  0  0  0  0
  -27.6285  -22.9531   18.0402 C   0  0  0  0  0  0  0  0  0  0  0  0
  -26.4947  -22.1590   18.2115 C   0  0  0  0  0  0  0  0  0  0  0  0
  -24.2953  -10.9873   21.7277 C   0  0  0  0  0  0  0  0  0  0  0  0
  -22.0139  -10.8729   20.9409 C   0  0  0  0  0  0  0  0  0  0  0  0
  -26.7259  -27.0086   19.4836 C   0  0  0  0  0  0  0  0  0  0  0  0
  -21.9536   -8.1112   22.8903 C   0  0  0  0  0  0  0  0  0  0  0  0
  -20.9123   -7.3044   23.3489 C   0  0  0  0  0  0  0  0  0  0  0  0
  -27.0271  -29.3148   20.1457 C   0  0  0  0  0  0  0  0  0  0  0  0
  -20.5776   -6.4630   21.1090 C   0  0  0  0  0  0  0  0  0  0  0  0
  -22.9645  -12.9986   21.5850 C   0  0  0  0  0  0  0  0  0  0  0  0
  -22.9773  -15.1510   22.9540 C   0  0  0  0  0  0  0  0  0  0  0  0
  -17.6200  -28.3384   23.2199 C   0  0  0  0  0  0  0  0  0  0  0  0
  -24.8662  -28.2446   20.4119 C   0  0  0  0  0  0  0  0  0  0  0  0
  -18.4321  -28.7339   22.1399 C   0  0  0  0  0  0  0  0  0  0  0  0
  -25.6898  -29.3743   20.5469 C   0  0  0  0  0  0  0  0  0  0  0  0
  -28.8408  -22.5713   18.6148 C   0  0  0  0  0  0  0  0  0  0  0  0
  -28.9193  -21.3954   19.3609 C   0  0  0  0  0  0  0  0  0  0  0  0
  -27.7854  -20.6012   19.5323 C   0  0  0  0  0  0  0  0  0  0  0  0
  -26.5731  -20.9830   18.9576 C   0  0  0  0  0  0  0  0  0  0  0  0
  -23.2180  -10.2406   21.2507 C   0  0  0  0  0  0  0  0  0  0  0  0
  -27.5438  -28.1304   19.6204 C   0  0  0  0  0  0  0  0  0  0  0  0
  -22.3069   -8.0940   21.5410 C   0  0  0  0  0  0  0  0  0  0  0  0
  -20.2243   -6.4803   22.4583 C   0  0  0  0  0  0  0  0  0  0  0  0
  -21.6189   -7.2699   20.6503 C   0  0  0  0  0  0  0  0  0  0  0  0
  -22.8327  -14.4229   21.7579 C   0  0  0  0  0  0  0  0  0  0  0  0
  -22.7567  -16.4569   22.5899 C   0  0  0  0  0  0  0  0  0  0  0  0
  -29.4507  -25.8081   18.8055 C   0  0  0  0  0  0  0  0  0  0  0  0
  -23.2836  -14.6883   24.2760 C   0  0  0  0  0  0  0  0  0  0  0  0
  -21.8883  -30.0099   21.8583 C   0  0  0  0  0  0  0  0  0  0  0  0
  -24.3230  -30.8635   23.5178 C   0  0  0  0  0  0  0  0  0  0  0  0
  -26.8399  -30.7205   25.4013 C   0  0  0  0  0  0  0  0  0  0  0  0
  -24.1315  -20.4382   18.6086 C   0  0  0  0  0  0  0  0  0  0  0  0
  -17.6511  -29.0623   24.5426 C   0  0  0  0  0  0  0  0  0  0  0  0
  -23.4142  -28.3705   20.7855 C   0  0  0  0  0  0  0  0  0  0  0  0
  -25.0777  -30.6314   21.1018 C   0  0  0  0  0  0  0  0  0  0  0  0
  -18.8976  -29.9218   24.7374 C   0  0  0  0  0  0  0  0  0  0  0  0
  -30.5232  -27.2248   16.0055 C   0  0  0  0  0  0  0  0  0  0  0  0
  -30.7250  -25.7189   15.8708 C   0  0  0  0  0  0  0  0  0  0  0  0
  -21.2086  -18.2407   18.0738 C   0  0  0  0  0  0  0  0  0  0  0  0
  -19.1732  -30.7532   23.4885 C   0  0  0  0  0  0  0  0  0  0  0  0
  -30.3944  -27.7260   17.4407 C   0  0  0  0  0  0  0  0  0  0  0  0
  -21.2164  -17.2367   19.2276 C   0  0  0  0  0  0  0  0  0  0  0  0
  -29.5824  -24.8988   16.4578 C   0  0  0  0  0  0  0  0  0  0  0  0
  -21.8032  -19.5887   18.4577 C   0  0  0  0  0  0  0  0  0  0  0  0
  -23.4650  -18.2807   19.7988 C   0  0  0  0  0  0  0  0  0  0  0  0
  -19.4403  -29.8543   22.2752 C   0  0  1  0  0  0  0  0  0  0  0  0
  -29.1769  -27.1733   18.1813 C   0  0  2  0  0  0  0  0  0  1  0  0
  -23.1828  -29.2675   22.0147 C   0  0  1  0  0  0  0  0  0  0  0  0
  -22.1941  -17.6170   20.3520 C   0  0  2  0  0  0  0  0  0  0  0  0
  -30.2209  -20.9884   19.9760 C   0  0  0  0  0  0  0  0  0  0  0  0
  -28.6676  -30.9302   27.1081 C   0  0  0  0  0  0  0  0  0  0  0  0
  -24.4375  -33.4847   21.9622 C   0  0  0  0  0  0  0  0  0  0  0  0
  -26.1432  -34.3017   23.6027 C   0  0  0  0  0  0  0  0  0  0  0  0
  -23.8422  -33.7305   24.3787 C   0  0  0  0  0  0  0  0  0  0  0  0
  -25.3291  -29.1263   27.3849 C   0  0  0  0  0  0  0  0  0  0  0  0
  -30.0459  -23.4443   18.4148 C   0  0  0  0  0  0  0  0  0  0  0  0
  -25.4251  -31.8723   23.7202 C   0  0  1  0  0  0  0  0  0  0  0  0
  -27.1773  -30.7292   26.8814 C   0  0  2  0  0  0  0  0  0  0  0  0
  -27.8719  -19.3396   20.3333 C   0  0  0  0  0  0  0  0  0  0  0  0
  -24.9663  -33.3233   23.4013 C   0  0  0  0  0  0  0  0  0  0  0  0
  -22.5426  -15.2016   20.7121 N   0  0  0  0  0  0  0  0  0  0  0  0
  -22.5029  -16.4325   21.2501 N   0  0  0  0  0  0  0  0  0  0  0  0
  -29.6859  -24.7638   17.9115 N   0  0  0  0  0  0  0  0  0  0  0  0
  -24.2038  -30.3049   22.2395 N   0  0  0  0  0  0  0  0  0  0  0  0
  -23.1768  -19.4493   18.9499 N   0  0  0  0  0  0  0  0  0  0  0  0
  -22.7568  -17.6121   23.2883 N   0  0  0  0  0  0  0  0  0  0  0  0
  -24.6287  -14.6118   24.6622 N   0  0  0  0  0  0  0  0  0  0  0  0
  -25.4087  -20.1915   19.1185 N   0  0  0  0  0  0  0  0  0  0  0  0
  -20.7852  -29.3221   22.3268 N   0  0  0  0  0  0  0  0  0  0  0  0
  -25.9055  -31.6838   25.0848 N   0  0  0  0  0  0  0  0  0  0  0  0
  -26.7756  -29.4399   27.5118 N   0  3  0  0  0  0  0  0  0  0  0  0
  -29.4604  -25.6717   20.0317 O   0  0  0  0  0  0  0  0  0  0  0  0
  -22.3917  -14.3371   25.0852 O   0  0  0  0  0  0  0  0  0  0  0  0
  -21.8891  -31.1255   21.3513 O   0  0  0  0  0  0  0  0  0  0  0  0
  -23.5829  -30.5808   24.4642 O   0  0  0  0  0  0  0  0  0  0  0  0
  -27.3566  -29.9399   24.6049 O   0  0  0  0  0  0  0  0  0  0  0  0
  -23.8358  -21.4100   17.9099 O   0  0  0  0  0  0  0  0  0  0  0  0
  -23.3414   -8.8950   21.0873 O   0  0  0  0  0  0  0  0  0  0  0  0
  -28.8512  -28.0662   19.2446 O   0  0  0  0  0  0  0  0  0  1  0  0
  -19.2254   -5.7044   22.8991 F   0  0  0  0  0  0  0  0  0  0  0  0
  -21.9546   -7.2482   19.3532 F   0  0  0  0  0  0  0  0  0  0  0  0
  -29.1184  -19.0980   20.8312 F   0  0  0  0  0  0  0  0  0  0  0  0
  -27.0424  -19.3277   21.4157 F   0  0  0  0  0  0  0  0  0  0  0  0
  -27.5442  -18.2368   19.6027 F   0  0  0  0  0  0  0  0  0  0  0  0
  1  2  1  0  0  0  0
  1  5  2  0  0  0  0
  2  6  2  0  0  0  0
  3 10  2  0  0  0  0
  3 17  1  0  0  0  0
  4 11  1  0  0  0  0
  4 17  2  0  0  0  0
  5 19  1  0  0  0  0
  6 21  1  0  0  0  0
  7 12  2  0  0  0  0
  7 20  1  0  0  0  0
  8  9  2  0  0  0  0
  8 23  1  0  0  0  0
  9 26  1  0  0  0  0
 10 27  1  0  0  0  0
 11 27  2  0  0  0  0
 12 28  1  0  0  0  0
 13 14  2  0  0  0  0
 13 29  1  0  0  0  0
 14 30  1  0  0  0  0
 15 22  1  0  0  0  0
 15 28  2  0  0  0  0
 16 30  2  0  0  0  0
 16 31  1  0  0  0  0
 17 32  1  0  0  0  0
 18 32  1  0  0  0  0
 18 33  2  0  0  0  0
 18 35  1  0  0  0  0
 19 21  2  0  0  0  0
 19 40  1  0  0  0  0
 20 22  2  0  0  0  0
 20 41  1  0  0  0  0
 21 53  1  0  0  0  0
 22 42  1  0  0  0  0
 23 24  2  0  0  0  0
 23 63  1  0  0  0  0
 24 25  1  0  0  0  0
 24 57  1  0  0  0  0
 25 26  2  0  0  0  0
 25 66  1  0  0  0  0
 26 75  1  0  0  0  0
 27 85  1  0  0  0  0
 28 86  1  0  0  0  0
 29 31  2  0  0  0  0
 29 85  1  0  0  0  0
 30 87  1  0  0  0  0
 31 88  1  0  0  0  0
 32 68  2  0  0  0  0
 33 69  1  0  0  0  0
 33 73  1  0  0  0  0
 34 54  1  0  0  0  0
 34 70  1  0  0  0  0
 34 79  2  0  0  0  0
 35 74  1  0  0  0  0
 35 80  2  0  0  0  0
 36 55  1  0  0  0  0
 36 76  1  0  0  0  0
 36 81  2  0  0  0  0
 37 64  1  0  0  0  0
 37 71  1  0  0  0  0
 37 82  2  0  0  0  0
 38 65  1  0  0  0  0
 38 77  1  0  0  0  0
 38 83  2  0  0  0  0
 39 72  1  0  0  0  0
 39 75  1  0  0  0  0
 39 84  2  0  0  0  0
 40 43  1  0  0  0  0
 41 55  1  0  0  0  0
 42 71  1  0  0  0  0
 43 47  1  0  0  0  0
 44 45  1  0  0  0  0
 44 48  1  0  0  0  0
 45 50  1  0  0  0  0
 46 49  1  0  0  0  0
 46 51  1  0  0  0  0
 47 53  1  0  0  0  0
 48 54  1  0  0  0  0
 49 56  1  0  0  0  0
 50 70  1  0  0  0  0
 51 72  1  0  0  0  0
 52 56  1  0  0  0  0
 52 72  1  0  0  0  0
 53 76  1  0  0  0  0
 54 86  1  0  0  0  0
 55 71  1  0  0  0  0
 56 69  1  0  0  0  0
 58 65  1  0  0  0  0
 59 67  1  0  0  0  0
 60 67  1  0  0  0  0
 61 67  1  0  0  0  0
 62 78  1  0  0  0  0
 63 70  1  0  0  0  0
 64 67  1  0  0  0  0
 64 77  1  0  0  0  0
 65 78  1  0  0  0  0
 66 89  1  0  0  0  0
 66 90  1  0  0  0  0
 66 91  1  0  0  0  0
 68 69  1  0  0  0  0
M  CHG  1  78   1
M  ISO  4  39 100  54 101  75 100  86 101
M  END
> <Batch ID>
0042

> <Smiles>
CNC(C)C(=O)NC(C(=O)N1Cc2cc([101O:1][101CH:1]3CCCCN(Cc4ccc([100NH:0][100C:0](=O)N5CCCC(n6nc(-c7ccc(Oc8ccc(F)cc8F)cc7)c(C(N)=O)c6N)C5)c(C(F)(F)F)c4C)C3=O)ccc2CC1C(=O)NC1CCCc2ccccc21)C(C)(C)C

> <Shape>
0.315

> <Color>
0.073

> <Negative vol penalty>
0.000

$$$$

  -OEChem-04042322123D

 85 93  0     1  0  0  0  0  0999 V2000
  -34.3985  -13.1501   31.2712 C   0  0  0  0  0  0  0  0  0  0  0  0
  -34.7479  -14.2561   30.5031 C   0  0  0  0  0  0  0  0  0  0  0  0
  -23.2325   -9.8268   19.9100 C   0  0  0  0  0  0  0  0  0  0  0  0
  -23.7877   -9.9253   22.2593 C   0  0  0  0  0  0  0  0  0  0  0  0
  -33.3974  -12.2853   30.8310 C   0  0  0  0  0  0  0  0  0  0  0  0
  -34.0971  -14.4974   29.2936 C   0  0  0  0  0  0  0  0  0  0  0  0
  -31.9210  -19.8838   25.1024 C   0  0  0  0  0  0  0  0  0  0  0  0
  -22.5078   -8.6556   20.1304 C   0  0  0  0  0  0  0  0  0  0  0  0
  -23.0628   -8.7541   22.4797 C   0  0  0  0  0  0  0  0  0  0  0  0
  -32.0102  -20.3258   23.7831 C   0  0  0  0  0  0  0  0  0  0  0  0
  -19.8221   -7.8600   22.8246 C   0  0  0  0  0  0  0  0  0  0  0  0
  -18.9671   -7.8264   23.9261 C   0  0  0  0  0  0  0  0  0  0  0  0
  -30.2415  -18.8078   23.1613 C   0  0  0  0  0  0  0  0  0  0  0  0
  -35.4467  -14.3487   21.7563 C   0  0  0  0  0  0  0  0  0  0  0  0
  -36.9381  -15.2005   20.0572 C   0  0  0  0  0  0  0  0  0  0  0  0
  -20.2019   -5.9556   24.8275 C   0  0  0  0  0  0  0  0  0  0  0  0
  -23.8726  -10.4616   20.9745 C   0  0  0  0  0  0  0  0  0  0  0  0
  -24.1408  -12.9929   20.8059 C   0  0  0  0  0  0  0  0  0  0  0  0
  -32.7273  -12.5214   29.6202 C   0  0  0  0  0  0  0  0  0  0  0  0
  -30.9972  -18.8911   25.4595 C   0  0  0  0  0  0  0  0  0  0  0  0
  -33.0870  -13.6342   28.8362 C   0  0  0  0  0  0  0  0  0  0  0  0
  -30.1407  -18.3569   24.4863 C   0  0  0  0  0  0  0  0  0  0  0  0
  -36.7165  -14.4059   21.1820 C   0  0  0  0  0  0  0  0  0  0  0  0
  -34.3983  -15.0861   21.2057 C   0  0  0  0  0  0  0  0  0  0  0  0
  -34.6200  -15.8807   20.0809 C   0  0  0  0  0  0  0  0  0  0  0  0
  -22.4229   -8.1192   21.4152 C   0  0  0  0  0  0  0  0  0  0  0  0
  -31.1724  -19.7857   22.8118 C   0  0  0  0  0  0  0  0  0  0  0  0
  -20.8670   -6.9414   22.7244 C   0  0  0  0  0  0  0  0  0  0  0  0
  -19.1570   -6.8742   24.9276 C   0  0  0  0  0  0  0  0  0  0  0  0
  -21.0569   -5.9892   23.7259 C   0  0  0  0  0  0  0  0  0  0  0  0
  -35.8898  -15.9379   19.5066 C   0  0  0  0  0  0  0  0  0  0  0  0
  -24.6219  -11.6712   20.7474 C   0  0  0  0  0  0  0  0  0  0  0  0
  -25.2355  -13.7699   20.5155 C   0  0  0  0  0  0  0  0  0  0  0  0
  -22.8223  -13.4751   21.0968 C   0  0  0  0  0  0  0  0  0  0  0  0
  -31.2110  -15.9543   26.6566 C   0  0  0  0  0  0  0  0  0  0  0  0
  -27.9779  -16.1882   26.7770 C   0  0  0  0  0  0  0  0  0  0  0  0
  -25.1316  -17.6415   25.5796 C   0  0  0  0  0  0  0  0  0  0  0  0
  -30.8388  -13.9250   21.5111 C   0  0  0  0  0  0  0  0  0  0  0  0
  -31.6845  -11.5324   29.1628 C   0  0  0  0  0  0  0  0  0  0  0  0
  -30.8950  -18.4444   26.8922 C   0  0  0  0  0  0  0  0  0  0  0  0
  -29.1180  -17.3034   24.8221 C   0  0  0  0  0  0  0  0  0  0  0  0
  -30.7845  -12.0666   28.0515 C   0  0  0  0  0  0  0  0  0  0  0  0
  -29.5641  -12.9882   18.2561 C   0  0  0  0  0  0  0  0  0  0  0  0
  -31.6184  -12.7418   26.9673 C   0  0  0  0  0  0  0  0  0  0  0  0
  -28.1009  -12.6806   18.5794 C   0  0  0  0  0  0  0  0  0  0  0  0
  -30.4868  -12.5326   19.3827 C   0  0  0  0  0  0  0  0  0  0  0  0
  -28.6865  -12.7874   21.0463 C   0  0  0  0  0  0  0  0  0  0  0  0
  -32.3870  -13.9433   27.5306 C   0  0  1  0  0  0  0  0  0  0  0  0
  -30.2708  -17.0606   27.0434 C   0  0  1  0  0  0  0  0  0  0  0  0
  -27.7007  -13.2444   19.9557 C   0  0  2  0  0  0  0  0  0  0  0  0
  -37.8371  -13.6180   21.7719 C   0  0  0  0  0  0  0  0  0  0  0  0
  -22.6367  -17.6010   25.8464 C   0  0  0  0  0  0  0  0  0  0  0  0
  -27.8553  -13.5719   25.2117 C   0  0  0  0  0  0  0  0  0  0  0  0
  -25.4578  -14.0744   24.6947 C   0  0  0  0  0  0  0  0  0  0  0  0
  -26.1823  -13.7605   27.0610 C   0  0  0  0  0  0  0  0  0  0  0  0
  -25.0578  -20.4821   26.4071 C   0  0  0  0  0  0  0  0  0  0  0  0
  -33.0485  -15.0046   21.8407 C   0  0  0  0  0  0  0  0  0  0  0  0
  -33.4815  -16.6670   19.5008 C   0  0  0  0  0  0  0  0  0  0  0  0
  -32.6430  -20.4023   19.5739 C   0  0  0  0  0  0  0  0  0  0  0  0
  -32.4863  -18.9374   19.1948 C   0  0  0  0  0  0  0  0  0  0  0  0
  -32.5351  -20.6630   21.0713 C   0  0  0  0  0  0  0  0  0  1  0  0
  -26.8467  -15.8667   25.8303 C   0  0  1  0  0  0  0  0  0  0  0  0
  -23.9373  -18.2528   26.2897 C   0  0  2  0  0  0  0  0  0  0  0  0
  -26.6060  -14.3368   25.6924 C   0  0  0  0  0  0  0  0  0  0  0  0
  -25.9210  -11.6083   20.4436 N   0  0  0  0  0  0  0  0  0  0  0  0
  -26.2655  -12.9003   20.3085 N   0  0  0  0  0  0  0  0  0  0  0  0
  -29.0609  -16.8949   26.2353 N   0  0  0  0  0  0  0  0  0  0  0  0
  -30.0625  -13.1191   20.6618 N   0  0  0  0  0  0  0  0  0  0  0  0
  -25.4078  -15.1054   20.4195 N   0  0  0  0  0  0  0  0  0  0  0  0
  -21.8150  -12.5406   21.3732 N   0  0  0  0  0  0  0  0  0  0  0  0
  -31.5048  -15.0800   27.6856 N   0  0  0  0  0  0  0  0  0  0  0  0
  -25.6885  -16.6130   26.3098 N   0  0  0  0  0  0  0  0  0  0  0  0
  -32.1327  -14.1863   21.0774 N   0  0  0  0  0  0  0  0  0  0  0  0
  -23.8540  -19.7124   26.0004 N   0  3  0  0  0  0  0  0  0  0  0  0
  -33.5618  -18.1221   19.8066 N   0  3  0  0  0  0  0  0  0  0  0  0
  -22.5417  -14.6977   21.0950 O   0  0  0  0  0  0  0  0  0  0  0  0
  -31.6371  -15.8971   25.5091 O   0  0  0  0  0  0  0  0  0  0  0  0
  -27.9000  -15.8319   27.9554 O   0  0  0  0  0  0  0  0  0  0  0  0
  -25.5285  -18.0345   24.4848 O   0  0  0  0  0  0  0  0  0  0  0  0
  -30.4087  -14.3827   22.5753 O   0  0  0  0  0  0  0  0  0  0  0  0
  -21.7155   -6.9765   21.6306 O   0  0  0  0  0  0  0  0  0  0  0  0
  -31.2579  -20.2148   21.5232 O   0  0  0  0  0  0  0  0  0  1  0  0
  -18.3367   -6.8430   25.9861 F   0  0  0  0  0  0  0  0  0  0  0  0
  -22.0597   -5.1048   23.6358 F   0  0  0  0  0  0  0  0  0  0  0  0
  -36.2050  -16.9106   18.1153 Cl  0  0  0  0  0  0  0  0  0  0  0  0
  1  2  1  0  0  0  0
  1  5  2  0  0  0  0
  2  6  2  0  0  0  0
  3  8  2  0  0  0  0
  3 17  1  0  0  0  0
  4  9  1  0  0  0  0
  4 17  2  0  0  0  0
  5 19  1  0  0  0  0
  6 21  1  0  0  0  0
  7 10  2  0  0  0  0
  7 20  1  0  0  0  0
  8 26  1  0  0  0  0
  9 26  2  0  0  0  0
 10 27  1  0  0  0  0
 11 12  2  0  0  0  0
 11 28  1  0  0  0  0
 12 29  1  0  0  0  0
 13 22  1  0  0  0  0
 13 27  2  0  0  0  0
 14 23  2  0  0  0  0
 14 24  1  0  0  0  0
 15 23  1  0  0  0  0
 15 31  2  0  0  0  0
 16 29  2  0  0  0  0
 16 30  1  0  0  0  0
 17 32  1  0  0  0  0
 18 32  1  0  0  0  0
 18 33  2  0  0  0  0
 18 34  1  0  0  0  0
 19 21  2  0  0  0  0
 19 39  1  0  0  0  0
 20 22  2  0  0  0  0
 20 40  1  0  0  0  0
 21 48  1  0  0  0  0
 22 41  1  0  0  0  0
 23 51  1  0  0  0  0
 24 25  2  0  0  0  0
 24 57  1  0  0  0  0
 25 31  1  0  0  0  0
 25 58  1  0  0  0  0
 26 81  1  0  0  0  0
 27 82  1  0  0  0  0
 28 30  2  0  0  0  0
 28 81  1  0  0  0  0
 29 83  1  0  0  0  0
 30 84  1  0  0  0  0
 31 85  1  0  0  0  0
 32 65  2  0  0  0  0
 33 66  1  0  0  0  0
 33 69  1  0  0  0  0
 34 70  1  0  0  0  0
 34 76  2  0  0  0  0
 35 49  1  0  0  0  0
 35 71  1  0  0  0  0
 35 77  2  0  0  0  0
 36 62  1  0  0  0  0
 36 67  1  0  0  0  0
 36 78  2  0  0  0  0
 37 63  1  0  0  0  0
 37 72  1  0  0  0  0
 37 79  2  0  0  0  0
 38 68  1  0  0  0  0
 38 73  1  0  0  0  0
 38 80  2  0  0  0  0
 39 42  1  0  0  0  0
 40 49  1  0  0  0  0
 41 67  1  0  0  0  0
 42 44  1  0  0  0  0
 43 45  1  0  0  0  0
 43 46  1  0  0  0  0
 44 48  1  0  0  0  0
 45 50  1  0  0  0  0
 46 68  1  0  0  0  0
 47 50  1  0  0  0  0
 47 68  1  0  0  0  0
 48 71  1  0  0  0  0
 49 67  1  0  0  0  0
 50 66  1  0  0  0  0
 52 63  1  0  0  0  0
 53 64  1  0  0  0  0
 54 64  1  0  0  0  0
 55 64  1  0  0  0  0
 56 74  1  0  0  0  0
 57 73  1  0  0  0  0
 58 75  1  0  0  0  0
 59 60  1  0  0  0  0
 59 61  1  0  0  0  0
 60 75  1  0  0  0  0
 61 82  1  0  0  0  0
 62 64  1  0  0  0  0
 62 72  1  0  0  0  0
 63 74  1  0  0  0  0
 65 66  1  0  0  0  0
M  CHG  2  74   1  75   1
M  ISO  4  38 100  61 101  73 100  82 101
M  END
> <Batch ID>
0042

> <Smiles>
CNC(C)C(=O)NC(C(=O)N1Cc2cc([101O:1][101CH2:1]CCNCc3c(Cl)cc(C)cc3C[100NH:0][100C:0](=O)N3CCCC(n4nc(-c5ccc(Oc6ccc(F)cc6F)cc5)c(C(N)=O)c4N)C3)ccc2CC1C(=O)NC1CCCc2ccccc21)C(C)(C)C

> <Shape>
0.148

> <Color>
0.173

> <Negative vol penalty>
0.000

$$$$

  -OEChem-04042322123D

 84 92  0     1  0  0  0  0  0999 V2000
  -18.8724  -20.6474   27.5758 C   0  0  0  0  0  0  0  0  0  0  0  0
  -20.2438  -20.7801   27.3829 C   0  0  0  0  0  0  0  0  0  0  0  0
  -23.0700   -9.8725   19.9430 C   0  0  0  0  0  0  0  0  0  0  0  0
  -23.8303   -9.8784   22.2362 C   0  0  0  0  0  0  0  0  0  0  0  0
  -17.9922  -20.9321   26.5327 C   0  0  0  0  0  0  0  0  0  0  0  0
  -20.7357  -21.1966   26.1464 C   0  0  0  0  0  0  0  0  0  0  0  0
  -25.6648  -24.6865   25.1311 C   0  0  0  0  0  0  0  0  0  0  0  0
  -22.3245   -8.7205   20.1931 C   0  0  0  0  0  0  0  0  0  0  0  0
  -23.0847   -8.7264   22.4864 C   0  0  0  0  0  0  0  0  0  0  0  0
  -26.9762  -24.3763   24.7736 C   0  0  0  0  0  0  0  0  0  0  0  0
  -19.3753   -7.9283   21.6449 C   0  0  0  0  0  0  0  0  0  0  0  0
  -18.0683   -7.8840   21.1599 C   0  0  0  0  0  0  0  0  0  0  0  0
  -26.4353  -24.7846   22.4585 C   0  0  0  0  0  0  0  0  0  0  0  0
  -31.2100  -18.3747   23.7641 C   0  0  0  0  0  0  0  0  0  0  0  0
  -31.4610  -19.1388   21.4859 C   0  0  0  0  0  0  0  0  0  0  0  0
  -18.6248   -5.9401   19.8377 C   0  0  0  0  0  0  0  0  0  0  0  0
  -23.8230  -10.4515   20.9645 C   0  0  0  0  0  0  0  0  0  0  0  0
  -24.1685  -12.9761   20.8443 C   0  0  0  0  0  0  0  0  0  0  0  0
  -18.4730  -21.3615   25.2857 C   0  0  0  0  0  0  0  0  0  0  0  0
  -24.7244  -25.0381   24.1521 C   0  0  0  0  0  0  0  0  0  0  0  0
  -19.8611  -21.4860   25.0852 C   0  0  0  0  0  0  0  0  0  0  0  0
  -25.1132  -25.1013   22.8064 C   0  0  0  0  0  0  0  0  0  0  0  0
  -31.5840  -19.3659   22.8567 C   0  0  0  0  0  0  0  0  0  0  0  0
  -30.7132  -17.1564   23.3007 C   0  0  0  0  0  0  0  0  0  0  0  0
  -30.5902  -16.9294   21.9300 C   0  0  0  0  0  0  0  0  0  0  0  0
  -22.3318   -8.1474   21.4648 C   0  0  0  0  0  0  0  0  0  0  0  0
  -27.3609  -24.4225   23.4368 C   0  0  0  0  0  0  0  0  0  0  0  0
  -20.3072   -6.9786   21.2263 C   0  0  0  0  0  0  0  0  0  0  0  0
  -17.6930   -6.8899   20.2563 C   0  0  0  0  0  0  0  0  0  0  0  0
  -19.9319   -5.9844   20.3227 C   0  0  0  0  0  0  0  0  0  0  0  0
  -30.9641  -17.9206   21.0225 C   0  0  0  0  0  0  0  0  0  0  0  0
  -24.5938  -11.6412   20.7066 C   0  0  0  0  0  0  0  0  0  0  0  0
  -25.2617  -13.7240   20.4808 C   0  0  0  0  0  0  0  0  0  0  0  0
  -22.8989  -13.4938   21.2635 C   0  0  0  0  0  0  0  0  0  0  0  0
  -21.9764  -23.8052   23.1360 C   0  0  0  0  0  0  0  0  0  0  0  0
  -21.8691  -26.5139   21.3544 C   0  0  0  0  0  0  0  0  0  0  0  0
  -30.3703  -22.4283   23.0982 C   0  0  0  0  0  0  0  0  0  0  0  0
  -23.5686  -29.0713   19.8652 C   0  0  0  0  0  0  0  0  0  0  0  0
  -30.7295  -14.7614   20.6545 C   0  0  0  0  0  0  0  0  0  0  0  0
  -17.4853  -21.6120   24.1739 C   0  0  0  0  0  0  0  0  0  0  0  0
  -23.3206  -25.3958   24.5569 C   0  0  0  0  0  0  0  0  0  0  0  0
  -24.1471  -25.4927   21.7193 C   0  0  0  0  0  0  0  0  0  0  0  0
  -18.0683  -22.4080   23.0091 C   0  0  0  0  0  0  0  0  0  0  0  0
  -29.6111  -12.3492   18.2865 C   0  0  0  0  0  0  0  0  0  0  0  0
  -19.4305  -21.8498   22.6098 C   0  0  0  0  0  0  0  0  0  0  0  0
  -28.1711  -12.0598   18.7163 C   0  0  0  0  0  0  0  0  0  0  0  0
  -30.5267  -12.5767   19.4880 C   0  0  0  0  0  0  0  0  0  0  0  0
  -28.6211  -13.3040   20.8695 C   0  0  0  0  0  0  0  0  0  0  0  0
  -20.4319  -21.9590   23.7659 C   0  0  1  0  0  0  0  0  0  0  0  0
  -22.3135  -25.2414   23.4215 C   0  0  1  0  0  0  0  0  0  0  0  0
  -27.6478  -13.1322   19.6919 C   0  0  2  0  0  0  0  0  0  0  0  0
  -30.3214  -16.1156   24.2992 C   0  0  0  0  0  0  0  0  0  0  0  0
  -23.2125  -31.1109   18.4471 C   0  0  0  0  0  0  0  0  0  0  0  0
  -21.4663  -24.7382   18.9060 C   0  0  0  0  0  0  0  0  0  0  0  0
  -22.0654  -26.7003   17.4710 C   0  0  0  0  0  0  0  0  0  0  0  0
  -20.0534  -26.8015   18.9421 C   0  0  0  0  0  0  0  0  0  0  0  0
  -24.6785  -30.8561   21.9489 C   0  0  0  0  0  0  0  0  0  0  0  0
  -32.1179  -20.6775   23.3554 C   0  0  0  0  0  0  0  0  0  0  0  0
  -29.3343  -23.1809   23.9056 C   0  0  0  0  0  0  0  0  0  1  0  0
  -22.3556  -26.9104   19.9815 C   0  0  1  0  0  0  0  0  0  0  0  0
  -23.3332  -30.5710   19.8637 C   0  0  2  0  0  0  0  0  0  0  0  0
  -21.5031  -26.2783   18.8452 C   0  0  0  0  0  0  0  0  0  0  0  0
  -25.8584  -11.5435   20.2881 N   0  0  0  0  0  0  0  0  0  0  0  0
  -26.2372  -12.8265   20.1596 N   0  0  0  0  0  0  0  0  0  0  0  0
  -22.7844  -25.8273   22.1648 N   0  0  0  0  0  0  0  0  0  0  0  0
  -29.9695  -13.6084   20.3654 N   0  0  0  0  0  0  0  0  0  0  0  0
  -25.4741  -15.0551   20.4077 N   0  0  0  0  0  0  0  0  0  0  0  0
  -21.8857  -12.5862   21.6010 N   0  0  0  0  0  0  0  0  0  0  0  0
  -30.0837  -15.6875   21.4730 N   0  0  0  0  0  0  0  0  0  0  0  0
  -20.9224  -23.3155   23.8834 N   0  0  0  0  0  0  0  0  0  0  0  0
  -31.0707  -21.5231   23.8800 N   0  0  0  0  0  0  0  0  0  0  0  0
  -22.3862  -28.3689   19.9647 N   0  0  0  0  0  0  0  0  0  0  0  0
  -24.4608  -31.2729   20.5397 N   0  3  0  0  0  0  0  0  0  0  0  0
  -22.6645  -14.7248   21.3208 O   0  0  0  0  0  0  0  0  0  0  0  0
  -22.6236  -23.1876   22.2985 O   0  0  0  0  0  0  0  0  0  0  0  0
  -20.7216  -26.8089   21.6979 O   0  0  0  0  0  0  0  0  0  0  0  0
  -30.5453  -22.6205   21.8980 O   0  0  0  0  0  0  0  0  0  0  0  0
  -24.6889  -28.5728   19.7823 O   0  0  0  0  0  0  0  0  0  0  0  0
  -31.8588  -14.9285   20.1866 O   0  0  0  0  0  0  0  0  0  0  0  0
  -21.6042   -7.0234   21.7093 O   0  0  0  0  0  0  0  0  0  0  0  0
  -28.6401  -24.1196   23.0851 O   0  0  0  0  0  0  0  0  0  1  0  0
  -16.4374   -6.8465   19.7918 F   0  0  0  0  0  0  0  0  0  0  0  0
  -20.8224   -5.0685   19.9177 F   0  0  0  0  0  0  0  0  0  0  0  0
  -30.8292  -17.6842   19.3157 Cl  0  0  0  0  0  0  0  0  0  0  0  0
  1  2  1  0  0  0  0
  1  5  2  0  0  0  0
  2  6  2  0  0  0  0
  3  8  2  0  0  0  0
  3 17  1  0  0  0  0
  4  9  1  0  0  0  0
  4 17  2  0  0  0  0
  5 19  1  0  0  0  0
  6 21  1  0  0  0  0
  7 10  2  0  0  0  0
  7 20  1  0  0  0  0
  8 26  1  0  0  0  0
  9 26  2  0  0  0  0
 10 27  1  0  0  0  0
 11 12  2  0  0  0  0
 11 28  1  0  0  0  0
 12 29  1  0  0  0  0
 13 22  1  0  0  0  0
 13 27  2  0  0  0  0
 14 23  1  0  0  0  0
 14 24  2  0  0  0  0
 15 23  2  0  0  0  0
 15 31  1  0  0  0  0
 16 29  2  0  0  0  0
 16 30  1  0  0  0  0
 17 32  1  0  0  0  0
 18 32  1  0  0  0  0
 18 33  2  0  0  0  0
 18 34  1  0  0  0  0
 19 21  2  0  0  0  0
 19 40  1  0  0  0  0
 20 22  2  0  0  0  0
 20 41  1  0  0  0  0
 21 49  1  0  0  0  0
 22 42  1  0  0  0  0
 23 58  1  0  0  0  0
 24 25  1  0  0  0  0
 24 52  1  0  0  0  0
 25 31  2  0  0  0  0
 25 69  1  0  0  0  0
 26 80  1  0  0  0  0
 27 81  1  0  0  0  0
 28 30  2  0  0  0  0
 28 80  1  0  0  0  0
 29 82  1  0  0  0  0
 30 83  1  0  0  0  0
 31 84  1  0  0  0  0
 32 63  2  0  0  0  0
 33 64  1  0  0  0  0
 33 67  1  0  0  0  0
 34 68  1  0  0  0  0
 34 74  2  0  0  0  0
 35 50  1  0  0  0  0
 35 70  1  0  0  0  0
 35 75  2  0  0  0  0
 36 60  1  0  0  0  0
 36 65  1  0  0  0  0
 36 76  2  0  0  0  0
 37 59  1  0  0  0  0
 37 71  1  0  0  0  0
 37 77  2  0  0  0  0
 38 61  1  0  0  0  0
 38 72  1  0  0  0  0
 38 78  2  0  0  0  0
 39 66  1  0  0  0  0
 39 69  1  0  0  0  0
 39 79  2  0  0  0  0
 40 43  1  0  0  0  0
 41 50  1  0  0  0  0
 42 65  1  0  0  0  0
 43 45  1  0  0  0  0
 44 46  1  0  0  0  0
 44 47  1  0  0  0  0
 45 49  1  0  0  0  0
 46 51  1  0  0  0  0
 47 66  1  0  0  0  0
 48 51  1  0  0  0  0
 48 66  1  0  0  0  0
 49 70  1  0  0  0  0
 50 65  1  0  0  0  0
 51 64  1  0  0  0  0
 53 61  1  0  0  0  0
 54 62  1  0  0  0  0
 55 62  1  0  0  0  0
 56 62  1  0  0  0  0
 57 73  1  0  0  0  0
 58 71  1  0  0  0  0
 59 81  1  0  0  0  0
 60 62  1  0  0  0  0
 60 72  1  0  0  0  0
 61 73  1  0  0  0  0
 63 64  1  0  0  0  0
M  CHG  1  73   1
M  ISO  4  39 100  59 101  69 100  81 101
M  END
> <Batch ID>
0042

> <Smiles>
CNC(C)C(=O)NC(C(=O)N1Cc2cc([101O:1][101CH2:1]C(=O)NCc3cc(C)c([100NH:0][100C:0](=O)N4CCCC(n5nc(-c6ccc(Oc7ccc(F)cc7F)cc6)c(C(N)=O)c5N)C4)c(Cl)c3)ccc2CC1C(=O)NC1CCCc2ccccc21)C(C)(C)C

> <Shape>
0.212

> <Color>
0.191

> <Negative vol penalty>
0.000

$$$$

  -OEChem-04042322123D

 93102  0     1  0  0  0  0  0999 V2000
  -25.9738  -19.1673   19.8129 C   0  0  0  0  0  0  0  0  0  0  0  0
  -26.4770  -20.2406   20.5410 C   0  0  0  0  0  0  0  0  0  0  0  0
  -33.7969  -24.3570   22.6925 C   0  0  0  0  0  0  0  0  0  0  0  0
  -22.9999   -9.8930   19.9830 C   0  0  0  0  0  0  0  0  0  0  0  0
  -23.7207   -9.9505   22.2883 C   0  0  0  0  0  0  0  0  0  0  0  0
  -33.8115  -23.1271   23.3503 C   0  0  0  0  0  0  0  0  0  0  0  0
  -24.8208  -19.3265   19.0453 C   0  0  0  0  0  0  0  0  0  0  0  0
  -25.8281  -21.4742   20.5011 C   0  0  0  0  0  0  0  0  0  0  0  0
  -25.3607  -23.5728   25.0861 C   0  0  0  0  0  0  0  0  0  0  0  0
  -33.1507  -25.4496   23.2706 C   0  0  0  0  0  0  0  0  0  0  0  0
  -32.6762  -17.4120   23.4240 C   0  0  0  0  0  0  0  0  0  0  0  0
  -32.0579  -16.5273   22.5405 C   0  0  0  0  0  0  0  0  0  0  0  0
  -22.2323   -8.7597   20.2512 C   0  0  0  0  0  0  0  0  0  0  0  0
  -22.9530   -8.8172   22.5565 C   0  0  0  0  0  0  0  0  0  0  0  0
  -26.4895  -24.1920   25.6210 C   0  0  0  0  0  0  0  0  0  0  0  0
  -23.1965   -5.4767   22.0950 C   0  0  0  0  0  0  0  0  0  0  0  0
  -23.7821   -4.4615   22.8512 C   0  0  0  0  0  0  0  0  0  0  0  0
  -25.6185  -26.3409   24.9556 C   0  0  0  0  0  0  0  0  0  0  0  0
  -30.5234  -18.3505   23.9910 C   0  0  0  0  0  0  0  0  0  0  0  0
  -22.0551   -4.7103   24.5224 C   0  0  0  0  0  0  0  0  0  0  0  0
  -23.7442  -10.4884   21.0015 C   0  0  0  0  0  0  0  0  0  0  0  0
  -33.1798  -22.9898   24.5864 C   0  0  0  0  0  0  0  0  0  0  0  0
  -24.1311  -13.0033   20.8188 C   0  0  0  0  0  0  0  0  0  0  0  0
  -24.1520  -20.5601   19.0036 C   0  0  0  0  0  0  0  0  0  0  0  0
  -24.3558  -24.3333   24.4712 C   0  0  0  0  0  0  0  0  0  0  0  0
  -24.6659  -21.6505   19.7312 C   0  0  0  0  0  0  0  0  0  0  0  0
  -24.4768  -25.7292   24.4159 C   0  0  0  0  0  0  0  0  0  0  0  0
  -31.9090  -18.3236   24.1493 C   0  0  0  0  0  0  0  0  0  0  0  0
  -32.5190  -25.3123   24.5067 C   0  0  0  0  0  0  0  0  0  0  0  0
  -32.5336  -24.0825   25.1646 C   0  0  0  0  0  0  0  0  0  0  0  0
  -30.6723  -16.5542   22.3822 C   0  0  0  0  0  0  0  0  0  0  0  0
  -22.2088   -8.2218   21.5380 C   0  0  0  0  0  0  0  0  0  0  0  0
  -26.6199  -25.5760   25.5532 C   0  0  0  0  0  0  0  0  0  0  0  0
  -22.0403   -6.1088   22.5525 C   0  0  0  0  0  0  0  0  0  0  0  0
  -23.2114   -4.0782   24.0649 C   0  0  0  0  0  0  0  0  0  0  0  0
  -21.4696   -5.7256   23.7661 C   0  0  0  0  0  0  0  0  0  0  0  0
  -29.9050  -17.4658   23.1075 C   0  0  0  0  0  0  0  0  0  0  0  0
  -24.5378  -11.6588   20.7249 C   0  0  0  0  0  0  0  0  0  0  0  0
  -25.2419  -13.7242   20.4544 C   0  0  0  0  0  0  0  0  0  0  0  0
  -33.2130  -21.6932   25.2502 C   0  0  0  0  0  0  0  0  0  0  0  0
  -22.8627  -13.5515   21.2012 C   0  0  0  0  0  0  0  0  0  0  0  0
  -23.1304  -24.4818   21.5420 C   0  0  0  0  0  0  0  0  0  0  0  0
  -21.0393  -26.5288   22.9418 C   0  0  0  0  0  0  0  0  0  0  0  0
  -20.3818  -28.7113   25.4817 C   0  0  0  0  0  0  0  0  0  0  0  0
  -30.7214  -14.6832   20.6960 C   0  0  0  0  0  0  0  0  0  0  0  0
  -22.9359  -20.6970   18.1222 C   0  0  0  0  0  0  0  0  0  0  0  0
  -23.1317  -23.6525   23.9228 C   0  0  0  0  0  0  0  0  0  0  0  0
  -23.4166  -26.5927   23.7844 C   0  0  0  0  0  0  0  0  0  0  0  0
  -22.0964  -21.9341   18.4304 C   0  0  0  0  0  0  0  0  0  0  0  0
  -29.6064  -12.2240   18.3752 C   0  0  0  0  0  0  0  0  0  0  0  0
  -22.9887  -23.1632   18.5716 C   0  0  0  0  0  0  0  0  0  0  0  0
  -28.1548  -11.9683   18.7874 C   0  0  0  0  0  0  0  0  0  0  0  0
  -30.5047  -12.4705   19.5860 C   0  0  0  0  0  0  0  0  0  0  0  0
  -28.5872  -13.2643   20.9135 C   0  0  0  0  0  0  0  0  0  0  0  0
  -23.9762  -22.9975   19.7330 C   0  0  1  0  0  0  0  0  0  0  0  0
  -22.4125  -24.4800   22.8619 C   0  0  1  0  0  0  0  0  0  0  0  0
  -27.6317  -13.0749   19.7240 C   0  0  2  0  0  0  0  0  0  0  0  0
  -31.8553  -23.9389   26.4907 C   0  0  0  0  0  0  0  0  0  0  0  0
  -18.6019  -30.2598   26.3372 C   0  0  0  0  0  0  0  0  0  0  0  0
  -21.7559  -28.5485   20.7699 C   0  0  0  0  0  0  0  0  0  0  0  0
  -20.7174  -30.3338   22.1849 C   0  0  0  0  0  0  0  0  0  0  0  0
  -19.3226  -28.4469   21.3381 C   0  0  0  0  0  0  0  0  0  0  0  0
  -20.1379  -27.2143   28.0230 C   0  0  0  0  0  0  0  0  0  0  0  0
  -32.5752  -19.2758   25.0999 C   0  0  0  0  0  0  0  0  0  0  0  0
  -31.8329  -26.5035   25.1077 C   0  0  0  0  0  0  0  0  0  0  0  0
  -29.6398  -27.5690   25.6498 C   0  0  0  0  0  0  0  0  0  0  0  0
  -28.1459  -27.3976   25.4572 C   0  0  0  0  0  0  0  0  0  1  0  0
  -20.9997  -28.0188   23.1810 C   0  0  1  0  0  0  0  0  0  0  0  0
  -19.1822  -28.8555   26.4007 C   0  0  2  0  0  0  0  0  0  0  0  0
  -20.7199  -28.8208   21.8787 C   0  0  0  0  0  0  0  0  0  0  0  0
  -25.8077  -11.5305   20.3316 N   0  0  0  0  0  0  0  0  0  0  0  0
  -26.2086  -12.8036   20.1749 N   0  0  0  0  0  0  0  0  0  0  0  0
  -22.2415  -25.8797   23.2568 N   0  0  0  0  0  0  0  0  0  0  0  0
  -29.9486  -13.5343   20.4251 N   0  0  0  0  0  0  0  0  0  0  0  0
  -25.4763  -15.0495   20.3488 N   0  0  0  0  0  0  0  0  0  0  0  0
  -21.8298  -12.6689   21.5454 N   0  0  0  0  0  0  0  0  0  0  0  0
  -30.0761  -15.6411   21.4775 N   0  0  0  0  0  0  0  0  0  0  0  0
  -32.6410  -20.6167   24.5648 N   0  0  0  0  0  0  0  0  0  0  0  0
  -23.3111  -23.2244   20.9981 N   0  0  0  0  0  0  0  0  0  0  0  0
  -20.0190  -28.2364   24.2390 N   0  0  0  0  0  0  0  0  0  0  0  0
  -19.5727  -28.5717   27.8106 N   0  3  0  0  0  0  0  0  0  0  0  0
  -30.3498  -26.4326   25.0105 N   0  3  0  0  0  0  0  0  0  0  0  0
  -33.7131  -21.5790   26.3818 O   0  0  0  0  0  0  0  0  0  0  0  0
  -22.6465  -14.7870   21.2209 O   0  0  0  0  0  0  0  0  0  0  0  0
  -23.4922  -25.5453   21.0524 O   0  0  0  0  0  0  0  0  0  0  0  0
  -20.0381  -25.9606   22.4987 O   0  0  0  0  0  0  0  0  0  0  0  0
  -21.5257  -28.9954   25.8300 O   0  0  0  0  0  0  0  0  0  0  0  0
  -31.8610  -14.8202   20.2438 O   0  0  0  0  0  0  0  0  0  0  0  0
  -21.4597   -7.1161   21.8001 O   0  0  0  0  0  0  0  0  0  0  0  0
  -27.7210  -26.1829   26.0739 O   0  0  0  0  0  0  0  0  0  1  0  0
  -23.7729   -3.1022   24.7903 F   0  0  0  0  0  0  0  0  0  0  0  0
  -20.3581   -6.3283   24.2102 F   0  0  0  0  0  0  0  0  0  0  0  0
  -28.1866  -17.5332   22.9415 Cl  0  0  0  0  0  0  0  0  0  0  0  0
  1  2  1  0  0  0  0
  1  7  2  0  0  0  0
  2  8  2  0  0  0  0
  3  6  1  0  0  0  0
  3 10  2  0  0  0  0
  4 13  2  0  0  0  0
  4 21  1  0  0  0  0
  5 14  1  0  0  0  0
  5 21  2  0  0  0  0
  6 22  2  0  0  0  0
  7 24  1  0  0  0  0
  8 26  1  0  0  0  0
  9 15  2  0  0  0  0
  9 25  1  0  0  0  0
 10 29  1  0  0  0  0
 11 12  2  0  0  0  0
 11 28  1  0  0  0  0
 12 31  1  0  0  0  0
 13 32  1  0  0  0  0
 14 32  2  0  0  0  0
 15 33  1  0  0  0  0
 16 17  2  0  0  0  0
 16 34  1  0  0  0  0
 17 35  1  0  0  0  0
 18 27  1  0  0  0  0
 18 33  2  0  0  0  0
 19 28  2  0  0  0  0
 19 37  1  0  0  0  0
 20 35  2  0  0  0  0
 20 36  1  0  0  0  0
 21 38  1  0  0  0  0
 22 30  1  0  0  0  0
 22 40  1  0  0  0  0
 23 38  1  0  0  0  0
 23 39  2  0  0  0  0
 23 41  1  0  0  0  0
 24 26  2  0  0  0  0
 24 46  1  0  0  0  0
 25 27  2  0  0  0  0
 25 47  1  0  0  0  0
 26 55  1  0  0  0  0
 27 48  1  0  0  0  0
 28 64  1  0  0  0  0
 29 30  2  0  0  0  0
 29 65  1  0  0  0  0
 30 58  1  0  0  0  0
 31 37  2  0  0  0  0
 31 77  1  0  0  0  0
 32 89  1  0  0  0  0
 33 90  1  0  0  0  0
 34 36  2  0  0  0  0
 34 89  1  0  0  0  0
 35 91  1  0  0  0  0
 36 92  1  0  0  0  0
 37 93  1  0  0  0  0
 38 71  2  0  0  0  0
 39 72  1  0  0  0  0
 39 75  1  0  0  0  0
 40 78  1  0  0  0  0
 40 83  2  0  0  0  0
 41 76  1  0  0  0  0
 41 84  2  0  0  0  0
 42 56  1  0  0  0  0
 42 79  1  0  0  0  0
 42 85  2  0  0  0  0
 43 68  1  0  0  0  0
 43 73  1  0  0  0  0
 43 86  2  0  0  0  0
 44 69  1  0  0  0  0
 44 80  1  0  0  0  0
 44 87  2  0  0  0  0
 45 74  1  0  0  0  0
 45 77  1  0  0  0  0
 45 88  2  0  0  0  0
 46 49  1  0  0  0  0
 47 56  1  0  0  0  0
 48 73  1  0  0  0  0
 49 51  1  0  0  0  0
 50 52  1  0  0  0  0
 50 53  1  0  0  0  0
 51 55  1  0  0  0  0
 52 57  1  0  0  0  0
 53 74  1  0  0  0  0
 54 57  1  0  0  0  0
 54 74  1  0  0  0  0
 55 79  1  0  0  0  0
 56 73  1  0  0  0  0
 57 72  1  0  0  0  0
 59 69  1  0  0  0  0
 60 70  1  0  0  0  0
 61 70  1  0  0  0  0
 62 70  1  0  0  0  0
 63 81  1  0  0  0  0
 64 78  1  0  0  0  0
 65 82  1  0  0  0  0
 66 67  1  0  0  0  0
 66 82  1  0  0  0  0
 67 90  1  0  0  0  0
 68 70  1  0  0  0  0
 68 80  1  0  0  0  0
 69 81  1  0  0  0  0
 71 72  1  0  0  0  0
M  CHG  2  81   1  82   1
M  ISO  4  45 100  67 101  77 100  90 101
M  END
> <Batch ID>
0042

> <Smiles>
CNC(C)C(=O)NC(C(=O)N1Cc2cc([101O:1][101CH2:1]CNCc3cccc(C(=O)NCc4ccc([100NH:0][100C:0](=O)N5CCCC(n6nc(-c7ccc(Oc8ccc(F)cc8F)cc7)c(C(N)=O)c6N)C5)c(Cl)c4)c3C)ccc2CC1C(=O)NC1CCCc2ccccc21)C(C)(C)C

> <Shape>
0.221

> <Color>
0.186

> <Negative vol penalty>
0.000

$$$$

  -OEChem-04042322123D

 84 92  0     1  0  0  0  0  0999 V2000
  -29.5270  -33.6327   15.5023 C   0  0  0  0  0  0  0  0  0  0  0  0
  -29.0923  -32.3323   15.7371 C   0  0  0  0  0  0  0  0  0  0  0  0
  -26.7585  -12.4938   21.7091 C   0  0  0  0  0  0  0  0  0  0  0  0
  -26.1423  -13.9347   19.8703 C   0  0  0  0  0  0  0  0  0  0  0  0
  -29.7408  -34.4992   16.5735 C   0  0  0  0  0  0  0  0  0  0  0  0
  -28.8721  -31.8971   17.0435 C   0  0  0  0  0  0  0  0  0  0  0  0
  -24.5695  -27.9737   18.9410 C   0  0  0  0  0  0  0  0  0  0  0  0
  -29.7533  -21.5063   16.5518 C   0  0  0  0  0  0  0  0  0  0  0  0
  -25.4540  -12.0029   21.7617 C   0  0  0  0  0  0  0  0  0  0  0  0
  -24.8377  -13.4438   19.9228 C   0  0  0  0  0  0  0  0  0  0  0  0
  -24.6041  -26.6094   19.2257 C   0  0  0  0  0  0  0  0  0  0  0  0
  -23.5600   -9.7760   20.0627 C   0  0  0  0  0  0  0  0  0  0  0  0
  -23.3907   -8.3968   20.1841 C   0  0  0  0  0  0  0  0  0  0  0  0
  -28.3605  -21.5577   16.4982 C   0  0  0  0  0  0  0  0  0  0  0  0
  -24.9197  -27.1114   21.5640 C   0  0  0  0  0  0  0  0  0  0  0  0
  -22.2059   -8.7254   22.2638 C   0  0  0  0  0  0  0  0  0  0  0  0
  -27.1027  -13.4597   20.7634 C   0  0  0  0  0  0  0  0  0  0  0  0
  -29.5207  -13.4576   19.9504 C   0  0  0  0  0  0  0  0  0  0  0  0
  -29.5139  -34.0775   17.8931 C   0  0  0  0  0  0  0  0  0  0  0  0
  -24.7209  -28.9188   19.9659 C   0  0  0  0  0  0  0  0  0  0  0  0
  -29.0843  -32.7583   18.1334 C   0  0  0  0  0  0  0  0  0  0  0  0
  -24.8841  -28.4872   21.2900 C   0  0  0  0  0  0  0  0  0  0  0  0
  -30.4037  -21.4900   17.7857 C   0  0  0  0  0  0  0  0  0  0  0  0
  -29.6612  -21.5253   18.9660 C   0  0  0  0  0  0  0  0  0  0  0  0
  -28.2683  -21.5768   18.9124 C   0  0  0  0  0  0  0  0  0  0  0  0
  -24.4936  -12.4779   20.8686 C   0  0  0  0  0  0  0  0  0  0  0  0
  -24.7821  -26.1780   20.5369 C   0  0  0  0  0  0  0  0  0  0  0  0
  -23.0523  -10.6299   21.0418 C   0  0  0  0  0  0  0  0  0  0  0  0
  -22.7136   -7.8715   21.2847 C   0  0  0  0  0  0  0  0  0  0  0  0
  -22.3752  -10.1046   22.1424 C   0  0  0  0  0  0  0  0  0  0  0  0
  -27.6180  -21.5929   17.6785 C   0  0  0  0  0  0  0  0  0  0  0  0
  -28.4500  -13.9675   20.7090 C   0  0  0  0  0  0  0  0  0  0  0  0
  -30.5756  -14.2863   20.2451 C   0  0  0  0  0  0  0  0  0  0  0  0
  -29.5583  -12.3353   19.0589 C   0  0  0  0  0  0  0  0  0  0  0  0
  -26.8335  -31.2029   20.6168 C   0  0  0  0  0  0  0  0  0  0  0  0
  -24.7569  -31.9015   23.0089 C   0  0  0  0  0  0  0  0  0  0  0  0
  -22.2810  -30.8329   25.1005 C   0  0  0  0  0  0  0  0  0  0  0  0
  -30.9004  -19.9545   22.1470 C   0  0  0  0  0  0  0  0  0  0  0  0
  -29.8041  -35.0353   19.0214 C   0  0  0  0  0  0  0  0  0  0  0  0
  -24.6545  -30.3870   19.6460 C   0  0  0  0  0  0  0  0  0  0  0  0
  -25.0310  -29.4614   22.4292 C   0  0  0  0  0  0  0  0  0  0  0  0
  -29.1880  -34.6129   20.3526 C   0  0  0  0  0  0  0  0  0  0  0  0
  -32.2803  -17.0815   23.7340 C   0  0  0  0  0  0  0  0  0  0  0  0
  -29.4513  -33.1339   20.6174 C   0  0  0  0  0  0  0  0  0  0  0  0
  -31.5518  -15.9116   23.0702 C   0  0  0  0  0  0  0  0  0  0  0  0
  -31.3610  -18.2866   23.9197 C   0  0  0  0  0  0  0  0  0  0  0  0
  -29.9512  -17.5709   22.0292 C   0  0  0  0  0  0  0  0  0  0  0  0
  -28.8106  -32.2570   19.5348 C   0  0  1  0  0  0  0  0  0  0  0  0
  -25.3341  -31.2589   20.6973 C   0  0  1  0  0  0  0  0  0  0  0  0
  -30.8525  -16.3516   21.7699 C   0  0  2  0  0  0  0  0  0  0  0  0
  -31.8960  -21.4330   17.8138 C   0  0  0  0  0  0  0  0  0  0  0  0
  -20.8074  -31.6206   26.9728 C   0  0  0  0  0  0  0  0  0  0  0  0
  -27.1108  -31.7062   24.9404 C   0  0  0  0  0  0  0  0  0  0  0  0
  -25.4651  -31.5510   26.8208 C   0  0  0  0  0  0  0  0  0  0  0  0
  -25.5406  -33.5983   25.3974 C   0  0  0  0  0  0  0  0  0  0  0  0
  -19.8221  -30.3284   23.5325 C   0  0  0  0  0  0  0  0  0  0  0  0
  -30.3626  -21.5076   20.2875 C   0  0  0  0  0  0  0  0  0  0  0  0
  -27.4821  -21.6148   20.1896 C   0  0  0  0  0  0  0  0  0  0  0  0
  -26.0905  -23.0168   21.7182 C   0  0  0  0  0  0  0  0  0  0  0  0
  -25.6092  -24.4384   21.9318 C   0  0  0  0  0  0  0  0  0  1  0  0
  -24.5895  -31.4592   24.4425 C   0  0  1  0  0  0  0  0  0  0  0  0
  -20.9402  -31.4425   25.4683 C   0  0  2  0  0  0  0  0  0  0  0  0
  -25.6757  -32.0600   25.3788 C   0  0  0  0  0  0  0  0  0  0  0  0
  -28.7934  -15.0372   21.4315 N   0  0  0  0  0  0  0  0  0  0  0  0
  -30.0917  -15.2061   21.1282 N   0  0  0  0  0  0  0  0  0  0  0  0
  -24.9657  -30.8863   22.0647 N   0  0  0  0  0  0  0  0  0  0  0  0
  -30.7305  -18.6538   22.6494 N   0  0  0  0  0  0  0  0  0  0  0  0
  -31.8608  -14.3105   19.8325 N   0  0  0  0  0  0  0  0  0  0  0  0
  -28.3850  -11.5921   18.8706 N   0  0  0  0  0  0  0  0  0  0  0  0
  -27.3862  -32.1357   19.7602 N   0  0  0  0  0  0  0  0  0  0  0  0
  -23.2217  -31.8006   24.8180 N   0  0  0  0  0  0  0  0  0  0  0  0
  -30.2748  -20.2175   20.9345 N   0  0  0  0  0  0  0  0  0  0  0  0
  -19.8278  -30.5692   24.9985 N   0  3  0  0  0  0  0  0  0  0  0  0
  -26.9240  -22.9608   20.4909 N   0  3  0  0  0  0  0  0  0  0  0  0
  -30.6055  -11.9916   18.4601 O   0  0  0  0  0  0  0  0  0  0  0  0
  -27.4438  -30.3755   21.2837 O   0  0  0  0  0  0  0  0  0  0  0  0
  -24.6972  -33.1030   22.7358 O   0  0  0  0  0  0  0  0  0  0  0  0
  -22.4754  -29.6197   25.0706 O   0  0  0  0  0  0  0  0  0  0  0  0
  -31.5651  -20.8159   22.7328 O   0  0  0  0  0  0  0  0  0  0  0  0
  -23.2205  -11.9990   20.9194 O   0  0  0  0  0  0  0  0  0  0  0  0
  -24.8169  -24.8468   20.8175 O   0  0  0  0  0  0  0  0  0  1  0  0
  -22.5498   -6.5472   21.4004 F   0  0  0  0  0  0  0  0  0  0  0  0
  -21.8842  -10.9201   23.0857 F   0  0  0  0  0  0  0  0  0  0  0  0
  -25.8961  -21.6563   17.5694 Cl  0  0  0  0  0  0  0  0  0  0  0  0
  1  2  1  0  0  0  0
  1  5  2  0  0  0  0
  2  6  2  0  0  0  0
  3  9  2  0  0  0  0
  3 17  1  0  0  0  0
  4 10  1  0  0  0  0
  4 17  2  0  0  0  0
  5 19  1  0  0  0  0
  6 21  1  0  0  0  0
  7 11  2  0  0  0  0
  7 20  1  0  0  0  0
  8 14  1  0  0  0  0
  8 23  2  0  0  0  0
  9 26  1  0  0  0  0
 10 26  2  0  0  0  0
 11 27  1  0  0  0  0
 12 13  2  0  0  0  0
 12 28  1  0  0  0  0
 13 29  1  0  0  0  0
 14 31  2  0  0  0  0
 15 22  1  0  0  0  0
 15 27  2  0  0  0  0
 16 29  2  0  0  0  0
 16 30  1  0  0  0  0
 17 32  1  0  0  0  0
 18 32  1  0  0  0  0
 18 33  2  0  0  0  0
 18 34  1  0  0  0  0
 19 21  2  0  0  0  0
 19 39  1  0  0  0  0
 20 22  2  0  0  0  0
 20 40  1  0  0  0  0
 21 48  1  0  0  0  0
 22 41  1  0  0  0  0
 23 24  1  0  0  0  0
 23 51  1  0  0  0  0
 24 25  2  0  0  0  0
 24 57  1  0  0  0  0
 25 31  1  0  0  0  0
 25 58  1  0  0  0  0
 26 80  1  0  0  0  0
 27 81  1  0  0  0  0
 28 30  2  0  0  0  0
 28 80  1  0  0  0  0
 29 82  1  0  0  0  0
 30 83  1  0  0  0  0
 31 84  1  0  0  0  0
 32 64  2  0  0  0  0
 33 65  1  0  0  0  0
 33 68  1  0  0  0  0
 34 69  1  0  0  0  0
 34 75  2  0  0  0  0
 35 49  1  0  0  0  0
 35 70  1  0  0  0  0
 35 76  2  0  0  0  0
 36 61  1  0  0  0  0
 36 66  1  0  0  0  0
 36 77  2  0  0  0  0
 37 62  1  0  0  0  0
 37 71  1  0  0  0  0
 37 78  2  0  0  0  0
 38 67  1  0  0  0  0
 38 72  1  0  0  0  0
 38 79  2  0  0  0  0
 39 42  1  0  0  0  0
 40 49  1  0  0  0  0
 41 66  1  0  0  0  0
 42 44  1  0  0  0  0
 43 45  1  0  0  0  0
 43 46  1  0  0  0  0
 44 48  1  0  0  0  0
 45 50  1  0  0  0  0
 46 67  1  0  0  0  0
 47 50  1  0  0  0  0
 47 67  1  0  0  0  0
 48 70  1  0  0  0  0
 49 66  1  0  0  0  0
 50 65  1  0  0  0  0
 52 62  1  0  0  0  0
 53 63  1  0  0  0  0
 54 63  1  0  0  0  0
 55 63  1  0  0  0  0
 56 73  1  0  0  0  0
 57 72  1  0  0  0  0
 58 74  1  0  0  0  0
 59 60  1  0  0  0  0
 59 74  1  0  0  0  0
 60 81  1  0  0  0  0
 61 63  1  0  0  0  0
 61 71  1  0  0  0  0
 62 73  1  0  0  0  0
 64 65  1  0  0  0  0
M  CHG  2  73   1  74   1
M  ISO  4  38 100  60 101  72 100  81 101
M  END
> <Batch ID>
0042

> <Smiles>
CNC(C)C(=O)NC(C(=O)N1Cc2cc([101O:1][101CH2:1]CNCc3c(Cl)ccc(C)c3C[100NH:0][100C:0](=O)N3CCCC(n4nc(-c5ccc(Oc6ccc(F)cc6F)cc5)c(C(N)=O)c4N)C3)ccc2CC1C(=O)NC1CCCc2ccccc21)C(C)(C)C

> <Shape>
0.272

> <Color>
0.073

> <Negative vol penalty>
0.000

$$$$

  -OEChem-04042322123D

 85 93  0     1  0  0  0  0  0999 V2000
  -26.3089  -33.1057   19.7359 C   0  0  0  0  0  0  0  0  0  0  0  0
  -26.7634  -32.0061   19.0150 C   0  0  0  0  0  0  0  0  0  0  0  0
  -23.0039   -9.8892   19.9809 C   0  0  0  0  0  0  0  0  0  0  0  0
  -23.7278   -9.9431   22.2853 C   0  0  0  0  0  0  0  0  0  0  0  0
  -27.0281  -33.5589   20.8410 C   0  0  0  0  0  0  0  0  0  0  0  0
  -27.9380  -31.3597   19.3983 C   0  0  0  0  0  0  0  0  0  0  0  0
  -29.1387  -25.3672   19.0053 C   0  0  0  0  0  0  0  0  0  0  0  0
  -22.2390   -8.7537   20.2477 C   0  0  0  0  0  0  0  0  0  0  0  0
  -22.9628   -8.8076   22.5521 C   0  0  0  0  0  0  0  0  0  0  0  0
  -29.8435  -24.6112   18.0696 C   0  0  0  0  0  0  0  0  0  0  0  0
  -23.2124   -5.4687   22.0830 C   0  0  0  0  0  0  0  0  0  0  0  0
  -23.8011   -4.4530   22.8362 C   0  0  0  0  0  0  0  0  0  0  0  0
  -31.8084  -24.7283   19.4641 C   0  0  0  0  0  0  0  0  0  0  0  0
  -29.7405  -19.2673   22.2639 C   0  0  0  0  0  0  0  0  0  0  0  0
  -31.1889  -17.5957   20.5636 C   0  0  0  0  0  0  0  0  0  0  0  0
  -22.0759   -4.6946   24.5103 C   0  0  0  0  0  0  0  0  0  0  0  0
  -23.7484  -10.4838   20.9997 C   0  0  0  0  0  0  0  0  0  0  0  0
  -24.1300  -12.9999   20.8218 C   0  0  0  0  0  0  0  0  0  0  0  0
  -28.2069  -32.9118   21.2439 C   0  0  0  0  0  0  0  0  0  0  0  0
  -29.7676  -25.8194   20.1742 C   0  0  0  0  0  0  0  0  0  0  0  0
  -28.6743  -31.8054   20.5091 C   0  0  0  0  0  0  0  0  0  0  0  0
  -31.1087  -25.4877   20.4142 C   0  0  0  0  0  0  0  0  0  0  0  0
  -30.6671  -19.8110   21.3744 C   0  0  0  0  0  0  0  0  0  0  0  0
  -29.5380  -17.8877   22.3033 C   0  0  0  0  0  0  0  0  0  0  0  0
  -31.3913  -18.9753   20.5243 C   0  0  0  0  0  0  0  0  0  0  0  0
  -30.2622  -17.0520   21.4531 C   0  0  0  0  0  0  0  0  0  0  0  0
  -22.2184   -8.2130   21.5333 C   0  0  0  0  0  0  0  0  0  0  0  0
  -31.1794  -24.2941   18.2976 C   0  0  0  0  0  0  0  0  0  0  0  0
  -22.0555   -6.0975   22.5434 C   0  0  0  0  0  0  0  0  0  0  0  0
  -23.2329   -4.0659   24.0499 C   0  0  0  0  0  0  0  0  0  0  0  0
  -21.4873   -5.7104   23.7571 C   0  0  0  0  0  0  0  0  0  0  0  0
  -24.5393  -11.6564   20.7245 C   0  0  0  0  0  0  0  0  0  0  0  0
  -25.2389  -13.7238   20.4575 C   0  0  0  0  0  0  0  0  0  0  0  0
  -22.8610  -13.5447   21.2072 C   0  0  0  0  0  0  0  0  0  0  0  0
  -30.4171  -28.6746   21.4110 C   0  0  0  0  0  0  0  0  0  0  0  0
  -31.4123  -26.9165   23.9490 C   0  0  0  0  0  0  0  0  0  0  0  0
  -32.5702  -23.9314   25.1301 C   0  0  0  0  0  0  0  0  0  0  0  0
  -30.7168  -14.6934   20.6936 C   0  0  0  0  0  0  0  0  0  0  0  0
  -28.9754  -33.4671   22.4168 C   0  0  0  0  0  0  0  0  0  0  0  0
  -28.9859  -26.6113   21.1862 C   0  0  0  0  0  0  0  0  0  0  0  0
  -31.8241  -25.9318   21.6630 C   0  0  0  0  0  0  0  0  0  0  0  0
  -30.0096  -32.4968   22.9817 C   0  0  0  0  0  0  0  0  0  0  0  0
  -29.6035  -12.2370   18.3691 C   0  0  0  0  0  0  0  0  0  0  0  0
  -30.8259  -31.8711   21.8552 C   0  0  0  0  0  0  0  0  0  0  0  0
  -28.1530  -11.9775   18.7826 C   0  0  0  0  0  0  0  0  0  0  0  0
  -30.5030  -12.4827   19.5791 C   0  0  0  0  0  0  0  0  0  0  0  0
  -28.5857  -13.2697   20.9110 C   0  0  0  0  0  0  0  0  0  0  0  0
  -29.9307  -31.0624   20.9086 C   0  0  1  0  0  0  0  0  0  0  0  0
  -29.8714  -27.4549   22.0982 C   0  0  1  0  0  0  0  0  0  0  0  0
  -27.6290  -13.0810   19.7224 C   0  0  2  0  0  0  0  0  0  0  0  0
  -30.8672  -21.2909   21.3504 C   0  0  0  0  0  0  0  0  0  0  0  0
  -28.5389  -17.3327   23.2660 C   0  0  0  0  0  0  0  0  0  0  0  0
  -33.2979  -22.2172   26.8122 C   0  0  0  0  0  0  0  0  0  0  0  0
  -31.2476  -20.3942   15.4139 C   0  0  0  0  0  0  0  0  0  0  0  0
  -34.0678  -28.4101   23.7830 C   0  0  0  0  0  0  0  0  0  0  0  0
  -35.0755  -26.6381   25.2365 C   0  0  0  0  0  0  0  0  0  0  0  0
  -33.2149  -28.0535   26.1068 C   0  0  0  0  0  0  0  0  0  0  0  0
  -29.8066  -22.9318   25.4793 C   0  0  0  0  0  0  0  0  0  0  0  0
  -32.3934  -19.5374   19.5595 C   0  0  0  0  0  0  0  0  0  0  0  0
  -32.7253  -20.8174   17.4405 C   0  0  0  0  0  0  0  0  0  0  0  0
  -31.1250  -22.6167   16.6125 C   0  0  0  0  0  0  0  0  0  1  0  0
  -32.7192  -26.2873   24.3670 C   0  0  1  0  0  0  0  0  0  0  0  0
  -32.1525  -23.0895   26.3222 C   0  0  2  0  0  0  0  0  0  0  0  0
  -32.0250  -21.4365   16.2254 C   0  0  2  0  0  0  0  0  0  0  0  0
  -33.7567  -27.3403   24.8488 C   0  0  0  0  0  0  0  0  0  0  0  0
  -25.8089  -11.5315   20.3291 N   0  0  0  0  0  0  0  0  0  0  0  0
  -26.2071  -12.8058   20.1747 N   0  0  0  0  0  0  0  0  0  0  0  0
  -31.0188  -26.7092   22.6193 N   0  0  0  0  0  0  0  0  0  0  0  0
  -29.9459  -13.5435   20.4213 N   0  0  0  0  0  0  0  0  0  0  0  0
  -25.4704  -15.0498   20.3545 N   0  0  0  0  0  0  0  0  0  0  0  0
  -21.8304  -12.6592   21.5509 N   0  0  0  0  0  0  0  0  0  0  0  0
  -30.0706  -15.6482   21.4781 N   0  0  0  0  0  0  0  0  0  0  0  0
  -29.5971  -29.7835   21.4979 N   0  0  0  0  0  0  0  0  0  0  0  0
  -32.3852  -25.2774   25.3655 N   0  0  0  0  0  0  0  0  0  0  0  0
  -31.0107  -22.2043   25.9566 N   0  3  0  0  0  0  0  0  0  0  0  0
  -31.7638  -20.1962   18.3821 N   0  3  0  0  0  0  0  0  0  0  0  0
  -22.6424  -14.7797   21.2299 O   0  0  0  0  0  0  0  0  0  0  0  0
  -31.5024  -28.6146   20.8453 O   0  0  0  0  0  0  0  0  0  0  0  0
  -30.7608  -27.5621   24.7739 O   0  0  0  0  0  0  0  0  0  0  0  0
  -33.0195  -23.4441   24.0951 O   0  0  0  0  0  0  0  0  0  0  0  0
  -31.8555  -14.8337   20.2401 O   0  0  0  0  0  0  0  0  0  0  0  0
  -21.4719   -7.1052   21.7941 O   0  0  0  0  0  0  0  0  0  0  0  0
  -31.8699  -23.5568   17.3857 O   0  0  0  0  0  0  0  0  0  1  0  0
  -23.7974   -3.0895   24.7723 F   0  0  0  0  0  0  0  0  0  0  0  0
  -20.3753   -6.3099   24.2040 F   0  0  0  0  0  0  0  0  0  0  0  0
  1  2  1  0  0  0  0
  1  5  2  0  0  0  0
  2  6  2  0  0  0  0
  3  8  2  0  0  0  0
  3 17  1  0  0  0  0
  4  9  1  0  0  0  0
  4 17  2  0  0  0  0
  5 19  1  0  0  0  0
  6 21  1  0  0  0  0
  7 10  2  0  0  0  0
  7 20  1  0  0  0  0
  8 27  1  0  0  0  0
  9 27  2  0  0  0  0
 10 28  1  0  0  0  0
 11 12  2  0  0  0  0
 11 29  1  0  0  0  0
 12 30  1  0  0  0  0
 13 22  1  0  0  0  0
 13 28  2  0  0  0  0
 14 23  1  0  0  0  0
 14 24  2  0  0  0  0
 15 25  1  0  0  0  0
 15 26  2  0  0  0  0
 16 30  2  0  0  0  0
 16 31  1  0  0  0  0
 17 32  1  0  0  0  0
 18 32  1  0  0  0  0
 18 33  2  0  0  0  0
 18 34  1  0  0  0  0
 19 21  2  0  0  0  0
 19 39  1  0  0  0  0
 20 22  2  0  0  0  0
 20 40  1  0  0  0  0
 21 48  1  0  0  0  0
 22 41  1  0  0  0  0
 23 25  2  0  0  0  0
 23 51  1  0  0  0  0
 24 26  1  0  0  0  0
 24 52  1  0  0  0  0
 25 59  1  0  0  0  0
 26 72  1  0  0  0  0
 27 82  1  0  0  0  0
 28 83  1  0  0  0  0
 29 31  2  0  0  0  0
 29 82  1  0  0  0  0
 30 84  1  0  0  0  0
 31 85  1  0  0  0  0
 32 66  2  0  0  0  0
 33 67  1  0  0  0  0
 33 70  1  0  0  0  0
 34 71  1  0  0  0  0
 34 77  2  0  0  0  0
 35 49  1  0  0  0  0
 35 73  1  0  0  0  0
 35 78  2  0  0  0  0
 36 62  1  0  0  0  0
 36 68  1  0  0  0  0
 36 79  2  0  0  0  0
 37 63  1  0  0  0  0
 37 74  1  0  0  0  0
 37 80  2  0  0  0  0
 38 69  1  0  0  0  0
 38 72  1  0  0  0  0
 38 81  2  0  0  0  0
 39 42  1  0  0  0  0
 40 49  1  0  0  0  0
 41 68  1  0  0  0  0
 42 44  1  0  0  0  0
 43 45  1  0  0  0  0
 43 46  1  0  0  0  0
 44 48  1  0  0  0  0
 45 50  1  0  0  0  0
 46 69  1  0  0  0  0
 47 50  1  0  0  0  0
 47 69  1  0  0  0  0
 48 73  1  0  0  0  0
 49 68  1  0  0  0  0
 50 67  1  0  0  0  0
 53 63  1  0  0  0  0
 54 64  1  0  0  0  0
 55 65  1  0  0  0  0
 56 65  1  0  0  0  0
 57 65  1  0  0  0  0
 58 75  1  0  0  0  0
 59 76  1  0  0  0  0
 60 64  1  0  0  0  0
 60 76  1  0  0  0  0
 61 64  1  0  0  0  0
 61 83  1  0  0  0  0
 62 65  1  0  0  0  0
 62 74  1  0  0  0  0
 63 75  1  0  0  0  0
 66 67  1  0  0  0  0
M  CHG  2  75   1  76   1
M  ISO  4  38 100  61 101  72 100  83 101
M  END
> <Batch ID>
0042

> <Smiles>
CNC(C)C(=O)NC(C(=O)N1Cc2cc([101O:1][101CH2:1]C(C)CNCc3cc([100NH:0][100C:0](=O)N4CCCC(n5nc(-c6ccc(Oc7ccc(F)cc7F)cc6)c(C(N)=O)c5N)C4)c(C)cc3C)ccc2CC1C(=O)NC1CCCc2ccccc21)C(C)(C)C

> <Shape>
0.247

> <Color>
0.193

> <Negative vol penalty>
0.000

$$$$

  -OEChem-04042322123D

 87 96  0     1  0  0  0  0  0999 V2000
  -22.5335  -28.7993   25.8519 C   0  0  0  0  0  0  0  0  0  0  0  0
  -23.5545  -28.0119   25.3294 C   0  0  0  0  0  0  0  0  0  0  0  0
  -22.6510  -10.2096   20.2527 C   0  0  0  0  0  0  0  0  0  0  0  0
  -24.2538   -9.5404   21.9321 C   0  0  0  0  0  0  0  0  0  0  0  0
  -22.7694  -30.1425   26.1418 C   0  0  0  0  0  0  0  0  0  0  0  0
  -24.8118  -28.5677   25.0954 C   0  0  0  0  0  0  0  0  0  0  0  0
  -28.5812  -25.5899   26.6983 C   0  0  0  0  0  0  0  0  0  0  0  0
  -21.9059   -9.0577   20.5048 C   0  0  0  0  0  0  0  0  0  0  0  0
  -23.5087   -8.3885   22.1843 C   0  0  0  0  0  0  0  0  0  0  0  0
  -28.9199  -24.5028   25.8937 C   0  0  0  0  0  0  0  0  0  0  0  0
  -19.6977   -7.9779   22.8266 C   0  0  0  0  0  0  0  0  0  0  0  0
  -18.3147   -8.1138   22.9465 C   0  0  0  0  0  0  0  0  0  0  0  0
  -30.7809  -25.7513   25.0009 C   0  0  0  0  0  0  0  0  0  0  0  0
  -30.5220  -18.3528   24.0373 C   0  0  0  0  0  0  0  0  0  0  0  0
  -32.0640  -16.5874   22.5246 C   0  0  0  0  0  0  0  0  0  0  0  0
  -18.0052   -6.6090   21.0818 C   0  0  0  0  0  0  0  0  0  0  0  0
  -23.8250  -10.4509   20.9663 C   0  0  0  0  0  0  0  0  0  0  0  0
  -24.1688  -12.9754   20.8382 C   0  0  0  0  0  0  0  0  0  0  0  0
  -24.0329  -30.7126   25.9203 C   0  0  0  0  0  0  0  0  0  0  0  0
  -29.3345  -26.7717   26.6521 C   0  0  0  0  0  0  0  0  0  0  0  0
  -25.0644  -29.9202   25.3813 C   0  0  0  0  0  0  0  0  0  0  0  0
  -30.4512  -26.8510   25.8077 C   0  0  0  0  0  0  0  0  0  0  0  0
  -31.9100  -18.3454   24.1746 C   0  0  0  0  0  0  0  0  0  0  0  0
  -30.6759  -16.5946   22.3873 C   0  0  0  0  0  0  0  0  0  0  0  0
  -22.3347   -8.1472   21.4706 C   0  0  0  0  0  0  0  0  0  0  0  0
  -30.0182  -24.5844   25.0427 C   0  0  0  0  0  0  0  0  0  0  0  0
  -20.2345   -7.1576   21.8343 C   0  0  0  0  0  0  0  0  0  0  0  0
  -17.4684   -7.4293   22.0742 C   0  0  0  0  0  0  0  0  0  0  0  0
  -19.3883   -6.4732   20.9619 C   0  0  0  0  0  0  0  0  0  0  0  0
  -29.9049  -17.4773   23.1437 C   0  0  0  0  0  0  0  0  0  0  0  0
  -32.6811  -17.4628   23.4182 C   0  0  0  0  0  0  0  0  0  0  0  0
  -24.5954  -11.6404   20.7060 C   0  0  0  0  0  0  0  0  0  0  0  0
  -25.2622  -13.7229   20.4745 C   0  0  0  0  0  0  0  0  0  0  0  0
  -31.4927  -21.5254   24.9275 C   0  0  0  0  0  0  0  0  0  0  0  0
  -22.8979  -13.4936   21.2529 C   0  0  0  0  0  0  0  0  0  0  0  0
  -28.7249  -29.7912   25.8680 C   0  0  0  0  0  0  0  0  0  0  0  0
  -31.7540  -30.2687   26.9259 C   0  0  0  0  0  0  0  0  0  0  0  0
  -34.9315  -28.5798   26.6646 C   0  0  0  0  0  0  0  0  0  0  0  0
  -30.7288  -14.7653   20.6562 C   0  0  0  0  0  0  0  0  0  0  0  0
  -24.2268  -32.1810   26.2048 C   0  0  0  0  0  0  0  0  0  0  0  0
  -28.9719  -27.9258   27.5459 C   0  0  0  0  0  0  0  0  0  0  0  0
  -31.3046  -28.0899   25.7358 C   0  0  0  0  0  0  0  0  0  0  0  0
  -25.6932  -32.5987   26.2786 C   0  0  0  0  0  0  0  0  0  0  0  0
  -33.7629  -22.4246   23.3073 C   0  0  0  0  0  0  0  0  0  0  0  0
  -29.6173  -12.3440   18.2941 C   0  0  0  0  0  0  0  0  0  0  0  0
  -26.4746  -32.0134   25.1065 C   0  0  0  0  0  0  0  0  0  0  0  0
  -32.4116  -23.0884   23.1439 C   0  0  0  0  0  0  0  0  0  0  0  0
  -28.1766  -12.0549   18.7219 C   0  0  0  0  0  0  0  0  0  0  0  0
  -33.5733  -20.9515   23.6223 C   0  0  0  0  0  0  0  0  0  0  0  0
  -30.5302  -12.5763   19.4967 C   0  0  0  0  0  0  0  0  0  0  0  0
  -28.6211  -13.3069   20.8718 C   0  0  0  0  0  0  0  0  0  0  0  0
  -26.4488  -30.4805   25.1368 C   0  0  1  0  0  0  0  0  0  0  0  0
  -31.6388  -22.9620   24.4420 C   0  0  1  0  0  0  0  0  0  1  0  0
  -29.5033  -29.2634   27.0399 C   0  0  1  0  0  0  0  0  0  0  0  0
  -27.6504  -13.1303   19.6927 C   0  0  2  0  0  0  0  0  0  0  0  0
  -36.9150  -28.5885   28.2018 C   0  0  0  0  0  0  0  0  0  0  0  0
  -32.7709  -32.5159   25.1299 C   0  0  0  0  0  0  0  0  0  0  0  0
  -35.0750  -31.5645   25.3619 C   0  0  0  0  0  0  0  0  0  0  0  0
  -33.8640  -32.4003   27.3762 C   0  0  0  0  0  0  0  0  0  0  0  0
  -34.9229  -25.6282   26.8811 C   0  0  0  0  0  0  0  0  0  0  0  0
  -32.5355  -19.3036   25.1466 C   0  0  0  0  0  0  0  0  0  0  0  0
  -33.1245  -30.2385   26.2936 C   0  0  1  0  0  0  0  0  0  0  0  0
  -35.6621  -27.8416   27.7718 C   0  0  2  0  0  0  0  0  0  0  0  0
  -33.6873  -31.6638   26.0305 C   0  0  0  0  0  0  0  0  0  0  0  0
  -25.8610  -11.5422   20.2905 N   0  0  0  0  0  0  0  0  0  0  0  0
  -26.2390  -12.8251   20.1584 N   0  0  0  0  0  0  0  0  0  0  0  0
  -32.5535  -20.6669   24.6333 N   0  0  0  0  0  0  0  0  0  0  0  0
  -30.9057  -29.1938   26.6246 N   0  0  0  0  0  0  0  0  0  0  0  0
  -29.9702  -13.6106   20.3694 N   0  0  0  0  0  0  0  0  0  0  0  0
  -25.4737  -15.0539   20.3972 N   0  0  0  0  0  0  0  0  0  0  0  0
  -21.8847  -12.5863   21.5913 N   0  0  0  0  0  0  0  0  0  0  0  0
  -30.0805  -15.6936   21.4701 N   0  0  0  0  0  0  0  0  0  0  0  0
  -27.3801  -29.9787   26.1243 N   0  0  0  0  0  0  0  0  0  0  0  0
  -33.9584  -29.4184   27.1656 N   0  0  0  0  0  0  0  0  0  0  0  0
  -36.0604  -26.4811   27.3121 N   0  3  0  0  0  0  0  0  0  0  0  0
  -30.5084  -21.1999   25.5964 O   0  0  0  0  0  0  0  0  0  0  0  0
  -22.6624  -14.7245   21.3055 O   0  0  0  0  0  0  0  0  0  0  0  0
  -29.3021  -30.0134   24.8101 O   0  0  0  0  0  0  0  0  0  0  0  0
  -31.4499  -31.2077   27.6659 O   0  0  0  0  0  0  0  0  0  0  0  0
  -35.2000  -28.4304   25.4746 O   0  0  0  0  0  0  0  0  0  0  0  0
  -31.8589  -14.9316   20.1901 O   0  0  0  0  0  0  0  0  0  0  0  0
  -21.6078   -7.0232   21.7170 O   0  0  0  0  0  0  0  0  0  0  0  0
  -30.3507  -23.5251   24.2559 O   0  0  0  0  0  0  0  0  0  1  0  0
  -16.1403   -7.5587   22.1904 F   0  0  0  0  0  0  0  0  0  0  0  0
  -19.8981   -5.6828   20.0074 F   0  0  0  0  0  0  0  0  0  0  0  0
  -28.1835  -17.5188   23.0050 Cl  0  0  0  0  0  0  0  0  0  0  0  0
  -34.4008  -17.4252   23.5629 Cl  0  0  0  0  0  0  0  0  0  0  0  0
  1  2  1  0  0  0  0
  1  5  2  0  0  0  0
  2  6  2  0  0  0  0
  3  8  2  0  0  0  0
  3 17  1  0  0  0  0
  4  9  1  0  0  0  0
  4 17  2  0  0  0  0
  5 19  1  0  0  0  0
  6 21  1  0  0  0  0
  7 10  2  0  0  0  0
  7 20  1  0  0  0  0
  8 25  1  0  0  0  0
  9 25  2  0  0  0  0
 10 26  1  0  0  0  0
 11 12  2  0  0  0  0
 11 27  1  0  0  0  0
 12 28  1  0  0  0  0
 13 22  1  0  0  0  0
 13 26  2  0  0  0  0
 14 23  1  0  0  0  0
 14 30  2  0  0  0  0
 15 24  2  0  0  0  0
 15 31  1  0  0  0  0
 16 28  2  0  0  0  0
 16 29  1  0  0  0  0
 17 32  1  0  0  0  0
 18 32  1  0  0  0  0
 18 33  2  0  0  0  0
 18 35  1  0  0  0  0
 19 21  2  0  0  0  0
 19 40  1  0  0  0  0
 20 22  2  0  0  0  0
 20 41  1  0  0  0  0
 21 52  1  0  0  0  0
 22 42  1  0  0  0  0
 23 31  2  0  0  0  0
 23 61  1  0  0  0  0
 24 30  1  0  0  0  0
 24 72  1  0  0  0  0
 25 82  1  0  0  0  0
 26 83  1  0  0  0  0
 27 29  2  0  0  0  0
 27 82  1  0  0  0  0
 28 84  1  0  0  0  0
 29 85  1  0  0  0  0
 30 86  1  0  0  0  0
 31 87  1  0  0  0  0
 32 65  2  0  0  0  0
 33 66  1  0  0  0  0
 33 70  1  0  0  0  0
 34 53  1  0  0  0  0
 34 67  1  0  0  0  0
 34 76  2  0  0  0  0
 35 71  1  0  0  0  0
 35 77  2  0  0  0  0
 36 54  1  0  0  0  0
 36 73  1  0  0  0  0
 36 78  2  0  0  0  0
 37 62  1  0  0  0  0
 37 68  1  0  0  0  0
 37 79  2  0  0  0  0
 38 63  1  0  0  0  0
 38 74  1  0  0  0  0
 38 80  2  0  0  0  0
 39 69  1  0  0  0  0
 39 72  1  0  0  0  0
 39 81  2  0  0  0  0
 40 43  1  0  0  0  0
 41 54  1  0  0  0  0
 42 68  1  0  0  0  0
 43 46  1  0  0  0  0
 44 47  1  0  0  0  0
 44 49  1  0  0  0  0
 45 48  1  0  0  0  0
 45 50  1  0  0  0  0
 46 52  1  0  0  0  0
 47 53  1  0  0  0  0
 48 55  1  0  0  0  0
 49 67  1  0  0  0  0
 50 69  1  0  0  0  0
 51 55  1  0  0  0  0
 51 69  1  0  0  0  0
 52 73  1  0  0  0  0
 53 83  1  0  0  0  0
 54 68  1  0  0  0  0
 55 66  1  0  0  0  0
 56 63  1  0  0  0  0
 57 64  1  0  0  0  0
 58 64  1  0  0  0  0
 59 64  1  0  0  0  0
 60 75  1  0  0  0  0
 61 67  1  0  0  0  0
 62 64  1  0  0  0  0
 62 74  1  0  0  0  0
 63 75  1  0  0  0  0
 65 66  1  0  0  0  0
M  CHG  1  75   1
M  ISO  4  39 100  53 101  72 100  83 101
M  END
> <Batch ID>
0042

> <Smiles>
CNC(C)C(=O)NC(C(=O)N1Cc2cc([101O:1][101CH:1]3CCCN(Cc4cc(Cl)c([100NH:0][100C:0](=O)N5CCCC(n6nc(-c7ccc(Oc8ccc(F)cc8F)cc7)c(C(N)=O)c6N)C5)cc4Cl)C3=O)ccc2CC1C(=O)NC1CCCc2ccccc21)C(C)(C)C

> <Shape>
0.194

> <Color>
0.191

> <Negative vol penalty>
0.000

$$$$

  -OEChem-04042322123D

 84 92  0     1  0  0  0  0  0999 V2000
  -25.2175  -35.3253   23.4784 C   0  0  0  0  0  0  0  0  0  0  0  0
  -25.9107  -34.1491   23.2112 C   0  0  0  0  0  0  0  0  0  0  0  0
  -25.9258  -11.5098   21.2010 C   0  0  0  0  0  0  0  0  0  0  0  0
  -25.6908  -13.1010   19.3982 C   0  0  0  0  0  0  0  0  0  0  0  0
  -23.9156  -35.2686   23.9741 C   0  0  0  0  0  0  0  0  0  0  0  0
  -25.3027  -32.9153   23.4408 C   0  0  0  0  0  0  0  0  0  0  0  0
  -26.0282  -29.6539   19.6353 C   0  0  0  0  0  0  0  0  0  0  0  0
  -24.5376  -11.4279   21.3097 C   0  0  0  0  0  0  0  0  0  0  0  0
  -24.3026  -13.0191   19.5069 C   0  0  0  0  0  0  0  0  0  0  0  0
  -27.2688  -29.0216   19.5665 C   0  0  0  0  0  0  0  0  0  0  0  0
  -21.9981   -9.8948   19.6871 C   0  0  0  0  0  0  0  0  0  0  0  0
  -21.4312   -8.6262   19.8097 C   0  0  0  0  0  0  0  0  0  0  0  0
  -26.3148  -27.0524   20.5820 C   0  0  0  0  0  0  0  0  0  0  0  0
  -30.6734  -20.6698   18.0770 C   0  0  0  0  0  0  0  0  0  0  0  0
  -31.8708  -20.1902   20.5506 C   0  0  0  0  0  0  0  0  0  0  0  0
  -20.4850   -9.2552   21.9419 C   0  0  0  0  0  0  0  0  0  0  0  0
  -26.5024  -12.3464   20.2453 C   0  0  0  0  0  0  0  0  0  0  0  0
  -28.7743  -11.6404   19.3247 C   0  0  0  0  0  0  0  0  0  0  0  0
  -23.2879  -34.0336   24.2008 C   0  0  0  0  0  0  0  0  0  0  0  0
  -24.9222  -28.9930   20.1889 C   0  0  0  0  0  0  0  0  0  0  0  0
  -23.9917  -32.8420   23.9414 C   0  0  0  0  0  0  0  0  0  0  0  0
  -25.0606  -27.6776   20.6544 C   0  0  0  0  0  0  0  0  0  0  0  0
  -31.1305  -21.7376   18.8492 C   0  0  0  0  0  0  0  0  0  0  0  0
  -31.4136  -19.1224   19.7784 C   0  0  0  0  0  0  0  0  0  0  0  0
  -23.7260  -12.1826   20.4627 C   0  0  0  0  0  0  0  0  0  0  0  0
  -27.4130  -27.7217   20.0424 C   0  0  0  0  0  0  0  0  0  0  0  0
  -21.8085  -10.8435   20.6919 C   0  0  0  0  0  0  0  0  0  0  0  0
  -20.6746   -8.3064   20.9371 C   0  0  0  0  0  0  0  0  0  0  0  0
  -30.8148  -19.3621   18.5416 C   0  0  0  0  0  0  0  0  0  0  0  0
  -21.0520  -10.5237   21.8193 C   0  0  0  0  0  0  0  0  0  0  0  0
  -31.7292  -21.4978   20.0860 C   0  0  0  0  0  0  0  0  0  0  0  0
  -27.9363  -12.4319   20.1328 C   0  0  0  0  0  0  0  0  0  0  0  0
  -30.0394  -12.1129   19.5757 C   0  0  0  0  0  0  0  0  0  0  0  0
  -28.4392  -10.5736   18.4273 C   0  0  0  0  0  0  0  0  0  0  0  0
  -23.0190  -29.5071   22.6824 C   0  0  0  0  0  0  0  0  0  0  0  0
  -21.3874  -26.9828   21.4625 C   0  0  0  0  0  0  0  0  0  0  0  0
  -29.8581  -25.2142   19.1034 C   0  0  0  0  0  0  0  0  0  0  0  0
  -21.4284  -24.1599   19.5451 C   0  0  0  0  0  0  0  0  0  0  0  0
  -32.1293  -17.3853   21.4567 C   0  0  0  0  0  0  0  0  0  0  0  0
  -21.8963  -34.0224   24.7822 C   0  0  0  0  0  0  0  0  0  0  0  0
  -23.5845  -29.6793   20.2315 C   0  0  0  0  0  0  0  0  0  0  0  0
  -23.8996  -26.9171   21.2393 C   0  0  0  0  0  0  0  0  0  0  0  0
  -21.1893  -32.6765   24.6442 C   0  0  0  0  0  0  0  0  0  0  0  0
  -32.6390  -14.2186   23.0024 C   0  0  0  0  0  0  0  0  0  0  0  0
  -22.1193  -31.5401   25.0571 C   0  0  0  0  0  0  0  0  0  0  0  0
  -31.5711  -13.3275   22.3639 C   0  0  0  0  0  0  0  0  0  0  0  0
  -32.1302  -15.6414   23.2269 C   0  0  0  0  0  0  0  0  0  0  0  0
  -30.4938  -15.4010   21.4011 C   0  0  0  0  0  0  0  0  0  0  0  0
  -23.3574  -31.4846   24.1540 C   0  0  1  0  0  0  0  0  0  0  0  0
  -22.6475  -29.0971   21.2854 C   0  0  1  0  0  0  0  0  0  0  0  0
  -30.9811  -13.9752   21.0958 C   0  0  2  0  0  0  0  0  0  0  0  0
  -19.9523  -22.2857   18.7667 C   0  0  0  0  0  0  0  0  0  0  0  0
  -21.5985  -25.6776   24.2124 C   0  0  0  0  0  0  0  0  0  0  0  0
  -20.9841  -23.4967   23.1474 C   0  0  0  0  0  0  0  0  0  0  0  0
  -19.3776  -25.4043   23.0956 C   0  0  0  0  0  0  0  0  0  0  0  0
  -21.7790  -24.9092   16.7035 C   0  0  0  0  0  0  0  0  0  0  0  0
  -30.9594  -23.1292   18.3124 C   0  0  0  0  0  0  0  0  0  0  0  0
  -28.6191  -25.6824   19.8362 C   0  0  0  0  0  0  0  0  0  1  0  0
  -21.4448  -25.4850   21.6423 C   0  0  1  0  0  0  0  0  0  0  0  0
  -20.4952  -23.6710   18.4521 C   0  0  2  0  0  0  0  0  0  0  0  0
  -20.8738  -25.0307   23.0152 C   0  0  0  0  0  0  0  0  0  0  0  0
  -28.6121  -13.3382   20.8441 N   0  0  0  0  0  0  0  0  0  0  0  0
  -29.8881  -13.1192   20.4838 N   0  0  0  0  0  0  0  0  0  0  0  0
  -22.6136  -27.6333   21.2648 N   0  0  0  0  0  0  0  0  0  0  0  0
  -31.5900  -16.1920   21.9820 N   0  0  0  0  0  0  0  0  0  0  0  0
  -31.2552  -11.7614   19.1060 N   0  0  0  0  0  0  0  0  0  0  0  0
  -27.0912  -10.2159   18.2884 N   0  0  0  0  0  0  0  0  0  0  0  0
  -31.5583  -17.7949   20.2522 N   0  0  0  0  0  0  0  0  0  0  0  0
  -23.0292  -30.8742   22.8835 N   0  0  0  0  0  0  0  0  0  0  0  0
  -29.8848  -23.8347   18.9715 N   0  0  0  0  0  0  0  0  0  0  0  0
  -20.7598  -24.9091   20.4901 N   0  0  0  0  0  0  0  0  0  0  0  0
  -21.2129  -23.6094   17.1475 N   0  3  0  0  0  0  0  0  0  0  0  0
  -29.3110   -9.9449   17.7806 O   0  0  0  0  0  0  0  0  0  0  0  0
  -23.2758  -28.6468   23.5164 O   0  0  0  0  0  0  0  0  0  0  0  0
  -20.2942  -27.5537   21.4891 O   0  0  0  0  0  0  0  0  0  0  0  0
  -30.7175  -25.9878   18.6898 O   0  0  0  0  0  0  0  0  0  0  0  0
  -22.6295  -23.8999   19.5611 O   0  0  0  0  0  0  0  0  0  0  0  0
  -33.0497  -17.9842   22.0190 O   0  0  0  0  0  0  0  0  0  0  0  0
  -22.3714  -12.1027   20.5684 O   0  0  0  0  0  0  0  0  0  0  0  0
  -28.6230  -27.1024   19.9770 O   0  0  0  0  0  0  0  0  0  1  0  0
  -20.1290   -7.0887   21.0540 F   0  0  0  0  0  0  0  0  0  0  0  0
  -30.3718  -18.3433   17.7912 F   0  0  0  0  0  0  0  0  0  0  0  0
  -20.8654  -11.4314   22.7874 F   0  0  0  0  0  0  0  0  0  0  0  0
  -32.3057  -22.7947   21.0687 Cl  0  0  0  0  0  0  0  0  0  0  0  0
  1  2  1  0  0  0  0
  1  5  2  0  0  0  0
  2  6  2  0  0  0  0
  3  8  2  0  0  0  0
  3 17  1  0  0  0  0
  4  9  1  0  0  0  0
  4 17  2  0  0  0  0
  5 19  1  0  0  0  0
  6 21  1  0  0  0  0
  7 10  2  0  0  0  0
  7 20  1  0  0  0  0
  8 25  1  0  0  0  0
  9 25  2  0  0  0  0
 10 26  1  0  0  0  0
 11 12  2  0  0  0  0
 11 27  1  0  0  0  0
 12 28  1  0  0  0  0
 13 22  1  0  0  0  0
 13 26  2  0  0  0  0
 14 23  1  0  0  0  0
 14 29  2  0  0  0  0
 15 24  2  0  0  0  0
 15 31  1  0  0  0  0
 16 28  2  0  0  0  0
 16 30  1  0  0  0  0
 17 32  1  0  0  0  0
 18 32  1  0  0  0  0
 18 33  2  0  0  0  0
 18 34  1  0  0  0  0
 19 21  2  0  0  0  0
 19 40  1  0  0  0  0
 20 22  2  0  0  0  0
 20 41  1  0  0  0  0
 21 49  1  0  0  0  0
 22 42  1  0  0  0  0
 23 31  2  0  0  0  0
 23 57  1  0  0  0  0
 24 29  1  0  0  0  0
 24 68  1  0  0  0  0
 25 79  1  0  0  0  0
 26 80  1  0  0  0  0
 27 30  2  0  0  0  0
 27 79  1  0  0  0  0
 28 81  1  0  0  0  0
 29 82  1  0  0  0  0
 30 83  1  0  0  0  0
 31 84  1  0  0  0  0
 32 62  2  0  0  0  0
 33 63  1  0  0  0  0
 33 66  1  0  0  0  0
 34 67  1  0  0  0  0
 34 73  2  0  0  0  0
 35 50  1  0  0  0  0
 35 69  1  0  0  0  0
 35 74  2  0  0  0  0
 36 59  1  0  0  0  0
 36 64  1  0  0  0  0
 36 75  2  0  0  0  0
 37 58  1  0  0  0  0
 37 70  1  0  0  0  0
 37 76  2  0  0  0  0
 38 60  1  0  0  0  0
 38 71  1  0  0  0  0
 38 77  2  0  0  0  0
 39 65  1  0  0  0  0
 39 68  1  0  0  0  0
 39 78  2  0  0  0  0
 40 43  1  0  0  0  0
 41 50  1  0  0  0  0
 42 64  1  0  0  0  0
 43 45  1  0  0  0  0
 44 46  1  0  0  0  0
 44 47  1  0  0  0  0
 45 49  1  0  0  0  0
 46 51  1  0  0  0  0
 47 65  1  0  0  0  0
 48 51  1  0  0  0  0
 48 65  1  0  0  0  0
 49 69  1  0  0  0  0
 50 64  1  0  0  0  0
 51 63  1  0  0  0  0
 52 60  1  0  0  0  0
 53 61  1  0  0  0  0
 54 61  1  0  0  0  0
 55 61  1  0  0  0  0
 56 72  1  0  0  0  0
 57 70  1  0  0  0  0
 58 80  1  0  0  0  0
 59 61  1  0  0  0  0
 59 71  1  0  0  0  0
 60 72  1  0  0  0  0
 62 63  1  0  0  0  0
M  CHG  1  72   1
M  ISO  4  39 100  58 101  68 100  80 101
M  END
> <Batch ID>
0042

> <Smiles>
CNC(C)C(=O)NC(C(=O)N1Cc2cc([101O:1][101CH2:1]C(=O)NCc3cc(F)c([100NH:0][100C:0](=O)N4CCCC(n5nc(-c6ccc(Oc7ccc(F)cc7F)cc6)c(C(N)=O)c5N)C4)cc3Cl)ccc2CC1C(=O)NC1CCCc2ccccc21)C(C)(C)C

> <Shape>
0.285

> <Color>
0.090

> <Negative vol penalty>
0.000

$$$$

  -OEChem-04042322123D

 82 90  0     1  0  0  0  0  0999 V2000
  -23.1904   -8.6902   21.9077 C   0  0  0  0  0  0  0  0  0  0  0  0
  -24.3835   -9.4056   21.8963 C   0  0  0  0  0  0  0  0  0  0  0  0
  -34.5700  -23.0861   20.8045 C   0  0  0  0  0  0  0  0  0  0  0  0
  -22.0804  -27.7423   21.0331 C   0  0  0  0  0  0  0  0  0  0  0  0
  -23.4138  -27.3585   23.0109 C   0  0  0  0  0  0  0  0  0  0  0  0
  -22.1387   -9.0775   21.0782 C   0  0  0  0  0  0  0  0  0  0  0  0
  -24.5259  -10.5082   21.0547 C   0  0  0  0  0  0  0  0  0  0  0  0
  -27.6840  -15.6292   22.1986 C   0  0  0  0  0  0  0  0  0  0  0  0
  -33.8151  -23.7105   19.8117 C   0  0  0  0  0  0  0  0  0  0  0  0
  -34.6298  -21.6937   20.8632 C   0  0  0  0  0  0  0  0  0  0  0  0
  -20.9209  -27.7057   21.8077 C   0  0  0  0  0  0  0  0  0  0  0  0
  -22.2543  -27.3219   23.7855 C   0  0  0  0  0  0  0  0  0  0  0  0
  -28.9602  -16.0474   21.8244 C   0  0  0  0  0  0  0  0  0  0  0  0
  -19.2473  -29.7820   23.8862 C   0  0  0  0  0  0  0  0  0  0  0  0
  -18.2856  -30.7669   23.6607 C   0  0  0  0  0  0  0  0  0  0  0  0
  -28.0113  -17.2635   19.9697 C   0  0  0  0  0  0  0  0  0  0  0  0
  -33.1795  -21.5502   18.9363 C   0  0  0  0  0  0  0  0  0  0  0  0
  -16.6717  -29.0611   23.0928 C   0  0  0  0  0  0  0  0  0  0  0  0
  -23.3268  -27.5686   21.6347 C   0  0  0  0  0  0  0  0  0  0  0  0
  -25.3068  -28.7352   20.5273 C   0  0  0  0  0  0  0  0  0  0  0  0
  -22.2650  -10.1912   20.2330 C   0  0  0  0  0  0  0  0  0  0  0  0
  -26.5610  -16.0167   21.4535 C   0  0  0  0  0  0  0  0  0  0  0  0
  -23.4755  -10.9100   20.2122 C   0  0  0  0  0  0  0  0  0  0  0  0
  -26.7217  -16.8509   20.3380 C   0  0  0  0  0  0  0  0  0  0  0  0
  -33.1198  -22.9426   18.8776 C   0  0  0  0  0  0  0  0  0  0  0  0
  -33.9345  -20.9258   19.9292 C   0  0  0  0  0  0  0  0  0  0  0  0
  -21.0079  -27.4955   23.1838 C   0  0  0  0  0  0  0  0  0  0  0  0
  -29.1244  -16.8624   20.7081 C   0  0  0  0  0  0  0  0  0  0  0  0
  -18.9212  -28.4366   23.7150 C   0  0  0  0  0  0  0  0  0  0  0  0
  -16.9979  -30.4065   23.2640 C   0  0  0  0  0  0  0  0  0  0  0  0
  -17.6334  -28.0762   23.3183 C   0  0  0  0  0  0  0  0  0  0  0  0
  -24.5248  -27.6058   20.8351 C   0  0  0  0  0  0  0  0  0  0  0  0
  -26.3252  -28.2454   19.7466 C   0  0  0  0  0  0  0  0  0  0  0  0
  -25.1286  -30.1047   20.9126 C   0  0  0  0  0  0  0  0  0  0  0  0
  -24.3366  -14.4776   19.7840 C   0  0  0  0  0  0  0  0  0  0  0  0
  -23.0267  -17.4353   19.5420 C   0  0  0  0  0  0  0  0  0  0  0  0
  -23.4778  -20.8176   19.6026 C   0  0  0  0  0  0  0  0  0  0  0  0
  -30.2348  -24.5333   18.8072 C   0  0  0  0  0  0  0  0  0  0  0  0
  -21.1175  -10.5432   19.3198 C   0  0  0  0  0  0  0  0  0  0  0  0
  -25.1885  -15.5789   21.8858 C   0  0  0  0  0  0  0  0  0  0  0  0
  -25.5465  -17.3115   19.5163 C   0  0  0  0  0  0  0  0  0  0  0  0
  -21.2163  -11.9483   18.7314 C   0  0  0  0  0  0  0  0  0  0  0  0
  -26.9295  -23.7130   17.5824 C   0  0  0  0  0  0  0  0  0  0  0  0
  -22.6236  -12.2083   18.2036 C   0  0  0  0  0  0  0  0  0  0  0  0
  -26.0714  -24.7555   18.3013 C   0  0  0  0  0  0  0  0  0  0  0  0
  -28.0577  -23.2120   18.4792 C   0  0  0  0  0  0  0  0  0  0  0  0
  -28.0812  -25.3291   19.7406 C   0  0  0  0  0  0  0  0  0  0  0  0
  -23.6596  -12.1266   19.3312 C   0  0  1  0  0  0  0  0  0  0  0  0
  -24.1663  -15.6126   20.7538 C   0  0  1  0  0  0  0  0  0  0  0  0
  -26.9363  -25.8916   18.8787 C   0  0  2  0  0  0  0  0  0  0  0  0
  -22.2274  -22.9768   19.3351 C   0  0  0  0  0  0  0  0  0  0  0  0
  -22.9768  -17.0291   16.5184 C   0  0  0  0  0  0  0  0  0  0  0  0
  -22.6341  -19.4960   16.2627 C   0  0  0  0  0  0  0  0  0  0  0  0
  -20.9317  -18.1193   17.4583 C   0  0  0  0  0  0  0  0  0  0  0  0
  -24.1297  -21.6710   22.3604 C   0  0  0  0  0  0  0  0  0  0  0  0
  -32.3139  -23.6110   17.8155 C   0  0  0  0  0  0  0  0  0  0  0  0
  -33.9984  -19.4282   19.9928 C   0  0  0  0  0  0  0  0  0  0  0  0
  -32.7639  -17.3294   20.5497 C   0  0  0  0  0  0  0  0  0  0  0  0
  -31.4622  -16.8283   21.1434 C   0  0  0  0  0  0  0  0  0  1  0  0
  -23.1536  -18.5846   18.5715 C   0  0  1  0  0  0  0  0  0  0  0  0
  -22.7186  -21.9224   20.3148 C   0  0  2  0  0  0  0  0  0  0  0  0
  -22.4466  -18.2972   17.2168 C   0  0  0  0  0  0  0  0  0  0  0  0
  -25.0052  -26.4831   20.2940 N   0  0  0  0  0  0  0  0  0  0  0  0
  -26.0999  -26.9046   19.6382 N   0  0  0  0  0  0  0  0  0  0  0  0
  -24.2255  -16.8516   19.9757 N   0  0  0  0  0  0  0  0  0  0  0  0
  -28.8540  -24.3411   18.9805 N   0  0  0  0  0  0  0  0  0  0  0  0
  -27.3824  -28.8350   19.1492 N   0  0  0  0  0  0  0  0  0  0  0  0
  -24.0293  -30.4348   21.7169 N   0  0  0  0  0  0  0  0  0  0  0  0
  -23.6377  -13.3357   20.1262 N   0  0  0  0  0  0  0  0  0  0  0  0
  -22.6528  -19.7645   19.2683 N   0  0  0  0  0  0  0  0  0  0  0  0
  -30.8940  -23.5486   18.0815 N   0  0  0  0  0  0  0  0  0  0  0  0
  -23.5943  -22.5873   21.3208 N   0  3  0  0  0  0  0  0  0  0  0  0
  -32.7542  -18.8139   20.5301 N   0  3  0  0  0  0  0  0  0  0  0  0
  -25.9115  -31.0114   20.5407 O   0  0  0  0  0  0  0  0  0  0  0  0
  -25.0480  -14.6274   18.7976 O   0  0  0  0  0  0  0  0  0  0  0  0
  -21.9055  -17.0735   19.9076 O   0  0  0  0  0  0  0  0  0  0  0  0
  -24.6815  -20.8838   19.3632 O   0  0  0  0  0  0  0  0  0  0  0  0
  -30.8353  -25.5133   19.2611 O   0  0  0  0  0  0  0  0  0  0  0  0
  -19.8767  -27.4600   23.9400 O   0  0  0  0  0  0  0  0  0  0  0  0
  -30.3690  -17.2715   20.3403 O   0  0  0  0  0  0  0  0  0  1  0  0
  -16.0741  -31.3523   23.0490 F   0  0  0  0  0  0  0  0  0  0  0  0
  -17.3139  -26.7852   23.1532 F   0  0  0  0  0  0  0  0  0  0  0  0
  1  2  1  0  0  0  0
  1  6  2  0  0  0  0
  2  7  2  0  0  0  0
  3  9  1  0  0  0  0
  3 10  2  0  0  0  0
  4 11  2  0  0  0  0
  4 19  1  0  0  0  0
  5 12  1  0  0  0  0
  5 19  2  0  0  0  0
  6 21  1  0  0  0  0
  7 23  1  0  0  0  0
  8 13  2  0  0  0  0
  8 22  1  0  0  0  0
  9 25  2  0  0  0  0
 10 26  1  0  0  0  0
 11 27  1  0  0  0  0
 12 27  2  0  0  0  0
 13 28  1  0  0  0  0
 14 15  2  0  0  0  0
 14 29  1  0  0  0  0
 15 30  1  0  0  0  0
 16 24  1  0  0  0  0
 16 28  2  0  0  0  0
 17 25  1  0  0  0  0
 17 26  2  0  0  0  0
 18 30  2  0  0  0  0
 18 31  1  0  0  0  0
 19 32  1  0  0  0  0
 20 32  1  0  0  0  0
 20 33  2  0  0  0  0
 20 34  1  0  0  0  0
 21 23  2  0  0  0  0
 21 39  1  0  0  0  0
 22 24  2  0  0  0  0
 22 40  1  0  0  0  0
 23 48  1  0  0  0  0
 24 41  1  0  0  0  0
 25 56  1  0  0  0  0
 26 57  1  0  0  0  0
 27 79  1  0  0  0  0
 28 80  1  0  0  0  0
 29 31  2  0  0  0  0
 29 79  1  0  0  0  0
 30 81  1  0  0  0  0
 31 82  1  0  0  0  0
 32 63  2  0  0  0  0
 33 64  1  0  0  0  0
 33 67  1  0  0  0  0
 34 68  1  0  0  0  0
 34 74  2  0  0  0  0
 35 49  1  0  0  0  0
 35 69  1  0  0  0  0
 35 75  2  0  0  0  0
 36 60  1  0  0  0  0
 36 65  1  0  0  0  0
 36 76  2  0  0  0  0
 37 61  1  0  0  0  0
 37 70  1  0  0  0  0
 37 77  2  0  0  0  0
 38 66  1  0  0  0  0
 38 71  1  0  0  0  0
 38 78  2  0  0  0  0
 39 42  1  0  0  0  0
 40 49  1  0  0  0  0
 41 65  1  0  0  0  0
 42 44  1  0  0  0  0
 43 45  1  0  0  0  0
 43 46  1  0  0  0  0
 44 48  1  0  0  0  0
 45 50  1  0  0  0  0
 46 66  1  0  0  0  0
 47 50  1  0  0  0  0
 47 66  1  0  0  0  0
 48 69  1  0  0  0  0
 49 65  1  0  0  0  0
 50 64  1  0  0  0  0
 51 61  1  0  0  0  0
 52 62  1  0  0  0  0
 53 62  1  0  0  0  0
 54 62  1  0  0  0  0
 55 72  1  0  0  0  0
 56 71  1  0  0  0  0
 57 73  1  0  0  0  0
 58 59  1  0  0  0  0
 58 73  1  0  0  0  0
 59 80  1  0  0  0  0
 60 62  1  0  0  0  0
 60 70  1  0  0  0  0
 61 72  1  0  0  0  0
 63 64  1  0  0  0  0
M  CHG  2  72   1  73   1
M  ISO  4  38 100  59 101  71 100  80 101
M  END
> <Batch ID>
0042

> <Smiles>
CNC(C)C(=O)NC(C(=O)N1Cc2cc([101O:1][101CH2:1]CNCc3cccc(C[100NH:0][100C:0](=O)N4CCCC(n5nc(-c6ccc(Oc7ccc(F)cc7F)cc6)c(C(N)=O)c5N)C4)c3)ccc2CC1C(=O)NC1CCCc2ccccc21)C(C)(C)C

> <Shape>
0.231

> <Color>
0.074

> <Negative vol penalty>
0.000

$$$$

  -OEChem-04042322123D

 86 95  0     1  0  0  0  0  0999 V2000
  -24.2762  -31.2286   21.6410 C   0  0  0  0  0  0  0  0  0  0  0  0
  -23.6575  -30.1589   22.2780 C   0  0  0  0  0  0  0  0  0  0  0  0
  -31.6686  -16.0825   25.8974 C   0  0  0  0  0  0  0  0  0  0  0  0
  -22.7965  -10.1420   20.2253 C   0  0  0  0  0  0  0  0  0  0  0  0
  -23.9896   -9.9516   22.3174 C   0  0  0  0  0  0  0  0  0  0  0  0
  -25.2610  -30.9904   20.6846 C   0  0  0  0  0  0  0  0  0  0  0  0
  -24.0318  -28.8510   21.9677 C   0  0  0  0  0  0  0  0  0  0  0  0
  -25.8645  -20.7244   21.9424 C   0  0  0  0  0  0  0  0  0  0  0  0
  -31.1079  -14.8704   26.3001 C   0  0  0  0  0  0  0  0  0  0  0  0
  -31.8240  -16.3622   24.5397 C   0  0  0  0  0  0  0  0  0  0  0  0
  -22.0240   -9.0313   20.5647 C   0  0  0  0  0  0  0  0  0  0  0  0
  -23.2171   -8.8409   22.6569 C   0  0  0  0  0  0  0  0  0  0  0  0
  -26.8512  -19.9434   21.3422 C   0  0  0  0  0  0  0  0  0  0  0  0
  -23.1191   -5.5479   21.8968 C   0  0  0  0  0  0  0  0  0  0  0  0
  -23.7772   -4.4386   22.4277 C   0  0  0  0  0  0  0  0  0  0  0  0
  -28.4808  -21.6628   21.7980 C   0  0  0  0  0  0  0  0  0  0  0  0
  -22.4639   -4.6259   24.4469 C   0  0  0  0  0  0  0  0  0  0  0  0
  -23.7794  -10.6021   21.1016 C   0  0  0  0  0  0  0  0  0  0  0  0
  -24.1211  -13.0532   20.4829 C   0  0  0  0  0  0  0  0  0  0  0  0
  -25.6381  -29.6784   20.3540 C   0  0  0  0  0  0  0  0  0  0  0  0
  -26.1768  -21.9872   22.4661 C   0  0  0  0  0  0  0  0  0  0  0  0
  -25.0405  -28.5906   21.0226 C   0  0  0  0  0  0  0  0  0  0  0  0
  -27.4967  -22.4567   22.4066 C   0  0  0  0  0  0  0  0  0  0  0  0
  -30.7028  -13.9379   25.3451 C   0  0  0  0  0  0  0  0  0  0  0  0
  -31.4188  -15.4297   23.5847 C   0  0  0  0  0  0  0  0  0  0  0  0
  -30.8582  -14.2176   23.9874 C   0  0  0  0  0  0  0  0  0  0  0  0
  -22.2343   -8.3808   21.7805 C   0  0  0  0  0  0  0  0  0  0  0  0
  -28.1590  -20.4138   21.2673 C   0  0  0  0  0  0  0  0  0  0  0  0
  -22.1335   -6.1963   22.6410 C   0  0  0  0  0  0  0  0  0  0  0  0
  -23.4496   -3.9775   23.7027 C   0  0  0  0  0  0  0  0  0  0  0  0
  -21.8059   -5.7353   23.9160 C   0  0  0  0  0  0  0  0  0  0  0  0
  -24.5781  -11.7490   20.7512 C   0  0  0  0  0  0  0  0  0  0  0  0
  -25.2615  -13.7660   20.2039 C   0  0  0  0  0  0  0  0  0  0  0  0
  -30.2550  -17.7647   21.6329 C   0  0  0  0  0  0  0  0  0  0  0  0
  -22.7852  -13.5739   20.4856 C   0  0  0  0  0  0  0  0  0  0  0  0
  -25.2568  -24.9649   21.8411 C   0  0  0  0  0  0  0  0  0  0  0  0
  -27.0447  -25.6523   24.4589 C   0  0  0  0  0  0  0  0  0  0  0  0
  -30.2248  -24.6261   25.8195 C   0  0  0  0  0  0  0  0  0  0  0  0
  -30.9914  -13.0691   21.7492 C   0  0  0  0  0  0  0  0  0  0  0  0
  -26.7152  -29.4781   19.3171 C   0  0  0  0  0  0  0  0  0  0  0  0
  -25.1065  -22.8059   23.1343 C   0  0  0  0  0  0  0  0  0  0  0  0
  -27.8880  -23.7968   22.9719 C   0  0  0  0  0  0  0  0  0  0  0  0
  -26.7285  -28.0669   18.7387 C   0  0  0  0  0  0  0  0  0  0  0  0
  -32.6867  -19.3993   21.6790 C   0  0  0  0  0  0  0  0  0  0  0  0
  -29.6812  -13.2211   18.4420 C   0  0  0  0  0  0  0  0  0  0  0  0
  -26.7041  -27.0436   19.8643 C   0  0  0  0  0  0  0  0  0  0  0  0
  -31.4904  -19.8524   20.8686 C   0  0  0  0  0  0  0  0  0  0  0  0
  -28.1814  -12.9856   18.6351 C   0  0  0  0  0  0  0  0  0  0  0  0
  -32.7744  -17.8838   21.6564 C   0  0  0  0  0  0  0  0  0  0  0  0
  -30.5159  -12.3829   19.4086 C   0  0  0  0  0  0  0  0  0  0  0  0
  -28.6529  -12.2871   21.0177 C   0  0  0  0  0  0  0  0  0  0  0  0
  -25.4096  -27.1588   20.6791 C   0  0  1  0  0  0  0  0  0  0  0  0
  -30.2297  -19.2809   21.4870 C   0  0  1  0  0  0  0  0  0  1  0  0
  -25.4319  -24.2958   23.1750 C   0  0  1  0  0  0  0  0  0  0  0  0
  -27.7691  -13.1583   20.1102 C   0  0  2  0  0  0  0  0  0  0  0  0
  -30.1057  -12.6482   25.8076 C   0  0  0  0  0  0  0  0  0  0  0  0
  -31.0450  -24.5752   28.1906 C   0  0  0  0  0  0  0  0  0  0  0  0
  -28.1785  -28.4122   23.8205 C   0  0  0  0  0  0  0  0  0  0  0  0
  -30.1931  -27.8236   25.1855 C   0  0  0  0  0  0  0  0  0  0  0  0
  -27.9445  -27.9196   26.2612 C   0  0  0  0  0  0  0  0  0  0  0  0
  -30.9154  -21.7538   25.6413 C   0  0  0  0  0  0  0  0  0  0  0  0
  -31.5990  -15.7604   22.1313 C   0  0  0  0  0  0  0  0  0  0  0  0
  -28.4920  -26.0059   24.7023 C   0  0  1  0  0  0  0  0  0  0  0  0
  -30.4520  -23.7647   27.0486 C   0  0  2  0  0  0  0  0  0  0  0  0
  -28.6942  -27.5240   24.9704 C   0  0  0  0  0  0  0  0  0  0  0  0
  -25.9053  -11.6369   20.6516 N   0  0  0  0  0  0  0  0  0  0  0  0
  -26.2921  -12.8798   20.3174 N   0  0  0  0  0  0  0  0  0  0  0  0
  -31.5039  -17.1926   21.8822 N   0  0  0  0  0  0  0  0  0  0  0  0
  -26.8045  -24.5629   23.6097 N   0  0  0  0  0  0  0  0  0  0  0  0
  -30.0717  -12.6011   20.7870 N   0  0  0  0  0  0  0  0  0  0  0  0
  -25.4733  -15.0581   19.8750 N   0  0  0  0  0  0  0  0  0  0  0  0
  -22.2763  -14.1018   21.6800 N   0  0  0  0  0  0  0  0  0  0  0  0
  -30.4471  -13.2703   23.0172 N   0  0  0  0  0  0  0  0  0  0  0  0
  -25.5155  -26.3222   21.8542 N   0  0  0  0  0  0  0  0  0  0  0  0
  -28.9465  -25.1420   25.7865 N   0  0  0  0  0  0  0  0  0  0  0  0
  -31.3849  -22.6464   26.7321 N   0  3  0  0  0  0  0  0  0  0  0  0
  -29.2004  -17.1258   21.5931 O   0  0  0  0  0  0  0  0  0  0  0  0
  -22.0584  -13.5560   19.4634 O   0  0  0  0  0  0  0  0  0  0  0  0
  -24.9139  -24.2986   20.8714 O   0  0  0  0  0  0  0  0  0  0  0  0
  -26.1600  -26.3138   25.0079 O   0  0  0  0  0  0  0  0  0  0  0  0
  -31.0955  -24.8249   24.9751 O   0  0  0  0  0  0  0  0  0  0  0  0
  -32.1685  -13.3022   21.4623 O   0  0  0  0  0  0  0  0  0  0  0  0
  -21.4805   -7.2971   22.1122 O   0  0  0  0  0  0  0  0  0  0  0  0
  -29.1239  -19.6538   20.6814 O   0  0  0  0  0  0  0  0  0  1  0  0
  -24.0806   -2.9113   24.2118 F   0  0  0  0  0  0  0  0  0  0  0  0
  -20.8590   -6.3533   24.6353 F   0  0  0  0  0  0  0  0  0  0  0  0
  1  2  1  0  0  0  0
  1  6  2  0  0  0  0
  2  7  2  0  0  0  0
  3  9  1  0  0  0  0
  3 10  2  0  0  0  0
  4 11  2  0  0  0  0
  4 18  1  0  0  0  0
  5 12  1  0  0  0  0
  5 18  2  0  0  0  0
  6 20  1  0  0  0  0
  7 22  1  0  0  0  0
  8 13  2  0  0  0  0
  8 21  1  0  0  0  0
  9 24  2  0  0  0  0
 10 25  1  0  0  0  0
 11 27  1  0  0  0  0
 12 27  2  0  0  0  0
 13 28  1  0  0  0  0
 14 15  2  0  0  0  0
 14 29  1  0  0  0  0
 15 30  1  0  0  0  0
 16 23  1  0  0  0  0
 16 28  2  0  0  0  0
 17 30  2  0  0  0  0
 17 31  1  0  0  0  0
 18 32  1  0  0  0  0
 19 32  1  0  0  0  0
 19 33  2  0  0  0  0
 19 35  1  0  0  0  0
 20 22  2  0  0  0  0
 20 40  1  0  0  0  0
 21 23  2  0  0  0  0
 21 41  1  0  0  0  0
 22 52  1  0  0  0  0
 23 42  1  0  0  0  0
 24 26  1  0  0  0  0
 24 56  1  0  0  0  0
 25 26  2  0  0  0  0
 25 62  1  0  0  0  0
 26 73  1  0  0  0  0
 27 83  1  0  0  0  0
 28 84  1  0  0  0  0
 29 31  2  0  0  0  0
 29 83  1  0  0  0  0
 30 85  1  0  0  0  0
 31 86  1  0  0  0  0
 32 66  2  0  0  0  0
 33 67  1  0  0  0  0
 33 71  1  0  0  0  0
 34 53  1  0  0  0  0
 34 68  1  0  0  0  0
 34 77  2  0  0  0  0
 35 72  1  0  0  0  0
 35 78  2  0  0  0  0
 36 54  1  0  0  0  0
 36 74  1  0  0  0  0
 36 79  2  0  0  0  0
 37 63  1  0  0  0  0
 37 69  1  0  0  0  0
 37 80  2  0  0  0  0
 38 64  1  0  0  0  0
 38 75  1  0  0  0  0
 38 81  2  0  0  0  0
 39 70  1  0  0  0  0
 39 73  1  0  0  0  0
 39 82  2  0  0  0  0
 40 43  1  0  0  0  0
 41 54  1  0  0  0  0
 42 69  1  0  0  0  0
 43 46  1  0  0  0  0
 44 47  1  0  0  0  0
 44 49  1  0  0  0  0
 45 48  1  0  0  0  0
 45 50  1  0  0  0  0
 46 52  1  0  0  0  0
 47 53  1  0  0  0  0
 48 55  1  0  0  0  0
 49 68  1  0  0  0  0
 50 70  1  0  0  0  0
 51 55  1  0  0  0  0
 51 70  1  0  0  0  0
 52 74  1  0  0  0  0
 53 84  1  0  0  0  0
 54 69  1  0  0  0  0
 55 67  1  0  0  0  0
 57 64  1  0  0  0  0
 58 65  1  0  0  0  0
 59 65  1  0  0  0  0
 60 65  1  0  0  0  0
 61 76  1  0  0  0  0
 62 68  1  0  0  0  0
 63 65  1  0  0  0  0
 63 75  1  0  0  0  0
 64 76  1  0  0  0  0
 66 67  1  0  0  0  0
M  CHG  1  76   1
M  ISO  4  39 100  53 101  73 100  84 101
M  END
> <Batch ID>
0042

> <Smiles>
CNC(C)C(=O)NC(C(=O)N1Cc2cc([101O:1][101CH:1]3CCCN(Cc4cccc(C)c4[100NH:0][100C:0](=O)N4CCCC(n5nc(-c6ccc(Oc7ccc(F)cc7F)cc6)c(C(N)=O)c5N)C4)C3=O)ccc2CC1C(=O)NC1CCCc2ccccc21)C(C)(C)C

> <Shape>
0.247

> <Color>
0.177

> <Negative vol penalty>
0.000

$$$$

  -OEChem-04042322123D

 89 98  0     1  0  0  0  0  0999 V2000
  -21.6028  -11.8795   21.5880 C   0  0  0  0  0  0  0  0  0  0  0  0
  -21.8278  -13.1278   22.1595 C   0  0  0  0  0  0  0  0  0  0  0  0
  -28.8123  -29.1279   26.3105 C   0  0  0  0  0  0  0  0  0  0  0  0
  -26.4587  -28.9110   26.8113 C   0  0  0  0  0  0  0  0  0  0  0  0
  -22.6310  -11.2314   20.9049 C   0  0  0  0  0  0  0  0  0  0  0  0
  -23.0815  -13.7282   22.0492 C   0  0  0  0  0  0  0  0  0  0  0  0
  -22.7856  -18.6329   20.8239 C   0  0  0  0  0  0  0  0  0  0  0  0
  -29.0859  -29.2942   27.6680 C   0  0  0  0  0  0  0  0  0  0  0  0
  -26.7323  -29.0773   28.1689 C   0  0  0  0  0  0  0  0  0  0  0  0
  -22.4561  -19.5251   21.8433 C   0  0  0  0  0  0  0  0  0  0  0  0
  -29.3893  -27.3340   30.4064 C   0  0  0  0  0  0  0  0  0  0  0  0
  -30.4637  -26.6246   30.9428 C   0  0  0  0  0  0  0  0  0  0  0  0
  -24.7856  -20.1052   22.0804 C   0  0  0  0  0  0  0  0  0  0  0  0
  -18.6757  -28.5744   22.9254 C   0  0  0  0  0  0  0  0  0  0  0  0
  -31.5203  -28.7032   31.5756 C   0  0  0  0  0  0  0  0  0  0  0  0
  -27.4987  -28.9363   25.8820 C   0  0  0  0  0  0  0  0  0  0  0  0
  -27.7038  -27.7534   23.6312 C   0  0  0  0  0  0  0  0  0  0  0  0
  -23.8952  -11.8284   20.7779 C   0  0  0  0  0  0  0  0  0  0  0  0
  -24.1211  -18.4619   20.4319 C   0  0  0  0  0  0  0  0  0  0  0  0
  -24.1280  -13.0868   21.3649 C   0  0  0  0  0  0  0  0  0  0  0  0
  -25.1291  -19.2122   21.0540 C   0  0  0  0  0  0  0  0  0  0  0  0
  -19.7548  -28.4121   22.0567 C   0  0  0  0  0  0  0  0  0  0  0  0
  -20.4116  -27.1838   21.9824 C   0  0  0  0  0  0  0  0  0  0  0  0
  -19.9893  -26.1178   22.7768 C   0  0  0  0  0  0  0  0  0  0  0  0
  -18.9102  -26.2802   23.6456 C   0  0  0  0  0  0  0  0  0  0  0  0
  -28.0459  -29.2689   28.5973 C   0  0  0  0  0  0  0  0  0  0  0  0
  -23.4564  -20.2593   22.4737 C   0  0  0  0  0  0  0  0  0  0  0  0
  -29.3803  -28.7281   30.4544 C   0  0  0  0  0  0  0  0  0  0  0  0
  -31.5292  -27.3091   31.5274 C   0  0  0  0  0  0  0  0  0  0  0  0
  -30.4458  -29.4126   31.0391 C   0  0  0  0  0  0  0  0  0  0  0  0
  -18.2534  -27.5085   23.7199 C   0  0  0  0  0  0  0  0  0  0  0  0
  -27.2154  -28.7649   24.4797 C   0  0  0  0  0  0  0  0  0  0  0  0
  -27.1453  -28.0321   22.4078 C   0  0  0  0  0  0  0  0  0  0  0  0
  -21.8434  -23.1160   24.0203 C   0  0  0  0  0  0  0  0  0  0  0  0
  -21.1790  -22.4778   24.9979 C   0  0  0  0  0  0  0  0  0  0  0  0
  -28.5837  -26.6595   23.9228 C   0  0  0  0  0  0  0  0  0  0  0  0
  -26.1611  -16.0243   20.4212 C   0  0  0  0  0  0  0  0  0  0  0  0
  -28.0660  -18.1316   18.8550 C   0  0  0  0  0  0  0  0  0  0  0  0
  -28.9003  -21.6314   19.1249 C   0  0  0  0  0  0  0  0  0  0  0  0
  -22.1900  -30.9616   20.7600 C   0  0  0  0  0  0  0  0  0  0  0  0
  -24.9892  -11.0683   20.0709 C   0  0  0  0  0  0  0  0  0  0  0  0
  -24.4571  -17.5152   19.3124 C   0  0  0  0  0  0  0  0  0  0  0  0
  -26.5758  -19.0802   20.6564 C   0  0  0  0  0  0  0  0  0  0  0  0
  -26.1795  -11.9392   19.6771 C   0  0  0  0  0  0  0  0  0  0  0  0
  -25.5333  -31.6855   19.7724 C   0  0  0  0  0  0  0  0  0  0  0  0
  -23.8787  -24.7591   22.8467 C   0  0  0  0  0  0  0  0  0  0  0  0
  -26.5992  -12.8286   20.8431 C   0  0  0  0  0  0  0  0  0  0  0  0
  -24.1443  -23.2748   23.0719 C   0  0  0  0  0  0  0  0  0  0  0  0
  -26.3876  -30.9278   20.7903 C   0  0  0  0  0  0  0  0  0  0  0  0
  -24.2708  -32.2598   20.4114 C   0  0  0  0  0  0  0  0  0  0  0  0
  -24.2990  -30.5217   22.1583 C   0  0  0  0  0  0  0  0  0  0  0  0
  -22.8864  -25.3084   23.8664 C   0  0  0  0  0  0  0  0  0  0  0  0
  -25.4671  -13.7815   21.2454 C   0  0  1  0  0  0  0  0  0  0  0  0
  -22.8450  -22.4710   23.0888 C   0  0  1  0  0  0  0  0  0  1  0  0
  -25.9070  -17.0417   19.3451 C   0  0  1  0  0  0  0  0  0  0  0  0
  -25.5554  -29.8765   21.5488 C   0  0  2  0  0  0  0  0  0  0  0  0
  -21.5689  -27.0129   21.0497 C   0  0  0  0  0  0  0  0  0  0  0  0
  -18.4675  -25.1273   24.4928 C   0  0  0  0  0  0  0  0  0  0  0  0
  -29.6712  -23.2640   17.3820 C   0  0  0  0  0  0  0  0  0  0  0  0
  -30.8670  -17.3645   19.7910 C   0  0  0  0  0  0  0  0  0  0  0  0
  -31.5411  -19.7593   19.5101 C   0  0  0  0  0  0  0  0  0  0  0  0
  -30.7790  -18.4401   17.5349 C   0  0  0  0  0  0  0  0  0  0  0  0
  -26.6980  -23.5092   19.7433 C   0  0  0  0  0  0  0  0  0  0  0  0
  -20.1872  -29.5690   21.2168 C   0  0  0  0  0  0  0  0  0  0  0  0
  -20.6967  -24.7973   22.6953 C   0  0  0  0  0  0  0  0  0  0  0  0
  -29.0881  -19.1620   19.2704 C   0  0  1  0  0  0  0  0  0  0  0  0
  -28.4843  -22.7406   18.1757 C   0  0  2  0  0  0  0  0  0  0  0  0
  -30.5470  -18.6745   19.0435 C   0  0  0  0  0  0  0  0  0  0  0  0
  -26.4088  -29.6224   23.8487 N   0  0  0  0  0  0  0  0  0  0  0  0
  -26.3861  -29.1504   22.5906 N   0  0  0  0  0  0  0  0  0  0  0  0
  -26.8545  -18.1371   19.5608 N   0  0  0  0  0  0  0  0  0  0  0  0
  -23.5264  -31.2114   21.1132 N   0  0  0  0  0  0  0  0  0  0  0  0
  -27.2344  -27.4274   21.2041 N   0  0  0  0  0  0  0  0  0  0  0  0
  -28.0235  -25.4447   24.3409 N   0  0  0  0  0  0  0  0  0  0  0  0
  -25.3829  -14.8873   20.3155 N   0  0  0  0  0  0  0  0  0  0  0  0
  -28.7488  -20.3860   18.5528 N   0  0  0  0  0  0  0  0  0  0  0  0
  -21.5597  -29.9471   21.4700 N   0  0  0  0  0  0  0  0  0  0  0  0
  -21.5893  -24.5329   23.8765 N   0  3  1  0  0  0  0  0  0  0  0  0
  -27.8894  -23.8764   18.9354 N   0  3  0  0  0  0  0  0  0  0  0  0
  -29.8306  -26.7615   23.8316 O   0  0  0  0  0  0  0  0  0  0  0  0
  -27.0021  -16.2531   21.2826 O   0  0  0  0  0  0  0  0  0  0  0  0
  -28.3299  -17.3554   17.9334 O   0  0  0  0  0  0  0  0  0  0  0  0
  -29.3215  -21.8482   20.2590 O   0  0  0  0  0  0  0  0  0  0  0  0
  -21.6038  -31.5921   19.8736 O   0  0  0  0  0  0  0  0  0  0  0  0
  -28.3125  -29.4310   29.9221 O   0  0  0  0  0  0  0  0  0  0  0  0
  -23.1376  -21.1303   23.4695 O   0  0  0  0  0  0  0  0  0  1  0  0
  -32.5602  -26.6277   32.0439 F   0  0  0  0  0  0  0  0  0  0  0  0
  -30.4423  -30.7518   31.0892 F   0  0  0  0  0  0  0  0  0  0  0  0
  -16.9132  -27.7504   24.7815 Cl  0  0  0  0  0  0  0  0  0  0  0  0
  1  2  1  0  0  0  0
  1  5  2  0  0  0  0
  2  6  2  0  0  0  0
  3  8  2  0  0  0  0
  3 16  1  0  0  0  0
  4  9  1  0  0  0  0
  4 16  2  0  0  0  0
  5 18  1  0  0  0  0
  6 20  1  0  0  0  0
  7 10  2  0  0  0  0
  7 19  1  0  0  0  0
  8 26  1  0  0  0  0
  9 26  2  0  0  0  0
 10 27  1  0  0  0  0
 11 12  2  0  0  0  0
 11 28  1  0  0  0  0
 12 29  1  0  0  0  0
 13 21  1  0  0  0  0
 13 27  2  0  0  0  0
 14 22  2  0  0  0  0
 14 31  1  0  0  0  0
 15 29  2  0  0  0  0
 15 30  1  0  0  0  0
 16 32  1  0  0  0  0
 17 32  1  0  0  0  0
 17 33  2  0  0  0  0
 17 36  1  0  0  0  0
 18 20  2  0  0  0  0
 18 41  1  0  0  0  0
 19 21  2  0  0  0  0
 19 42  1  0  0  0  0
 20 53  1  0  0  0  0
 21 43  1  0  0  0  0
 22 23  1  0  0  0  0
 22 64  1  0  0  0  0
 23 24  2  0  0  0  0
 23 57  1  0  0  0  0
 24 25  1  0  0  0  0
 24 65  1  0  0  0  0
 25 31  2  0  0  0  0
 25 58  1  0  0  0  0
 26 85  1  0  0  0  0
 27 86  1  0  0  0  0
 28 30  2  0  0  0  0
 28 85  1  0  0  0  0
 29 87  1  0  0  0  0
 30 88  1  0  0  0  0
 31 89  1  0  0  0  0
 32 69  2  0  0  0  0
 33 70  1  0  0  0  0
 33 73  1  0  0  0  0
 34 35  2  0  0  0  0
 34 54  1  0  0  0  0
 34 78  1  0  0  0  0
 36 74  1  0  0  0  0
 36 80  2  0  0  0  0
 37 55  1  0  0  0  0
 37 75  1  0  0  0  0
 37 81  2  0  0  0  0
 38 66  1  0  0  0  0
 38 71  1  0  0  0  0
 38 82  2  0  0  0  0
 39 67  1  0  0  0  0
 39 76  1  0  0  0  0
 39 83  2  0  0  0  0
 40 72  1  0  0  0  0
 40 77  1  0  0  0  0
 40 84  2  0  0  0  0
 41 44  1  0  0  0  0
 42 55  1  0  0  0  0
 43 71  1  0  0  0  0
 44 47  1  0  0  0  0
 45 49  1  0  0  0  0
 45 50  1  0  0  0  0
 46 48  1  0  0  0  0
 46 52  1  0  0  0  0
 47 53  1  0  0  0  0
 48 54  1  0  0  0  0
 49 56  1  0  0  0  0
 50 72  1  0  0  0  0
 51 56  1  0  0  0  0
 51 72  1  0  0  0  0
 52 78  1  0  0  0  0
 53 75  1  0  0  0  0
 54 86  1  0  0  0  0
 55 71  1  0  0  0  0
 56 70  1  0  0  0  0
 59 67  1  0  0  0  0
 60 68  1  0  0  0  0
 61 68  1  0  0  0  0
 62 68  1  0  0  0  0
 63 79  1  0  0  0  0
 64 77  1  0  0  0  0
 65 78  1  0  0  0  0
 66 68  1  0  0  0  0
 66 76  1  0  0  0  0
 67 79  1  0  0  0  0
 69 70  1  0  0  0  0
M  CHG  2  78   1  79   1
M  ISO  4  40 100  54 101  77 100  86 101
M  END
> <Batch ID>
0042

> <Smiles>
C=C1N(Cc2c(C)c(Cl)cc(C[100NH:0][100C:0](=O)N3CCCC(n4nc(-c5ccc(Oc6ccc(F)cc6F)cc5)c(C(N)=O)c4N)C3)c2C)CCC[101CH:1]1[101O:1]c1ccc2c(c1)CN(C(=O)C(NC(=O)C(C)NC)C(C)(C)C)C(C(=O)NC1CCCc3ccccc31)C2

> <Shape>
0.213

> <Color>
0.068

> <Negative vol penalty>
0.000

$$$$

  -OEChem-04042322123D

 87 96  0     1  0  0  0  0  0999 V2000
  -33.4113  -16.5285   23.2030 C   0  0  0  0  0  0  0  0  0  0  0  0
  -32.8064  -17.7811   23.2233 C   0  0  0  0  0  0  0  0  0  0  0  0
  -28.7493  -26.4380   18.9841 C   0  0  0  0  0  0  0  0  0  0  0  0
  -26.6618  -25.3017   19.4179 C   0  0  0  0  0  0  0  0  0  0  0  0
  -33.0129  -15.5784   22.2636 C   0  0  0  0  0  0  0  0  0  0  0  0
  -31.8033  -18.0847   22.3034 C   0  0  0  0  0  0  0  0  0  0  0  0
  -24.4830  -20.5304   23.5108 C   0  0  0  0  0  0  0  0  0  0  0  0
  -18.3783  -25.0713   21.2401 C   0  0  0  0  0  0  0  0  0  0  0  0
  -29.3933  -25.2071   18.8585 C   0  0  0  0  0  0  0  0  0  0  0  0
  -27.3057  -24.0707   19.2922 C   0  0  0  0  0  0  0  0  0  0  0  0
  -23.1201  -20.8140   23.6017 C   0  0  0  0  0  0  0  0  0  0  0  0
  -30.6071  -22.8106   20.9098 C   0  0  0  0  0  0  0  0  0  0  0  0
  -31.8357  -22.6543   21.5513 C   0  0  0  0  0  0  0  0  0  0  0  0
  -18.2107  -26.2340   20.4880 C   0  0  0  0  0  0  0  0  0  0  0  0
  -22.7449  -19.7484   21.4635 C   0  0  0  0  0  0  0  0  0  0  0  0
  -32.8900  -22.2087   19.4235 C   0  0  0  0  0  0  0  0  0  0  0  0
  -27.3836  -26.4853   19.2639 C   0  0  0  0  0  0  0  0  0  0  0  0
  -26.6148  -28.7662   18.4189 C   0  0  0  0  0  0  0  0  0  0  0  0
  -31.9978  -15.8671   21.3379 C   0  0  0  0  0  0  0  0  0  0  0  0
  -24.9802  -19.8403   22.4018 C   0  0  0  0  0  0  0  0  0  0  0  0
  -31.3919  -17.1380   21.3498 C   0  0  0  0  0  0  0  0  0  0  0  0
  -24.1072  -19.4505   21.3729 C   0  0  0  0  0  0  0  0  0  0  0  0
  -19.2872  -27.5161   22.2300 C   0  0  0  0  0  0  0  0  0  0  0  0
  -19.0002  -25.1310   22.4873 C   0  0  0  0  0  0  0  0  0  0  0  0
  -28.6715  -24.0235   19.0124 C   0  0  0  0  0  0  0  0  0  0  0  0
  -22.2533  -20.4242   22.5804 C   0  0  0  0  0  0  0  0  0  0  0  0
  -30.5198  -22.6659   19.5251 C   0  0  0  0  0  0  0  0  0  0  0  0
  -32.9772  -22.3534   20.8082 C   0  0  0  0  0  0  0  0  0  0  0  0
  -31.6613  -22.3650   18.7820 C   0  0  0  0  0  0  0  0  0  0  0  0
  -18.6652  -27.4563   20.9828 C   0  0  0  0  0  0  0  0  0  0  0  0
  -19.4547  -26.3534   22.9822 C   0  0  0  0  0  0  0  0  0  0  0  0
  -26.7180  -27.7565   19.3944 C   0  0  0  0  0  0  0  0  0  0  0  0
  -25.8926  -29.7618   19.0302 C   0  0  0  0  0  0  0  0  0  0  0  0
  -18.5988  -23.7246   24.5032 C   0  0  0  0  0  0  0  0  0  0  0  0
  -17.5176  -24.3547   25.0025 C   0  0  0  0  0  0  0  0  0  0  0  0
  -27.1260  -28.8010   17.0798 C   0  0  0  0  0  0  0  0  0  0  0  0
  -27.9678  -18.3569   20.6843 C   0  0  0  0  0  0  0  0  0  0  0  0
  -25.6477  -16.3882   20.2951 C   0  0  0  0  0  0  0  0  0  0  0  0
  -22.9557  -14.2988   20.4524 C   0  0  0  0  0  0  0  0  0  0  0  0
  -21.9423  -29.7585   23.5298 C   0  0  0  0  0  0  0  0  0  0  0  0
  -31.6338  -14.8244   20.3108 C   0  0  0  0  0  0  0  0  0  0  0  0
  -26.4502  -19.5675   22.2328 C   0  0  0  0  0  0  0  0  0  0  0  0
  -24.6920  -18.7408   20.1824 C   0  0  0  0  0  0  0  0  0  0  0  0
  -19.2670  -22.6797   25.3758 C   0  0  0  0  0  0  0  0  0  0  0  0
  -30.3034  -15.0952   19.6130 C   0  0  0  0  0  0  0  0  0  0  0  0
  -19.6948  -21.4511   24.5867 C   0  0  0  0  0  0  0  0  0  0  0  0
  -24.9762  -31.6128   23.3458 C   0  0  0  0  0  0  0  0  0  0  0  0
  -30.2169  -16.5542   19.1763 C   0  0  0  0  0  0  0  0  0  0  0  0
  -25.7573  -30.9259   22.2243 C   0  0  0  0  0  0  0  0  0  0  0  0
  -24.1779  -30.6088   24.1745 C   0  0  0  0  0  0  0  0  0  0  0  0
  -24.0653  -29.0461   22.2722 C   0  0  0  0  0  0  0  0  0  0  0  0
  -19.7962  -22.8235   22.4859 C   0  0  0  0  0  0  0  0  0  0  0  0
  -30.2831  -17.4964   20.3843 C   0  0  1  0  0  0  0  0  0  0  0  0
  -26.7388  -18.2262   21.5351 C   0  0  1  0  0  0  0  0  0  0  0  0
  -24.8420  -30.0243   21.3742 C   0  0  2  0  0  0  0  0  0  0  0  0
  -20.5562  -21.8685   23.4044 C   0  0  2  0  0  0  0  0  0  1  0  0
  -22.1744  -12.0334   19.7076 C   0  0  0  0  0  0  0  0  0  0  0  0
  -25.2384  -17.4624   17.4698 C   0  0  0  0  0  0  0  0  0  0  0  0
  -23.6434  -15.5766   17.0601 C   0  0  0  0  0  0  0  0  0  0  0  0
  -26.0348  -15.0943   17.5807 C   0  0  0  0  0  0  0  0  0  0  0  0
  -22.5869  -13.3808   23.2418 C   0  0  0  0  0  0  0  0  0  0  0  0
  -19.7735  -28.8324   22.7567 C   0  0  0  0  0  0  0  0  0  0  0  0
  -24.5109  -15.9306   19.4166 C   0  0  1  0  0  0  0  0  0  0  0  0
  -22.8403  -12.8301   20.8187 C   0  0  2  0  0  0  0  0  0  0  0  0
  -24.8527  -16.0341   17.9034 C   0  0  0  0  0  0  0  0  0  0  0  0
  -26.1101  -28.0811   20.5387 N   0  0  0  0  0  0  0  0  0  0  0  0
  -25.6181  -29.3059   20.2860 N   0  0  0  0  0  0  0  0  0  0  0  0
  -19.1543  -23.9240   23.2277 N   0  0  0  0  0  0  0  0  0  0  0  0
  -25.6832  -17.7482   20.6262 N   0  0  0  0  0  0  0  0  0  0  0  0
  -23.3292  -29.7863   23.3090 N   0  0  0  0  0  0  0  0  0  0  0  0
  -25.4720  -30.9741   18.6107 N   0  0  0  0  0  0  0  0  0  0  0  0
  -26.3187  -28.3121   16.0436 N   0  0  0  0  0  0  0  0  0  0  0  0
  -29.0080  -17.5321   21.0680 N   0  0  0  0  0  0  0  0  0  0  0  0
  -24.1682  -14.5839   19.8610 N   0  0  0  0  0  0  0  0  0  0  0  0
  -21.2107  -28.9587   22.6605 N   0  0  0  0  0  0  0  0  0  0  0  0
  -22.0339  -12.6680   22.0615 N   0  3  0  0  0  0  0  0  0  0  0  0
  -28.2713  -29.2371   16.8122 O   0  0  0  0  0  0  0  0  0  0  0  0
  -27.9728  -19.1466   19.7473 O   0  0  0  0  0  0  0  0  0  0  0  0
  -26.4859  -15.5655   20.6742 O   0  0  0  0  0  0  0  0  0  0  0  0
  -22.0584  -15.1111   20.6660 O   0  0  0  0  0  0  0  0  0  0  0  0
  -21.3959  -30.4034   24.4312 O   0  0  0  0  0  0  0  0  0  0  0  0
  -29.2994  -22.8221   18.8896 O   0  0  0  0  0  0  0  0  0  0  0  0
  -20.9232  -20.7002   22.6777 O   0  0  0  0  0  0  0  0  0  1  0  0
  -34.1573  -22.2048   21.4242 F   0  0  0  0  0  0  0  0  0  0  0  0
  -31.5839  -22.2260   17.4514 F   0  0  0  0  0  0  0  0  0  0  0  0
  -18.4368  -28.8699   20.0176 Cl  0  0  0  0  0  0  0  0  0  0  0  0
  -20.2282  -26.4266   24.5331 Cl  0  0  0  0  0  0  0  0  0  0  0  0
  1  2  1  0  0  0  0
  1  5  2  0  0  0  0
  2  6  2  0  0  0  0
  3  9  2  0  0  0  0
  3 17  1  0  0  0  0
  4 10  1  0  0  0  0
  4 17  2  0  0  0  0
  5 19  1  0  0  0  0
  6 21  1  0  0  0  0
  7 11  2  0  0  0  0
  7 20  1  0  0  0  0
  8 14  2  0  0  0  0
  8 24  1  0  0  0  0
  9 25  1  0  0  0  0
 10 25  2  0  0  0  0
 11 26  1  0  0  0  0
 12 13  2  0  0  0  0
 12 27  1  0  0  0  0
 13 28  1  0  0  0  0
 14 30  1  0  0  0  0
 15 22  1  0  0  0  0
 15 26  2  0  0  0  0
 16 28  2  0  0  0  0
 16 29  1  0  0  0  0
 17 32  1  0  0  0  0
 18 32  1  0  0  0  0
 18 33  2  0  0  0  0
 18 36  1  0  0  0  0
 19 21  2  0  0  0  0
 19 41  1  0  0  0  0
 20 22  2  0  0  0  0
 20 42  1  0  0  0  0
 21 53  1  0  0  0  0
 22 43  1  0  0  0  0
 23 30  2  0  0  0  0
 23 31  1  0  0  0  0
 23 62  1  0  0  0  0
 24 31  2  0  0  0  0
 24 68  1  0  0  0  0
 25 82  1  0  0  0  0
 26 83  1  0  0  0  0
 27 29  2  0  0  0  0
 27 82  1  0  0  0  0
 28 84  1  0  0  0  0
 29 85  1  0  0  0  0
 30 86  1  0  0  0  0
 31 87  1  0  0  0  0
 32 66  2  0  0  0  0
 33 67  1  0  0  0  0
 33 71  1  0  0  0  0
 34 35  2  0  0  0  0
 34 44  1  0  0  0  0
 34 68  1  0  0  0  0
 36 72  1  0  0  0  0
 36 77  2  0  0  0  0
 37 54  1  0  0  0  0
 37 73  1  0  0  0  0
 37 78  2  0  0  0  0
 38 63  1  0  0  0  0
 38 69  1  0  0  0  0
 38 79  2  0  0  0  0
 39 64  1  0  0  0  0
 39 74  1  0  0  0  0
 39 80  2  0  0  0  0
 40 70  1  0  0  0  0
 40 75  1  0  0  0  0
 40 81  2  0  0  0  0
 41 45  1  0  0  0  0
 42 54  1  0  0  0  0
 43 69  1  0  0  0  0
 44 46  1  0  0  0  0
 45 48  1  0  0  0  0
 46 56  1  0  0  0  0
 47 49  1  0  0  0  0
 47 50  1  0  0  0  0
 48 53  1  0  0  0  0
 49 55  1  0  0  0  0
 50 70  1  0  0  0  0
 51 55  1  0  0  0  0
 51 70  1  0  0  0  0
 52 56  1  0  0  0  0
 52 68  1  0  0  0  0
 53 73  1  0  0  0  0
 54 69  1  0  0  0  0
 55 67  1  0  0  0  0
 56 83  1  0  0  0  0
 57 64  1  0  0  0  0
 58 65  1  0  0  0  0
 59 65  1  0  0  0  0
 60 65  1  0  0  0  0
 61 76  1  0  0  0  0
 62 75  1  0  0  0  0
 63 65  1  0  0  0  0
 63 74  1  0  0  0  0
 64 76  1  0  0  0  0
 66 67  1  0  0  0  0
M  CHG  1  76   1
M  ISO  4  40 100  56 101  75 100  83 101
M  END
> <Batch ID>
0042

> <Smiles>
C=C1CC[101CH:1]([101O:1]c2ccc3c(c2)CN(C(=O)C(NC(=O)C(C)NC)C(C)(C)C)C(C(=O)NC2CCCc4ccccc42)C3)CN1c1ccc(Cl)c(C[100NH:0][100C:0](=O)N2CCCC(n3nc(-c4ccc(Oc5ccc(F)cc5F)cc4)c(C(N)=O)c3N)C2)c1Cl

> <Shape>
0.221

> <Color>
0.085

> <Negative vol penalty>
0.000

$$$$

  -OEChem-04042322123D

 86 94  0     1  0  0  0  0  0999 V2000
  -27.1054  -23.5152   18.0655 C   0  0  0  0  0  0  0  0  0  0  0  0
  -25.9387  -24.0239   18.6272 C   0  0  0  0  0  0  0  0  0  0  0  0
  -27.1708  -14.8712   20.4166 C   0  0  0  0  0  0  0  0  0  0  0  0
  -25.0845  -14.8258   21.6341 C   0  0  0  0  0  0  0  0  0  0  0  0
  -22.8761  -25.4938   22.6246 C   0  0  0  0  0  0  0  0  0  0  0  0
  -28.3453  -23.8732   18.5931 C   0  0  0  0  0  0  0  0  0  0  0  0
  -26.0112  -24.8899   19.7177 C   0  0  0  0  0  0  0  0  0  0  0  0
  -22.9293  -28.8795   19.2384 C   0  0  0  0  0  0  0  0  0  0  0  0
  -23.9367  -25.1792   23.4741 C   0  0  0  0  0  0  0  0  0  0  0  0
  -27.0768  -13.4959   20.2041 C   0  0  0  0  0  0  0  0  0  0  0  0
  -24.9904  -13.4505   21.4215 C   0  0  0  0  0  0  0  0  0  0  0  0
  -21.5757  -28.6737   19.5012 C   0  0  0  0  0  0  0  0  0  0  0  0
  -24.0870  -11.3758   18.9115 C   0  0  0  0  0  0  0  0  0  0  0  0
  -22.8522  -10.8667   18.5095 C   0  0  0  0  0  0  0  0  0  0  0  0
  -21.8633  -29.6274   21.6982 C   0  0  0  0  0  0  0  0  0  0  0  0
  -22.7806   -9.4792   20.4861 C   0  0  0  0  0  0  0  0  0  0  0  0
  -26.1747  -15.5362   21.1317 C   0  0  0  0  0  0  0  0  0  0  0  0
  -21.6224  -24.9182   22.8315 C   0  0  0  0  0  0  0  0  0  0  0  0
  -25.7683  -17.9812   20.5281 C   0  0  0  0  0  0  0  0  0  0  0  0
  -28.4335  -24.7516   19.6845 C   0  0  0  0  0  0  0  0  0  0  0  0
  -23.7638  -29.4519   20.2092 C   0  0  0  0  0  0  0  0  0  0  0  0
  -27.2534  -25.2588   20.2612 C   0  0  0  0  0  0  0  0  0  0  0  0
  -23.2266  -29.8418   21.4443 C   0  0  0  0  0  0  0  0  0  0  0  0
  -23.7438  -24.2889   24.5304 C   0  0  0  0  0  0  0  0  0  0  0  0
  -21.4295  -24.0279   23.8878 C   0  0  0  0  0  0  0  0  0  0  0  0
  -22.4902  -23.7132   24.7373 C   0  0  0  0  0  0  0  0  0  0  0  0
  -25.9865  -12.7855   20.7065 C   0  0  0  0  0  0  0  0  0  0  0  0
  -21.0431  -29.0449   20.7323 C   0  0  0  0  0  0  0  0  0  0  0  0
  -24.6687  -10.9365   20.1008 C   0  0  0  0  0  0  0  0  0  0  0  0
  -22.1990   -9.9184   19.2967 C   0  0  0  0  0  0  0  0  0  0  0  0
  -24.0155   -9.9883   20.8881 C   0  0  0  0  0  0  0  0  0  0  0  0
  -26.2716  -16.9568   21.3521 C   0  0  0  0  0  0  0  0  0  0  0  0
  -26.1178  -19.1429   21.1722 C   0  0  0  0  0  0  0  0  0  0  0  0
  -20.5152  -25.2667   21.9188 C   0  0  0  0  0  0  0  0  0  0  0  0
  -25.0489  -17.8908   19.2912 C   0  0  0  0  0  0  0  0  0  0  0  0
  -26.3333  -28.4844   21.8110 C   0  0  0  0  0  0  0  0  0  0  0  0
  -26.3318  -31.5433   22.8905 C   0  0  0  0  0  0  0  0  0  0  0  0
  -24.5642  -34.3963   23.5096 C   0  0  0  0  0  0  0  0  0  0  0  0
  -26.5645  -22.1779   25.8342 C   0  0  0  0  0  0  0  0  0  0  0  0
  -29.7943  -25.0723   20.2502 C   0  0  0  0  0  0  0  0  0  0  0  0
  -25.2162  -29.6918   19.9004 C   0  0  0  0  0  0  0  0  0  0  0  0
  -24.0758  -30.4788   22.5128 C   0  0  0  0  0  0  0  0  0  0  0  0
  -29.7999  -26.2904   21.1701 C   0  0  0  0  0  0  0  0  0  0  0  0
  -29.2231  -19.9308   25.0866 C   0  0  0  0  0  0  0  0  0  0  0  0
  -28.6407  -26.2180   22.1590 C   0  0  0  0  0  0  0  0  0  0  0  0
  -28.6486  -19.0379   23.9854 C   0  0  0  0  0  0  0  0  0  0  0  0
  -28.1626  -20.3067   26.1191 C   0  0  0  0  0  0  0  0  0  0  0  0
  -26.3653  -20.0189   24.4576 C   0  0  0  0  0  0  0  0  0  0  0  0
  -27.2920  -26.2204   21.4292 C   0  0  1  0  0  0  0  0  0  0  0  0
  -26.0814  -29.8107   21.1513 C   0  0  1  0  0  0  0  0  0  0  0  0
  -27.3840  -19.6592   23.3625 C   0  0  2  0  0  0  0  0  0  0  0  0
  -20.0844  -23.4109   24.1082 C   0  0  0  0  0  0  0  0  0  0  0  0
  -22.2861  -22.7582   25.8706 C   0  0  0  0  0  0  0  0  0  0  0  0
  -24.8276  -36.7164   24.4289 C   0  0  0  0  0  0  0  0  0  0  0  0
  -17.9720  -28.2438   19.4461 C   0  0  0  0  0  0  0  0  0  0  0  0
  -26.3906  -30.4115   25.7234 C   0  0  0  0  0  0  0  0  0  0  0  0
  -25.7009  -32.6667   26.5640 C   0  0  0  0  0  0  0  0  0  0  0  0
  -27.8697  -32.3953   25.3618 C   0  0  0  0  0  0  0  0  0  0  0  0
  -23.7622  -35.6300   20.9417 C   0  0  0  0  0  0  0  0  0  0  0  0
  -24.8962  -23.9692   25.4254 C   0  0  0  0  0  0  0  0  0  0  0  0
  -18.6145  -26.7563   21.4037 C   0  0  0  0  0  0  0  0  0  0  0  0
  -25.7062  -32.2639   24.0603 C   0  0  1  0  0  0  0  0  0  0  0  0
  -24.8503  -35.8501   23.1792 C   0  0  2  0  0  0  0  0  0  0  0  0
  -19.0936  -27.7394   20.3436 C   0  0  2  0  0  0  0  0  0  1  0  0
  -26.4010  -31.9206   25.4082 C   0  0  0  0  0  0  0  0  0  0  0  0
  -26.8938  -17.4264   22.4368 N   0  0  0  0  0  0  0  0  0  0  0  0
  -26.7837  -18.7587   22.2987 N   0  0  0  0  0  0  0  0  0  0  0  0
  -25.4913  -30.6868   22.1655 N   0  0  0  0  0  0  0  0  0  0  0  0
  -26.9905  -20.8918   25.4635 N   0  0  0  0  0  0  0  0  0  0  0  0
  -25.9176  -20.4454   20.8790 N   0  0  0  0  0  0  0  0  0  0  0  0
  -20.3400  -24.5186   20.8295 N   0  0  0  0  0  0  0  0  0  0  0  0
  -24.7733  -16.6193   18.7700 N   0  0  0  0  0  0  0  0  0  0  0  0
  -26.9550  -27.5590   20.9945 N   0  0  0  0  0  0  0  0  0  0  0  0
  -25.7249  -33.6831   23.7229 N   0  0  0  0  0  0  0  0  0  0  0  0
  -25.4497  -22.6602   25.1593 N   0  0  0  0  0  0  0  0  0  0  0  0
  -19.7439  -26.3158   22.2272 N   0  3  0  0  0  0  0  0  0  0  0  0
  -23.8324  -36.3745   22.2254 N   0  3  0  0  0  0  0  0  0  0  0  0
  -24.6763  -18.9077   18.6583 O   0  0  0  0  0  0  0  0  0  0  0  0
  -25.9904  -28.3138   22.9751 O   0  0  0  0  0  0  0  0  0  0  0  0
  -27.5205  -31.7389   22.6253 O   0  0  0  0  0  0  0  0  0  0  0  0
  -23.4250  -33.9399   23.5757 O   0  0  0  0  0  0  0  0  0  0  0  0
  -27.1386  -22.8490   26.6985 O   0  0  0  0  0  0  0  0  0  0  0  0
  -25.8943  -11.4435   20.4990 O   0  0  0  0  0  0  0  0  0  0  0  0
  -19.7223  -28.8445   20.9916 O   0  0  0  0  0  0  0  0  0  1  0  0
  -21.0125   -9.4308   18.9113 F   0  0  0  0  0  0  0  0  0  0  0  0
  -24.5688   -9.5634   22.0323 F   0  0  0  0  0  0  0  0  0  0  0  0
  1  2  1  0  0  0  0
  1  6  2  0  0  0  0
  2  7  2  0  0  0  0
  3 10  2  0  0  0  0
  3 17  1  0  0  0  0
  4 11  1  0  0  0  0
  4 17  2  0  0  0  0
  5  9  2  0  0  0  0
  5 18  1  0  0  0  0
  6 20  1  0  0  0  0
  7 22  1  0  0  0  0
  8 12  2  0  0  0  0
  8 21  1  0  0  0  0
  9 24  1  0  0  0  0
 10 27  1  0  0  0  0
 11 27  2  0  0  0  0
 12 28  1  0  0  0  0
 13 14  2  0  0  0  0
 13 29  1  0  0  0  0
 14 30  1  0  0  0  0
 15 23  1  0  0  0  0
 15 28  2  0  0  0  0
 16 30  2  0  0  0  0
 16 31  1  0  0  0  0
 17 32  1  0  0  0  0
 18 25  2  0  0  0  0
 18 34  1  0  0  0  0
 19 32  1  0  0  0  0
 19 33  2  0  0  0  0
 19 35  1  0  0  0  0
 20 22  2  0  0  0  0
 20 40  1  0  0  0  0
 21 23  2  0  0  0  0
 21 41  1  0  0  0  0
 22 49  1  0  0  0  0
 23 42  1  0  0  0  0
 24 26  2  0  0  0  0
 24 60  1  0  0  0  0
 25 26  1  0  0  0  0
 25 52  1  0  0  0  0
 26 53  1  0  0  0  0
 27 83  1  0  0  0  0
 28 84  1  0  0  0  0
 29 31  2  0  0  0  0
 29 83  1  0  0  0  0
 30 85  1  0  0  0  0
 31 86  1  0  0  0  0
 32 66  2  0  0  0  0
 33 67  1  0  0  0  0
 33 70  1  0  0  0  0
 34 71  1  0  0  0  0
 34 76  2  0  0  0  0
 35 72  1  0  0  0  0
 35 78  2  0  0  0  0
 36 50  1  0  0  0  0
 36 73  1  0  0  0  0
 36 79  2  0  0  0  0
 37 62  1  0  0  0  0
 37 68  1  0  0  0  0
 37 80  2  0  0  0  0
 38 63  1  0  0  0  0
 38 74  1  0  0  0  0
 38 81  2  0  0  0  0
 39 69  1  0  0  0  0
 39 75  1  0  0  0  0
 39 82  2  0  0  0  0
 40 43  1  0  0  0  0
 41 50  1  0  0  0  0
 42 68  1  0  0  0  0
 43 45  1  0  0  0  0
 44 46  1  0  0  0  0
 44 47  1  0  0  0  0
 45 49  1  0  0  0  0
 46 51  1  0  0  0  0
 47 69  1  0  0  0  0
 48 51  1  0  0  0  0
 48 69  1  0  0  0  0
 49 73  1  0  0  0  0
 50 68  1  0  0  0  0
 51 67  1  0  0  0  0
 54 63  1  0  0  0  0
 55 64  1  0  0  0  0
 56 65  1  0  0  0  0
 57 65  1  0  0  0  0
 58 65  1  0  0  0  0
 59 77  1  0  0  0  0
 60 75  1  0  0  0  0
 61 64  1  0  0  0  0
 61 76  1  0  0  0  0
 62 65  1  0  0  0  0
 62 74  1  0  0  0  0
 63 77  1  0  0  0  0
 64 84  1  0  0  0  0
 66 67  1  0  0  0  0
M  CHG  2  76   1  77   1
M  ISO  4  39 100  64 101  75 100  84 101
M  END
> <Batch ID>
0042

> <Smiles>
CNC(C)C(=O)NC(C(=O)N1Cc2cc([101O:1][101CH:1](C)CNC(=N)c3ccc(C[100NH:0][100C:0](=O)N4CCCC(n5nc(-c6ccc(Oc7ccc(F)cc7F)cc6)c(C(N)=O)c5N)C4)c(C)c3C)ccc2CC1C(=O)NC1CCCc2ccccc21)C(C)(C)C

> <Shape>
0.254

> <Color>
0.064

> <Negative vol penalty>
0.000

$$$$

  -OEChem-04042322123D

 87 96  0     1  0  0  0  0  0999 V2000
  -25.0984  -33.9375   20.2409 C   0  0  0  0  0  0  0  0  0  0  0  0
  -25.6523  -33.0628   19.3131 C   0  0  0  0  0  0  0  0  0  0  0  0
  -23.3087  -10.2141   22.2374 C   0  0  0  0  0  0  0  0  0  0  0  0
  -23.6029   -9.5276   19.9397 C   0  0  0  0  0  0  0  0  0  0  0  0
  -25.4943  -33.8745   21.5753 C   0  0  0  0  0  0  0  0  0  0  0  0
  -26.5934  -32.1170   19.7213 C   0  0  0  0  0  0  0  0  0  0  0  0
  -31.4222  -25.4136   20.7936 C   0  0  0  0  0  0  0  0  0  0  0  0
  -22.5644   -9.0610   22.4866 C   0  0  0  0  0  0  0  0  0  0  0  0
  -22.8587   -8.3745   20.1889 C   0  0  0  0  0  0  0  0  0  0  0  0
  -31.9595  -24.7591   21.9012 C   0  0  0  0  0  0  0  0  0  0  0  0
  -19.4143   -7.9638   21.9414 C   0  0  0  0  0  0  0  0  0  0  0  0
  -18.2308   -8.1014   22.6666 C   0  0  0  0  0  0  0  0  0  0  0  0
  -29.8943  -25.1035   23.0992 C   0  0  0  0  0  0  0  0  0  0  0  0
  -30.4919  -18.3506   24.0467 C   0  0  0  0  0  0  0  0  0  0  0  0
  -32.0581  -16.6025   22.5388 C   0  0  0  0  0  0  0  0  0  0  0  0
  -19.0963   -6.6128   24.3613 C   0  0  0  0  0  0  0  0  0  0  0  0
  -23.8279  -10.4474   20.9639 C   0  0  0  0  0  0  0  0  0  0  0  0
  -24.1678  -12.9727   20.8416 C   0  0  0  0  0  0  0  0  0  0  0  0
  -26.4499  -32.9354   21.9969 C   0  0  0  0  0  0  0  0  0  0  0  0
  -30.1185  -25.9285   20.8345 C   0  0  0  0  0  0  0  0  0  0  0  0
  -26.9882  -32.0217   21.0680 C   0  0  0  0  0  0  0  0  0  0  0  0
  -29.3418  -25.7620   21.9900 C   0  0  0  0  0  0  0  0  0  0  0  0
  -31.8791  -18.3551   24.1921 C   0  0  0  0  0  0  0  0  0  0  0  0
  -29.8877  -17.4720   23.1473 C   0  0  0  0  0  0  0  0  0  0  0  0
  -32.6622  -17.4811   23.4382 C   0  0  0  0  0  0  0  0  0  0  0  0
  -30.6709  -16.5980   22.3934 C   0  0  0  0  0  0  0  0  0  0  0  0
  -22.3395   -8.1412   21.4624 C   0  0  0  0  0  0  0  0  0  0  0  0
  -31.1966  -24.6065   23.0552 C   0  0  0  0  0  0  0  0  0  0  0  0
  -20.4388   -7.1507   22.4260 C   0  0  0  0  0  0  0  0  0  0  0  0
  -18.0718   -7.4259   23.8766 C   0  0  0  0  0  0  0  0  0  0  0  0
  -20.2798   -6.4752   23.6360 C   0  0  0  0  0  0  0  0  0  0  0  0
  -24.5963  -11.6387   20.7057 C   0  0  0  0  0  0  0  0  0  0  0  0
  -25.2597  -13.7227   20.4786 C   0  0  0  0  0  0  0  0  0  0  0  0
  -31.9706  -21.6025   24.4415 C   0  0  0  0  0  0  0  0  0  0  0  0
  -22.8965  -13.4880   21.2587 C   0  0  0  0  0  0  0  0  0  0  0  0
  -28.8439  -28.8299   20.5870 C   0  0  0  0  0  0  0  0  0  0  0  0
  -26.0500  -27.1832   20.6587 C   0  0  0  0  0  0  0  0  0  0  0  0
  -24.6881  -24.3860   22.4857 C   0  0  0  0  0  0  0  0  0  0  0  0
  -30.7249  -14.7729   20.6577 C   0  0  0  0  0  0  0  0  0  0  0  0
  -26.8363  -32.9058   23.4547 C   0  0  0  0  0  0  0  0  0  0  0  0
  -29.5440  -26.6085   19.6220 C   0  0  0  0  0  0  0  0  0  0  0  0
  -27.9298  -26.2786   22.0777 C   0  0  0  0  0  0  0  0  0  0  0  0
  -28.1526  -32.1775   23.7061 C   0  0  0  0  0  0  0  0  0  0  0  0
  -29.9202  -21.7762   26.5278 C   0  0  0  0  0  0  0  0  0  0  0  0
  -29.6148  -12.3558   18.2908 C   0  0  0  0  0  0  0  0  0  0  0  0
  -28.1426  -30.8282   23.0034 C   0  0  0  0  0  0  0  0  0  0  0  0
  -30.5760  -23.0392   26.0099 C   0  0  0  0  0  0  0  0  0  0  0  0
  -28.1749  -12.0635   18.7193 C   0  0  0  0  0  0  0  0  0  0  0  0
  -30.9276  -20.6404   26.5268 C   0  0  0  0  0  0  0  0  0  0  0  0
  -30.5285  -12.5866   19.4932 C   0  0  0  0  0  0  0  0  0  0  0  0
  -28.6196  -13.3109   20.8718 C   0  0  0  0  0  0  0  0  0  0  0  0
  -28.0360  -31.0049   21.4834 C   0  0  1  0  0  0  0  0  0  0  0  0
  -31.0459  -22.8043   24.5878 C   0  0  1  0  0  0  0  0  0  1  0  0
  -28.3871  -27.5457   19.9545 C   0  0  1  0  0  0  0  0  0  0  0  0
  -27.6481  -13.1356   19.6931 C   0  0  2  0  0  0  0  0  0  0  0  0
  -28.3997  -17.4890   23.0119 C   0  0  0  0  0  0  0  0  0  0  0  0
  -34.1492  -17.4678   23.5772 C   0  0  0  0  0  0  0  0  0  0  0  0
  -22.9142  -22.7292   21.8487 C   0  0  0  0  0  0  0  0  0  0  0  0
  -24.1589  -29.0867   22.1113 C   0  0  0  0  0  0  0  0  0  0  0  0
  -22.9362  -27.0878   22.9932 C   0  0  0  0  0  0  0  0  0  0  0  0
  -23.0365  -27.5021   20.5354 C   0  0  0  0  0  0  0  0  0  0  0  0
  -26.4858  -22.0906   22.9941 C   0  0  0  0  0  0  0  0  0  0  0  0
  -32.5068  -19.3093   25.1666 C   0  0  0  0  0  0  0  0  0  0  0  0
  -25.1123  -26.7154   21.7454 C   0  0  1  0  0  0  0  0  0  0  0  0
  -24.4084  -22.9959   21.9436 C   0  0  2  0  0  0  0  0  0  0  0  0
  -23.8388  -27.6012   21.8511 C   0  0  0  0  0  0  0  0  0  0  0  0
  -25.8616  -11.5434   20.2888 N   0  0  0  0  0  0  0  0  0  0  0  0
  -26.2376  -12.8272   20.1595 N   0  0  0  0  0  0  0  0  0  0  0  0
  -31.7305  -20.5340   25.3074 N   0  0  0  0  0  0  0  0  0  0  0  0
  -27.4152  -26.9418   20.8682 N   0  0  0  0  0  0  0  0  0  0  0  0
  -29.9678  -13.6178   20.3689 N   0  0  0  0  0  0  0  0  0  0  0  0
  -25.4691  -15.0543   20.4044 N   0  0  0  0  0  0  0  0  0  0  0  0
  -21.8849  -12.5783   21.5959 N   0  0  0  0  0  0  0  0  0  0  0  0
  -30.0759  -15.6983   21.4745 N   0  0  0  0  0  0  0  0  0  0  0  0
  -27.8193  -29.7123   20.8719 N   0  0  0  0  0  0  0  0  0  0  0  0
  -24.8405  -25.3084   21.4722 N   0  0  0  0  0  0  0  0  0  0  0  0
  -25.0149  -21.9626   22.8298 N   0  3  0  0  0  0  0  0  0  0  0  0
  -32.8250  -21.5893   23.5516 O   0  0  0  0  0  0  0  0  0  0  0  0
  -22.6592  -14.7184   21.3145 O   0  0  0  0  0  0  0  0  0  0  0  0
  -30.0373  -29.0064   20.8021 O   0  0  0  0  0  0  0  0  0  0  0  0
  -25.5876  -27.7358   19.6575 O   0  0  0  0  0  0  0  0  0  0  0  0
  -24.7602  -24.6300   23.6882 O   0  0  0  0  0  0  0  0  0  0  0  0
  -31.8543  -14.9421   20.1911 O   0  0  0  0  0  0  0  0  0  0  0  0
  -21.6135   -7.0158   21.7053 O   0  0  0  0  0  0  0  0  0  0  0  0
  -31.7189  -23.9686   24.1378 O   0  0  0  0  0  0  0  0  0  1  0  0
  -16.9358   -7.5593   24.5737 F   0  0  0  0  0  0  0  0  0  0  0  0
  -21.2610   -5.6936   24.1074 F   0  0  0  0  0  0  0  0  0  0  0  0
  1  2  1  0  0  0  0
  1  5  2  0  0  0  0
  2  6  2  0  0  0  0
  3  8  2  0  0  0  0
  3 17  1  0  0  0  0
  4  9  1  0  0  0  0
  4 17  2  0  0  0  0
  5 19  1  0  0  0  0
  6 21  1  0  0  0  0
  7 10  2  0  0  0  0
  7 20  1  0  0  0  0
  8 27  1  0  0  0  0
  9 27  2  0  0  0  0
 10 28  1  0  0  0  0
 11 12  2  0  0  0  0
 11 29  1  0  0  0  0
 12 30  1  0  0  0  0
 13 22  1  0  0  0  0
 13 28  2  0  0  0  0
 14 23  1  0  0  0  0
 14 24  2  0  0  0  0
 15 25  1  0  0  0  0
 15 26  2  0  0  0  0
 16 30  2  0  0  0  0
 16 31  1  0  0  0  0
 17 32  1  0  0  0  0
 18 32  1  0  0  0  0
 18 33  2  0  0  0  0
 18 35  1  0  0  0  0
 19 21  2  0  0  0  0
 19 40  1  0  0  0  0
 20 22  2  0  0  0  0
 20 41  1  0  0  0  0
 21 52  1  0  0  0  0
 22 42  1  0  0  0  0
 23 25  2  0  0  0  0
 23 63  1  0  0  0  0
 24 26  1  0  0  0  0
 24 56  1  0  0  0  0
 25 57  1  0  0  0  0
 26 74  1  0  0  0  0
 27 84  1  0  0  0  0
 28 85  1  0  0  0  0
 29 31  2  0  0  0  0
 29 84  1  0  0  0  0
 30 86  1  0  0  0  0
 31 87  1  0  0  0  0
 32 67  2  0  0  0  0
 33 68  1  0  0  0  0
 33 72  1  0  0  0  0
 34 53  1  0  0  0  0
 34 69  1  0  0  0  0
 34 78  2  0  0  0  0
 35 73  1  0  0  0  0
 35 79  2  0  0  0  0
 36 54  1  0  0  0  0
 36 75  1  0  0  0  0
 36 80  2  0  0  0  0
 37 64  1  0  0  0  0
 37 70  1  0  0  0  0
 37 81  2  0  0  0  0
 38 65  1  0  0  0  0
 38 76  1  0  0  0  0
 38 82  2  0  0  0  0
 39 71  1  0  0  0  0
 39 74  1  0  0  0  0
 39 83  2  0  0  0  0
 40 43  1  0  0  0  0
 41 54  1  0  0  0  0
 42 70  1  0  0  0  0
 43 46  1  0  0  0  0
 44 47  1  0  0  0  0
 44 49  1  0  0  0  0
 45 48  1  0  0  0  0
 45 50  1  0  0  0  0
 46 52  1  0  0  0  0
 47 53  1  0  0  0  0
 48 55  1  0  0  0  0
 49 69  1  0  0  0  0
 50 71  1  0  0  0  0
 51 55  1  0  0  0  0
 51 71  1  0  0  0  0
 52 75  1  0  0  0  0
 53 85  1  0  0  0  0
 54 70  1  0  0  0  0
 55 68  1  0  0  0  0
 58 65  1  0  0  0  0
 59 66  1  0  0  0  0
 60 66  1  0  0  0  0
 61 66  1  0  0  0  0
 62 77  1  0  0  0  0
 63 69  1  0  0  0  0
 64 66  1  0  0  0  0
 64 76  1  0  0  0  0
 65 77  1  0  0  0  0
 67 68  1  0  0  0  0
M  CHG  1  77   1
M  ISO  4  39 100  53 101  74 100  85 101
M  END
> <Batch ID>
0042

> <Smiles>
CNC(C)C(=O)NC(C(=O)N1Cc2cc([101O:1][101CH:1]3CCCN(Cc4cc(C)c([100NH:0][100C:0](=O)N5CCCC(n6nc(-c7ccc(Oc8ccc(F)cc8F)cc7)c(C(N)=O)c6N)C5)cc4C)C3=O)ccc2CC1C(=O)NC1CCCc2ccccc21)C(C)(C)C

> <Shape>
0.249

> <Color>
0.191

> <Negative vol penalty>
0.000

$$$$

  -OEChem-04042322123D

 82 90  0     1  0  0  0  0  0999 V2000
  -31.4233  -22.5411   15.1143 C   0  0  0  0  0  0  0  0  0  0  0  0
  -30.9925  -22.3763   16.4269 C   0  0  0  0  0  0  0  0  0  0  0  0
  -32.3439  -17.7971   23.6612 C   0  0  0  0  0  0  0  0  0  0  0  0
  -23.1170   -9.8756   19.8942 C   0  0  0  0  0  0  0  0  0  0  0  0
  -23.8960   -9.8193   22.1805 C   0  0  0  0  0  0  0  0  0  0  0  0
  -31.5871  -23.8231   14.5914 C   0  0  0  0  0  0  0  0  0  0  0  0
  -30.7263  -23.4936   17.2176 C   0  0  0  0  0  0  0  0  0  0  0  0
  -26.4079  -23.0446   19.8242 C   0  0  0  0  0  0  0  0  0  0  0  0
  -31.5276  -18.5964   24.4614 C   0  0  0  0  0  0  0  0  0  0  0  0
  -31.7733  -16.9315   22.7280 C   0  0  0  0  0  0  0  0  0  0  0  0
  -22.4353   -8.6757   20.0969 C   0  0  0  0  0  0  0  0  0  0  0  0
  -23.2142   -8.6194   22.3832 C   0  0  0  0  0  0  0  0  0  0  0  0
  -26.4350  -22.2497   20.9692 C   0  0  0  0  0  0  0  0  0  0  0  0
  -23.6695   -5.3449   21.6749 C   0  0  0  0  0  0  0  0  0  0  0  0
  -24.3430   -4.3216   22.3418 C   0  0  0  0  0  0  0  0  0  0  0  0
  -26.6201  -24.2309   22.3329 C   0  0  0  0  0  0  0  0  0  0  0  0
  -22.6502   -4.3311   24.0656 C   0  0  0  0  0  0  0  0  0  0  0  0
  -23.8474  -10.4474   20.9360 C   0  0  0  0  0  0  0  0  0  0  0  0
  -24.0587  -12.9896   20.9276 C   0  0  0  0  0  0  0  0  0  0  0  0
  -31.3136  -24.9566   15.3730 C   0  0  0  0  0  0  0  0  0  0  0  0
  -26.4978  -24.4404   19.9244 C   0  0  0  0  0  0  0  0  0  0  0  0
  -30.8879  -24.7920   16.7050 C   0  0  0  0  0  0  0  0  0  0  0  0
  -26.5913  -25.0415   21.1878 C   0  0  0  0  0  0  0  0  0  0  0  0
  -30.1407  -18.5301   24.3285 C   0  0  0  0  0  0  0  0  0  0  0  0
  -29.5700  -17.6645   23.3952 C   0  0  0  0  0  0  0  0  0  0  0  0
  -30.3864  -16.8652   22.5950 C   0  0  0  0  0  0  0  0  0  0  0  0
  -22.4839   -8.0476   21.3413 C   0  0  0  0  0  0  0  0  0  0  0  0
  -26.5441  -22.8427   22.2237 C   0  0  0  0  0  0  0  0  0  0  0  0
  -22.4864   -5.8614   22.2033 C   0  0  0  0  0  0  0  0  0  0  0  0
  -23.8333   -3.8147   23.5372 C   0  0  0  0  0  0  0  0  0  0  0  0
  -21.9767   -5.3545   23.3987 C   0  0  0  0  0  0  0  0  0  0  0  0
  -24.5523  -11.6865   20.7271 C   0  0  0  0  0  0  0  0  0  0  0  0
  -25.1078  -13.8097   20.5912 C   0  0  0  0  0  0  0  0  0  0  0  0
  -22.7673  -13.4202   21.3777 C   0  0  0  0  0  0  0  0  0  0  0  0
  -28.5583  -26.6346   18.9028 C   0  0  0  0  0  0  0  0  0  0  0  0
  -26.3507  -28.6960   20.0857 C   0  0  0  0  0  0  0  0  0  0  0  0
  -23.7711  -29.2504   22.2503 C   0  0  0  0  0  0  0  0  0  0  0  0
  -30.5148  -15.1263   20.7767 C   0  0  0  0  0  0  0  0  0  0  0  0
  -31.5507  -26.3225   14.7791 C   0  0  0  0  0  0  0  0  0  0  0  0
  -26.4402  -25.2853   18.6813 C   0  0  0  0  0  0  0  0  0  0  0  0
  -26.6704  -26.5367   21.3508 C   0  0  0  0  0  0  0  0  0  0  0  0
  -30.8879  -27.4515   15.5640 C   0  0  0  0  0  0  0  0  0  0  0  0
  -29.5041  -12.7665   18.3096 C   0  0  0  0  0  0  0  0  0  0  0  0
  -31.1552  -27.2920   17.0573 C   0  0  0  0  0  0  0  0  0  0  0  0
  -28.0852  -12.3824   18.7351 C   0  0  0  0  0  0  0  0  0  0  0  0
  -30.4170  -12.9882   19.5142 C   0  0  0  0  0  0  0  0  0  0  0  0
  -28.4879  -13.5512   20.9393 C   0  0  0  0  0  0  0  0  0  0  0  0
  -30.5653  -25.9792   17.5863 C   0  0  1  0  0  0  0  0  0  0  0  0
  -27.0565  -26.6681   18.8696 C   0  0  1  0  0  0  0  0  0  0  0  0
  -27.5148  -13.3809   19.7613 C   0  0  2  0  0  0  0  0  0  0  0  0
  -28.0814  -17.5969   23.2561 C   0  0  0  0  0  0  0  0  0  0  0  0
  -22.1934  -31.0453   23.0162 C   0  0  0  0  0  0  0  0  0  0  0  0
  -28.5973  -29.9764   21.7054 C   0  0  0  0  0  0  0  0  0  0  0  0
  -26.8527  -31.0844   23.1186 C   0  0  0  0  0  0  0  0  0  0  0  0
  -26.9934  -31.5995   20.6819 C   0  0  0  0  0  0  0  0  0  0  0  0
  -21.4041  -27.7064   21.3716 C   0  0  0  0  0  0  0  0  0  0  0  0
  -29.2859  -19.4007   25.2017 C   0  0  0  0  0  0  0  0  0  0  0  0
  -27.8051  -21.4097   25.2989 C   0  0  0  0  0  0  0  0  0  0  0  0
  -27.3045  -22.5692   24.4604 C   0  0  0  0  0  0  0  0  0  1  0  0
  -26.1082  -29.3506   21.4243 C   0  0  1  0  0  0  0  0  0  0  0  0
  -22.4088  -29.8898   22.0512 C   0  0  2  0  0  0  0  0  0  0  0  0
  -27.1384  -30.4744   21.7297 C   0  0  0  0  0  0  0  0  0  0  0  0
  -25.8166  -11.6747   20.2966 N   0  0  0  0  0  0  0  0  0  0  0  0
  -26.1263  -12.9804   20.2237 N   0  0  0  0  0  0  0  0  0  0  0  0
  -26.6165  -27.3195   20.1051 N   0  0  0  0  0  0  0  0  0  0  0  0
  -29.8140  -13.9487   20.4408 N   0  0  0  0  0  0  0  0  0  0  0  0
  -25.2493  -15.1522   20.5769 N   0  0  0  0  0  0  0  0  0  0  0  0
  -21.8062  -12.4460   21.6803 N   0  0  0  0  0  0  0  0  0  0  0  0
  -29.8283  -15.9794   21.6402 N   0  0  0  0  0  0  0  0  0  0  0  0
  -29.1345  -26.1036   17.7646 N   0  0  0  0  0  0  0  0  0  0  0  0
  -24.7201  -29.7992   21.4139 N   0  0  0  0  0  0  0  0  0  0  0  0
  -21.3287  -28.8867   22.2705 N   0  3  0  0  0  0  0  0  0  0  0  0
  -28.7044  -20.5622   24.4760 N   0  3  0  0  0  0  0  0  0  0  0  0
  -22.4690  -14.6332   21.4920 O   0  0  0  0  0  0  0  0  0  0  0  0
  -29.1505  -27.0604   19.8875 O   0  0  0  0  0  0  0  0  0  0  0  0
  -26.2988  -29.3795   19.0601 O   0  0  0  0  0  0  0  0  0  0  0  0
  -23.9741  -28.3564   23.0688 O   0  0  0  0  0  0  0  0  0  0  0  0
  -31.6296  -15.3736   20.3097 O   0  0  0  0  0  0  0  0  0  0  0  0
  -21.8186   -6.8768   21.5395 O   0  0  0  0  0  0  0  0  0  0  0  0
  -26.5714  -22.0691   23.3429 O   0  0  0  0  0  0  0  0  0  1  0  0
  -24.4793   -2.8309   24.1768 F   0  0  0  0  0  0  0  0  0  0  0  0
  -20.8399   -5.8458   23.9106 F   0  0  0  0  0  0  0  0  0  0  0  0
  1  2  1  0  0  0  0
  1  6  2  0  0  0  0
  2  7  2  0  0  0  0
  3  9  2  0  0  0  0
  3 10  1  0  0  0  0
  4 11  2  0  0  0  0
  4 18  1  0  0  0  0
  5 12  1  0  0  0  0
  5 18  2  0  0  0  0
  6 20  1  0  0  0  0
  7 22  1  0  0  0  0
  8 13  2  0  0  0  0
  8 21  1  0  0  0  0
  9 24  1  0  0  0  0
 10 26  2  0  0  0  0
 11 27  1  0  0  0  0
 12 27  2  0  0  0  0
 13 28  1  0  0  0  0
 14 15  2  0  0  0  0
 14 29  1  0  0  0  0
 15 30  1  0  0  0  0
 16 23  1  0  0  0  0
 16 28  2  0  0  0  0
 17 30  2  0  0  0  0
 17 31  1  0  0  0  0
 18 32  1  0  0  0  0
 19 32  1  0  0  0  0
 19 33  2  0  0  0  0
 19 34  1  0  0  0  0
 20 22  2  0  0  0  0
 20 39  1  0  0  0  0
 21 23  2  0  0  0  0
 21 40  1  0  0  0  0
 22 48  1  0  0  0  0
 23 41  1  0  0  0  0
 24 25  2  0  0  0  0
 24 57  1  0  0  0  0
 25 26  1  0  0  0  0
 25 51  1  0  0  0  0
 26 69  1  0  0  0  0
 27 79  1  0  0  0  0
 28 80  1  0  0  0  0
 29 31  2  0  0  0  0
 29 79  1  0  0  0  0
 30 81  1  0  0  0  0
 31 82  1  0  0  0  0
 32 63  2  0  0  0  0
 33 64  1  0  0  0  0
 33 67  1  0  0  0  0
 34 68  1  0  0  0  0
 34 74  2  0  0  0  0
 35 49  1  0  0  0  0
 35 70  1  0  0  0  0
 35 75  2  0  0  0  0
 36 60  1  0  0  0  0
 36 65  1  0  0  0  0
 36 76  2  0  0  0  0
 37 61  1  0  0  0  0
 37 71  1  0  0  0  0
 37 77  2  0  0  0  0
 38 66  1  0  0  0  0
 38 69  1  0  0  0  0
 38 78  2  0  0  0  0
 39 42  1  0  0  0  0
 40 49  1  0  0  0  0
 41 65  1  0  0  0  0
 42 44  1  0  0  0  0
 43 45  1  0  0  0  0
 43 46  1  0  0  0  0
 44 48  1  0  0  0  0
 45 50  1  0  0  0  0
 46 66  1  0  0  0  0
 47 50  1  0  0  0  0
 47 66  1  0  0  0  0
 48 70  1  0  0  0  0
 49 65  1  0  0  0  0
 50 64  1  0  0  0  0
 52 61  1  0  0  0  0
 53 62  1  0  0  0  0
 54 62  1  0  0  0  0
 55 62  1  0  0  0  0
 56 72  1  0  0  0  0
 57 73  1  0  0  0  0
 58 59  1  0  0  0  0
 58 73  1  0  0  0  0
 59 80  1  0  0  0  0
 60 62  1  0  0  0  0
 60 71  1  0  0  0  0
 61 72  1  0  0  0  0
 63 64  1  0  0  0  0
M  CHG  2  72   1  73   1
M  ISO  4  38 100  59 101  69 100  80 101
M  END
> <Batch ID>
0042

> <Smiles>
CNC(C)C(=O)NC(C(=O)N1Cc2cc([101O:1][101CH2:1]CNCc3cccc([100NH:0][100C:0](=O)N4CCCC(n5nc(-c6ccc(Oc7ccc(F)cc7F)cc6)c(C(N)=O)c5N)C4)c3C)ccc2CC1C(=O)NC1CCCc2ccccc21)C(C)(C)C

> <Shape>
0.302

> <Color>
0.225

> <Negative vol penalty>
0.000

$$$$

  -OEChem-04042322123D

 83 91  0     1  0  0  0  0  0999 V2000
  -27.3608  -22.8606   18.8671 C   0  0  0  0  0  0  0  0  0  0  0  0
  -26.1717  -23.4088   19.3371 C   0  0  0  0  0  0  0  0  0  0  0  0
  -26.1716  -14.7073   20.8795 C   0  0  0  0  0  0  0  0  0  0  0  0
  -24.0250  -14.3780   19.8208 C   0  0  0  0  0  0  0  0  0  0  0  0
  -28.5784  -23.2727   19.4070 C   0  0  0  0  0  0  0  0  0  0  0  0
  -26.1994  -24.3688   20.3481 C   0  0  0  0  0  0  0  0  0  0  0  0
  -23.1231  -28.2781   19.3999 C   0  0  0  0  0  0  0  0  0  0  0  0
  -17.6619  -23.6569   19.9741 C   0  0  0  0  0  0  0  0  0  0  0  0
  -26.3690  -13.3269   20.9088 C   0  0  0  0  0  0  0  0  0  0  0  0
  -24.2224  -12.9975   19.8500 C   0  0  0  0  0  0  0  0  0  0  0  0
  -21.7613  -28.0867   19.6289 C   0  0  0  0  0  0  0  0  0  0  0  0
  -24.0009   -9.3717   19.9719 C   0  0  0  0  0  0  0  0  0  0  0  0
  -22.9349   -8.5730   20.3857 C   0  0  0  0  0  0  0  0  0  0  0  0
  -17.9365  -22.4107   19.4110 C   0  0  0  0  0  0  0  0  0  0  0  0
  -21.9615  -29.2339   21.7415 C   0  0  0  0  0  0  0  0  0  0  0  0
  -17.7845  -22.6860   22.1830 C   0  0  0  0  0  0  0  0  0  0  0  0
  -22.9248   -9.6950   22.5254 C   0  0  0  0  0  0  0  0  0  0  0  0
  -24.9996  -15.2329   20.3356 C   0  0  0  0  0  0  0  0  0  0  0  0
  -25.1641  -17.5493   19.2795 C   0  0  0  0  0  0  0  0  0  0  0  0
  -28.6217  -24.2453   20.4184 C   0  0  0  0  0  0  0  0  0  0  0  0
  -23.9179  -28.9403   20.3466 C   0  0  0  0  0  0  0  0  0  0  0  0
  -27.4187  -24.7934   20.9029 C   0  0  0  0  0  0  0  0  0  0  0  0
  -23.3327  -29.4346   21.5210 C   0  0  0  0  0  0  0  0  0  0  0  0
  -17.5860  -23.7946   21.3601 C   0  0  0  0  0  0  0  0  0  0  0  0
  -18.0590  -21.4397   21.6200 C   0  0  0  0  0  0  0  0  0  0  0  0
  -25.3944  -12.4719   20.3941 C   0  0  0  0  0  0  0  0  0  0  0  0
  -21.1808  -28.5621   20.8012 C   0  0  0  0  0  0  0  0  0  0  0  0
  -24.5290  -10.3321   20.8348 C   0  0  0  0  0  0  0  0  0  0  0  0
  -22.3968   -8.7347   21.6624 C   0  0  0  0  0  0  0  0  0  0  0  0
  -23.9909  -10.4937   22.1115 C   0  0  0  0  0  0  0  0  0  0  0  0
  -18.1350  -21.3021   20.2339 C   0  0  0  0  0  0  0  0  0  0  0  0
  -24.7948  -16.6589   20.3055 C   0  0  0  0  0  0  0  0  0  0  0  0
  -24.7527  -18.7803   19.7287 C   0  0  0  0  0  0  0  0  0  0  0  0
  -25.8201  -17.2870   18.0319 C   0  0  0  0  0  0  0  0  0  0  0  0
  -26.4282  -28.1373   22.1236 C   0  0  0  0  0  0  0  0  0  0  0  0
  -26.3741  -31.2799   22.9256 C   0  0  0  0  0  0  0  0  0  0  0  0
  -24.5737  -34.1640   23.2212 C   0  0  0  0  0  0  0  0  0  0  0  0
  -20.5057  -20.5046   23.5811 C   0  0  0  0  0  0  0  0  0  0  0  0
  -29.9588  -24.6246   21.0040 C   0  0  0  0  0  0  0  0  0  0  0  0
  -25.3801  -29.1622   20.0724 C   0  0  0  0  0  0  0  0  0  0  0  0
  -24.1381  -30.1700   22.5597 C   0  0  0  0  0  0  0  0  0  0  0  0
  -29.9248  -25.9197   21.8114 C   0  0  0  0  0  0  0  0  0  0  0  0
  -23.9868  -21.2283   23.7675 C   0  0  0  0  0  0  0  0  0  0  0  0
  -28.7291  -25.9271   22.7585 C   0  0  0  0  0  0  0  0  0  0  0  0
  -24.6219  -20.2197   22.8088 C   0  0  0  0  0  0  0  0  0  0  0  0
  -22.7976  -20.6267   24.5131 C   0  0  0  0  0  0  0  0  0  0  0  0
  -22.4000  -19.0165   22.6903 C   0  0  0  0  0  0  0  0  0  0  0  0
  -27.4092  -25.8552   21.9812 C   0  0  1  0  0  0  0  0  0  0  0  0
  -26.1966  -29.3979   21.3394 C   0  0  1  0  0  0  0  0  0  0  0  0
  -23.5688  -19.5945   21.8742 C   0  0  2  0  0  0  0  0  0  0  0  0
  -24.7933  -36.5584   23.9395 C   0  0  0  0  0  0  0  0  0  0  0  0
  -26.3293  -30.4047   25.8482 C   0  0  0  0  0  0  0  0  0  0  0  0
  -25.5997  -32.7207   26.4581 C   0  0  0  0  0  0  0  0  0  0  0  0
  -27.8137  -32.3591   25.3672 C   0  0  0  0  0  0  0  0  0  0  0  0
  -23.8654  -35.1589   20.5254 C   0  0  0  0  0  0  0  0  0  0  0  0
  -18.2662  -20.2770   22.5360 C   0  0  0  0  0  0  0  0  0  0  0  0
  -17.2905  -25.1353   21.9653 C   0  0  0  0  0  0  0  0  0  0  0  0
  -18.1729  -27.4193   22.4586 C   0  0  0  0  0  0  0  0  0  0  0  0
  -19.4351  -28.2558   22.3870 C   0  0  0  0  0  0  0  0  0  1  0  0
  -25.7018  -32.0971   24.0022 C   0  0  1  0  0  0  0  0  0  0  0  0
  -24.8667  -35.5847   22.7737 C   0  0  2  0  0  0  0  0  0  0  0  0
  -26.3461  -31.8799   25.4004 C   0  0  0  0  0  0  0  0  0  0  0  0
  -24.1952  -17.2721   21.3294 N   0  0  0  0  0  0  0  0  0  0  0  0
  -24.1845  -18.5610   20.9491 N   0  0  0  0  0  0  0  0  0  0  0  0
  -25.5650  -30.3564   22.2486 N   0  0  0  0  0  0  0  0  0  0  0  0
  -21.8355  -20.0523   23.5695 N   0  0  0  0  0  0  0  0  0  0  0  0
  -24.8252  -20.0181   19.1950 N   0  0  0  0  0  0  0  0  0  0  0  0
  -26.1737  -15.9653   17.7279 N   0  0  0  0  0  0  0  0  0  0  0  0
  -27.0839  -27.1474   21.4167 N   0  0  0  0  0  0  0  0  0  0  0  0
  -25.7281  -33.4809   23.5406 N   0  0  0  0  0  0  0  0  0  0  0  0
  -19.6608  -19.9125   22.6503 N   0  0  0  0  0  0  0  0  0  0  0  0
  -23.8839  -36.0150   21.7393 N   0  3  0  0  0  0  0  0  0  0  0  0
  -18.4522  -26.0639   21.9209 N   0  3  0  0  0  0  0  0  0  0  0  0
  -26.0997  -18.2000   17.2184 O   0  0  0  0  0  0  0  0  0  0  0  0
  -26.0419  -28.0683   23.2845 O   0  0  0  0  0  0  0  0  0  0  0  0
  -27.5714  -31.4596   22.6889 O   0  0  0  0  0  0  0  0  0  0  0  0
  -23.4345  -33.7072   23.2848 O   0  0  0  0  0  0  0  0  0  0  0  0
  -20.1025  -21.3755   24.3595 O   0  0  0  0  0  0  0  0  0  0  0  0
  -25.5868  -11.1248   20.4223 O   0  0  0  0  0  0  0  0  0  0  0  0
  -19.8519  -28.3762   21.0275 O   0  0  0  0  0  0  0  0  0  1  0  0
  -21.3721   -7.9686   22.0591 F   0  0  0  0  0  0  0  0  0  0  0  0
  -24.4932  -11.4154   22.9446 F   0  0  0  0  0  0  0  0  0  0  0  0
  -18.4729  -19.7759   19.5021 Cl  0  0  0  0  0  0  0  0  0  0  0  0
  1  2  1  0  0  0  0
  1  5  2  0  0  0  0
  2  6  2  0  0  0  0
  3  9  2  0  0  0  0
  3 18  1  0  0  0  0
  4 10  1  0  0  0  0
  4 18  2  0  0  0  0
  5 20  1  0  0  0  0
  6 22  1  0  0  0  0
  7 11  2  0  0  0  0
  7 21  1  0  0  0  0
  8 14  2  0  0  0  0
  8 24  1  0  0  0  0
  9 26  1  0  0  0  0
 10 26  2  0  0  0  0
 11 27  1  0  0  0  0
 12 13  2  0  0  0  0
 12 28  1  0  0  0  0
 13 29  1  0  0  0  0
 14 31  1  0  0  0  0
 15 23  1  0  0  0  0
 15 27  2  0  0  0  0
 16 24  2  0  0  0  0
 16 25  1  0  0  0  0
 17 29  2  0  0  0  0
 17 30  1  0  0  0  0
 18 32  1  0  0  0  0
 19 32  1  0  0  0  0
 19 33  2  0  0  0  0
 19 34  1  0  0  0  0
 20 22  2  0  0  0  0
 20 39  1  0  0  0  0
 21 23  2  0  0  0  0
 21 40  1  0  0  0  0
 22 48  1  0  0  0  0
 23 41  1  0  0  0  0
 24 57  1  0  0  0  0
 25 31  2  0  0  0  0
 25 56  1  0  0  0  0
 26 79  1  0  0  0  0
 27 80  1  0  0  0  0
 28 30  2  0  0  0  0
 28 79  1  0  0  0  0
 29 81  1  0  0  0  0
 30 82  1  0  0  0  0
 31 83  1  0  0  0  0
 32 63  2  0  0  0  0
 33 64  1  0  0  0  0
 33 67  1  0  0  0  0
 34 68  1  0  0  0  0
 34 74  2  0  0  0  0
 35 49  1  0  0  0  0
 35 69  1  0  0  0  0
 35 75  2  0  0  0  0
 36 60  1  0  0  0  0
 36 65  1  0  0  0  0
 36 76  2  0  0  0  0
 37 61  1  0  0  0  0
 37 70  1  0  0  0  0
 37 77  2  0  0  0  0
 38 66  1  0  0  0  0
 38 71  1  0  0  0  0
 38 78  2  0  0  0  0
 39 42  1  0  0  0  0
 40 49  1  0  0  0  0
 41 65  1  0  0  0  0
 42 44  1  0  0  0  0
 43 45  1  0  0  0  0
 43 46  1  0  0  0  0
 44 48  1  0  0  0  0
 45 50  1  0  0  0  0
 46 66  1  0  0  0  0
 47 50  1  0  0  0  0
 47 66  1  0  0  0  0
 48 69  1  0  0  0  0
 49 65  1  0  0  0  0
 50 64  1  0  0  0  0
 51 61  1  0  0  0  0
 52 62  1  0  0  0  0
 53 62  1  0  0  0  0
 54 62  1  0  0  0  0
 55 72  1  0  0  0  0
 56 71  1  0  0  0  0
 57 73  1  0  0  0  0
 58 59  1  0  0  0  0
 58 73  1  0  0  0  0
 59 80  1  0  0  0  0
 60 62  1  0  0  0  0
 60 70  1  0  0  0  0
 61 72  1  0  0  0  0
 63 64  1  0  0  0  0
M  CHG  2  72   1  73   1
M  ISO  4  38 100  59 101  71 100  80 101
M  END
> <Batch ID>
0042

> <Smiles>
CNC(C)C(=O)NC(C(=O)N1Cc2cc([101O:1][101CH2:1]CNCc3ccc(Cl)c(C[100NH:0][100C:0](=O)N4CCCC(n5nc(-c6ccc(Oc7ccc(F)cc7F)cc6)c(C(N)=O)c5N)C4)c3)ccc2CC1C(=O)NC1CCCc2ccccc21)C(C)(C)C

> <Shape>
0.238

> <Color>
0.070

> <Negative vol penalty>
0.000

$$$$

  -OEChem-04042322123D

 90 99  0     1  0  0  0  0  0999 V2000
  -17.4068  -28.4307   27.0488 C   0  0  0  0  0  0  0  0  0  0  0  0
  -18.5482  -27.6437   26.9335 C   0  0  0  0  0  0  0  0  0  0  0  0
  -22.8027   -9.9797   20.1312 C   0  0  0  0  0  0  0  0  0  0  0  0
  -24.1609   -9.6896   22.1081 C   0  0  0  0  0  0  0  0  0  0  0  0
  -16.9491  -29.1580   25.9508 C   0  0  0  0  0  0  0  0  0  0  0  0
  -19.2319  -27.5826   25.7198 C   0  0  0  0  0  0  0  0  0  0  0  0
  -25.2804  -27.0447   24.9247 C   0  0  0  0  0  0  0  0  0  0  0  0
  -22.0850   -8.8285   20.4554 C   0  0  0  0  0  0  0  0  0  0  0  0
  -23.4431   -8.5384   22.4323 C   0  0  0  0  0  0  0  0  0  0  0  0
  -26.0966  -25.9482   24.6504 C   0  0  0  0  0  0  0  0  0  0  0  0
  -20.4602   -7.7745   23.8249 C   0  0  0  0  0  0  0  0  0  0  0  0
  -20.0522   -7.6186   25.1496 C   0  0  0  0  0  0  0  0  0  0  0  0
  -26.0189  -26.4859   22.3001 C   0  0  0  0  0  0  0  0  0  0  0  0
  -29.1412  -18.0874   22.8122 C   0  0  0  0  0  0  0  0  0  0  0  0
  -31.4285  -17.3180   22.6945 C   0  0  0  0  0  0  0  0  0  0  0  0
  -21.3237   -5.5697   25.3000 C   0  0  0  0  0  0  0  0  0  0  0  0
  -23.8408  -10.4103   20.9575 C   0  0  0  0  0  0  0  0  0  0  0  0
  -24.0767  -12.9045   20.4769 C   0  0  0  0  0  0  0  0  0  0  0  0
  -17.6331  -29.1133   24.7257 C   0  0  0  0  0  0  0  0  0  0  0  0
  -24.8177  -27.8651   23.8859 C   0  0  0  0  0  0  0  0  0  0  0  0
  -18.7822  -28.3089   24.6040 C   0  0  0  0  0  0  0  0  0  0  0  0
  -25.1991  -27.5937   22.5641 C   0  0  0  0  0  0  0  0  0  0  0  0
  -29.5379  -19.1407   23.6361 C   0  0  0  0  0  0  0  0  0  0  0  0
  -30.8798  -19.2827   23.9892 C   0  0  0  0  0  0  0  0  0  0  0  0
  -30.0865  -17.1760   22.3415 C   0  0  0  0  0  0  0  0  0  0  0  0
  -22.4051   -8.1079   21.6059 C   0  0  0  0  0  0  0  0  0  0  0  0
  -26.4636  -25.6669   23.3377 C   0  0  0  0  0  0  0  0  0  0  0  0
  -21.2999   -6.8280   23.2377 C   0  0  0  0  0  0  0  0  0  0  0  0
  -20.4839   -6.5163   25.8871 C   0  0  0  0  0  0  0  0  0  0  0  0
  -21.7316   -5.7256   23.9753 C   0  0  0  0  0  0  0  0  0  0  0  0
  -31.8251  -18.3714   23.5184 C   0  0  0  0  0  0  0  0  0  0  0  0
  -24.5830  -11.5990   20.6229 C   0  0  0  0  0  0  0  0  0  0  0  0
  -25.1750  -13.6652   20.1585 C   0  0  0  0  0  0  0  0  0  0  0  0
  -26.7497  -21.6170   23.4035 C   0  0  0  0  0  0  0  0  0  0  0  0
  -24.7007  -19.6479   21.0778 C   0  0  0  0  0  0  0  0  0  0  0  0
  -25.6825  -21.1504   22.7377 C   0  0  0  0  0  0  0  0  0  0  0  0
  -25.7652  -20.1127   21.7414 C   0  0  0  0  0  0  0  0  0  0  0  0
  -22.7336  -13.3864   20.6168 C   0  0  0  0  0  0  0  0  0  0  0  0
  -21.9542  -28.6279   22.7359 C   0  0  0  0  0  0  0  0  0  0  0  0
  -23.6693  -30.6779   20.8980 C   0  0  0  0  0  0  0  0  0  0  0  0
  -26.6614  -31.4699   19.4602 C   0  0  0  0  0  0  0  0  0  0  0  0
  -30.4923  -15.1145   20.9516 C   0  0  0  0  0  0  0  0  0  0  0  0
  -17.0734  -29.8796   23.5534 C   0  0  0  0  0  0  0  0  0  0  0  0
  -23.9599  -29.0597   24.2011 C   0  0  0  0  0  0  0  0  0  0  0  0
  -24.7456  -28.4554   21.4151 C   0  0  0  0  0  0  0  0  0  0  0  0
  -26.6574  -22.7026   24.4446 C   0  0  0  0  0  0  0  0  0  0  0  0
  -18.0684  -30.0547   22.4091 C   0  0  0  0  0  0  0  0  0  0  0  0
  -29.8740  -12.2900   18.8738 C   0  0  0  0  0  0  0  0  0  0  0  0
  -18.7655  -28.7334   22.1009 C   0  0  0  0  0  0  0  0  0  0  0  0
  -28.4007  -11.9659   19.1316 C   0  0  0  0  0  0  0  0  0  0  0  0
  -29.0650  -23.2279   23.8730 C   0  0  0  0  0  0  0  0  0  0  0  0
  -30.5801  -12.7668   20.1418 C   0  0  0  0  0  0  0  0  0  0  0  0
  -28.4500  -13.5574   21.0941 C   0  0  0  0  0  0  0  0  0  0  0  0
  -29.0213  -22.1773   22.7643 C   0  0  0  0  0  0  0  0  0  0  0  0
  -19.5653  -28.2362   23.3111 C   0  0  1  0  0  0  0  0  0  0  0  0
  -23.1259  -29.5270   23.0122 C   0  0  1  0  0  0  0  0  0  0  0  0
  -27.6806  -13.1349   19.8319 C   0  0  2  0  0  0  0  0  0  0  0  0
  -27.6824  -23.8048   24.1765 C   0  0  1  0  0  0  0  0  0  1  0  0
  -27.7445  -33.1859   17.9839 C   0  0  0  0  0  0  0  0  0  0  0  0
  -22.2984  -29.4472   18.4658 C   0  0  0  0  0  0  0  0  0  0  0  0
  -24.0637  -30.4909   17.0297 C   0  0  0  0  0  0  0  0  0  0  0  0
  -22.5412  -31.9347   18.3789 C   0  0  0  0  0  0  0  0  0  0  0  0
  -28.5912  -32.2355   21.5694 C   0  0  0  0  0  0  0  0  0  0  0  0
  -28.5003  -20.1058   24.1291 C   0  0  0  0  0  0  0  0  0  0  0  0
  -31.2888  -20.4181   24.8754 C   0  0  0  0  0  0  0  0  0  0  0  0
  -24.3405  -30.5979   19.5482 C   0  0  1  0  0  0  0  0  0  0  0  0
  -27.4448  -32.7694   19.4155 C   0  0  2  0  0  0  0  0  0  0  0  0
  -23.3181  -30.6001   18.3769 C   0  0  0  0  0  0  0  0  0  0  0  0
  -25.9005  -11.5307   20.4141 N   0  0  0  0  0  0  0  0  0  0  0  0
  -26.2313  -12.8027   20.1336 N   0  0  0  0  0  0  0  0  0  0  0  0
  -23.9031  -29.6082   21.7738 N   0  0  0  0  0  0  0  0  0  0  0  0
  -29.8437  -13.8781   20.7481 N   0  0  0  0  0  0  0  0  0  0  0  0
  -25.3307  -14.9810   19.8999 N   0  0  0  0  0  0  0  0  0  0  0  0
  -22.3083  -13.8226   21.8791 N   0  0  0  0  0  0  0  0  0  0  0  0
  -29.6828  -16.1060   21.5049 N   0  0  0  0  0  0  0  0  0  0  0  0
  -20.8086  -28.9673   23.4302 N   0  0  0  0  0  0  0  0  0  0  0  0
  -25.3016  -31.6946   19.5045 N   0  0  0  0  0  0  0  0  0  0  0  0
  -28.0410  -21.0690   23.0696 N   0  3  1  0  0  0  0  0  0  0  0  0
  -28.7374  -32.6203   20.1420 N   0  3  0  0  0  0  0  0  0  0  0  0
  -21.9291  -13.4135   19.6548 O   0  0  0  0  0  0  0  0  0  0  0  0
  -22.0797  -27.6961   21.9499 O   0  0  0  0  0  0  0  0  0  0  0  0
  -22.9694  -31.6571   21.1682 O   0  0  0  0  0  0  0  0  0  0  0  0
  -27.2014  -30.3659   19.4526 O   0  0  0  0  0  0  0  0  0  0  0  0
  -31.6709  -15.2894   20.6317 O   0  0  0  0  0  0  0  0  0  0  0  0
  -21.7048   -6.9846   21.9227 O   0  0  0  0  0  0  0  0  0  0  0  0
  -27.2596  -24.5968   23.0671 O   0  0  0  0  0  0  0  0  0  1  0  0
  -20.0933   -6.3675   27.1597 F   0  0  0  0  0  0  0  0  0  0  0  0
  -22.5394   -4.8137   23.4170 F   0  0  0  0  0  0  0  0  0  0  0  0
  -33.4959  -18.5136   23.9303 Cl  0  0  0  0  0  0  0  0  0  0  0  0
  -30.7155  -20.0542   26.6962 Br  0  0  0  0  0  0  0  0  0  0  0  0
  1  2  1  0  0  0  0
  1  5  2  0  0  0  0
  2  6  2  0  0  0  0
  3  8  2  0  0  0  0
  3 17  1  0  0  0  0
  4  9  1  0  0  0  0
  4 17  2  0  0  0  0
  5 19  1  0  0  0  0
  6 21  1  0  0  0  0
  7 10  2  0  0  0  0
  7 20  1  0  0  0  0
  8 26  1  0  0  0  0
  9 26  2  0  0  0  0
 10 27  1  0  0  0  0
 11 12  2  0  0  0  0
 11 28  1  0  0  0  0
 12 29  1  0  0  0  0
 13 22  1  0  0  0  0
 13 27  2  0  0  0  0
 14 23  1  0  0  0  0
 14 25  2  0  0  0  0
 15 25  1  0  0  0  0
 15 31  2  0  0  0  0
 16 29  2  0  0  0  0
 16 30  1  0  0  0  0
 17 32  1  0  0  0  0
 18 32  1  0  0  0  0
 18 33  2  0  0  0  0
 18 38  1  0  0  0  0
 19 21  2  0  0  0  0
 19 43  1  0  0  0  0
 20 22  2  0  0  0  0
 20 44  1  0  0  0  0
 21 55  1  0  0  0  0
 22 45  1  0  0  0  0
 23 24  2  0  0  0  0
 23 64  1  0  0  0  0
 24 31  1  0  0  0  0
 24 65  1  0  0  0  0
 25 75  1  0  0  0  0
 26 85  1  0  0  0  0
 27 86  1  0  0  0  0
 28 30  2  0  0  0  0
 28 85  1  0  0  0  0
 29 87  1  0  0  0  0
 30 88  1  0  0  0  0
 31 89  1  0  0  0  0
 32 69  2  0  0  0  0
 33 70  1  0  0  0  0
 33 73  1  0  0  0  0
 34 36  2  0  0  0  0
 34 46  1  0  0  0  0
 34 78  1  0  0  0  0
 35 37  2  0  0  0  0
 36 37  1  0  0  0  0
 38 74  1  0  0  0  0
 38 80  2  0  0  0  0
 39 56  1  0  0  0  0
 39 76  1  0  0  0  0
 39 81  2  0  0  0  0
 40 66  1  0  0  0  0
 40 71  1  0  0  0  0
 40 82  2  0  0  0  0
 41 67  1  0  0  0  0
 41 77  1  0  0  0  0
 41 83  2  0  0  0  0
 42 72  1  0  0  0  0
 42 75  1  0  0  0  0
 42 84  2  0  0  0  0
 43 47  1  0  0  0  0
 44 56  1  0  0  0  0
 45 71  1  0  0  0  0
 46 58  1  0  0  0  0
 47 49  1  0  0  0  0
 48 50  1  0  0  0  0
 48 52  1  0  0  0  0
 49 55  1  0  0  0  0
 50 57  1  0  0  0  0
 51 54  1  0  0  0  0
 51 58  1  0  0  0  0
 52 72  1  0  0  0  0
 53 57  1  0  0  0  0
 53 72  1  0  0  0  0
 54 78  1  0  0  0  0
 55 76  1  0  0  0  0
 56 71  1  0  0  0  0
 57 70  1  0  0  0  0
 58 86  1  0  0  0  0
 59 67  1  0  0  0  0
 60 68  1  0  0  0  0
 61 68  1  0  0  0  0
 62 68  1  0  0  0  0
 63 79  1  0  0  0  0
 64 78  1  0  0  0  0
 65 90  1  0  0  0  0
 66 68  1  0  0  0  0
 66 77  1  0  0  0  0
 67 79  1  0  0  0  0
 69 70  1  0  0  0  0
M  CHG  2  78   1  79   1
M  ISO  4  42 100  58 101  75 100  86 101
M  END
> <Batch ID>
0042

> <Smiles>
C=CC=C1C[101CH:1]([101O:1]c2ccc3c(c2)CN(C(=O)C(NC(=O)C(C)NC)C(C)(C)C)C(C(=O)NC2CCCc4ccccc42)C3)CCN1Cc1cc([100NH:0][100C:0](=O)N2CCCC(n3nc(-c4ccc(Oc5ccc(F)cc5F)cc4)c(C(N)=O)c3N)C2)cc(Cl)c1CBr

> <Shape>
0.271

> <Color>
0.152

> <Negative vol penalty>
0.000

$$$$

  -OEChem-04042322123D

 84 92  0     1  0  0  0  0  0999 V2000
  -18.3135  -30.6655   25.5220 C   0  0  0  0  0  0  0  0  0  0  0  0
  -19.7011  -30.5760   25.5657 C   0  0  0  0  0  0  0  0  0  0  0  0
  -23.5233  -14.4238   19.3208 C   0  0  0  0  0  0  0  0  0  0  0  0
  -24.8101  -15.0664   21.2620 C   0  0  0  0  0  0  0  0  0  0  0  0
  -17.5919  -29.8648   24.6377 C   0  0  0  0  0  0  0  0  0  0  0  0
  -20.3679  -29.6848   24.7257 C   0  0  0  0  0  0  0  0  0  0  0  0
  -26.5007  -28.9599   21.0953 C   0  0  0  0  0  0  0  0  0  0  0  0
  -26.9173  -22.0229   24.8809 C   0  0  0  0  0  0  0  0  0  0  0  0
  -24.4798  -13.4585   19.0063 C   0  0  0  0  0  0  0  0  0  0  0  0
  -25.7666  -14.1011   20.9475 C   0  0  0  0  0  0  0  0  0  0  0  0
  -27.5530  -28.0609   20.9271 C   0  0  0  0  0  0  0  0  0  0  0  0
  -28.3487  -13.7623   18.7914 C   0  0  0  0  0  0  0  0  0  0  0  0
  -29.6915  -14.1328   18.8642 C   0  0  0  0  0  0  0  0  0  0  0  0
  -26.2860  -22.0680   26.1238 C   0  0  0  0  0  0  0  0  0  0  0  0
  -26.2080  -26.7846   19.3840 C   0  0  0  0  0  0  0  0  0  0  0  0
  -24.3605  -23.1156   25.1077 C   0  0  0  0  0  0  0  0  0  0  0  0
  -30.0731  -12.4230   20.5280 C   0  0  0  0  0  0  0  0  0  0  0  0
  -23.6884  -15.2278   20.4487 C   0  0  0  0  0  0  0  0  0  0  0  0
  -21.5614  -16.0613   21.5838 C   0  0  0  0  0  0  0  0  0  0  0  0
  -18.2508  -28.9703   23.7796 C   0  0  0  0  0  0  0  0  0  0  0  0
  -25.2883  -28.7716   20.4163 C   0  0  0  0  0  0  0  0  0  0  0  0
  -19.6543  -28.8704   23.8299 C   0  0  0  0  0  0  0  0  0  0  0  0
  -25.1428  -27.6841   19.5433 C   0  0  0  0  0  0  0  0  0  0  0  0
  -26.2703  -22.5242   23.7513 C   0  0  0  0  0  0  0  0  0  0  0  0
  -24.9919  -23.0705   23.8648 C   0  0  0  0  0  0  0  0  0  0  0  0
  -25.6014  -13.2972   19.8196 C   0  0  0  0  0  0  0  0  0  0  0  0
  -27.4057  -26.9715   20.0736 C   0  0  0  0  0  0  0  0  0  0  0  0
  -27.8681  -12.7223   19.5870 C   0  0  0  0  0  0  0  0  0  0  0  0
  -30.5537  -13.4631   19.7324 C   0  0  0  0  0  0  0  0  0  0  0  0
  -28.7302  -12.0526   20.4553 C   0  0  0  0  0  0  0  0  0  0  0  0
  -25.0075  -22.6143   26.2373 C   0  0  0  0  0  0  0  0  0  0  0  0
  -22.7010  -16.2255   20.7738 C   0  0  0  0  0  0  0  0  0  0  0  0
  -20.9557  -17.2940   21.5783 C   0  0  0  0  0  0  0  0  0  0  0  0
  -21.0923  -14.8985   22.2792 C   0  0  0  0  0  0  0  0  0  0  0  0
  -22.2779  -28.2618   21.3003 C   0  0  0  0  0  0  0  0  0  0  0  0
  -21.7031  -28.5661   18.1223 C   0  0  0  0  0  0  0  0  0  0  0  0
  -22.8953  -28.3696   14.9306 C   0  0  0  0  0  0  0  0  0  0  0  0
  -23.0140  -22.8443   20.6791 C   0  0  0  0  0  0  0  0  0  0  0  0
  -17.4249  -28.0914   22.8741 C   0  0  0  0  0  0  0  0  0  0  0  0
  -24.1722  -29.7652   20.5880 C   0  0  0  0  0  0  0  0  0  0  0  0
  -23.8686  -27.4484   18.7755 C   0  0  0  0  0  0  0  0  0  0  0  0
  -18.2325  -27.4424   21.7529 C   0  0  0  0  0  0  0  0  0  0  0  0
  -20.4336  -21.1972   18.8611 C   0  0  0  0  0  0  0  0  0  0  0  0
  -19.5252  -26.8471   22.3018 C   0  0  0  0  0  0  0  0  0  0  0  0
  -20.6192  -19.7215   19.2182 C   0  0  0  0  0  0  0  0  0  0  0  0
  -21.7724  -21.9223   18.7439 C   0  0  0  0  0  0  0  0  0  0  0  0
  -22.8392  -20.3138   20.2763 C   0  0  0  0  0  0  0  0  0  0  0  0
  -20.4153  -27.9336   22.9171 C   0  0  1  0  0  0  0  0  0  0  0  0
  -22.8020  -29.1905   20.2418 C   0  0  1  0  0  0  0  0  0  0  0  0
  -21.5147  -19.5535   20.4605 C   0  0  2  0  0  0  0  0  0  0  0  0
  -22.1795  -28.6382   12.5405 C   0  0  0  0  0  0  0  0  0  0  0  0
  -20.2755  -25.8725   18.2498 C   0  0  0  0  0  0  0  0  0  0  0  0
  -20.4291  -25.7516   15.7538 C   0  0  0  0  0  0  0  0  0  0  0  0
  -19.1363  -27.5911   16.8344 C   0  0  0  0  0  0  0  0  0  0  0  0
  -24.8381  -30.5548   14.4729 C   0  0  0  0  0  0  0  0  0  0  0  0
  -24.2803  -23.6147   22.6696 C   0  0  0  0  0  0  0  0  0  0  0  0
  -26.9694  -22.4658   22.4251 C   0  0  0  0  0  0  0  0  0  0  0  0
  -29.8718  -24.4908   20.9633 C   0  0  0  0  0  0  0  0  0  0  0  0
  -28.8031  -23.4095   21.0159 C   0  0  0  0  0  0  0  0  0  0  0  0
  -29.3134  -25.9077   21.0144 C   0  0  0  0  0  0  0  0  0  1  0  0
  -21.6618  -27.6186   16.9478 C   0  0  1  0  0  0  0  0  0  0  0  0
  -22.7872  -29.3233   13.7545 C   0  0  2  0  0  0  0  0  0  0  0  0
  -20.3991  -26.7115   16.9623 C   0  0  0  0  0  0  0  0  0  0  0  0
  -22.8147  -17.4648   20.2888 N   0  0  0  0  0  0  0  0  0  0  0  0
  -21.7386  -18.0905   20.7955 N   0  0  0  0  0  0  0  0  0  0  0  0
  -22.8041  -28.4442   18.9819 N   0  0  0  0  0  0  0  0  0  0  0  0
  -22.5727  -21.7246   19.9549 N   0  0  0  0  0  0  0  0  0  0  0  0
  -19.8350  -17.7635   22.1666 N   0  0  0  0  0  0  0  0  0  0  0  0
  -21.8351  -13.7144   22.1778 N   0  0  0  0  0  0  0  0  0  0  0  0
  -21.0942  -28.6787   21.8786 N   0  0  0  0  0  0  0  0  0  0  0  0
  -21.7904  -28.4447   15.7522 N   0  0  0  0  0  0  0  0  0  0  0  0
  -23.7613  -22.5681   21.8175 N   0  0  0  0  0  0  0  0  0  0  0  0
  -24.1347  -29.8371   13.3788 N   0  3  0  0  0  0  0  0  0  0  0  0
  -28.0500  -23.4814   22.2900 N   0  3  0  0  0  0  0  0  0  0  0  0
  -20.0365  -14.9048   22.9566 O   0  0  0  0  0  0  0  0  0  0  0  0
  -22.9005  -27.2416   21.5712 O   0  0  0  0  0  0  0  0  0  0  0  0
  -20.7957  -29.3891   18.2677 O   0  0  0  0  0  0  0  0  0  0  0  0
  -23.8613  -27.6292   15.1013 O   0  0  0  0  0  0  0  0  0  0  0  0
  -22.7564  -24.0041   20.3394 O   0  0  0  0  0  0  0  0  0  0  0  0
  -26.5349  -12.3552   19.5131 O   0  0  0  0  0  0  0  0  0  0  0  0
  -28.4310  -26.0921   19.9082 O   0  0  0  0  0  0  0  0  0  1  0  0
  -31.8435  -13.8179   19.8010 F   0  0  0  0  0  0  0  0  0  0  0  0
  -28.2745  -11.0519   21.2212 F   0  0  0  0  0  0  0  0  0  0  0  0
  -24.2298  -22.6713   27.7710 Cl  0  0  0  0  0  0  0  0  0  0  0  0
  1  2  1  0  0  0  0
  1  5  2  0  0  0  0
  2  6  2  0  0  0  0
  3  9  2  0  0  0  0
  3 18  1  0  0  0  0
  4 10  1  0  0  0  0
  4 18  2  0  0  0  0
  5 20  1  0  0  0  0
  6 22  1  0  0  0  0
  7 11  2  0  0  0  0
  7 21  1  0  0  0  0
  8 14  2  0  0  0  0
  8 24  1  0  0  0  0
  9 26  1  0  0  0  0
 10 26  2  0  0  0  0
 11 27  1  0  0  0  0
 12 13  2  0  0  0  0
 12 28  1  0  0  0  0
 13 29  1  0  0  0  0
 14 31  1  0  0  0  0
 15 23  1  0  0  0  0
 15 27  2  0  0  0  0
 16 25  1  0  0  0  0
 16 31  2  0  0  0  0
 17 29  2  0  0  0  0
 17 30  1  0  0  0  0
 18 32  1  0  0  0  0
 19 32  1  0  0  0  0
 19 33  2  0  0  0  0
 19 34  1  0  0  0  0
 20 22  2  0  0  0  0
 20 39  1  0  0  0  0
 21 23  2  0  0  0  0
 21 40  1  0  0  0  0
 22 48  1  0  0  0  0
 23 41  1  0  0  0  0
 24 25  2  0  0  0  0
 24 57  1  0  0  0  0
 25 56  1  0  0  0  0
 26 80  1  0  0  0  0
 27 81  1  0  0  0  0
 28 30  2  0  0  0  0
 28 80  1  0  0  0  0
 29 82  1  0  0  0  0
 30 83  1  0  0  0  0
 31 84  1  0  0  0  0
 32 64  2  0  0  0  0
 33 65  1  0  0  0  0
 33 68  1  0  0  0  0
 34 69  1  0  0  0  0
 34 75  2  0  0  0  0
 35 49  1  0  0  0  0
 35 70  1  0  0  0  0
 35 76  2  0  0  0  0
 36 61  1  0  0  0  0
 36 66  1  0  0  0  0
 36 77  2  0  0  0  0
 37 62  1  0  0  0  0
 37 71  1  0  0  0  0
 37 78  2  0  0  0  0
 38 67  1  0  0  0  0
 38 72  1  0  0  0  0
 38 79  2  0  0  0  0
 39 42  1  0  0  0  0
 40 49  1  0  0  0  0
 41 66  1  0  0  0  0
 42 44  1  0  0  0  0
 43 45  1  0  0  0  0
 43 46  1  0  0  0  0
 44 48  1  0  0  0  0
 45 50  1  0  0  0  0
 46 67  1  0  0  0  0
 47 50  1  0  0  0  0
 47 67  1  0  0  0  0
 48 70  1  0  0  0  0
 49 66  1  0  0  0  0
 50 65  1  0  0  0  0
 51 62  1  0  0  0  0
 52 63  1  0  0  0  0
 53 63  1  0  0  0  0
 54 63  1  0  0  0  0
 55 73  1  0  0  0  0
 56 72  1  0  0  0  0
 57 74  1  0  0  0  0
 58 59  1  0  0  0  0
 58 60  1  0  0  0  0
 59 74  1  0  0  0  0
 60 81  1  0  0  0  0
 61 63  1  0  0  0  0
 61 71  1  0  0  0  0
 62 73  1  0  0  0  0
 64 65  1  0  0  0  0
M  CHG  2  73   1  74   1
M  ISO  4  38 100  60 101  72 100  81 101
M  END
> <Batch ID>
0042

> <Smiles>
CNC(C)C(=O)NC(C(=O)N1Cc2cc([101O:1][101CH2:1]CCNCc3ccc(Cl)cc3C[100NH:0][100C:0](=O)N3CCCC(n4nc(-c5ccc(Oc6ccc(F)cc6F)cc5)c(C(N)=O)c4N)C3)ccc2CC1C(=O)NC1CCCc2ccccc21)C(C)(C)C

> <Shape>
0.200

> <Color>
0.079

> <Negative vol penalty>
0.000

$$$$

  -OEChem-04042322123D

 83 91  0     1  0  0  0  0  0999 V2000
  -31.9703  -21.6626   21.8135 C   0  0  0  0  0  0  0  0  0  0  0  0
  -30.6310  -22.0193   21.9338 C   0  0  0  0  0  0  0  0  0  0  0  0
  -18.1868  -26.8851   21.4691 C   0  0  0  0  0  0  0  0  0  0  0  0
  -29.5204  -26.8747   18.6939 C   0  0  0  0  0  0  0  0  0  0  0  0
  -29.0622  -25.8880   20.8511 C   0  0  0  0  0  0  0  0  0  0  0  0
  -32.3340  -20.5862   21.0054 C   0  0  0  0  0  0  0  0  0  0  0  0
  -29.6546  -21.3004   21.2451 C   0  0  0  0  0  0  0  0  0  0  0  0
  -25.6310  -20.2344   24.1293 C   0  0  0  0  0  0  0  0  0  0  0  0
  -18.7580  -28.1477   21.6277 C   0  0  0  0  0  0  0  0  0  0  0  0
  -18.4393  -25.8827   22.4057 C   0  0  0  0  0  0  0  0  0  0  0  0
  -30.8290  -26.3956   18.7526 C   0  0  0  0  0  0  0  0  0  0  0  0
  -30.3709  -25.4087   20.9098 C   0  0  0  0  0  0  0  0  0  0  0  0
  -24.7125  -21.2608   24.3454 C   0  0  0  0  0  0  0  0  0  0  0  0
  -34.1846  -25.1240   18.1710 C   0  0  0  0  0  0  0  0  0  0  0  0
  -34.7063  -24.5208   17.0267 C   0  0  0  0  0  0  0  0  0  0  0  0
  -23.2780  -20.3268   22.6457 C   0  0  0  0  0  0  0  0  0  0  0  0
  -32.9553  -22.8580   17.1049 C   0  0  0  0  0  0  0  0  0  0  0  0
  -28.6370  -26.6210   19.7432 C   0  0  0  0  0  0  0  0  0  0  0  0
  -26.1624  -26.4597   19.1448 C   0  0  0  0  0  0  0  0  0  0  0  0
  -31.3606  -19.8477   20.3141 C   0  0  0  0  0  0  0  0  0  0  0  0
  -25.3844  -19.2509   23.1606 C   0  0  0  0  0  0  0  0  0  0  0  0
  -30.0057  -20.2139   20.4260 C   0  0  0  0  0  0  0  0  0  0  0  0
  -24.1937  -19.2875   22.4211 C   0  0  0  0  0  0  0  0  0  0  0  0
  -19.5818  -28.4080   22.7228 C   0  0  0  0  0  0  0  0  0  0  0  0
  -19.2632  -26.1430   23.5008 C   0  0  0  0  0  0  0  0  0  0  0  0
  -19.8344  -27.4056   23.6593 C   0  0  0  0  0  0  0  0  0  0  0  0
  -31.2542  -25.6626   19.8605 C   0  0  0  0  0  0  0  0  0  0  0  0
  -23.5372  -21.3088   23.6015 C   0  0  0  0  0  0  0  0  0  0  0  0
  -33.0483  -24.5941   18.7824 C   0  0  0  0  0  0  0  0  0  0  0  0
  -34.0916  -23.3878   16.4936 C   0  0  0  0  0  0  0  0  0  0  0  0
  -32.4336  -23.4612   18.2493 C   0  0  0  0  0  0  0  0  0  0  0  0
  -27.2852  -27.1162   19.6834 C   0  0  0  0  0  0  0  0  0  0  0  0
  -25.1268  -27.3428   19.3298 C   0  0  0  0  0  0  0  0  0  0  0  0
  -26.0642  -25.1671   18.5322 C   0  0  0  0  0  0  0  0  0  0  0  0
  -26.8312  -18.3239   20.4864 C   0  0  0  0  0  0  0  0  0  0  0  0
  -24.5957  -15.9744   20.5529 C   0  0  0  0  0  0  0  0  0  0  0  0
  -21.5285  -14.9230   21.6175 C   0  0  0  0  0  0  0  0  0  0  0  0
  -22.3296  -30.9622   22.5267 C   0  0  0  0  0  0  0  0  0  0  0  0
  -31.8064  -18.7216   19.4153 C   0  0  0  0  0  0  0  0  0  0  0  0
  -26.3728  -18.1352   22.9583 C   0  0  0  0  0  0  0  0  0  0  0  0
  -23.8723  -18.2443   21.3834 C   0  0  0  0  0  0  0  0  0  0  0  0
  -30.6755  -17.7777   19.0149 C   0  0  0  0  0  0  0  0  0  0  0  0
  -25.1541  -32.1986   20.7463 C   0  0  0  0  0  0  0  0  0  0  0  0
  -29.4498  -18.5706   18.5722 C   0  0  0  0  0  0  0  0  0  0  0  0
  -25.8705  -30.9329   20.2723 C   0  0  0  0  0  0  0  0  0  0  0  0
  -24.5376  -32.0132   22.1310 C   0  0  0  0  0  0  0  0  0  0  0  0
  -24.3634  -29.5791   21.7871 C   0  0  0  0  0  0  0  0  0  0  0  0
  -28.9151  -19.4430   19.7144 C   0  0  1  0  0  0  0  0  0  0  0  0
  -26.2580  -17.4767   21.5870 C   0  0  1  0  0  0  0  0  0  0  0  0
  -24.9534  -29.6990   20.3716 C   0  0  2  0  0  0  0  0  0  0  0  0
  -20.7179  -27.6846   24.8335 C   0  0  0  0  0  0  0  0  0  0  0  0
  -19.9588  -12.9699   21.4808 C   0  0  0  0  0  0  0  0  0  0  0  0
  -23.8470  -16.7784   17.7063 C   0  0  0  0  0  0  0  0  0  0  0  0
  -21.7181  -15.4889   17.9764 C   0  0  0  0  0  0  0  0  0  0  0  0
  -23.9130  -14.3112   18.1103 C   0  0  0  0  0  0  0  0  0  0  0  0
  -21.5934  -14.5172   24.5483 C   0  0  0  0  0  0  0  0  0  0  0  0
  -20.1809  -29.7686   22.8695 C   0  0  0  0  0  0  0  0  0  0  0  0
  -19.5185  -25.0476   24.4937 C   0  0  0  0  0  0  0  0  0  0  0  0
  -21.1806  -23.4055   25.3766 C   0  0  0  0  0  0  0  0  0  0  0  0
  -22.5720  -22.8585   25.1256 C   0  0  0  0  0  0  0  0  0  1  0  0
  -23.1955  -15.8154   20.0115 C   0  0  1  0  0  0  0  0  0  0  0  0
  -21.0782  -13.6291   22.2714 C   0  0  2  0  0  0  0  0  0  0  0  0
  -23.1750  -15.6194   18.4692 C   0  0  0  0  0  0  0  0  0  0  0  0
  -26.9907  -28.3233   20.1736 N   0  0  0  0  0  0  0  0  0  0  0  0
  -25.6711  -28.4323   19.9437 N   0  0  0  0  0  0  0  0  0  0  0  0
  -24.8730  -17.1772   21.2179 N   0  0  0  0  0  0  0  0  0  0  0  0
  -23.6780  -30.8273   22.1573 N   0  0  0  0  0  0  0  0  0  0  0  0
  -23.8128  -27.2859   19.0255 N   0  0  0  0  0  0  0  0  0  0  0  0
  -27.2253  -24.3898   18.4224 N   0  0  0  0  0  0  0  0  0  0  0  0
  -28.1659  -18.6391   20.6562 N   0  0  0  0  0  0  0  0  0  0  0  0
  -22.5899  -14.7200   20.7611 N   0  0  0  0  0  0  0  0  0  0  0  0
  -21.5836  -29.7900   22.5192 N   0  0  0  0  0  0  0  0  0  0  0  0
  -20.5863  -13.8911   23.6535 N   0  3  0  0  0  0  0  0  0  0  0  0
  -20.8761  -24.4519   24.3684 N   0  3  0  0  0  0  0  0  0  0  0  0
  -24.9822  -24.7215   18.0803 O   0  0  0  0  0  0  0  0  0  0  0  0
  -26.1160  -18.6651   19.5517 O   0  0  0  0  0  0  0  0  0  0  0  0
  -25.4112  -15.0620   20.3978 O   0  0  0  0  0  0  0  0  0  0  0  0
  -20.9898  -16.0049   21.8409 O   0  0  0  0  0  0  0  0  0  0  0  0
  -21.8263  -32.0479   22.8349 O   0  0  0  0  0  0  0  0  0  0  0  0
  -32.5311  -25.1946   19.9181 O   0  0  0  0  0  0  0  0  0  0  0  0
  -22.6393  -22.3099   23.8099 O   0  0  0  0  0  0  0  0  0  1  0  0
  -34.5918  -22.8096   15.3938 F   0  0  0  0  0  0  0  0  0  0  0  0
  -31.3410  -22.9483   18.8316 F   0  0  0  0  0  0  0  0  0  0  0  0
  1  2  1  0  0  0  0
  1  6  2  0  0  0  0
  2  7  2  0  0  0  0
  3  9  1  0  0  0  0
  3 10  2  0  0  0  0
  4 11  2  0  0  0  0
  4 18  1  0  0  0  0
  5 12  1  0  0  0  0
  5 18  2  0  0  0  0
  6 20  1  0  0  0  0
  7 22  1  0  0  0  0
  8 13  2  0  0  0  0
  8 21  1  0  0  0  0
  9 24  2  0  0  0  0
 10 25  1  0  0  0  0
 11 27  1  0  0  0  0
 12 27  2  0  0  0  0
 13 28  1  0  0  0  0
 14 15  2  0  0  0  0
 14 29  1  0  0  0  0
 15 30  1  0  0  0  0
 16 23  1  0  0  0  0
 16 28  2  0  0  0  0
 17 30  2  0  0  0  0
 17 31  1  0  0  0  0
 18 32  1  0  0  0  0
 19 32  1  0  0  0  0
 19 33  2  0  0  0  0
 19 34  1  0  0  0  0
 20 22  2  0  0  0  0
 20 39  1  0  0  0  0
 21 23  2  0  0  0  0
 21 40  1  0  0  0  0
 22 48  1  0  0  0  0
 23 41  1  0  0  0  0
 24 26  1  0  0  0  0
 24 57  1  0  0  0  0
 25 26  2  0  0  0  0
 25 58  1  0  0  0  0
 26 51  1  0  0  0  0
 27 80  1  0  0  0  0
 28 81  1  0  0  0  0
 29 31  2  0  0  0  0
 29 80  1  0  0  0  0
 30 82  1  0  0  0  0
 31 83  1  0  0  0  0
 32 64  2  0  0  0  0
 33 65  1  0  0  0  0
 33 68  1  0  0  0  0
 34 69  1  0  0  0  0
 34 75  2  0  0  0  0
 35 49  1  0  0  0  0
 35 70  1  0  0  0  0
 35 76  2  0  0  0  0
 36 61  1  0  0  0  0
 36 66  1  0  0  0  0
 36 77  2  0  0  0  0
 37 62  1  0  0  0  0
 37 71  1  0  0  0  0
 37 78  2  0  0  0  0
 38 67  1  0  0  0  0
 38 72  1  0  0  0  0
 38 79  2  0  0  0  0
 39 42  1  0  0  0  0
 40 49  1  0  0  0  0
 41 66  1  0  0  0  0
 42 44  1  0  0  0  0
 43 45  1  0  0  0  0
 43 46  1  0  0  0  0
 44 48  1  0  0  0  0
 45 50  1  0  0  0  0
 46 67  1  0  0  0  0
 47 50  1  0  0  0  0
 47 67  1  0  0  0  0
 48 70  1  0  0  0  0
 49 66  1  0  0  0  0
 50 65  1  0  0  0  0
 52 62  1  0  0  0  0
 53 63  1  0  0  0  0
 54 63  1  0  0  0  0
 55 63  1  0  0  0  0
 56 73  1  0  0  0  0
 57 72  1  0  0  0  0
 58 74  1  0  0  0  0
 59 60  1  0  0  0  0
 59 74  1  0  0  0  0
 60 81  1  0  0  0  0
 61 63  1  0  0  0  0
 61 71  1  0  0  0  0
 62 73  1  0  0  0  0
 64 65  1  0  0  0  0
M  CHG  2  73   1  74   1
M  ISO  4  38 100  60 101  72 100  81 101
M  END
> <Batch ID>
0042

> <Smiles>
CNC(C)C(=O)NC(C(=O)N1Cc2cc([101O:1][101CH2:1]CNCc3cccc(C[100NH:0][100C:0](=O)N4CCCC(n5nc(-c6ccc(Oc7ccc(F)cc7F)cc6)c(C(N)=O)c5N)C4)c3C)ccc2CC1C(=O)NC1CCCc2ccccc21)C(C)(C)C

> <Shape>
0.211

> <Color>
0.068

> <Negative vol penalty>
0.000

$$$$

  -OEChem-04042322123D

 85 93  0     1  0  0  0  0  0999 V2000
  -23.4303  -23.7063   18.7445 C   0  0  0  0  0  0  0  0  0  0  0  0
  -24.5495  -22.9479   19.0725 C   0  0  0  0  0  0  0  0  0  0  0  0
  -22.6610  -28.2162   20.3732 C   0  0  0  0  0  0  0  0  0  0  0  0
  -23.6451  -26.7457   22.0182 C   0  0  0  0  0  0  0  0  0  0  0  0
  -22.1707  -23.3223   19.2027 C   0  0  0  0  0  0  0  0  0  0  0  0
  -24.4099  -21.8056   19.8599 C   0  0  0  0  0  0  0  0  0  0  0  0
  -27.0576  -17.8771   18.0705 C   0  0  0  0  0  0  0  0  0  0  0  0
  -21.3916  -27.7519   20.7174 C   0  0  0  0  0  0  0  0  0  0  0  0
  -22.3756  -26.2814   22.3626 C   0  0  0  0  0  0  0  0  0  0  0  0
  -28.4300  -17.8696   18.3157 C   0  0  0  0  0  0  0  0  0  0  0  0
  -17.8642  -27.2164   21.4144 C   0  0  0  0  0  0  0  0  0  0  0  0
  -16.8512  -28.1607   21.5804 C   0  0  0  0  0  0  0  0  0  0  0  0
  -28.0890  -16.3324   20.1432 C   0  0  0  0  0  0  0  0  0  0  0  0
  -33.6647  -23.2020   19.6070 C   0  0  0  0  0  0  0  0  0  0  0  0
  -32.0890  -21.9834   21.5602 C   0  0  0  0  0  0  0  0  0  0  0  0
  -18.1201  -29.2110   23.3479 C   0  0  0  0  0  0  0  0  0  0  0  0
  -23.7878  -27.7131   21.0235 C   0  0  0  0  0  0  0  0  0  0  0  0
  -25.7878  -29.2829   21.2316 C   0  0  0  0  0  0  0  0  0  0  0  0
  -22.0143  -22.1693   19.9880 C   0  0  0  0  0  0  0  0  0  0  0  0
  -26.1879  -17.1195   18.8681 C   0  0  0  0  0  0  0  0  0  0  0  0
  -23.1472  -21.4065   20.3302 C   0  0  0  0  0  0  0  0  0  0  0  0
  -26.7062  -16.3300   19.9045 C   0  0  0  0  0  0  0  0  0  0  0  0
  -33.8137  -21.8411   19.8742 C   0  0  0  0  0  0  0  0  0  0  0  0
  -32.7279  -23.9536   20.3164 C   0  0  0  0  0  0  0  0  0  0  0  0
  -33.0258  -21.2318   20.8508 C   0  0  0  0  0  0  0  0  0  0  0  0
  -21.2489  -26.7845   21.7121 C   0  0  0  0  0  0  0  0  0  0  0  0
  -28.9456  -17.0995   19.3540 C   0  0  0  0  0  0  0  0  0  0  0  0
  -19.0051  -27.2692   22.2151 C   0  0  0  0  0  0  0  0  0  0  0  0
  -16.9792  -29.1581   22.5471 C   0  0  0  0  0  0  0  0  0  0  0  0
  -19.1331  -28.2666   23.1818 C   0  0  0  0  0  0  0  0  0  0  0  0
  -31.9400  -23.3443   21.2929 C   0  0  0  0  0  0  0  0  0  0  0  0
  -25.0994  -28.1920   20.6680 C   0  0  0  0  0  0  0  0  0  0  0  0
  -26.9819  -29.3226   20.5541 C   0  0  0  0  0  0  0  0  0  0  0  0
  -25.3840  -30.1802   22.2745 C   0  0  0  0  0  0  0  0  0  0  0  0
  -23.7624  -17.7947   20.8085 C   0  0  0  0  0  0  0  0  0  0  0  0
  -23.4719  -14.5663   20.9326 C   0  0  0  0  0  0  0  0  0  0  0  0
  -24.9500  -11.5091   20.5918 C   0  0  0  0  0  0  0  0  0  0  0  0
  -30.9138  -25.7749   18.2157 C   0  0  0  0  0  0  0  0  0  0  0  0
  -20.6391  -21.8204   20.4995 C   0  0  0  0  0  0  0  0  0  0  0  0
  -24.7128  -17.1175   18.5737 C   0  0  0  0  0  0  0  0  0  0  0  0
  -25.8172  -15.4831   20.7768 C   0  0  0  0  0  0  0  0  0  0  0  0
  -20.5267  -20.3886   21.0167 C   0  0  0  0  0  0  0  0  0  0  0  0
  -28.5854  -27.5782   16.2149 C   0  0  0  0  0  0  0  0  0  0  0  0
  -21.7062  -20.0548   21.9245 C   0  0  0  0  0  0  0  0  0  0  0  0
  -27.5131  -28.0217   17.2116 C   0  0  0  0  0  0  0  0  0  0  0  0
  -29.1280  -26.1907   16.5500 C   0  0  0  0  0  0  0  0  0  0  0  0
  -28.5488  -26.4790   18.9280 C   0  0  0  0  0  0  0  0  0  0  0  0
  -23.0331  -20.1472   21.1615 C   0  0  1  0  0  0  0  0  0  0  0  0
  -23.8645  -16.7095   19.7742 C   0  0  1  0  0  0  0  0  0  0  0  0
  -28.0111  -27.8959   18.6640 C   0  0  2  0  0  0  0  0  0  0  0  0
  -36.0853  -20.7808   19.9179 C   0  0  0  0  0  0  0  0  0  0  0  0
  -24.4685   -9.0547   20.7949 C   0  0  0  0  0  0  0  0  0  0  0  0
  -23.5842  -14.7983   23.9729 C   0  0  0  0  0  0  0  0  0  0  0  0
  -24.0557  -12.3415   24.0734 C   0  0  0  0  0  0  0  0  0  0  0  0
  -21.9031  -13.1584   23.1132 C   0  0  0  0  0  0  0  0  0  0  0  0
  -25.5717  -11.0328   17.7378 C   0  0  0  0  0  0  0  0  0  0  0  0
  -34.8244  -21.0561   19.1043 C   0  0  0  0  0  0  0  0  0  0  0  0
  -32.5992  -25.4087   20.0002 C   0  0  0  0  0  0  0  0  0  0  0  0
  -33.1704  -19.7702   21.1572 C   0  0  0  0  0  0  0  0  0  0  0  0
  -32.0437  -17.5411   21.1726 C   0  0  0  0  0  0  0  0  0  0  0  0
  -30.6998  -16.8778   20.9445 C   0  0  0  0  0  0  0  0  0  1  0  0
  -24.0431  -13.4742   21.8045 C   0  0  1  0  0  0  0  0  0  0  0  0
  -24.5103  -10.2537   19.8604 C   0  0  2  0  0  0  0  0  0  0  0  0
  -23.4133  -13.4605   23.2260 C   0  0  0  0  0  0  0  0  0  0  0  0
  -25.7980  -27.5827   19.7062 N   0  0  0  0  0  0  0  0  0  0  0  0
  -26.9377  -28.2933   19.6603 N   0  0  0  0  0  0  0  0  0  0  0  0
  -24.3814  -15.5196   20.4533 N   0  0  0  0  0  0  0  0  0  0  0  0
  -29.5853  -26.1388   17.9407 N   0  0  0  0  0  0  0  0  0  0  0  0
  -28.0548  -30.1372   20.6415 N   0  0  0  0  0  0  0  0  0  0  0  0
  -24.1252  -29.9973   22.8630 N   0  0  0  0  0  0  0  0  0  0  0  0
  -23.2230  -18.9751   20.3341 N   0  0  0  0  0  0  0  0  0  0  0  0
  -23.8727  -12.2292   21.0634 N   0  0  0  0  0  0  0  0  0  0  0  0
  -31.2668  -25.7569   19.5595 N   0  0  0  0  0  0  0  0  0  0  0  0
  -25.4506   -9.9478   18.7453 N   0  3  0  0  0  0  0  0  0  0  0  0
  -31.9163  -19.0011   20.9351 N   0  3  0  0  0  0  0  0  0  0  0  0
  -26.1110  -31.1264   22.6614 O   0  0  0  0  0  0  0  0  0  0  0  0
  -24.1435  -17.5766   21.9526 O   0  0  0  0  0  0  0  0  0  0  0  0
  -22.2645  -14.5691   20.6801 O   0  0  0  0  0  0  0  0  0  0  0  0
  -26.1310  -11.8181   20.7341 O   0  0  0  0  0  0  0  0  0  0  0  0
  -31.7268  -25.4926   17.3289 O   0  0  0  0  0  0  0  0  0  0  0  0
  -20.0103  -26.3314   22.0485 O   0  0  0  0  0  0  0  0  0  0  0  0
  -30.2847  -17.0909   19.5959 O   0  0  0  0  0  0  0  0  0  1  0  0
  -16.0070  -30.0659   22.7055 F   0  0  0  0  0  0  0  0  0  0  0  0
  -20.2274  -28.3232   23.9533 F   0  0  0  0  0  0  0  0  0  0  0  0
  -30.7709  -24.2421   22.1910 Cl  0  0  0  0  0  0  0  0  0  0  0  0
  1  2  1  0  0  0  0
  1  5  2  0  0  0  0
  2  6  2  0  0  0  0
  3  8  2  0  0  0  0
  3 17  1  0  0  0  0
  4  9  1  0  0  0  0
  4 17  2  0  0  0  0
  5 19  1  0  0  0  0
  6 21  1  0  0  0  0
  7 10  2  0  0  0  0
  7 20  1  0  0  0  0
  8 26  1  0  0  0  0
  9 26  2  0  0  0  0
 10 27  1  0  0  0  0
 11 12  2  0  0  0  0
 11 28  1  0  0  0  0
 12 29  1  0  0  0  0
 13 22  1  0  0  0  0
 13 27  2  0  0  0  0
 14 23  1  0  0  0  0
 14 24  2  0  0  0  0
 15 25  1  0  0  0  0
 15 31  2  0  0  0  0
 16 29  2  0  0  0  0
 16 30  1  0  0  0  0
 17 32  1  0  0  0  0
 18 32  1  0  0  0  0
 18 33  2  0  0  0  0
 18 34  1  0  0  0  0
 19 21  2  0  0  0  0
 19 39  1  0  0  0  0
 20 22  2  0  0  0  0
 20 40  1  0  0  0  0
 21 48  1  0  0  0  0
 22 41  1  0  0  0  0
 23 25  2  0  0  0  0
 23 57  1  0  0  0  0
 24 31  1  0  0  0  0
 24 58  1  0  0  0  0
 25 59  1  0  0  0  0
 26 81  1  0  0  0  0
 27 82  1  0  0  0  0
 28 30  2  0  0  0  0
 28 81  1  0  0  0  0
 29 83  1  0  0  0  0
 30 84  1  0  0  0  0
 31 85  1  0  0  0  0
 32 65  2  0  0  0  0
 33 66  1  0  0  0  0
 33 69  1  0  0  0  0
 34 70  1  0  0  0  0
 34 76  2  0  0  0  0
 35 49  1  0  0  0  0
 35 71  1  0  0  0  0
 35 77  2  0  0  0  0
 36 62  1  0  0  0  0
 36 67  1  0  0  0  0
 36 78  2  0  0  0  0
 37 63  1  0  0  0  0
 37 72  1  0  0  0  0
 37 79  2  0  0  0  0
 38 68  1  0  0  0  0
 38 73  1  0  0  0  0
 38 80  2  0  0  0  0
 39 42  1  0  0  0  0
 40 49  1  0  0  0  0
 41 67  1  0  0  0  0
 42 44  1  0  0  0  0
 43 45  1  0  0  0  0
 43 46  1  0  0  0  0
 44 48  1  0  0  0  0
 45 50  1  0  0  0  0
 46 68  1  0  0  0  0
 47 50  1  0  0  0  0
 47 68  1  0  0  0  0
 48 71  1  0  0  0  0
 49 67  1  0  0  0  0
 50 66  1  0  0  0  0
 51 57  1  0  0  0  0
 52 63  1  0  0  0  0
 53 64  1  0  0  0  0
 54 64  1  0  0  0  0
 55 64  1  0  0  0  0
 56 74  1  0  0  0  0
 58 73  1  0  0  0  0
 59 75  1  0  0  0  0
 60 61  1  0  0  0  0
 60 75  1  0  0  0  0
 61 82  1  0  0  0  0
 62 64  1  0  0  0  0
 62 72  1  0  0  0  0
 63 74  1  0  0  0  0
 65 66  1  0  0  0  0
M  CHG  2  74   1  75   1
M  ISO  4  38 100  61 101  73 100  82 101
M  END
> <Batch ID>
0042

> <Smiles>
CCc1cc(C[100NH:0][100C:0](=O)N2CCCC(n3nc(-c4ccc(Oc5ccc(F)cc5F)cc4)c(C(N)=O)c3N)C2)c(Cl)cc1CNC[101CH2:1][101O:1]c1ccc2c(c1)CN(C(=O)C(NC(=O)C(C)NC)C(C)(C)C)C(C(=O)NC1CCCc3ccccc31)C2

> <Shape>
0.218

> <Color>
0.067

> <Negative vol penalty>
0.000

$$$$

  -OEChem-04042322123D

 91100  0     1  0  0  0  0  0999 V2000
  -27.3684  -37.4849   24.2361 C   0  0  0  0  0  0  0  0  0  0  0  0
  -27.6274  -36.1539   24.5470 C   0  0  0  0  0  0  0  0  0  0  0  0
  -23.2096   -9.9493   22.3897 C   0  0  0  0  0  0  0  0  0  0  0  0
  -25.5878   -9.5276   22.3339 C   0  0  0  0  0  0  0  0  0  0  0  0
  -26.0925  -37.8679   23.8247 C   0  0  0  0  0  0  0  0  0  0  0  0
  -26.6103  -35.2052   24.4477 C   0  0  0  0  0  0  0  0  0  0  0  0
  -27.2870  -29.4812   20.1269 C   0  0  0  0  0  0  0  0  0  0  0  0
  -23.0233   -8.7975   23.1541 C   0  0  0  0  0  0  0  0  0  0  0  0
  -25.4015   -8.3758   23.0983 C   0  0  0  0  0  0  0  0  0  0  0  0
  -27.4276  -28.2510   19.4843 C   0  0  0  0  0  0  0  0  0  0  0  0
  -22.8730   -5.4611   22.6344 C   0  0  0  0  0  0  0  0  0  0  0  0
  -21.8269   -4.6100   22.2782 C   0  0  0  0  0  0  0  0  0  0  0  0
  -25.1755  -27.6468   20.1253 C   0  0  0  0  0  0  0  0  0  0  0  0
  -24.4977  -20.8094   22.5351 C   0  0  0  0  0  0  0  0  0  0  0  0
  -22.6935  -19.2049   22.4492 C   0  0  0  0  0  0  0  0  0  0  0  0
  -20.8325   -4.9199   24.4582 C   0  0  0  0  0  0  0  0  0  0  0  0
  -24.4919  -10.3143   21.9796 C   0  0  0  0  0  0  0  0  0  0  0  0
  -24.1352  -11.7820   19.9237 C   0  0  0  0  0  0  0  0  0  0  0  0
  -25.0617  -36.9218   23.7110 C   0  0  0  0  0  0  0  0  0  0  0  0
  -26.0832  -29.8055   20.7587 C   0  0  0  0  0  0  0  0  0  0  0  0
  -25.3190  -35.5762   24.0356 C   0  0  0  0  0  0  0  0  0  0  0  0
  -25.0245  -28.8826   20.7598 C   0  0  0  0  0  0  0  0  0  0  0  0
  -23.9221  -19.6146   22.9672 C   0  0  0  0  0  0  0  0  0  0  0  0
  -23.8445  -21.5947   21.5850 C   0  0  0  0  0  0  0  0  0  0  0  0
  -22.0403  -19.9901   21.4992 C   0  0  0  0  0  0  0  0  0  0  0  0
  -22.6159  -21.1850   21.0671 C   0  0  0  0  0  0  0  0  0  0  0  0
  -24.1192   -8.0108   23.5084 C   0  0  0  0  0  0  0  0  0  0  0  0
  -26.3745  -27.3360   19.4837 C   0  0  0  0  0  0  0  0  0  0  0  0
  -22.8989   -6.0415   23.9026 C   0  0  0  0  0  0  0  0  0  0  0  0
  -20.8066   -4.3394   23.1901 C   0  0  0  0  0  0  0  0  0  0  0  0
  -21.8787   -5.7710   24.8144 C   0  0  0  0  0  0  0  0  0  0  0  0
  -24.6850  -11.5037   21.1895 C   0  0  0  0  0  0  0  0  0  0  0  0
  -24.6180  -13.0279   19.6061 C   0  0  0  0  0  0  0  0  0  0  0  0
  -25.2370  -24.0948   19.1756 C   0  0  0  0  0  0  0  0  0  0  0  0
  -24.3481  -24.4367   18.2284 C   0  0  0  0  0  0  0  0  0  0  0  0
  -23.2658  -10.9854   19.1081 C   0  0  0  0  0  0  0  0  0  0  0  0
  -24.1237  -32.3409   22.7102 C   0  0  0  0  0  0  0  0  0  0  0  0
  -22.1928  -31.0933   20.6791 C   0  0  0  0  0  0  0  0  0  0  0  0
  -19.6784  -30.4630   18.4614 C   0  0  0  0  0  0  0  0  0  0  0  0
  -26.5467  -17.6218   22.9268 C   0  0  0  0  0  0  0  0  0  0  0  0
  -23.6865  -37.3915   23.3076 C   0  0  0  0  0  0  0  0  0  0  0  0
  -25.9085  -31.0939   21.5159 C   0  0  0  0  0  0  0  0  0  0  0  0
  -23.7600  -29.2603   21.4819 C   0  0  0  0  0  0  0  0  0  0  0  0
  -22.7609  -36.2600   22.8681 C   0  0  0  0  0  0  0  0  0  0  0  0
  -28.3597  -15.9052   20.3885 C   0  0  0  0  0  0  0  0  0  0  0  0
  -27.5559  -22.8282   20.2881 C   0  0  0  0  0  0  0  0  0  0  0  0
  -22.8321  -35.0985   23.8544 C   0  0  0  0  0  0  0  0  0  0  0  0
  -27.6922  -24.1835   19.6033 C   0  0  0  0  0  0  0  0  0  0  0  0
  -27.5739  -14.6076   20.1918 C   0  0  0  0  0  0  0  0  0  0  0  0
  -28.3739  -16.3399   21.8524 C   0  0  0  0  0  0  0  0  0  0  0  0
  -26.2574  -15.1527   22.2818 C   0  0  0  0  0  0  0  0  0  0  0  0
  -26.3981  -22.0239   19.7061 C   0  0  0  0  0  0  0  0  0  0  0  0
  -24.2482  -34.5135   23.9164 C   0  0  1  0  0  0  0  0  0  0  0  0
  -26.3803  -24.9655   19.6463 C   0  0  1  0  0  0  0  0  0  1  0  0
  -24.4805  -31.6606   21.4212 C   0  0  1  0  0  0  0  0  0  0  0  0
  -26.1675  -14.7040   20.8132 C   0  0  2  0  0  0  0  0  0  0  0  0
  -21.9161  -22.0269   20.0481 C   0  0  0  0  0  0  0  0  0  0  0  0
  -17.1786  -30.5209   18.2492 C   0  0  0  0  0  0  0  0  0  0  0  0
  -21.9962  -28.5439   22.3423 C   0  0  0  0  0  0  0  0  0  0  0  0
  -19.7434  -28.1400   21.3273 C   0  0  0  0  0  0  0  0  0  0  0  0
  -20.1386  -30.1770   22.7120 C   0  0  0  0  0  0  0  0  0  0  0  0
  -19.7951  -32.4354   16.2581 C   0  0  0  0  0  0  0  0  0  0  0  0
  -24.6201  -18.7754   23.9834 C   0  0  0  0  0  0  0  0  0  0  0  0
  -24.4855  -22.8748   21.1363 C   0  0  0  0  0  0  0  0  0  0  0  0
  -21.1597  -30.0301   20.4038 C   0  0  1  0  0  0  0  0  0  0  0  0
  -18.4753  -31.2878   18.0413 C   0  0  2  0  0  0  0  0  0  0  0  0
  -20.7256  -19.5291   20.9600 C   0  0  0  0  0  0  0  0  0  0  0  0
  -20.7824  -29.2258   21.6798 C   0  0  0  0  0  0  0  0  0  0  0  0
  -25.4580  -12.4932   21.6448 N   0  0  0  0  0  0  0  0  0  0  0  0
  -25.3975  -13.4054   20.6597 N   0  0  0  0  0  0  0  0  0  0  0  0
  -23.4198  -30.6634   21.1988 N   0  0  0  0  0  0  0  0  0  0  0  0
  -27.0097  -16.4132   22.3809 N   0  0  0  0  0  0  0  0  0  0  0  0
  -24.4476  -13.8265   18.5311 N   0  0  0  0  0  0  0  0  0  0  0  0
  -22.8660   -9.7299   19.5858 N   0  0  0  0  0  0  0  0  0  0  0  0
  -24.4974  -33.6700   22.7671 N   0  0  0  0  0  0  0  0  0  0  0  0
  -20.0341  -30.7088   19.7707 N   0  0  0  0  0  0  0  0  0  0  0  0
  -25.2402  -17.6070   23.3995 N   0  0  0  0  0  0  0  0  0  0  0  0
  -25.0912  -22.7807   19.7629 N   0  3  1  0  0  0  0  0  0  0  0  0
  -18.5774  -31.6564   16.6009 N   0  3  0  0  0  0  0  0  0  0  0  0
  -22.8688  -11.3685   17.9815 O   0  0  0  0  0  0  0  0  0  0  0  0
  -23.5500  -31.7079   23.5888 O   0  0  0  0  0  0  0  0  0  0  0  0
  -21.9199  -32.2741   20.4460 O   0  0  0  0  0  0  0  0  0  0  0  0
  -20.2437  -29.6763   17.7050 O   0  0  0  0  0  0  0  0  0  0  0  0
  -27.2442  -18.6403   22.9837 O   0  0  0  0  0  0  0  0  0  0  0  0
  -23.9378   -6.8869   24.2544 O   0  0  0  0  0  0  0  0  0  0  0  0
  -26.5169  -26.1386   18.8506 O   0  0  0  0  0  0  0  0  0  1  0  0
  -19.8013   -3.5233   22.8473 F   0  0  0  0  0  0  0  0  0  0  0  0
  -21.8975   -6.3266   26.0337 F   0  0  0  0  0  0  0  0  0  0  0  0
  -20.3063  -18.3420   21.4876 F   0  0  0  0  0  0  0  0  0  0  0  0
  -19.7048  -20.4048   21.1923 F   0  0  0  0  0  0  0  0  0  0  0  0
  -20.7510  -19.3430   19.6091 F   0  0  0  0  0  0  0  0  0  0  0  0
  1  2  1  0  0  0  0
  1  5  2  0  0  0  0
  2  6  2  0  0  0  0
  3  8  2  0  0  0  0
  3 17  1  0  0  0  0
  4  9  1  0  0  0  0
  4 17  2  0  0  0  0
  5 19  1  0  0  0  0
  6 21  1  0  0  0  0
  7 10  2  0  0  0  0
  7 20  1  0  0  0  0
  8 27  1  0  0  0  0
  9 27  2  0  0  0  0
 10 28  1  0  0  0  0
 11 12  2  0  0  0  0
 11 29  1  0  0  0  0
 12 30  1  0  0  0  0
 13 22  1  0  0  0  0
 13 28  2  0  0  0  0
 14 23  2  0  0  0  0
 14 24  1  0  0  0  0
 15 23  1  0  0  0  0
 15 25  2  0  0  0  0
 16 30  2  0  0  0  0
 16 31  1  0  0  0  0
 17 32  1  0  0  0  0
 18 32  1  0  0  0  0
 18 33  2  0  0  0  0
 18 36  1  0  0  0  0
 19 21  2  0  0  0  0
 19 41  1  0  0  0  0
 20 22  2  0  0  0  0
 20 42  1  0  0  0  0
 21 53  1  0  0  0  0
 22 43  1  0  0  0  0
 23 63  1  0  0  0  0
 24 26  2  0  0  0  0
 24 64  1  0  0  0  0
 25 26  1  0  0  0  0
 25 67  1  0  0  0  0
 26 57  1  0  0  0  0
 27 85  1  0  0  0  0
 28 86  1  0  0  0  0
 29 31  2  0  0  0  0
 29 85  1  0  0  0  0
 30 87  1  0  0  0  0
 31 88  1  0  0  0  0
 32 69  2  0  0  0  0
 33 70  1  0  0  0  0
 33 73  1  0  0  0  0
 34 35  2  0  0  0  0
 34 54  1  0  0  0  0
 34 78  1  0  0  0  0
 36 74  1  0  0  0  0
 36 80  2  0  0  0  0
 37 55  1  0  0  0  0
 37 75  1  0  0  0  0
 37 81  2  0  0  0  0
 38 65  1  0  0  0  0
 38 71  1  0  0  0  0
 38 82  2  0  0  0  0
 39 66  1  0  0  0  0
 39 76  1  0  0  0  0
 39 83  2  0  0  0  0
 40 72  1  0  0  0  0
 40 77  1  0  0  0  0
 40 84  2  0  0  0  0
 41 44  1  0  0  0  0
 42 55  1  0  0  0  0
 43 71  1  0  0  0  0
 44 47  1  0  0  0  0
 45 49  1  0  0  0  0
 45 50  1  0  0  0  0
 46 48  1  0  0  0  0
 46 52  1  0  0  0  0
 47 53  1  0  0  0  0
 48 54  1  0  0  0  0
 49 56  1  0  0  0  0
 50 72  1  0  0  0  0
 51 56  1  0  0  0  0
 51 72  1  0  0  0  0
 52 78  1  0  0  0  0
 53 75  1  0  0  0  0
 54 86  1  0  0  0  0
 55 71  1  0  0  0  0
 56 70  1  0  0  0  0
 58 66  1  0  0  0  0
 59 68  1  0  0  0  0
 60 68  1  0  0  0  0
 61 68  1  0  0  0  0
 62 79  1  0  0  0  0
 63 77  1  0  0  0  0
 64 78  1  0  0  0  0
 65 68  1  0  0  0  0
 65 76  1  0  0  0  0
 66 79  1  0  0  0  0
 67 89  1  0  0  0  0
 67 90  1  0  0  0  0
 67 91  1  0  0  0  0
 69 70  1  0  0  0  0
M  CHG  2  78   1  79   1
M  ISO  4  40 100  54 101  77 100  86 101
M  END
> <Batch ID>
0042

> <Smiles>
C=C1N(Cc2cc(C[100NH:0][100C:0](=O)N3CCCC(n4nc(-c5ccc(Oc6ccc(F)cc6F)cc5)c(C(N)=O)c4N)C3)cc(C(F)(F)F)c2C)CCC[101CH:1]1[101O:1]c1ccc2c(c1)CN(C(=O)C(NC(=O)C(C)NC)C(C)(C)C)C(C(=O)NC1CCCc3ccccc31)C2

> <Shape>
0.251

> <Color>
0.088

> <Negative vol penalty>
0.000

$$$$

  -OEChem-04042322123D

 98108  0     1  0  0  0  0  0999 V2000
  -18.2552  -24.6723   27.0247 C   0  0  0  0  0  0  0  0  0  0  0  0
  -19.3995  -24.2024   26.3881 C   0  0  0  0  0  0  0  0  0  0  0  0
  -23.3016  -11.8022   23.2473 C   0  0  0  0  0  0  0  0  0  0  0  0
  -24.2261   -9.7931   22.2747 C   0  0  0  0  0  0  0  0  0  0  0  0
  -17.6377  -25.8385   26.5748 C   0  0  0  0  0  0  0  0  0  0  0  0
  -19.9263  -24.8980   25.3004 C   0  0  0  0  0  0  0  0  0  0  0  0
  -25.8411  -25.5030   23.8324 C   0  0  0  0  0  0  0  0  0  0  0  0
  -22.7056  -11.0412   24.2529 C   0  0  0  0  0  0  0  0  0  0  0  0
  -23.6301   -9.0321   23.2803 C   0  0  0  0  0  0  0  0  0  0  0  0
  -26.6536  -24.8345   22.9176 C   0  0  0  0  0  0  0  0  0  0  0  0
  -20.5583   -7.8118   23.9918 C   0  0  0  0  0  0  0  0  0  0  0  0
  -19.8987   -6.6422   23.6145 C   0  0  0  0  0  0  0  0  0  0  0  0
  -26.2613  -26.5819   21.3014 C   0  0  0  0  0  0  0  0  0  0  0  0
  -32.0333  -17.8114   20.4019 C   0  0  0  0  0  0  0  0  0  0  0  0
  -21.3927   -5.3507   25.0064 C   0  0  0  0  0  0  0  0  0  0  0  0
  -24.0619  -11.1782   22.2582 C   0  0  0  0  0  0  0  0  0  0  0  0
  -24.0297  -12.7926   20.2833 C   0  0  0  0  0  0  0  0  0  0  0  0
  -18.1627  -26.5541   25.4872 C   0  0  0  0  0  0  0  0  0  0  0  0
  -25.2227  -26.7125   23.4841 C   0  0  0  0  0  0  0  0  0  0  0  0
  -19.3144  -26.0742   24.8347 C   0  0  0  0  0  0  0  0  0  0  0  0
  -25.4434  -27.2650   22.2144 C   0  0  0  0  0  0  0  0  0  0  0  0
  -31.9244  -18.9599   19.6179 C   0  0  0  0  0  0  0  0  0  0  0  0
  -30.9915  -17.4481   21.2554 C   0  0  0  0  0  0  0  0  0  0  0  0
  -30.7737  -19.7451   19.6874 C   0  0  0  0  0  0  0  0  0  0  0  0
  -29.7319  -19.3819   20.5408 C   0  0  0  0  0  0  0  0  0  0  0  0
  -22.8698   -9.6561   24.2694 C   0  0  0  0  0  0  0  0  0  0  0  0
  -26.8615  -25.3725   21.6509 C   0  0  0  0  0  0  0  0  0  0  0  0
  -21.6352   -7.7510   24.8763 C   0  0  0  0  0  0  0  0  0  0  0  0
  -20.3158   -5.4116   24.1218 C   0  0  0  0  0  0  0  0  0  0  0  0
  -22.0523   -6.5204   25.3837 C   0  0  0  0  0  0  0  0  0  0  0  0
  -29.8408  -18.2334   21.3248 C   0  0  0  0  0  0  0  0  0  0  0  0
  -24.6774  -11.9637   21.2189 C   0  0  0  0  0  0  0  0  0  0  0  0
  -25.0480  -13.3113   19.5213 C   0  0  0  0  0  0  0  0  0  0  0  0
  -30.8375  -22.7479   20.4810 C   0  0  0  0  0  0  0  0  0  0  0  0
  -31.1587  -22.2509   21.6901 C   0  0  0  0  0  0  0  0  0  0  0  0
  -22.6326  -13.0691   20.1179 C   0  0  0  0  0  0  0  0  0  0  0  0
  -22.2123  -27.6967   23.2153 C   0  0  0  0  0  0  0  0  0  0  0  0
  -23.6097  -30.5826   22.7238 C   0  0  0  0  0  0  0  0  0  0  0  0
  -25.5679  -33.0427   22.5701 C   0  0  0  0  0  0  0  0  0  0  0  0
  -30.8657  -14.2478   20.5836 C   0  0  0  0  0  0  0  0  0  0  0  0
  -17.4333  -27.7837   25.0071 C   0  0  0  0  0  0  0  0  0  0  0  0
  -24.3707  -27.4347   24.4915 C   0  0  0  0  0  0  0  0  0  0  0  0
  -24.8190  -28.5709   21.7984 C   0  0  0  0  0  0  0  0  0  0  0  0
  -18.2693  -28.6663   24.0838 C   0  0  0  0  0  0  0  0  0  0  0  0
  -33.1278  -15.8826   15.6238 C   0  0  0  0  0  0  0  0  0  0  0  0
  -34.5793  -16.2383   15.9406 C   0  0  0  0  0  0  0  0  0  0  0  0
  -31.5385  -25.4741   19.0876 C   0  0  0  0  0  0  0  0  0  0  0  0
  -29.4556  -12.2891   17.9660 C   0  0  0  0  0  0  0  0  0  0  0  0
  -32.0913  -16.4235   16.6039 C   0  0  0  0  0  0  0  0  0  0  0  0
  -34.8802  -17.7171   15.7163 C   0  0  0  0  0  0  0  0  0  0  0  0
  -32.5352  -24.3582   18.7700 C   0  0  0  0  0  0  0  0  0  0  0  0
  -18.9673  -27.8197   23.0241 C   0  0  0  0  0  0  0  0  0  0  0  0
  -30.6307  -25.2345   20.2953 C   0  0  0  0  0  0  0  0  0  0  0  0
  -28.0127  -12.0584   18.4185 C   0  0  0  0  0  0  0  0  0  0  0  0
  -30.4253  -12.2793   19.1457 C   0  0  0  0  0  0  0  0  0  0  0  0
  -28.6369  -12.9762   20.6915 C   0  0  0  0  0  0  0  0  0  0  0  0
  -31.8657  -23.0883   18.2501 C   0  0  0  0  0  0  0  0  0  0  0  0
  -32.1457  -17.9264   16.8526 C   0  0  0  0  0  0  0  0  0  0  0  0
  -34.5888  -18.6412   16.8925 C   0  0  0  0  0  0  0  0  0  0  0  0
  -19.9302  -26.8144   23.6672 C   0  0  1  0  0  0  0  0  0  0  0  0
  -29.8687  -23.8987   20.2681 C   0  0  2  0  0  0  0  0  0  0  0  0
  -23.3777  -28.4000   23.8517 C   0  0  1  0  0  0  0  0  0  0  0  0
  -27.6150  -13.0332   19.5431 C   0  0  2  0  0  0  0  0  0  0  0  0
  -28.5041  -20.2374   20.6004 C   0  0  0  0  0  0  0  0  0  0  0  0
  -26.7937  -35.2160   22.3022 C   0  0  0  0  0  0  0  0  0  0  0  0
  -22.8365  -29.7968   19.8787 C   0  0  0  0  0  0  0  0  0  0  0  0
  -23.7009  -32.0155   19.1054 C   0  0  0  0  0  0  0  0  0  0  0  0
  -21.7846  -31.9122   20.6991 C   0  0  0  0  0  0  0  0  0  0  0  0
  -24.5864  -34.0507   25.1738 C   0  0  0  0  0  0  0  0  0  0  0  0
  -31.1526  -16.2092   22.0768 C   0  0  0  0  0  0  0  0  0  0  0  0
  -33.0541  -19.3266   18.7127 C   0  0  0  0  0  0  0  0  0  0  0  0
  -30.6609  -20.9787   18.8409 C   0  0  0  0  0  0  0  0  0  0  0  0
  -28.7182  -23.9322   21.2847 C   0  0  0  0  0  0  0  0  0  1  0  0
  -24.1076  -31.3373   21.5149 C   0  0  1  0  0  0  0  0  0  0  0  0
  -25.6052  -34.5143   22.9409 C   0  0  2  0  0  0  0  0  0  0  0  0
  -23.1242  -31.2476   20.3138 C   0  0  0  0  0  0  0  0  0  0  0  0
  -26.0043  -11.9533   21.0669 N   0  0  0  0  0  0  0  0  0  0  0  0
  -26.1988  -12.7819   20.0269 N   0  0  0  0  0  0  0  0  0  0  0  0
  -23.9890  -29.2360   22.8165 N   0  0  0  0  0  0  0  0  0  0  0  0
  -29.9921  -13.2262   20.1761 N   0  0  0  0  0  0  0  0  0  0  0  0
  -25.0623  -14.1640   18.4748 N   0  0  0  0  0  0  0  0  0  0  0  0
  -22.0780  -14.1496   20.8173 N   0  0  0  0  0  0  0  0  0  0  0  0
  -21.1525  -27.4742   24.0736 N   0  0  0  0  0  0  0  0  0  0  0  0
  -24.3773  -32.6983   21.9659 N   0  0  0  0  0  0  0  0  0  0  0  0
  -30.3742  -15.1057   21.5599 N   0  0  0  0  0  0  0  0  0  0  0  0
  -31.4962  -22.1249   19.3528 N   0  3  2  0  0  0  0  0  0  0  0  0
  -33.3624  -18.2671   17.6825 N   0  3  0  0  0  0  0  0  0  0  0  0
  -25.7044  -34.6735   24.4193 N   0  3  0  0  0  0  0  0  0  0  0  0
  -21.8944  -12.3684   19.3847 O   0  0  0  0  0  0  0  0  0  0  0  0
  -22.2698  -27.3807   22.0327 O   0  0  0  0  0  0  0  0  0  0  0  0
  -22.9159  -31.1682   23.5588 O   0  0  0  0  0  0  0  0  0  0  0  0
  -26.5030  -32.2762   22.7907 O   0  0  0  0  0  0  0  0  0  0  0  0
  -31.9977  -14.3885   20.1084 O   0  0  0  0  0  0  0  0  0  0  0  0
  -22.2885   -8.9132   25.2506 O   0  0  0  0  0  0  0  0  0  0  0  0
  -27.6536  -24.7217   20.7560 O   0  0  0  0  0  0  0  0  0  1  0  0
  -19.6813   -4.2886   23.7606 F   0  0  0  0  0  0  0  0  0  0  0  0
  -23.0854   -6.4558   26.2347 F   0  0  0  0  0  0  0  0  0  0  0  0
  -28.5493  -17.7796   22.3866 Cl  0  0  0  0  0  0  0  0  0  0  0  0
  1  2  1  0  0  0  0
  1  5  2  0  0  0  0
  2  6  2  0  0  0  0
  3  8  2  0  0  0  0
  3 16  1  0  0  0  0
  4  9  1  0  0  0  0
  4 16  2  0  0  0  0
  5 18  1  0  0  0  0
  6 20  1  0  0  0  0
  7 10  2  0  0  0  0
  7 19  1  0  0  0  0
  8 26  1  0  0  0  0
  9 26  2  0  0  0  0
 10 27  1  0  0  0  0
 11 12  2  0  0  0  0
 11 28  1  0  0  0  0
 12 29  1  0  0  0  0
 13 21  1  0  0  0  0
 13 27  2  0  0  0  0
 14 22  2  0  0  0  0
 14 23  1  0  0  0  0
 15 29  2  0  0  0  0
 15 30  1  0  0  0  0
 16 32  1  0  0  0  0
 17 32  1  0  0  0  0
 17 33  2  0  0  0  0
 17 36  1  0  0  0  0
 18 20  2  0  0  0  0
 18 41  1  0  0  0  0
 19 21  2  0  0  0  0
 19 42  1  0  0  0  0
 20 60  1  0  0  0  0
 21 43  1  0  0  0  0
 22 24  1  0  0  0  0
 22 71  1  0  0  0  0
 23 31  2  0  0  0  0
 23 70  1  0  0  0  0
 24 25  2  0  0  0  0
 24 72  1  0  0  0  0
 25 31  1  0  0  0  0
 25 64  1  0  0  0  0
 26 94  1  0  0  0  0
 27 95  1  0  0  0  0
 28 30  2  0  0  0  0
 28 94  1  0  0  0  0
 29 96  1  0  0  0  0
 30 97  1  0  0  0  0
 31 98  1  0  0  0  0
 32 77  2  0  0  0  0
 33 78  1  0  0  0  0
 33 81  1  0  0  0  0
 34 35  2  0  0  0  0
 34 61  1  0  0  0  0
 34 86  1  0  0  0  0
 36 82  1  0  0  0  0
 36 89  2  0  0  0  0
 37 62  1  0  0  0  0
 37 83  1  0  0  0  0
 37 90  2  0  0  0  0
 38 74  1  0  0  0  0
 38 79  1  0  0  0  0
 38 91  2  0  0  0  0
 39 75  1  0  0  0  0
 39 84  1  0  0  0  0
 39 92  2  0  0  0  0
 40 80  1  0  0  0  0
 40 85  1  0  0  0  0
 40 93  2  0  0  0  0
 41 44  1  0  0  0  0
 42 62  1  0  0  0  0
 43 79  1  0  0  0  0
 44 52  1  0  0  0  0
 45 46  1  0  0  0  0
 45 49  1  0  0  0  0
 46 50  1  0  0  0  0
 47 51  1  0  0  0  0
 47 53  1  0  0  0  0
 48 54  1  0  0  0  0
 48 55  1  0  0  0  0
 49 58  1  0  0  0  0
 50 59  1  0  0  0  0
 51 57  1  0  0  0  0
 52 60  1  0  0  0  0
 53 61  1  0  0  0  0
 54 63  1  0  0  0  0
 55 80  1  0  0  0  0
 56 63  1  0  0  0  0
 56 80  1  0  0  0  0
 57 86  1  0  0  0  0
 58 87  1  0  0  0  0
 59 87  1  0  0  0  0
 60 83  1  0  0  0  0
 61 73  1  0  0  0  0
 62 79  1  0  0  0  0
 63 78  1  0  0  0  0
 65 75  1  0  0  0  0
 66 76  1  0  0  0  0
 67 76  1  0  0  0  0
 68 76  1  0  0  0  0
 69 88  1  0  0  0  0
 70 85  1  0  0  0  0
 71 87  1  0  0  0  0
 72 86  1  0  0  0  0
 73 95  1  0  0  0  0
 74 76  1  0  0  0  0
 74 84  1  0  0  0  0
 75 88  1  0  0  0  0
 77 78  1  0  0  0  0
M  CHG  3  86   1  87   1  88   1
M  ISO  4  40 100  73 101  85 100  95 101
M  END
> <Batch ID>
0042

> <Smiles>
C=C1C([101CH2:1][101O:1]c2ccc3c(c2)CN(C(=O)C(NC(=O)C(C)NC)C(C)(C)C)C(C(=O)NC2CCCc4ccccc42)C3)CCCCN1Cc1c(CN2CCCCCC2)cc(C[100NH:0][100C:0](=O)N2CCCC(n3nc(-c4ccc(Oc5ccc(F)cc5F)cc4)c(C(N)=O)c3N)C2)c(Cl)c1C

> <Shape>
0.295

> <Color>
0.078

> <Negative vol penalty>
0.000

$$$$

  -OEChem-04042322123D

 83 91  0     1  0  0  0  0  0999 V2000
  -39.2081  -32.3232   18.6313 C   0  0  0  0  0  0  0  0  0  0  0  0
  -39.6324  -31.0015   18.7243 C   0  0  0  0  0  0  0  0  0  0  0  0
  -23.0045   -9.8855   19.9911 C   0  0  0  0  0  0  0  0  0  0  0  0
  -23.7231   -9.9586   22.2966 C   0  0  0  0  0  0  0  0  0  0  0  0
  -38.1033  -32.7527   19.3654 C   0  0  0  0  0  0  0  0  0  0  0  0
  -38.9528  -30.1089   19.5524 C   0  0  0  0  0  0  0  0  0  0  0  0
  -37.1448  -23.1926   20.0139 C   0  0  0  0  0  0  0  0  0  0  0  0
  -22.2391   -8.7522   20.2656 C   0  0  0  0  0  0  0  0  0  0  0  0
  -22.9576   -8.8253   22.5711 C   0  0  0  0  0  0  0  0  0  0  0  0
  -37.2159  -22.1175   20.8987 C   0  0  0  0  0  0  0  0  0  0  0  0
  -23.2088   -5.4826   22.1302 C   0  0  0  0  0  0  0  0  0  0  0  0
  -23.7959   -4.4732   22.8931 C   0  0  0  0  0  0  0  0  0  0  0  0
  -35.2725  -22.9518   22.0591 C   0  0  0  0  0  0  0  0  0  0  0  0
  -32.0448  -16.5659   22.5259 C   0  0  0  0  0  0  0  0  0  0  0  0
  -30.4812  -18.3865   23.9483 C   0  0  0  0  0  0  0  0  0  0  0  0
  -22.0668   -4.7284   24.5612 C   0  0  0  0  0  0  0  0  0  0  0  0
  -23.7465  -10.4887   21.0067 C   0  0  0  0  0  0  0  0  0  0  0  0
  -24.1282  -13.0032   20.8090 C   0  0  0  0  0  0  0  0  0  0  0  0
  -37.4039  -31.8625   20.1955 C   0  0  0  0  0  0  0  0  0  0  0  0
  -36.1418  -24.1629   20.1519 C   0  0  0  0  0  0  0  0  0  0  0  0
  -37.8384  -30.5272   20.2993 C   0  0  0  0  0  0  0  0  0  0  0  0
  -35.1893  -24.0369   21.1732 C   0  0  0  0  0  0  0  0  0  0  0  0
  -32.6476  -17.4642   23.4063 C   0  0  0  0  0  0  0  0  0  0  0  0
  -29.8785  -17.4881   23.0678 C   0  0  0  0  0  0  0  0  0  0  0  0
  -30.6603  -16.5778   22.3565 C   0  0  0  0  0  0  0  0  0  0  0  0
  -22.2156   -8.2221   21.5556 C   0  0  0  0  0  0  0  0  0  0  0  0
  -36.2814  -21.9985   21.9232 C   0  0  0  0  0  0  0  0  0  0  0  0
  -22.0507   -6.1150   22.5827 C   0  0  0  0  0  0  0  0  0  0  0  0
  -23.2249   -4.0961   24.1086 C   0  0  0  0  0  0  0  0  0  0  0  0
  -21.4798   -5.7379   23.7982 C   0  0  0  0  0  0  0  0  0  0  0  0
  -31.8658  -18.3745   24.1175 C   0  0  0  0  0  0  0  0  0  0  0  0
  -24.5379  -11.6591   20.7237 C   0  0  0  0  0  0  0  0  0  0  0  0
  -25.2378  -13.7243   20.4412 C   0  0  0  0  0  0  0  0  0  0  0  0
  -22.8583  -13.5510   21.1869 C   0  0  0  0  0  0  0  0  0  0  0  0
  -36.1091  -27.2896   20.7236 C   0  0  0  0  0  0  0  0  0  0  0  0
  -32.9268  -26.9593   20.1890 C   0  0  0  0  0  0  0  0  0  0  0  0
  -30.1913  -24.9190   20.1537 C   0  0  0  0  0  0  0  0  0  0  0  0
  -30.7150  -14.6967   20.6818 C   0  0  0  0  0  0  0  0  0  0  0  0
  -36.2442  -32.3846   21.0061 C   0  0  0  0  0  0  0  0  0  0  0  0
  -36.0628  -25.3022   19.1730 C   0  0  0  0  0  0  0  0  0  0  0  0
  -34.0808  -25.0407   21.3520 C   0  0  0  0  0  0  0  0  0  0  0  0
  -35.3518  -31.2831   21.5722 C   0  0  0  0  0  0  0  0  0  0  0  0
  -29.6074  -12.2210   18.3751 C   0  0  0  0  0  0  0  0  0  0  0  0
  -36.1980  -30.1837   22.2063 C   0  0  0  0  0  0  0  0  0  0  0  0
  -28.1560  -11.9647   18.7875 C   0  0  0  0  0  0  0  0  0  0  0  0
  -30.5040  -12.4768   19.5851 C   0  0  0  0  0  0  0  0  0  0  0  0
  -28.5836  -13.2745   20.9061 C   0  0  0  0  0  0  0  0  0  0  0  0
  -37.1123  -29.5228   21.1676 C   0  0  1  0  0  0  0  0  0  0  0  0
  -35.3074  -26.5092   19.7206 C   0  0  1  0  0  0  0  0  0  0  0  0
  -27.6296  -13.0758   19.7169 C   0  0  2  0  0  0  0  0  0  0  0  0
  -28.3933  -17.5236   22.9059 C   0  0  0  0  0  0  0  0  0  0  0  0
  -27.7211  -24.9435   19.7121 C   0  0  0  0  0  0  0  0  0  0  0  0
  -32.4608  -28.3115   22.8843 C   0  0  0  0  0  0  0  0  0  0  0  0
  -30.1057  -27.4641   22.8237 C   0  0  0  0  0  0  0  0  0  0  0  0
  -30.9064  -29.0439   21.0671 C   0  0  0  0  0  0  0  0  0  0  0  0
  -30.4500  -22.9697   17.9418 C   0  0  0  0  0  0  0  0  0  0  0  0
  -34.1393  -17.4197   23.5600 C   0  0  0  0  0  0  0  0  0  0  0  0
  -36.3032  -18.5612   23.0567 C   0  0  0  0  0  0  0  0  0  0  0  0
  -36.8900  -19.7286   22.2880 C   0  0  0  0  0  0  0  0  0  1  0  0
  -31.7245  -26.6517   21.0487 C   0  0  1  0  0  0  0  0  0  0  0  0
  -29.1016  -24.7131   19.1171 C   0  0  2  0  0  0  0  0  0  0  0  0
  -31.3213  -27.8498   21.9540 C   0  0  0  0  0  0  0  0  0  0  0  0
  -25.8085  -11.5311   20.3322 N   0  0  0  0  0  0  0  0  0  0  0  0
  -26.2068  -12.8041   20.1682 N   0  0  0  0  0  0  0  0  0  0  0  0
  -34.0497  -26.1402   20.3734 N   0  0  0  0  0  0  0  0  0  0  0  0
  -29.9449  -13.5444   20.4172 N   0  0  0  0  0  0  0  0  0  0  0  0
  -25.4694  -15.0495   20.3277 N   0  0  0  0  0  0  0  0  0  0  0  0
  -21.8270  -12.6683   21.5356 N   0  0  0  0  0  0  0  0  0  0  0  0
  -30.0669  -15.6579   21.4569 N   0  0  0  0  0  0  0  0  0  0  0  0
  -36.3603  -28.5958   20.3493 N   0  0  0  0  0  0  0  0  0  0  0  0
  -30.6736  -26.2107   20.1381 N   0  0  0  0  0  0  0  0  0  0  0  0
  -29.1553  -23.3248   18.5778 N   0  3  0  0  0  0  0  0  0  0  0  0
  -34.8301  -18.5442   22.8729 N   0  3  0  0  0  0  0  0  0  0  0  0
  -22.6395  -14.7861   21.1989 O   0  0  0  0  0  0  0  0  0  0  0  0
  -36.4717  -26.7472   21.7609 O   0  0  0  0  0  0  0  0  0  0  0  0
  -32.8691  -27.8874   19.3785 O   0  0  0  0  0  0  0  0  0  0  0  0
  -30.5737  -24.0245   20.9048 O   0  0  0  0  0  0  0  0  0  0  0  0
  -31.8547  -14.8334   20.2298 O   0  0  0  0  0  0  0  0  0  0  0  0
  -21.4686   -7.1164   21.8238 O   0  0  0  0  0  0  0  0  0  0  0  0
  -36.3489  -20.9505   22.7886 O   0  0  0  0  0  0  0  0  0  1  0  0
  -23.7879   -3.1257   24.8404 F   0  0  0  0  0  0  0  0  0  0  0  0
  -20.3666   -6.3409   24.2377 F   0  0  0  0  0  0  0  0  0  0  0  0
  -32.5767  -19.5011   25.2153 Cl  0  0  0  0  0  0  0  0  0  0  0  0
  1  2  1  0  0  0  0
  1  5  2  0  0  0  0
  2  6  2  0  0  0  0
  3  8  2  0  0  0  0
  3 17  1  0  0  0  0
  4  9  1  0  0  0  0
  4 17  2  0  0  0  0
  5 19  1  0  0  0  0
  6 21  1  0  0  0  0
  7 10  2  0  0  0  0
  7 20  1  0  0  0  0
  8 26  1  0  0  0  0
  9 26  2  0  0  0  0
 10 27  1  0  0  0  0
 11 12  2  0  0  0  0
 11 28  1  0  0  0  0
 12 29  1  0  0  0  0
 13 22  1  0  0  0  0
 13 27  2  0  0  0  0
 14 23  1  0  0  0  0
 14 25  2  0  0  0  0
 15 24  2  0  0  0  0
 15 31  1  0  0  0  0
 16 29  2  0  0  0  0
 16 30  1  0  0  0  0
 17 32  1  0  0  0  0
 18 32  1  0  0  0  0
 18 33  2  0  0  0  0
 18 34  1  0  0  0  0
 19 21  2  0  0  0  0
 19 39  1  0  0  0  0
 20 22  2  0  0  0  0
 20 40  1  0  0  0  0
 21 48  1  0  0  0  0
 22 41  1  0  0  0  0
 23 31  2  0  0  0  0
 23 57  1  0  0  0  0
 24 25  1  0  0  0  0
 24 51  1  0  0  0  0
 25 69  1  0  0  0  0
 26 79  1  0  0  0  0
 27 80  1  0  0  0  0
 28 30  2  0  0  0  0
 28 79  1  0  0  0  0
 29 81  1  0  0  0  0
 30 82  1  0  0  0  0
 31 83  1  0  0  0  0
 32 63  2  0  0  0  0
 33 64  1  0  0  0  0
 33 67  1  0  0  0  0
 34 68  1  0  0  0  0
 34 74  2  0  0  0  0
 35 49  1  0  0  0  0
 35 70  1  0  0  0  0
 35 75  2  0  0  0  0
 36 60  1  0  0  0  0
 36 65  1  0  0  0  0
 36 76  2  0  0  0  0
 37 61  1  0  0  0  0
 37 71  1  0  0  0  0
 37 77  2  0  0  0  0
 38 66  1  0  0  0  0
 38 69  1  0  0  0  0
 38 78  2  0  0  0  0
 39 42  1  0  0  0  0
 40 49  1  0  0  0  0
 41 65  1  0  0  0  0
 42 44  1  0  0  0  0
 43 45  1  0  0  0  0
 43 46  1  0  0  0  0
 44 48  1  0  0  0  0
 45 50  1  0  0  0  0
 46 66  1  0  0  0  0
 47 50  1  0  0  0  0
 47 66  1  0  0  0  0
 48 70  1  0  0  0  0
 49 65  1  0  0  0  0
 50 64  1  0  0  0  0
 52 61  1  0  0  0  0
 53 62  1  0  0  0  0
 54 62  1  0  0  0  0
 55 62  1  0  0  0  0
 56 72  1  0  0  0  0
 57 73  1  0  0  0  0
 58 59  1  0  0  0  0
 58 73  1  0  0  0  0
 59 80  1  0  0  0  0
 60 62  1  0  0  0  0
 60 71  1  0  0  0  0
 61 72  1  0  0  0  0
 63 64  1  0  0  0  0
M  CHG  2  72   1  73   1
M  ISO  4  38 100  59 101  69 100  80 101
M  END
> <Batch ID>
0042

> <Smiles>
CNC(C)C(=O)NC(C(=O)N1Cc2cc([101O:1][101CH2:1]CNCc3cc([100NH:0][100C:0](=O)N4CCCC(n5nc(-c6ccc(Oc7ccc(F)cc7F)cc6)c(C(N)=O)c5N)C4)c(C)cc3Cl)ccc2CC1C(=O)NC1CCCc2ccccc21)C(C)(C)C

> <Shape>
0.223

> <Color>
0.198

> <Negative vol penalty>
0.000

$$$$

  -OEChem-04042322123D

 87 96  0     1  0  0  0  0  0999 V2000
  -16.4351  -29.2812   23.9001 C   0  0  0  0  0  0  0  0  0  0  0  0
  -17.1931  -28.4658   23.0657 C   0  0  0  0  0  0  0  0  0  0  0  0
  -22.9671   -9.8860   21.4535 C   0  0  0  0  0  0  0  0  0  0  0  0
  -24.2698  -10.5463   23.3781 C   0  0  0  0  0  0  0  0  0  0  0  0
  -17.0488  -30.3116   24.6110 C   0  0  0  0  0  0  0  0  0  0  0  0
  -18.5651  -28.6812   22.9410 C   0  0  0  0  0  0  0  0  0  0  0  0
  -22.9013  -24.4308   22.1423 C   0  0  0  0  0  0  0  0  0  0  0  0
  -22.2569   -8.9827   22.2442 C   0  0  0  0  0  0  0  0  0  0  0  0
  -23.5596   -9.6430   24.1688 C   0  0  0  0  0  0  0  0  0  0  0  0
  -23.5681  -23.9730   21.0068 C   0  0  0  0  0  0  0  0  0  0  0  0
  -22.7331   -5.8978   23.5409 C   0  0  0  0  0  0  0  0  0  0  0  0
  -22.5194   -4.6181   23.0288 C   0  0  0  0  0  0  0  0  0  0  0  0
  -25.3902  -25.4828   21.4755 C   0  0  0  0  0  0  0  0  0  0  0  0
  -30.8330  -20.1290   20.9049 C   0  0  0  0  0  0  0  0  0  0  0  0
  -31.4100  -17.7989   20.6311 C   0  0  0  0  0  0  0  0  0  0  0  0
  -20.1319   -4.9616   23.1671 C   0  0  0  0  0  0  0  0  0  0  0  0
  -23.9737  -10.6678   22.0205 C   0  0  0  0  0  0  0  0  0  0  0  0
  -24.1872  -12.6893   20.4791 C   0  0  0  0  0  0  0  0  0  0  0  0
  -18.4307  -30.5336   24.5024 C   0  0  0  0  0  0  0  0  0  0  0  0
  -23.4699  -25.4275   22.9483 C   0  0  0  0  0  0  0  0  0  0  0  0
  -19.1976  -29.7165   23.6502 C   0  0  0  0  0  0  0  0  0  0  0  0
  -24.7297  -25.9497   22.6222 C   0  0  0  0  0  0  0  0  0  0  0  0
  -29.4986  -19.8310   20.6287 C   0  0  0  0  0  0  0  0  0  0  0  0
  -29.1200  -18.5170   20.3537 C   0  0  0  0  0  0  0  0  0  0  0  0
  -30.0756  -17.5009   20.3549 C   0  0  0  0  0  0  0  0  0  0  0  0
  -22.5531   -8.8612   23.6018 C   0  0  0  0  0  0  0  0  0  0  0  0
  -24.8115  -24.5011   20.6716 C   0  0  0  0  0  0  0  0  0  0  0  0
  -21.6463   -6.7094   23.8661 C   0  0  0  0  0  0  0  0  0  0  0  0
  -21.2188   -4.1500   22.8419 C   0  0  0  0  0  0  0  0  0  0  0  0
  -20.3457   -6.2413   23.6792 C   0  0  0  0  0  0  0  0  0  0  0  0
  -31.7887  -19.1129   20.9061 C   0  0  0  0  0  0  0  0  0  0  0  0
  -24.7081  -11.6007   21.2041 C   0  0  0  0  0  0  0  0  0  0  0  0
  -25.2833  -13.2561   19.8760 C   0  0  0  0  0  0  0  0  0  0  0  0
  -26.7800  -22.0273   19.2945 C   0  0  0  0  0  0  0  0  0  0  0  0
  -25.7103  -21.3225   18.8904 C   0  0  0  0  0  0  0  0  0  0  0  0
  -22.8337  -13.1472   20.3614 C   0  0  0  0  0  0  0  0  0  0  0  0
  -22.6392  -28.3787   23.7876 C   0  0  0  0  0  0  0  0  0  0  0  0
  -25.2400  -28.1453   25.7120 C   0  0  0  0  0  0  0  0  0  0  0  0
  -28.5970  -26.8479   25.4566 C   0  0  0  0  0  0  0  0  0  0  0  0
  -30.5528  -15.0470   20.0433 C   0  0  0  0  0  0  0  0  0  0  0  0
  -19.0414  -31.6897   25.2541 C   0  0  0  0  0  0  0  0  0  0  0  0
  -22.7499  -25.8915   24.1847 C   0  0  0  0  0  0  0  0  0  0  0  0
  -25.3925  -27.0069   23.4657 C   0  0  0  0  0  0  0  0  0  0  0  0
  -20.5628  -31.6148   25.3552 C   0  0  0  0  0  0  0  0  0  0  0  0
  -30.0382  -11.5764   19.4376 C   0  0  0  0  0  0  0  0  0  0  0  0
  -29.1545  -23.6114   19.0262 C   0  0  0  0  0  0  0  0  0  0  0  0
  -21.1718  -31.2743   23.9988 C   0  0  0  0  0  0  0  0  0  0  0  0
  -27.7891  -24.2895   19.0059 C   0  0  0  0  0  0  0  0  0  0  0  0
  -28.5627  -11.3629   19.7835 C   0  0  0  0  0  0  0  0  0  0  0  0
  -30.6991  -12.5882   20.3720 C   0  0  0  0  0  0  0  0  0  0  0  0
  -28.5302  -13.6646   20.8266 C   0  0  0  0  0  0  0  0  0  0  0  0
  -29.0744  -22.1819   18.5006 C   0  0  0  0  0  0  0  0  0  0  0  0
  -20.6926  -29.9029   23.5076 C   0  0  1  0  0  0  0  0  0  0  0  0
  -26.7453  -23.4661   19.7589 C   0  0  1  0  0  0  0  0  0  1  0  0
  -23.1899  -27.2768   24.6480 C   0  0  1  0  0  0  0  0  0  0  0  0
  -27.8051  -12.7022   19.8719 C   0  0  2  0  0  0  0  0  0  0  0  0
  -27.6871  -18.2020   20.0580 C   0  0  0  0  0  0  0  0  0  0  0  0
  -30.1465  -25.9718   27.2254 C   0  0  0  0  0  0  0  0  0  0  0  0
  -26.3191  -30.9988   25.7707 C   0  0  0  0  0  0  0  0  0  0  0  0
  -28.6166  -30.0497   26.0687 C   0  0  0  0  0  0  0  0  0  0  0  0
  -26.8643  -29.6355   27.7952 C   0  0  0  0  0  0  0  0  0  0  0  0
  -28.9554  -24.2777   24.0336 C   0  0  0  0  0  0  0  0  0  0  0  0
  -28.4907  -20.9423   20.6337 C   0  0  0  0  0  0  0  0  0  0  0  0
  -26.7102  -28.4550   25.5648 C   0  0  1  0  0  0  0  0  0  0  0  0
  -29.1465  -25.6082   26.1389 C   0  0  2  0  0  0  0  0  0  0  0  0
  -27.1116  -29.7773   26.2775 C   0  0  0  0  0  0  0  0  0  0  0  0
  -26.0320  -11.4811   21.0746 N   0  0  0  0  0  0  0  0  0  0  0  0
  -26.3524  -12.5017   20.2611 N   0  0  0  0  0  0  0  0  0  0  0  0
  -24.6459  -27.4324   24.6611 N   0  0  0  0  0  0  0  0  0  0  0  0
  -29.9287  -13.8334   20.4018 N   0  0  0  0  0  0  0  0  0  0  0  0
  -25.4274  -14.3211   19.0590 N   0  0  0  0  0  0  0  0  0  0  0  0
  -22.3646  -14.0903   21.2860 N   0  0  0  0  0  0  0  0  0  0  0  0
  -29.7128  -16.1595   20.0778 N   0  0  0  0  0  0  0  0  0  0  0  0
  -21.4028  -28.8442   24.1926 N   0  0  0  0  0  0  0  0  0  0  0  0
  -27.4255  -27.2771   26.0437 N   0  0  0  0  0  0  0  0  0  0  0  0
  -28.0591  -21.3527   19.2527 N   0  3  1  0  0  0  0  0  0  0  0  0
  -29.8290  -24.7303   25.1467 N   0  3  0  0  0  0  0  0  0  0  0  0
  -22.0579  -12.7201   19.4730 O   0  0  0  0  0  0  0  0  0  0  0  0
  -23.2887  -28.7780   22.8282 O   0  0  0  0  0  0  0  0  0  0  0  0
  -24.6426  -28.5158   26.7256 O   0  0  0  0  0  0  0  0  0  0  0  0
  -29.1534  -27.3842   24.5009 O   0  0  0  0  0  0  0  0  0  0  0  0
  -31.7377  -15.0916   19.7027 O   0  0  0  0  0  0  0  0  0  0  0  0
  -21.8601   -7.9800   24.3737 O   0  0  0  0  0  0  0  0  0  0  0  0
  -25.4642  -24.0565   19.5634 O   0  0  0  0  0  0  0  0  0  1  0  0
  -21.0137   -2.9217   22.3487 F   0  0  0  0  0  0  0  0  0  0  0  0
  -19.2975   -7.0168   23.9887 F   0  0  0  0  0  0  0  0  0  0  0  0
  -33.4351  -19.4810   21.2458 Cl  0  0  0  0  0  0  0  0  0  0  0  0
  1  2  1  0  0  0  0
  1  5  2  0  0  0  0
  2  6  2  0  0  0  0
  3  8  2  0  0  0  0
  3 17  1  0  0  0  0
  4  9  1  0  0  0  0
  4 17  2  0  0  0  0
  5 19  1  0  0  0  0
  6 21  1  0  0  0  0
  7 10  2  0  0  0  0
  7 20  1  0  0  0  0
  8 26  1  0  0  0  0
  9 26  2  0  0  0  0
 10 27  1  0  0  0  0
 11 12  2  0  0  0  0
 11 28  1  0  0  0  0
 12 29  1  0  0  0  0
 13 22  1  0  0  0  0
 13 27  2  0  0  0  0
 14 23  1  0  0  0  0
 14 31  2  0  0  0  0
 15 25  2  0  0  0  0
 15 31  1  0  0  0  0
 16 29  2  0  0  0  0
 16 30  1  0  0  0  0
 17 32  1  0  0  0  0
 18 32  1  0  0  0  0
 18 33  2  0  0  0  0
 18 36  1  0  0  0  0
 19 21  2  0  0  0  0
 19 41  1  0  0  0  0
 20 22  2  0  0  0  0
 20 42  1  0  0  0  0
 21 53  1  0  0  0  0
 22 43  1  0  0  0  0
 23 24  2  0  0  0  0
 23 63  1  0  0  0  0
 24 25  1  0  0  0  0
 24 57  1  0  0  0  0
 25 73  1  0  0  0  0
 26 83  1  0  0  0  0
 27 84  1  0  0  0  0
 28 30  2  0  0  0  0
 28 83  1  0  0  0  0
 29 85  1  0  0  0  0
 30 86  1  0  0  0  0
 31 87  1  0  0  0  0
 32 67  2  0  0  0  0
 33 68  1  0  0  0  0
 33 71  1  0  0  0  0
 34 35  2  0  0  0  0
 34 54  1  0  0  0  0
 34 76  1  0  0  0  0
 36 72  1  0  0  0  0
 36 78  2  0  0  0  0
 37 55  1  0  0  0  0
 37 74  1  0  0  0  0
 37 79  2  0  0  0  0
 38 64  1  0  0  0  0
 38 69  1  0  0  0  0
 38 80  2  0  0  0  0
 39 65  1  0  0  0  0
 39 75  1  0  0  0  0
 39 81  2  0  0  0  0
 40 70  1  0  0  0  0
 40 73  1  0  0  0  0
 40 82  2  0  0  0  0
 41 44  1  0  0  0  0
 42 55  1  0  0  0  0
 43 69  1  0  0  0  0
 44 47  1  0  0  0  0
 45 49  1  0  0  0  0
 45 50  1  0  0  0  0
 46 48  1  0  0  0  0
 46 52  1  0  0  0  0
 47 53  1  0  0  0  0
 48 54  1  0  0  0  0
 49 56  1  0  0  0  0
 50 70  1  0  0  0  0
 51 56  1  0  0  0  0
 51 70  1  0  0  0  0
 52 76  1  0  0  0  0
 53 74  1  0  0  0  0
 54 84  1  0  0  0  0
 55 69  1  0  0  0  0
 56 68  1  0  0  0  0
 58 65  1  0  0  0  0
 59 66  1  0  0  0  0
 60 66  1  0  0  0  0
 61 66  1  0  0  0  0
 62 77  1  0  0  0  0
 63 76  1  0  0  0  0
 64 66  1  0  0  0  0
 64 75  1  0  0  0  0
 65 77  1  0  0  0  0
 67 68  1  0  0  0  0
M  CHG  2  76   1  77   1
M  ISO  4  40 100  54 101  73 100  84 101
M  END
> <Batch ID>
0042

> <Smiles>
C=C1N(Cc2cc(Cl)cc([100NH:0][100C:0](=O)N3CCCC(n4nc(-c5ccc(Oc6ccc(F)cc6F)cc5)c(C(N)=O)c4N)C3)c2C)CCC[101CH:1]1[101O:1]c1ccc2c(c1)CN(C(=O)C(NC(=O)C(C)NC)C(C)(C)C)C(C(=O)NC1CCCc3ccccc31)C2

> <Shape>
0.261

> <Color>
0.118

> <Negative vol penalty>
0.000

$$$$

  -OEChem-04042322123D

 84 92  0     1  0  0  0  0  0999 V2000
  -35.7627  -25.5543   28.9643 C   0  0  0  0  0  0  0  0  0  0  0  0
  -35.4515  -24.9542   27.7483 C   0  0  0  0  0  0  0  0  0  0  0  0
  -23.0765   -9.8669   19.9383 C   0  0  0  0  0  0  0  0  0  0  0  0
  -23.8414   -9.8694   22.2300 C   0  0  0  0  0  0  0  0  0  0  0  0
  -35.2502  -26.8144   29.2698 C   0  0  0  0  0  0  0  0  0  0  0  0
  -34.6266  -25.6135   26.8377 C   0  0  0  0  0  0  0  0  0  0  0  0
  -35.0057  -25.4346   20.7278 C   0  0  0  0  0  0  0  0  0  0  0  0
  -22.3361   -8.7112   20.1867 C   0  0  0  0  0  0  0  0  0  0  0  0
  -23.1009   -8.7137   22.4784 C   0  0  0  0  0  0  0  0  0  0  0  0
  -34.3161  -24.6970   19.7664 C   0  0  0  0  0  0  0  0  0  0  0  0
  -19.8760   -7.9063   23.0858 C   0  0  0  0  0  0  0  0  0  0  0  0
  -19.1217   -7.8612   24.2582 C   0  0  0  0  0  0  0  0  0  0  0  0
  -32.8062  -26.5493   19.4370 C   0  0  0  0  0  0  0  0  0  0  0  0
  -29.1575  -19.7157   19.9606 C   0  0  0  0  0  0  0  0  0  0  0  0
  -31.6015  -18.3744   20.0616 C   0  0  0  0  0  0  0  0  0  0  0  0
  -20.3695   -5.9248   24.9865 C   0  0  0  0  0  0  0  0  0  0  0  0
  -23.8293  -10.4459   20.9600 C   0  0  0  0  0  0  0  0  0  0  0  0
  -24.1646  -12.9722   20.8462 C   0  0  0  0  0  0  0  0  0  0  0  0
  -34.4265  -27.4937   28.3584 C   0  0  0  0  0  0  0  0  0  0  0  0
  -34.5933  -26.7333   21.0594 C   0  0  0  0  0  0  0  0  0  0  0  0
  -34.1015  -26.8833   27.1319 C   0  0  0  0  0  0  0  0  0  0  0  0
  -33.4938  -27.3022   20.4010 C   0  0  0  0  0  0  0  0  0  0  0  0
  -29.3496  -18.6845   20.8799 C   0  0  0  0  0  0  0  0  0  0  0  0
  -30.1874  -20.0763   19.0917 C   0  0  0  0  0  0  0  0  0  0  0  0
  -30.5716  -18.0138   20.9305 C   0  0  0  0  0  0  0  0  0  0  0  0
  -22.3482   -8.1346   21.4567 C   0  0  0  0  0  0  0  0  0  0  0  0
  -33.2145  -25.2532   19.1229 C   0  0  0  0  0  0  0  0  0  0  0  0
  -20.8770   -6.9605   22.8637 C   0  0  0  0  0  0  0  0  0  0  0  0
  -19.3685   -6.8705   25.2086 C   0  0  0  0  0  0  0  0  0  0  0  0
  -21.1238   -5.9698   23.8141 C   0  0  0  0  0  0  0  0  0  0  0  0
  -31.4095  -19.4057   19.1422 C   0  0  0  0  0  0  0  0  0  0  0  0
  -24.5949  -11.6394   20.7039 C   0  0  0  0  0  0  0  0  0  0  0  0
  -25.2541  -13.7254   20.4826 C   0  0  0  0  0  0  0  0  0  0  0  0
  -22.8938  -13.4838   21.2693 C   0  0  0  0  0  0  0  0  0  0  0  0
  -33.5393  -28.1453   23.7049 C   0  0  0  0  0  0  0  0  0  0  0  0
  -33.7180  -30.8219   21.8810 C   0  0  0  0  0  0  0  0  0  0  0  0
  -33.7313  -32.2068   18.7619 C   0  0  0  0  0  0  0  0  0  0  0  0
  -30.7358  -14.7574   20.6619 C   0  0  0  0  0  0  0  0  0  0  0  0
  -33.8578  -28.8337   28.7529 C   0  0  0  0  0  0  0  0  0  0  0  0
  -35.3640  -27.5257   22.0794 C   0  0  0  0  0  0  0  0  0  0  0  0
  -33.0231  -28.7000   20.7062 C   0  0  0  0  0  0  0  0  0  0  0  0
  -33.2953  -29.6269   27.5762 C   0  0  0  0  0  0  0  0  0  0  0  0
  -29.5988  -12.3768   18.2710 C   0  0  0  0  0  0  0  0  0  0  0  0
  -32.4194  -28.7356   26.7015 C   0  0  0  0  0  0  0  0  0  0  0  0
  -28.1631  -12.0783   18.7062 C   0  0  0  0  0  0  0  0  0  0  0  0
  -30.5180  -12.5965   19.4705 C   0  0  0  0  0  0  0  0  0  0  0  0
  -28.6175  -13.3191   20.8632 C   0  0  0  0  0  0  0  0  0  0  0  0
  -33.2302  -27.5775   26.1076 C   0  0  1  0  0  0  0  0  0  0  0  0
  -34.5442  -28.6485   22.7076 C   0  0  1  0  0  0  0  0  0  0  0  0
  -27.6412  -13.1453   19.6872 C   0  0  2  0  0  0  0  0  0  0  0  0
  -28.2324  -18.3135   21.7991 C   0  0  0  0  0  0  0  0  0  0  0  0
  -33.8522  -34.4231   17.5912 C   0  0  0  0  0  0  0  0  0  0  0  0
  -30.8074  -31.3666   22.6168 C   0  0  0  0  0  0  0  0  0  0  0  0
  -30.7059  -32.9978   20.7202 C   0  0  0  0  0  0  0  0  0  0  0  0
  -32.2792  -33.3885   22.6162 C   0  0  0  0  0  0  0  0  0  0  0  0
  -36.2361  -31.4660   17.3704 C   0  0  0  0  0  0  0  0  0  0  0  0
  -30.7990  -16.9047   21.9046 C   0  0  0  0  0  0  0  0  0  0  0  0
  -29.9406  -21.1906   18.1178 C   0  0  0  0  0  0  0  0  0  0  0  0
  -30.4402  -23.5649   17.5249 C   0  0  0  0  0  0  0  0  0  0  0  0
  -31.1453  -24.8042   18.0400 C   0  0  0  0  0  0  0  0  0  1  0  0
  -32.7740  -31.5489   20.9540 C   0  0  1  0  0  0  0  0  0  0  0  0
  -34.6434  -33.2375   18.1213 C   0  0  2  0  0  0  0  0  0  0  0  0
  -31.6491  -32.2984   21.7222 C   0  0  0  0  0  0  0  0  0  0  0  0
  -25.8590  -11.5478   20.2826 N   0  0  0  0  0  0  0  0  0  0  0  0
  -26.2325  -12.8327   20.1570 N   0  0  0  0  0  0  0  0  0  0  0  0
  -33.8057  -29.4323   21.7155 N   0  0  0  0  0  0  0  0  0  0  0  0
  -29.9669  -13.6212   20.3605 N   0  0  0  0  0  0  0  0  0  0  0  0
  -25.4611  -15.0576   20.4129 N   0  0  0  0  0  0  0  0  0  0  0  0
  -21.8849  -12.5712   21.6063 N   0  0  0  0  0  0  0  0  0  0  0  0
  -34.0291  -28.0393   24.9927 N   0  0  0  0  0  0  0  0  0  0  0  0
  -33.6044  -32.4108   20.1197 N   0  0  0  0  0  0  0  0  0  0  0  0
  -30.1362  -15.6824   21.5078 N   0  0  0  0  0  0  0  0  0  0  0  0
  -35.3959  -32.6298   16.9876 N   0  3  0  0  0  0  0  0  0  0  0  0
  -30.6166  -22.4597   18.5003 N   0  3  0  0  0  0  0  0  0  0  0  0
  -22.6547  -14.7136   21.3306 O   0  0  0  0  0  0  0  0  0  0  0  0
  -32.4031  -27.8748   23.3338 O   0  0  0  0  0  0  0  0  0  0  0  0
  -34.3595  -31.4641   22.7163 O   0  0  0  0  0  0  0  0  0  0  0  0
  -33.1832  -31.3126   18.1213 O   0  0  0  0  0  0  0  0  0  0  0  0
  -31.8703  -14.9370   20.2063 O   0  0  0  0  0  0  0  0  0  0  0  0
  -21.6256   -7.0070   21.6995 O   0  0  0  0  0  0  0  0  0  0  0  0
  -32.5392  -24.5352   18.1847 O   0  0  0  0  0  0  0  0  0  1  0  0
  -18.6451   -6.8283   26.3351 F   0  0  0  0  0  0  0  0  0  0  0  0
  -22.0849   -5.0593   23.6068 F   0  0  0  0  0  0  0  0  0  0  0  0
  -32.7065  -19.8239   18.0830 Cl  0  0  0  0  0  0  0  0  0  0  0  0
  1  2  1  0  0  0  0
  1  5  2  0  0  0  0
  2  6  2  0  0  0  0
  3  8  2  0  0  0  0
  3 17  1  0  0  0  0
  4  9  1  0  0  0  0
  4 17  2  0  0  0  0
  5 19  1  0  0  0  0
  6 21  1  0  0  0  0
  7 10  2  0  0  0  0
  7 20  1  0  0  0  0
  8 26  1  0  0  0  0
  9 26  2  0  0  0  0
 10 27  1  0  0  0  0
 11 12  2  0  0  0  0
 11 28  1  0  0  0  0
 12 29  1  0  0  0  0
 13 22  1  0  0  0  0
 13 27  2  0  0  0  0
 14 23  2  0  0  0  0
 14 24  1  0  0  0  0
 15 25  2  0  0  0  0
 15 31  1  0  0  0  0
 16 29  2  0  0  0  0
 16 30  1  0  0  0  0
 17 32  1  0  0  0  0
 18 32  1  0  0  0  0
 18 33  2  0  0  0  0
 18 34  1  0  0  0  0
 19 21  2  0  0  0  0
 19 39  1  0  0  0  0
 20 22  2  0  0  0  0
 20 40  1  0  0  0  0
 21 48  1  0  0  0  0
 22 41  1  0  0  0  0
 23 25  1  0  0  0  0
 23 51  1  0  0  0  0
 24 31  2  0  0  0  0
 24 58  1  0  0  0  0
 25 57  1  0  0  0  0
 26 80  1  0  0  0  0
 27 81  1  0  0  0  0
 28 30  2  0  0  0  0
 28 80  1  0  0  0  0
 29 82  1  0  0  0  0
 30 83  1  0  0  0  0
 31 84  1  0  0  0  0
 32 64  2  0  0  0  0
 33 65  1  0  0  0  0
 33 68  1  0  0  0  0
 34 69  1  0  0  0  0
 34 75  2  0  0  0  0
 35 49  1  0  0  0  0
 35 70  1  0  0  0  0
 35 76  2  0  0  0  0
 36 61  1  0  0  0  0
 36 66  1  0  0  0  0
 36 77  2  0  0  0  0
 37 62  1  0  0  0  0
 37 71  1  0  0  0  0
 37 78  2  0  0  0  0
 38 67  1  0  0  0  0
 38 72  1  0  0  0  0
 38 79  2  0  0  0  0
 39 42  1  0  0  0  0
 40 49  1  0  0  0  0
 41 66  1  0  0  0  0
 42 44  1  0  0  0  0
 43 45  1  0  0  0  0
 43 46  1  0  0  0  0
 44 48  1  0  0  0  0
 45 50  1  0  0  0  0
 46 67  1  0  0  0  0
 47 50  1  0  0  0  0
 47 67  1  0  0  0  0
 48 70  1  0  0  0  0
 49 66  1  0  0  0  0
 50 65  1  0  0  0  0
 52 62  1  0  0  0  0
 53 63  1  0  0  0  0
 54 63  1  0  0  0  0
 55 63  1  0  0  0  0
 56 73  1  0  0  0  0
 57 72  1  0  0  0  0
 58 74  1  0  0  0  0
 59 60  1  0  0  0  0
 59 74  1  0  0  0  0
 60 81  1  0  0  0  0
 61 63  1  0  0  0  0
 61 71  1  0  0  0  0
 62 73  1  0  0  0  0
 64 65  1  0  0  0  0
M  CHG  2  73   1  74   1
M  ISO  4  38 100  60 101  72 100  81 101
M  END
> <Batch ID>
0042

> <Smiles>
CNC(C)C(=O)NC(C(=O)N1Cc2cc([101O:1][101CH2:1]CNCc3cc(C)c(C[100NH:0][100C:0](=O)N4CCCC(n5nc(-c6ccc(Oc7ccc(F)cc7F)cc6)c(C(N)=O)c5N)C4)cc3Cl)ccc2CC1C(=O)NC1CCCc2ccccc21)C(C)(C)C

> <Shape>
0.213

> <Color>
0.192

> <Negative vol penalty>
0.000

$$$$

  -OEChem-04042322123D

 88 97  0     1  0  0  0  0  0999 V2000
  -17.0387  -30.3592   23.9959 C   0  0  0  0  0  0  0  0  0  0  0  0
  -18.2788  -30.8298   24.4156 C   0  0  0  0  0  0  0  0  0  0  0  0
  -27.3709  -19.5529   20.5951 C   0  0  0  0  0  0  0  0  0  0  0  0
  -25.5295  -21.0141   21.1529 C   0  0  0  0  0  0  0  0  0  0  0  0
  -16.9548  -29.1751   23.2647 C   0  0  0  0  0  0  0  0  0  0  0  0
  -19.4356  -30.1159   24.1052 C   0  0  0  0  0  0  0  0  0  0  0  0
  -23.1785  -33.1027   22.4575 C   0  0  0  0  0  0  0  0  0  0  0  0
  -26.4851  -18.6754   19.9699 C   0  0  0  0  0  0  0  0  0  0  0  0
  -24.6437  -20.1366   20.5277 C   0  0  0  0  0  0  0  0  0  0  0  0
  -23.8887  -33.8220   23.4178 C   0  0  0  0  0  0  0  0  0  0  0  0
  -24.2813  -16.2844   20.8922 C   0  0  0  0  0  0  0  0  0  0  0  0
  -24.4255  -14.9223   21.1556 C   0  0  0  0  0  0  0  0  0  0  0  0
  -25.6564  -32.1828   23.3295 C   0  0  0  0  0  0  0  0  0  0  0  0
  -27.5576  -28.3219   25.5979 C   0  0  0  0  0  0  0  0  0  0  0  0
  -28.3244  -30.5408   26.1685 C   0  0  0  0  0  0  0  0  0  0  0  0
  -24.8067  -14.5083   18.8060 C   0  0  0  0  0  0  0  0  0  0  0  0
  -26.8930  -20.7223   21.1867 C   0  0  0  0  0  0  0  0  0  0  0  0
  -28.8974  -22.2993   21.2462 C   0  0  0  0  0  0  0  0  0  0  0  0
  -18.1121  -28.4513   22.9369 C   0  0  0  0  0  0  0  0  0  0  0  0
  -23.6979  -31.9103   21.9332 C   0  0  0  0  0  0  0  0  0  0  0  0
  -19.3670  -28.9202   23.3701 C   0  0  0  0  0  0  0  0  0  0  0  0
  -24.9520  -31.4516   22.3609 C   0  0  0  0  0  0  0  0  0  0  0  0
  -26.6412  -28.3684   26.6483 C   0  0  0  0  0  0  0  0  0  0  0  0
  -27.4079  -30.5873   27.2190 C   0  0  0  0  0  0  0  0  0  0  0  0
  -26.5663  -29.5011   27.4589 C   0  0  0  0  0  0  0  0  0  0  0  0
  -25.1215  -18.9672   19.9361 C   0  0  0  0  0  0  0  0  0  0  0  0
  -25.1265  -33.3606   23.8560 C   0  0  0  0  0  0  0  0  0  0  0  0
  -24.3997  -16.7585   19.5857 C   0  0  0  0  0  0  0  0  0  0  0  0
  -24.6882  -14.0342   20.1125 C   0  0  0  0  0  0  0  0  0  0  0  0
  -24.6624  -15.8704   18.5426 C   0  0  0  0  0  0  0  0  0  0  0  0
  -28.3993  -29.4081   25.3580 C   0  0  0  0  0  0  0  0  0  0  0  0
  -27.8074  -21.6290   21.8332 C   0  0  0  0  0  0  0  0  0  0  0  0
  -29.4419  -23.0330   22.2717 C   0  0  0  0  0  0  0  0  0  0  0  0
  -29.3748  -22.2621   19.8948 C   0  0  0  0  0  0  0  0  0  0  0  0
  -22.7662  -28.8713   21.9223 C   0  0  0  0  0  0  0  0  0  0  0  0
  -25.3175  -28.5022   19.9534 C   0  0  0  0  0  0  0  0  0  0  0  0
  -28.3522  -29.6521   18.8970 C   0  0  0  0  0  0  0  0  0  0  0  0
  -27.1824  -25.2225   27.3660 C   0  0  0  0  0  0  0  0  0  0  0  0
  -17.9670  -27.1518   22.1853 C   0  0  0  0  0  0  0  0  0  0  0  0
  -22.9315  -31.1602   20.8784 C   0  0  0  0  0  0  0  0  0  0  0  0
  -25.5628  -30.1880   21.8144 C   0  0  0  0  0  0  0  0  0  0  0  0
  -19.2742  -26.6514   21.5760 C   0  0  0  0  0  0  0  0  0  0  0  0
  -29.9543  -23.0136   27.0286 C   0  0  0  0  0  0  0  0  0  0  0  0
  -20.4055  -26.7368   22.5956 C   0  0  0  0  0  0  0  0  0  0  0  0
  -29.8168  -22.4687   25.6058 C   0  0  0  0  0  0  0  0  0  0  0  0
  -25.6369  -35.5716   26.6767 C   0  0  0  0  0  0  0  0  0  0  0  0
  -27.1098  -35.5390   27.0679 C   0  0  0  0  0  0  0  0  0  0  0  0
  -28.5928  -23.2121   27.6910 C   0  0  0  0  0  0  0  0  0  0  0  0
  -27.5055  -23.4908   25.4969 C   0  0  0  0  0  0  0  0  0  0  0  0
  -25.5248  -33.0677   26.9541 C   0  0  0  0  0  0  0  0  0  0  0  0
  -20.6468  -28.1869   23.0318 C   0  0  1  0  0  0  0  0  0  0  0  0
  -23.3216  -29.6880   20.7900 C   0  0  1  0  0  0  0  0  0  0  0  0
  -28.8500  -23.3268   24.7678 C   0  0  2  0  0  0  0  0  0  0  0  0
  -25.1925  -34.2519   26.0588 C   0  0  2  0  0  0  0  0  0  1  0  0
  -27.4418  -34.3556   27.9846 C   0  0  2  0  0  0  0  0  0  0  0  0
  -25.5841  -29.5507   28.5859 C   0  0  0  0  0  0  0  0  0  0  0  0
  -28.9411  -34.3329   28.2756 C   0  0  0  0  0  0  0  0  0  0  0  0
  -30.2147  -29.1181   17.3023 C   0  0  0  0  0  0  0  0  0  0  0  0
  -26.2849  -26.2958   21.8258 C   0  0  0  0  0  0  0  0  0  0  0  0
  -28.5389  -26.4666   20.7494 C   0  0  0  0  0  0  0  0  0  0  0  0
  -26.5580  -25.7923   19.3914 C   0  0  0  0  0  0  0  0  0  0  0  0
  -27.9809  -32.1954   17.4299 C   0  0  0  0  0  0  0  0  0  0  0  0
  -25.7512  -27.1920   26.8843 C   0  0  0  0  0  0  0  0  0  0  0  0
  -27.3466  -31.8171   28.0762 C   0  0  0  0  0  0  0  0  0  0  0  0
  -26.7825  -28.1942   20.1481 C   0  0  1  0  0  0  0  0  0  0  0  0
  -28.9142  -29.8798   17.5054 C   0  0  2  0  0  0  0  0  0  0  0  0
  -27.0290  -26.7101   20.5406 C   0  0  0  0  0  0  0  0  0  0  0  0
  -27.6665  -21.9116   23.1310 N   0  0  0  0  0  0  0  0  0  0  0  0
  -28.6751  -22.7676   23.3679 N   0  0  0  0  0  0  0  0  0  0  0  0
  -24.7720  -29.4866   20.7896 N   0  0  0  0  0  0  0  0  0  0  0  0
  -27.7244  -24.0355   26.8461 N   0  0  0  0  0  0  0  0  0  0  0  0
  -30.4971  -23.8727   22.3336 N   0  0  0  0  0  0  0  0  0  0  0  0
  -30.3331  -21.2988   19.5510 N   0  0  0  0  0  0  0  0  0  0  0  0
  -21.3879  -28.9036   22.0161 N   0  0  0  0  0  0  0  0  0  0  0  0
  -27.4532  -28.6068   18.9200 N   0  0  0  0  0  0  0  0  0  0  0  0
  -26.3755  -25.9466   26.4969 N   0  0  0  0  0  0  0  0  0  0  0  0
  -27.0054  -33.0649   27.2972 N   0  3  1  0  0  0  0  0  0  0  0  0
  -29.1794  -31.3296   17.2847 N   0  3  0  0  0  0  0  0  0  0  0  0
  -28.9760  -23.0700   19.0220 O   0  0  0  0  0  0  0  0  0  0  0  0
  -23.5313  -28.2561   22.6557 O   0  0  0  0  0  0  0  0  0  0  0  0
  -24.6824  -27.8970   19.0862 O   0  0  0  0  0  0  0  0  0  0  0  0
  -28.6807  -30.3309   19.8674 O   0  0  0  0  0  0  0  0  0  0  0  0
  -27.4058  -25.6112   28.5175 O   0  0  0  0  0  0  0  0  0  0  0  0
  -24.2570  -18.1112   19.3259 O   0  0  0  0  0  0  0  0  0  0  0  0
  -25.8215  -34.0604   24.7936 O   0  0  0  0  0  0  0  0  0  1  0  0
  -24.8283  -12.7264   20.3658 F   0  0  0  0  0  0  0  0  0  0  0  0
  -24.7783  -16.3202   17.2856 F   0  0  0  0  0  0  0  0  0  0  0  0
  -29.5305  -29.3508   24.0619 Cl  0  0  0  0  0  0  0  0  0  0  0  0
  1  2  1  0  0  0  0
  1  5  2  0  0  0  0
  2  6  2  0  0  0  0
  3  8  2  0  0  0  0
  3 17  1  0  0  0  0
  4  9  1  0  0  0  0
  4 17  2  0  0  0  0
  5 19  1  0  0  0  0
  6 21  1  0  0  0  0
  7 10  2  0  0  0  0
  7 20  1  0  0  0  0
  8 26  1  0  0  0  0
  9 26  2  0  0  0  0
 10 27  1  0  0  0  0
 11 12  2  0  0  0  0
 11 28  1  0  0  0  0
 12 29  1  0  0  0  0
 13 22  1  0  0  0  0
 13 27  2  0  0  0  0
 14 23  2  0  0  0  0
 14 31  1  0  0  0  0
 15 24  1  0  0  0  0
 15 31  2  0  0  0  0
 16 29  2  0  0  0  0
 16 30  1  0  0  0  0
 17 32  1  0  0  0  0
 18 32  1  0  0  0  0
 18 33  2  0  0  0  0
 18 34  1  0  0  0  0
 19 21  2  0  0  0  0
 19 39  1  0  0  0  0
 20 22  2  0  0  0  0
 20 40  1  0  0  0  0
 21 51  1  0  0  0  0
 22 41  1  0  0  0  0
 23 25  1  0  0  0  0
 23 63  1  0  0  0  0
 24 25  2  0  0  0  0
 24 64  1  0  0  0  0
 25 56  1  0  0  0  0
 26 84  1  0  0  0  0
 27 85  1  0  0  0  0
 28 30  2  0  0  0  0
 28 84  1  0  0  0  0
 29 86  1  0  0  0  0
 30 87  1  0  0  0  0
 31 88  1  0  0  0  0
 32 68  2  0  0  0  0
 33 69  1  0  0  0  0
 33 72  1  0  0  0  0
 34 73  1  0  0  0  0
 34 79  2  0  0  0  0
 35 52  1  0  0  0  0
 35 74  1  0  0  0  0
 35 80  2  0  0  0  0
 36 65  1  0  0  0  0
 36 70  1  0  0  0  0
 36 81  2  0  0  0  0
 37 66  1  0  0  0  0
 37 75  1  0  0  0  0
 37 82  2  0  0  0  0
 38 71  1  0  0  0  0
 38 76  1  0  0  0  0
 38 83  2  0  0  0  0
 39 42  1  0  0  0  0
 40 52  1  0  0  0  0
 41 70  1  0  0  0  0
 42 44  1  0  0  0  0
 43 45  1  0  0  0  0
 43 48  1  0  0  0  0
 44 51  1  0  0  0  0
 45 53  1  0  0  0  0
 46 47  1  0  0  0  0
 46 54  1  0  0  0  0
 47 55  1  0  0  0  0
 48 71  1  0  0  0  0
 49 53  1  0  0  0  0
 49 71  1  0  0  0  0
 50 54  1  0  0  0  0
 50 77  1  0  0  0  0
 51 74  1  0  0  0  0
 52 70  1  0  0  0  0
 53 69  1  0  0  0  0
 54 85  1  0  0  0  0
 55 57  1  0  0  0  0
 55 77  1  0  0  0  0
 58 66  1  0  0  0  0
 59 67  1  0  0  0  0
 60 67  1  0  0  0  0
 61 67  1  0  0  0  0
 62 78  1  0  0  0  0
 63 76  1  0  0  0  0
 64 77  1  0  0  0  0
 65 67  1  0  0  0  0
 65 75  1  0  0  0  0
 66 78  1  0  0  0  0
 68 69  1  0  0  0  0
M  CHG  2  77   1  78   1
M  ISO  4  38 100  54 101  76 100  85 101
M  END
> <Batch ID>
0042

> <Smiles>
CNC(C)C(=O)NC(C(=O)N1Cc2cc([101O:1][101CH:1]3CCC(C)N(Cc4cc(Cl)cc(C[100NH:0][100C:0](=O)N5CCCC(n6nc(-c7ccc(Oc8ccc(F)cc8F)cc7)c(C(N)=O)c6N)C5)c4C)C3)ccc2CC1C(=O)NC1CCCc2ccccc21)C(C)(C)C

> <Shape>
0.250

> <Color>
0.084

> <Negative vol penalty>
0.000

$$$$

  -OEChem-04042322123D

 83 91  0     1  0  0  0  0  0999 V2000
  -31.9703  -21.6626   21.8135 C   0  0  0  0  0  0  0  0  0  0  0  0
  -30.6310  -22.0193   21.9338 C   0  0  0  0  0  0  0  0  0  0  0  0
  -18.1868  -26.8851   21.4691 C   0  0  0  0  0  0  0  0  0  0  0  0
  -29.5204  -26.8747   18.6939 C   0  0  0  0  0  0  0  0  0  0  0  0
  -29.0622  -25.8880   20.8511 C   0  0  0  0  0  0  0  0  0  0  0  0
  -32.3340  -20.5862   21.0054 C   0  0  0  0  0  0  0  0  0  0  0  0
  -29.6546  -21.3004   21.2451 C   0  0  0  0  0  0  0  0  0  0  0  0
  -25.6310  -20.2344   24.1293 C   0  0  0  0  0  0  0  0  0  0  0  0
  -18.7580  -28.1477   21.6277 C   0  0  0  0  0  0  0  0  0  0  0  0
  -18.4393  -25.8827   22.4057 C   0  0  0  0  0  0  0  0  0  0  0  0
  -30.8290  -26.3956   18.7526 C   0  0  0  0  0  0  0  0  0  0  0  0
  -30.3709  -25.4087   20.9098 C   0  0  0  0  0  0  0  0  0  0  0  0
  -24.7125  -21.2608   24.3454 C   0  0  0  0  0  0  0  0  0  0  0  0
  -34.1846  -25.1240   18.1710 C   0  0  0  0  0  0  0  0  0  0  0  0
  -34.7063  -24.5208   17.0267 C   0  0  0  0  0  0  0  0  0  0  0  0
  -23.2780  -20.3268   22.6457 C   0  0  0  0  0  0  0  0  0  0  0  0
  -32.9553  -22.8580   17.1049 C   0  0  0  0  0  0  0  0  0  0  0  0
  -28.6370  -26.6210   19.7432 C   0  0  0  0  0  0  0  0  0  0  0  0
  -26.1624  -26.4597   19.1448 C   0  0  0  0  0  0  0  0  0  0  0  0
  -31.3606  -19.8477   20.3141 C   0  0  0  0  0  0  0  0  0  0  0  0
  -25.3844  -19.2509   23.1606 C   0  0  0  0  0  0  0  0  0  0  0  0
  -30.0057  -20.2139   20.4260 C   0  0  0  0  0  0  0  0  0  0  0  0
  -24.1937  -19.2875   22.4211 C   0  0  0  0  0  0  0  0  0  0  0  0
  -19.5818  -28.4080   22.7228 C   0  0  0  0  0  0  0  0  0  0  0  0
  -19.2632  -26.1430   23.5008 C   0  0  0  0  0  0  0  0  0  0  0  0
  -19.8344  -27.4056   23.6593 C   0  0  0  0  0  0  0  0  0  0  0  0
  -31.2542  -25.6626   19.8605 C   0  0  0  0  0  0  0  0  0  0  0  0
  -23.5372  -21.3088   23.6015 C   0  0  0  0  0  0  0  0  0  0  0  0
  -33.0483  -24.5941   18.7824 C   0  0  0  0  0  0  0  0  0  0  0  0
  -34.0916  -23.3878   16.4936 C   0  0  0  0  0  0  0  0  0  0  0  0
  -32.4336  -23.4612   18.2493 C   0  0  0  0  0  0  0  0  0  0  0  0
  -27.2852  -27.1162   19.6834 C   0  0  0  0  0  0  0  0  0  0  0  0
  -25.1268  -27.3428   19.3298 C   0  0  0  0  0  0  0  0  0  0  0  0
  -26.0642  -25.1671   18.5322 C   0  0  0  0  0  0  0  0  0  0  0  0
  -26.8312  -18.3239   20.4864 C   0  0  0  0  0  0  0  0  0  0  0  0
  -24.5957  -15.9744   20.5529 C   0  0  0  0  0  0  0  0  0  0  0  0
  -21.5285  -14.9230   21.6175 C   0  0  0  0  0  0  0  0  0  0  0  0
  -22.3296  -30.9622   22.5267 C   0  0  0  0  0  0  0  0  0  0  0  0
  -31.8064  -18.7216   19.4153 C   0  0  0  0  0  0  0  0  0  0  0  0
  -26.3728  -18.1352   22.9583 C   0  0  0  0  0  0  0  0  0  0  0  0
  -23.8723  -18.2443   21.3834 C   0  0  0  0  0  0  0  0  0  0  0  0
  -30.6755  -17.7777   19.0149 C   0  0  0  0  0  0  0  0  0  0  0  0
  -25.1541  -32.1986   20.7463 C   0  0  0  0  0  0  0  0  0  0  0  0
  -29.4498  -18.5706   18.5722 C   0  0  0  0  0  0  0  0  0  0  0  0
  -25.8705  -30.9329   20.2723 C   0  0  0  0  0  0  0  0  0  0  0  0
  -24.5376  -32.0132   22.1310 C   0  0  0  0  0  0  0  0  0  0  0  0
  -24.3634  -29.5791   21.7871 C   0  0  0  0  0  0  0  0  0  0  0  0
  -28.9151  -19.4430   19.7144 C   0  0  1  0  0  0  0  0  0  0  0  0
  -26.2580  -17.4767   21.5870 C   0  0  1  0  0  0  0  0  0  0  0  0
  -24.9534  -29.6990   20.3716 C   0  0  2  0  0  0  0  0  0  0  0  0
  -20.7179  -27.6846   24.8335 C   0  0  0  0  0  0  0  0  0  0  0  0
  -19.9588  -12.9699   21.4808 C   0  0  0  0  0  0  0  0  0  0  0  0
  -23.8470  -16.7784   17.7063 C   0  0  0  0  0  0  0  0  0  0  0  0
  -21.7181  -15.4889   17.9764 C   0  0  0  0  0  0  0  0  0  0  0  0
  -23.9130  -14.3112   18.1103 C   0  0  0  0  0  0  0  0  0  0  0  0
  -21.5934  -14.5172   24.5483 C   0  0  0  0  0  0  0  0  0  0  0  0
  -20.1809  -29.7686   22.8695 C   0  0  0  0  0  0  0  0  0  0  0  0
  -19.5185  -25.0476   24.4937 C   0  0  0  0  0  0  0  0  0  0  0  0
  -21.1806  -23.4055   25.3766 C   0  0  0  0  0  0  0  0  0  0  0  0
  -22.5720  -22.8585   25.1256 C   0  0  0  0  0  0  0  0  0  1  0  0
  -23.1955  -15.8154   20.0115 C   0  0  1  0  0  0  0  0  0  0  0  0
  -21.0782  -13.6291   22.2714 C   0  0  2  0  0  0  0  0  0  0  0  0
  -23.1750  -15.6194   18.4692 C   0  0  0  0  0  0  0  0  0  0  0  0
  -26.9907  -28.3233   20.1736 N   0  0  0  0  0  0  0  0  0  0  0  0
  -25.6711  -28.4323   19.9437 N   0  0  0  0  0  0  0  0  0  0  0  0
  -24.8730  -17.1772   21.2179 N   0  0  0  0  0  0  0  0  0  0  0  0
  -23.6780  -30.8273   22.1573 N   0  0  0  0  0  0  0  0  0  0  0  0
  -23.8128  -27.2859   19.0255 N   0  0  0  0  0  0  0  0  0  0  0  0
  -27.2253  -24.3898   18.4224 N   0  0  0  0  0  0  0  0  0  0  0  0
  -28.1659  -18.6391   20.6562 N   0  0  0  0  0  0  0  0  0  0  0  0
  -22.5899  -14.7200   20.7611 N   0  0  0  0  0  0  0  0  0  0  0  0
  -21.5836  -29.7900   22.5192 N   0  0  0  0  0  0  0  0  0  0  0  0
  -20.5863  -13.8911   23.6535 N   0  3  0  0  0  0  0  0  0  0  0  0
  -20.8761  -24.4519   24.3684 N   0  3  0  0  0  0  0  0  0  0  0  0
  -24.9822  -24.7215   18.0803 O   0  0  0  0  0  0  0  0  0  0  0  0
  -26.1160  -18.6651   19.5517 O   0  0  0  0  0  0  0  0  0  0  0  0
  -25.4112  -15.0620   20.3978 O   0  0  0  0  0  0  0  0  0  0  0  0
  -20.9898  -16.0049   21.8409 O   0  0  0  0  0  0  0  0  0  0  0  0
  -21.8263  -32.0479   22.8349 O   0  0  0  0  0  0  0  0  0  0  0  0
  -32.5311  -25.1946   19.9181 O   0  0  0  0  0  0  0  0  0  0  0  0
  -22.6393  -22.3099   23.8099 O   0  0  0  0  0  0  0  0  0  1  0  0
  -34.5918  -22.8096   15.3938 F   0  0  0  0  0  0  0  0  0  0  0  0
  -31.3410  -22.9483   18.8316 F   0  0  0  0  0  0  0  0  0  0  0  0
  1  2  1  0  0  0  0
  1  6  2  0  0  0  0
  2  7  2  0  0  0  0
  3  9  1  0  0  0  0
  3 10  2  0  0  0  0
  4 11  2  0  0  0  0
  4 18  1  0  0  0  0
  5 12  1  0  0  0  0
  5 18  2  0  0  0  0
  6 20  1  0  0  0  0
  7 22  1  0  0  0  0
  8 13  2  0  0  0  0
  8 21  1  0  0  0  0
  9 24  2  0  0  0  0
 10 25  1  0  0  0  0
 11 27  1  0  0  0  0
 12 27  2  0  0  0  0
 13 28  1  0  0  0  0
 14 15  2  0  0  0  0
 14 29  1  0  0  0  0
 15 30  1  0  0  0  0
 16 23  1  0  0  0  0
 16 28  2  0  0  0  0
 17 30  2  0  0  0  0
 17 31  1  0  0  0  0
 18 32  1  0  0  0  0
 19 32  1  0  0  0  0
 19 33  2  0  0  0  0
 19 34  1  0  0  0  0
 20 22  2  0  0  0  0
 20 39  1  0  0  0  0
 21 23  2  0  0  0  0
 21 40  1  0  0  0  0
 22 48  1  0  0  0  0
 23 41  1  0  0  0  0
 24 26  1  0  0  0  0
 24 57  1  0  0  0  0
 25 26  2  0  0  0  0
 25 58  1  0  0  0  0
 26 51  1  0  0  0  0
 27 80  1  0  0  0  0
 28 81  1  0  0  0  0
 29 31  2  0  0  0  0
 29 80  1  0  0  0  0
 30 82  1  0  0  0  0
 31 83  1  0  0  0  0
 32 64  2  0  0  0  0
 33 65  1  0  0  0  0
 33 68  1  0  0  0  0
 34 69  1  0  0  0  0
 34 75  2  0  0  0  0
 35 49  1  0  0  0  0
 35 70  1  0  0  0  0
 35 76  2  0  0  0  0
 36 61  1  0  0  0  0
 36 66  1  0  0  0  0
 36 77  2  0  0  0  0
 37 62  1  0  0  0  0
 37 71  1  0  0  0  0
 37 78  2  0  0  0  0
 38 67  1  0  0  0  0
 38 72  1  0  0  0  0
 38 79  2  0  0  0  0
 39 42  1  0  0  0  0
 40 49  1  0  0  0  0
 41 66  1  0  0  0  0
 42 44  1  0  0  0  0
 43 45  1  0  0  0  0
 43 46  1  0  0  0  0
 44 48  1  0  0  0  0
 45 50  1  0  0  0  0
 46 67  1  0  0  0  0
 47 50  1  0  0  0  0
 47 67  1  0  0  0  0
 48 70  1  0  0  0  0
 49 66  1  0  0  0  0
 50 65  1  0  0  0  0
 52 62  1  0  0  0  0
 53 63  1  0  0  0  0
 54 63  1  0  0  0  0
 55 63  1  0  0  0  0
 56 73  1  0  0  0  0
 57 72  1  0  0  0  0
 58 74  1  0  0  0  0
 59 60  1  0  0  0  0
 59 74  1  0  0  0  0
 60 81  1  0  0  0  0
 61 63  1  0  0  0  0
 61 71  1  0  0  0  0
 62 73  1  0  0  0  0
 64 65  1  0  0  0  0
M  CHG  2  73   1  74   1
M  ISO  4  38 100  60 101  72 100  81 101
M  END
> <Batch ID>
0042

> <Smiles>
CNC(C)C(=O)NC(C(=O)N1Cc2cc([101O:1][101CH2:1]CNCc3cccc(C[100NH:0][100C:0](=O)N4CCCC(n5nc(-c6ccc(Oc7ccc(F)cc7F)cc6)c(C(N)=O)c5N)C4)c3C)ccc2CC1C(=O)NC1CCCc2ccccc21)C(C)(C)C

> <Shape>
0.211

> <Color>
0.068

> <Negative vol penalty>
0.000

$$$$

  -OEChem-04042322123D

 88 97  0     1  0  0  0  0  0999 V2000
  -16.3408  -29.1297   23.3052 C   0  0  0  0  0  0  0  0  0  0  0  0
  -17.1877  -28.6233   22.3246 C   0  0  0  0  0  0  0  0  0  0  0  0
  -25.1512  -13.4919   21.9114 C   0  0  0  0  0  0  0  0  0  0  0  0
  -25.2187  -14.0189   19.5546 C   0  0  0  0  0  0  0  0  0  0  0  0
  -16.8261  -30.0435   24.2397 C   0  0  0  0  0  0  0  0  0  0  0  0
  -18.5202  -29.0313   22.2772 C   0  0  0  0  0  0  0  0  0  0  0  0
  -23.3510  -25.6452   20.6328 C   0  0  0  0  0  0  0  0  0  0  0  0
  -25.1383  -12.1308   21.6067 C   0  0  0  0  0  0  0  0  0  0  0  0
  -25.2059  -12.6578   19.2498 C   0  0  0  0  0  0  0  0  0  0  0  0
  -24.0594  -25.5403   19.4366 C   0  0  0  0  0  0  0  0  0  0  0  0
  -24.7245   -8.5219   21.4388 C   0  0  0  0  0  0  0  0  0  0  0  0
  -23.8226   -7.7102   22.1268 C   0  0  0  0  0  0  0  0  0  0  0  0
  -28.2314  -23.5295   17.7419 C   0  0  0  0  0  0  0  0  0  0  0  0
  -28.4383  -23.9318   20.1152 C   0  0  0  0  0  0  0  0  0  0  0  0
  -25.6805  -27.1231   20.2649 C   0  0  0  0  0  0  0  0  0  0  0  0
  -21.9849   -9.0172   21.2597 C   0  0  0  0  0  0  0  0  0  0  0  0
  -25.1914  -14.4360   20.8854 C   0  0  0  0  0  0  0  0  0  0  0  0
  -27.8761  -23.2208   19.0550 C   0  0  0  0  0  0  0  0  0  0  0  0
  -24.2245  -16.5639   21.9074 C   0  0  0  0  0  0  0  0  0  0  0  0
  -18.1677  -30.4556   24.2097 C   0  0  0  0  0  0  0  0  0  0  0  0
  -23.7968  -26.4995   21.6515 C   0  0  0  0  0  0  0  0  0  0  0  0
  -19.0236  -29.9525   23.2113 C   0  0  0  0  0  0  0  0  0  0  0  0
  -24.9773  -27.2350   21.4741 C   0  0  0  0  0  0  0  0  0  0  0  0
  -29.1491  -24.5490   17.4891 C   0  0  0  0  0  0  0  0  0  0  0  0
  -29.7114  -25.2599   18.5492 C   0  0  0  0  0  0  0  0  0  0  0  0
  -25.1656  -11.7138   20.2759 C   0  0  0  0  0  0  0  0  0  0  0  0
  -25.2228  -26.2815   19.2514 C   0  0  0  0  0  0  0  0  0  0  0  0
  -24.2567   -9.5813   20.6613 C   0  0  0  0  0  0  0  0  0  0  0  0
  -22.4528   -7.9578   22.0372 C   0  0  0  0  0  0  0  0  0  0  0  0
  -22.8869   -9.8289   20.5717 C   0  0  0  0  0  0  0  0  0  0  0  0
  -29.3561  -24.9513   19.8623 C   0  0  0  0  0  0  0  0  0  0  0  0
  -25.2041  -15.8421   21.1995 C   0  0  0  0  0  0  0  0  0  0  0  0
  -24.7016  -17.8516   21.9373 C   0  0  0  0  0  0  0  0  0  0  0  0
  -27.4327  -26.1020   15.6277 C   0  0  0  0  0  0  0  0  0  0  0  0
  -26.7439  -25.0513   15.1475 C   0  0  0  0  0  0  0  0  0  0  0  0
  -26.9124  -22.1459   19.3217 C   0  0  0  0  0  0  0  0  0  0  0  0
  -22.9935  -16.1110   22.4863 C   0  0  0  0  0  0  0  0  0  0  0  0
  -22.6078  -29.0600   23.1122 C   0  0  0  0  0  0  0  0  0  0  0  0
  -25.2356  -28.7298   24.9851 C   0  0  0  0  0  0  0  0  0  0  0  0
  -28.4185  -27.5474   25.3287 C   0  0  0  0  0  0  0  0  0  0  0  0
  -18.6347  -31.4814   25.2119 C   0  0  0  0  0  0  0  0  0  0  0  0
  -23.0358  -26.5811   22.9463 C   0  0  0  0  0  0  0  0  0  0  0  0
  -25.5093  -28.1512   22.5447 C   0  0  0  0  0  0  0  0  0  0  0  0
  -20.1542  -31.5770   25.3226 C   0  0  0  0  0  0  0  0  0  0  0  0
  -27.7924  -28.6307   14.1637 C   0  0  0  0  0  0  0  0  0  0  0  0
  -29.2326  -19.7219   20.7028 C   0  0  0  0  0  0  0  0  0  0  0  0
  -29.1894  -28.0340   13.9569 C   0  0  0  0  0  0  0  0  0  0  0  0
  -20.7883  -31.6276   23.9363 C   0  0  0  0  0  0  0  0  0  0  0  0
  -27.3492  -28.6554   15.6308 C   0  0  0  0  0  0  0  0  0  0  0  0
  -28.3026  -18.5439   20.9958 C   0  0  0  0  0  0  0  0  0  0  0  0
  -28.8160  -20.4563   19.4321 C   0  0  0  0  0  0  0  0  0  0  0  0
  -26.4656  -19.7489   19.7298 C   0  0  0  0  0  0  0  0  0  0  0  0
  -29.3302  -26.5276   14.1774 C   0  0  0  0  0  0  0  0  0  0  0  0
  -20.4816  -30.3520   23.1424 C   0  0  1  0  0  0  0  0  0  0  0  0
  -26.7203  -27.3392   16.1313 C   0  0  2  0  0  0  0  0  0  0  0  0
  -23.3016  -27.8715   23.7154 C   0  0  1  0  0  0  0  0  0  0  0  0
  -26.8289  -18.9898   21.0178 C   0  0  1  0  0  0  0  0  0  0  0  0
  -30.6959  -26.3503   18.2606 C   0  0  0  0  0  0  0  0  0  0  0  0
  -30.3237  -27.4644   26.9599 C   0  0  0  0  0  0  0  0  0  0  0  0
  -25.8893  -31.6452   24.3661 C   0  0  0  0  0  0  0  0  0  0  0  0
  -28.2125  -31.2291   25.2016 C   0  0  0  0  0  0  0  0  0  0  0  0
  -26.2694  -30.9732   26.7449 C   0  0  0  0  0  0  0  0  0  0  0  0
  -28.3614  -24.5899   25.4229 C   0  0  0  0  0  0  0  0  0  0  0  0
  -29.5136  -24.8600   16.0673 C   0  0  0  0  0  0  0  0  0  0  0  0
  -26.6427  -27.3338   17.6601 C   0  0  0  0  0  0  0  0  0  1  0  0
  -26.6534  -29.2464   24.9386 C   0  0  1  0  0  0  0  0  0  0  0  0
  -29.0840  -26.7542   26.4389 C   0  0  2  0  0  0  0  0  0  0  0  0
  -26.7453  -30.7578   25.2917 C   0  0  0  0  0  0  0  0  0  0  0  0
  -26.2262  -16.6076   20.8078 N   0  0  0  0  0  0  0  0  0  0  0  0
  -25.8913  -17.8239   21.2712 N   0  0  0  0  0  0  0  0  0  0  0  0
  -27.4030  -20.8501   19.5001 N   0  0  0  0  0  0  0  0  0  0  0  0
  -24.7263  -28.2015   23.7905 N   0  0  0  0  0  0  0  0  0  0  0  0
  -24.2151  -18.9935   22.4682 N   0  0  0  0  0  0  0  0  0  0  0  0
  -21.8341  -16.1413   21.6994 N   0  0  0  0  0  0  0  0  0  0  0  0
  -21.3264  -29.2644   23.5873 N   0  0  0  0  0  0  0  0  0  0  0  0
  -27.4327  -28.3794   25.8158 N   0  0  0  0  0  0  0  0  0  0  0  0
  -28.8780  -26.1250   15.5591 N   0  3  2  0  0  0  0  0  0  0  0  0
  -29.4870  -25.4077   25.9435 N   0  3  0  0  0  0  0  0  0  0  0  0
  -25.7296  -22.4794   19.3780 O   0  0  0  0  0  0  0  0  0  0  0  0
  -22.9205  -15.7072   23.6717 O   0  0  0  0  0  0  0  0  0  0  0  0
  -23.1924  -29.7421   22.2786 O   0  0  0  0  0  0  0  0  0  0  0  0
  -24.6059  -28.7863   26.0443 O   0  0  0  0  0  0  0  0  0  0  0  0
  -28.7434  -27.4423   24.1481 O   0  0  0  0  0  0  0  0  0  0  0  0
  -25.1533  -10.3857   19.9782 O   0  0  0  0  0  0  0  0  0  0  0  0
  -25.9158  -26.1815   18.0845 O   0  0  0  0  0  0  0  0  0  1  0  0
  -21.5868   -7.1774   22.6967 F   0  0  0  0  0  0  0  0  0  0  0  0
  -22.4314  -10.8444   19.8253 F   0  0  0  0  0  0  0  0  0  0  0  0
  -30.0304  -25.8068   21.2020 Cl  0  0  0  0  0  0  0  0  0  0  0  0
  1  2  1  0  0  0  0
  1  5  2  0  0  0  0
  2  6  2  0  0  0  0
  3  8  2  0  0  0  0
  3 17  1  0  0  0  0
  4  9  1  0  0  0  0
  4 17  2  0  0  0  0
  5 20  1  0  0  0  0
  6 22  1  0  0  0  0
  7 10  2  0  0  0  0
  7 21  1  0  0  0  0
  8 26  1  0  0  0  0
  9 26  2  0  0  0  0
 10 27  1  0  0  0  0
 11 12  2  0  0  0  0
 11 28  1  0  0  0  0
 12 29  1  0  0  0  0
 13 18  2  0  0  0  0
 13 24  1  0  0  0  0
 14 18  1  0  0  0  0
 14 31  2  0  0  0  0
 15 23  1  0  0  0  0
 15 27  2  0  0  0  0
 16 29  2  0  0  0  0
 16 30  1  0  0  0  0
 17 32  1  0  0  0  0
 18 36  1  0  0  0  0
 19 32  1  0  0  0  0
 19 33  2  0  0  0  0
 19 37  1  0  0  0  0
 20 22  2  0  0  0  0
 20 41  1  0  0  0  0
 21 23  2  0  0  0  0
 21 42  1  0  0  0  0
 22 54  1  0  0  0  0
 23 43  1  0  0  0  0
 24 25  2  0  0  0  0
 24 64  1  0  0  0  0
 25 31  1  0  0  0  0
 25 58  1  0  0  0  0
 26 84  1  0  0  0  0
 27 85  1  0  0  0  0
 28 30  2  0  0  0  0
 28 84  1  0  0  0  0
 29 86  1  0  0  0  0
 30 87  1  0  0  0  0
 31 88  1  0  0  0  0
 32 69  2  0  0  0  0
 33 70  1  0  0  0  0
 33 73  1  0  0  0  0
 34 35  2  0  0  0  0
 34 55  1  0  0  0  0
 34 77  1  0  0  0  0
 36 71  1  0  0  0  0
 36 79  2  0  0  0  0
 37 74  1  0  0  0  0
 37 80  2  0  0  0  0
 38 56  1  0  0  0  0
 38 75  1  0  0  0  0
 38 81  2  0  0  0  0
 39 66  1  0  0  0  0
 39 72  1  0  0  0  0
 39 82  2  0  0  0  0
 40 67  1  0  0  0  0
 40 76  1  0  0  0  0
 40 83  2  0  0  0  0
 41 44  1  0  0  0  0
 42 56  1  0  0  0  0
 43 72  1  0  0  0  0
 44 48  1  0  0  0  0
 45 47  1  0  0  0  0
 45 49  1  0  0  0  0
 46 50  1  0  0  0  0
 46 51  1  0  0  0  0
 47 53  1  0  0  0  0
 48 54  1  0  0  0  0
 49 55  1  0  0  0  0
 50 57  1  0  0  0  0
 51 71  1  0  0  0  0
 52 57  1  0  0  0  0
 52 71  1  0  0  0  0
 53 77  1  0  0  0  0
 54 75  1  0  0  0  0
 55 65  1  0  0  0  0
 56 72  1  0  0  0  0
 57 70  1  0  0  0  0
 59 67  1  0  0  0  0
 60 68  1  0  0  0  0
 61 68  1  0  0  0  0
 62 68  1  0  0  0  0
 63 78  1  0  0  0  0
 64 77  1  0  0  0  0
 65 85  1  0  0  0  0
 66 68  1  0  0  0  0
 66 76  1  0  0  0  0
 67 78  1  0  0  0  0
 69 70  1  0  0  0  0
M  CHG  2  77   1  78   1
M  ISO  4  18 100  36 100  65 101  85 101
M  END
> <Batch ID>
0042

> <Smiles>
C=C1C([101CH2:1][101O:1]c2ccc3c(c2)CN(C(=O)C(NC(=O)C(C)NC)C(C)(C)C)C(C(=O)NC2CCCc4ccccc42)C3)CCCCN1Cc1c[100c:0]([100C:0](=O)N2CCCC(n3nc(-c4ccc(Oc5ccc(F)cc5F)cc4)c(C(N)=O)c3N)C2)cc(Cl)c1C

> <Shape>
0.248

> <Color>
0.075

> <Negative vol penalty>
0.000

$$$$

  -OEChem-04042322123D

 87 96  0     1  0  0  0  0  0999 V2000
  -20.4695  -31.8400   22.8752 C   0  0  0  0  0  0  0  0  0  0  0  0
  -21.3435  -30.8378   23.2842 C   0  0  0  0  0  0  0  0  0  0  0  0
  -23.0084  -10.6363   22.0057 C   0  0  0  0  0  0  0  0  0  0  0  0
  -23.7961   -9.4050   20.0821 C   0  0  0  0  0  0  0  0  0  0  0  0
  -19.0989  -31.5894   22.8230 C   0  0  0  0  0  0  0  0  0  0  0  0
  -20.8473  -29.5849   23.6423 C   0  0  0  0  0  0  0  0  0  0  0  0
  -23.5477  -25.7869   21.6603 C   0  0  0  0  0  0  0  0  0  0  0  0
  -22.2379   -9.5397   22.3922 C   0  0  0  0  0  0  0  0  0  0  0  0
  -23.0256   -8.3083   20.4685 C   0  0  0  0  0  0  0  0  0  0  0  0
  -24.7582  -25.4761   22.2782 C   0  0  0  0  0  0  0  0  0  0  0  0
  -23.2252   -5.7950   22.7188 C   0  0  0  0  0  0  0  0  0  0  0  0
  -23.8237   -4.5359   22.6730 C   0  0  0  0  0  0  0  0  0  0  0  0
  -23.6963  -23.6347   23.4187 C   0  0  0  0  0  0  0  0  0  0  0  0
  -28.9720  -18.4770   21.3775 C   0  0  0  0  0  0  0  0  0  0  0  0
  -30.9496  -17.9489   20.0942 C   0  0  0  0  0  0  0  0  0  0  0  0
  -22.1471   -3.7961   21.0986 C   0  0  0  0  0  0  0  0  0  0  0  0
  -23.7875  -10.5690   20.8507 C   0  0  0  0  0  0  0  0  0  0  0  0
  -24.1242  -12.9953   20.1385 C   0  0  0  0  0  0  0  0  0  0  0  0
  -18.5865  -30.3298   23.1714 C   0  0  0  0  0  0  0  0  0  0  0  0
  -22.3979  -25.0293   21.9257 C   0  0  0  0  0  0  0  0  0  0  0  0
  -19.4684  -29.3177   23.5960 C   0  0  0  0  0  0  0  0  0  0  0  0
  -22.4730  -23.9363   22.8008 C   0  0  0  0  0  0  0  0  0  0  0  0
  -29.1213  -19.8253   21.0527 C   0  0  0  0  0  0  0  0  0  0  0  0
  -30.1847  -20.2354   20.2486 C   0  0  0  0  0  0  0  0  0  0  0  0
  -29.8862  -17.5388   20.8983 C   0  0  0  0  0  0  0  0  0  0  0  0
  -22.2465   -8.3757   21.6236 C   0  0  0  0  0  0  0  0  0  0  0  0
  -24.8320  -24.4017   23.1598 C   0  0  0  0  0  0  0  0  0  0  0  0
  -22.0875   -6.0546   21.9545 C   0  0  0  0  0  0  0  0  0  0  0  0
  -23.2847   -3.5365   21.8629 C   0  0  0  0  0  0  0  0  0  0  0  0
  -21.5485   -5.0552   21.1444 C   0  0  0  0  0  0  0  0  0  0  0  0
  -31.0989  -19.2971   19.7693 C   0  0  0  0  0  0  0  0  0  0  0  0
  -24.5832  -11.7016   20.4507 C   0  0  0  0  0  0  0  0  0  0  0  0
  -25.2622  -13.6966   19.8228 C   0  0  0  0  0  0  0  0  0  0  0  0
  -27.9066  -22.8705   22.8545 C   0  0  0  0  0  0  0  0  0  0  0  0
  -28.4841  -23.9943   22.3986 C   0  0  0  0  0  0  0  0  0  0  0  0
  -22.7885  -13.5166   20.1345 C   0  0  0  0  0  0  0  0  0  0  0  0
  -19.5485  -25.6457   23.1924 C   0  0  0  0  0  0  0  0  0  0  0  0
  -18.9282  -22.5859   22.3117 C   0  0  0  0  0  0  0  0  0  0  0  0
  -20.6674  -19.4253   22.3685 C   0  0  0  0  0  0  0  0  0  0  0  0
  -30.5515  -15.1098   20.8367 C   0  0  0  0  0  0  0  0  0  0  0  0
  -17.0931  -30.1208   23.1445 C   0  0  0  0  0  0  0  0  0  0  0  0
  -21.1060  -25.3611   21.2305 C   0  0  0  0  0  0  0  0  0  0  0  0
  -21.2723  -23.0791   23.1039 C   0  0  0  0  0  0  0  0  0  0  0  0
  -16.6831  -28.6508   23.1816 C   0  0  0  0  0  0  0  0  0  0  0  0
  -29.9976  -12.1005   19.0163 C   0  0  0  0  0  0  0  0  0  0  0  0
  -27.3839  -20.7223   24.6797 C   0  0  0  0  0  0  0  0  0  0  0  0
  -17.4653  -27.9054   24.2583 C   0  0  0  0  0  0  0  0  0  0  0  0
  -26.6502  -22.0483   24.8455 C   0  0  0  0  0  0  0  0  0  0  0  0
  -28.5018  -11.8348   19.2015 C   0  0  0  0  0  0  0  0  0  0  0  0
  -30.6291  -12.6902   20.2761 C   0  0  0  0  0  0  0  0  0  0  0  0
  -28.4621  -13.6180   20.9920 C   0  0  0  0  0  0  0  0  0  0  0  0
  -28.7526  -20.9196   24.0363 C   0  0  0  0  0  0  0  0  0  0  0  0
  -18.9708  -27.9379   23.9686 C   0  0  1  0  0  0  0  0  0  0  0  0
  -26.5503  -22.8011   23.5196 C   0  0  1  0  0  0  0  0  0  1  0  0
  -19.8783  -24.8375   21.9694 C   0  0  1  0  0  0  0  0  0  0  0  0
  -27.7685  -13.0841   19.7280 C   0  0  2  0  0  0  0  0  0  0  0  0
  -30.3314  -21.6865   19.9103 C   0  0  0  0  0  0  0  0  0  0  0  0
  -20.4183  -17.3996   20.9084 C   0  0  0  0  0  0  0  0  0  0  0  0
  -17.0264  -21.6085   24.4883 C   0  0  0  0  0  0  0  0  0  0  0  0
  -17.9471  -19.3035   24.1604 C   0  0  0  0  0  0  0  0  0  0  0  0
  -16.7716  -20.4537   22.2847 C   0  0  0  0  0  0  0  0  0  0  0  0
  -23.5399  -19.4424   21.6559 C   0  0  0  0  0  0  0  0  0  0  0  0
  -28.1242  -20.8133   21.5825 C   0  0  0  0  0  0  0  0  0  0  0  0
  -19.0779  -21.2338   22.9662 C   0  0  1  0  0  0  0  0  0  0  0  0
  -21.2151  -18.6678   21.1723 C   0  0  2  0  0  0  0  0  0  0  0  0
  -17.7230  -20.6715   23.4814 C   0  0  0  0  0  0  0  0  0  0  0  0
  -25.9094  -11.5851   20.3428 N   0  0  0  0  0  0  0  0  0  0  0  0
  -26.2935  -12.8145   19.9593 N   0  0  0  0  0  0  0  0  0  0  0  0
  -20.0304  -23.4476   22.4043 N   0  0  0  0  0  0  0  0  0  0  0  0
  -29.8843  -13.8727   20.7140 N   0  0  0  0  0  0  0  0  0  0  0  0
  -25.4712  -14.9754   19.4443 N   0  0  0  0  0  0  0  0  0  0  0  0
  -22.0412  -13.4303   18.9520 N   0  0  0  0  0  0  0  0  0  0  0  0
  -29.7341  -16.1694   21.2289 N   0  0  0  0  0  0  0  0  0  0  0  0
  -19.3075  -26.9819   22.9357 N   0  0  0  0  0  0  0  0  0  0  0  0
  -19.7470  -20.3799   21.9907 N   0  0  0  0  0  0  0  0  0  0  0  0
  -28.6629  -21.6453   22.7137 N   0  3  1  0  0  0  0  0  0  0  0  0
  -22.6374  -18.2892   21.4059 N   0  3  0  0  0  0  0  0  0  0  0  0
  -22.2788  -14.0580   21.1447 O   0  0  0  0  0  0  0  0  0  0  0  0
  -19.5136  -25.0972   24.2877 O   0  0  0  0  0  0  0  0  0  0  0  0
  -17.8749  -22.8645   21.7333 O   0  0  0  0  0  0  0  0  0  0  0  0
  -21.0182  -19.1910   23.5228 O   0  0  0  0  0  0  0  0  0  0  0  0
  -31.7534  -15.2267   20.5842 O   0  0  0  0  0  0  0  0  0  0  0  0
  -21.4949   -7.3053   22.0005 O   0  0  0  0  0  0  0  0  0  0  0  0
  -26.0121  -24.0965   23.7648 O   0  0  0  0  0  0  0  0  0  1  0  0
  -23.8605   -2.3279   21.8178 F   0  0  0  0  0  0  0  0  0  0  0  0
  -20.4564   -5.2991   20.4071 F   0  0  0  0  0  0  0  0  0  0  0  0
  -32.4271  -19.7636   18.7695 Cl  0  0  0  0  0  0  0  0  0  0  0  0
  1  2  1  0  0  0  0
  1  5  2  0  0  0  0
  2  6  2  0  0  0  0
  3  8  2  0  0  0  0
  3 17  1  0  0  0  0
  4  9  1  0  0  0  0
  4 17  2  0  0  0  0
  5 19  1  0  0  0  0
  6 21  1  0  0  0  0
  7 10  2  0  0  0  0
  7 20  1  0  0  0  0
  8 26  1  0  0  0  0
  9 26  2  0  0  0  0
 10 27  1  0  0  0  0
 11 12  2  0  0  0  0
 11 28  1  0  0  0  0
 12 29  1  0  0  0  0
 13 22  1  0  0  0  0
 13 27  2  0  0  0  0
 14 23  1  0  0  0  0
 14 25  2  0  0  0  0
 15 25  1  0  0  0  0
 15 31  2  0  0  0  0
 16 29  2  0  0  0  0
 16 30  1  0  0  0  0
 17 32  1  0  0  0  0
 18 32  1  0  0  0  0
 18 33  2  0  0  0  0
 18 36  1  0  0  0  0
 19 21  2  0  0  0  0
 19 41  1  0  0  0  0
 20 22  2  0  0  0  0
 20 42  1  0  0  0  0
 21 53  1  0  0  0  0
 22 43  1  0  0  0  0
 23 24  2  0  0  0  0
 23 63  1  0  0  0  0
 24 31  1  0  0  0  0
 24 57  1  0  0  0  0
 25 73  1  0  0  0  0
 26 83  1  0  0  0  0
 27 84  1  0  0  0  0
 28 30  2  0  0  0  0
 28 83  1  0  0  0  0
 29 85  1  0  0  0  0
 30 86  1  0  0  0  0
 31 87  1  0  0  0  0
 32 67  2  0  0  0  0
 33 68  1  0  0  0  0
 33 71  1  0  0  0  0
 34 35  2  0  0  0  0
 34 54  1  0  0  0  0
 34 76  1  0  0  0  0
 36 72  1  0  0  0  0
 36 78  2  0  0  0  0
 37 55  1  0  0  0  0
 37 74  1  0  0  0  0
 37 79  2  0  0  0  0
 38 64  1  0  0  0  0
 38 69  1  0  0  0  0
 38 80  2  0  0  0  0
 39 65  1  0  0  0  0
 39 75  1  0  0  0  0
 39 81  2  0  0  0  0
 40 70  1  0  0  0  0
 40 73  1  0  0  0  0
 40 82  2  0  0  0  0
 41 44  1  0  0  0  0
 42 55  1  0  0  0  0
 43 69  1  0  0  0  0
 44 47  1  0  0  0  0
 45 49  1  0  0  0  0
 45 50  1  0  0  0  0
 46 48  1  0  0  0  0
 46 52  1  0  0  0  0
 47 53  1  0  0  0  0
 48 54  1  0  0  0  0
 49 56  1  0  0  0  0
 50 70  1  0  0  0  0
 51 56  1  0  0  0  0
 51 70  1  0  0  0  0
 52 76  1  0  0  0  0
 53 74  1  0  0  0  0
 54 84  1  0  0  0  0
 55 69  1  0  0  0  0
 56 68  1  0  0  0  0
 58 65  1  0  0  0  0
 59 66  1  0  0  0  0
 60 66  1  0  0  0  0
 61 66  1  0  0  0  0
 62 77  1  0  0  0  0
 63 76  1  0  0  0  0
 64 66  1  0  0  0  0
 64 75  1  0  0  0  0
 65 77  1  0  0  0  0
 67 68  1  0  0  0  0
M  CHG  2  76   1  77   1
M  ISO  4  40 100  54 101  73 100  84 101
M  END
> <Batch ID>
0042

> <Smiles>
C=C1N(Cc2cc([100NH:0][100C:0](=O)N3CCCC(n4nc(-c5ccc(Oc6ccc(F)cc6F)cc5)c(C(N)=O)c4N)C3)cc(Cl)c2C)CCC[101CH:1]1[101O:1]c1ccc2c(c1)CN(C(=O)C(NC(=O)C(C)NC)C(C)(C)C)C(C(=O)NC1CCCc3ccccc31)C2

> <Shape>
0.233

> <Color>
0.136

> <Negative vol penalty>
0.000

$$$$

  -OEChem-04042322123D

 85 93  0     1  0  0  0  0  0999 V2000
  -29.3104   -6.7841   31.1900 C   0  0  0  0  0  0  0  0  0  0  0  0
  -29.3943   -8.1689   31.0856 C   0  0  0  0  0  0  0  0  0  0  0  0
  -23.1906   -9.8192   19.9316 C   0  0  0  0  0  0  0  0  0  0  0  0
  -23.5681   -9.9995   22.3111 C   0  0  0  0  0  0  0  0  0  0  0  0
  -28.0864   -6.1446   30.9979 C   0  0  0  0  0  0  0  0  0  0  0  0
  -28.2544   -8.9148   30.7880 C   0  0  0  0  0  0  0  0  0  0  0  0
  -27.8086  -13.0295   33.7062 C   0  0  0  0  0  0  0  0  0  0  0  0
  -22.4244   -8.6725   20.1400 C   0  0  0  0  0  0  0  0  0  0  0  0
  -22.8018   -8.8528   22.5196 C   0  0  0  0  0  0  0  0  0  0  0  0
  -28.6034  -14.1284   33.3830 C   0  0  0  0  0  0  0  0  0  0  0  0
  -23.2033   -5.5061   22.2554 C   0  0  0  0  0  0  0  0  0  0  0  0
  -23.7015   -4.5448   23.1348 C   0  0  0  0  0  0  0  0  0  0  0  0
  -26.7205  -15.1588   32.2820 C   0  0  0  0  0  0  0  0  0  0  0  0
  -30.5703  -14.1971   25.9397 C   0  0  0  0  0  0  0  0  0  0  0  0
  -29.8298  -11.8018   27.1631 C   0  0  0  0  0  0  0  0  0  0  0  0
  -21.7444   -4.8046   24.5275 C   0  0  0  0  0  0  0  0  0  0  0  0
  -23.7626  -10.4827   21.0171 C   0  0  0  0  0  0  0  0  0  0  0  0
  -24.1012  -12.9994   20.7736 C   0  0  0  0  0  0  0  0  0  0  0  0
  -26.9290   -6.8840   30.7073 C   0  0  0  0  0  0  0  0  0  0  0  0
  -26.4644  -12.9820   33.3095 C   0  0  0  0  0  0  0  0  0  0  0  0
  -27.0141   -8.2845   30.5905 C   0  0  0  0  0  0  0  0  0  0  0  0
  -25.9101  -14.0592   32.6036 C   0  0  0  0  0  0  0  0  0  0  0  0
  -29.9259  -14.2159   27.1766 C   0  0  0  0  0  0  0  0  0  0  0  0
  -30.8444  -12.9807   25.3144 C   0  0  0  0  0  0  0  0  0  0  0  0
  -29.5557  -13.0182   27.7883 C   0  0  0  0  0  0  0  0  0  0  0  0
  -22.2300   -8.1893   21.4340 C   0  0  0  0  0  0  0  0  0  0  0  0
  -28.0601  -15.1920   32.6683 C   0  0  0  0  0  0  0  0  0  0  0  0
  -21.9757   -6.1168   22.5122 C   0  0  0  0  0  0  0  0  0  0  0  0
  -22.9720   -4.1940   24.2708 C   0  0  0  0  0  0  0  0  0  0  0  0
  -21.2463   -5.7660   23.6482 C   0  0  0  0  0  0  0  0  0  0  0  0
  -30.4742  -11.7831   25.9262 C   0  0  0  0  0  0  0  0  0  0  0  0
  -24.5547  -11.6670   20.8024 C   0  0  0  0  0  0  0  0  0  0  0  0
  -25.2324  -13.7421   20.5387 C   0  0  0  0  0  0  0  0  0  0  0  0
  -22.7758  -13.5192   20.9440 C   0  0  0  0  0  0  0  0  0  0  0  0
  -24.7443  -11.0746   31.4369 C   0  0  0  0  0  0  0  0  0  0  0  0
  -22.2757  -12.8697   32.5350 C   0  0  0  0  0  0  0  0  0  0  0  0
  -21.2119  -15.8233   33.8734 C   0  0  0  0  0  0  0  0  0  0  0  0
  -31.0469  -12.7526   21.5697 C   0  0  0  0  0  0  0  0  0  0  0  0
  -25.6379   -6.1444   30.4612 C   0  0  0  0  0  0  0  0  0  0  0  0
  -25.6133  -11.8013   33.6891 C   0  0  0  0  0  0  0  0  0  0  0  0
  -24.4671  -14.0661   32.1720 C   0  0  0  0  0  0  0  0  0  0  0  0
  -24.4027   -7.0395   30.5188 C   0  0  0  0  0  0  0  0  0  0  0  0
  -29.5204  -13.4700   18.4341 C   0  0  0  0  0  0  0  0  0  0  0  0
  -24.6308   -8.3163   29.7161 C   0  0  0  0  0  0  0  0  0  0  0  0
  -28.0338  -13.2095   18.6829 C   0  0  0  0  0  0  0  0  0  0  0  0
  -30.4016  -12.4806   19.1936 C   0  0  0  0  0  0  0  0  0  0  0  0
  -28.6475  -12.1377   20.8905 C   0  0  0  0  0  0  0  0  0  0  0  0
  -25.7949   -9.1305   30.2935 C   0  0  1  0  0  0  0  0  0  0  0  0
  -24.3940  -11.6295   32.7885 C   0  0  1  0  0  0  0  0  0  0  0  0
  -27.7202  -13.1454   20.1899 C   0  0  2  0  0  0  0  0  0  0  0  0
  -28.8623  -13.0140   29.1112 C   0  0  0  0  0  0  0  0  0  0  0  0
  -19.1324  -17.0093   34.6262 C   0  0  0  0  0  0  0  0  0  0  0  0
  -21.5160  -13.3803   29.6243 C   0  0  0  0  0  0  0  0  0  0  0  0
  -20.0795  -15.2765   30.4046 C   0  0  0  0  0  0  0  0  0  0  0  0
  -19.5800  -12.9481   31.1474 C   0  0  0  0  0  0  0  0  0  0  0  0
  -22.2118  -16.0592   36.6489 C   0  0  0  0  0  0  0  0  0  0  0  0
  -31.5363  -13.0037   23.9898 C   0  0  0  0  0  0  0  0  0  0  0  0
  -29.6389  -15.5357   27.8299 C   0  0  0  0  0  0  0  0  0  0  0  0
  -30.7651  -17.0475   31.1627 C   0  0  0  0  0  0  0  0  0  0  0  0
  -30.0782  -16.9986   29.8061 C   0  0  0  0  0  0  0  0  0  0  0  0
  -30.2277  -16.0276   32.1591 C   0  0  0  0  0  0  0  0  0  1  0  0
  -21.5989  -14.1435   32.0894 C   0  0  1  0  0  0  0  0  0  0  0  0
  -20.2971  -16.1262   35.0463 C   0  0  2  0  0  0  0  0  0  0  0  0
  -20.7213  -13.9364   30.8227 C   0  0  0  0  0  0  0  0  0  0  0  0
  -25.8713  -11.5660   20.6017 N   0  0  0  0  0  0  0  0  0  0  0  0
  -26.2548  -12.8444   20.4444 N   0  0  0  0  0  0  0  0  0  0  0  0
  -23.6774  -12.8862   32.5615 N   0  0  0  0  0  0  0  0  0  0  0  0
  -30.0546  -12.4694   20.6167 N   0  0  0  0  0  0  0  0  0  0  0  0
  -25.4422  -15.0690   20.4056 N   0  0  0  0  0  0  0  0  0  0  0  0
  -21.7292  -12.6168   21.1777 N   0  0  0  0  0  0  0  0  0  0  0  0
  -25.3730   -9.8448   31.4793 N   0  0  0  0  0  0  0  0  0  0  0  0
  -20.8671  -14.6438   33.2481 N   0  0  0  0  0  0  0  0  0  0  0  0
  -30.6323  -12.7271   22.8957 N   0  0  0  0  0  0  0  0  0  0  0  0
  -21.0517  -16.8251   36.1248 N   0  3  0  0  0  0  0  0  0  0  0  0
  -30.2895  -15.6813   29.1614 N   0  3  0  0  0  0  0  0  0  0  0  0
  -22.5246  -14.7462   20.8743 O   0  0  0  0  0  0  0  0  0  0  0  0
  -24.4636  -11.7141   30.4299 O   0  0  0  0  0  0  0  0  0  0  0  0
  -21.5859  -11.8984   32.8548 O   0  0  0  0  0  0  0  0  0  0  0  0
  -22.1372  -16.5614   33.5424 O   0  0  0  0  0  0  0  0  0  0  0  0
  -32.2146  -13.0143   21.2614 O   0  0  0  0  0  0  0  0  0  0  0  0
  -21.4821   -7.0705   21.6378 O   0  0  0  0  0  0  0  0  0  0  0  0
  -28.8338  -16.2656   32.3510 O   0  0  0  0  0  0  0  0  0  1  0  0
  -23.4498   -3.2697   25.1143 F   0  0  0  0  0  0  0  0  0  0  0  0
  -20.0658   -6.3483   23.8995 F   0  0  0  0  0  0  0  0  0  0  0  0
  -30.7967  -10.2591   25.1827 Cl  0  0  0  0  0  0  0  0  0  0  0  0
  1  2  1  0  0  0  0
  1  5  2  0  0  0  0
  2  6  2  0  0  0  0
  3  8  2  0  0  0  0
  3 17  1  0  0  0  0
  4  9  1  0  0  0  0
  4 17  2  0  0  0  0
  5 19  1  0  0  0  0
  6 21  1  0  0  0  0
  7 10  2  0  0  0  0
  7 20  1  0  0  0  0
  8 26  1  0  0  0  0
  9 26  2  0  0  0  0
 10 27  1  0  0  0  0
 11 12  2  0  0  0  0
 11 28  1  0  0  0  0
 12 29  1  0  0  0  0
 13 22  1  0  0  0  0
 13 27  2  0  0  0  0
 14 23  1  0  0  0  0
 14 24  2  0  0  0  0
 15 25  1  0  0  0  0
 15 31  2  0  0  0  0
 16 29  2  0  0  0  0
 16 30  1  0  0  0  0
 17 32  1  0  0  0  0
 18 32  1  0  0  0  0
 18 33  2  0  0  0  0
 18 34  1  0  0  0  0
 19 21  2  0  0  0  0
 19 39  1  0  0  0  0
 20 22  2  0  0  0  0
 20 40  1  0  0  0  0
 21 48  1  0  0  0  0
 22 41  1  0  0  0  0
 23 25  2  0  0  0  0
 23 58  1  0  0  0  0
 24 31  1  0  0  0  0
 24 57  1  0  0  0  0
 25 51  1  0  0  0  0
 26 81  1  0  0  0  0
 27 82  1  0  0  0  0
 28 30  2  0  0  0  0
 28 81  1  0  0  0  0
 29 83  1  0  0  0  0
 30 84  1  0  0  0  0
 31 85  1  0  0  0  0
 32 65  2  0  0  0  0
 33 66  1  0  0  0  0
 33 69  1  0  0  0  0
 34 70  1  0  0  0  0
 34 76  2  0  0  0  0
 35 49  1  0  0  0  0
 35 71  1  0  0  0  0
 35 77  2  0  0  0  0
 36 62  1  0  0  0  0
 36 67  1  0  0  0  0
 36 78  2  0  0  0  0
 37 63  1  0  0  0  0
 37 72  1  0  0  0  0
 37 79  2  0  0  0  0
 38 68  1  0  0  0  0
 38 73  1  0  0  0  0
 38 80  2  0  0  0  0
 39 42  1  0  0  0  0
 40 49  1  0  0  0  0
 41 67  1  0  0  0  0
 42 44  1  0  0  0  0
 43 45  1  0  0  0  0
 43 46  1  0  0  0  0
 44 48  1  0  0  0  0
 45 50  1  0  0  0  0
 46 68  1  0  0  0  0
 47 50  1  0  0  0  0
 47 68  1  0  0  0  0
 48 71  1  0  0  0  0
 49 67  1  0  0  0  0
 50 66  1  0  0  0  0
 52 63  1  0  0  0  0
 53 64  1  0  0  0  0
 54 64  1  0  0  0  0
 55 64  1  0  0  0  0
 56 74  1  0  0  0  0
 57 73  1  0  0  0  0
 58 75  1  0  0  0  0
 59 60  1  0  0  0  0
 59 61  1  0  0  0  0
 60 75  1  0  0  0  0
 61 82  1  0  0  0  0
 62 64  1  0  0  0  0
 62 72  1  0  0  0  0
 63 74  1  0  0  0  0
 65 66  1  0  0  0  0
M  CHG  2  74   1  75   1
M  ISO  4  38 100  61 101  73 100  82 101
M  END
> <Batch ID>
0042

> <Smiles>
CNC(C)C(=O)NC(C(=O)N1Cc2cc([101O:1][101CH2:1]CCNCc3cc(C[100NH:0][100C:0](=O)N4CCCC(n5nc(-c6ccc(Oc7ccc(F)cc7F)cc6)c(C(N)=O)c5N)C4)c(Cl)cc3C)ccc2CC1C(=O)NC1CCCc2ccccc21)C(C)(C)C

> <Shape>
0.139

> <Color>
0.182

> <Negative vol penalty>
0.000

$$$$

  -OEChem-04042322123D

 85 93  0     1  0  0  0  0  0999 V2000
  -34.6517  -30.5432   34.1072 C   0  0  0  0  0  0  0  0  0  0  0  0
  -33.9290  -29.7761   33.1991 C   0  0  0  0  0  0  0  0  0  0  0  0
  -23.0756   -9.8685   19.9405 C   0  0  0  0  0  0  0  0  0  0  0  0
  -23.8351   -9.8747   22.2340 C   0  0  0  0  0  0  0  0  0  0  0  0
  -35.9944  -30.8288   33.8636 C   0  0  0  0  0  0  0  0  0  0  0  0
  -34.5484  -29.2951   32.0461 C   0  0  0  0  0  0  0  0  0  0  0  0
  -33.4444  -24.4386   31.1294 C   0  0  0  0  0  0  0  0  0  0  0  0
  -22.3313   -8.7156   20.1900 C   0  0  0  0  0  0  0  0  0  0  0  0
  -23.0908   -8.7217   22.4835 C   0  0  0  0  0  0  0  0  0  0  0  0
  -32.1990  -24.1641   30.5661 C   0  0  0  0  0  0  0  0  0  0  0  0
  -21.1049   -5.9848   23.8191 C   0  0  0  0  0  0  0  0  0  0  0  0
  -20.3485   -5.9412   24.9902 C   0  0  0  0  0  0  0  0  0  0  0  0
  -31.8961  -18.3399   24.1928 C   0  0  0  0  0  0  0  0  0  0  0  0
  -33.2331  -23.9543   28.3968 C   0  0  0  0  0  0  0  0  0  0  0  0
  -32.0662  -16.5896   22.5361 C   0  0  0  0  0  0  0  0  0  0  0  0
  -19.1046   -7.8790   24.2590 C   0  0  0  0  0  0  0  0  0  0  0  0
  -23.8276  -10.4481   20.9625 C   0  0  0  0  0  0  0  0  0  0  0  0
  -30.5086  -18.3395   24.0508 C   0  0  0  0  0  0  0  0  0  0  0  0
  -24.1702  -12.9732   20.8432 C   0  0  0  0  0  0  0  0  0  0  0  0
  -36.6332  -30.3430   32.7118 C   0  0  0  0  0  0  0  0  0  0  0  0
  -34.5939  -24.4838   30.3275 C   0  0  0  0  0  0  0  0  0  0  0  0
  -35.9006  -29.5757   31.7861 C   0  0  0  0  0  0  0  0  0  0  0  0
  -34.4923  -24.2271   28.9528 C   0  0  0  0  0  0  0  0  0  0  0  0
  -29.8998  -17.4642   23.1515 C   0  0  0  0  0  0  0  0  0  0  0  0
  -30.6786  -16.5892   22.3941 C   0  0  0  0  0  0  0  0  0  0  0  0
  -22.3389   -8.1421   21.4615 C   0  0  0  0  0  0  0  0  0  0  0  0
  -32.0927  -23.9247   29.1992 C   0  0  0  0  0  0  0  0  0  0  0  0
  -20.8613   -6.9756   22.8680 C   0  0  0  0  0  0  0  0  0  0  0  0
  -19.3483   -6.8882   25.2101 C   0  0  0  0  0  0  0  0  0  0  0  0
  -19.8611   -7.9227   23.0879 C   0  0  0  0  0  0  0  0  0  0  0  0
  -32.6750  -17.4650   23.4354 C   0  0  0  0  0  0  0  0  0  0  0  0
  -24.5970  -11.6388   20.7051 C   0  0  0  0  0  0  0  0  0  0  0  0
  -25.2626  -13.7224   20.4802 C   0  0  0  0  0  0  0  0  0  0  0  0
  -29.7171  -19.2760   24.8660 C   0  0  0  0  0  0  0  0  0  0  0  0
  -29.7084  -19.3177   26.2075 C   0  0  0  0  0  0  0  0  0  0  0  0
  -22.8998  -13.4893   21.2620 C   0  0  0  0  0  0  0  0  0  0  0  0
  -36.7287  -26.7209   29.5912 C   0  0  0  0  0  0  0  0  0  0  0  0
  -38.2214  -24.2551   28.1033 C   0  0  0  0  0  0  0  0  0  0  0  0
  -37.9809  -21.1818   26.6390 C   0  0  0  0  0  0  0  0  0  0  0  0
  -30.7291  -14.7663   20.6560 C   0  0  0  0  0  0  0  0  0  0  0  0
  -38.0737  -30.7175   32.4679 C   0  0  0  0  0  0  0  0  0  0  0  0
  -35.9339  -24.7549   30.9548 C   0  0  0  0  0  0  0  0  0  0  0  0
  -35.6989  -24.2439   28.0516 C   0  0  0  0  0  0  0  0  0  0  0  0
  -38.7561  -29.8560   31.4085 C   0  0  0  0  0  0  0  0  0  0  0  0
  -29.6143  -12.3535   18.2869 C   0  0  0  0  0  0  0  0  0  0  0  0
  -37.8626  -29.7124   30.1806 C   0  0  0  0  0  0  0  0  0  0  0  0
  -28.1745  -12.0622   18.7162 C   0  0  0  0  0  0  0  0  0  0  0  0
  -30.5293  -12.5817   19.4888 C   0  0  0  0  0  0  0  0  0  0  0  0
  -28.6223  -13.3064   20.8700 C   0  0  0  0  0  0  0  0  0  0  0  0
  -36.5439  -29.0151   30.5363 C   0  0  1  0  0  0  0  0  0  0  0  0
  -36.9631  -25.2834   29.9604 C   0  0  1  0  0  0  0  0  0  0  0  0
  -27.6496  -13.1337   19.6920 C   0  0  2  0  0  0  0  0  0  0  0  0
  -28.4097  -17.4580   22.9933 C   0  0  0  0  0  0  0  0  0  0  0  0
  -39.3648  -19.4377   25.4812 C   0  0  0  0  0  0  0  0  0  0  0  0
  -38.2645  -25.9684   25.5789 C   0  0  0  0  0  0  0  0  0  0  0  0
  -38.7615  -23.8962   24.2648 C   0  0  0  0  0  0  0  0  0  0  0  0
  -40.3676  -24.6834   26.0036 C   0  0  0  0  0  0  0  0  0  0  0  0
  -37.3664  -19.1554   28.7066 C   0  0  0  0  0  0  0  0  0  0  0  0
  -28.8967  -20.2984   26.9928 C   0  0  0  0  0  0  0  0  0  0  0  0
  -28.9654  -22.2004   28.6103 C   0  0  0  0  0  0  0  0  0  0  0  0
  -29.9180  -23.0024   29.4748 C   0  0  0  0  0  0  0  0  0  1  0  0
  -38.1721  -23.6540   26.7194 C   0  0  1  0  0  0  0  0  0  0  0  0
  -38.8029  -19.9172   26.8106 C   0  0  2  0  0  0  0  0  0  0  0  0
  -38.8682  -24.5520   25.6581 C   0  0  0  0  0  0  0  0  0  0  0  0
  -25.8619  -11.5427   20.2870 N   0  0  0  0  0  0  0  0  0  0  0  0
  -26.2392  -12.8262   20.1591 N   0  0  0  0  0  0  0  0  0  0  0  0
  -36.9859  -24.5199   28.7111 N   0  0  0  0  0  0  0  0  0  0  0  0
  -29.9705  -13.6124   20.3664 N   0  0  0  0  0  0  0  0  0  0  0  0
  -25.4734  -15.0539   20.4076 N   0  0  0  0  0  0  0  0  0  0  0  0
  -21.8875  -12.5803   21.5989 N   0  0  0  0  0  0  0  0  0  0  0  0
  -30.0819  -15.6914   21.4746 N   0  0  0  0  0  0  0  0  0  0  0  0
  -36.7460  -27.5881   30.6669 N   0  0  0  0  0  0  0  0  0  0  0  0
  -38.7409  -22.3155   26.8352 N   0  0  0  0  0  0  0  0  0  0  0  0
  -37.9641  -18.8283   27.3864 N   0  3  0  0  0  0  0  0  0  0  0  0
  -29.7312  -21.1734   27.8599 N   0  3  0  0  0  0  0  0  0  0  0  0
  -22.6639  -14.7199   21.3197 O   0  0  0  0  0  0  0  0  0  0  0  0
  -36.5470  -27.0213   28.4171 O   0  0  0  0  0  0  0  0  0  0  0  0
  -39.3156  -24.4747   28.6286 O   0  0  0  0  0  0  0  0  0  0  0  0
  -36.7852  -21.1657   26.3552 O   0  0  0  0  0  0  0  0  0  0  0  0
  -31.8583  -14.9348   20.1886 O   0  0  0  0  0  0  0  0  0  0  0  0
  -21.6126   -7.0172   21.7055 O   0  0  0  0  0  0  0  0  0  0  0  0
  -30.8782  -23.6572   28.6467 O   0  0  0  0  0  0  0  0  0  1  0  0
  -18.6209   -6.8452   26.3341 F   0  0  0  0  0  0  0  0  0  0  0  0
  -19.6216   -8.8762   22.1773 F   0  0  0  0  0  0  0  0  0  0  0  0
  -34.3874  -17.4666   23.6093 Cl  0  0  0  0  0  0  0  0  0  0  0  0
  1  2  1  0  0  0  0
  1  5  2  0  0  0  0
  2  6  2  0  0  0  0
  3  8  2  0  0  0  0
  3 17  1  0  0  0  0
  4  9  1  0  0  0  0
  4 17  2  0  0  0  0
  5 20  1  0  0  0  0
  6 22  1  0  0  0  0
  7 10  2  0  0  0  0
  7 21  1  0  0  0  0
  8 26  1  0  0  0  0
  9 26  2  0  0  0  0
 10 27  1  0  0  0  0
 11 12  2  0  0  0  0
 11 28  1  0  0  0  0
 12 29  1  0  0  0  0
 13 18  1  0  0  0  0
 13 31  2  0  0  0  0
 14 23  1  0  0  0  0
 14 27  2  0  0  0  0
 15 25  2  0  0  0  0
 15 31  1  0  0  0  0
 16 29  2  0  0  0  0
 16 30  1  0  0  0  0
 17 32  1  0  0  0  0
 18 24  2  0  0  0  0
 18 34  1  0  0  0  0
 19 32  1  0  0  0  0
 19 33  2  0  0  0  0
 19 36  1  0  0  0  0
 20 22  2  0  0  0  0
 20 41  1  0  0  0  0
 21 23  2  0  0  0  0
 21 42  1  0  0  0  0
 22 50  1  0  0  0  0
 23 43  1  0  0  0  0
 24 25  1  0  0  0  0
 24 53  1  0  0  0  0
 25 71  1  0  0  0  0
 26 81  1  0  0  0  0
 27 82  1  0  0  0  0
 28 30  2  0  0  0  0
 28 81  1  0  0  0  0
 29 83  1  0  0  0  0
 30 84  1  0  0  0  0
 31 85  1  0  0  0  0
 32 65  2  0  0  0  0
 33 66  1  0  0  0  0
 33 69  1  0  0  0  0
 34 35  2  0  0  0  0
 35 59  1  0  0  0  0
 36 70  1  0  0  0  0
 36 76  2  0  0  0  0
 37 51  1  0  0  0  0
 37 72  1  0  0  0  0
 37 77  2  0  0  0  0
 38 62  1  0  0  0  0
 38 67  1  0  0  0  0
 38 78  2  0  0  0  0
 39 63  1  0  0  0  0
 39 73  1  0  0  0  0
 39 79  2  0  0  0  0
 40 68  1  0  0  0  0
 40 71  1  0  0  0  0
 40 80  2  0  0  0  0
 41 44  1  0  0  0  0
 42 51  1  0  0  0  0
 43 67  1  0  0  0  0
 44 46  1  0  0  0  0
 45 47  1  0  0  0  0
 45 48  1  0  0  0  0
 46 50  1  0  0  0  0
 47 52  1  0  0  0  0
 48 68  1  0  0  0  0
 49 52  1  0  0  0  0
 49 68  1  0  0  0  0
 50 72  1  0  0  0  0
 51 67  1  0  0  0  0
 52 66  1  0  0  0  0
 54 63  1  0  0  0  0
 55 64  1  0  0  0  0
 56 64  1  0  0  0  0
 57 64  1  0  0  0  0
 58 74  1  0  0  0  0
 59 75  1  0  0  0  0
 60 61  1  0  0  0  0
 60 75  1  0  0  0  0
 61 82  1  0  0  0  0
 62 64  1  0  0  0  0
 62 73  1  0  0  0  0
 63 74  1  0  0  0  0
 65 66  1  0  0  0  0
M  CHG  2  74   1  75   1
M  ISO  4  40 100  61 101  71 100  82 101
M  END
> <Batch ID>
0042

> <Smiles>
CNC(C)C(=O)NC(C(=O)N1Cc2cc([101O:1][101CH2:1]CNCC=Cc3cc(Cl)cc([100NH:0][100C:0](=O)N4CCCC(n5nc(-c6ccc(Oc7ccc(F)cc7F)cc6)c(C(N)=O)c5N)C4)c3C)ccc2CC1C(=O)NC1CCCc2ccccc21)C(C)(C)C

> <Shape>
0.161

> <Color>
0.192

> <Negative vol penalty>
0.000

$$$$

  -OEChem-04042322123D

 83 91  0     1  0  0  0  0  0999 V2000
  -42.2173  -27.8724   19.7758 C   0  0  0  0  0  0  0  0  0  0  0  0
  -41.5199  -26.9005   20.4860 C   0  0  0  0  0  0  0  0  0  0  0  0
  -23.0041   -9.8863   19.9913 C   0  0  0  0  0  0  0  0  0  0  0  0
  -23.7230   -9.9589   22.2967 C   0  0  0  0  0  0  0  0  0  0  0  0
  -41.6079  -29.0918   19.4829 C   0  0  0  0  0  0  0  0  0  0  0  0
  -40.2131  -27.1477   20.9047 C   0  0  0  0  0  0  0  0  0  0  0  0
  -37.1238  -23.2277   20.0475 C   0  0  0  0  0  0  0  0  0  0  0  0
  -22.2386   -8.7531   20.2656 C   0  0  0  0  0  0  0  0  0  0  0  0
  -22.9574   -8.8257   22.5711 C   0  0  0  0  0  0  0  0  0  0  0  0
  -37.1969  -22.1538   20.9336 C   0  0  0  0  0  0  0  0  0  0  0  0
  -23.2081   -5.4831   22.1297 C   0  0  0  0  0  0  0  0  0  0  0  0
  -23.7952   -4.4735   22.8924 C   0  0  0  0  0  0  0  0  0  0  0  0
  -35.2370  -22.9722   22.0775 C   0  0  0  0  0  0  0  0  0  0  0  0
  -30.4820  -18.3851   23.9496 C   0  0  0  0  0  0  0  0  0  0  0  0
  -32.0455  -16.5653   22.5260 C   0  0  0  0  0  0  0  0  0  0  0  0
  -22.0664   -4.7287   24.5607 C   0  0  0  0  0  0  0  0  0  0  0  0
  -23.7464  -10.4893   21.0068 C   0  0  0  0  0  0  0  0  0  0  0  0
  -24.1283  -13.0038   20.8094 C   0  0  0  0  0  0  0  0  0  0  0  0
  -40.2895  -29.3504   19.8899 C   0  0  0  0  0  0  0  0  0  0  0  0
  -36.1115  -24.1895   20.1766 C   0  0  0  0  0  0  0  0  0  0  0  0
  -39.5859  -28.3722   20.6182 C   0  0  0  0  0  0  0  0  0  0  0  0
  -35.1518  -24.0559   21.1901 C   0  0  0  0  0  0  0  0  0  0  0  0
  -31.8665  -18.3730   24.1189 C   0  0  0  0  0  0  0  0  0  0  0  0
  -29.8792  -17.4872   23.0686 C   0  0  0  0  0  0  0  0  0  0  0  0
  -32.6482  -17.4632   23.4071 C   0  0  0  0  0  0  0  0  0  0  0  0
  -30.6610  -16.5774   22.3568 C   0  0  0  0  0  0  0  0  0  0  0  0
  -22.2152   -8.2227   21.5555 C   0  0  0  0  0  0  0  0  0  0  0  0
  -36.2551  -22.0275   21.9505 C   0  0  0  0  0  0  0  0  0  0  0  0
  -22.0502   -6.1155   22.5825 C   0  0  0  0  0  0  0  0  0  0  0  0
  -23.2243   -4.0963   24.1079 C   0  0  0  0  0  0  0  0  0  0  0  0
  -21.4794   -5.7383   23.7980 C   0  0  0  0  0  0  0  0  0  0  0  0
  -24.5378  -11.6596   20.7239 C   0  0  0  0  0  0  0  0  0  0  0  0
  -25.2380  -13.7248   20.4416 C   0  0  0  0  0  0  0  0  0  0  0  0
  -22.8585  -13.5516   21.1876 C   0  0  0  0  0  0  0  0  0  0  0  0
  -36.0474  -27.3161   20.7457 C   0  0  0  0  0  0  0  0  0  0  0  0
  -32.8724  -26.9582   20.1854 C   0  0  0  0  0  0  0  0  0  0  0  0
  -30.1549  -24.8945   20.1292 C   0  0  0  0  0  0  0  0  0  0  0  0
  -30.7153  -14.6964   20.6818 C   0  0  0  0  0  0  0  0  0  0  0  0
  -39.6894  -30.7014   19.5911 C   0  0  0  0  0  0  0  0  0  0  0  0
  -36.0308  -25.3274   19.1963 C   0  0  0  0  0  0  0  0  0  0  0  0
  -34.0333  -25.0503   21.3592 C   0  0  0  0  0  0  0  0  0  0  0  0
  -38.1712  -30.7411   19.7456 C   0  0  0  0  0  0  0  0  0  0  0  0
  -29.6071  -12.2212   18.3748 C   0  0  0  0  0  0  0  0  0  0  0  0
  -37.7496  -30.0715   21.0497 C   0  0  0  0  0  0  0  0  0  0  0  0
  -28.1558  -11.9650   18.7873 C   0  0  0  0  0  0  0  0  0  0  0  0
  -30.5040  -12.4768   19.5848 C   0  0  0  0  0  0  0  0  0  0  0  0
  -28.5838  -13.2745   20.9061 C   0  0  0  0  0  0  0  0  0  0  0  0
  -38.1581  -28.5935   21.0681 C   0  0  1  0  0  0  0  0  0  0  0  0
  -35.2606  -26.5282   19.7368 C   0  0  1  0  0  0  0  0  0  0  0  0
  -27.6296  -13.0761   19.7170 C   0  0  2  0  0  0  0  0  0  0  0  0
  -32.4894  -19.3434   25.0680 C   0  0  0  0  0  0  0  0  0  0  0  0
  -28.3941  -17.5226   22.9069 C   0  0  0  0  0  0  0  0  0  0  0  0
  -27.6883  -24.8975   19.6674 C   0  0  0  0  0  0  0  0  0  0  0  0
  -32.3729  -28.3081   22.8758 C   0  0  0  0  0  0  0  0  0  0  0  0
  -30.0257  -27.4405   22.7966 C   0  0  0  0  0  0  0  0  0  0  0  0
  -30.8272  -29.0260   21.0455 C   0  0  0  0  0  0  0  0  0  0  0  0
  -30.4484  -22.9461   17.9209 C   0  0  0  0  0  0  0  0  0  0  0  0
  -34.1390  -17.4315   23.5731 C   0  0  0  0  0  0  0  0  0  0  0  0
  -36.2971  -18.5912   23.0867 C   0  0  0  0  0  0  0  0  0  0  0  0
  -36.8801  -19.7631   22.3219 C   0  0  0  0  0  0  0  0  0  1  0  0
  -31.6659  -26.6409   21.0355 C   0  0  1  0  0  0  0  0  0  0  0  0
  -29.0755  -24.6786   19.0839 C   0  0  2  0  0  0  0  0  0  0  0  0
  -31.2450  -27.8360   21.9366 C   0  0  0  0  0  0  0  0  0  0  0  0
  -25.8083  -11.5315   20.3323 N   0  0  0  0  0  0  0  0  0  0  0  0
  -26.2068  -12.8045   20.1684 N   0  0  0  0  0  0  0  0  0  0  0  0
  -34.0008  -26.1489   20.3796 N   0  0  0  0  0  0  0  0  0  0  0  0
  -29.9450  -13.5443   20.4171 N   0  0  0  0  0  0  0  0  0  0  0  0
  -25.4697  -15.0499   20.3284 N   0  0  0  0  0  0  0  0  0  0  0  0
  -21.8271  -12.6690   21.5362 N   0  0  0  0  0  0  0  0  0  0  0  0
  -30.0674  -15.6576   21.4571 N   0  0  0  0  0  0  0  0  0  0  0  0
  -37.2463  -27.8071   20.2652 N   0  0  0  0  0  0  0  0  0  0  0  0
  -30.6262  -26.1903   20.1166 N   0  0  0  0  0  0  0  0  0  0  0  0
  -29.1455  -23.2905   18.5461 N   0  3  0  0  0  0  0  0  0  0  0  0
  -34.8257  -18.5615   22.8908 N   0  3  0  0  0  0  0  0  0  0  0  0
  -22.6398  -14.7868   21.1998 O   0  0  0  0  0  0  0  0  0  0  0  0
  -35.5992  -27.4685   21.8760 O   0  0  0  0  0  0  0  0  0  0  0  0
  -32.8135  -27.8853   19.3738 O   0  0  0  0  0  0  0  0  0  0  0  0
  -30.5388  -24.0038   20.8841 O   0  0  0  0  0  0  0  0  0  0  0  0
  -31.8550  -14.8331   20.2296 O   0  0  0  0  0  0  0  0  0  0  0  0
  -21.4682   -7.1171   21.8237 O   0  0  0  0  0  0  0  0  0  0  0  0
  -36.3245  -20.9806   22.8172 O   0  0  0  0  0  0  0  0  0  1  0  0
  -23.7873   -3.1257   24.8395 F   0  0  0  0  0  0  0  0  0  0  0  0
  -20.3664   -6.3414   24.2376 F   0  0  0  0  0  0  0  0  0  0  0  0
  1  2  1  0  0  0  0
  1  5  2  0  0  0  0
  2  6  2  0  0  0  0
  3  8  2  0  0  0  0
  3 17  1  0  0  0  0
  4  9  1  0  0  0  0
  4 17  2  0  0  0  0
  5 19  1  0  0  0  0
  6 21  1  0  0  0  0
  7 10  2  0  0  0  0
  7 20  1  0  0  0  0
  8 27  1  0  0  0  0
  9 27  2  0  0  0  0
 10 28  1  0  0  0  0
 11 12  2  0  0  0  0
 11 29  1  0  0  0  0
 12 30  1  0  0  0  0
 13 22  1  0  0  0  0
 13 28  2  0  0  0  0
 14 23  1  0  0  0  0
 14 24  2  0  0  0  0
 15 25  1  0  0  0  0
 15 26  2  0  0  0  0
 16 30  2  0  0  0  0
 16 31  1  0  0  0  0
 17 32  1  0  0  0  0
 18 32  1  0  0  0  0
 18 33  2  0  0  0  0
 18 34  1  0  0  0  0
 19 21  2  0  0  0  0
 19 39  1  0  0  0  0
 20 22  2  0  0  0  0
 20 40  1  0  0  0  0
 21 48  1  0  0  0  0
 22 41  1  0  0  0  0
 23 25  2  0  0  0  0
 23 51  1  0  0  0  0
 24 26  1  0  0  0  0
 24 52  1  0  0  0  0
 25 58  1  0  0  0  0
 26 70  1  0  0  0  0
 27 80  1  0  0  0  0
 28 81  1  0  0  0  0
 29 31  2  0  0  0  0
 29 80  1  0  0  0  0
 30 82  1  0  0  0  0
 31 83  1  0  0  0  0
 32 64  2  0  0  0  0
 33 65  1  0  0  0  0
 33 68  1  0  0  0  0
 34 69  1  0  0  0  0
 34 75  2  0  0  0  0
 35 49  1  0  0  0  0
 35 71  1  0  0  0  0
 35 76  2  0  0  0  0
 36 61  1  0  0  0  0
 36 66  1  0  0  0  0
 36 77  2  0  0  0  0
 37 62  1  0  0  0  0
 37 72  1  0  0  0  0
 37 78  2  0  0  0  0
 38 67  1  0  0  0  0
 38 70  1  0  0  0  0
 38 79  2  0  0  0  0
 39 42  1  0  0  0  0
 40 49  1  0  0  0  0
 41 66  1  0  0  0  0
 42 44  1  0  0  0  0
 43 45  1  0  0  0  0
 43 46  1  0  0  0  0
 44 48  1  0  0  0  0
 45 50  1  0  0  0  0
 46 67  1  0  0  0  0
 47 50  1  0  0  0  0
 47 67  1  0  0  0  0
 48 71  1  0  0  0  0
 49 66  1  0  0  0  0
 50 65  1  0  0  0  0
 53 62  1  0  0  0  0
 54 63  1  0  0  0  0
 55 63  1  0  0  0  0
 56 63  1  0  0  0  0
 57 73  1  0  0  0  0
 58 74  1  0  0  0  0
 59 60  1  0  0  0  0
 59 74  1  0  0  0  0
 60 81  1  0  0  0  0
 61 63  1  0  0  0  0
 61 72  1  0  0  0  0
 62 73  1  0  0  0  0
 64 65  1  0  0  0  0
M  CHG  2  73   1  74   1
M  ISO  4  38 100  60 101  70 100  81 101
M  END
> <Batch ID>
0042

> <Smiles>
CNC(C)C(=O)NC(C(=O)N1Cc2cc([101O:1][101CH2:1]CNCc3cc([100NH:0][100C:0](=O)N4CCCC(n5nc(-c6ccc(Oc7ccc(F)cc7F)cc6)c(C(N)=O)c5N)C4)c(C)cc3C)ccc2CC1C(=O)NC1CCCc2ccccc21)C(C)(C)C

> <Shape>
0.224

> <Color>
0.198

> <Negative vol penalty>
0.000

$$$$

  -OEChem-04042322123D

 84 92  0     1  0  0  0  0  0999 V2000
  -20.9298  -30.1309   27.2832 C   0  0  0  0  0  0  0  0  0  0  0  0
  -22.0274  -29.4825   26.7262 C   0  0  0  0  0  0  0  0  0  0  0  0
  -24.6235   -9.1014   22.1329 C   0  0  0  0  0  0  0  0  0  0  0  0
  -22.9749  -10.4448   20.9863 C   0  0  0  0  0  0  0  0  0  0  0  0
  -19.7592  -30.2803   26.5409 C   0  0  0  0  0  0  0  0  0  0  0  0
  -21.9546  -28.9821   25.4267 C   0  0  0  0  0  0  0  0  0  0  0  0
  -26.4858  -28.7448   21.3136 C   0  0  0  0  0  0  0  0  0  0  0  0
  -23.8080   -7.9788   21.9903 C   0  0  0  0  0  0  0  0  0  0  0  0
  -22.1594   -9.3222   20.8436 C   0  0  0  0  0  0  0  0  0  0  0  0
  -27.3455  -27.7190   20.9233 C   0  0  0  0  0  0  0  0  0  0  0  0
  -21.0638   -6.6884   23.4831 C   0  0  0  0  0  0  0  0  0  0  0  0
  -20.8973   -5.8637   24.5956 C   0  0  0  0  0  0  0  0  0  0  0  0
  -25.8843  -27.2065   19.0735 C   0  0  0  0  0  0  0  0  0  0  0  0
  -28.2994  -20.1671   20.5327 C   0  0  0  0  0  0  0  0  0  0  0  0
  -27.8988  -19.8113   23.2705 C   0  0  0  0  0  0  0  0  0  0  0  0
  -21.8327   -4.0095   23.3611 C   0  0  0  0  0  0  0  0  0  0  0  0
  -24.2069  -10.3344   21.6309 C   0  0  0  0  0  0  0  0  0  0  0  0
  -26.0380  -11.9461   20.8846 C   0  0  0  0  0  0  0  0  0  0  0  0
  -19.6752  -29.7899   25.2282 C   0  0  0  0  0  0  0  0  0  0  0  0
  -25.3114  -29.0026   20.5919 C   0  0  0  0  0  0  0  0  0  0  0  0
  -20.7812  -29.1239   24.6665 C   0  0  0  0  0  0  0  0  0  0  0  0
  -25.0127  -28.2379   19.4552 C   0  0  0  0  0  0  0  0  0  0  0  0
  -27.3319  -19.2701   20.9852 C   0  0  0  0  0  0  0  0  0  0  0  0
  -29.0668  -20.8861   21.4492 C   0  0  0  0  0  0  0  0  0  0  0  0
  -27.1315  -19.0922   22.3541 C   0  0  0  0  0  0  0  0  0  0  0  0
  -22.5759   -8.0892   21.3456 C   0  0  0  0  0  0  0  0  0  0  0  0
  -27.0434  -26.9478   19.8047 C   0  0  0  0  0  0  0  0  0  0  0  0
  -21.6147   -6.1737   22.3095 C   0  0  0  0  0  0  0  0  0  0  0  0
  -21.2818   -4.5243   24.5346 C   0  0  0  0  0  0  0  0  0  0  0  0
  -21.9991   -4.8342   22.2485 C   0  0  0  0  0  0  0  0  0  0  0  0
  -28.8665  -20.7083   22.8180 C   0  0  0  0  0  0  0  0  0  0  0  0
  -25.0486  -11.4945   21.7784 C   0  0  0  0  0  0  0  0  0  0  0  0
  -26.5458  -13.0765   21.4770 C   0  0  0  0  0  0  0  0  0  0  0  0
  -26.4602  -11.3934   19.6308 C   0  0  0  0  0  0  0  0  0  0  0  0
  -22.2051  -28.9303   21.2624 C   0  0  0  0  0  0  0  0  0  0  0  0
  -21.9294  -30.1704   18.2777 C   0  0  0  0  0  0  0  0  0  0  0  0
  -28.9311  -23.8628   20.0645 C   0  0  0  0  0  0  0  0  0  0  0  0
  -23.2805  -30.5673   15.1691 C   0  0  0  0  0  0  0  0  0  0  0  0
  -25.8434  -17.9029   24.1631 C   0  0  0  0  0  0  0  0  0  0  0  0
  -18.3726  -29.9334   24.4816 C   0  0  0  0  0  0  0  0  0  0  0  0
  -24.4081  -30.1301   21.0104 C   0  0  0  0  0  0  0  0  0  0  0  0
  -23.7748  -28.4874   18.6344 C   0  0  0  0  0  0  0  0  0  0  0  0
  -18.5040  -29.7052   22.9780 C   0  0  0  0  0  0  0  0  0  0  0  0
  -25.8747  -14.9389   26.1356 C   0  0  0  0  0  0  0  0  0  0  0  0
  -19.3257  -28.4509   22.6981 C   0  0  0  0  0  0  0  0  0  0  0  0
  -25.7440  -13.8157   25.1044 C   0  0  0  0  0  0  0  0  0  0  0  0
  -25.0470  -16.1632   25.7488 C   0  0  0  0  0  0  0  0  0  0  0  0
  -25.1636  -15.5544   23.3645 C   0  0  0  0  0  0  0  0  0  0  0  0
  -20.7493  -28.5892   23.2512 C   0  0  1  0  0  0  0  0  0  0  0  0
  -22.9785  -29.9704   20.5023 C   0  0  1  0  0  0  0  0  0  0  0  0
  -26.0308  -14.3242   23.6779 C   0  0  2  0  0  0  0  0  0  0  0  0
  -26.5259  -18.5115   19.9810 C   0  0  0  0  0  0  0  0  0  0  0  0
  -22.8041  -31.5974   12.9309 C   0  0  0  0  0  0  0  0  0  0  0  0
  -19.9849  -27.9040   17.6512 C   0  0  0  0  0  0  0  0  0  0  0  0
  -20.2873  -28.4106   15.2181 C   0  0  0  0  0  0  0  0  0  0  0  0
  -19.3167  -30.1342   16.7379 C   0  0  0  0  0  0  0  0  0  0  0  0
  -25.6498  -32.3319   15.3473 C   0  0  0  0  0  0  0  0  0  0  0  0
  -30.0985  -21.8410   20.9219 C   0  0  0  0  0  0  0  0  0  0  0  0
  -28.6273  -25.2950   20.4493 C   0  0  0  0  0  0  0  0  0  1  0  0
  -21.7819  -29.5943   16.8901 C   0  0  1  0  0  0  0  0  0  0  0  0
  -23.4495  -31.7959   14.2936 C   0  0  2  0  0  0  0  0  0  0  0  0
  -20.3651  -29.0046   16.6407 C   0  0  0  0  0  0  0  0  0  0  0  0
  -24.9333  -12.2742   22.8567 N   0  0  0  0  0  0  0  0  0  0  0  0
  -25.8568  -13.2271   22.6444 N   0  0  0  0  0  0  0  0  0  0  0  0
  -22.9198  -29.5970   19.0876 N   0  0  0  0  0  0  0  0  0  0  0  0
  -25.3753  -16.5908   24.3871 N   0  0  0  0  0  0  0  0  0  0  0  0
  -27.5101  -13.9462   21.1081 N   0  0  0  0  0  0  0  0  0  0  0  0
  -25.8329  -10.2282   19.1692 N   0  0  0  0  0  0  0  0  0  0  0  0
  -26.1542  -18.1851   22.8333 N   0  0  0  0  0  0  0  0  0  0  0  0
  -21.5523  -29.4185   22.3782 N   0  0  0  0  0  0  0  0  0  0  0  0
  -29.6730  -23.2164   21.0407 N   0  0  0  0  0  0  0  0  0  0  0  0
  -22.1580  -30.6576   15.9647 N   0  0  0  0  0  0  0  0  0  0  0  0
  -24.8959  -32.0919   14.0899 N   0  3  0  0  0  0  0  0  0  0  0  0
  -27.3782  -11.9080   18.9482 O   0  0  0  0  0  0  0  0  0  0  0  0
  -22.1998  -27.7711   20.8652 O   0  0  0  0  0  0  0  0  0  0  0  0
  -21.1976  -31.0998   18.6275 O   0  0  0  0  0  0  0  0  0  0  0  0
  -28.5532  -23.3643   19.0078 O   0  0  0  0  0  0  0  0  0  0  0  0
  -24.0638  -29.6205   15.1466 O   0  0  0  0  0  0  0  0  0  0  0  0
  -25.9858  -18.7077   25.0873 O   0  0  0  0  0  0  0  0  0  0  0  0
  -21.7800   -6.9939   21.2061 O   0  0  0  0  0  0  0  0  0  0  0  0
  -27.8804  -25.9454   19.4219 O   0  0  0  0  0  0  0  0  0  1  0  0
  -21.1233   -3.7328   25.6036 F   0  0  0  0  0  0  0  0  0  0  0  0
  -22.5300   -4.3344   21.1242 F   0  0  0  0  0  0  0  0  0  0  0  0
  -29.7971  -21.5803   23.9813 Cl  0  0  0  0  0  0  0  0  0  0  0  0
  1  2  1  0  0  0  0
  1  5  2  0  0  0  0
  2  6  2  0  0  0  0
  3  8  2  0  0  0  0
  3 17  1  0  0  0  0
  4  9  1  0  0  0  0
  4 17  2  0  0  0  0
  5 19  1  0  0  0  0
  6 21  1  0  0  0  0
  7 10  2  0  0  0  0
  7 20  1  0  0  0  0
  8 26  1  0  0  0  0
  9 26  2  0  0  0  0
 10 27  1  0  0  0  0
 11 12  2  0  0  0  0
 11 28  1  0  0  0  0
 12 29  1  0  0  0  0
 13 22  1  0  0  0  0
 13 27  2  0  0  0  0
 14 23  2  0  0  0  0
 14 24  1  0  0  0  0
 15 25  2  0  0  0  0
 15 31  1  0  0  0  0
 16 29  2  0  0  0  0
 16 30  1  0  0  0  0
 17 32  1  0  0  0  0
 18 32  1  0  0  0  0
 18 33  2  0  0  0  0
 18 34  1  0  0  0  0
 19 21  2  0  0  0  0
 19 40  1  0  0  0  0
 20 22  2  0  0  0  0
 20 41  1  0  0  0  0
 21 49  1  0  0  0  0
 22 42  1  0  0  0  0
 23 25  1  0  0  0  0
 23 52  1  0  0  0  0
 24 31  2  0  0  0  0
 24 58  1  0  0  0  0
 25 69  1  0  0  0  0
 26 80  1  0  0  0  0
 27 81  1  0  0  0  0
 28 30  2  0  0  0  0
 28 80  1  0  0  0  0
 29 82  1  0  0  0  0
 30 83  1  0  0  0  0
 31 84  1  0  0  0  0
 32 63  2  0  0  0  0
 33 64  1  0  0  0  0
 33 67  1  0  0  0  0
 34 68  1  0  0  0  0
 34 74  2  0  0  0  0
 35 50  1  0  0  0  0
 35 70  1  0  0  0  0
 35 75  2  0  0  0  0
 36 60  1  0  0  0  0
 36 65  1  0  0  0  0
 36 76  2  0  0  0  0
 37 59  1  0  0  0  0
 37 71  1  0  0  0  0
 37 77  2  0  0  0  0
 38 61  1  0  0  0  0
 38 72  1  0  0  0  0
 38 78  2  0  0  0  0
 39 66  1  0  0  0  0
 39 69  1  0  0  0  0
 39 79  2  0  0  0  0
 40 43  1  0  0  0  0
 41 50  1  0  0  0  0
 42 65  1  0  0  0  0
 43 45  1  0  0  0  0
 44 46  1  0  0  0  0
 44 47  1  0  0  0  0
 45 49  1  0  0  0  0
 46 51  1  0  0  0  0
 47 66  1  0  0  0  0
 48 51  1  0  0  0  0
 48 66  1  0  0  0  0
 49 70  1  0  0  0  0
 50 65  1  0  0  0  0
 51 64  1  0  0  0  0
 53 61  1  0  0  0  0
 54 62  1  0  0  0  0
 55 62  1  0  0  0  0
 56 62  1  0  0  0  0
 57 73  1  0  0  0  0
 58 71  1  0  0  0  0
 59 81  1  0  0  0  0
 60 62  1  0  0  0  0
 60 72  1  0  0  0  0
 61 73  1  0  0  0  0
 63 64  1  0  0  0  0
M  CHG  1  73   1
M  ISO  4  39 100  59 101  69 100  81 101
M  END
> <Batch ID>
0042

> <Smiles>
CNC(C)C(=O)NC(C(=O)N1Cc2cc([101O:1][101CH2:1]C(=O)NCc3cc(C)c([100NH:0][100C:0](=O)N4CCCC(n5nc(-c6ccc(Oc7ccc(F)cc7F)cc6)c(C(N)=O)c5N)C4)cc3Cl)ccc2CC1C(=O)NC1CCCc2ccccc21)C(C)(C)C

> <Shape>
0.250

> <Color>
0.118

> <Negative vol penalty>
0.000

$$$$

  -OEChem-04042322123D

 86 94  0     1  0  0  0  0  0999 V2000
  -13.1124  -15.1929   27.2333 C   0  0  0  0  0  0  0  0  0  0  0  0
  -14.0909  -14.5431   26.4879 C   0  0  0  0  0  0  0  0  0  0  0  0
  -23.1907   -9.8192   19.9318 C   0  0  0  0  0  0  0  0  0  0  0  0
  -23.5690   -9.9994   22.3112 C   0  0  0  0  0  0  0  0  0  0  0  0
  -13.3973  -16.4152   27.8405 C   0  0  0  0  0  0  0  0  0  0  0  0
  -15.3546  -15.1157   26.3484 C   0  0  0  0  0  0  0  0  0  0  0  0
  -22.2569  -13.3168   25.6863 C   0  0  0  0  0  0  0  0  0  0  0  0
  -22.4245   -8.6725   20.1405 C   0  0  0  0  0  0  0  0  0  0  0  0
  -22.8028   -8.8526   22.5199 C   0  0  0  0  0  0  0  0  0  0  0  0
  -23.3586  -13.5568   24.8663 C   0  0  0  0  0  0  0  0  0  0  0  0
  -23.2042   -5.5060   22.2554 C   0  0  0  0  0  0  0  0  0  0  0  0
  -23.7027   -4.5447   23.1345 C   0  0  0  0  0  0  0  0  0  0  0  0
  -23.7617  -15.6334   26.0257 C   0  0  0  0  0  0  0  0  0  0  0  0
  -30.5026  -11.7513   25.8717 C   0  0  0  0  0  0  0  0  0  0  0  0
  -21.7462   -4.8043   24.5280 C   0  0  0  0  0  0  0  0  0  0  0  0
  -29.5583  -12.8860   27.7841 C   0  0  0  0  0  0  0  0  0  0  0  0
  -23.7630  -10.4827   21.0172 C   0  0  0  0  0  0  0  0  0  0  0  0
  -24.1014  -12.9994   20.7737 C   0  0  0  0  0  0  0  0  0  0  0  0
  -14.6681  -16.9985   27.7164 C   0  0  0  0  0  0  0  0  0  0  0  0
  -21.8922  -14.2402   26.6767 C   0  0  0  0  0  0  0  0  0  0  0  0
  -15.6563  -16.3477   26.9534 C   0  0  0  0  0  0  0  0  0  0  0  0
  -22.6565  -15.4016   26.8586 C   0  0  0  0  0  0  0  0  0  0  0  0
  -30.8470  -12.9815   25.3117 C   0  0  0  0  0  0  0  0  0  0  0  0
  -30.5471  -14.1640   25.9880 C   0  0  0  0  0  0  0  0  0  0  0  0
  -22.2306   -8.1892   21.4345 C   0  0  0  0  0  0  0  0  0  0  0  0
  -24.1095  -14.7166   25.0339 C   0  0  0  0  0  0  0  0  0  0  0  0
  -21.9767   -6.1166   22.5126 C   0  0  0  0  0  0  0  0  0  0  0  0
  -22.9737   -4.1938   24.2708 C   0  0  0  0  0  0  0  0  0  0  0  0
  -21.2477   -5.7658   23.6489 C   0  0  0  0  0  0  0  0  0  0  0  0
  -29.8582  -11.7035   27.1079 C   0  0  0  0  0  0  0  0  0  0  0  0
  -29.9027  -14.1163   27.2242 C   0  0  0  0  0  0  0  0  0  0  0  0
  -24.5550  -11.6670   20.8022 C   0  0  0  0  0  0  0  0  0  0  0  0
  -25.2326  -13.7421   20.5384 C   0  0  0  0  0  0  0  0  0  0  0  0
  -22.7762  -13.5191   20.9446 C   0  0  0  0  0  0  0  0  0  0  0  0
  -19.3266  -16.0305   27.2389 C   0  0  0  0  0  0  0  0  0  0  0  0
  -20.9032  -16.7386   29.9839 C   0  0  0  0  0  0  0  0  0  0  0  0
  -27.5738  -15.3297   24.1558 C   0  0  0  0  0  0  0  0  0  0  0  0
  -23.8775  -16.9552   31.6433 C   0  0  0  0  0  0  0  0  0  0  0  0
  -31.0475  -12.7526   21.5673 C   0  0  0  0  0  0  0  0  0  0  0  0
  -14.9145  -18.3441   28.3516 C   0  0  0  0  0  0  0  0  0  0  0  0
  -20.7170  -13.9538   27.5707 C   0  0  0  0  0  0  0  0  0  0  0  0
  -22.3189  -16.4148   27.9207 C   0  0  0  0  0  0  0  0  0  0  0  0
  -16.3941  -18.7017   28.4664 C   0  0  0  0  0  0  0  0  0  0  0  0
  -29.5199  -13.4702   18.4323 C   0  0  0  0  0  0  0  0  0  0  0  0
  -17.1159  -18.4154   27.1534 C   0  0  0  0  0  0  0  0  0  0  0  0
  -28.0333  -13.2096   18.6816 C   0  0  0  0  0  0  0  0  0  0  0  0
  -30.4013  -12.4808   19.1913 C   0  0  0  0  0  0  0  0  0  0  0  0
  -28.6479  -12.1377   20.8888 C   0  0  0  0  0  0  0  0  0  0  0  0
  -17.0467  -16.9249   26.7995 C   0  0  1  0  0  0  0  0  0  0  0  0
  -20.1306  -15.2100   28.2074 C   0  0  1  0  0  0  0  0  0  0  0  0
  -27.7203  -13.1455   20.1886 C   0  0  2  0  0  0  0  0  0  0  0  0
  -24.8518  -17.6010   33.8639 C   0  0  0  0  0  0  0  0  0  0  0  0
  -20.5511  -19.6862   29.2784 C   0  0  0  0  0  0  0  0  0  0  0  0
  -22.3169  -20.2297   30.9681 C   0  0  0  0  0  0  0  0  0  0  0  0
  -20.1925  -19.1413   31.6927 C   0  0  0  0  0  0  0  0  0  0  0  0
  -24.9491  -14.2338   32.0953 C   0  0  0  0  0  0  0  0  0  0  0  0
  -30.9261  -15.4865   25.3680 C   0  0  0  0  0  0  0  0  0  0  0  0
  -31.5377  -13.0036   23.9872 C   0  0  0  0  0  0  0  0  0  0  0  0
  -26.2557  -15.7126   24.7943 C   0  0  0  0  0  0  0  0  0  1  0  0
  -29.9930  -15.9013   24.2330 C   0  0  0  0  0  0  0  0  0  0  0  0
  -21.8989  -17.7931   30.4033 C   0  0  1  0  0  0  0  0  0  0  0  0
  -24.3036  -16.4644   33.0152 C   0  0  2  0  0  0  0  0  0  0  0  0
  -21.2453  -19.1946   30.5642 C   0  0  0  0  0  0  0  0  0  0  0  0
  -25.8716  -11.5660   20.6010 N   0  0  0  0  0  0  0  0  0  0  0  0
  -26.2550  -12.8444   20.4437 N   0  0  0  0  0  0  0  0  0  0  0  0
  -21.1570  -16.0927   28.7656 N   0  0  0  0  0  0  0  0  0  0  0  0
  -30.0548  -12.4695   20.6146 N   0  0  0  0  0  0  0  0  0  0  0  0
  -25.4424  -15.0690   20.4053 N   0  0  0  0  0  0  0  0  0  0  0  0
  -21.7296  -12.6168   21.1786 N   0  0  0  0  0  0  0  0  0  0  0  0
  -17.9977  -16.1731   27.5899 N   0  0  0  0  0  0  0  0  0  0  0  0
  -28.6268  -16.0687   24.6717 N   0  0  0  0  0  0  0  0  0  0  0  0
  -22.5403  -17.2904   31.6134 N   0  0  0  0  0  0  0  0  0  0  0  0
  -30.6333  -12.7271   22.8934 N   0  0  0  0  0  0  0  0  0  0  0  0
  -25.3605  -15.4216   32.8870 N   0  3  0  0  0  0  0  0  0  0  0  0
  -22.5249  -14.7461   20.8750 O   0  0  0  0  0  0  0  0  0  0  0  0
  -19.8719  -16.5007   26.2473 O   0  0  0  0  0  0  0  0  0  0  0  0
  -19.9399  -16.4920   30.7138 O   0  0  0  0  0  0  0  0  0  0  0  0
  -27.6653  -14.4659   23.2877 O   0  0  0  0  0  0  0  0  0  0  0  0
  -24.6541  -17.0370   30.6943 O   0  0  0  0  0  0  0  0  0  0  0  0
  -32.2150  -13.0144   21.2586 O   0  0  0  0  0  0  0  0  0  0  0  0
  -21.4828   -7.0704   21.6385 O   0  0  0  0  0  0  0  0  0  0  0  0
  -25.1849  -14.9535   24.2345 O   0  0  0  0  0  0  0  0  0  1  0  0
  -23.4518   -3.2694   25.1141 F   0  0  0  0  0  0  0  0  0  0  0  0
  -20.0673   -6.3481   23.9006 F   0  0  0  0  0  0  0  0  0  0  0  0
  -29.4324  -10.1848   27.7966 Cl  0  0  0  0  0  0  0  0  0  0  0  0
  -29.5141  -15.5571   28.0927 Cl  0  0  0  0  0  0  0  0  0  0  0  0
  1  2  1  0  0  0  0
  1  5  2  0  0  0  0
  2  6  2  0  0  0  0
  3  8  2  0  0  0  0
  3 17  1  0  0  0  0
  4  9  1  0  0  0  0
  4 17  2  0  0  0  0
  5 19  1  0  0  0  0
  6 21  1  0  0  0  0
  7 10  2  0  0  0  0
  7 20  1  0  0  0  0
  8 25  1  0  0  0  0
  9 25  2  0  0  0  0
 10 26  1  0  0  0  0
 11 12  2  0  0  0  0
 11 27  1  0  0  0  0
 12 28  1  0  0  0  0
 13 22  1  0  0  0  0
 13 26  2  0  0  0  0
 14 23  1  0  0  0  0
 14 30  2  0  0  0  0
 15 28  2  0  0  0  0
 15 29  1  0  0  0  0
 16 30  1  0  0  0  0
 16 31  2  0  0  0  0
 17 32  1  0  0  0  0
 18 32  1  0  0  0  0
 18 33  2  0  0  0  0
 18 34  1  0  0  0  0
 19 21  2  0  0  0  0
 19 40  1  0  0  0  0
 20 22  2  0  0  0  0
 20 41  1  0  0  0  0
 21 49  1  0  0  0  0
 22 42  1  0  0  0  0
 23 24  2  0  0  0  0
 23 58  1  0  0  0  0
 24 31  1  0  0  0  0
 24 57  1  0  0  0  0
 25 81  1  0  0  0  0
 26 82  1  0  0  0  0
 27 29  2  0  0  0  0
 27 81  1  0  0  0  0
 28 83  1  0  0  0  0
 29 84  1  0  0  0  0
 30 85  1  0  0  0  0
 31 86  1  0  0  0  0
 32 64  2  0  0  0  0
 33 65  1  0  0  0  0
 33 68  1  0  0  0  0
 34 69  1  0  0  0  0
 34 75  2  0  0  0  0
 35 50  1  0  0  0  0
 35 70  1  0  0  0  0
 35 76  2  0  0  0  0
 36 61  1  0  0  0  0
 36 66  1  0  0  0  0
 36 77  2  0  0  0  0
 37 59  1  0  0  0  0
 37 71  1  0  0  0  0
 37 78  2  0  0  0  0
 38 62  1  0  0  0  0
 38 72  1  0  0  0  0
 38 79  2  0  0  0  0
 39 67  1  0  0  0  0
 39 73  1  0  0  0  0
 39 80  2  0  0  0  0
 40 43  1  0  0  0  0
 41 50  1  0  0  0  0
 42 66  1  0  0  0  0
 43 45  1  0  0  0  0
 44 46  1  0  0  0  0
 44 47  1  0  0  0  0
 45 49  1  0  0  0  0
 46 51  1  0  0  0  0
 47 67  1  0  0  0  0
 48 51  1  0  0  0  0
 48 67  1  0  0  0  0
 49 70  1  0  0  0  0
 50 66  1  0  0  0  0
 51 65  1  0  0  0  0
 52 62  1  0  0  0  0
 53 63  1  0  0  0  0
 54 63  1  0  0  0  0
 55 63  1  0  0  0  0
 56 74  1  0  0  0  0
 57 60  1  0  0  0  0
 58 73  1  0  0  0  0
 59 82  1  0  0  0  0
 60 71  1  0  0  0  0
 61 63  1  0  0  0  0
 61 72  1  0  0  0  0
 62 74  1  0  0  0  0
 64 65  1  0  0  0  0
M  CHG  1  74   1
M  ISO  4  39 100  59 101  73 100  82 101
M  END
> <Batch ID>
0042

> <Smiles>
CNC(C)C(=O)NC(C(=O)N1Cc2cc([101O:1][101CH2:1]C(=O)NCCc3c(Cl)cc(Cl)cc3C[100NH:0][100C:0](=O)N3CCCC(n4nc(-c5ccc(Oc6ccc(F)cc6F)cc5)c(C(N)=O)c4N)C3)ccc2CC1C(=O)NC1CCCc2ccccc21)C(C)(C)C

> <Shape>
0.141

> <Color>
0.182

> <Negative vol penalty>
0.000

$$$$

  -OEChem-04042322123D

 88 97  0     1  0  0  0  0  0999 V2000
  -16.7490  -30.1687   23.9623 C   0  0  0  0  0  0  0  0  0  0  0  0
  -17.9224  -30.7021   24.4857 C   0  0  0  0  0  0  0  0  0  0  0  0
  -29.9404  -12.8170   20.5824 C   0  0  0  0  0  0  0  0  0  0  0  0
  -28.4257  -14.1200   19.2241 C   0  0  0  0  0  0  0  0  0  0  0  0
  -16.7993  -29.0284   23.1616 C   0  0  0  0  0  0  0  0  0  0  0  0
  -19.1469  -30.0947   24.2096 C   0  0  0  0  0  0  0  0  0  0  0  0
  -26.0579  -31.6764   23.1837 C   0  0  0  0  0  0  0  0  0  0  0  0
  -28.9149  -25.5016   21.7221 C   0  0  0  0  0  0  0  0  0  0  0  0
  -28.6290  -24.2271   22.2114 C   0  0  0  0  0  0  0  0  0  0  0  0
  -29.5680  -11.6639   19.8916 C   0  0  0  0  0  0  0  0  0  0  0  0
  -28.0533  -12.9668   18.5333 C   0  0  0  0  0  0  0  0  0  0  0  0
  -27.3247  -31.3157   23.6407 C   0  0  0  0  0  0  0  0  0  0  0  0
  -26.0279  -10.3066   19.0354 C   0  0  0  0  0  0  0  0  0  0  0  0
  -24.6680  -10.1010   18.8034 C   0  0  0  0  0  0  0  0  0  0  0  0
  -27.2982  -29.3959   22.1802 C   0  0  0  0  0  0  0  0  0  0  0  0
  -25.0741  -10.1026   16.4217 C   0  0  0  0  0  0  0  0  0  0  0  0
  -29.3693  -14.0450   20.2487 C   0  0  0  0  0  0  0  0  0  0  0  0
  -31.0429  -15.7931   21.0555 C   0  0  0  0  0  0  0  0  0  0  0  0
  -18.0259  -28.4124   22.8676 C   0  0  0  0  0  0  0  0  0  0  0  0
  -25.3960  -30.8923   22.2279 C   0  0  0  0  0  0  0  0  0  0  0  0
  -19.2135  -28.9443   23.4053 C   0  0  0  0  0  0  0  0  0  0  0  0
  -26.0242  -29.7503   21.7108 C   0  0  0  0  0  0  0  0  0  0  0  0
  -30.1079  -25.7345   21.0377 C   0  0  0  0  0  0  0  0  0  0  0  0
  -31.0149  -24.6928   20.8428 C   0  0  0  0  0  0  0  0  0  0  0  0
  -30.7290  -23.4183   21.3321 C   0  0  0  0  0  0  0  0  0  0  0  0
  -29.5360  -23.1854   22.0165 C   0  0  0  0  0  0  0  0  0  0  0  0
  -28.6244  -11.7388   18.8671 C   0  0  0  0  0  0  0  0  0  0  0  0
  -27.9439  -30.1737   23.1410 C   0  0  0  0  0  0  0  0  0  0  0  0
  -26.9110  -10.4104   17.9606 C   0  0  0  0  0  0  0  0  0  0  0  0
  -24.1910   -9.9990   17.4966 C   0  0  0  0  0  0  0  0  0  0  0  0
  -26.4340  -10.3084   16.6538 C   0  0  0  0  0  0  0  0  0  0  0  0
  -29.7532  -15.2365   20.9622 C   0  0  0  0  0  0  0  0  0  0  0  0
  -30.8790  -16.9102   21.8377 C   0  0  0  0  0  0  0  0  0  0  0  0
  -30.8127  -28.3506   22.5566 C   0  0  0  0  0  0  0  0  0  0  0  0
  -30.8209  -27.5108   23.6084 C   0  0  0  0  0  0  0  0  0  0  0  0
  -32.2785  -15.3408   20.4861 C   0  0  0  0  0  0  0  0  0  0  0  0
  -22.6860  -29.2320   22.1757 C   0  0  0  0  0  0  0  0  0  0  0  0
  -23.4357  -28.8501   19.0429 C   0  0  0  0  0  0  0  0  0  0  0  0
  -26.4065  -28.1768   17.1093 C   0  0  0  0  0  0  0  0  0  0  0  0
  -28.0789  -21.5200   23.2205 C   0  0  0  0  0  0  0  0  0  0  0  0
  -18.0255  -27.1541   22.0362 C   0  0  0  0  0  0  0  0  0  0  0  0
  -24.0411  -31.3097   21.7256 C   0  0  0  0  0  0  0  0  0  0  0  0
  -25.3647  -28.8858   20.6687 C   0  0  0  0  0  0  0  0  0  0  0  0
  -19.4008  -26.7885   21.4838 C   0  0  0  0  0  0  0  0  0  0  0  0
  -32.3440  -31.0339   21.9275 C   0  0  0  0  0  0  0  0  0  0  0  0
  -26.9246  -18.4468   24.5988 C   0  0  0  0  0  0  0  0  0  0  0  0
  -33.0444  -29.7937   21.3705 C   0  0  0  0  0  0  0  0  0  0  0  0
  -20.4601  -26.8938   22.5763 C   0  0  0  0  0  0  0  0  0  0  0  0
  -31.2901  -30.7703   23.0006 C   0  0  0  0  0  0  0  0  0  0  0  0
  -27.6637  -17.3834   23.7832 C   0  0  0  0  0  0  0  0  0  0  0  0
  -26.5304  -19.6474   23.7404 C   0  0  0  0  0  0  0  0  0  0  0  0
  -28.3695  -19.1923   22.1656 C   0  0  0  0  0  0  0  0  0  0  0  0
  -32.1226  -28.9141   20.5288 C   0  0  0  0  0  0  0  0  0  0  0  0
  -20.5635  -28.3284   23.1081 C   0  0  1  0  0  0  0  0  0  0  0  0
  -30.2249  -29.7425   22.6124 C   0  0  2  0  0  0  0  0  0  1  0  0
  -23.2432  -30.1546   21.1287 C   0  0  1  0  0  0  0  0  0  0  0  0
  -28.8441  -17.9924   23.0014 C   0  0  2  0  0  0  0  0  0  0  0  0
  -32.2935  -24.9457   20.1083 C   0  0  0  0  0  0  0  0  0  0  0  0
  -31.7037  -22.3020   21.1217 C   0  0  0  0  0  0  0  0  0  0  0  0
  -26.9756  -28.7609   14.7360 C   0  0  0  0  0  0  0  0  0  0  0  0
  -22.3579  -26.0678   18.4048 C   0  0  0  0  0  0  0  0  0  0  0  0
  -24.1851  -25.8246   16.7106 C   0  0  0  0  0  0  0  0  0  0  0  0
  -22.4710  -27.6175   16.4452 C   0  0  0  0  0  0  0  0  0  0  0  0
  -28.8976  -29.5521   17.9229 C   0  0  0  0  0  0  0  0  0  0  0  0
  -30.3907  -27.1146   20.5218 C   0  0  0  0  0  0  0  0  0  0  0  0
  -24.2287  -27.8404   18.2487 C   0  0  1  0  0  0  0  0  0  0  0  0
  -27.1370  -29.1467   16.1982 C   0  0  2  0  0  0  0  0  0  0  0  0
  -23.3168  -26.8433   17.4795 C   0  0  0  0  0  0  0  0  0  0  0  0
  -28.8375  -15.9417   21.6318 N   0  0  0  0  0  0  0  0  0  0  0  0
  -29.5528  -16.9529   22.1533 N   0  0  0  0  0  0  0  0  0  0  0  0
  -24.0375  -29.3321   20.2139 N   0  0  0  0  0  0  0  0  0  0  0  0
  -27.6996  -20.1740   23.0330 N   0  0  0  0  0  0  0  0  0  0  0  0
  -31.7413  -17.8502   22.2794 N   0  0  0  0  0  0  0  0  0  0  0  0
  -32.6364  -15.8040   19.2126 N   0  0  0  0  0  0  0  0  0  0  0  0
  -29.2249  -21.8988   22.5220 N   0  0  0  0  0  0  0  0  0  0  0  0
  -21.3062  -29.1578   22.1834 N   0  0  0  0  0  0  0  0  0  0  0  0
  -25.1283  -28.6082   17.3947 N   0  0  0  0  0  0  0  0  0  0  0  0
  -31.4190  -27.8530   21.3419 N   0  3  2  0  0  0  0  0  0  0  0  0
  -28.5916  -29.1656   16.5215 N   0  3  0  0  0  0  0  0  0  0  0  0
  -33.0348  -14.5366   21.0817 O   0  0  0  0  0  0  0  0  0  0  0  0
  -23.4513  -28.6307   22.9202 O   0  0  0  0  0  0  0  0  0  0  0  0
  -22.3265  -29.2037   18.6353 O   0  0  0  0  0  0  0  0  0  0  0  0
  -26.9172  -27.1384   17.5231 O   0  0  0  0  0  0  0  0  0  0  0  0
  -27.4503  -22.2732   23.9685 O   0  0  0  0  0  0  0  0  0  0  0  0
  -28.2609  -10.6138   18.1926 O   0  0  0  0  0  0  0  0  0  0  0  0
  -29.1801  -29.8190   23.5858 O   0  0  0  0  0  0  0  0  0  1  0  0
  -22.8853   -9.7999   17.2739 F   0  0  0  0  0  0  0  0  0  0  0  0
  -27.2777  -10.4060   15.6172 F   0  0  0  0  0  0  0  0  0  0  0  0
  1  2  1  0  0  0  0
  1  5  2  0  0  0  0
  2  6  2  0  0  0  0
  3 10  2  0  0  0  0
  3 17  1  0  0  0  0
  4 11  1  0  0  0  0
  4 17  2  0  0  0  0
  5 19  1  0  0  0  0
  6 21  1  0  0  0  0
  7 12  2  0  0  0  0
  7 20  1  0  0  0  0
  8  9  2  0  0  0  0
  8 23  1  0  0  0  0
  9 26  1  0  0  0  0
 10 27  1  0  0  0  0
 11 27  2  0  0  0  0
 12 28  1  0  0  0  0
 13 14  2  0  0  0  0
 13 29  1  0  0  0  0
 14 30  1  0  0  0  0
 15 22  1  0  0  0  0
 15 28  2  0  0  0  0
 16 30  2  0  0  0  0
 16 31  1  0  0  0  0
 17 32  1  0  0  0  0
 18 32  1  0  0  0  0
 18 33  2  0  0  0  0
 18 36  1  0  0  0  0
 19 21  2  0  0  0  0
 19 41  1  0  0  0  0
 20 22  2  0  0  0  0
 20 42  1  0  0  0  0
 21 54  1  0  0  0  0
 22 43  1  0  0  0  0
 23 24  2  0  0  0  0
 23 65  1  0  0  0  0
 24 25  1  0  0  0  0
 24 58  1  0  0  0  0
 25 26  2  0  0  0  0
 25 59  1  0  0  0  0
 26 75  1  0  0  0  0
 27 85  1  0  0  0  0
 28 86  1  0  0  0  0
 29 31  2  0  0  0  0
 29 85  1  0  0  0  0
 30 87  1  0  0  0  0
 31 88  1  0  0  0  0
 32 69  2  0  0  0  0
 33 70  1  0  0  0  0
 33 73  1  0  0  0  0
 34 35  2  0  0  0  0
 34 55  1  0  0  0  0
 34 78  1  0  0  0  0
 36 74  1  0  0  0  0
 36 80  2  0  0  0  0
 37 56  1  0  0  0  0
 37 76  1  0  0  0  0
 37 81  2  0  0  0  0
 38 66  1  0  0  0  0
 38 71  1  0  0  0  0
 38 82  2  0  0  0  0
 39 67  1  0  0  0  0
 39 77  1  0  0  0  0
 39 83  2  0  0  0  0
 40 72  1  0  0  0  0
 40 75  1  0  0  0  0
 40 84  2  0  0  0  0
 41 44  1  0  0  0  0
 42 56  1  0  0  0  0
 43 71  1  0  0  0  0
 44 48  1  0  0  0  0
 45 47  1  0  0  0  0
 45 49  1  0  0  0  0
 46 50  1  0  0  0  0
 46 51  1  0  0  0  0
 47 53  1  0  0  0  0
 48 54  1  0  0  0  0
 49 55  1  0  0  0  0
 50 57  1  0  0  0  0
 51 72  1  0  0  0  0
 52 57  1  0  0  0  0
 52 72  1  0  0  0  0
 53 78  1  0  0  0  0
 54 76  1  0  0  0  0
 55 86  1  0  0  0  0
 56 71  1  0  0  0  0
 57 70  1  0  0  0  0
 60 67  1  0  0  0  0
 61 68  1  0  0  0  0
 62 68  1  0  0  0  0
 63 68  1  0  0  0  0
 64 79  1  0  0  0  0
 65 78  1  0  0  0  0
 66 68  1  0  0  0  0
 66 77  1  0  0  0  0
 67 79  1  0  0  0  0
 69 70  1  0  0  0  0
M  CHG  2  78   1  79   1
M  ISO  4  40 100  55 101  75 100  86 101
M  END
> <Batch ID>
0042

> <Smiles>
C=C1N(Cc2ccc([100NH:0][100C:0](=O)N3CCCC(n4nc(-c5ccc(Oc6ccc(F)cc6F)cc5)c(C(N)=O)c4N)C3)c(C)c2C)CCCC[101CH:1]1[101O:1]c1ccc2c(c1)CN(C(=O)C(NC(=O)C(C)NC)C(C)(C)C)C(C(=O)NC1CCCc3ccccc31)C2

> <Shape>
0.258

> <Color>
0.109

> <Negative vol penalty>
0.000

$$$$

  -OEChem-04042322123D

 84 92  0     1  0  0  0  0  0999 V2000
  -26.0965  -20.7040   15.7408 C   0  0  0  0  0  0  0  0  0  0  0  0
  -26.3946  -20.7642   17.0983 C   0  0  0  0  0  0  0  0  0  0  0  0
  -23.0327   -9.9825   19.9307 C   0  0  0  0  0  0  0  0  0  0  0  0
  -23.8131   -9.9233   22.2164 C   0  0  0  0  0  0  0  0  0  0  0  0
  -26.7702  -21.5310   14.8430 C   0  0  0  0  0  0  0  0  0  0  0  0
  -27.3674  -21.6507   17.5588 C   0  0  0  0  0  0  0  0  0  0  0  0
  -25.9073  -24.1508   21.7136 C   0  0  0  0  0  0  0  0  0  0  0  0
  -30.8617  -19.7116   21.6151 C   0  0  0  0  0  0  0  0  0  0  0  0
  -22.2547   -8.8491   20.1669 C   0  0  0  0  0  0  0  0  0  0  0  0
  -23.0351   -8.7899   22.4526 C   0  0  0  0  0  0  0  0  0  0  0  0
  -25.9703  -23.4638   22.9252 C   0  0  0  0  0  0  0  0  0  0  0  0
  -19.2958   -8.1198   21.6318 C   0  0  0  0  0  0  0  0  0  0  0  0
  -17.9838   -8.1239   21.1584 C   0  0  0  0  0  0  0  0  0  0  0  0
  -31.0137  -19.0199   20.4134 C   0  0  0  0  0  0  0  0  0  0  0  0
  -28.0506  -24.5719   23.4385 C   0  0  0  0  0  0  0  0  0  0  0  0
  -18.4694   -6.1887   19.7959 C   0  0  0  0  0  0  0  0  0  0  0  0
  -23.8119  -10.5196   20.9554 C   0  0  0  0  0  0  0  0  0  0  0  0
  -24.2329  -13.0344   20.8778 C   0  0  0  0  0  0  0  0  0  0  0  0
  -27.7450  -22.4350   15.2939 C   0  0  0  0  0  0  0  0  0  0  0  0
  -26.9228  -25.0468   21.3499 C   0  0  0  0  0  0  0  0  0  0  0  0
  -28.0558  -22.4896   16.6660 C   0  0  0  0  0  0  0  0  0  0  0  0
  -27.9969  -25.2709   22.2230 C   0  0  0  0  0  0  0  0  0  0  0  0
  -30.5031  -19.0245   22.7749 C   0  0  0  0  0  0  0  0  0  0  0  0
  -30.2964  -17.6457   22.7329 C   0  0  0  0  0  0  0  0  0  0  0  0
  -30.4483  -16.9540   21.5312 C   0  0  0  0  0  0  0  0  0  0  0  0
  -22.2559   -8.2528   21.4279 C   0  0  0  0  0  0  0  0  0  0  0  0
  -27.0434  -23.6721   23.7865 C   0  0  0  0  0  0  0  0  0  0  0  0
  -20.1947   -7.1502   21.1872 C   0  0  0  0  0  0  0  0  0  0  0  0
  -17.5706   -7.1584   20.2404 C   0  0  0  0  0  0  0  0  0  0  0  0
  -19.7814   -6.1846   20.2693 C   0  0  0  0  0  0  0  0  0  0  0  0
  -30.8070  -17.6411   20.3715 C   0  0  0  0  0  0  0  0  0  0  0  0
  -24.6162  -11.6900   20.7119 C   0  0  0  0  0  0  0  0  0  0  0  0
  -25.3451  -13.7554   20.5176 C   0  0  0  0  0  0  0  0  0  0  0  0
  -22.9833  -13.5824   21.3181 C   0  0  0  0  0  0  0  0  0  0  0  0
  -29.0270  -25.2078   18.9729 C   0  0  0  0  0  0  0  0  0  0  0  0
  -29.7073  -28.0932   20.2896 C   0  0  0  0  0  0  0  0  0  0  0  0
  -29.6756  -30.0972   23.0519 C   0  0  0  0  0  0  0  0  0  0  0  0
  -30.8431  -14.6239   20.6587 C   0  0  0  0  0  0  0  0  0  0  0  0
  -28.4802  -23.2752   14.2799 C   0  0  0  0  0  0  0  0  0  0  0  0
  -26.8266  -25.8001   20.0515 C   0  0  0  0  0  0  0  0  0  0  0  0
  -29.1025  -26.2375   21.8884 C   0  0  0  0  0  0  0  0  0  0  0  0
  -29.2320  -24.4529   14.8949 C   0  0  0  0  0  0  0  0  0  0  0  0
  -29.6311  -12.2905   18.2580 C   0  0  0  0  0  0  0  0  0  0  0  0
  -30.0209  -24.0016   16.1199 C   0  0  0  0  0  0  0  0  0  0  0  0
  -28.1868  -12.0369   18.6960 C   0  0  0  0  0  0  0  0  0  0  0  0
  -30.5638  -12.4681   19.4547 C   0  0  0  0  0  0  0  0  0  0  0  0
  -28.6934  -13.2271   20.8671 C   0  0  0  0  0  0  0  0  0  0  0  0
  -29.0872  -23.4559   17.2071 C   0  0  1  0  0  0  0  0  0  0  0  0
  -28.1771  -26.3035   19.5514 C   0  0  1  0  0  0  0  0  0  0  0  0
  -27.7050  -13.1065   19.6957 C   0  0  2  0  0  0  0  0  0  0  0  0
  -29.9136  -16.9159   23.9827 C   0  0  0  0  0  0  0  0  0  0  0  0
  -30.3331  -32.3908   23.8291 C   0  0  0  0  0  0  0  0  0  0  0  0
  -32.6297  -27.2208   20.3843 C   0  0  0  0  0  0  0  0  0  0  0  0
  -33.0633  -29.0907   21.9916 C   0  0  0  0  0  0  0  0  0  0  0  0
  -32.2716  -29.5937   19.6802 C   0  0  0  0  0  0  0  0  0  0  0  0
  -26.8797  -30.7974   23.7237 C   0  0  0  0  0  0  0  0  0  0  0  0
  -30.3457  -19.7933   24.0536 C   0  0  0  0  0  0  0  0  0  0  0  0
  -27.2520  -20.8613   26.0409 C   0  0  0  0  0  0  0  0  0  0  0  0
  -28.7326  -20.6926   25.7353 C   0  0  0  0  0  0  0  0  0  0  0  0
  -26.5072  -21.7087   25.0168 C   0  0  0  0  0  0  0  0  0  1  0  0
  -30.6624  -28.5861   21.3497 C   0  0  1  0  0  0  0  0  0  0  0  0
  -29.2198  -31.5315   23.2506 C   0  0  2  0  0  0  0  0  0  0  0  0
  -32.1371  -28.6031   20.8572 C   0  0  0  0  0  0  0  0  0  0  0  0
  -25.8735  -11.5618   20.2798 N   0  0  0  0  0  0  0  0  0  0  0  0
  -26.2899  -12.8350   20.1711 N   0  0  0  0  0  0  0  0  0  0  0  0
  -28.9665  -26.9452   20.6046 N   0  0  0  0  0  0  0  0  0  0  0  0
  -30.0459  -13.4998   20.3559 N   0  0  0  0  0  0  0  0  0  0  0  0
  -25.5971  -15.0807   20.4666 N   0  0  0  0  0  0  0  0  0  0  0  0
  -21.9460  -12.6997   21.6486 N   0  0  0  0  0  0  0  0  0  0  0  0
  -30.2330  -15.5538   21.4998 N   0  0  0  0  0  0  0  0  0  0  0  0
  -28.4424  -24.5430   17.9119 N   0  0  0  0  0  0  0  0  0  0  0  0
  -30.1605  -29.8872   21.7783 N   0  0  0  0  0  0  0  0  0  0  0  0
  -28.0562  -31.5811   24.1804 N   0  3  0  0  0  0  0  0  0  0  0  0
  -28.9223  -19.9917   24.4437 N   0  3  0  0  0  0  0  0  0  0  0  0
  -22.7869  -14.8187   21.3999 O   0  0  0  0  0  0  0  0  0  0  0  0
  -30.1320  -24.9831   19.4526 O   0  0  0  0  0  0  0  0  0  0  0  0
  -29.6166  -28.7083   19.2243 O   0  0  0  0  0  0  0  0  0  0  0  0
  -29.6117  -29.2489   23.9389 O   0  0  0  0  0  0  0  0  0  0  0  0
  -31.9728  -14.7653   20.1833 O   0  0  0  0  0  0  0  0  0  0  0  0
  -21.4967   -7.1470   21.6588 O   0  0  0  0  0  0  0  0  0  0  0  0
  -27.1077  -23.0024   24.9694 O   0  0  0  0  0  0  0  0  0  1  0  0
  -16.3102   -7.1615   19.7871 F   0  0  0  0  0  0  0  0  0  0  0  0
  -20.6401   -5.2499   19.8395 F   0  0  0  0  0  0  0  0  0  0  0  0
  -31.0115  -16.8268   18.8609 Cl  0  0  0  0  0  0  0  0  0  0  0  0
  1  2  1  0  0  0  0
  1  5  2  0  0  0  0
  2  6  2  0  0  0  0
  3  9  2  0  0  0  0
  3 17  1  0  0  0  0
  4 10  1  0  0  0  0
  4 17  2  0  0  0  0
  5 19  1  0  0  0  0
  6 21  1  0  0  0  0
  7 11  2  0  0  0  0
  7 20  1  0  0  0  0
  8 14  2  0  0  0  0
  8 23  1  0  0  0  0
  9 26  1  0  0  0  0
 10 26  2  0  0  0  0
 11 27  1  0  0  0  0
 12 13  2  0  0  0  0
 12 28  1  0  0  0  0
 13 29  1  0  0  0  0
 14 31  1  0  0  0  0
 15 22  1  0  0  0  0
 15 27  2  0  0  0  0
 16 29  2  0  0  0  0
 16 30  1  0  0  0  0
 17 32  1  0  0  0  0
 18 32  1  0  0  0  0
 18 33  2  0  0  0  0
 18 34  1  0  0  0  0
 19 21  2  0  0  0  0
 19 39  1  0  0  0  0
 20 22  2  0  0  0  0
 20 40  1  0  0  0  0
 21 48  1  0  0  0  0
 22 41  1  0  0  0  0
 23 24  2  0  0  0  0
 23 57  1  0  0  0  0
 24 25  1  0  0  0  0
 24 51  1  0  0  0  0
 25 31  2  0  0  0  0
 25 70  1  0  0  0  0
 26 80  1  0  0  0  0
 27 81  1  0  0  0  0
 28 30  2  0  0  0  0
 28 80  1  0  0  0  0
 29 82  1  0  0  0  0
 30 83  1  0  0  0  0
 31 84  1  0  0  0  0
 32 64  2  0  0  0  0
 33 65  1  0  0  0  0
 33 68  1  0  0  0  0
 34 69  1  0  0  0  0
 34 75  2  0  0  0  0
 35 49  1  0  0  0  0
 35 71  1  0  0  0  0
 35 76  2  0  0  0  0
 36 61  1  0  0  0  0
 36 66  1  0  0  0  0
 36 77  2  0  0  0  0
 37 62  1  0  0  0  0
 37 72  1  0  0  0  0
 37 78  2  0  0  0  0
 38 67  1  0  0  0  0
 38 70  1  0  0  0  0
 38 79  2  0  0  0  0
 39 42  1  0  0  0  0
 40 49  1  0  0  0  0
 41 66  1  0  0  0  0
 42 44  1  0  0  0  0
 43 45  1  0  0  0  0
 43 46  1  0  0  0  0
 44 48  1  0  0  0  0
 45 50  1  0  0  0  0
 46 67  1  0  0  0  0
 47 50  1  0  0  0  0
 47 67  1  0  0  0  0
 48 71  1  0  0  0  0
 49 66  1  0  0  0  0
 50 65  1  0  0  0  0
 52 62  1  0  0  0  0
 53 63  1  0  0  0  0
 54 63  1  0  0  0  0
 55 63  1  0  0  0  0
 56 73  1  0  0  0  0
 57 74  1  0  0  0  0
 58 59  1  0  0  0  0
 58 60  1  0  0  0  0
 59 74  1  0  0  0  0
 60 81  1  0  0  0  0
 61 63  1  0  0  0  0
 61 72  1  0  0  0  0
 62 73  1  0  0  0  0
 64 65  1  0  0  0  0
M  CHG  2  73   1  74   1
M  ISO  4  38 100  60 101  70 100  81 101
M  END
> <Batch ID>
0042

> <Smiles>
CNC(C)C(=O)NC(C(=O)N1Cc2cc([101O:1][101CH2:1]CCNCc3ccc(Cl)c([100NH:0][100C:0](=O)N4CCCC(n5nc(-c6ccc(Oc7ccc(F)cc7F)cc6)c(C(N)=O)c5N)C4)c3C)ccc2CC1C(=O)NC1CCCc2ccccc21)C(C)(C)C

> <Shape>
0.235

> <Color>
0.203

> <Negative vol penalty>
0.000

$$$$

  -OEChem-04042322123D

 89 97  0     1  0  0  0  0  0999 V2000
  -25.1291  -35.6005   21.6873 C   0  0  0  0  0  0  0  0  0  0  0  0
  -25.8342  -34.4018   21.7222 C   0  0  0  0  0  0  0  0  0  0  0  0
  -26.5621  -13.6315   17.8451 C   0  0  0  0  0  0  0  0  0  0  0  0
  -27.4527  -13.5100   20.0876 C   0  0  0  0  0  0  0  0  0  0  0  0
  -23.8167  -35.6498   22.1556 C   0  0  0  0  0  0  0  0  0  0  0  0
  -25.2278  -33.2518   22.2263 C   0  0  0  0  0  0  0  0  0  0  0  0
  -26.0554  -29.1866   19.3222 C   0  0  0  0  0  0  0  0  0  0  0  0
  -27.3737  -12.5628   17.4648 C   0  0  0  0  0  0  0  0  0  0  0  0
  -28.2642  -12.4411   19.7074 C   0  0  0  0  0  0  0  0  0  0  0  0
  -27.3005  -28.5690   19.4313 C   0  0  0  0  0  0  0  0  0  0  0  0
  -29.4755  -10.0979   15.8123 C   0  0  0  0  0  0  0  0  0  0  0  0
  -30.1638  -10.2023   14.6036 C   0  0  0  0  0  0  0  0  0  0  0  0
  -26.3344  -26.8880   20.8666 C   0  0  0  0  0  0  0  0  0  0  0  0
  -31.4980  -16.3895   16.4356 C   0  0  0  0  0  0  0  0  0  0  0  0
  -32.5452  -18.4537   15.7431 C   0  0  0  0  0  0  0  0  0  0  0  0
  -31.3018  -12.1703   15.4216 C   0  0  0  0  0  0  0  0  0  0  0  0
  -26.6017  -14.1052   19.1565 C   0  0  0  0  0  0  0  0  0  0  0  0
  -24.4559  -15.1428   20.0658 C   0  0  0  0  0  0  0  0  0  0  0  0
  -23.1906  -34.4977   22.6568 C   0  0  0  0  0  0  0  0  0  0  0  0
  -24.9408  -28.6648   19.9945 C   0  0  0  0  0  0  0  0  0  0  0  0
  -23.9063  -33.2860   22.7029 C   0  0  0  0  0  0  0  0  0  0  0  0
  -25.0756  -27.4994   20.7624 C   0  0  0  0  0  0  0  0  0  0  0  0
  -30.5195  -17.1142   17.1161 C   0  0  0  0  0  0  0  0  0  0  0  0
  -31.5666  -19.1784   16.4235 C   0  0  0  0  0  0  0  0  0  0  0  0
  -30.5538  -18.5086   17.1100 C   0  0  0  0  0  0  0  0  0  0  0  0
  -28.2247  -11.9675   18.3959 C   0  0  0  0  0  0  0  0  0  0  0  0
  -27.4408  -27.4212   20.2059 C   0  0  0  0  0  0  0  0  0  0  0  0
  -29.7002  -11.0298   16.8256 C   0  0  0  0  0  0  0  0  0  0  0  0
  -31.0770  -11.2384   14.4083 C   0  0  0  0  0  0  0  0  0  0  0  0
  -30.6134  -12.0659   16.6303 C   0  0  0  0  0  0  0  0  0  0  0  0
  -32.5109  -17.0593   15.7492 C   0  0  0  0  0  0  0  0  0  0  0  0
  -25.7640  -15.2096   19.5498 C   0  0  0  0  0  0  0  0  0  0  0  0
  -24.1031  -16.4531   20.2779 C   0  0  0  0  0  0  0  0  0  0  0  0
  -23.6333  -13.9985   20.3299 C   0  0  0  0  0  0  0  0  0  0  0  0
  -22.9795  -29.7374   22.2543 C   0  0  0  0  0  0  0  0  0  0  0  0
  -21.3889  -26.9785   21.6372 C   0  0  0  0  0  0  0  0  0  0  0  0
  -30.7763  -22.0871   18.2839 C   0  0  0  0  0  0  0  0  0  0  0  0
  -29.9195  -24.7879   19.9411 C   0  0  0  0  0  0  0  0  0  0  0  0
  -21.4876  -23.7812   20.4481 C   0  0  0  0  0  0  0  0  0  0  0  0
  -28.8568  -18.8664   18.9489 C   0  0  0  0  0  0  0  0  0  0  0  0
  -21.7864  -34.6106   23.1955 C   0  0  0  0  0  0  0  0  0  0  0  0
  -23.5988  -29.3276   19.8450 C   0  0  0  0  0  0  0  0  0  0  0  0
  -23.9058  -26.8878   21.4876 C   0  0  0  0  0  0  0  0  0  0  0  0
  -21.0897  -33.2633   23.3673 C   0  0  0  0  0  0  0  0  0  0  0  0
  -25.4908  -20.6179   18.2644 C   0  0  0  0  0  0  0  0  0  0  0  0
  -22.0162  -32.2675   24.0578 C   0  0  0  0  0  0  0  0  0  0  0  0
  -24.7303  -19.3544   18.6467 C   0  0  0  0  0  0  0  0  0  0  0  0
  -26.9614  -20.2951   18.0144 C   0  0  0  0  0  0  0  0  0  0  0  0
  -26.7489  -19.1707   20.2331 C   0  0  0  0  0  0  0  0  0  0  0  0
  -23.2744  -32.0117   23.2195 C   0  0  1  0  0  0  0  0  0  0  0  0
  -22.6416  -29.0030   20.9877 C   0  0  1  0  0  0  0  0  0  0  0  0
  -25.3102  -18.7097   19.9215 C   0  0  2  0  0  0  0  0  0  0  0  0
  -29.4472  -16.3685   17.8426 C   0  0  0  0  0  0  0  0  0  0  0  0
  -20.0391  -21.7603   20.1081 C   0  0  0  0  0  0  0  0  0  0  0  0
  -21.5452  -26.3672   24.6224 C   0  0  0  0  0  0  0  0  0  0  0  0
  -20.9662  -23.9893   24.0948 C   0  0  0  0  0  0  0  0  0  0  0  0
  -19.3513  -25.8130   23.5576 C   0  0  0  0  0  0  0  0  0  0  0  0
  -32.9537  -20.8598   18.4700 C   0  0  0  0  0  0  0  0  0  0  0  0
  -21.8978  -23.8366   17.5177 C   0  0  0  0  0  0  0  0  0  0  0  0
  -31.6302  -20.6783   16.3988 C   0  0  0  0  0  0  0  0  0  0  0  0
  -31.0491  -22.5862   19.6919 C   0  0  0  0  0  0  0  0  0  0  0  0
  -28.6619  -25.4040   20.5159 C   0  0  0  0  0  0  0  0  0  1  0  0
  -21.4501  -25.5672   22.1695 C   0  0  1  0  0  0  0  0  0  0  0  0
  -20.5817  -23.0366   19.4840 C   0  0  2  0  0  0  0  0  0  0  0  0
  -20.8508  -25.4466   23.5991 C   0  0  0  0  0  0  0  0  0  0  0  0
  -26.2117  -16.4632   19.4405 N   0  0  0  0  0  0  0  0  0  0  0  0
  -25.1792  -17.1963   19.8907 N   0  0  0  0  0  0  0  0  0  0  0  0
  -22.6158  -27.5761   21.3155 N   0  0  0  0  0  0  0  0  0  0  0  0
  -27.5512  -19.4119   19.0311 N   0  0  0  0  0  0  0  0  0  0  0  0
  -22.9804  -17.0307   20.7558 N   0  0  0  0  0  0  0  0  0  0  0  0
  -24.1511  -12.7256   20.0545 N   0  0  0  0  0  0  0  0  0  0  0  0
  -29.5592  -19.2451   17.8017 N   0  0  0  0  0  0  0  0  0  0  0  0
  -22.9781  -31.1131   22.1244 N   0  0  0  0  0  0  0  0  0  0  0  0
  -29.9563  -23.4169   20.1420 N   0  0  0  0  0  0  0  0  0  0  0  0
  -20.7941  -24.7266   21.1737 N   0  0  0  0  0  0  0  0  0  0  0  0
  -31.7483  -21.2413   17.7381 N   0  0  0  0  0  0  0  0  0  0  0  0
  -21.3288  -22.6739   18.2466 N   0  3  0  0  0  0  0  0  0  0  0  0
  -22.4675  -14.1027   20.7810 O   0  0  0  0  0  0  0  0  0  0  0  0
  -23.2221  -29.1030   23.2742 O   0  0  0  0  0  0  0  0  0  0  0  0
  -20.2924  -27.5279   21.5047 O   0  0  0  0  0  0  0  0  0  0  0  0
  -29.7518  -22.4214   17.6830 O   0  0  0  0  0  0  0  0  0  0  0  0
  -30.7838  -25.4498   19.3729 O   0  0  0  0  0  0  0  0  0  0  0  0
  -22.6894  -23.5450   20.5502 O   0  0  0  0  0  0  0  0  0  0  0  0
  -29.3075  -18.1295   19.8285 O   0  0  0  0  0  0  0  0  0  0  0  0
  -29.0166  -10.9244   18.0253 O   0  0  0  0  0  0  0  0  0  0  0  0
  -28.6552  -26.8168   20.3146 O   0  0  0  0  0  0  0  0  0  1  0  0
  -31.7391  -11.3376   13.2481 F   0  0  0  0  0  0  0  0  0  0  0  0
  -30.8344  -12.9635   17.6006 F   0  0  0  0  0  0  0  0  0  0  0  0
  -33.7182  -16.1652   14.9096 Cl  0  0  0  0  0  0  0  0  0  0  0  0
  1  2  1  0  0  0  0
  1  5  2  0  0  0  0
  2  6  2  0  0  0  0
  3  8  2  0  0  0  0
  3 17  1  0  0  0  0
  4  9  1  0  0  0  0
  4 17  2  0  0  0  0
  5 19  1  0  0  0  0
  6 21  1  0  0  0  0
  7 10  2  0  0  0  0
  7 20  1  0  0  0  0
  8 26  1  0  0  0  0
  9 26  2  0  0  0  0
 10 27  1  0  0  0  0
 11 12  2  0  0  0  0
 11 28  1  0  0  0  0
 12 29  1  0  0  0  0
 13 22  1  0  0  0  0
 13 27  2  0  0  0  0
 14 23  2  0  0  0  0
 14 31  1  0  0  0  0
 15 24  1  0  0  0  0
 15 31  2  0  0  0  0
 16 29  2  0  0  0  0
 16 30  1  0  0  0  0
 17 32  1  0  0  0  0
 18 32  1  0  0  0  0
 18 33  2  0  0  0  0
 18 34  1  0  0  0  0
 19 21  2  0  0  0  0
 19 41  1  0  0  0  0
 20 22  2  0  0  0  0
 20 42  1  0  0  0  0
 21 50  1  0  0  0  0
 22 43  1  0  0  0  0
 23 25  1  0  0  0  0
 23 53  1  0  0  0  0
 24 25  2  0  0  0  0
 24 60  1  0  0  0  0
 25 72  1  0  0  0  0
 26 85  1  0  0  0  0
 27 86  1  0  0  0  0
 28 30  2  0  0  0  0
 28 85  1  0  0  0  0
 29 87  1  0  0  0  0
 30 88  1  0  0  0  0
 31 89  1  0  0  0  0
 32 66  2  0  0  0  0
 33 67  1  0  0  0  0
 33 70  1  0  0  0  0
 34 71  1  0  0  0  0
 34 78  2  0  0  0  0
 35 51  1  0  0  0  0
 35 73  1  0  0  0  0
 35 79  2  0  0  0  0
 36 63  1  0  0  0  0
 36 68  1  0  0  0  0
 36 80  2  0  0  0  0
 37 61  1  0  0  0  0
 37 76  1  0  0  0  0
 37 81  2  0  0  0  0
 38 62  1  0  0  0  0
 38 74  1  0  0  0  0
 38 82  2  0  0  0  0
 39 64  1  0  0  0  0
 39 75  1  0  0  0  0
 39 83  2  0  0  0  0
 40 69  1  0  0  0  0
 40 72  1  0  0  0  0
 40 84  2  0  0  0  0
 41 44  1  0  0  0  0
 42 51  1  0  0  0  0
 43 68  1  0  0  0  0
 44 46  1  0  0  0  0
 45 47  1  0  0  0  0
 45 48  1  0  0  0  0
 46 50  1  0  0  0  0
 47 52  1  0  0  0  0
 48 69  1  0  0  0  0
 49 52  1  0  0  0  0
 49 69  1  0  0  0  0
 50 73  1  0  0  0  0
 51 68  1  0  0  0  0
 52 67  1  0  0  0  0
 54 64  1  0  0  0  0
 55 65  1  0  0  0  0
 56 65  1  0  0  0  0
 57 65  1  0  0  0  0
 58 76  1  0  0  0  0
 59 77  1  0  0  0  0
 60 76  1  0  0  0  0
 61 74  1  0  0  0  0
 62 86  1  0  0  0  0
 63 65  1  0  0  0  0
 63 75  1  0  0  0  0
 64 77  1  0  0  0  0
 66 67  1  0  0  0  0
M  CHG  1  77   1
M  ISO  4  40 100  62 101  72 100  86 101
M  END
> <Batch ID>
0042

> <Smiles>
CNC(C)C(=O)NC(C(=O)N1Cc2cc([101O:1][101CH2:1]C(=O)NCC(=O)N(C)Cc3cc(Cl)cc(C)c3[100NH:0][100C:0](=O)N3CCCC(n4nc(-c5ccc(Oc6ccc(F)cc6F)cc5)c(C(N)=O)c4N)C3)ccc2CC1C(=O)NC1CCCc2ccccc21)C(C)(C)C

> <Shape>
0.229

> <Color>
0.094

> <Negative vol penalty>
0.000

$$$$

  -OEChem-04042322123D

 87 96  0     1  0  0  0  0  0999 V2000
  -29.9820  -13.0600   19.0950 C   0  0  0  0  0  0  0  0  0  0  0  0
  -29.2291  -13.8136   18.2003 C   0  0  0  0  0  0  0  0  0  0  0  0
  -28.6182  -23.3438   18.5002 C   0  0  0  0  0  0  0  0  0  0  0  0
  -29.7015  -23.7054   20.6292 C   0  0  0  0  0  0  0  0  0  0  0  0
  -29.4029  -12.6000   20.2770 C   0  0  0  0  0  0  0  0  0  0  0  0
  -27.8963  -14.1069   18.4865 C   0  0  0  0  0  0  0  0  0  0  0  0
  -24.2831  -21.0178   18.9472 C   0  0  0  0  0  0  0  0  0  0  0  0
  -28.6951  -21.9648   18.6952 C   0  0  0  0  0  0  0  0  0  0  0  0
  -29.7784  -22.3264   20.8243 C   0  0  0  0  0  0  0  0  0  0  0  0
  -23.5697  -22.1870   19.2119 C   0  0  0  0  0  0  0  0  0  0  0  0
  -27.7157  -19.8305   21.7920 C   0  0  0  0  0  0  0  0  0  0  0  0
  -27.3627  -19.3344   23.0469 C   0  0  0  0  0  0  0  0  0  0  0  0
  -22.1070  -20.9696   20.7039 C   0  0  0  0  0  0  0  0  0  0  0  0
  -20.7045  -29.9565   21.8191 C   0  0  0  0  0  0  0  0  0  0  0  0
  -19.5823  -27.9239   22.4872 C   0  0  0  0  0  0  0  0  0  0  0  0
  -29.5801  -18.4106   23.3055 C   0  0  0  0  0  0  0  0  0  0  0  0
  -29.1215  -24.2141   19.4671 C   0  0  0  0  0  0  0  0  0  0  0  0
  -29.6120  -26.3814   18.2142 C   0  0  0  0  0  0  0  0  0  0  0  0
  -28.0651  -12.8960   20.5824 C   0  0  0  0  0  0  0  0  0  0  0  0
  -23.9203  -19.8217   19.5726 C   0  0  0  0  0  0  0  0  0  0  0  0
  -27.2983  -13.6494   19.6730 C   0  0  0  0  0  0  0  0  0  0  0  0
  -22.8256  -19.7978   20.4523 C   0  0  0  0  0  0  0  0  0  0  0  0
  -21.5617  -29.2157   21.0054 C   0  0  0  0  0  0  0  0  0  0  0  0
  -21.4292  -27.8291   20.9325 C   0  0  0  0  0  0  0  0  0  0  0  0
  -20.4394  -27.1831   21.6734 C   0  0  0  0  0  0  0  0  0  0  0  0
  -29.2751  -21.4561   19.8573 C   0  0  0  0  0  0  0  0  0  0  0  0
  -22.4842  -22.1629   20.0878 C   0  0  0  0  0  0  0  0  0  0  0  0
  -29.0009  -19.6167   21.2938 C   0  0  0  0  0  0  0  0  0  0  0  0
  -28.2949  -18.6245   23.8037 C   0  0  0  0  0  0  0  0  0  0  0  0
  -29.9331  -18.9067   22.0505 C   0  0  0  0  0  0  0  0  0  0  0  0
  -19.7148  -29.3105   22.5600 C   0  0  0  0  0  0  0  0  0  0  0  0
  -29.0428  -25.6387   19.2660 C   0  0  0  0  0  0  0  0  0  0  0  0
  -29.2523  -27.6806   18.4774 C   0  0  0  0  0  0  0  0  0  0  0  0
  -21.3356  -24.8927   21.9931 C   0  0  0  0  0  0  0  0  0  0  0  0
  -30.3957  -25.9367   17.0989 C   0  0  0  0  0  0  0  0  0  0  0  0
  -24.6173  -16.1652   20.0417 C   0  0  0  0  0  0  0  0  0  0  0  0
  -23.8920  -17.2950   22.7999 C   0  0  0  0  0  0  0  0  0  0  0  0
  -23.4545  -19.0114   25.7153 C   0  0  0  0  0  0  0  0  0  0  0  0
  -24.7139  -30.1163   21.5304 C   0  0  0  0  0  0  0  0  0  0  0  0
  -27.4690  -12.3369   21.8500 C   0  0  0  0  0  0  0  0  0  0  0  0
  -24.6218  -18.5255   19.2700 C   0  0  0  0  0  0  0  0  0  0  0  0
  -22.4498  -18.4812   21.0755 C   0  0  0  0  0  0  0  0  0  0  0  0
  -26.1592  -13.0083   22.2549 C   0  0  0  0  0  0  0  0  0  0  0  0
  -18.9068  -23.8221   20.7556 C   0  0  0  0  0  0  0  0  0  0  0  0
  -28.1923  -30.6102   22.1084 C   0  0  0  0  0  0  0  0  0  0  0  0
  -25.2298  -13.1343   21.0520 C   0  0  0  0  0  0  0  0  0  0  0  0
  -19.7689  -22.9053   21.5978 C   0  0  0  0  0  0  0  0  0  0  0  0
  -28.8560  -29.4590   21.3506 C   0  0  0  0  0  0  0  0  0  0  0  0
  -18.9344  -25.2240   21.3403 C   0  0  0  0  0  0  0  0  0  0  0  0
  -26.8722  -30.1801   22.7446 C   0  0  0  0  0  0  0  0  0  0  0  0
  -26.5734  -28.4091   21.0570 C   0  0  0  0  0  0  0  0  0  0  0  0
  -25.8566  -14.0092   19.9597 C   0  0  1  0  0  0  0  0  0  0  0  0
  -21.1905  -23.4256   21.6274 C   0  0  1  0  0  0  0  0  0  1  0  0
  -24.7201  -17.5932   20.4908 C   0  0  1  0  0  0  0  0  0  0  0  0
  -27.8803  -28.8093   20.3511 C   0  0  2  0  0  0  0  0  0  0  0  0
  -22.3511  -27.0385   20.0580 C   0  0  0  0  0  0  0  0  0  0  0  0
  -23.3278  -18.6754   28.1990 C   0  0  0  0  0  0  0  0  0  0  0  0
  -21.0757  -16.1627   22.4994 C   0  0  0  0  0  0  0  0  0  0  0  0
  -20.6646  -16.7383   24.9011 C   0  0  0  0  0  0  0  0  0  0  0  0
  -22.4430  -15.0952   24.3009 C   0  0  0  0  0  0  0  0  0  0  0  0
  -25.7968  -20.7576   26.1878 C   0  0  0  0  0  0  0  0  0  0  0  0
  -22.6129  -29.9317   20.2224 C   0  0  0  0  0  0  0  0  0  0  0  0
  -22.8091  -17.5497   23.8177 C   0  0  1  0  0  0  0  0  0  0  0  0
  -24.2318  -18.9974   27.0192 C   0  0  2  0  0  0  0  0  0  0  0  0
  -21.7561  -16.4065   23.8612 C   0  0  0  0  0  0  0  0  0  0  0  0
  -28.3727  -26.4026   20.1328 N   0  0  0  0  0  0  0  0  0  0  0  0
  -28.5185  -27.6388   19.6262 N   0  0  0  0  0  0  0  0  0  0  0  0
  -20.2844  -25.7457   21.6132 N   0  0  0  0  0  0  0  0  0  0  0  0
  -23.6613  -17.7626   21.5004 N   0  0  0  0  0  0  0  0  0  0  0  0
  -25.9918  -29.5734   21.7433 N   0  0  0  0  0  0  0  0  0  0  0  0
  -29.4954  -28.8432   17.8358 N   0  0  0  0  0  0  0  0  0  0  0  0
  -31.7888  -25.8797   17.2416 N   0  0  0  0  0  0  0  0  0  0  0  0
  -25.7435  -15.4096   20.3069 N   0  0  0  0  0  0  0  0  0  0  0  0
  -23.4889  -17.7846   25.0869 N   0  0  0  0  0  0  0  0  0  0  0  0
  -23.9463  -29.4852   20.5592 N   0  0  0  0  0  0  0  0  0  0  0  0
  -24.8636  -20.3255   27.2599 N   0  3  0  0  0  0  0  0  0  0  0  0
  -22.3777  -25.2492   22.5511 O   0  0  0  0  0  0  0  0  0  0  0  0
  -29.8771  -25.6154   16.0028 O   0  0  0  0  0  0  0  0  0  0  0  0
  -23.5916  -15.7758   19.4959 O   0  0  0  0  0  0  0  0  0  0  0  0
  -24.9133  -16.6932   23.1436 O   0  0  0  0  0  0  0  0  0  0  0  0
  -22.8716  -20.0098   25.2980 O   0  0  0  0  0  0  0  0  0  0  0  0
  -24.2906  -31.0945   22.1556 O   0  0  0  0  0  0  0  0  0  0  0  0
  -29.3501  -20.1105   20.0481 O   0  0  0  0  0  0  0  0  0  0  0  0
  -21.7949  -23.3089   20.3452 O   0  0  0  0  0  0  0  0  0  1  0  0
  -27.9562  -18.1494   25.0094 F   0  0  0  0  0  0  0  0  0  0  0  0
  -31.1697  -18.6991   21.5777 F   0  0  0  0  0  0  0  0  0  0  0  0
  -18.6581  -30.2246   23.5648 Cl  0  0  0  0  0  0  0  0  0  0  0  0
  1  2  1  0  0  0  0
  1  5  2  0  0  0  0
  2  6  2  0  0  0  0
  3  8  2  0  0  0  0
  3 17  1  0  0  0  0
  4  9  1  0  0  0  0
  4 17  2  0  0  0  0
  5 19  1  0  0  0  0
  6 21  1  0  0  0  0
  7 10  2  0  0  0  0
  7 20  1  0  0  0  0
  8 26  1  0  0  0  0
  9 26  2  0  0  0  0
 10 27  1  0  0  0  0
 11 12  2  0  0  0  0
 11 28  1  0  0  0  0
 12 29  1  0  0  0  0
 13 22  1  0  0  0  0
 13 27  2  0  0  0  0
 14 23  2  0  0  0  0
 14 31  1  0  0  0  0
 15 25  1  0  0  0  0
 15 31  2  0  0  0  0
 16 29  2  0  0  0  0
 16 30  1  0  0  0  0
 17 32  1  0  0  0  0
 18 32  1  0  0  0  0
 18 33  2  0  0  0  0
 18 35  1  0  0  0  0
 19 21  2  0  0  0  0
 19 40  1  0  0  0  0
 20 22  2  0  0  0  0
 20 41  1  0  0  0  0
 21 52  1  0  0  0  0
 22 42  1  0  0  0  0
 23 24  1  0  0  0  0
 23 62  1  0  0  0  0
 24 25  2  0  0  0  0
 24 56  1  0  0  0  0
 25 68  1  0  0  0  0
 26 83  1  0  0  0  0
 27 84  1  0  0  0  0
 28 30  2  0  0  0  0
 28 83  1  0  0  0  0
 29 85  1  0  0  0  0
 30 86  1  0  0  0  0
 31 87  1  0  0  0  0
 32 66  2  0  0  0  0
 33 67  1  0  0  0  0
 33 71  1  0  0  0  0
 34 53  1  0  0  0  0
 34 68  1  0  0  0  0
 34 77  2  0  0  0  0
 35 72  1  0  0  0  0
 35 78  2  0  0  0  0
 36 54  1  0  0  0  0
 36 73  1  0  0  0  0
 36 79  2  0  0  0  0
 37 63  1  0  0  0  0
 37 69  1  0  0  0  0
 37 80  2  0  0  0  0
 38 64  1  0  0  0  0
 38 74  1  0  0  0  0
 38 81  2  0  0  0  0
 39 70  1  0  0  0  0
 39 75  1  0  0  0  0
 39 82  2  0  0  0  0
 40 43  1  0  0  0  0
 41 54  1  0  0  0  0
 42 69  1  0  0  0  0
 43 46  1  0  0  0  0
 44 47  1  0  0  0  0
 44 49  1  0  0  0  0
 45 48  1  0  0  0  0
 45 50  1  0  0  0  0
 46 52  1  0  0  0  0
 47 53  1  0  0  0  0
 48 55  1  0  0  0  0
 49 68  1  0  0  0  0
 50 70  1  0  0  0  0
 51 55  1  0  0  0  0
 51 70  1  0  0  0  0
 52 73  1  0  0  0  0
 53 84  1  0  0  0  0
 54 69  1  0  0  0  0
 55 67  1  0  0  0  0
 57 64  1  0  0  0  0
 58 65  1  0  0  0  0
 59 65  1  0  0  0  0
 60 65  1  0  0  0  0
 61 76  1  0  0  0  0
 62 75  1  0  0  0  0
 63 65  1  0  0  0  0
 63 74  1  0  0  0  0
 64 76  1  0  0  0  0
 66 67  1  0  0  0  0
M  CHG  1  76   1
M  ISO  4  39 100  53 101  75 100  84 101
M  END
> <Batch ID>
0042

> <Smiles>
CNC(C)C(=O)NC(C(=O)N1Cc2cc([101O:1][101CH:1]3CCCN(c4cc(Cl)cc(C[100NH:0][100C:0](=O)N5CCCC(n6nc(-c7ccc(Oc8ccc(F)cc8F)cc7)c(C(N)=O)c6N)C5)c4C)C3=O)ccc2CC1C(=O)NC1CCCc2ccccc21)C(C)(C)C

> <Shape>
0.239

> <Color>
0.064

> <Negative vol penalty>
0.000

$$$$

  -OEChem-04042322123D

 86 94  0     1  0  0  0  0  0999 V2000
  -29.9680  -30.4924   12.7209 C   0  0  0  0  0  0  0  0  0  0  0  0
  -31.1064  -30.2967   13.4964 C   0  0  0  0  0  0  0  0  0  0  0  0
  -23.0587   -9.8270   20.0203 C   0  0  0  0  0  0  0  0  0  0  0  0
  -23.7836   -9.9407   22.3222 C   0  0  0  0  0  0  0  0  0  0  0  0
  -28.7345  -30.7022   13.3361 C   0  0  0  0  0  0  0  0  0  0  0  0
  -31.0120  -30.3117   14.8875 C   0  0  0  0  0  0  0  0  0  0  0  0
  -33.0317  -24.6126   18.8031 C   0  0  0  0  0  0  0  0  0  0  0  0
  -32.6727  -17.5094   23.2969 C   0  0  0  0  0  0  0  0  0  0  0  0
  -32.0885  -16.5861   22.4298 C   0  0  0  0  0  0  0  0  0  0  0  0
  -22.2968   -8.6967   20.3160 C   0  0  0  0  0  0  0  0  0  0  0  0
  -23.0216   -8.8104   22.6180 C   0  0  0  0  0  0  0  0  0  0  0  0
  -33.5942  -23.6432   19.6338 C   0  0  0  0  0  0  0  0  0  0  0  0
  -22.8230   -5.3907   20.7822 C   0  0  0  0  0  0  0  0  0  0  0  0
  -22.8913   -4.3144   19.8977 C   0  0  0  0  0  0  0  0  0  0  0  0
  -32.8456  -24.8634   21.5828 C   0  0  0  0  0  0  0  0  0  0  0  0
  -29.9062  -17.4891   22.9386 C   0  0  0  0  0  0  0  0  0  0  0  0
  -20.5147   -4.4902   19.5003 C   0  0  0  0  0  0  0  0  0  0  0  0
  -23.8022  -10.4490   21.0234 C   0  0  0  0  0  0  0  0  0  0  0  0
  -24.1773  -12.9607   20.7822 C   0  0  0  0  0  0  0  0  0  0  0  0
  -28.6234  -30.7102   14.7355 C   0  0  0  0  0  0  0  0  0  0  0  0
  -32.3598  -25.7045   19.3597 C   0  0  0  0  0  0  0  0  0  0  0  0
  -29.7761  -30.5231   15.5220 C   0  0  0  0  0  0  0  0  0  0  0  0
  -32.2694  -25.8312   20.7556 C   0  0  0  0  0  0  0  0  0  0  0  0
  -31.8736  -18.4225   23.9850 C   0  0  0  0  0  0  0  0  0  0  0  0
  -30.4904  -18.4124   23.8058 C   0  0  0  0  0  0  0  0  0  0  0  0
  -30.7053  -16.5760   22.2506 C   0  0  0  0  0  0  0  0  0  0  0  0
  -22.2781   -8.1884   21.6148 C   0  0  0  0  0  0  0  0  0  0  0  0
  -33.5016  -23.7684   21.0201 C   0  0  0  0  0  0  0  0  0  0  0  0
  -21.6005   -6.0167   21.0259 C   0  0  0  0  0  0  0  0  0  0  0  0
  -21.7372   -3.8641   19.2567 C   0  0  0  0  0  0  0  0  0  0  0  0
  -20.4464   -5.5665   20.3849 C   0  0  0  0  0  0  0  0  0  0  0  0
  -24.5899  -11.6162   20.7184 C   0  0  0  0  0  0  0  0  0  0  0  0
  -25.2842  -13.6780   20.3991 C   0  0  0  0  0  0  0  0  0  0  0  0
  -22.9072  -13.5118   21.1545 C   0  0  0  0  0  0  0  0  0  0  0  0
  -30.4354  -28.8687   18.7594 C   0  0  0  0  0  0  0  0  0  0  0  0
  -29.0638  -27.4200   21.0897 C   0  0  0  0  0  0  0  0  0  0  0  0
  -33.6247  -21.1677   23.5447 C   0  0  0  0  0  0  0  0  0  0  0  0
  -27.6030  -25.3105   23.3376 C   0  0  0  0  0  0  0  0  0  0  0  0
  -30.7597  -14.6670   20.6078 C   0  0  0  0  0  0  0  0  0  0  0  0
  -27.2767  -30.9880   15.3552 C   0  0  0  0  0  0  0  0  0  0  0  0
  -31.7921  -26.8045   18.5044 C   0  0  0  0  0  0  0  0  0  0  0  0
  -31.5673  -27.0404   21.3103 C   0  0  0  0  0  0  0  0  0  0  0  0
  -27.1982  -30.6161   16.8336 C   0  0  0  0  0  0  0  0  0  0  0  0
  -29.6515  -12.1501   18.3463 C   0  0  0  0  0  0  0  0  0  0  0  0
  -28.4224  -31.1359   17.5806 C   0  0  0  0  0  0  0  0  0  0  0  0
  -28.2019  -11.8974   18.7671 C   0  0  0  0  0  0  0  0  0  0  0  0
  -30.5509  -12.4284   19.5493 C   0  0  0  0  0  0  0  0  0  0  0  0
  -28.6324  -13.2439   20.8620 C   0  0  0  0  0  0  0  0  0  0  0  0
  -29.7101  -30.5079   17.0338 C   0  0  1  0  0  0  0  0  0  0  0  0
  -30.4935  -27.4028   19.0742 C   0  0  1  0  0  0  0  0  0  0  0  0
  -27.6755  -13.0229   19.6791 C   0  0  2  0  0  0  0  0  0  0  0  0
  -25.6433  -25.1428   24.8961 C   0  0  0  0  0  0  0  0  0  0  0  0
  -29.1481  -18.8319   25.8750 C   0  0  0  0  0  0  0  0  0  0  0  0
  -30.4673  -29.2890   23.0496 C   0  0  0  0  0  0  0  0  0  0  0  0
  -29.0208  -28.3543   24.8668 C   0  0  0  0  0  0  0  0  0  0  0  0
  -27.9834  -29.5604   22.9454 C   0  0  0  0  0  0  0  0  0  0  0  0
  -26.5235  -22.9518   21.9127 C   0  0  0  0  0  0  0  0  0  0  0  0
  -32.5252  -19.4061   24.9135 C   0  0  0  0  0  0  0  0  0  0  0  0
  -33.4232  -22.5970   23.0887 C   0  0  0  0  0  0  0  0  0  1  0  0
  -28.9501  -27.2525   22.5838 C   0  0  1  0  0  0  0  0  0  0  0  0
  -26.1661  -24.8479   23.4988 C   0  0  2  0  0  0  0  0  0  0  0  0
  -29.6152  -19.3818   24.5302 C   0  0  0  0  0  0  0  0  0  0  0  0
  -29.1218  -28.5969   23.3457 C   0  0  0  0  0  0  0  0  0  0  0  0
  -25.8597  -11.4846   20.3256 N   0  0  0  0  0  0  0  0  0  0  0  0
  -26.2546  -12.7556   20.1390 N   0  0  0  0  0  0  0  0  0  0  0  0
  -30.3454  -27.3109   20.5366 N   0  0  0  0  0  0  0  0  0  0  0  0
  -29.9916  -13.5086   20.3649 N   0  0  0  0  0  0  0  0  0  0  0  0
  -25.5123  -15.0016   20.2627 N   0  0  0  0  0  0  0  0  0  0  0  0
  -21.8789  -12.6327   21.5209 N   0  0  0  0  0  0  0  0  0  0  0  0
  -30.1116  -15.6396   21.3683 N   0  0  0  0  0  0  0  0  0  0  0  0
  -29.8665  -29.1589   17.5341 N   0  0  0  0  0  0  0  0  0  0  0  0
  -32.5794  -20.7327   24.3443 N   0  0  0  0  0  0  0  0  0  0  0  0
  -27.6737  -26.5882   22.8242 N   0  0  0  0  0  0  0  0  0  0  0  0
  -26.0643  -23.3806   23.2589 N   0  3  0  0  0  0  0  0  0  0  0  0
  -22.6855  -14.7464   21.1462 O   0  0  0  0  0  0  0  0  0  0  0  0
  -30.8729  -29.6783   19.5687 O   0  0  0  0  0  0  0  0  0  0  0  0
  -28.0462  -27.6473   20.4292 O   0  0  0  0  0  0  0  0  0  0  0  0
  -34.6068  -20.5017   23.2286 O   0  0  0  0  0  0  0  0  0  0  0  0
  -28.5662  -24.6098   23.6406 O   0  0  0  0  0  0  0  0  0  0  0  0
  -31.8978  -14.7987   20.1502 O   0  0  0  0  0  0  0  0  0  0  0  0
  -21.5345   -7.0856   21.9038 O   0  0  0  0  0  0  0  0  0  0  0  0
  -34.0490  -22.8161   21.8251 O   0  0  0  0  0  0  0  0  0  1  0  0
  -21.8032   -2.8315   18.4061 F   0  0  0  0  0  0  0  0  0  0  0  0
  -19.2693   -6.1646   20.6141 F   0  0  0  0  0  0  0  0  0  0  0  0
  -28.4915  -19.7202   23.8214 F   0  0  0  0  0  0  0  0  0  0  0  0
  -30.2351  -20.5792   24.7782 F   0  0  0  0  0  0  0  0  0  0  0  0
  1  2  1  0  0  0  0
  1  5  2  0  0  0  0
  2  6  2  0  0  0  0
  3 10  2  0  0  0  0
  3 18  1  0  0  0  0
  4 11  1  0  0  0  0
  4 18  2  0  0  0  0
  5 20  1  0  0  0  0
  6 22  1  0  0  0  0
  7 12  2  0  0  0  0
  7 21  1  0  0  0  0
  8  9  2  0  0  0  0
  8 24  1  0  0  0  0
  9 26  1  0  0  0  0
 10 27  1  0  0  0  0
 11 27  2  0  0  0  0
 12 28  1  0  0  0  0
 13 14  2  0  0  0  0
 13 29  1  0  0  0  0
 14 30  1  0  0  0  0
 15 23  1  0  0  0  0
 15 28  2  0  0  0  0
 16 25  1  0  0  0  0
 16 26  2  0  0  0  0
 17 30  2  0  0  0  0
 17 31  1  0  0  0  0
 18 32  1  0  0  0  0
 19 32  1  0  0  0  0
 19 33  2  0  0  0  0
 19 34  1  0  0  0  0
 20 22  2  0  0  0  0
 20 40  1  0  0  0  0
 21 23  2  0  0  0  0
 21 41  1  0  0  0  0
 22 49  1  0  0  0  0
 23 42  1  0  0  0  0
 24 25  2  0  0  0  0
 24 58  1  0  0  0  0
 25 62  1  0  0  0  0
 26 70  1  0  0  0  0
 27 81  1  0  0  0  0
 28 82  1  0  0  0  0
 29 31  2  0  0  0  0
 29 81  1  0  0  0  0
 30 83  1  0  0  0  0
 31 84  1  0  0  0  0
 32 64  2  0  0  0  0
 33 65  1  0  0  0  0
 33 68  1  0  0  0  0
 34 69  1  0  0  0  0
 34 75  2  0  0  0  0
 35 50  1  0  0  0  0
 35 71  1  0  0  0  0
 35 76  2  0  0  0  0
 36 60  1  0  0  0  0
 36 66  1  0  0  0  0
 36 77  2  0  0  0  0
 37 59  1  0  0  0  0
 37 72  1  0  0  0  0
 37 78  2  0  0  0  0
 38 61  1  0  0  0  0
 38 73  1  0  0  0  0
 38 79  2  0  0  0  0
 39 67  1  0  0  0  0
 39 70  1  0  0  0  0
 39 80  2  0  0  0  0
 40 43  1  0  0  0  0
 41 50  1  0  0  0  0
 42 66  1  0  0  0  0
 43 45  1  0  0  0  0
 44 46  1  0  0  0  0
 44 47  1  0  0  0  0
 45 49  1  0  0  0  0
 46 51  1  0  0  0  0
 47 67  1  0  0  0  0
 48 51  1  0  0  0  0
 48 67  1  0  0  0  0
 49 71  1  0  0  0  0
 50 66  1  0  0  0  0
 51 65  1  0  0  0  0
 52 61  1  0  0  0  0
 53 62  1  0  0  0  0
 54 63  1  0  0  0  0
 55 63  1  0  0  0  0
 56 63  1  0  0  0  0
 57 74  1  0  0  0  0
 58 72  1  0  0  0  0
 59 82  1  0  0  0  0
 60 63  1  0  0  0  0
 60 73  1  0  0  0  0
 61 74  1  0  0  0  0
 62 85  1  0  0  0  0
 62 86  1  0  0  0  0
 64 65  1  0  0  0  0
M  CHG  1  74   1
M  ISO  4  39 100  59 101  70 100  82 101
M  END
> <Batch ID>
0042

> <Smiles>
CNC(C)C(=O)NC(C(=O)N1Cc2cc([101O:1][101CH2:1]C(=O)NCc3ccc([100NH:0][100C:0](=O)N4CCCC(n5nc(-c6ccc(Oc7ccc(F)cc7F)cc6)c(C(N)=O)c5N)C4)cc3C(C)(F)F)ccc2CC1C(=O)NC1CCCc2ccccc21)C(C)(C)C

> <Shape>
0.199

> <Color>
0.196

> <Negative vol penalty>
0.000

$$$$

  -OEChem-04042322123D

 83 91  0     1  0  0  0  0  0999 V2000
  -25.9467  -17.2247   12.2546 C   0  0  0  0  0  0  0  0  0  0  0  0
  -26.8948  -16.9628   13.2385 C   0  0  0  0  0  0  0  0  0  0  0  0
  -26.2117  -28.0818   18.9304 C   0  0  0  0  0  0  0  0  0  0  0  0
  -26.4256  -27.8458   21.3253 C   0  0  0  0  0  0  0  0  0  0  0  0
  -24.6399  -17.5492   12.6162 C   0  0  0  0  0  0  0  0  0  0  0  0
  -26.5368  -17.0263   14.5846 C   0  0  0  0  0  0  0  0  0  0  0  0
  -28.6756  -13.5261   19.1321 C   0  0  0  0  0  0  0  0  0  0  0  0
  -29.2634  -20.0631   25.7559 C   0  0  0  0  0  0  0  0  0  0  0  0
  -28.5556  -20.6071   24.6842 C   0  0  0  0  0  0  0  0  0  0  0  0
  -25.2513  -29.0766   19.1142 C   0  0  0  0  0  0  0  0  0  0  0  0
  -25.4653  -28.8407   21.5091 C   0  0  0  0  0  0  0  0  0  0  0  0
  -29.6606  -13.7387   20.0957 C   0  0  0  0  0  0  0  0  0  0  0  0
  -22.8095  -31.0648   22.6089 C   0  0  0  0  0  0  0  0  0  0  0  0
  -21.8130  -30.8366   23.5578 C   0  0  0  0  0  0  0  0  0  0  0  0
  -29.1547  -18.7035   23.3223 C   0  0  0  0  0  0  0  0  0  0  0  0
  -27.9657  -14.4282   21.6676 C   0  0  0  0  0  0  0  0  0  0  0  0
  -21.0996  -28.8773   22.3373 C   0  0  0  0  0  0  0  0  0  0  0  0
  -26.7988  -27.4664   20.0359 C   0  0  0  0  0  0  0  0  0  0  0  0
  -29.8625  -18.1595   24.3941 C   0  0  0  0  0  0  0  0  0  0  0  0
  -29.1835  -26.6104   19.7394 C   0  0  0  0  0  0  0  0  0  0  0  0
  -24.2633  -17.6073   13.9673 C   0  0  0  0  0  0  0  0  0  0  0  0
  -27.3271  -13.7739   19.4262 C   0  0  0  0  0  0  0  0  0  0  0  0
  -25.2240  -17.3533   14.9647 C   0  0  0  0  0  0  0  0  0  0  0  0
  -26.9652  -14.2156   20.7068 C   0  0  0  0  0  0  0  0  0  0  0  0
  -29.9169  -18.8393   25.6109 C   0  0  0  0  0  0  0  0  0  0  0  0
  -28.5012  -19.9273   23.4674 C   0  0  0  0  0  0  0  0  0  0  0  0
  -24.8782  -29.4560   20.4035 C   0  0  0  0  0  0  0  0  0  0  0  0
  -29.3060  -14.1926   21.3627 C   0  0  0  0  0  0  0  0  0  0  0  0
  -22.9510  -30.1994   21.5241 C   0  0  0  0  0  0  0  0  0  0  0  0
  -20.9580  -29.7428   23.4221 C   0  0  0  0  0  0  0  0  0  0  0  0
  -22.0960  -29.1056   21.3884 C   0  0  0  0  0  0  0  0  0  0  0  0
  -27.7904  -26.4383   19.8467 C   0  0  0  0  0  0  0  0  0  0  0  0
  -29.6746  -25.3388   19.5711 C   0  0  0  0  0  0  0  0  0  0  0  0
  -30.5487  -16.8544   24.2124 C   0  0  0  0  0  0  0  0  0  0  0  0
  -29.9639  -27.8122   19.7876 C   0  0  0  0  0  0  0  0  0  0  0  0
  -25.1098  -15.7484   18.2910 C   0  0  0  0  0  0  0  0  0  0  0  0
  -23.1657  -14.0881   20.2876 C   0  0  0  0  0  0  0  0  0  0  0  0
  -22.8543  -12.1462   23.0766 C   0  0  0  0  0  0  0  0  0  0  0  0
  -27.6302  -19.9372   21.1036 C   0  0  0  0  0  0  0  0  0  0  0  0
  -22.8505  -18.0086   14.3105 C   0  0  0  0  0  0  0  0  0  0  0  0
  -26.2739  -13.5141   18.3842 C   0  0  0  0  0  0  0  0  0  0  0  0
  -25.5295  -14.4771   21.0792 C   0  0  0  0  0  0  0  0  0  0  0  0
  -22.4591  -17.6880   15.7507 C   0  0  0  0  0  0  0  0  0  0  0  0
  -28.4489  -21.0521   17.8228 C   0  0  0  0  0  0  0  0  0  0  0  0
  -23.5560  -18.1315   16.7134 C   0  0  0  0  0  0  0  0  0  0  0  0
  -28.5057  -22.5752   17.9611 C   0  0  0  0  0  0  0  0  0  0  0  0
  -27.3458  -20.4448   18.6877 C   0  0  0  0  0  0  0  0  0  0  0  0
  -27.4412  -22.3535   20.2425 C   0  0  0  0  0  0  0  0  0  0  0  0
  -24.8680  -17.3879   16.4351 C   0  0  1  0  0  0  0  0  0  0  0  0
  -24.9842  -14.2904   18.6317 C   0  0  1  0  0  0  0  0  0  0  0  0
  -28.5793  -23.0044   19.4396 C   0  0  2  0  0  0  0  0  0  0  0  0
  -30.6677  -18.2793   26.7748 C   0  0  0  0  0  0  0  0  0  0  0  0
  -21.1349  -10.9729   24.4781 C   0  0  0  0  0  0  0  0  0  0  0  0
  -22.3239  -16.7632   21.4898 C   0  0  0  0  0  0  0  0  0  0  0  0
  -21.3841  -15.5103   23.4431 C   0  0  0  0  0  0  0  0  0  0  0  0
  -20.4555  -15.1341   21.1587 C   0  0  0  0  0  0  0  0  0  0  0  0
  -24.0793   -9.4999   22.5711 C   0  0  0  0  0  0  0  0  0  0  0  0
  -32.2540  -15.6107   22.9083 C   0  0  0  0  0  0  0  0  0  0  0  0
  -31.5592  -14.7849   21.8404 C   0  0  0  0  0  0  0  0  0  1  0  0
  -22.7451  -14.2273   21.7307 C   0  0  1  0  0  0  0  0  0  0  0  0
  -22.1121  -10.8445   23.3199 C   0  0  2  0  0  0  0  0  0  0  0  0
  -21.7545  -15.4057   21.9483 C   0  0  0  0  0  0  0  0  0  0  0  0
  -27.4203  -25.1583   19.7542 N   0  0  0  0  0  0  0  0  0  0  0  0
  -28.5881  -24.5145   19.5868 N   0  0  0  0  0  0  0  0  0  0  0  0
  -24.5370  -14.2143   20.0240 N   0  0  0  0  0  0  0  0  0  0  0  0
  -27.4819  -20.8922   20.0756 N   0  0  0  0  0  0  0  0  0  0  0  0
  -30.9254  -24.8565   19.4125 N   0  0  0  0  0  0  0  0  0  0  0  0
  -29.2998  -29.0334   19.9665 N   0  0  0  0  0  0  0  0  0  0  0  0
  -27.7838  -20.4814   22.3783 N   0  0  0  0  0  0  0  0  0  0  0  0
  -31.5200  -16.8082   23.2202 N   0  0  0  0  0  0  0  0  0  0  0  0
  -24.8128  -16.0462   16.9748 N   0  0  0  0  0  0  0  0  0  0  0  0
  -22.2222  -12.9255   22.1309 N   0  0  0  0  0  0  0  0  0  0  0  0
  -23.0740   -9.7509   23.6357 N   0  3  0  0  0  0  0  0  0  0  0  0
  -30.2198  -15.9010   24.9133 O   0  0  0  0  0  0  0  0  0  0  0  0
  -31.2117  -27.8051   19.6590 O   0  0  0  0  0  0  0  0  0  0  0  0
  -25.4496  -16.5445   19.1585 O   0  0  0  0  0  0  0  0  0  0  0  0
  -22.3099  -13.8682   19.4268 O   0  0  0  0  0  0  0  0  0  0  0  0
  -23.8892  -12.4437   23.6691 O   0  0  0  0  0  0  0  0  0  0  0  0
  -27.6488  -18.7266   20.8669 O   0  0  0  0  0  0  0  0  0  0  0  0
  -23.9413  -30.4269   20.5833 O   0  0  0  0  0  0  0  0  0  0  0  0
  -30.2655  -14.4015   22.3048 O   0  0  0  0  0  0  0  0  0  1  0  0
  -20.0021  -29.5229   24.3342 F   0  0  0  0  0  0  0  0  0  0  0  0
  -22.2279  -28.2700   20.3490 F   0  0  0  0  0  0  0  0  0  0  0  0
  1  2  1  0  0  0  0
  1  5  2  0  0  0  0
  2  6  2  0  0  0  0
  3 10  2  0  0  0  0
  3 18  1  0  0  0  0
  4 11  1  0  0  0  0
  4 18  2  0  0  0  0
  5 21  1  0  0  0  0
  6 23  1  0  0  0  0
  7 12  2  0  0  0  0
  7 22  1  0  0  0  0
  8  9  2  0  0  0  0
  8 25  1  0  0  0  0
  9 26  1  0  0  0  0
 10 27  1  0  0  0  0
 11 27  2  0  0  0  0
 12 28  1  0  0  0  0
 13 14  2  0  0  0  0
 13 29  1  0  0  0  0
 14 30  1  0  0  0  0
 15 19  1  0  0  0  0
 15 26  2  0  0  0  0
 16 24  1  0  0  0  0
 16 28  2  0  0  0  0
 17 30  2  0  0  0  0
 17 31  1  0  0  0  0
 18 32  1  0  0  0  0
 19 25  2  0  0  0  0
 19 34  1  0  0  0  0
 20 32  1  0  0  0  0
 20 33  2  0  0  0  0
 20 35  1  0  0  0  0
 21 23  2  0  0  0  0
 21 40  1  0  0  0  0
 22 24  2  0  0  0  0
 22 41  1  0  0  0  0
 23 49  1  0  0  0  0
 24 42  1  0  0  0  0
 25 52  1  0  0  0  0
 26 69  1  0  0  0  0
 27 80  1  0  0  0  0
 28 81  1  0  0  0  0
 29 31  2  0  0  0  0
 29 80  1  0  0  0  0
 30 82  1  0  0  0  0
 31 83  1  0  0  0  0
 32 63  2  0  0  0  0
 33 64  1  0  0  0  0
 33 67  1  0  0  0  0
 34 70  1  0  0  0  0
 34 74  2  0  0  0  0
 35 68  1  0  0  0  0
 35 75  2  0  0  0  0
 36 50  1  0  0  0  0
 36 71  1  0  0  0  0
 36 76  2  0  0  0  0
 37 60  1  0  0  0  0
 37 65  1  0  0  0  0
 37 77  2  0  0  0  0
 38 61  1  0  0  0  0
 38 72  1  0  0  0  0
 38 78  2  0  0  0  0
 39 66  1  0  0  0  0
 39 69  1  0  0  0  0
 39 79  2  0  0  0  0
 40 43  1  0  0  0  0
 41 50  1  0  0  0  0
 42 65  1  0  0  0  0
 43 45  1  0  0  0  0
 44 46  1  0  0  0  0
 44 47  1  0  0  0  0
 45 49  1  0  0  0  0
 46 51  1  0  0  0  0
 47 66  1  0  0  0  0
 48 51  1  0  0  0  0
 48 66  1  0  0  0  0
 49 71  1  0  0  0  0
 50 65  1  0  0  0  0
 51 64  1  0  0  0  0
 53 61  1  0  0  0  0
 54 62  1  0  0  0  0
 55 62  1  0  0  0  0
 56 62  1  0  0  0  0
 57 73  1  0  0  0  0
 58 59  1  0  0  0  0
 58 70  1  0  0  0  0
 59 81  1  0  0  0  0
 60 62  1  0  0  0  0
 60 72  1  0  0  0  0
 61 73  1  0  0  0  0
 63 64  1  0  0  0  0
M  CHG  1  73   1
M  ISO  4  39 100  59 101  69 100  81 101
M  END
> <Batch ID>
0042

> <Smiles>
CNC(C)C(=O)NC(C(=O)N1Cc2cc([101O:1][101CH2:1]CNC(=O)c3cc([100NH:0][100C:0](=O)N4CCCC(n5nc(-c6ccc(Oc7ccc(F)cc7F)cc6)c(C(N)=O)c5N)C4)ccc3C)ccc2CC1C(=O)NC1CCCc2ccccc21)C(C)(C)C

> <Shape>
0.231

> <Color>
0.056

> <Negative vol penalty>
0.000

$$$$

  -OEChem-04042322123D

 85 93  0     1  0  0  0  0  0999 V2000
  -28.0595  -11.6153   18.6359 C   0  0  0  0  0  0  0  0  0  0  0  0
  -27.6209  -12.6819   17.8579 C   0  0  0  0  0  0  0  0  0  0  0  0
  -28.8760  -25.2736   19.4974 C   0  0  0  0  0  0  0  0  0  0  0  0
  -26.8851  -23.9397   19.8046 C   0  0  0  0  0  0  0  0  0  0  0  0
  -27.4277  -11.3301   19.8456 C   0  0  0  0  0  0  0  0  0  0  0  0
  -26.5493  -13.4633   18.2887 C   0  0  0  0  0  0  0  0  0  0  0  0
  -24.1074  -20.1944   18.0756 C   0  0  0  0  0  0  0  0  0  0  0  0
  -29.6627  -24.1880   19.8823 C   0  0  0  0  0  0  0  0  0  0  0  0
  -27.6718  -22.8541   20.1895 C   0  0  0  0  0  0  0  0  0  0  0  0
  -22.9624  -20.9146   17.7376 C   0  0  0  0  0  0  0  0  0  0  0  0
  -29.1751  -19.6223   20.9059 C   0  0  0  0  0  0  0  0  0  0  0  0
  -28.8679  -18.3737   20.3653 C   0  0  0  0  0  0  0  0  0  0  0  0
  -21.9986  -20.3772   19.8827 C   0  0  0  0  0  0  0  0  0  0  0  0
  -29.2554  -19.2403   18.1436 C   0  0  0  0  0  0  0  0  0  0  0  0
  -18.6953  -25.3601   23.2426 C   0  0  0  0  0  0  0  0  0  0  0  0
  -27.4871  -25.1495   19.4586 C   0  0  0  0  0  0  0  0  0  0  0  0
  -26.2539  -26.5970   17.7582 C   0  0  0  0  0  0  0  0  0  0  0  0
  -26.3541  -12.1144   20.2961 C   0  0  0  0  0  0  0  0  0  0  0  0
  -24.2022  -19.5500   19.3174 C   0  0  0  0  0  0  0  0  0  0  0  0
  -25.9017  -13.1876   19.5049 C   0  0  0  0  0  0  0  0  0  0  0  0
  -23.1468  -19.6516   20.2350 C   0  0  0  0  0  0  0  0  0  0  0  0
  -19.6351  -27.0185   21.2056 C   0  0  0  0  0  0  0  0  0  0  0  0
  -19.7310  -27.4254   22.5364 C   0  0  0  0  0  0  0  0  0  0  0  0
  -19.0692  -25.7824   20.8933 C   0  0  0  0  0  0  0  0  0  0  0  0
  -29.0606  -22.9783   20.2283 C   0  0  0  0  0  0  0  0  0  0  0  0
  -21.9066  -21.0037   18.6401 C   0  0  0  0  0  0  0  0  0  0  0  0
  -29.5225  -20.6799   20.0654 C   0  0  0  0  0  0  0  0  0  0  0  0
  -28.9081  -18.1827   18.9842 C   0  0  0  0  0  0  0  0  0  0  0  0
  -29.5627  -20.4889   18.6843 C   0  0  0  0  0  0  0  0  0  0  0  0
  -19.2611  -26.5961   23.5549 C   0  0  0  0  0  0  0  0  0  0  0  0
  -18.5994  -24.9532   21.9118 C   0  0  0  0  0  0  0  0  0  0  0  0
  -26.6739  -26.2707   19.0616 C   0  0  0  0  0  0  0  0  0  0  0  0
  -25.5102  -27.7413   17.9135 C   0  0  0  0  0  0  0  0  0  0  0  0
  -26.5128  -25.9258   16.5180 C   0  0  0  0  0  0  0  0  0  0  0  0
  -24.5214  -16.5310   20.2594 C   0  0  0  0  0  0  0  0  0  0  0  0
  -24.8080  -17.8853   23.1929 C   0  0  0  0  0  0  0  0  0  0  0  0
  -24.1590  -20.5433   25.2328 C   0  0  0  0  0  0  0  0  0  0  0  0
  -22.4499  -30.0205   22.5277 C   0  0  0  0  0  0  0  0  0  0  0  0
  -25.6723  -11.7385   21.5878 C   0  0  0  0  0  0  0  0  0  0  0  0
  -25.4550  -18.7994   19.6774 C   0  0  0  0  0  0  0  0  0  0  0  0
  -23.2074  -18.9950   21.5891 C   0  0  0  0  0  0  0  0  0  0  0  0
  -24.7851  -12.8449   22.1527 C   0  0  0  0  0  0  0  0  0  0  0  0
  -25.0970  -31.5848   20.7326 C   0  0  0  0  0  0  0  0  0  0  0  0
  -23.9067  -13.4373   21.0553 C   0  0  0  0  0  0  0  0  0  0  0  0
  -25.7634  -30.4297   19.9832 C   0  0  0  0  0  0  0  0  0  0  0  0
  -24.6129  -31.1555   22.1159 C   0  0  0  0  0  0  0  0  0  0  0  0
  -24.4027  -28.8143   21.3752 C   0  0  0  0  0  0  0  0  0  0  0  0
  -24.7585  -14.0735   19.9502 C   0  0  1  0  0  0  0  0  0  0  0  0
  -25.2330  -17.7536   20.7657 C   0  0  1  0  0  0  0  0  0  0  0  0
  -24.8575  -29.1841   19.9530 C   0  0  2  0  0  0  0  0  0  0  0  0
  -20.1389  -27.9082   20.1130 C   0  0  0  0  0  0  0  0  0  0  0  0
  -24.2432  -21.9710   27.2948 C   0  0  0  0  0  0  0  0  0  0  0  0
  -22.5776  -16.0265   24.1312 C   0  0  0  0  0  0  0  0  0  0  0  0
  -22.3006  -17.4889   26.1443 C   0  0  0  0  0  0  0  0  0  0  0  0
  -24.4593  -16.3009   25.7554 C   0  0  0  0  0  0  0  0  0  0  0  0
  -26.6178  -21.9161   24.3226 C   0  0  0  0  0  0  0  0  0  0  0  0
  -20.3408  -28.7549   22.8576 C   0  0  0  0  0  0  0  0  0  0  0  0
  -18.9724  -25.3575   19.4577 C   0  0  0  0  0  0  0  0  0  0  0  0
  -19.8642  -23.8364   17.6887 C   0  0  0  0  0  0  0  0  0  0  0  0
  -20.9513  -22.8126   17.4272 C   0  0  0  0  0  0  0  0  0  1  0  0
  -23.8466  -18.2692   24.2918 C   0  0  1  0  0  0  0  0  0  0  0  0
  -25.0505  -21.3297   26.1769 C   0  0  2  0  0  0  0  0  0  0  0  0
  -23.2938  -17.0323   25.0545 C   0  0  0  0  0  0  0  0  0  0  0  0
  -26.2337  -27.1376   19.9774 N   0  0  0  0  0  0  0  0  0  0  0  0
  -25.5295  -28.0201   19.2484 N   0  0  0  0  0  0  0  0  0  0  0  0
  -24.4508  -18.2672   21.8920 N   0  0  0  0  0  0  0  0  0  0  0  0
  -23.7575  -29.9704   22.0170 N   0  0  0  0  0  0  0  0  0  0  0  0
  -24.8483  -28.5261   17.0370 N   0  0  0  0  0  0  0  0  0  0  0  0
  -27.2956  -24.7634   16.5381 N   0  0  0  0  0  0  0  0  0  0  0  0
  -25.2543  -15.3652   20.3747 N   0  0  0  0  0  0  0  0  0  0  0  0
  -24.5535  -19.2255   25.1369 N   0  0  0  0  0  0  0  0  0  0  0  0
  -21.7044  -28.8563   22.3875 N   0  0  0  0  0  0  0  0  0  0  0  0
  -25.7662  -22.4070   25.4365 N   0  3  0  0  0  0  0  0  0  0  0  0
  -19.9737  -24.3209   19.0878 N   0  3  0  0  0  0  0  0  0  0  0  0
  -26.0769  -26.3536   15.4223 O   0  0  0  0  0  0  0  0  0  0  0  0
  -23.3905  -16.6372   19.7995 O   0  0  0  0  0  0  0  0  0  0  0  0
  -25.8413  -17.2756   23.4792 O   0  0  0  0  0  0  0  0  0  0  0  0
  -23.2057  -21.0466   24.6426 O   0  0  0  0  0  0  0  0  0  0  0  0
  -21.9798  -31.0297   23.0638 O   0  0  0  0  0  0  0  0  0  0  0  0
  -29.8280  -21.9187   20.6037 O   0  0  0  0  0  0  0  0  0  0  0  0
  -20.7877  -21.7055   18.3125 O   0  0  0  0  0  0  0  0  0  1  0  0
  -28.6145  -16.9833   18.4653 F   0  0  0  0  0  0  0  0  0  0  0  0
  -29.8968  -21.5009   17.8718 F   0  0  0  0  0  0  0  0  0  0  0  0
  -19.3611  -27.0630   25.2144 Cl  0  0  0  0  0  0  0  0  0  0  0  0
  -17.8931  -23.4155   21.5674 Cl  0  0  0  0  0  0  0  0  0  0  0  0
  1  2  1  0  0  0  0
  1  5  2  0  0  0  0
  2  6  2  0  0  0  0
  3  8  2  0  0  0  0
  3 16  1  0  0  0  0
  4  9  1  0  0  0  0
  4 16  2  0  0  0  0
  5 18  1  0  0  0  0
  6 20  1  0  0  0  0
  7 10  2  0  0  0  0
  7 19  1  0  0  0  0
  8 25  1  0  0  0  0
  9 25  2  0  0  0  0
 10 26  1  0  0  0  0
 11 12  2  0  0  0  0
 11 27  1  0  0  0  0
 12 28  1  0  0  0  0
 13 21  1  0  0  0  0
 13 26  2  0  0  0  0
 14 28  2  0  0  0  0
 14 29  1  0  0  0  0
 15 30  1  0  0  0  0
 15 31  2  0  0  0  0
 16 32  1  0  0  0  0
 17 32  1  0  0  0  0
 17 33  2  0  0  0  0
 17 34  1  0  0  0  0
 18 20  2  0  0  0  0
 18 39  1  0  0  0  0
 19 21  2  0  0  0  0
 19 40  1  0  0  0  0
 20 48  1  0  0  0  0
 21 41  1  0  0  0  0
 22 23  1  0  0  0  0
 22 24  2  0  0  0  0
 22 51  1  0  0  0  0
 23 30  2  0  0  0  0
 23 57  1  0  0  0  0
 24 31  1  0  0  0  0
 24 58  1  0  0  0  0
 25 80  1  0  0  0  0
 26 81  1  0  0  0  0
 27 29  2  0  0  0  0
 27 80  1  0  0  0  0
 28 82  1  0  0  0  0
 29 83  1  0  0  0  0
 30 84  1  0  0  0  0
 31 85  1  0  0  0  0
 32 64  2  0  0  0  0
 33 65  1  0  0  0  0
 33 68  1  0  0  0  0
 34 69  1  0  0  0  0
 34 75  2  0  0  0  0
 35 49  1  0  0  0  0
 35 70  1  0  0  0  0
 35 76  2  0  0  0  0
 36 61  1  0  0  0  0
 36 66  1  0  0  0  0
 36 77  2  0  0  0  0
 37 62  1  0  0  0  0
 37 71  1  0  0  0  0
 37 78  2  0  0  0  0
 38 67  1  0  0  0  0
 38 72  1  0  0  0  0
 38 79  2  0  0  0  0
 39 42  1  0  0  0  0
 40 49  1  0  0  0  0
 41 66  1  0  0  0  0
 42 44  1  0  0  0  0
 43 45  1  0  0  0  0
 43 46  1  0  0  0  0
 44 48  1  0  0  0  0
 45 50  1  0  0  0  0
 46 67  1  0  0  0  0
 47 50  1  0  0  0  0
 47 67  1  0  0  0  0
 48 70  1  0  0  0  0
 49 66  1  0  0  0  0
 50 65  1  0  0  0  0
 52 62  1  0  0  0  0
 53 63  1  0  0  0  0
 54 63  1  0  0  0  0
 55 63  1  0  0  0  0
 56 73  1  0  0  0  0
 57 72  1  0  0  0  0
 58 74  1  0  0  0  0
 59 60  1  0  0  0  0
 59 74  1  0  0  0  0
 60 81  1  0  0  0  0
 61 63  1  0  0  0  0
 61 71  1  0  0  0  0
 62 73  1  0  0  0  0
 64 65  1  0  0  0  0
M  CHG  2  73   1  74   1
M  ISO  4  38 100  60 101  72 100  81 101
M  END
> <Batch ID>
0042

> <Smiles>
CNC(C)C(=O)NC(C(=O)N1Cc2cc([101O:1][101CH2:1]CNCc3c(Cl)cc(Cl)c(C[100NH:0][100C:0](=O)N4CCCC(n5nc(-c6ccc(Oc7ccc(F)cc7F)cc6)c(C(N)=O)c5N)C4)c3C)ccc2CC1C(=O)NC1CCCc2ccccc21)C(C)(C)C

> <Shape>
0.222

> <Color>
0.074

> <Negative vol penalty>
0.000

$$$$

  -OEChem-04042322123D

 86 94  0     1  0  0  0  0  0999 V2000
  -30.0758  -26.7354   16.4933 C   0  0  0  0  0  0  0  0  0  0  0  0
  -29.3666  -25.5641   16.7393 C   0  0  0  0  0  0  0  0  0  0  0  0
  -25.9949  -13.1498   21.6215 C   0  0  0  0  0  0  0  0  0  0  0  0
  -26.1522  -12.3901   19.3335 C   0  0  0  0  0  0  0  0  0  0  0  0
  -30.0973  -27.7498   17.4496 C   0  0  0  0  0  0  0  0  0  0  0  0
  -28.6794  -25.4060   17.9423 C   0  0  0  0  0  0  0  0  0  0  0  0
  -22.7904  -22.3542   20.6482 C   0  0  0  0  0  0  0  0  0  0  0  0
  -29.4723  -19.6722   25.9271 C   0  0  0  0  0  0  0  0  0  0  0  0
  -28.1950  -19.8410   26.4615 C   0  0  0  0  0  0  0  0  0  0  0  0
  -24.8222  -12.4126   21.7857 C   0  0  0  0  0  0  0  0  0  0  0  0
  -24.9795  -11.6529   19.4977 C   0  0  0  0  0  0  0  0  0  0  0  0
  -22.3955  -21.5003   21.6771 C   0  0  0  0  0  0  0  0  0  0  0  0
  -23.9623   -9.1872   22.3245 C   0  0  0  0  0  0  0  0  0  0  0  0
  -23.8308   -8.4290   23.4878 C   0  0  0  0  0  0  0  0  0  0  0  0
  -22.4381  -23.3522   23.2224 C   0  0  0  0  0  0  0  0  0  0  0  0
  -21.8523   -9.6822   24.0810 C   0  0  0  0  0  0  0  0  0  0  0  0
  -26.6599  -13.1386   20.3954 C   0  0  0  0  0  0  0  0  0  0  0  0
  -28.7409  -20.6849   23.8591 C   0  0  0  0  0  0  0  0  0  0  0  0
  -29.1891  -13.4652   20.4599 C   0  0  0  0  0  0  0  0  0  0  0  0
  -29.4020  -27.6081   18.6609 C   0  0  0  0  0  0  0  0  0  0  0  0
  -23.0230  -23.7137   20.9014 C   0  0  0  0  0  0  0  0  0  0  0  0
  -28.6927  -26.4189   18.9162 C   0  0  0  0  0  0  0  0  0  0  0  0
  -22.8334  -24.2218   22.1944 C   0  0  0  0  0  0  0  0  0  0  0  0
  -29.7453  -20.0943   24.6258 C   0  0  0  0  0  0  0  0  0  0  0  0
  -27.1906  -20.4317   25.6947 C   0  0  0  0  0  0  0  0  0  0  0  0
  -27.4635  -20.8536   24.3935 C   0  0  0  0  0  0  0  0  0  0  0  0
  -24.3145  -11.6642   20.7238 C   0  0  0  0  0  0  0  0  0  0  0  0
  -22.2221  -21.9986   22.9650 C   0  0  0  0  0  0  0  0  0  0  0  0
  -23.0388  -10.1931   22.0395 C   0  0  0  0  0  0  0  0  0  0  0  0
  -22.7758   -8.6764   24.3661 C   0  0  0  0  0  0  0  0  0  0  0  0
  -21.9838  -10.4405   22.9177 C   0  0  0  0  0  0  0  0  0  0  0  0
  -27.8710  -13.9003   20.2250 C   0  0  0  0  0  0  0  0  0  0  0  0
  -29.9696  -14.5524   20.1517 C   0  0  0  0  0  0  0  0  0  0  0  0
  -29.0346  -21.1336   22.4737 C   0  0  0  0  0  0  0  0  0  0  0  0
  -29.6653  -12.1920   20.9159 C   0  0  0  0  0  0  0  0  0  0  0  0
  -25.5456  -25.6357   20.6869 C   0  0  0  0  0  0  0  0  0  0  0  0
  -23.3719  -27.9287   21.4214 C   0  0  0  0  0  0  0  0  0  0  0  0
  -20.3798  -28.7323   22.8527 C   0  0  0  0  0  0  0  0  0  0  0  0
  -28.9939  -20.4157   20.1059 C   0  0  0  0  0  0  0  0  0  0  0  0
  -29.4935  -28.7124   19.6839 C   0  0  0  0  0  0  0  0  0  0  0  0
  -23.4226  -24.6271   19.7751 C   0  0  0  0  0  0  0  0  0  0  0  0
  -23.0505  -25.6775   22.5143 C   0  0  0  0  0  0  0  0  0  0  0  0
  -28.4309  -28.6205   20.7761 C   0  0  0  0  0  0  0  0  0  0  0  0
  -30.0322  -18.4478   17.3588 C   0  0  0  0  0  0  0  0  0  0  0  0
  -28.3331  -27.1939   21.3070 C   0  0  0  0  0  0  0  0  0  0  0  0
  -29.7315  -17.0150   17.8069 C   0  0  0  0  0  0  0  0  0  0  0  0
  -28.9594  -19.4274   17.8326 C   0  0  0  0  0  0  0  0  0  0  0  0
  -28.3674  -17.9556   19.7144 C   0  0  0  0  0  0  0  0  0  0  0  0
  -27.9144  -26.2203   20.1987 C   0  0  1  0  0  0  0  0  0  0  0  0
  -24.1299  -25.8914   20.2534 C   0  0  1  0  0  0  0  0  0  0  0  0
  -29.4549  -16.9424   19.3220 C   0  0  1  0  0  0  0  0  0  0  0  0
  -31.1230  -19.8996   24.0812 C   0  0  0  0  0  0  0  0  0  0  0  0
  -26.3819  -21.4870   23.5758 C   0  0  0  0  0  0  0  0  0  0  0  0
  -18.8889  -30.6931   23.3320 C   0  0  0  0  0  0  0  0  0  0  0  0
  -25.2166  -28.7710   23.7011 C   0  0  0  0  0  0  0  0  0  0  0  0
  -23.2993  -30.0413   24.6904 C   0  0  0  0  0  0  0  0  0  0  0  0
  -24.1808  -30.6676   22.4423 C   0  0  0  0  0  0  0  0  0  0  0  0
  -18.1797  -27.6052   21.2255 C   0  0  0  0  0  0  0  0  0  0  0  0
  -25.8256  -20.6007   26.2939 C   0  0  0  0  0  0  0  0  0  0  0  0
  -22.3931  -19.2376   25.2832 C   0  0  0  0  0  0  0  0  0  0  0  0
  -23.4111  -19.9815   26.1346 C   0  0  0  0  0  0  0  0  0  0  0  0
  -22.2415  -19.8019   23.8759 C   0  0  0  0  0  0  0  0  0  1  0  0
  -22.8481  -28.5347   22.7010 C   0  0  1  0  0  0  0  0  0  0  0  0
  -19.2194  -29.5752   22.3554 C   0  0  2  0  0  0  0  0  0  0  0  0
  -23.8839  -29.4758   23.3784 C   0  0  0  0  0  0  0  0  0  0  0  0
  -27.8136  -15.1654   19.8005 N   0  0  0  0  0  0  0  0  0  0  0  0
  -29.1053  -15.5346   19.7662 N   0  0  0  0  0  0  0  0  0  0  0  0
  -23.4467  -26.5292   21.3806 N   0  0  0  0  0  0  0  0  0  0  0  0
  -28.7643  -19.3028   19.2781 N   0  0  0  0  0  0  0  0  0  0  0  0
  -31.3042  -14.7547   20.1755 N   0  0  0  0  0  0  0  0  0  0  0  0
  -28.7278  -11.1858   21.1863 N   0  0  0  0  0  0  0  0  0  0  0  0
  -28.8215  -20.1831   21.4749 N   0  0  0  0  0  0  0  0  0  0  0  0
  -26.4924  -26.3202   19.9489 N   0  0  0  0  0  0  0  0  0  0  0  0
  -21.5862  -29.1823   22.3594 N   0  0  0  0  0  0  0  0  0  0  0  0
  -18.0041  -28.7308   22.1789 N   0  3  0  0  0  0  0  0  0  0  0  0
  -24.7622  -19.8874   25.5337 N   0  3  0  0  0  0  0  0  0  0  0  0
  -29.3988  -22.2909   22.2845 O   0  0  0  0  0  0  0  0  0  0  0  0
  -30.8848  -11.9588   21.0944 O   0  0  0  0  0  0  0  0  0  0  0  0
  -25.7629  -24.8750   21.6228 O   0  0  0  0  0  0  0  0  0  0  0  0
  -23.6957  -28.6694   20.4897 O   0  0  0  0  0  0  0  0  0  0  0  0
  -20.2314  -27.7731   23.6067 O   0  0  0  0  0  0  0  0  0  0  0  0
  -29.3580  -21.5115   19.6678 O   0  0  0  0  0  0  0  0  0  0  0  0
  -23.1703  -10.9445   20.8837 O   0  0  0  0  0  0  0  0  0  0  0  0
  -21.8374  -21.1671   23.9712 O   0  0  0  0  0  0  0  0  0  1  0  0
  -22.6487   -7.9471   25.4824 F   0  0  0  0  0  0  0  0  0  0  0  0
  -21.0928  -11.4047   22.6487 F   0  0  0  0  0  0  0  0  0  0  0  0
  1  2  1  0  0  0  0
  1  5  2  0  0  0  0
  2  6  2  0  0  0  0
  3 10  2  0  0  0  0
  3 17  1  0  0  0  0
  4 11  1  0  0  0  0
  4 17  2  0  0  0  0
  5 20  1  0  0  0  0
  6 22  1  0  0  0  0
  7 12  2  0  0  0  0
  7 21  1  0  0  0  0
  8  9  2  0  0  0  0
  8 24  1  0  0  0  0
  9 25  1  0  0  0  0
 10 27  1  0  0  0  0
 11 27  2  0  0  0  0
 12 28  1  0  0  0  0
 13 14  2  0  0  0  0
 13 29  1  0  0  0  0
 14 30  1  0  0  0  0
 15 23  1  0  0  0  0
 15 28  2  0  0  0  0
 16 30  2  0  0  0  0
 16 31  1  0  0  0  0
 17 32  1  0  0  0  0
 18 24  2  0  0  0  0
 18 26  1  0  0  0  0
 18 34  1  0  0  0  0
 19 32  1  0  0  0  0
 19 33  2  0  0  0  0
 19 35  1  0  0  0  0
 20 22  2  0  0  0  0
 20 40  1  0  0  0  0
 21 23  2  0  0  0  0
 21 41  1  0  0  0  0
 22 49  1  0  0  0  0
 23 42  1  0  0  0  0
 24 52  1  0  0  0  0
 25 26  2  0  0  0  0
 25 59  1  0  0  0  0
 26 53  1  0  0  0  0
 27 83  1  0  0  0  0
 28 84  1  0  0  0  0
 29 31  2  0  0  0  0
 29 83  1  0  0  0  0
 30 85  1  0  0  0  0
 31 86  1  0  0  0  0
 32 66  2  0  0  0  0
 33 67  1  0  0  0  0
 33 70  1  0  0  0  0
 34 72  1  0  0  0  0
 34 77  2  0  0  0  0
 35 71  1  0  0  0  0
 35 78  2  0  0  0  0
 36 50  1  0  0  0  0
 36 73  1  0  0  0  0
 36 79  2  0  0  0  0
 37 63  1  0  0  0  0
 37 68  1  0  0  0  0
 37 80  2  0  0  0  0
 38 64  1  0  0  0  0
 38 74  1  0  0  0  0
 38 81  2  0  0  0  0
 39 69  1  0  0  0  0
 39 72  1  0  0  0  0
 39 82  2  0  0  0  0
 40 43  1  0  0  0  0
 41 50  1  0  0  0  0
 42 68  1  0  0  0  0
 43 45  1  0  0  0  0
 44 46  1  0  0  0  0
 44 47  1  0  0  0  0
 45 49  1  0  0  0  0
 46 51  1  0  0  0  0
 47 69  1  0  0  0  0
 48 51  1  0  0  0  0
 48 69  1  0  0  0  0
 49 73  1  0  0  0  0
 50 68  1  0  0  0  0
 51 67  1  0  0  0  0
 54 64  1  0  0  0  0
 55 65  1  0  0  0  0
 56 65  1  0  0  0  0
 57 65  1  0  0  0  0
 58 75  1  0  0  0  0
 59 76  1  0  0  0  0
 60 61  1  0  0  0  0
 60 62  1  0  0  0  0
 61 76  1  0  0  0  0
 62 84  1  0  0  0  0
 63 65  1  0  0  0  0
 63 74  1  0  0  0  0
 64 75  1  0  0  0  0
 66 67  1  0  0  0  0
M  CHG  2  75   1  76   1
M  ISO  4  39 100  62 101  72 100  84 101
M  END
> <Batch ID>
0042

> <Smiles>
CNC(C)C(=O)NC(C(=O)N1Cc2cc([101O:1][101CH2:1]CCNCc3ccc(C)c(C(=O)[100NH:0][100C:0](=O)N4CCCC(n5nc(-c6ccc(Oc7ccc(F)cc7F)cc6)c(C(N)=O)c5N)C4)c3C)ccc2CC1C(=O)NC1CCCc2ccccc21)C(C)(C)C

> <Shape>
0.237

> <Color>
0.055

> <Negative vol penalty>
0.000

$$$$

  -OEChem-04042322123D

 85 93  0     1  0  0  0  0  0999 V2000
  -26.8022  -24.7271   16.3511 C   0  0  0  0  0  0  0  0  0  0  0  0
  -25.6574  -25.1150   17.0399 C   0  0  0  0  0  0  0  0  0  0  0  0
  -23.4058  -12.7799   20.6662 C   0  0  0  0  0  0  0  0  0  0  0  0
  -24.9334  -14.4656   21.4797 C   0  0  0  0  0  0  0  0  0  0  0  0
  -28.0602  -24.9592   16.9055 C   0  0  0  0  0  0  0  0  0  0  0  0
  -25.7700  -25.7343   18.2841 C   0  0  0  0  0  0  0  0  0  0  0  0
  -22.7256  -29.7560   18.7348 C   0  0  0  0  0  0  0  0  0  0  0  0
  -24.4711  -11.8954   20.4984 C   0  0  0  0  0  0  0  0  0  0  0  0
  -25.9988  -13.5810   21.3120 C   0  0  0  0  0  0  0  0  0  0  0  0
  -21.3771  -29.5086   18.9880 C   0  0  0  0  0  0  0  0  0  0  0  0
  -27.9095  -12.4361   18.7684 C   0  0  0  0  0  0  0  0  0  0  0  0
  -29.0693  -12.9251   18.1674 C   0  0  0  0  0  0  0  0  0  0  0  0
  -21.7356  -29.9818   21.3262 C   0  0  0  0  0  0  0  0  0  0  0  0
  -19.5466  -23.6237   21.2122 C   0  0  0  0  0  0  0  0  0  0  0  0
  -19.5478  -23.6342   24.0020 C   0  0  0  0  0  0  0  0  0  0  0  0
  -30.3295  -12.3792   20.1551 C   0  0  0  0  0  0  0  0  0  0  0  0
  -23.6369  -14.0651   21.1568 C   0  0  0  0  0  0  0  0  0  0  0  0
  -21.7420  -15.1451   22.4798 C   0  0  0  0  0  0  0  0  0  0  0  0
  -28.1886  -25.5905   18.1528 C   0  0  0  0  0  0  0  0  0  0  0  0
  -23.5930  -30.1082   19.7789 C   0  0  0  0  0  0  0  0  0  0  0  0
  -27.0308  -25.9740   18.8564 C   0  0  0  0  0  0  0  0  0  0  0  0
  -23.0941  -30.2357   21.0831 C   0  0  0  0  0  0  0  0  0  0  0  0
  -19.4982  -24.8333   21.9051 C   0  0  0  0  0  0  0  0  0  0  0  0
  -19.5962  -22.4246   23.3091 C   0  0  0  0  0  0  0  0  0  0  0  0
  -19.5956  -22.4193   21.9142 C   0  0  0  0  0  0  0  0  0  0  0  0
  -25.7676  -12.2959   20.8213 C   0  0  0  0  0  0  0  0  0  0  0  0
  -20.8825  -29.6187   20.2843 C   0  0  0  0  0  0  0  0  0  0  0  0
  -27.9596  -11.9187   20.0629 C   0  0  0  0  0  0  0  0  0  0  0  0
  -30.2793  -12.8966   18.8607 C   0  0  0  0  0  0  0  0  0  0  0  0
  -29.1697  -11.8902   20.7561 C   0  0  0  0  0  0  0  0  0  0  0  0
  -19.4988  -24.8386   23.3000 C   0  0  0  0  0  0  0  0  0  0  0  0
  -22.5369  -14.9794   21.3298 C   0  0  0  0  0  0  0  0  0  0  0  0
  -20.8433  -16.1259   22.1377 C   0  0  0  0  0  0  0  0  0  0  0  0
  -21.8099  -14.4727   23.7443 C   0  0  0  0  0  0  0  0  0  0  0  0
  -26.1926  -28.8118   21.0693 C   0  0  0  0  0  0  0  0  0  0  0  0
  -26.2578  -31.5786   22.7612 C   0  0  0  0  0  0  0  0  0  0  0  0
  -17.7951  -27.8150   20.4485 C   0  0  0  0  0  0  0  0  0  0  0  0
  -24.5429  -34.2513   24.0112 C   0  0  0  0  0  0  0  0  0  0  0  0
  -19.6485  -21.0395   19.8072 C   0  0  0  0  0  0  0  0  0  0  0  0
  -29.5680  -25.7775   18.7332 C   0  0  0  0  0  0  0  0  0  0  0  0
  -25.0394  -30.3979   19.4849 C   0  0  0  0  0  0  0  0  0  0  0  0
  -23.9795  -30.6306   22.2358 C   0  0  0  0  0  0  0  0  0  0  0  0
  -29.6134  -26.7772   19.8860 C   0  0  0  0  0  0  0  0  0  0  0  0
  -19.7969  -18.2133   17.6467 C   0  0  0  0  0  0  0  0  0  0  0  0
  -28.4805  -26.5078   20.8712 C   0  0  0  0  0  0  0  0  0  0  0  0
  -20.4576  -17.1337   18.5069 C   0  0  0  0  0  0  0  0  0  0  0  0
  -20.3840  -19.5964   17.9226 C   0  0  0  0  0  0  0  0  0  0  0  0
  -21.0503  -18.9182   20.1954 C   0  0  0  0  0  0  0  0  0  0  0  0
  -27.1128  -26.6709   20.1972 C   0  0  1  0  0  0  0  0  0  0  0  0
  -25.9393  -30.2480   20.7076 C   0  0  1  0  0  0  0  0  0  0  0  0
  -20.4471  -17.5177   19.9995 C   0  0  2  0  0  0  0  0  0  0  0  0
  -19.6477  -21.1495   24.0870 C   0  0  0  0  0  0  0  0  0  0  0  0
  -24.8595  -36.3272   25.3852 C   0  0  0  0  0  0  0  0  0  0  0  0
  -26.3790  -29.8810   25.2937 C   0  0  0  0  0  0  0  0  0  0  0  0
  -25.7401  -31.9160   26.6048 C   0  0  0  0  0  0  0  0  0  0  0  0
  -27.8722  -31.8872   25.3101 C   0  0  0  0  0  0  0  0  0  0  0  0
  -15.3918  -27.8859   21.1195 C   0  0  0  0  0  0  0  0  0  0  0  0
  -23.6871  -35.9980   21.7806 C   0  0  0  0  0  0  0  0  0  0  0  0
  -19.4460  -26.1077   21.1130 C   0  0  0  0  0  0  0  0  0  0  0  0
  -18.9073  -28.4353   19.6891 C   0  0  0  0  0  0  0  0  0  1  0  0
  -25.6729  -32.0437   24.0729 C   0  0  1  0  0  0  0  0  0  0  0  0
  -24.8378  -35.7402   23.9825 C   0  0  2  0  0  0  0  0  0  0  0  0
  -26.3995  -31.4226   25.2992 C   0  0  0  0  0  0  0  0  0  0  0  0
  -22.1750  -15.7898   20.3317 N   0  0  0  0  0  0  0  0  0  0  0  0
  -21.1427  -16.4742   20.8535 N   0  0  0  0  0  0  0  0  0  0  0  0
  -25.3876  -30.8973   21.8985 N   0  0  0  0  0  0  0  0  0  0  0  0
  -20.3368  -19.8934   19.3559 N   0  0  0  0  0  0  0  0  0  0  0  0
  -19.8341  -16.7156   22.8130 N   0  0  0  0  0  0  0  0  0  0  0  0
  -22.7939  -13.4915   23.9273 N   0  0  0  0  0  0  0  0  0  0  0  0
  -19.6436  -21.2010   21.1922 N   0  0  0  0  0  0  0  0  0  0  0  0
  -26.7806  -28.0728   20.0605 N   0  0  0  0  0  0  0  0  0  0  0  0
  -18.1064  -26.6996   21.1147 N   0  0  0  0  0  0  0  0  0  0  0  0
  -25.7000  -33.5019   24.0378 N   0  0  0  0  0  0  0  0  0  0  0  0
  -16.5842  -28.3795   20.4233 N   0  3  0  0  0  0  0  0  0  0  0  0
  -23.8010  -36.4583   23.1885 N   0  3  0  0  0  0  0  0  0  0  0  0
  -21.0109  -14.7226   24.6785 O   0  0  0  0  0  0  0  0  0  0  0  0
  -25.8791  -28.4046   22.1818 O   0  0  0  0  0  0  0  0  0  0  0  0
  -27.4413  -31.8175   22.5083 O   0  0  0  0  0  0  0  0  0  0  0  0
  -23.4003  -33.7985   24.0139 O   0  0  0  0  0  0  0  0  0  0  0  0
  -19.0805  -21.8055   19.0245 O   0  0  0  0  0  0  0  0  0  0  0  0
  -26.8074  -11.4329   20.6579 O   0  0  0  0  0  0  0  0  0  0  0  0
  -19.5668  -29.3771   20.5343 O   0  0  0  0  0  0  0  0  0  1  0  0
  -31.3933  -13.3648   18.2827 F   0  0  0  0  0  0  0  0  0  0  0  0
  -29.2243  -11.3933   21.9995 F   0  0  0  0  0  0  0  0  0  0  0  0
  -19.4392  -26.3158   24.1909 Cl  0  0  0  0  0  0  0  0  0  0  0  0
  1  2  1  0  0  0  0
  1  5  2  0  0  0  0
  2  6  2  0  0  0  0
  3  8  2  0  0  0  0
  3 17  1  0  0  0  0
  4  9  1  0  0  0  0
  4 17  2  0  0  0  0
  5 19  1  0  0  0  0
  6 21  1  0  0  0  0
  7 10  2  0  0  0  0
  7 20  1  0  0  0  0
  8 26  1  0  0  0  0
  9 26  2  0  0  0  0
 10 27  1  0  0  0  0
 11 12  2  0  0  0  0
 11 28  1  0  0  0  0
 12 29  1  0  0  0  0
 13 22  1  0  0  0  0
 13 27  2  0  0  0  0
 14 23  1  0  0  0  0
 14 25  2  0  0  0  0
 15 24  2  0  0  0  0
 15 31  1  0  0  0  0
 16 29  2  0  0  0  0
 16 30  1  0  0  0  0
 17 32  1  0  0  0  0
 18 32  1  0  0  0  0
 18 33  2  0  0  0  0
 18 34  1  0  0  0  0
 19 21  2  0  0  0  0
 19 40  1  0  0  0  0
 20 22  2  0  0  0  0
 20 41  1  0  0  0  0
 21 49  1  0  0  0  0
 22 42  1  0  0  0  0
 23 31  2  0  0  0  0
 23 59  1  0  0  0  0
 24 25  1  0  0  0  0
 24 52  1  0  0  0  0
 25 70  1  0  0  0  0
 26 81  1  0  0  0  0
 27 82  1  0  0  0  0
 28 30  2  0  0  0  0
 28 81  1  0  0  0  0
 29 83  1  0  0  0  0
 30 84  1  0  0  0  0
 31 85  1  0  0  0  0
 32 64  2  0  0  0  0
 33 65  1  0  0  0  0
 33 68  1  0  0  0  0
 34 69  1  0  0  0  0
 34 76  2  0  0  0  0
 35 50  1  0  0  0  0
 35 71  1  0  0  0  0
 35 77  2  0  0  0  0
 36 61  1  0  0  0  0
 36 66  1  0  0  0  0
 36 78  2  0  0  0  0
 37 60  1  0  0  0  0
 37 72  1  0  0  0  0
 37 74  2  0  0  0  0
 38 62  1  0  0  0  0
 38 73  1  0  0  0  0
 38 79  2  0  0  0  0
 39 67  1  0  0  0  0
 39 70  1  0  0  0  0
 39 80  2  0  0  0  0
 40 43  1  0  0  0  0
 41 50  1  0  0  0  0
 42 66  1  0  0  0  0
 43 45  1  0  0  0  0
 44 46  1  0  0  0  0
 44 47  1  0  0  0  0
 45 49  1  0  0  0  0
 46 51  1  0  0  0  0
 47 67  1  0  0  0  0
 48 51  1  0  0  0  0
 48 67  1  0  0  0  0
 49 71  1  0  0  0  0
 50 66  1  0  0  0  0
 51 65  1  0  0  0  0
 53 62  1  0  0  0  0
 54 63  1  0  0  0  0
 55 63  1  0  0  0  0
 56 63  1  0  0  0  0
 57 74  1  0  0  0  0
 58 75  1  0  0  0  0
 59 72  1  0  0  0  0
 60 82  1  0  0  0  0
 61 63  1  0  0  0  0
 61 73  1  0  0  0  0
 62 75  1  0  0  0  0
 64 65  1  0  0  0  0
M  CHG  2  74   1  75   1
M  ISO  4  39 100  60 101  70 100  82 101
M  END
> <Batch ID>
0042

> <Smiles>
CN=C(NCc1cc([100NH:0][100C:0](=O)N2CCCC(n3nc(-c4ccc(Oc5ccc(F)cc5F)cc4)c(C(N)=O)c3N)C2)c(C)cc1Cl)[101CH2:1][101O:1]c1ccc2c(c1)CN(C(=O)C(NC(=O)C(C)NC)C(C)(C)C)C(C(=O)NC1CCCc3ccccc31)C2

> <Shape>
0.283

> <Color>
0.089

> <Negative vol penalty>
0.000

$$$$

  -OEChem-04042322123D

 89 98  0     1  0  0  0  0  0999 V2000
  -25.2427  -35.6341   17.2326 C   0  0  0  0  0  0  0  0  0  0  0  0
  -26.0081  -34.5706   17.7003 C   0  0  0  0  0  0  0  0  0  0  0  0
  -23.4451   -9.7986   20.9251 C   0  0  0  0  0  0  0  0  0  0  0  0
  -25.0293   -9.9591   22.7421 C   0  0  0  0  0  0  0  0  0  0  0  0
  -24.2110  -36.1471   18.0176 C   0  0  0  0  0  0  0  0  0  0  0  0
  -25.7428  -34.0203   18.9537 C   0  0  0  0  0  0  0  0  0  0  0  0
  -25.7422  -28.9566   18.8916 C   0  0  0  0  0  0  0  0  0  0  0  0
  -23.0093   -8.5670   21.4139 C   0  0  0  0  0  0  0  0  0  0  0  0
  -24.5935   -8.7275   23.2310 C   0  0  0  0  0  0  0  0  0  0  0  0
  -26.9824  -28.3198   18.8825 C   0  0  0  0  0  0  0  0  0  0  0  0
  -20.9837   -7.4395   23.8753 C   0  0  0  0  0  0  0  0  0  0  0  0
  -19.6082   -7.2158   23.9352 C   0  0  0  0  0  0  0  0  0  0  0  0
  -26.7890  -27.9222   21.2539 C   0  0  0  0  0  0  0  0  0  0  0  0
  -28.1978  -20.8085   21.4238 C   0  0  0  0  0  0  0  0  0  0  0  0
  -28.9132  -20.4274   19.1479 C   0  0  0  0  0  0  0  0  0  0  0  0
  -19.8507   -5.3270   22.4483 C   0  0  0  0  0  0  0  0  0  0  0  0
  -24.4552  -10.4946   21.5892 C   0  0  0  0  0  0  0  0  0  0  0  0
  -24.1367  -12.9319   20.9068 C   0  0  0  0  0  0  0  0  0  0  0  0
  -23.9267  -35.5965   19.2772 C   0  0  0  0  0  0  0  0  0  0  0  0
  -25.0198  -29.0908   20.0860 C   0  0  0  0  0  0  0  0  0  0  0  0
  -24.7071  -34.5273   19.7569 C   0  0  0  0  0  0  0  0  0  0  0  0
  -25.5386  -28.5589   21.2750 C   0  0  0  0  0  0  0  0  0  0  0  0
  -28.4536  -21.2925   20.1409 C   0  0  0  0  0  0  0  0  0  0  0  0
  -28.4018  -19.4594   21.7138 C   0  0  0  0  0  0  0  0  0  0  0  0
  -28.8615  -18.5943   20.7208 C   0  0  0  0  0  0  0  0  0  0  0  0
  -23.5834   -8.0315   22.5668 C   0  0  0  0  0  0  0  0  0  0  0  0
  -27.5073  -27.8050   20.0643 C   0  0  0  0  0  0  0  0  0  0  0  0
  -21.7927   -6.6070   23.1019 C   0  0  0  0  0  0  0  0  0  0  0  0
  -19.0417   -6.1596   23.2217 C   0  0  0  0  0  0  0  0  0  0  0  0
  -21.2262   -5.5507   22.3885 C   0  0  0  0  0  0  0  0  0  0  0  0
  -29.1172  -19.0783   19.4379 C   0  0  0  0  0  0  0  0  0  0  0  0
  -24.9062  -11.7666   21.0845 C   0  0  0  0  0  0  0  0  0  0  0  0
  -25.0220  -13.8550   20.4063 C   0  0  0  0  0  0  0  0  0  0  0  0
  -29.2460  -24.9055   19.3855 C   0  0  0  0  0  0  0  0  0  0  0  0
  -30.1904  -24.7399   15.8406 C   0  0  0  0  0  0  0  0  0  0  0  0
  -29.4827  -25.2775   18.1166 C   0  0  0  0  0  0  0  0  0  0  0  0
  -29.9549  -24.3689   17.1041 C   0  0  0  0  0  0  0  0  0  0  0  0
  -22.7459  -13.1596   21.1706 C   0  0  0  0  0  0  0  0  0  0  0  0
  -23.9894  -31.5473   21.8202 C   0  0  0  0  0  0  0  0  0  0  0  0
  -22.5283  -29.2175   23.5406 C   0  0  0  0  0  0  0  0  0  0  0  0
  -23.3653  -25.9266   24.7599 C   0  0  0  0  0  0  0  0  0  0  0  0
  -29.9945  -16.3600   20.4557 C   0  0  0  0  0  0  0  0  0  0  0  0
  -22.8320  -36.2156   20.1098 C   0  0  0  0  0  0  0  0  0  0  0  0
  -23.6712  -29.7568   20.0741 C   0  0  0  0  0  0  0  0  0  0  0  0
  -24.7935  -28.6590   22.5801 C   0  0  0  0  0  0  0  0  0  0  0  0
  -22.3735  -35.3321   21.2672 C   0  0  0  0  0  0  0  0  0  0  0  0
  -29.7441  -13.2878   18.6736 C   0  0  0  0  0  0  0  0  0  0  0  0
  -29.8692  -24.2540   22.1070 C   0  0  0  0  0  0  0  0  0  0  0  0
  -23.5760  -34.7680   22.0171 C   0  0  0  0  0  0  0  0  0  0  0  0
  -29.6478  -25.7097   21.7115 C   0  0  0  0  0  0  0  0  0  0  0  0
  -28.3998  -12.7140   19.1273 C   0  0  0  0  0  0  0  0  0  0  0  0
  -30.4667  -14.0070   19.8112 C   0  0  0  0  0  0  0  0  0  0  0  0
  -28.3307  -14.4621   20.9511 C   0  0  0  0  0  0  0  0  0  0  0  0
  -30.4057  -23.4346   20.9379 C   0  0  0  0  0  0  0  0  0  0  0  0
  -24.4341  -33.8873   21.1007 C   0  0  1  0  0  0  0  0  0  0  0  0
  -28.7506  -25.8238   20.4800 C   0  0  1  0  0  0  0  0  0  1  0  0
  -23.2567  -30.2913   21.4416 C   0  0  1  0  0  0  0  0  0  0  0  0
  -27.5361  -13.7844   19.8229 C   0  0  2  0  0  0  0  0  0  0  0  0
  -28.1181  -18.9728   23.0982 C   0  0  0  0  0  0  0  0  0  0  0  0
  -21.8976  -23.9623   25.2933 C   0  0  0  0  0  0  0  0  0  0  0  0
  -22.5863  -30.3157   26.3867 C   0  0  0  0  0  0  0  0  0  0  0  0
  -22.6943  -27.9573   27.2201 C   0  0  0  0  0  0  0  0  0  0  0  0
  -20.7108  -28.7288   25.9189 C   0  0  0  0  0  0  0  0  0  0  0  0
  -24.8845  -24.1508   22.9440 C   0  0  0  0  0  0  0  0  0  0  0  0
  -28.2333  -22.7433   19.8287 C   0  0  0  0  0  0  0  0  0  0  0  0
  -22.9104  -28.3651   24.7265 C   0  0  1  0  0  0  0  0  0  0  0  0
  -22.8111  -24.6044   24.2609 C   0  0  2  0  0  0  0  0  0  0  0  0
  -22.2450  -28.8516   26.0449 C   0  0  0  0  0  0  0  0  0  0  0  0
  -26.1822  -11.9316   20.7259 N   0  0  0  0  0  0  0  0  0  0  0  0
  -26.2213  -13.2115   20.3178 N   0  0  0  0  0  0  0  0  0  0  0  0
  -23.4818  -29.3247   22.5182 N   0  0  0  0  0  0  0  0  0  0  0  0
  -29.5890  -15.0091   20.4197 N   0  0  0  0  0  0  0  0  0  0  0  0
  -24.8839  -15.1463   20.0376 N   0  0  0  0  0  0  0  0  0  0  0  0
  -21.9814  -12.1029   21.6837 N   0  0  0  0  0  0  0  0  0  0  0  0
  -29.0641  -17.2262   21.0289 N   0  0  0  0  0  0  0  0  0  0  0  0
  -23.8195  -32.5885   20.9277 N   0  0  0  0  0  0  0  0  0  0  0  0
  -22.5828  -26.9906   24.3637 N   0  0  0  0  0  0  0  0  0  0  0  0
  -29.5142  -23.5240   19.7208 N   0  3  1  0  0  0  0  0  0  0  0  0
  -23.9219  -23.6569   23.9621 N   0  3  0  0  0  0  0  0  0  0  0  0
  -22.1936  -14.2625   20.9422 O   0  0  0  0  0  0  0  0  0  0  0  0
  -24.6580  -31.5706   22.8469 O   0  0  0  0  0  0  0  0  0  0  0  0
  -21.4218  -29.7622   23.5188 O   0  0  0  0  0  0  0  0  0  0  0  0
  -24.3879  -26.0072   25.4370 O   0  0  0  0  0  0  0  0  0  0  0  0
  -31.0751  -16.7259   19.9862 O   0  0  0  0  0  0  0  0  0  0  0  0
  -23.1582   -6.8299   23.0442 O   0  0  0  0  0  0  0  0  0  0  0  0
  -28.7179  -27.1836   20.0583 O   0  0  0  0  0  0  0  0  0  1  0  0
  -17.7210   -5.9440   23.2805 F   0  0  0  0  0  0  0  0  0  0  0  0
  -21.9985   -4.7468   21.6447 F   0  0  0  0  0  0  0  0  0  0  0  0
  -29.6874  -18.0440   18.1760 Cl  0  0  0  0  0  0  0  0  0  0  0  0
  1  2  1  0  0  0  0
  1  5  2  0  0  0  0
  2  6  2  0  0  0  0
  3  8  2  0  0  0  0
  3 17  1  0  0  0  0
  4  9  1  0  0  0  0
  4 17  2  0  0  0  0
  5 19  1  0  0  0  0
  6 21  1  0  0  0  0
  7 10  2  0  0  0  0
  7 20  1  0  0  0  0
  8 26  1  0  0  0  0
  9 26  2  0  0  0  0
 10 27  1  0  0  0  0
 11 12  2  0  0  0  0
 11 28  1  0  0  0  0
 12 29  1  0  0  0  0
 13 22  1  0  0  0  0
 13 27  2  0  0  0  0
 14 23  1  0  0  0  0
 14 24  2  0  0  0  0
 15 23  2  0  0  0  0
 15 31  1  0  0  0  0
 16 29  2  0  0  0  0
 16 30  1  0  0  0  0
 17 32  1  0  0  0  0
 18 32  1  0  0  0  0
 18 33  2  0  0  0  0
 18 38  1  0  0  0  0
 19 21  2  0  0  0  0
 19 43  1  0  0  0  0
 20 22  2  0  0  0  0
 20 44  1  0  0  0  0
 21 55  1  0  0  0  0
 22 45  1  0  0  0  0
 23 65  1  0  0  0  0
 24 25  1  0  0  0  0
 24 59  1  0  0  0  0
 25 31  2  0  0  0  0
 25 75  1  0  0  0  0
 26 85  1  0  0  0  0
 27 86  1  0  0  0  0
 28 30  2  0  0  0  0
 28 85  1  0  0  0  0
 29 87  1  0  0  0  0
 30 88  1  0  0  0  0
 31 89  1  0  0  0  0
 32 69  2  0  0  0  0
 33 70  1  0  0  0  0
 33 73  1  0  0  0  0
 34 36  2  0  0  0  0
 34 56  1  0  0  0  0
 34 78  1  0  0  0  0
 35 37  2  0  0  0  0
 36 37  1  0  0  0  0
 38 74  1  0  0  0  0
 38 80  2  0  0  0  0
 39 57  1  0  0  0  0
 39 76  1  0  0  0  0
 39 81  2  0  0  0  0
 40 66  1  0  0  0  0
 40 71  1  0  0  0  0
 40 82  2  0  0  0  0
 41 67  1  0  0  0  0
 41 77  1  0  0  0  0
 41 83  2  0  0  0  0
 42 72  1  0  0  0  0
 42 75  1  0  0  0  0
 42 84  2  0  0  0  0
 43 46  1  0  0  0  0
 44 57  1  0  0  0  0
 45 71  1  0  0  0  0
 46 49  1  0  0  0  0
 47 51  1  0  0  0  0
 47 52  1  0  0  0  0
 48 50  1  0  0  0  0
 48 54  1  0  0  0  0
 49 55  1  0  0  0  0
 50 56  1  0  0  0  0
 51 58  1  0  0  0  0
 52 72  1  0  0  0  0
 53 58  1  0  0  0  0
 53 72  1  0  0  0  0
 54 78  1  0  0  0  0
 55 76  1  0  0  0  0
 56 86  1  0  0  0  0
 57 71  1  0  0  0  0
 58 70  1  0  0  0  0
 60 67  1  0  0  0  0
 61 68  1  0  0  0  0
 62 68  1  0  0  0  0
 63 68  1  0  0  0  0
 64 79  1  0  0  0  0
 65 78  1  0  0  0  0
 66 68  1  0  0  0  0
 66 77  1  0  0  0  0
 67 79  1  0  0  0  0
 69 70  1  0  0  0  0
M  CHG  2  78   1  79   1
M  ISO  4  42 100  56 101  75 100  86 101
M  END
> <Batch ID>
0042

> <Smiles>
C=CC=C1N(Cc2cc(C)c([100NH:0][100C:0](=O)N3CCCC(n4nc(-c5ccc(Oc6ccc(F)cc6F)cc5)c(C(N)=O)c4N)C3)c(Cl)c2)CCC[101CH:1]1[101O:1]c1ccc2c(c1)CN(C(=O)C(NC(=O)C(C)NC)C(C)(C)C)C(C(=O)NC1CCCc3ccccc31)C2

> <Shape>
0.324

> <Color>
0.147

> <Negative vol penalty>
0.000

$$$$

  -OEChem-04042322123D

 85 93  0     1  0  0  0  0  0999 V2000
  -24.7359  -11.1800   20.1767 C   0  0  0  0  0  0  0  0  0  0  0  0
  -23.9339  -12.3114   20.0660 C   0  0  0  0  0  0  0  0  0  0  0  0
  -29.6707  -28.8598   25.3731 C   0  0  0  0  0  0  0  0  0  0  0  0
  -28.3703  -26.8818   25.8567 C   0  0  0  0  0  0  0  0  0  0  0  0
  -25.9960  -11.2751   20.7656 C   0  0  0  0  0  0  0  0  0  0  0  0
  -24.3913  -13.5384   20.5452 C   0  0  0  0  0  0  0  0  0  0  0  0
  -23.2717  -19.0690   18.1649 C   0  0  0  0  0  0  0  0  0  0  0  0
  -20.1074  -27.2933   21.2464 C   0  0  0  0  0  0  0  0  0  0  0  0
  -30.0182  -28.9607   26.7202 C   0  0  0  0  0  0  0  0  0  0  0  0
  -28.7179  -26.9827   27.2038 C   0  0  0  0  0  0  0  0  0  0  0  0
  -22.3522  -20.0636   18.4950 C   0  0  0  0  0  0  0  0  0  0  0  0
  -28.5938  -30.0518   29.5846 C   0  0  0  0  0  0  0  0  0  0  0  0
  -28.5209  -31.3114   30.1794 C   0  0  0  0  0  0  0  0  0  0  0  0
  -18.9047  -26.6947   21.6215 C   0  0  0  0  0  0  0  0  0  0  0  0
  -24.0369  -21.1741   19.8169 C   0  0  0  0  0  0  0  0  0  0  0  0
  -30.8805  -31.2078   30.6880 C   0  0  0  0  0  0  0  0  0  0  0  0
  -28.8467  -27.8204   24.9414 C   0  0  0  0  0  0  0  0  0  0  0  0
  -29.1781  -27.0153   22.5435 C   0  0  0  0  0  0  0  0  0  0  0  0
  -26.4730  -12.5058   21.2435 C   0  0  0  0  0  0  0  0  0  0  0  0
  -24.5799  -19.1138   18.6680 C   0  0  0  0  0  0  0  0  0  0  0  0
  -25.6585  -13.6498   21.1422 C   0  0  0  0  0  0  0  0  0  0  0  0
  -24.9719  -20.1802   19.4897 C   0  0  0  0  0  0  0  0  0  0  0  0
  -21.3190  -25.3658   22.0548 C   0  0  0  0  0  0  0  0  0  0  0  0
  -20.1163  -24.7671   22.4299 C   0  0  0  0  0  0  0  0  0  0  0  0
  -21.3146  -26.6288   21.4630 C   0  0  0  0  0  0  0  0  0  0  0  0
  -29.5418  -28.0221   27.6356 C   0  0  0  0  0  0  0  0  0  0  0  0
  -22.7339  -21.1148   19.3235 C   0  0  0  0  0  0  0  0  0  0  0  0
  -29.8100  -29.3702   29.5416 C   0  0  0  0  0  0  0  0  0  0  0  0
  -29.6642  -31.8894   30.7311 C   0  0  0  0  0  0  0  0  0  0  0  0
  -30.9534  -29.9482   30.0933 C   0  0  0  0  0  0  0  0  0  0  0  0
  -18.9091  -25.4316   22.2133 C   0  0  0  0  0  0  0  0  0  0  0  0
  -28.4869  -27.7160   23.5500 C   0  0  0  0  0  0  0  0  0  0  0  0
  -28.4353  -27.2248   21.4074 C   0  0  0  0  0  0  0  0  0  0  0  0
  -30.3837  -26.2439   22.6280 C   0  0  0  0  0  0  0  0  0  0  0  0
  -26.3277  -17.2339   20.5429 C   0  0  0  0  0  0  0  0  0  0  0  0
  -28.6882  -19.3238   19.7795 C   0  0  0  0  0  0  0  0  0  0  0  0
  -29.5612  -22.4547   18.7393 C   0  0  0  0  0  0  0  0  0  0  0  0
  -22.6738  -28.5060   20.4754 C   0  0  0  0  0  0  0  0  0  0  0  0
  -27.8227  -12.5500   21.9152 C   0  0  0  0  0  0  0  0  0  0  0  0
  -25.5676  -18.0474   18.2809 C   0  0  0  0  0  0  0  0  0  0  0  0
  -26.3702  -20.2853   20.0394 C   0  0  0  0  0  0  0  0  0  0  0  0
  -28.3855  -13.9616   22.0592 C   0  0  0  0  0  0  0  0  0  0  0  0
  -25.4806  -30.4148   19.4004 C   0  0  0  0  0  0  0  0  0  0  0  0
  -27.3172  -14.9104   22.5933 C   0  0  0  0  0  0  0  0  0  0  0  0
  -26.6341  -29.8714   20.2466 C   0  0  0  0  0  0  0  0  0  0  0  0
  -24.1736  -30.4666   20.1897 C   0  0  0  0  0  0  0  0  0  0  0  0
  -24.9408  -28.6615   21.6805 C   0  0  0  0  0  0  0  0  0  0  0  0
  -26.1295  -15.0035   21.6277 C   0  0  1  0  0  0  0  0  0  0  0  0
  -26.7253  -17.9192   19.2662 C   0  0  1  0  0  0  0  0  0  0  0  0
  -26.2640  -28.5297   20.9088 C   0  0  2  0  0  0  0  0  0  0  0  0
  -22.6145  -24.6521   22.2867 C   0  0  0  0  0  0  0  0  0  0  0  0
  -20.8131  -20.7718   23.9710 C   0  0  0  0  0  0  0  0  0  0  0  0
  -31.5679  -23.8782   18.2451 C   0  0  0  0  0  0  0  0  0  0  0  0
  -29.1701  -19.6790   22.7714 C   0  0  0  0  0  0  0  0  0  0  0  0
  -30.4722  -21.7515   22.2449 C   0  0  0  0  0  0  0  0  0  0  0  0
  -31.2496  -19.5411   21.3890 C   0  0  0  0  0  0  0  0  0  0  0  0
  -28.7586  -22.8086   15.9127 C   0  0  0  0  0  0  0  0  0  0  0  0
  -20.1364  -23.4083   23.0658 C   0  0  0  0  0  0  0  0  0  0  0  0
  -20.0663  -20.9513   22.6674 C   0  0  0  0  0  0  0  0  0  0  0  0
  -19.7563  -22.5299   20.7667 C   0  0  0  0  0  0  0  0  0  0  0  0
  -20.4631  -21.7091   19.7062 C   0  0  0  0  0  0  0  0  0  1  0  0
  -29.2028  -20.6162   20.3659 C   0  0  1  0  0  0  0  0  0  0  0  0
  -30.5296  -22.9274   17.6701 C   0  0  2  0  0  0  0  0  0  0  0  0
  -29.9967  -20.3943   21.6842 C   0  0  0  0  0  0  0  0  0  0  0  0
  -27.3895  -28.3252   23.0935 N   0  0  0  0  0  0  0  0  0  0  0  0
  -27.3855  -28.0081   21.7875 N   0  0  0  0  0  0  0  0  0  0  0  0
  -27.2976  -19.2149   19.6374 N   0  0  0  0  0  0  0  0  0  0  0  0
  -23.8853  -29.1597   20.7846 N   0  0  0  0  0  0  0  0  0  0  0  0
  -28.5844  -26.8138   20.1302 N   0  0  0  0  0  0  0  0  0  0  0  0
  -31.0190  -26.1313   23.8722 N   0  0  0  0  0  0  0  0  0  0  0  0
  -22.5245  -27.2553   21.0738 N   0  0  0  0  0  0  0  0  0  0  0  0
  -26.4556  -15.8585   20.5065 N   0  0  0  0  0  0  0  0  0  0  0  0
  -29.9694  -21.2673   19.3091 N   0  0  0  0  0  0  0  0  0  0  0  0
  -29.7958  -23.6347   16.5827 N   0  3  0  0  0  0  0  0  0  0  0  0
  -20.4080  -22.2985   22.0805 N   0  3  1  0  0  0  0  0  0  0  0  0
  -30.8917  -25.6850   21.6265 O   0  0  0  0  0  0  0  0  0  0  0  0
  -25.9355  -17.9035   21.4913 O   0  0  0  0  0  0  0  0  0  0  0  0
  -29.4910  -18.4461   19.4527 O   0  0  0  0  0  0  0  0  0  0  0  0
  -28.5463  -23.0785   19.0415 O   0  0  0  0  0  0  0  0  0  0  0  0
  -21.8429  -29.0059   19.7127 O   0  0  0  0  0  0  0  0  0  0  0  0
  -29.8809  -28.1201   28.9501 O   0  0  0  0  0  0  0  0  0  0  0  0
  -21.8381  -22.0865   19.6478 O   0  0  0  0  0  0  0  0  0  1  0  0
  -29.5944  -33.0996   31.3008 F   0  0  0  0  0  0  0  0  0  0  0  0
  -32.1249  -29.2986   30.0539 F   0  0  0  0  0  0  0  0  0  0  0  0
  -17.3987  -24.7276   22.6647 Cl  0  0  0  0  0  0  0  0  0  0  0  0
  1  2  1  0  0  0  0
  1  5  2  0  0  0  0
  2  6  2  0  0  0  0
  3  9  2  0  0  0  0
  3 17  1  0  0  0  0
  4 10  1  0  0  0  0
  4 17  2  0  0  0  0
  5 19  1  0  0  0  0
  6 21  1  0  0  0  0
  7 11  2  0  0  0  0
  7 20  1  0  0  0  0
  8 14  1  0  0  0  0
  8 25  2  0  0  0  0
  9 26  1  0  0  0  0
 10 26  2  0  0  0  0
 11 27  1  0  0  0  0
 12 13  2  0  0  0  0
 12 28  1  0  0  0  0
 13 29  1  0  0  0  0
 14 31  2  0  0  0  0
 15 22  1  0  0  0  0
 15 27  2  0  0  0  0
 16 29  2  0  0  0  0
 16 30  1  0  0  0  0
 17 32  1  0  0  0  0
 18 32  1  0  0  0  0
 18 33  2  0  0  0  0
 18 34  1  0  0  0  0
 19 21  2  0  0  0  0
 19 39  1  0  0  0  0
 20 22  2  0  0  0  0
 20 40  1  0  0  0  0
 21 48  1  0  0  0  0
 22 41  1  0  0  0  0
 23 24  2  0  0  0  0
 23 25  1  0  0  0  0
 23 51  1  0  0  0  0
 24 31  1  0  0  0  0
 24 58  1  0  0  0  0
 25 71  1  0  0  0  0
 26 81  1  0  0  0  0
 27 82  1  0  0  0  0
 28 30  2  0  0  0  0
 28 81  1  0  0  0  0
 29 83  1  0  0  0  0
 30 84  1  0  0  0  0
 31 85  1  0  0  0  0
 32 65  2  0  0  0  0
 33 66  1  0  0  0  0
 33 69  1  0  0  0  0
 34 70  1  0  0  0  0
 34 76  2  0  0  0  0
 35 49  1  0  0  0  0
 35 72  1  0  0  0  0
 35 77  2  0  0  0  0
 36 62  1  0  0  0  0
 36 67  1  0  0  0  0
 36 78  2  0  0  0  0
 37 63  1  0  0  0  0
 37 73  1  0  0  0  0
 37 79  2  0  0  0  0
 38 68  1  0  0  0  0
 38 71  1  0  0  0  0
 38 80  2  0  0  0  0
 39 42  1  0  0  0  0
 40 49  1  0  0  0  0
 41 67  1  0  0  0  0
 42 44  1  0  0  0  0
 43 45  1  0  0  0  0
 43 46  1  0  0  0  0
 44 48  1  0  0  0  0
 45 50  1  0  0  0  0
 46 68  1  0  0  0  0
 47 50  1  0  0  0  0
 47 68  1  0  0  0  0
 48 72  1  0  0  0  0
 49 67  1  0  0  0  0
 50 66  1  0  0  0  0
 52 59  1  0  0  0  0
 53 63  1  0  0  0  0
 54 64  1  0  0  0  0
 55 64  1  0  0  0  0
 56 64  1  0  0  0  0
 57 74  1  0  0  0  0
 58 75  1  0  0  0  0
 59 75  1  0  0  0  0
 60 61  1  0  0  0  0
 60 75  1  0  0  0  0
 61 82  1  0  0  0  0
 62 64  1  0  0  0  0
 62 73  1  0  0  0  0
 63 74  1  0  0  0  0
 65 66  1  0  0  0  0
M  CHG  2  74   1  75   1
M  ISO  4  38 100  61 101  71 100  82 101
M  END
> <Batch ID>
0042

> <Smiles>
CCN(Cc1c(Cl)ccc([100NH:0][100C:0](=O)N2CCCC(n3nc(-c4ccc(Oc5ccc(F)cc5F)cc4)c(C(N)=O)c3N)C2)c1C)C[101CH2:1][101O:1]c1ccc2c(c1)CN(C(=O)C(NC(=O)C(C)NC)C(C)(C)C)C(C(=O)NC1CCCc3ccccc31)C2

> <Shape>
0.186

> <Color>
0.070

> <Negative vol penalty>
0.000

$$$$

  -OEChem-04042322123D

 87 96  0     1  0  0  0  0  0999 V2000
  -23.3615  -34.1748   24.5198 C   0  0  0  0  0  0  0  0  0  0  0  0
  -22.8196  -33.3491   23.5399 C   0  0  0  0  0  0  0  0  0  0  0  0
  -22.6822  -10.1494   20.1596 C   0  0  0  0  0  0  0  0  0  0  0  0
  -24.3271   -9.4357   21.7789 C   0  0  0  0  0  0  0  0  0  0  0  0
  -24.7067  -34.5363   24.4593 C   0  0  0  0  0  0  0  0  0  0  0  0
  -23.6225  -32.8853   22.4984 C   0  0  0  0  0  0  0  0  0  0  0  0
  -24.5181  -25.8278   21.3667 C   0  0  0  0  0  0  0  0  0  0  0  0
  -31.4763  -18.4863   20.2177 C   0  0  0  0  0  0  0  0  0  0  0  0
  -21.9667   -8.9702   20.3666 C   0  0  0  0  0  0  0  0  0  0  0  0
  -23.6115   -8.2564   21.9860 C   0  0  0  0  0  0  0  0  0  0  0  0
  -24.5706  -24.4957   20.9557 C   0  0  0  0  0  0  0  0  0  0  0  0
  -20.8590   -7.2810   23.6869 C   0  0  0  0  0  0  0  0  0  0  0  0
  -20.6646   -6.8655   25.0041 C   0  0  0  0  0  0  0  0  0  0  0  0
  -31.2579  -19.5522   19.3449 C   0  0  0  0  0  0  0  0  0  0  0  0
  -26.0983  -25.0928   19.1788 C   0  0  0  0  0  0  0  0  0  0  0  0
  -21.8328   -4.8053   24.5267 C   0  0  0  0  0  0  0  0  0  0  0  0
  -23.8625  -10.3822   20.8657 C   0  0  0  0  0  0  0  0  0  0  0  0
  -24.1492  -12.9170   20.8560 C   0  0  0  0  0  0  0  0  0  0  0  0
  -25.5288  -34.0688   23.4219 C   0  0  0  0  0  0  0  0  0  0  0  0
  -25.2685  -26.7962   20.6939 C   0  0  0  0  0  0  0  0  0  0  0  0
  -24.9796  -33.2420   22.4233 C   0  0  0  0  0  0  0  0  0  0  0  0
  -26.0595  -26.4267   19.5936 C   0  0  0  0  0  0  0  0  0  0  0  0
  -30.4616  -18.0724   21.0807 C   0  0  0  0  0  0  0  0  0  0  0  0
  -29.2286  -18.7246   21.0711 C   0  0  0  0  0  0  0  0  0  0  0  0
  -29.0103  -19.7905   20.1983 C   0  0  0  0  0  0  0  0  0  0  0  0
  -22.4313   -8.0236   21.2798 C   0  0  0  0  0  0  0  0  0  0  0  0
  -25.3585  -24.1292   19.8643 C   0  0  0  0  0  0  0  0  0  0  0  0
  -21.5403   -6.4586   22.7895 C   0  0  0  0  0  0  0  0  0  0  0  0
  -21.1515   -5.6276   25.4240 C   0  0  0  0  0  0  0  0  0  0  0  0
  -22.0272   -5.2208   23.2094 C   0  0  0  0  0  0  0  0  0  0  0  0
  -30.0250  -20.2044   19.3353 C   0  0  0  0  0  0  0  0  0  0  0  0
  -24.6024  -11.5999   20.6519 C   0  0  0  0  0  0  0  0  0  0  0  0
  -25.2198  -13.7057   20.5123 C   0  0  0  0  0  0  0  0  0  0  0  0
  -26.6741  -20.0575   19.3790 C   0  0  0  0  0  0  0  0  0  0  0  0
  -26.7735  -19.3910   18.2120 C   0  0  0  0  0  0  0  0  0  0  0  0
  -22.8744  -13.3856   21.3154 C   0  0  0  0  0  0  0  0  0  0  0  0
  -26.2717  -30.4027   20.4430 C   0  0  0  0  0  0  0  0  0  0  0  0
  -28.7927  -28.7375   19.9120 C   0  0  0  0  0  0  0  0  0  0  0  0
  -31.4125  -26.5555   19.7988 C   0  0  0  0  0  0  0  0  0  0  0  0
  -30.6830  -14.8342   20.6714 C   0  0  0  0  0  0  0  0  0  0  0  0
  -26.9655  -34.5250   23.3726 C   0  0  0  0  0  0  0  0  0  0  0  0
  -25.1947  -28.2528   21.0634 C   0  0  0  0  0  0  0  0  0  0  0  0
  -26.8228  -27.5079   18.8786 C   0  0  0  0  0  0  0  0  0  0  0  0
  -25.2825  -20.4536   19.8433 C   0  0  0  0  0  0  0  0  0  0  0  0
  -27.8391  -33.6869   22.4427 C   0  0  0  0  0  0  0  0  0  0  0  0
  -29.5610  -12.5358   18.1945 C   0  0  0  0  0  0  0  0  0  0  0  0
  -27.1381  -33.4673   21.1058 C   0  0  0  0  0  0  0  0  0  0  0  0
  -28.1366  -12.1916   18.6333 C   0  0  0  0  0  0  0  0  0  0  0  0
  -26.3080  -21.9656   21.5513 C   0  0  0  0  0  0  0  0  0  0  0  0
  -30.4908  -12.7220   19.3915 C   0  0  0  0  0  0  0  0  0  0  0  0
  -27.7009  -21.6926   20.9884 C   0  0  0  0  0  0  0  0  0  0  0  0
  -28.5947  -13.3482   20.8359 C   0  0  0  0  0  0  0  0  0  0  0  0
  -25.8244  -32.6985   21.2914 C   0  0  1  0  0  0  0  0  0  0  0  0
  -26.5327  -28.9909   20.8789 C   0  0  1  0  0  0  0  0  0  0  0  0
  -27.6072  -13.2058   19.6650 C   0  0  2  0  0  0  0  0  0  0  0  0
  -25.2321  -21.8379   20.4819 C   0  0  1  0  0  0  0  0  0  1  0  0
  -28.1449  -18.2733   22.0003 C   0  0  0  0  0  0  0  0  0  0  0  0
  -33.9023  -26.4810   19.4945 C   0  0  0  0  0  0  0  0  0  0  0  0
  -28.4366  -29.1928   16.9170 C   0  0  0  0  0  0  0  0  0  0  0  0
  -30.7027  -28.1875   16.5667 C   0  0  0  0  0  0  0  0  0  0  0  0
  -30.4613  -30.2793   17.9043 C   0  0  0  0  0  0  0  0  0  0  0  0
  -31.8213  -25.3722   22.4805 C   0  0  0  0  0  0  0  0  0  0  0  0
  -30.7217  -16.9276   22.0039 C   0  0  0  0  0  0  0  0  0  0  0  0
  -29.6838  -28.0833   18.8867 C   0  0  1  0  0  0  0  0  0  0  0  0
  -32.7608  -26.5630   20.4961 C   0  0  2  0  0  0  0  0  0  0  0  0
  -29.8007  -28.9211   17.5821 C   0  0  0  0  0  0  0  0  0  0  0  0
  -25.8627  -11.5506   20.2123 N   0  0  0  0  0  0  0  0  0  0  0  0
  -26.2105  -12.8466   20.1374 N   0  0  0  0  0  0  0  0  0  0  0  0
  -27.7473  -20.4495   20.1968 N   0  0  0  0  0  0  0  0  0  0  0  0
  -27.4290  -28.4253   19.8561 N   0  0  0  0  0  0  0  0  0  0  0  0
  -29.9318  -13.6972   20.3308 N   0  0  0  0  0  0  0  0  0  0  0  0
  -25.4010  -15.0434   20.4970 N   0  0  0  0  0  0  0  0  0  0  0  0
  -22.6843  -13.5628   22.6927 N   0  0  0  0  0  0  0  0  0  0  0  0
  -26.0870  -31.2888   21.4870 N   0  0  0  0  0  0  0  0  0  0  0  0
  -30.9576  -27.8337   19.5527 N   0  0  0  0  0  0  0  0  0  0  0  0
  -30.0769  -15.7107   21.5630 N   0  0  0  0  0  0  0  0  0  0  0  0
  -32.8688  -25.4047   21.4276 N   0  3  0  0  0  0  0  0  0  0  0  0
  -21.9265  -13.6241   20.5292 O   0  0  0  0  0  0  0  0  0  0  0  0
  -26.2412  -30.6700   19.2474 O   0  0  0  0  0  0  0  0  0  0  0  0
  -29.2888  -29.5093   20.7376 O   0  0  0  0  0  0  0  0  0  0  0  0
  -30.8235  -25.5193   19.4988 O   0  0  0  0  0  0  0  0  0  0  0  0
  -31.8082  -15.0546   20.2107 O   0  0  0  0  0  0  0  0  0  0  0  0
  -21.7332   -6.8729   21.4823 O   0  0  0  0  0  0  0  0  0  0  0  0
  -25.4086  -22.8262   19.4713 O   0  0  0  0  0  0  0  0  0  1  0  0
  -20.9661   -5.2294   26.6894 F   0  0  0  0  0  0  0  0  0  0  0  0
  -22.6835   -4.4269   22.3521 F   0  0  0  0  0  0  0  0  0  0  0  0
  -29.8003  -21.5196   18.2374 Cl  0  0  0  0  0  0  0  0  0  0  0  0
  1  2  1  0  0  0  0
  1  5  2  0  0  0  0
  2  6  2  0  0  0  0
  3  9  2  0  0  0  0
  3 17  1  0  0  0  0
  4 10  1  0  0  0  0
  4 17  2  0  0  0  0
  5 19  1  0  0  0  0
  6 21  1  0  0  0  0
  7 11  2  0  0  0  0
  7 20  1  0  0  0  0
  8 14  1  0  0  0  0
  8 23  2  0  0  0  0
  9 26  1  0  0  0  0
 10 26  2  0  0  0  0
 11 27  1  0  0  0  0
 12 13  2  0  0  0  0
 12 28  1  0  0  0  0
 13 29  1  0  0  0  0
 14 31  2  0  0  0  0
 15 22  1  0  0  0  0
 15 27  2  0  0  0  0
 16 29  2  0  0  0  0
 16 30  1  0  0  0  0
 17 32  1  0  0  0  0
 18 32  1  0  0  0  0
 18 33  2  0  0  0  0
 18 36  1  0  0  0  0
 19 21  2  0  0  0  0
 19 41  1  0  0  0  0
 20 22  2  0  0  0  0
 20 42  1  0  0  0  0
 21 53  1  0  0  0  0
 22 43  1  0  0  0  0
 23 24  1  0  0  0  0
 23 63  1  0  0  0  0
 24 25  2  0  0  0  0
 24 57  1  0  0  0  0
 25 31  1  0  0  0  0
 25 69  1  0  0  0  0
 26 83  1  0  0  0  0
 27 84  1  0  0  0  0
 28 30  2  0  0  0  0
 28 83  1  0  0  0  0
 29 85  1  0  0  0  0
 30 86  1  0  0  0  0
 31 87  1  0  0  0  0
 32 67  2  0  0  0  0
 33 68  1  0  0  0  0
 33 72  1  0  0  0  0
 34 35  2  0  0  0  0
 34 44  1  0  0  0  0
 34 69  1  0  0  0  0
 36 73  1  0  0  0  0
 36 78  2  0  0  0  0
 37 54  1  0  0  0  0
 37 74  1  0  0  0  0
 37 79  2  0  0  0  0
 38 64  1  0  0  0  0
 38 70  1  0  0  0  0
 38 80  2  0  0  0  0
 39 65  1  0  0  0  0
 39 75  1  0  0  0  0
 39 81  2  0  0  0  0
 40 71  1  0  0  0  0
 40 76  1  0  0  0  0
 40 82  2  0  0  0  0
 41 45  1  0  0  0  0
 42 54  1  0  0  0  0
 43 70  1  0  0  0  0
 44 56  1  0  0  0  0
 45 47  1  0  0  0  0
 46 48  1  0  0  0  0
 46 50  1  0  0  0  0
 47 53  1  0  0  0  0
 48 55  1  0  0  0  0
 49 51  1  0  0  0  0
 49 56  1  0  0  0  0
 50 71  1  0  0  0  0
 51 69  1  0  0  0  0
 52 55  1  0  0  0  0
 52 71  1  0  0  0  0
 53 74  1  0  0  0  0
 54 70  1  0  0  0  0
 55 68  1  0  0  0  0
 56 84  1  0  0  0  0
 58 65  1  0  0  0  0
 59 66  1  0  0  0  0
 60 66  1  0  0  0  0
 61 66  1  0  0  0  0
 62 77  1  0  0  0  0
 63 76  1  0  0  0  0
 64 66  1  0  0  0  0
 64 75  1  0  0  0  0
 65 77  1  0  0  0  0
 67 68  1  0  0  0  0
M  CHG  1  77   1
M  ISO  4  40 100  56 101  76 100  84 101
M  END
> <Batch ID>
0042

> <Smiles>
C=C1C[101CH:1]([101O:1]c2ccc3c(c2)CN(C(=O)C(NC(=O)C(C)NC)C(C)(C)C)C(C(=O)NC2CCCc4ccccc42)C3)CCN1c1c(Cl)ccc(C[100NH:0][100C:0](=O)N2CCCC(n3nc(-c4ccc(Oc5ccc(F)cc5F)cc4)c(C(N)=O)c3N)C2)c1C

> <Shape>
0.355

> <Color>
0.226

> <Negative vol penalty>
0.000

$$$$

  -OEChem-04042322123D

 84 92  0     1  0  0  0  0  0999 V2000
  -23.7444   -9.7224   18.4200 C   0  0  0  0  0  0  0  0  0  0  0  0
  -22.9003  -10.8245   18.3286 C   0  0  0  0  0  0  0  0  0  0  0  0
  -31.3793  -25.6895   19.8494 C   0  0  0  0  0  0  0  0  0  0  0  0
  -31.5295  -27.2958   21.6478 C   0  0  0  0  0  0  0  0  0  0  0  0
  -24.8590   -9.7669   19.2563 C   0  0  0  0  0  0  0  0  0  0  0  0
  -23.1699  -11.9714   19.0744 C   0  0  0  0  0  0  0  0  0  0  0  0
  -22.5399  -19.1010   18.7757 C   0  0  0  0  0  0  0  0  0  0  0  0
  -32.7649  -25.7330   19.6948 C   0  0  0  0  0  0  0  0  0  0  0  0
  -32.9151  -27.3393   21.4932 C   0  0  0  0  0  0  0  0  0  0  0  0
  -22.0388  -20.1700   19.5173 C   0  0  0  0  0  0  0  0  0  0  0  0
  -35.1449  -28.7925   19.4083 C   0  0  0  0  0  0  0  0  0  0  0  0
  -35.7582  -30.0453   19.4097 C   0  0  0  0  0  0  0  0  0  0  0  0
  -24.0373  -20.1617   20.8683 C   0  0  0  0  0  0  0  0  0  0  0  0
  -19.9022  -28.6445   21.9747 C   0  0  0  0  0  0  0  0  0  0  0  0
  -19.1379  -26.3663   22.2252 C   0  0  0  0  0  0  0  0  0  0  0  0
  -37.0699  -29.4010   21.3337 C   0  0  0  0  0  0  0  0  0  0  0  0
  -30.7616  -26.4710   20.8259 C   0  0  0  0  0  0  0  0  0  0  0  0
  -28.5941  -25.5634   21.8188 C   0  0  0  0  0  0  0  0  0  0  0  0
  -25.1478  -10.9185   20.0053 C   0  0  0  0  0  0  0  0  0  0  0  0
  -23.7909  -18.5463   19.0824 C   0  0  0  0  0  0  0  0  0  0  0  0
  -24.2887  -12.0309   19.9225 C   0  0  0  0  0  0  0  0  0  0  0  0
  -24.5532  -19.0874   20.1274 C   0  0  0  0  0  0  0  0  0  0  0  0
  -21.0009  -28.3652   22.7873 C   0  0  0  0  0  0  0  0  0  0  0  0
  -20.2367  -26.0870   23.0378 C   0  0  0  0  0  0  0  0  0  0  0  0
  -33.5328  -26.5578   20.5167 C   0  0  0  0  0  0  0  0  0  0  0  0
  -22.7863  -20.6986   20.5656 C   0  0  0  0  0  0  0  0  0  0  0  0
  -35.4941  -27.8439   20.3696 C   0  0  0  0  0  0  0  0  0  0  0  0
  -36.7207  -30.3495   20.3724 C   0  0  0  0  0  0  0  0  0  0  0  0
  -36.4566  -28.1482   21.3322 C   0  0  0  0  0  0  0  0  0  0  0  0
  -18.9706  -27.6450   21.6937 C   0  0  0  0  0  0  0  0  0  0  0  0
  -21.1682  -27.0865   23.3188 C   0  0  0  0  0  0  0  0  0  0  0  0
  -29.3303  -26.4270   20.9857 C   0  0  0  0  0  0  0  0  0  0  0  0
  -27.2841  -25.9199   21.6109 C   0  0  0  0  0  0  0  0  0  0  0  0
  -29.0534  -24.5313   22.7017 C   0  0  0  0  0  0  0  0  0  0  0  0
  -24.8048  -15.6880   20.0339 C   0  0  0  0  0  0  0  0  0  0  0  0
  -27.7331  -17.0224   19.6250 C   0  0  0  0  0  0  0  0  0  0  0  0
  -29.6314  -19.8547   19.4786 C   0  0  0  0  0  0  0  0  0  0  0  0
  -23.3373  -29.8207   21.0176 C   0  0  0  0  0  0  0  0  0  0  0  0
  -26.3379  -10.9025   20.9316 C   0  0  0  0  0  0  0  0  0  0  0  0
  -24.3290  -17.4107   18.2558 C   0  0  0  0  0  0  0  0  0  0  0  0
  -25.9107  -18.5412   20.4840 C   0  0  0  0  0  0  0  0  0  0  0  0
  -26.7617  -12.2912   21.4029 C   0  0  0  0  0  0  0  0  0  0  0  0
  -25.2066  -28.9338   18.1200 C   0  0  0  0  0  0  0  0  0  0  0  0
  -25.5466  -13.0957   21.8537 C   0  0  0  0  0  0  0  0  0  0  0  0
  -26.3879  -28.1372   18.6765 C   0  0  0  0  0  0  0  0  0  0  0  0
  -24.8143  -30.0828   19.0462 C   0  0  0  0  0  0  0  0  0  0  0  0
  -25.7323  -28.8932   20.9997 C   0  0  0  0  0  0  0  0  0  0  0  0
  -24.5615  -13.3022   20.6969 C   0  0  1  0  0  0  0  0  0  0  0  0
  -25.3892  -16.5911   18.9848 C   0  0  1  0  0  0  0  0  0  0  0  0
  -26.1286  -27.6896   20.1276 C   0  0  2  0  0  0  0  0  0  0  0  0
  -31.9995  -20.6250   19.1691 C   0  0  0  0  0  0  0  0  0  0  0  0
  -28.3783  -16.1802   22.4858 C   0  0  0  0  0  0  0  0  0  0  0  0
  -30.3160  -17.7649   22.4413 C   0  0  0  0  0  0  0  0  0  0  0  0
  -30.2425  -15.8425   20.8533 C   0  0  0  0  0  0  0  0  0  0  0  0
  -28.9405  -21.3734   17.0342 C   0  0  0  0  0  0  0  0  0  0  0  0
  -21.9744  -29.4666   23.0612 C   0  0  0  0  0  0  0  0  0  0  0  0
  -20.3766  -24.6977   23.5865 C   0  0  0  0  0  0  0  0  0  0  0  0
  -21.6328  -22.5426   23.4587 C   0  0  0  0  0  0  0  0  0  0  0  0
  -22.7022  -21.8264   22.6577 C   0  0  0  0  0  0  0  0  0  1  0  0
  -28.6843  -17.8020   20.5003 C   0  0  1  0  0  0  0  0  0  0  0  0
  -30.6793  -20.3144   18.4811 C   0  0  2  0  0  0  0  0  0  0  0  0
  -29.3789  -16.9067   21.5650 C   0  0  0  0  0  0  0  0  0  0  0  0
  -28.5526  -27.2686   20.2995 N   0  0  0  0  0  0  0  0  0  0  0  0
  -27.3141  -26.9355   20.7011 N   0  0  0  0  0  0  0  0  0  0  0  0
  -26.3907  -17.4266   19.6504 N   0  0  0  0  0  0  0  0  0  0  0  0
  -24.5809  -29.5910   20.4062 N   0  0  0  0  0  0  0  0  0  0  0  0
  -26.1210  -25.4605   22.1193 N   0  0  0  0  0  0  0  0  0  0  0  0
  -30.4320  -24.2966   22.7952 N   0  0  0  0  0  0  0  0  0  0  0  0
  -25.0342  -14.3438   19.8103 N   0  0  0  0  0  0  0  0  0  0  0  0
  -29.6069  -18.4811   19.5970 N   0  0  0  0  0  0  0  0  0  0  0  0
  -23.1973  -29.3158   22.3045 N   0  0  0  0  0  0  0  0  0  0  0  0
  -30.2177  -21.5423   17.7738 N   0  3  0  0  0  0  0  0  0  0  0  0
  -21.4293  -23.9024   22.8986 N   0  3  0  0  0  0  0  0  0  0  0  0
  -28.2636  -23.8267   23.3750 O   0  0  0  0  0  0  0  0  0  0  0  0
  -24.1925  -16.1747   20.9772 O   0  0  0  0  0  0  0  0  0  0  0  0
  -28.1663  -16.0937   18.9383 O   0  0  0  0  0  0  0  0  0  0  0  0
  -28.9095  -20.6360   20.0941 O   0  0  0  0  0  0  0  0  0  0  0  0
  -22.4179  -30.4259   20.4560 O   0  0  0  0  0  0  0  0  0  0  0  0
  -34.8849  -26.6003   20.3663 O   0  0  0  0  0  0  0  0  0  0  0  0
  -22.2992  -21.7416   21.2914 O   0  0  0  0  0  0  0  0  0  1  0  0
  -37.3106  -31.5521   20.3727 F   0  0  0  0  0  0  0  0  0  0  0  0
  -36.7970  -27.2406   22.2575 F   0  0  0  0  0  0  0  0  0  0  0  0
  -17.6143  -27.9893   20.6916 Cl  0  0  0  0  0  0  0  0  0  0  0  0
  -22.5315  -26.7404   24.3290 Cl  0  0  0  0  0  0  0  0  0  0  0  0
  1  2  1  0  0  0  0
  1  5  2  0  0  0  0
  2  6  2  0  0  0  0
  3  8  2  0  0  0  0
  3 17  1  0  0  0  0
  4  9  1  0  0  0  0
  4 17  2  0  0  0  0
  5 19  1  0  0  0  0
  6 21  1  0  0  0  0
  7 10  2  0  0  0  0
  7 20  1  0  0  0  0
  8 25  1  0  0  0  0
  9 25  2  0  0  0  0
 10 26  1  0  0  0  0
 11 12  2  0  0  0  0
 11 27  1  0  0  0  0
 12 28  1  0  0  0  0
 13 22  1  0  0  0  0
 13 26  2  0  0  0  0
 14 23  2  0  0  0  0
 14 30  1  0  0  0  0
 15 24  1  0  0  0  0
 15 30  2  0  0  0  0
 16 28  2  0  0  0  0
 16 29  1  0  0  0  0
 17 32  1  0  0  0  0
 18 32  1  0  0  0  0
 18 33  2  0  0  0  0
 18 34  1  0  0  0  0
 19 21  2  0  0  0  0
 19 39  1  0  0  0  0
 20 22  2  0  0  0  0
 20 40  1  0  0  0  0
 21 48  1  0  0  0  0
 22 41  1  0  0  0  0
 23 31  1  0  0  0  0
 23 56  1  0  0  0  0
 24 31  2  0  0  0  0
 24 57  1  0  0  0  0
 25 79  1  0  0  0  0
 26 80  1  0  0  0  0
 27 29  2  0  0  0  0
 27 79  1  0  0  0  0
 28 81  1  0  0  0  0
 29 82  1  0  0  0  0
 30 83  1  0  0  0  0
 31 84  1  0  0  0  0
 32 63  2  0  0  0  0
 33 64  1  0  0  0  0
 33 67  1  0  0  0  0
 34 68  1  0  0  0  0
 34 74  2  0  0  0  0
 35 49  1  0  0  0  0
 35 69  1  0  0  0  0
 35 75  2  0  0  0  0
 36 60  1  0  0  0  0
 36 65  1  0  0  0  0
 36 76  2  0  0  0  0
 37 61  1  0  0  0  0
 37 70  1  0  0  0  0
 37 77  2  0  0  0  0
 38 66  1  0  0  0  0
 38 71  1  0  0  0  0
 38 78  2  0  0  0  0
 39 42  1  0  0  0  0
 40 49  1  0  0  0  0
 41 65  1  0  0  0  0
 42 44  1  0  0  0  0
 43 45  1  0  0  0  0
 43 46  1  0  0  0  0
 44 48  1  0  0  0  0
 45 50  1  0  0  0  0
 46 66  1  0  0  0  0
 47 50  1  0  0  0  0
 47 66  1  0  0  0  0
 48 69  1  0  0  0  0
 49 65  1  0  0  0  0
 50 64  1  0  0  0  0
 51 61  1  0  0  0  0
 52 62  1  0  0  0  0
 53 62  1  0  0  0  0
 54 62  1  0  0  0  0
 55 72  1  0  0  0  0
 56 71  1  0  0  0  0
 57 73  1  0  0  0  0
 58 59  1  0  0  0  0
 58 73  1  0  0  0  0
 59 80  1  0  0  0  0
 60 62  1  0  0  0  0
 60 70  1  0  0  0  0
 61 72  1  0  0  0  0
 63 64  1  0  0  0  0
M  CHG  2  72   1  73   1
M  ISO  4  38 100  59 101  71 100  80 101
M  END
> <Batch ID>
0042

> <Smiles>
CNC(C)C(=O)NC(C(=O)N1Cc2cc([101O:1][101CH2:1]CNCc3cc(Cl)cc(C[100NH:0][100C:0](=O)N4CCCC(n5nc(-c6ccc(Oc7ccc(F)cc7F)cc6)c(C(N)=O)c5N)C4)c3Cl)ccc2CC1C(=O)NC1CCCc2ccccc21)C(C)(C)C

> <Shape>
0.214

> <Color>
0.066

> <Negative vol penalty>
0.000

$$$$

  -OEChem-04042322123D

 83 91  0     1  0  0  0  0  0999 V2000
  -19.3858   -9.1618   21.3859 C   0  0  0  0  0  0  0  0  0  0  0  0
  -19.5775  -10.3109   22.1464 C   0  0  0  0  0  0  0  0  0  0  0  0
  -22.3234  -30.2573   20.1336 C   0  0  0  0  0  0  0  0  0  0  0  0
  -22.5093  -28.7979   22.0500 C   0  0  0  0  0  0  0  0  0  0  0  0
  -20.4831   -8.4984   20.8386 C   0  0  0  0  0  0  0  0  0  0  0  0
  -20.8669  -10.7966   22.3608 C   0  0  0  0  0  0  0  0  0  0  0  0
  -22.5612  -16.6635   22.8239 C   0  0  0  0  0  0  0  0  0  0  0  0
  -30.0278  -23.1196   21.0435 C   0  0  0  0  0  0  0  0  0  0  0  0
  -20.9473  -30.0327   20.0960 C   0  0  0  0  0  0  0  0  0  0  0  0
  -21.1331  -28.5734   22.0125 C   0  0  0  0  0  0  0  0  0  0  0  0
  -22.8125  -17.4833   23.9232 C   0  0  0  0  0  0  0  0  0  0  0  0
  -18.3204  -30.1918   22.9558 C   0  0  0  0  0  0  0  0  0  0  0  0
  -17.6238  -30.2429   24.1631 C   0  0  0  0  0  0  0  0  0  0  0  0
  -30.1911  -21.8530   21.6045 C   0  0  0  0  0  0  0  0  0  0  0  0
  -25.1695  -17.0068   23.7321 C   0  0  0  0  0  0  0  0  0  0  0  0
  -28.8974  -23.8609   23.0459 C   0  0  0  0  0  0  0  0  0  0  0  0
  -16.9197  -27.9525   23.8538 C   0  0  0  0  0  0  0  0  0  0  0  0
  -23.1045  -29.6398   21.1105 C   0  0  0  0  0  0  0  0  0  0  0  0
  -25.2038  -30.8833   21.8549 C   0  0  0  0  0  0  0  0  0  0  0  0
  -21.7859   -8.9816   21.0384 C   0  0  0  0  0  0  0  0  0  0  0  0
  -23.6127  -15.9995   22.1760 C   0  0  0  0  0  0  0  0  0  0  0  0
  -21.9828  -10.1383   21.8167 C   0  0  0  0  0  0  0  0  0  0  0  0
  -24.9292  -16.1812   22.6232 C   0  0  0  0  0  0  0  0  0  0  0  0
  -29.0607  -22.5943   23.6070 C   0  0  0  0  0  0  0  0  0  0  0  0
  -29.3810  -24.1235   21.7642 C   0  0  0  0  0  0  0  0  0  0  0  0
  -20.3521  -29.1908   21.0355 C   0  0  0  0  0  0  0  0  0  0  0  0
  -24.1164  -17.6528   24.3793 C   0  0  0  0  0  0  0  0  0  0  0  0
  -18.3166  -29.0211   22.1974 C   0  0  0  0  0  0  0  0  0  0  0  0
  -16.9235  -29.1232   24.6122 C   0  0  0  0  0  0  0  0  0  0  0  0
  -17.6163  -27.9014   22.6464 C   0  0  0  0  0  0  0  0  0  0  0  0
  -29.7076  -21.5904   22.8863 C   0  0  0  0  0  0  0  0  0  0  0  0
  -24.5261  -29.8709   21.1495 C   0  0  0  0  0  0  0  0  0  0  0  0
  -26.5303  -30.6732   21.5674 C   0  0  0  0  0  0  0  0  0  0  0  0
  -24.6810  -31.9208   22.6951 C   0  0  0  0  0  0  0  0  0  0  0  0
  -24.3714  -12.9538   21.6740 C   0  0  0  0  0  0  0  0  0  0  0  0
  -26.7291  -14.2455   19.8588 C   0  0  0  0  0  0  0  0  0  0  0  0
  -28.7328  -16.9264   19.1917 C   0  0  0  0  0  0  0  0  0  0  0  0
  -29.6373  -25.8370   19.9354 C   0  0  0  0  0  0  0  0  0  0  0  0
  -22.9444   -8.2038   20.4662 C   0  0  0  0  0  0  0  0  0  0  0  0
  -23.3280  -15.1399   20.9750 C   0  0  0  0  0  0  0  0  0  0  0  0
  -26.0956  -15.5067   21.9501 C   0  0  0  0  0  0  0  0  0  0  0  0
  -24.2494   -8.9949   20.4275 C   0  0  0  0  0  0  0  0  0  0  0  0
  -29.3882  -28.9094   18.1533 C   0  0  0  0  0  0  0  0  0  0  0  0
  -24.4835   -9.7038   21.7577 C   0  0  0  0  0  0  0  0  0  0  0  0
  -28.1785  -29.5994   18.7877 C   0  0  0  0  0  0  0  0  0  0  0  0
  -29.1912  -27.3977   18.0538 C   0  0  0  0  0  0  0  0  0  0  0  0
  -27.6143  -27.4254   19.9464 C   0  0  0  0  0  0  0  0  0  0  0  0
  -23.3642  -10.7101   22.0510 C   0  0  1  0  0  0  0  0  0  0  0  0
  -24.4169  -14.1049   20.7093 C   0  0  1  0  0  0  0  0  0  0  0  0
  -27.7928  -28.9417   20.1272 C   0  0  2  0  0  0  0  0  0  0  0  0
  -30.5879  -17.6699   17.6741 C   0  0  0  0  0  0  0  0  0  0  0  0
  -28.7116  -12.5751   21.4679 C   0  0  0  0  0  0  0  0  0  0  0  0
  -30.5471  -14.0333   20.5887 C   0  0  0  0  0  0  0  0  0  0  0  0
  -29.1775  -12.6684   19.0126 C   0  0  0  0  0  0  0  0  0  0  0  0
  -27.0936  -19.1216   18.0722 C   0  0  0  0  0  0  0  0  0  0  0  0
  -28.5266  -22.3519   24.9879 C   0  0  0  0  0  0  0  0  0  0  0  0
  -25.4721  -20.4221   26.2554 C   0  0  0  0  0  0  0  0  0  0  0  0
  -26.7554  -21.2336   26.3484 C   0  0  0  0  0  0  0  0  0  0  0  0
  -25.6286  -19.1127   25.4919 C   0  0  0  0  0  0  0  0  0  1  0  0
  -28.1468  -14.6984   20.1120 C   0  0  1  0  0  0  0  0  0  0  0  0
  -29.0831  -17.6227   17.8890 C   0  0  2  0  0  0  0  0  0  0  0  0
  -29.1238  -13.5051   20.3094 C   0  0  0  0  0  0  0  0  0  0  0  0
  -25.3538  -29.0768   20.4651 N   0  0  0  0  0  0  0  0  0  0  0  0
  -26.5652  -29.5902   20.7391 N   0  0  0  0  0  0  0  0  0  0  0  0
  -25.7652  -14.6713   20.7837 N   0  0  0  0  0  0  0  0  0  0  0  0
  -28.8322  -26.8434   19.3610 N   0  0  0  0  0  0  0  0  0  0  0  0
  -27.6587  -31.3111   21.9446 N   0  0  0  0  0  0  0  0  0  0  0  0
  -23.2940  -31.9927   22.8834 N   0  0  0  0  0  0  0  0  0  0  0  0
  -29.2161  -25.4104   21.1944 N   0  0  0  0  0  0  0  0  0  0  0  0
  -23.5519  -11.9159   21.2730 N   0  0  0  0  0  0  0  0  0  0  0  0
  -28.4974  -15.5808   19.0043 N   0  0  0  0  0  0  0  0  0  0  0  0
  -28.5648  -19.0199   17.8927 N   0  3  0  0  0  0  0  0  0  0  0  0
  -27.2751  -21.5451   24.9962 N   0  3  0  0  0  0  0  0  0  0  0  0
  -25.4205  -32.7693   23.2489 O   0  0  0  0  0  0  0  0  0  0  0  0
  -25.0319  -13.0030   22.7049 O   0  0  0  0  0  0  0  0  0  0  0  0
  -26.4847  -13.5459   18.8726 O   0  0  0  0  0  0  0  0  0  0  0  0
  -28.6773  -17.5165   20.2683 O   0  0  0  0  0  0  0  0  0  0  0  0
  -30.6429  -25.4062   19.3652 O   0  0  0  0  0  0  0  0  0  0  0  0
  -19.0093  -28.9717   20.9993 O   0  0  0  0  0  0  0  0  0  0  0  0
  -24.3645  -18.4518   25.4525 O   0  0  0  0  0  0  0  0  0  1  0  0
  -16.2558  -29.1719   25.7724 F   0  0  0  0  0  0  0  0  0  0  0  0
  -17.6100  -26.7736   21.9227 F   0  0  0  0  0  0  0  0  0  0  0  0
  -29.9289  -20.0115   23.5476 Cl  0  0  0  0  0  0  0  0  0  0  0  0
  1  2  1  0  0  0  0
  1  5  2  0  0  0  0
  2  6  2  0  0  0  0
  3  9  2  0  0  0  0
  3 18  1  0  0  0  0
  4 10  1  0  0  0  0
  4 18  2  0  0  0  0
  5 20  1  0  0  0  0
  6 22  1  0  0  0  0
  7 11  2  0  0  0  0
  7 21  1  0  0  0  0
  8 14  2  0  0  0  0
  8 25  1  0  0  0  0
  9 26  1  0  0  0  0
 10 26  2  0  0  0  0
 11 27  1  0  0  0  0
 12 13  2  0  0  0  0
 12 28  1  0  0  0  0
 13 29  1  0  0  0  0
 14 31  1  0  0  0  0
 15 23  1  0  0  0  0
 15 27  2  0  0  0  0
 16 24  1  0  0  0  0
 16 25  2  0  0  0  0
 17 29  2  0  0  0  0
 17 30  1  0  0  0  0
 18 32  1  0  0  0  0
 19 32  1  0  0  0  0
 19 33  2  0  0  0  0
 19 34  1  0  0  0  0
 20 22  2  0  0  0  0
 20 39  1  0  0  0  0
 21 23  2  0  0  0  0
 21 40  1  0  0  0  0
 22 48  1  0  0  0  0
 23 41  1  0  0  0  0
 24 31  2  0  0  0  0
 24 56  1  0  0  0  0
 25 69  1  0  0  0  0
 26 79  1  0  0  0  0
 27 80  1  0  0  0  0
 28 30  2  0  0  0  0
 28 79  1  0  0  0  0
 29 81  1  0  0  0  0
 30 82  1  0  0  0  0
 31 83  1  0  0  0  0
 32 63  2  0  0  0  0
 33 64  1  0  0  0  0
 33 67  1  0  0  0  0
 34 68  1  0  0  0  0
 34 74  2  0  0  0  0
 35 49  1  0  0  0  0
 35 70  1  0  0  0  0
 35 75  2  0  0  0  0
 36 60  1  0  0  0  0
 36 65  1  0  0  0  0
 36 76  2  0  0  0  0
 37 61  1  0  0  0  0
 37 71  1  0  0  0  0
 37 77  2  0  0  0  0
 38 66  1  0  0  0  0
 38 69  1  0  0  0  0
 38 78  2  0  0  0  0
 39 42  1  0  0  0  0
 40 49  1  0  0  0  0
 41 65  1  0  0  0  0
 42 44  1  0  0  0  0
 43 45  1  0  0  0  0
 43 46  1  0  0  0  0
 44 48  1  0  0  0  0
 45 50  1  0  0  0  0
 46 66  1  0  0  0  0
 47 50  1  0  0  0  0
 47 66  1  0  0  0  0
 48 70  1  0  0  0  0
 49 65  1  0  0  0  0
 50 64  1  0  0  0  0
 51 61  1  0  0  0  0
 52 62  1  0  0  0  0
 53 62  1  0  0  0  0
 54 62  1  0  0  0  0
 55 72  1  0  0  0  0
 56 73  1  0  0  0  0
 57 58  1  0  0  0  0
 57 59  1  0  0  0  0
 58 73  1  0  0  0  0
 59 80  1  0  0  0  0
 60 62  1  0  0  0  0
 60 71  1  0  0  0  0
 61 72  1  0  0  0  0
 63 64  1  0  0  0  0
M  CHG  2  72   1  73   1
M  ISO  4  38 100  59 101  69 100  80 101
M  END
> <Batch ID>
0042

> <Smiles>
CNC(C)C(=O)NC(C(=O)N1Cc2cc([101O:1][101CH2:1]CCNCc3cc([100NH:0][100C:0](=O)N4CCCC(n5nc(-c6ccc(Oc7ccc(F)cc7F)cc6)c(C(N)=O)c5N)C4)ccc3Cl)ccc2CC1C(=O)NC1CCCc2ccccc21)C(C)(C)C

> <Shape>
0.290

> <Color>
0.063

> <Negative vol penalty>
0.000

$$$$

  -OEChem-04042322123D

 85 93  0     1  0  0  0  0  0999 V2000
  -16.7235  -29.1882   24.0712 C   0  0  0  0  0  0  0  0  0  0  0  0
  -17.6869  -28.1866   24.1351 C   0  0  0  0  0  0  0  0  0  0  0  0
  -26.7989  -24.1414   18.5684 C   0  0  0  0  0  0  0  0  0  0  0  0
  -26.2875  -12.3827   21.6549 C   0  0  0  0  0  0  0  0  0  0  0  0
  -25.3470  -13.6072   19.7967 C   0  0  0  0  0  0  0  0  0  0  0  0
  -16.9245  -30.2955   23.2481 C   0  0  0  0  0  0  0  0  0  0  0  0
  -18.8513  -28.2911   23.3751 C   0  0  0  0  0  0  0  0  0  0  0  0
  -23.0076  -27.1103   26.0163 C   0  0  0  0  0  0  0  0  0  0  0  0
  -28.1195  -23.8493   18.9094 C   0  0  0  0  0  0  0  0  0  0  0  0
  -25.7680  -23.3006   18.9877 C   0  0  0  0  0  0  0  0  0  0  0  0
  -25.1607  -11.5611   21.6839 C   0  0  0  0  0  0  0  0  0  0  0  0
  -24.2202  -12.7855   19.8256 C   0  0  0  0  0  0  0  0  0  0  0  0
  -23.2700  -25.7561   26.2188 C   0  0  0  0  0  0  0  0  0  0  0  0
  -23.9662   -8.9096   19.9588 C   0  0  0  0  0  0  0  0  0  0  0  0
  -24.1691   -7.5353   20.0840 C   0  0  0  0  0  0  0  0  0  0  0  0
  -24.8760  -25.8043   24.4194 C   0  0  0  0  0  0  0  0  0  0  0  0
  -22.8967   -7.5346   22.1378 C   0  0  0  0  0  0  0  0  0  0  0  0
  -26.3807  -13.4058   20.7114 C   0  0  0  0  0  0  0  0  0  0  0  0
  -28.7276  -14.0502   19.9471 C   0  0  0  0  0  0  0  0  0  0  0  0
  -18.0963  -30.4183   22.4850 C   0  0  0  0  0  0  0  0  0  0  0  0
  -23.6706  -27.8203   25.0049 C   0  0  0  0  0  0  0  0  0  0  0  0
  -19.0675  -29.4004   22.5400 C   0  0  0  0  0  0  0  0  0  0  0  0
  -24.6221  -27.1681   24.2078 C   0  0  0  0  0  0  0  0  0  0  0  0
  -28.4092  -22.7162   19.6696 C   0  0  0  0  0  0  0  0  0  0  0  0
  -26.0576  -22.1675   19.7478 C   0  0  0  0  0  0  0  0  0  0  0  0
  -27.3783  -21.8753   20.0888 C   0  0  0  0  0  0  0  0  0  0  0  0
  -24.1271  -11.7625   20.7692 C   0  0  0  0  0  0  0  0  0  0  0  0
  -24.2021  -25.1022   25.4184 C   0  0  0  0  0  0  0  0  0  0  0  0
  -23.2287   -9.5965   20.9231 C   0  0  0  0  0  0  0  0  0  0  0  0
  -23.6343   -6.8478   21.1734 C   0  0  0  0  0  0  0  0  0  0  0  0
  -22.6938   -8.9090   22.0126 C   0  0  0  0  0  0  0  0  0  0  0  0
  -27.5442  -14.2552   20.6814 C   0  0  0  0  0  0  0  0  0  0  0  0
  -29.5165  -15.1305   20.2586 C   0  0  0  0  0  0  0  0  0  0  0  0
  -29.0821  -12.9791   19.0624 C   0  0  0  0  0  0  0  0  0  0  0  0
  -22.7587  -29.3614   22.3787 C   0  0  0  0  0  0  0  0  0  0  0  0
  -25.8889  -30.2035   22.2559 C   0  0  0  0  0  0  0  0  0  0  0  0
  -29.1133  -29.5057   23.1295 C   0  0  0  0  0  0  0  0  0  0  0  0
  -28.2943  -20.6795   22.1080 C   0  0  0  0  0  0  0  0  0  0  0  0
  -18.2476  -31.6106   21.5738 C   0  0  0  0  0  0  0  0  0  0  0  0
  -23.3959  -29.2871   24.8168 C   0  0  0  0  0  0  0  0  0  0  0  0
  -25.3758  -27.8900   23.1219 C   0  0  0  0  0  0  0  0  0  0  0  0
  -19.6779  -31.8271   21.0863 C   0  0  0  0  0  0  0  0  0  0  0  0
  -30.3341  -18.2815   23.7711 C   0  0  0  0  0  0  0  0  0  0  0  0
  -20.2839  -30.5114   20.6082 C   0  0  0  0  0  0  0  0  0  0  0  0
  -29.9623  -16.9591   23.0965 C   0  0  0  0  0  0  0  0  0  0  0  0
  -29.1232  -19.2001   23.9244 C   0  0  0  0  0  0  0  0  0  0  0  0
  -27.9999  -18.1261   22.0129 C   0  0  0  0  0  0  0  0  0  0  0  0
  -20.3549  -29.4898   21.7496 C   0  0  1  0  0  0  0  0  0  0  0  0
  -23.7536  -29.7878   23.4208 C   0  0  1  0  0  0  0  0  0  0  0  0
  -29.1998  -17.1940   21.7778 C   0  0  2  0  0  0  0  0  0  0  0  0
  -29.8338  -22.4297   20.0189 C   0  0  0  0  0  0  0  0  0  0  0  0
  -31.4578  -30.3558   22.8505 C   0  0  0  0  0  0  0  0  0  0  0  0
  -25.9384  -29.1234   19.4027 C   0  0  0  0  0  0  0  0  0  0  0  0
  -28.4392  -29.1163   19.5229 C   0  0  0  0  0  0  0  0  0  0  0  0
  -27.1884  -31.2647   19.7294 C   0  0  0  0  0  0  0  0  0  0  0  0
  -29.4447  -29.8900   26.0453 C   0  0  0  0  0  0  0  0  0  0  0  0
  -24.9268  -21.2831   20.1838 C   0  0  0  0  0  0  0  0  0  0  0  0
  -23.6703  -20.3426   22.1268 C   0  0  0  0  0  0  0  0  0  0  0  0
  -23.6856  -20.2721   23.6411 C   0  0  0  0  0  0  0  0  0  0  0  0
  -23.3921  -22.9780   26.1167 C   0  0  0  0  0  0  0  0  0  1  0  0
  -23.5527  -21.5607   25.6019 C   0  0  0  0  0  0  0  0  0  0  0  0
  -27.1324  -29.6095   21.6396 C   0  0  1  0  0  0  0  0  0  0  0  0
  -30.2086  -30.3769   23.7176 C   0  0  2  0  0  0  0  0  0  0  0  0
  -27.1592  -29.7641   20.0928 C   0  0  0  0  0  0  0  0  0  0  0  0
  -27.5742  -15.3774   21.4050 N   0  0  0  0  0  0  0  0  0  0  0  0
  -28.7862  -15.8873   21.1270 N   0  0  0  0  0  0  0  0  0  0  0  0
  -25.0675  -29.3219   22.9728 N   0  0  0  0  0  0  0  0  0  0  0  0
  -28.4534  -19.3802   22.6345 N   0  0  0  0  0  0  0  0  0  0  0  0
  -30.7567  -15.4975   19.8718 N   0  0  0  0  0  0  0  0  0  0  0  0
  -28.1543  -11.9494   18.8544 N   0  0  0  0  0  0  0  0  0  0  0  0
  -27.6724  -20.7240   20.8607 N   0  0  0  0  0  0  0  0  0  0  0  0
  -21.4676  -29.7873   22.6258 N   0  0  0  0  0  0  0  0  0  0  0  0
  -28.2627  -30.2305   22.3218 N   0  0  0  0  0  0  0  0  0  0  0  0
  -30.5747  -29.8990   25.0809 N   0  3  0  0  0  0  0  0  0  0  0  0
  -24.8170  -21.1636   21.6628 N   0  3  0  0  0  0  0  0  0  0  0  0
  -30.1954  -12.9279   18.4865 O   0  0  0  0  0  0  0  0  0  0  0  0
  -23.1349  -28.6964   21.4205 O   0  0  0  0  0  0  0  0  0  0  0  0
  -25.6586  -31.4069   22.1127 O   0  0  0  0  0  0  0  0  0  0  0  0
  -29.0236  -28.3019   23.3604 O   0  0  0  0  0  0  0  0  0  0  0  0
  -28.7056  -21.6770   22.7063 O   0  0  0  0  0  0  0  0  0  0  0  0
  -23.0275  -10.9608   20.7970 O   0  0  0  0  0  0  0  0  0  0  0  0
  -24.4596  -23.7802   25.6135 O   0  0  0  0  0  0  0  0  0  1  0  0
  -23.5436  -21.5791   24.1796 O   0  0  0  0  0  0  0  0  0  0  0  0
  -23.8279   -5.5278   21.2927 F   0  0  0  0  0  0  0  0  0  0  0  0
  -21.9834   -9.5632   22.9416 F   0  0  0  0  0  0  0  0  0  0  0  0
  1  2  1  0  0  0  0
  1  6  2  0  0  0  0
  2  7  2  0  0  0  0
  3  9  1  0  0  0  0
  3 10  2  0  0  0  0
  4 11  2  0  0  0  0
  4 18  1  0  0  0  0
  5 12  1  0  0  0  0
  5 18  2  0  0  0  0
  6 20  1  0  0  0  0
  7 22  1  0  0  0  0
  8 13  2  0  0  0  0
  8 21  1  0  0  0  0
  9 24  2  0  0  0  0
 10 25  1  0  0  0  0
 11 27  1  0  0  0  0
 12 27  2  0  0  0  0
 13 28  1  0  0  0  0
 14 15  2  0  0  0  0
 14 29  1  0  0  0  0
 15 30  1  0  0  0  0
 16 23  1  0  0  0  0
 16 28  2  0  0  0  0
 17 30  2  0  0  0  0
 17 31  1  0  0  0  0
 18 32  1  0  0  0  0
 19 32  1  0  0  0  0
 19 33  2  0  0  0  0
 19 34  1  0  0  0  0
 20 22  2  0  0  0  0
 20 39  1  0  0  0  0
 21 23  2  0  0  0  0
 21 40  1  0  0  0  0
 22 48  1  0  0  0  0
 23 41  1  0  0  0  0
 24 26  1  0  0  0  0
 24 51  1  0  0  0  0
 25 26  2  0  0  0  0
 25 57  1  0  0  0  0
 26 71  1  0  0  0  0
 27 81  1  0  0  0  0
 28 82  1  0  0  0  0
 29 31  2  0  0  0  0
 29 81  1  0  0  0  0
 30 84  1  0  0  0  0
 31 85  1  0  0  0  0
 32 65  2  0  0  0  0
 33 66  1  0  0  0  0
 33 69  1  0  0  0  0
 34 70  1  0  0  0  0
 34 76  2  0  0  0  0
 35 49  1  0  0  0  0
 35 72  1  0  0  0  0
 35 77  2  0  0  0  0
 36 62  1  0  0  0  0
 36 67  1  0  0  0  0
 36 78  2  0  0  0  0
 37 63  1  0  0  0  0
 37 73  1  0  0  0  0
 37 79  2  0  0  0  0
 38 68  1  0  0  0  0
 38 71  1  0  0  0  0
 38 80  2  0  0  0  0
 39 42  1  0  0  0  0
 40 49  1  0  0  0  0
 41 67  1  0  0  0  0
 42 44  1  0  0  0  0
 43 45  1  0  0  0  0
 43 46  1  0  0  0  0
 44 48  1  0  0  0  0
 45 50  1  0  0  0  0
 46 68  1  0  0  0  0
 47 50  1  0  0  0  0
 47 68  1  0  0  0  0
 48 72  1  0  0  0  0
 49 67  1  0  0  0  0
 50 66  1  0  0  0  0
 52 63  1  0  0  0  0
 53 64  1  0  0  0  0
 54 64  1  0  0  0  0
 55 64  1  0  0  0  0
 56 74  1  0  0  0  0
 57 75  1  0  0  0  0
 58 59  1  0  0  0  0
 58 75  1  0  0  0  0
 59 83  1  0  0  0  0
 60 61  1  0  0  0  0
 60 82  1  0  0  0  0
 61 83  1  0  0  0  0
 62 64  1  0  0  0  0
 62 73  1  0  0  0  0
 63 74  1  0  0  0  0
 65 66  1  0  0  0  0
M  CHG  2  74   1  75   1
M  ISO  4  38 100  60 101  71 100  82 101
M  END
> <Batch ID>
0042

> <Smiles>
CNC(C)C(=O)NC(C(=O)N1Cc2cc([101O:1][101CH2:1]COCCNCc3cccc(C)c3[100NH:0][100C:0](=O)N3CCCC(n4nc(-c5ccc(Oc6ccc(F)cc6F)cc5)c(C(N)=O)c4N)C3)ccc2CC1C(=O)NC1CCCc2ccccc21)C(C)(C)C

> <Shape>
0.238

> <Color>
0.061

> <Negative vol penalty>
0.000

$$$$

  -OEChem-04042322123D

 85 93  0     1  0  0  0  0  0999 V2000
  -30.2020  -23.6278   14.2960 C   0  0  0  0  0  0  0  0  0  0  0  0
  -29.9393  -24.9931   14.2896 C   0  0  0  0  0  0  0  0  0  0  0  0
  -26.1180  -13.5771   18.8967 C   0  0  0  0  0  0  0  0  0  0  0  0
  -25.2881  -13.9121   21.1408 C   0  0  0  0  0  0  0  0  0  0  0  0
  -29.4741  -22.7858   15.1341 C   0  0  0  0  0  0  0  0  0  0  0  0
  -28.9569  -25.5183   15.1298 C   0  0  0  0  0  0  0  0  0  0  0  0
  -24.2457  -30.1608   20.1948 C   0  0  0  0  0  0  0  0  0  0  0  0
  -25.9816  -12.1977   19.0522 C   0  0  0  0  0  0  0  0  0  0  0  0
  -25.1517  -12.5327   21.2963 C   0  0  0  0  0  0  0  0  0  0  0  0
  -23.4606  -29.8997   21.3169 C   0  0  0  0  0  0  0  0  0  0  0  0
  -24.2446   -9.1185   22.1559 C   0  0  0  0  0  0  0  0  0  0  0  0
  -23.0664   -8.6435   22.7318 C   0  0  0  0  0  0  0  0  0  0  0  0
  -25.1289  -28.3515   22.1165 C   0  0  0  0  0  0  0  0  0  0  0  0
  -25.0486  -24.4850   21.3207 C   0  0  0  0  0  0  0  0  0  0  0  0
  -23.4196  -23.6358   23.4201 C   0  0  0  0  0  0  0  0  0  0  0  0
  -21.7877   -9.6494   20.9458 C   0  0  0  0  0  0  0  0  0  0  0  0
  -25.7713  -14.4343   19.9410 C   0  0  0  0  0  0  0  0  0  0  0  0
  -24.9478  -16.7594   19.2903 C   0  0  0  0  0  0  0  0  0  0  0  0
  -28.4739  -23.3001   15.9756 C   0  0  0  0  0  0  0  0  0  0  0  0
  -25.4754  -29.5100   20.0194 C   0  0  0  0  0  0  0  0  0  0  0  0
  -28.2279  -24.6880   16.0004 C   0  0  0  0  0  0  0  0  0  0  0  0
  -25.9289  -28.6081   20.9925 C   0  0  0  0  0  0  0  0  0  0  0  0
  -25.6062  -23.8122   22.4078 C   0  0  0  0  0  0  0  0  0  0  0  0
  -22.8620  -24.3086   22.3329 C   0  0  0  0  0  0  0  0  0  0  0  0
  -25.4985  -11.6754   20.2520 C   0  0  0  0  0  0  0  0  0  0  0  0
  -23.9008  -28.9928   22.2765 C   0  0  0  0  0  0  0  0  0  0  0  0
  -24.1944   -9.8592   20.9749 C   0  0  0  0  0  0  0  0  0  0  0  0
  -21.8379   -8.9089   22.1268 C   0  0  0  0  0  0  0  0  0  0  0  0
  -22.9659  -10.1246   20.3699 C   0  0  0  0  0  0  0  0  0  0  0  0
  -24.7917  -23.3875   23.4576 C   0  0  0  0  0  0  0  0  0  0  0  0
  -23.6765  -24.7333   21.2832 C   0  0  0  0  0  0  0  0  0  0  0  0
  -25.9125  -15.8593   19.7812 C   0  0  0  0  0  0  0  0  0  0  0  0
  -25.5663  -17.9849   19.3370 C   0  0  0  0  0  0  0  0  0  0  0  0
  -23.6119  -16.5101   18.8331 C   0  0  0  0  0  0  0  0  0  0  0  0
  -26.6713  -27.5220   17.8465 C   0  0  0  0  0  0  0  0  0  0  0  0
  -29.4039  -27.9286   19.5465 C   0  0  0  0  0  0  0  0  0  0  0  0
  -30.3361  -28.1221   23.0266 C   0  0  0  0  0  0  0  0  0  0  0  0
  -28.7178  -21.7476   21.9931 C   0  0  0  0  0  0  0  0  0  0  0  0
  -27.7219  -22.3446   16.8681 C   0  0  0  0  0  0  0  0  0  0  0  0
  -26.3228  -29.8227   18.8167 C   0  0  0  0  0  0  0  0  0  0  0  0
  -27.2508  -27.8983   20.8613 C   0  0  0  0  0  0  0  0  0  0  0  0
  -26.4110  -22.9246   17.3892 C   0  0  0  0  0  0  0  0  0  0  0  0
  -30.4059  -19.2005   20.1659 C   0  0  0  0  0  0  0  0  0  0  0  0
  -26.6497  -24.3113   17.9676 C   0  0  0  0  0  0  0  0  0  0  0  0
  -29.3095  -18.1761   19.8682 C   0  0  0  0  0  0  0  0  0  0  0  0
  -30.2264  -19.8350   21.5433 C   0  0  0  0  0  0  0  0  0  0  0  0
  -27.8008  -19.4027   21.4862 C   0  0  0  0  0  0  0  0  0  0  0  0
  -27.1431  -25.2778   16.8834 C   0  0  1  0  0  0  0  0  0  0  0  0
  -27.3205  -28.7173   18.4850 C   0  0  1  0  0  0  0  0  0  0  0  0
  -27.9074  -18.7764   20.0853 C   0  0  2  0  0  0  0  0  0  0  0  0
  -32.2699  -29.2741   24.1360 C   0  0  0  0  0  0  0  0  0  0  0  0
  -30.7850  -25.2190   19.3000 C   0  0  0  0  0  0  0  0  0  0  0  0
  -31.8022  -25.6106   21.5538 C   0  0  0  0  0  0  0  0  0  0  0  0
  -32.3327  -27.1495   19.6636 C   0  0  0  0  0  0  0  0  0  0  0  0
  -28.5469  -29.6408   24.8297 C   0  0  0  0  0  0  0  0  0  0  0  0
  -27.0804  -23.5656   22.4093 C   0  0  0  0  0  0  0  0  0  0  0  0
  -21.3824  -24.5570   22.3304 C   0  0  0  0  0  0  0  0  0  0  0  0
  -21.0459  -27.8879   24.1886 C   0  0  0  0  0  0  0  0  0  0  0  0
  -21.4360  -26.4325   23.9791 C   0  0  0  0  0  0  0  0  0  0  0  0
  -21.7219  -28.8495   23.2189 C   0  0  0  0  0  0  0  0  0  1  0  0
  -30.0410  -27.2374   20.7277 C   0  0  1  0  0  0  0  0  0  0  0  0
  -30.7945  -29.3594   23.7771 C   0  0  2  0  0  0  0  0  0  0  0  0
  -31.2120  -26.3047   20.3079 C   0  0  0  0  0  0  0  0  0  0  0  0
  -27.0570  -16.4616   20.1151 N   0  0  0  0  0  0  0  0  0  0  0  0
  -26.8154  -17.7533   19.8334 N   0  0  0  0  0  0  0  0  0  0  0  0
  -28.0404  -28.2329   19.6646 N   0  0  0  0  0  0  0  0  0  0  0  0
  -28.8767  -20.3867   21.6840 N   0  0  0  0  0  0  0  0  0  0  0  0
  -25.1582  -19.2271   19.0014 N   0  0  0  0  0  0  0  0  0  0  0  0
  -23.1341  -15.1927   18.8523 N   0  0  0  0  0  0  0  0  0  0  0  0
  -27.5555  -26.5159   17.5068 N   0  0  0  0  0  0  0  0  0  0  0  0
  -30.4222  -28.2920   21.6609 N   0  0  0  0  0  0  0  0  0  0  0  0
  -27.4053  -22.1905   22.1022 N   0  0  0  0  0  0  0  0  0  0  0  0
  -30.0132  -29.5208   25.0359 N   0  3  0  0  0  0  0  0  0  0  0  0
  -21.0277  -25.9716   22.6314 N   0  3  0  0  0  0  0  0  0  0  0  0
  -22.8699  -17.4261   18.4043 O   0  0  0  0  0  0  0  0  0  0  0  0
  -25.4578  -27.5126   17.6761 O   0  0  0  0  0  0  0  0  0  0  0  0
  -30.0925  -28.1952   18.5583 O   0  0  0  0  0  0  0  0  0  0  0  0
  -29.9446  -27.1052   23.5949 O   0  0  0  0  0  0  0  0  0  0  0  0
  -29.6747  -22.5127   22.1544 O   0  0  0  0  0  0  0  0  0  0  0  0
  -25.3650  -10.3295   20.4040 O   0  0  0  0  0  0  0  0  0  0  0  0
  -23.1361  -28.7356   23.3724 O   0  0  0  0  0  0  0  0  0  1  0  0
  -20.7067   -8.4513   22.6791 F   0  0  0  0  0  0  0  0  0  0  0  0
  -22.9114  -10.8345   19.2346 F   0  0  0  0  0  0  0  0  0  0  0  0
  -25.4466  -22.5511   24.8180 Cl  0  0  0  0  0  0  0  0  0  0  0  0
  -23.0218  -25.5686   19.9219 Cl  0  0  0  0  0  0  0  0  0  0  0  0
  1  2  1  0  0  0  0
  1  5  2  0  0  0  0
  2  6  2  0  0  0  0
  3  8  2  0  0  0  0
  3 17  1  0  0  0  0
  4  9  1  0  0  0  0
  4 17  2  0  0  0  0
  5 19  1  0  0  0  0
  6 21  1  0  0  0  0
  7 10  2  0  0  0  0
  7 20  1  0  0  0  0
  8 25  1  0  0  0  0
  9 25  2  0  0  0  0
 10 26  1  0  0  0  0
 11 12  2  0  0  0  0
 11 27  1  0  0  0  0
 12 28  1  0  0  0  0
 13 22  1  0  0  0  0
 13 26  2  0  0  0  0
 14 23  2  0  0  0  0
 14 31  1  0  0  0  0
 15 24  1  0  0  0  0
 15 30  2  0  0  0  0
 16 28  2  0  0  0  0
 16 29  1  0  0  0  0
 17 32  1  0  0  0  0
 18 32  1  0  0  0  0
 18 33  2  0  0  0  0
 18 34  1  0  0  0  0
 19 21  2  0  0  0  0
 19 39  1  0  0  0  0
 20 22  2  0  0  0  0
 20 40  1  0  0  0  0
 21 48  1  0  0  0  0
 22 41  1  0  0  0  0
 23 30  1  0  0  0  0
 23 56  1  0  0  0  0
 24 31  2  0  0  0  0
 24 57  1  0  0  0  0
 25 80  1  0  0  0  0
 26 81  1  0  0  0  0
 27 29  2  0  0  0  0
 27 80  1  0  0  0  0
 28 82  1  0  0  0  0
 29 83  1  0  0  0  0
 30 84  1  0  0  0  0
 31 85  1  0  0  0  0
 32 64  2  0  0  0  0
 33 65  1  0  0  0  0
 33 68  1  0  0  0  0
 34 69  1  0  0  0  0
 34 75  2  0  0  0  0
 35 49  1  0  0  0  0
 35 70  1  0  0  0  0
 35 76  2  0  0  0  0
 36 61  1  0  0  0  0
 36 66  1  0  0  0  0
 36 77  2  0  0  0  0
 37 62  1  0  0  0  0
 37 71  1  0  0  0  0
 37 78  2  0  0  0  0
 38 67  1  0  0  0  0
 38 72  1  0  0  0  0
 38 79  2  0  0  0  0
 39 42  1  0  0  0  0
 40 49  1  0  0  0  0
 41 66  1  0  0  0  0
 42 44  1  0  0  0  0
 43 45  1  0  0  0  0
 43 46  1  0  0  0  0
 44 48  1  0  0  0  0
 45 50  1  0  0  0  0
 46 67  1  0  0  0  0
 47 50  1  0  0  0  0
 47 67  1  0  0  0  0
 48 70  1  0  0  0  0
 49 66  1  0  0  0  0
 50 65  1  0  0  0  0
 51 62  1  0  0  0  0
 52 63  1  0  0  0  0
 53 63  1  0  0  0  0
 54 63  1  0  0  0  0
 55 73  1  0  0  0  0
 56 72  1  0  0  0  0
 57 74  1  0  0  0  0
 58 59  1  0  0  0  0
 58 60  1  0  0  0  0
 59 74  1  0  0  0  0
 60 81  1  0  0  0  0
 61 63  1  0  0  0  0
 61 71  1  0  0  0  0
 62 73  1  0  0  0  0
 64 65  1  0  0  0  0
M  CHG  2  73   1  74   1
M  ISO  4  38 100  60 101  72 100  81 101
M  END
> <Batch ID>
0042

> <Smiles>
CNC(C)C(=O)NC(C(=O)N1Cc2cc([101O:1][101CH2:1]CCNCc3cc(Cl)c(C[100NH:0][100C:0](=O)N4CCCC(n5nc(-c6ccc(Oc7ccc(F)cc7F)cc6)c(C(N)=O)c5N)C4)cc3Cl)ccc2CC1C(=O)NC1CCCc2ccccc21)C(C)(C)C

> <Shape>
0.214

> <Color>
0.063

> <Negative vol penalty>
0.000

$$$$

  -OEChem-04042322123D

 92101  0     1  0  0  0  0  0999 V2000
  -34.4013  -33.0275   21.6304 C   0  0  0  0  0  0  0  0  0  0  0  0
  -33.6549  -32.0837   22.3287 C   0  0  0  0  0  0  0  0  0  0  0  0
  -22.6744  -10.1848   20.1740 C   0  0  0  0  0  0  0  0  0  0  0  0
  -24.3244   -9.4252   21.7670 C   0  0  0  0  0  0  0  0  0  0  0  0
  -34.1888  -33.2109   20.2647 C   0  0  0  0  0  0  0  0  0  0  0  0
  -32.6948  -31.3235   21.6619 C   0  0  0  0  0  0  0  0  0  0  0  0
  -31.1763  -25.4989   22.7904 C   0  0  0  0  0  0  0  0  0  0  0  0
  -21.9439   -9.0132   20.3719 C   0  0  0  0  0  0  0  0  0  0  0  0
  -23.5938   -8.2535   21.9649 C   0  0  0  0  0  0  0  0  0  0  0  0
  -30.1310  -24.9251   23.5129 C   0  0  0  0  0  0  0  0  0  0  0  0
  -20.8442   -7.2943   23.6795 C   0  0  0  0  0  0  0  0  0  0  0  0
  -20.6566   -6.8634   24.9928 C   0  0  0  0  0  0  0  0  0  0  0  0
  -28.8698  -24.6682   21.4727 C   0  0  0  0  0  0  0  0  0  0  0  0
  -31.8759  -17.2707   21.6671 C   0  0  0  0  0  0  0  0  0  0  0  0
  -21.7901   -4.7934   24.4756 C   0  0  0  0  0  0  0  0  0  0  0  0
  -23.8647  -10.3908   20.8715 C   0  0  0  0  0  0  0  0  0  0  0  0
  -24.1879  -12.9212   20.8937 C   0  0  0  0  0  0  0  0  0  0  0  0
  -33.2323  -32.4458   19.5788 C   0  0  0  0  0  0  0  0  0  0  0  0
  -31.0715  -25.6719   21.4028 C   0  0  0  0  0  0  0  0  0  0  0  0
  -32.4684  -31.4978   20.2860 C   0  0  0  0  0  0  0  0  0  0  0  0
  -29.9162  -25.2421   20.7345 C   0  0  0  0  0  0  0  0  0  0  0  0
  -32.4094  -18.4626   22.1574 C   0  0  0  0  0  0  0  0  0  0  0  0
  -31.6701  -19.2448   23.0445 C   0  0  0  0  0  0  0  0  0  0  0  0
  -30.3971  -18.8352   23.4415 C   0  0  0  0  0  0  0  0  0  0  0  0
  -30.6029  -16.8611   22.0640 C   0  0  0  0  0  0  0  0  0  0  0  0
  -22.4035   -8.0475   21.2674 C   0  0  0  0  0  0  0  0  0  0  0  0
  -28.9764  -24.5124   22.8545 C   0  0  0  0  0  0  0  0  0  0  0  0
  -21.5047   -6.4747   22.7642 C   0  0  0  0  0  0  0  0  0  0  0  0
  -21.1296   -5.6130   25.3909 C   0  0  0  0  0  0  0  0  0  0  0  0
  -21.9777   -5.2243   23.1623 C   0  0  0  0  0  0  0  0  0  0  0  0
  -29.8636  -17.6434   22.9512 C   0  0  0  0  0  0  0  0  0  0  0  0
  -24.6200  -11.6007   20.6670 C   0  0  0  0  0  0  0  0  0  0  0  0
  -25.2665  -13.6991   20.5502 C   0  0  0  0  0  0  0  0  0  0  0  0
  -22.9246  -13.4016   21.3721 C   0  0  0  0  0  0  0  0  0  0  0  0
  -31.0788  -28.1782   19.4478 C   0  0  0  0  0  0  0  0  0  0  0  0
  -31.0729  -25.8914   17.1472 C   0  0  0  0  0  0  0  0  0  0  0  0
  -29.4302  -22.7293   16.5817 C   0  0  0  0  0  0  0  0  0  0  0  0
  -30.7287  -14.7739   20.6590 C   0  0  0  0  0  0  0  0  0  0  0  0
  -33.0051  -32.7128   18.1120 C   0  0  0  0  0  0  0  0  0  0  0  0
  -32.2188  -26.2680   20.6341 C   0  0  0  0  0  0  0  0  0  0  0  0
  -29.7624  -25.3869   19.2433 C   0  0  0  0  0  0  0  0  0  0  0  0
  -32.2306  -31.6042   17.4039 C   0  0  0  0  0  0  0  0  0  0  0  0
  -34.3180  -22.7155   19.1875 C   0  0  0  0  0  0  0  0  0  0  0  0
  -33.1127  -21.9668   18.6215 C   0  0  0  0  0  0  0  0  0  0  0  0
  -29.5733  -12.4962   18.1782 C   0  0  0  0  0  0  0  0  0  0  0  0
  -34.7762  -22.2688   20.5724 C   0  0  0  0  0  0  0  0  0  0  0  0
  -33.4458  -20.5275   18.2406 C   0  0  0  0  0  0  0  0  0  0  0  0
  -31.0142  -31.1929   18.2273 C   0  0  0  0  0  0  0  0  0  0  0  0
  -28.1461  -12.1688   18.6232 C   0  0  0  0  0  0  0  0  0  0  0  0
  -30.5153  -12.6604   19.3696 C   0  0  0  0  0  0  0  0  0  0  0  0
  -28.6372  -13.2873   20.8356 C   0  0  0  0  0  0  0  0  0  0  0  0
  -35.0583  -20.7781   20.7204 C   0  0  0  0  0  0  0  0  0  0  0  0
  -33.3285  -19.4991   19.3591 C   0  0  0  0  0  0  0  0  0  0  0  0
  -31.4350  -30.6365   19.5929 C   0  0  1  0  0  0  0  0  0  0  0  0
  -31.7950  -26.8661   19.2962 C   0  0  1  0  0  0  0  0  0  0  0  0
  -27.6378  -13.1767   19.6726 C   0  0  2  0  0  0  0  0  0  0  0  0
  -32.2455  -20.5240   23.5659 C   0  0  0  0  0  0  0  0  0  0  0  0
  -30.1521  -20.7318   15.2451 C   0  0  0  0  0  0  0  0  0  0  0  0
  -29.4463  -27.1677   14.9033 C   0  0  0  0  0  0  0  0  0  0  0  0
  -28.6899  -24.8746   14.2417 C   0  0  0  0  0  0  0  0  0  0  0  0
  -31.1120  -25.4635   14.1450 C   0  0  0  0  0  0  0  0  0  0  0  0
  -29.1286  -20.9206   18.9047 C   0  0  0  0  0  0  0  0  0  0  0  0
  -33.7746  -18.8789   21.7159 C   0  0  0  0  0  0  0  0  0  0  0  0
  -29.6175  -19.6919   24.3950 C   0  0  0  0  0  0  0  0  0  0  0  0
  -26.6034  -21.9996   23.8943 C   0  0  0  0  0  0  0  0  0  0  0  0
  -27.6874  -21.2550   24.6591 C   0  0  0  0  0  0  0  0  0  0  0  0
  -27.1452  -22.9950   22.8758 C   0  0  0  0  0  0  0  0  0  1  0  0
  -30.0051  -25.1353   16.3942 C   0  0  1  0  0  0  0  0  0  0  0  0
  -30.0677  -21.3524   16.6309 C   0  0  2  0  0  0  0  0  0  0  0  0
  -29.8089  -25.6699   14.9474 C   0  0  0  0  0  0  0  0  0  0  0  0
  -25.8752  -11.5394   20.2144 N   0  0  0  0  0  0  0  0  0  0  0  0
  -26.2410  -12.8311   20.1537 N   0  0  0  0  0  0  0  0  0  0  0  0
  -30.9091  -25.9814   18.5368 N   0  0  0  0  0  0  0  0  0  0  0  0
  -29.9710  -13.6332   20.3195 N   0  0  0  0  0  0  0  0  0  0  0  0
  -25.4669  -15.0341   20.5515 N   0  0  0  0  0  0  0  0  0  0  0  0
  -21.9266  -12.4664   21.6783 N   0  0  0  0  0  0  0  0  0  0  0  0
  -30.0953  -15.6439   21.5458 N   0  0  0  0  0  0  0  0  0  0  0  0
  -31.9154  -29.2779   19.4588 N   0  0  0  0  0  0  0  0  0  0  0  0
  -30.3758  -23.7260   16.4653 N   0  0  0  0  0  0  0  0  0  0  0  0
  -33.7593  -20.0050   20.7106 N   0  3  0  0  0  0  0  0  0  0  0  0
  -29.2724  -20.4444   17.5049 N   0  3  0  0  0  0  0  0  0  0  0  0
  -28.5174  -20.4476   23.7347 N   0  3  0  0  0  0  0  0  0  0  0  0
  -22.6822  -14.6248   21.5079 O   0  0  0  0  0  0  0  0  0  0  0  0
  -29.8573  -28.1920   19.5460 O   0  0  0  0  0  0  0  0  0  0  0  0
  -32.0212  -26.3780   16.5263 O   0  0  0  0  0  0  0  0  0  0  0  0
  -28.2148  -22.9029   16.6370 O   0  0  0  0  0  0  0  0  0  0  0  0
  -31.8453  -14.9786   20.1760 O   0  0  0  0  0  0  0  0  0  0  0  0
  -21.6908   -6.9042   21.4609 O   0  0  0  0  0  0  0  0  0  0  0  0
  -27.9544  -23.9526   23.5574 O   0  0  0  0  0  0  0  0  0  1  0  0
  -20.9507   -5.2000   26.6525 F   0  0  0  0  0  0  0  0  0  0  0  0
  -22.6140   -4.4331   22.2877 F   0  0  0  0  0  0  0  0  0  0  0  0
  -28.2811  -17.1349   23.4468 Cl  0  0  0  0  0  0  0  0  0  0  0  0
  1  2  1  0  0  0  0
  1  5  2  0  0  0  0
  2  6  2  0  0  0  0
  3  8  2  0  0  0  0
  3 16  1  0  0  0  0
  4  9  1  0  0  0  0
  4 16  2  0  0  0  0
  5 18  1  0  0  0  0
  6 20  1  0  0  0  0
  7 10  2  0  0  0  0
  7 19  1  0  0  0  0
  8 26  1  0  0  0  0
  9 26  2  0  0  0  0
 10 27  1  0  0  0  0
 11 12  2  0  0  0  0
 11 28  1  0  0  0  0
 12 29  1  0  0  0  0
 13 21  1  0  0  0  0
 13 27  2  0  0  0  0
 14 22  1  0  0  0  0
 14 25  2  0  0  0  0
 15 29  2  0  0  0  0
 15 30  1  0  0  0  0
 16 32  1  0  0  0  0
 17 32  1  0  0  0  0
 17 33  2  0  0  0  0
 17 34  1  0  0  0  0
 18 20  2  0  0  0  0
 18 39  1  0  0  0  0
 19 21  2  0  0  0  0
 19 40  1  0  0  0  0
 20 54  1  0  0  0  0
 21 41  1  0  0  0  0
 22 23  2  0  0  0  0
 22 63  1  0  0  0  0
 23 24  1  0  0  0  0
 23 57  1  0  0  0  0
 24 31  2  0  0  0  0
 24 64  1  0  0  0  0
 25 31  1  0  0  0  0
 25 77  1  0  0  0  0
 26 88  1  0  0  0  0
 27 89  1  0  0  0  0
 28 30  2  0  0  0  0
 28 88  1  0  0  0  0
 29 90  1  0  0  0  0
 30 91  1  0  0  0  0
 31 92  1  0  0  0  0
 32 71  2  0  0  0  0
 33 72  1  0  0  0  0
 33 75  1  0  0  0  0
 34 76  1  0  0  0  0
 34 83  2  0  0  0  0
 35 55  1  0  0  0  0
 35 78  1  0  0  0  0
 35 84  2  0  0  0  0
 36 68  1  0  0  0  0
 36 73  1  0  0  0  0
 36 85  2  0  0  0  0
 37 69  1  0  0  0  0
 37 79  1  0  0  0  0
 37 86  2  0  0  0  0
 38 74  1  0  0  0  0
 38 77  1  0  0  0  0
 38 87  2  0  0  0  0
 39 42  1  0  0  0  0
 40 55  1  0  0  0  0
 41 73  1  0  0  0  0
 42 48  1  0  0  0  0
 43 44  1  0  0  0  0
 43 46  1  0  0  0  0
 44 47  1  0  0  0  0
 45 49  1  0  0  0  0
 45 50  1  0  0  0  0
 46 52  1  0  0  0  0
 47 53  1  0  0  0  0
 48 54  1  0  0  0  0
 49 56  1  0  0  0  0
 50 74  1  0  0  0  0
 51 56  1  0  0  0  0
 51 74  1  0  0  0  0
 52 80  1  0  0  0  0
 53 80  1  0  0  0  0
 54 78  1  0  0  0  0
 55 73  1  0  0  0  0
 56 72  1  0  0  0  0
 58 69  1  0  0  0  0
 59 70  1  0  0  0  0
 60 70  1  0  0  0  0
 61 70  1  0  0  0  0
 62 81  1  0  0  0  0
 63 80  1  0  0  0  0
 64 82  1  0  0  0  0
 65 66  1  0  0  0  0
 65 67  1  0  0  0  0
 66 82  1  0  0  0  0
 67 89  1  0  0  0  0
 68 70  1  0  0  0  0
 68 79  1  0  0  0  0
 69 81  1  0  0  0  0
 71 72  1  0  0  0  0
M  CHG  3  80   1  81   1  82   1
M  ISO  4  38 100  67 101  77 100  89 101
M  END
> <Batch ID>
0042

> <Smiles>
CNC(C)C(=O)NC(C(=O)N1Cc2cc([101O:1][101CH2:1]CCNCc3c(C)c(CN4CCCCCC4)cc([100NH:0][100C:0](=O)N4CCCC(n5nc(-c6ccc(Oc7ccc(F)cc7F)cc6)c(C(N)=O)c5N)C4)c3Cl)ccc2CC1C(=O)NC1CCCc2ccccc21)C(C)(C)C

> <Shape>
0.248

> <Color>
0.184

> <Negative vol penalty>
0.000

$$$$

  -OEChem-04042322123D

 84 92  0     1  0  0  0  0  0999 V2000
  -35.7627  -25.5543   28.9643 C   0  0  0  0  0  0  0  0  0  0  0  0
  -35.4515  -24.9542   27.7483 C   0  0  0  0  0  0  0  0  0  0  0  0
  -23.0765   -9.8669   19.9383 C   0  0  0  0  0  0  0  0  0  0  0  0
  -23.8414   -9.8694   22.2300 C   0  0  0  0  0  0  0  0  0  0  0  0
  -35.2502  -26.8144   29.2698 C   0  0  0  0  0  0  0  0  0  0  0  0
  -34.6266  -25.6135   26.8377 C   0  0  0  0  0  0  0  0  0  0  0  0
  -35.0057  -25.4346   20.7278 C   0  0  0  0  0  0  0  0  0  0  0  0
  -22.3361   -8.7112   20.1867 C   0  0  0  0  0  0  0  0  0  0  0  0
  -23.1009   -8.7137   22.4784 C   0  0  0  0  0  0  0  0  0  0  0  0
  -34.3161  -24.6970   19.7664 C   0  0  0  0  0  0  0  0  0  0  0  0
  -19.8760   -7.9063   23.0858 C   0  0  0  0  0  0  0  0  0  0  0  0
  -19.1217   -7.8612   24.2582 C   0  0  0  0  0  0  0  0  0  0  0  0
  -32.8062  -26.5493   19.4370 C   0  0  0  0  0  0  0  0  0  0  0  0
  -29.1575  -19.7157   19.9606 C   0  0  0  0  0  0  0  0  0  0  0  0
  -31.6015  -18.3744   20.0616 C   0  0  0  0  0  0  0  0  0  0  0  0
  -20.3695   -5.9248   24.9865 C   0  0  0  0  0  0  0  0  0  0  0  0
  -23.8293  -10.4459   20.9600 C   0  0  0  0  0  0  0  0  0  0  0  0
  -24.1646  -12.9722   20.8462 C   0  0  0  0  0  0  0  0  0  0  0  0
  -34.4265  -27.4937   28.3584 C   0  0  0  0  0  0  0  0  0  0  0  0
  -34.5933  -26.7333   21.0594 C   0  0  0  0  0  0  0  0  0  0  0  0
  -34.1015  -26.8833   27.1319 C   0  0  0  0  0  0  0  0  0  0  0  0
  -33.4938  -27.3022   20.4010 C   0  0  0  0  0  0  0  0  0  0  0  0
  -29.3496  -18.6845   20.8799 C   0  0  0  0  0  0  0  0  0  0  0  0
  -30.1874  -20.0763   19.0917 C   0  0  0  0  0  0  0  0  0  0  0  0
  -30.5716  -18.0138   20.9305 C   0  0  0  0  0  0  0  0  0  0  0  0
  -22.3482   -8.1346   21.4567 C   0  0  0  0  0  0  0  0  0  0  0  0
  -33.2145  -25.2532   19.1229 C   0  0  0  0  0  0  0  0  0  0  0  0
  -20.8770   -6.9605   22.8637 C   0  0  0  0  0  0  0  0  0  0  0  0
  -19.3685   -6.8705   25.2086 C   0  0  0  0  0  0  0  0  0  0  0  0
  -21.1238   -5.9698   23.8141 C   0  0  0  0  0  0  0  0  0  0  0  0
  -31.4095  -19.4057   19.1422 C   0  0  0  0  0  0  0  0  0  0  0  0
  -24.5949  -11.6394   20.7039 C   0  0  0  0  0  0  0  0  0  0  0  0
  -25.2541  -13.7254   20.4826 C   0  0  0  0  0  0  0  0  0  0  0  0
  -22.8938  -13.4838   21.2693 C   0  0  0  0  0  0  0  0  0  0  0  0
  -33.5393  -28.1453   23.7049 C   0  0  0  0  0  0  0  0  0  0  0  0
  -33.7180  -30.8219   21.8810 C   0  0  0  0  0  0  0  0  0  0  0  0
  -33.7313  -32.2068   18.7619 C   0  0  0  0  0  0  0  0  0  0  0  0
  -30.7358  -14.7574   20.6619 C   0  0  0  0  0  0  0  0  0  0  0  0
  -33.8578  -28.8337   28.7529 C   0  0  0  0  0  0  0  0  0  0  0  0
  -35.3640  -27.5257   22.0794 C   0  0  0  0  0  0  0  0  0  0  0  0
  -33.0231  -28.7000   20.7062 C   0  0  0  0  0  0  0  0  0  0  0  0
  -33.2953  -29.6269   27.5762 C   0  0  0  0  0  0  0  0  0  0  0  0
  -29.5988  -12.3768   18.2710 C   0  0  0  0  0  0  0  0  0  0  0  0
  -32.4194  -28.7356   26.7015 C   0  0  0  0  0  0  0  0  0  0  0  0
  -28.1631  -12.0783   18.7062 C   0  0  0  0  0  0  0  0  0  0  0  0
  -30.5180  -12.5965   19.4705 C   0  0  0  0  0  0  0  0  0  0  0  0
  -28.6175  -13.3191   20.8632 C   0  0  0  0  0  0  0  0  0  0  0  0
  -33.2302  -27.5775   26.1076 C   0  0  1  0  0  0  0  0  0  0  0  0
  -34.5442  -28.6485   22.7076 C   0  0  1  0  0  0  0  0  0  0  0  0
  -27.6412  -13.1453   19.6872 C   0  0  2  0  0  0  0  0  0  0  0  0
  -28.2324  -18.3135   21.7991 C   0  0  0  0  0  0  0  0  0  0  0  0
  -33.8522  -34.4231   17.5912 C   0  0  0  0  0  0  0  0  0  0  0  0
  -30.8074  -31.3666   22.6168 C   0  0  0  0  0  0  0  0  0  0  0  0
  -30.7059  -32.9978   20.7202 C   0  0  0  0  0  0  0  0  0  0  0  0
  -32.2792  -33.3885   22.6162 C   0  0  0  0  0  0  0  0  0  0  0  0
  -36.2361  -31.4660   17.3704 C   0  0  0  0  0  0  0  0  0  0  0  0
  -30.7990  -16.9047   21.9046 C   0  0  0  0  0  0  0  0  0  0  0  0
  -29.9406  -21.1906   18.1178 C   0  0  0  0  0  0  0  0  0  0  0  0
  -30.4402  -23.5649   17.5249 C   0  0  0  0  0  0  0  0  0  0  0  0
  -31.1453  -24.8042   18.0400 C   0  0  0  0  0  0  0  0  0  1  0  0
  -32.7740  -31.5489   20.9540 C   0  0  1  0  0  0  0  0  0  0  0  0
  -34.6434  -33.2375   18.1213 C   0  0  2  0  0  0  0  0  0  0  0  0
  -31.6491  -32.2984   21.7222 C   0  0  0  0  0  0  0  0  0  0  0  0
  -25.8590  -11.5478   20.2826 N   0  0  0  0  0  0  0  0  0  0  0  0
  -26.2325  -12.8327   20.1570 N   0  0  0  0  0  0  0  0  0  0  0  0
  -33.8057  -29.4323   21.7155 N   0  0  0  0  0  0  0  0  0  0  0  0
  -29.9669  -13.6212   20.3605 N   0  0  0  0  0  0  0  0  0  0  0  0
  -25.4611  -15.0576   20.4129 N   0  0  0  0  0  0  0  0  0  0  0  0
  -21.8849  -12.5712   21.6063 N   0  0  0  0  0  0  0  0  0  0  0  0
  -34.0291  -28.0393   24.9927 N   0  0  0  0  0  0  0  0  0  0  0  0
  -33.6044  -32.4108   20.1197 N   0  0  0  0  0  0  0  0  0  0  0  0
  -30.1362  -15.6824   21.5078 N   0  0  0  0  0  0  0  0  0  0  0  0
  -35.3959  -32.6298   16.9876 N   0  3  0  0  0  0  0  0  0  0  0  0
  -30.6166  -22.4597   18.5003 N   0  3  0  0  0  0  0  0  0  0  0  0
  -22.6547  -14.7136   21.3306 O   0  0  0  0  0  0  0  0  0  0  0  0
  -32.4031  -27.8748   23.3338 O   0  0  0  0  0  0  0  0  0  0  0  0
  -34.3595  -31.4641   22.7163 O   0  0  0  0  0  0  0  0  0  0  0  0
  -33.1832  -31.3126   18.1213 O   0  0  0  0  0  0  0  0  0  0  0  0
  -31.8703  -14.9370   20.2063 O   0  0  0  0  0  0  0  0  0  0  0  0
  -21.6256   -7.0070   21.6995 O   0  0  0  0  0  0  0  0  0  0  0  0
  -32.5392  -24.5352   18.1847 O   0  0  0  0  0  0  0  0  0  1  0  0
  -18.6451   -6.8283   26.3351 F   0  0  0  0  0  0  0  0  0  0  0  0
  -22.0849   -5.0593   23.6068 F   0  0  0  0  0  0  0  0  0  0  0  0
  -32.7065  -19.8239   18.0830 Cl  0  0  0  0  0  0  0  0  0  0  0  0
  1  2  1  0  0  0  0
  1  5  2  0  0  0  0
  2  6  2  0  0  0  0
  3  8  2  0  0  0  0
  3 17  1  0  0  0  0
  4  9  1  0  0  0  0
  4 17  2  0  0  0  0
  5 19  1  0  0  0  0
  6 21  1  0  0  0  0
  7 10  2  0  0  0  0
  7 20  1  0  0  0  0
  8 26  1  0  0  0  0
  9 26  2  0  0  0  0
 10 27  1  0  0  0  0
 11 12  2  0  0  0  0
 11 28  1  0  0  0  0
 12 29  1  0  0  0  0
 13 22  1  0  0  0  0
 13 27  2  0  0  0  0
 14 23  2  0  0  0  0
 14 24  1  0  0  0  0
 15 25  2  0  0  0  0
 15 31  1  0  0  0  0
 16 29  2  0  0  0  0
 16 30  1  0  0  0  0
 17 32  1  0  0  0  0
 18 32  1  0  0  0  0
 18 33  2  0  0  0  0
 18 34  1  0  0  0  0
 19 21  2  0  0  0  0
 19 39  1  0  0  0  0
 20 22  2  0  0  0  0
 20 40  1  0  0  0  0
 21 48  1  0  0  0  0
 22 41  1  0  0  0  0
 23 25  1  0  0  0  0
 23 51  1  0  0  0  0
 24 31  2  0  0  0  0
 24 58  1  0  0  0  0
 25 57  1  0  0  0  0
 26 80  1  0  0  0  0
 27 81  1  0  0  0  0
 28 30  2  0  0  0  0
 28 80  1  0  0  0  0
 29 82  1  0  0  0  0
 30 83  1  0  0  0  0
 31 84  1  0  0  0  0
 32 64  2  0  0  0  0
 33 65  1  0  0  0  0
 33 68  1  0  0  0  0
 34 69  1  0  0  0  0
 34 75  2  0  0  0  0
 35 49  1  0  0  0  0
 35 70  1  0  0  0  0
 35 76  2  0  0  0  0
 36 61  1  0  0  0  0
 36 66  1  0  0  0  0
 36 77  2  0  0  0  0
 37 62  1  0  0  0  0
 37 71  1  0  0  0  0
 37 78  2  0  0  0  0
 38 67  1  0  0  0  0
 38 72  1  0  0  0  0
 38 79  2  0  0  0  0
 39 42  1  0  0  0  0
 40 49  1  0  0  0  0
 41 66  1  0  0  0  0
 42 44  1  0  0  0  0
 43 45  1  0  0  0  0
 43 46  1  0  0  0  0
 44 48  1  0  0  0  0
 45 50  1  0  0  0  0
 46 67  1  0  0  0  0
 47 50  1  0  0  0  0
 47 67  1  0  0  0  0
 48 70  1  0  0  0  0
 49 66  1  0  0  0  0
 50 65  1  0  0  0  0
 52 62  1  0  0  0  0
 53 63  1  0  0  0  0
 54 63  1  0  0  0  0
 55 63  1  0  0  0  0
 56 73  1  0  0  0  0
 57 72  1  0  0  0  0
 58 74  1  0  0  0  0
 59 60  1  0  0  0  0
 59 74  1  0  0  0  0
 60 81  1  0  0  0  0
 61 63  1  0  0  0  0
 61 71  1  0  0  0  0
 62 73  1  0  0  0  0
 64 65  1  0  0  0  0
M  CHG  2  73   1  74   1
M  ISO  4  38 100  60 101  72 100  81 101
M  END
> <Batch ID>
0042

> <Smiles>
CNC(C)C(=O)NC(C(=O)N1Cc2cc([101O:1][101CH2:1]CNCc3cc(C)c(C[100NH:0][100C:0](=O)N4CCCC(n5nc(-c6ccc(Oc7ccc(F)cc7F)cc6)c(C(N)=O)c5N)C4)cc3Cl)ccc2CC1C(=O)NC1CCCc2ccccc21)C(C)(C)C

> <Shape>
0.213

> <Color>
0.192

> <Negative vol penalty>
0.000

$$$$

  -OEChem-04042322123D

 85 93  0     1  0  0  0  0  0999 V2000
  -32.6221  -26.7426   24.2723 C   0  0  0  0  0  0  0  0  0  0  0  0
  -31.8953  -26.1235   23.2604 C   0  0  0  0  0  0  0  0  0  0  0  0
  -23.8594   -9.9121   22.1038 C   0  0  0  0  0  0  0  0  0  0  0  0
  -22.2694  -10.3492   20.3380 C   0  0  0  0  0  0  0  0  0  0  0  0
  -31.9734  -27.1855   25.4242 C   0  0  0  0  0  0  0  0  0  0  0  0
  -30.5193  -25.9460   23.4004 C   0  0  0  0  0  0  0  0  0  0  0  0
  -27.9663  -27.1597   19.1988 C   0  0  0  0  0  0  0  0  0  0  0  0
  -24.0560  -21.9020   21.0156 C   0  0  0  0  0  0  0  0  0  0  0  0
  -23.4494   -8.5795   22.1432 C   0  0  0  0  0  0  0  0  0  0  0  0
  -21.8595   -9.0165   20.3773 C   0  0  0  0  0  0  0  0  0  0  0  0
  -27.9731  -26.2309   18.1590 C   0  0  0  0  0  0  0  0  0  0  0  0
  -20.8699   -6.8040   23.4153 C   0  0  0  0  0  0  0  0  0  0  0  0
  -20.6480   -6.2317   24.6678 C   0  0  0  0  0  0  0  0  0  0  0  0
  -25.2661  -22.5098   21.3500 C   0  0  0  0  0  0  0  0  0  0  0  0
  -25.7821  -25.4752   18.8279 C   0  0  0  0  0  0  0  0  0  0  0  0
  -22.3457   -4.5744   24.2113 C   0  0  0  0  0  0  0  0  0  0  0  0
  -23.2693  -10.7970   21.2013 C   0  0  0  0  0  0  0  0  0  0  0  0
  -24.7195  -12.7248   20.3715 C   0  0  0  0  0  0  0  0  0  0  0  0
  -30.5872  -27.0220   25.5742 C   0  0  0  0  0  0  0  0  0  0  0  0
  -26.8701  -27.2458   20.0690 C   0  0  0  0  0  0  0  0  0  0  0  0
  -29.8516  -26.3859   24.5560 C   0  0  0  0  0  0  0  0  0  0  0  0
  -25.7628  -26.4076   19.8763 C   0  0  0  0  0  0  0  0  0  0  0  0
  -24.0347  -20.8434   20.1075 C   0  0  0  0  0  0  0  0  0  0  0  0
  -26.4337  -21.0004   19.8683 C   0  0  0  0  0  0  0  0  0  0  0  0
  -22.4495   -8.1316   21.2799 C   0  0  0  0  0  0  0  0  0  0  0  0
  -26.8821  -25.3865   17.9751 C   0  0  0  0  0  0  0  0  0  0  0  0
  -21.8297   -6.2614   22.5607 C   0  0  0  0  0  0  0  0  0  0  0  0
  -21.3859   -5.1169   25.0658 C   0  0  0  0  0  0  0  0  0  0  0  0
  -22.5676   -5.1467   22.9587 C   0  0  0  0  0  0  0  0  0  0  0  0
  -26.4549  -22.0590   20.7764 C   0  0  0  0  0  0  0  0  0  0  0  0
  -25.2236  -20.3926   19.5339 C   0  0  0  0  0  0  0  0  0  0  0  0
  -23.6920  -12.1739   21.1605 C   0  0  0  0  0  0  0  0  0  0  0  0
  -24.7240  -14.0592   20.6965 C   0  0  0  0  0  0  0  0  0  0  0  0
  -25.5917  -12.0872   19.4289 C   0  0  0  0  0  0  0  0  0  0  0  0
  -26.4462  -26.8248   23.1910 C   0  0  0  0  0  0  0  0  0  0  0  0
  -23.4591  -27.9069   22.5360 C   0  0  0  0  0  0  0  0  0  0  0  0
  -20.9756  -28.3444   20.2365 C   0  0  0  0  0  0  0  0  0  0  0  0
  -22.0127  -18.8307   21.7101 C   0  0  0  0  0  0  0  0  0  0  0  0
  -29.9376  -27.4745   26.8578 C   0  0  0  0  0  0  0  0  0  0  0  0
  -26.8669  -28.2713   21.1695 C   0  0  0  0  0  0  0  0  0  0  0  0
  -24.5527  -26.4740   20.7707 C   0  0  0  0  0  0  0  0  0  0  0  0
  -28.4178  -27.5848   26.7655 C   0  0  0  0  0  0  0  0  0  0  0  0
  -22.3733  -16.5491   24.4195 C   0  0  0  0  0  0  0  0  0  0  0  0
  -27.8325  -26.3462   26.0947 C   0  0  0  0  0  0  0  0  0  0  0  0
  -22.8270  -15.2520   23.7475 C   0  0  0  0  0  0  0  0  0  0  0  0
  -21.3691  -17.3103   23.5569 C   0  0  0  0  0  0  0  0  0  0  0  0
  -22.2705  -16.2834   21.5058 C   0  0  0  0  0  0  0  0  0  0  0  0
  -28.3537  -26.1973   24.6602 C   0  0  1  0  0  0  0  0  0  0  0  0
  -25.9164  -27.9207   22.3101 C   0  0  1  0  0  0  0  0  0  0  0  0
  -23.3262  -15.5085   22.3129 C   0  0  2  0  0  0  0  0  0  0  0  0
  -18.6361  -29.2227   20.0068 C   0  0  0  0  0  0  0  0  0  0  0  0
  -22.3861  -25.3999   23.9048 C   0  0  0  0  0  0  0  0  0  0  0  0
  -20.1699  -25.8454   22.8287 C   0  0  0  0  0  0  0  0  0  0  0  0
  -21.1294  -27.4963   24.4339 C   0  0  0  0  0  0  0  0  0  0  0  0
  -21.8123  -30.3878   18.2658 C   0  0  0  0  0  0  0  0  0  0  0  0
  -22.7145  -20.2234   19.7796 C   0  0  0  0  0  0  0  0  0  0  0  0
  -27.7153  -20.5192   19.2543 C   0  0  0  0  0  0  0  0  0  0  0  0
  -27.9580  -22.5513   16.0181 C   0  0  0  0  0  0  0  0  0  0  0  0
  -27.3489  -21.5901   17.0277 C   0  0  0  0  0  0  0  0  0  0  0  0
  -28.1539  -23.9631   16.5566 C   0  0  0  0  0  0  0  0  0  1  0  0
  -22.1535  -27.2644   22.1340 C   0  0  1  0  0  0  0  0  0  0  0  0
  -20.1173  -29.5498   19.8979 C   0  0  2  0  0  0  0  0  0  0  0  0
  -21.4832  -26.4987   23.3095 C   0  0  0  0  0  0  0  0  0  0  0  0
  -23.0878  -13.0840   21.9291 N   0  0  0  0  0  0  0  0  0  0  0  0
  -23.7377  -14.2202   21.6245 N   0  0  0  0  0  0  0  0  0  0  0  0
  -24.5999  -27.4888   21.8362 N   0  0  0  0  0  0  0  0  0  0  0  0
  -21.9042  -17.5224   22.2098 N   0  0  0  0  0  0  0  0  0  0  0  0
  -25.4756  -15.0989   20.2761 N   0  0  0  0  0  0  0  0  0  0  0  0
  -25.4516  -10.7092   19.2151 N   0  0  0  0  0  0  0  0  0  0  0  0
  -27.6652  -27.1120   23.7748 N   0  0  0  0  0  0  0  0  0  0  0  0
  -21.3318  -28.3289   21.5685 N   0  0  0  0  0  0  0  0  0  0  0  0
  -22.5356  -18.9433   20.4277 N   0  0  0  0  0  0  0  0  0  0  0  0
  -20.3960  -30.0103   18.5082 N   0  3  0  0  0  0  0  0  0  0  0  0
  -28.2382  -21.4347   18.2026 N   0  3  0  0  0  0  0  0  0  0  0  0
  -26.4802  -12.7177   18.8073 O   0  0  0  0  0  0  0  0  0  0  0  0
  -25.7963  -25.7955   23.3319 O   0  0  0  0  0  0  0  0  0  0  0  0
  -23.4655  -28.7539   23.4328 O   0  0  0  0  0  0  0  0  0  0  0  0
  -21.2949  -27.4989   19.4036 O   0  0  0  0  0  0  0  0  0  0  0  0
  -21.6740  -19.8251   22.3608 O   0  0  0  0  0  0  0  0  0  0  0  0
  -22.0494   -6.8312   21.3178 O   0  0  0  0  0  0  0  0  0  0  0  0
  -26.8864  -24.4787   16.9614 O   0  0  0  0  0  0  0  0  0  1  0  0
  -21.1738   -4.5684   26.2693 F   0  0  0  0  0  0  0  0  0  0  0  0
  -23.4918   -4.6218   22.1426 F   0  0  0  0  0  0  0  0  0  0  0  0
  -27.9298  -22.8408   21.2193 Cl  0  0  0  0  0  0  0  0  0  0  0  0
  -25.1902  -19.0772   18.4065 Cl  0  0  0  0  0  0  0  0  0  0  0  0
  1  2  1  0  0  0  0
  1  5  2  0  0  0  0
  2  6  2  0  0  0  0
  3  9  2  0  0  0  0
  3 17  1  0  0  0  0
  4 10  1  0  0  0  0
  4 17  2  0  0  0  0
  5 19  1  0  0  0  0
  6 21  1  0  0  0  0
  7 11  2  0  0  0  0
  7 20  1  0  0  0  0
  8 14  1  0  0  0  0
  8 23  2  0  0  0  0
  9 25  1  0  0  0  0
 10 25  2  0  0  0  0
 11 26  1  0  0  0  0
 12 13  2  0  0  0  0
 12 27  1  0  0  0  0
 13 28  1  0  0  0  0
 14 30  2  0  0  0  0
 15 22  1  0  0  0  0
 15 26  2  0  0  0  0
 16 28  2  0  0  0  0
 16 29  1  0  0  0  0
 17 32  1  0  0  0  0
 18 32  1  0  0  0  0
 18 33  2  0  0  0  0
 18 34  1  0  0  0  0
 19 21  2  0  0  0  0
 19 39  1  0  0  0  0
 20 22  2  0  0  0  0
 20 40  1  0  0  0  0
 21 48  1  0  0  0  0
 22 41  1  0  0  0  0
 23 31  1  0  0  0  0
 23 56  1  0  0  0  0
 24 30  1  0  0  0  0
 24 31  2  0  0  0  0
 24 57  1  0  0  0  0
 25 80  1  0  0  0  0
 26 81  1  0  0  0  0
 27 29  2  0  0  0  0
 27 80  1  0  0  0  0
 28 82  1  0  0  0  0
 29 83  1  0  0  0  0
 30 84  1  0  0  0  0
 31 85  1  0  0  0  0
 32 64  2  0  0  0  0
 33 65  1  0  0  0  0
 33 68  1  0  0  0  0
 34 69  1  0  0  0  0
 34 75  2  0  0  0  0
 35 49  1  0  0  0  0
 35 70  1  0  0  0  0
 35 76  2  0  0  0  0
 36 61  1  0  0  0  0
 36 66  1  0  0  0  0
 36 77  2  0  0  0  0
 37 62  1  0  0  0  0
 37 71  1  0  0  0  0
 37 78  2  0  0  0  0
 38 67  1  0  0  0  0
 38 72  1  0  0  0  0
 38 79  2  0  0  0  0
 39 42  1  0  0  0  0
 40 49  1  0  0  0  0
 41 66  1  0  0  0  0
 42 44  1  0  0  0  0
 43 45  1  0  0  0  0
 43 46  1  0  0  0  0
 44 48  1  0  0  0  0
 45 50  1  0  0  0  0
 46 67  1  0  0  0  0
 47 50  1  0  0  0  0
 47 67  1  0  0  0  0
 48 70  1  0  0  0  0
 49 66  1  0  0  0  0
 50 65  1  0  0  0  0
 51 62  1  0  0  0  0
 52 63  1  0  0  0  0
 53 63  1  0  0  0  0
 54 63  1  0  0  0  0
 55 73  1  0  0  0  0
 56 72  1  0  0  0  0
 57 74  1  0  0  0  0
 58 59  1  0  0  0  0
 58 60  1  0  0  0  0
 59 74  1  0  0  0  0
 60 81  1  0  0  0  0
 61 63  1  0  0  0  0
 61 71  1  0  0  0  0
 62 73  1  0  0  0  0
 64 65  1  0  0  0  0
M  CHG  2  73   1  74   1
M  ISO  4  38 100  60 101  72 100  81 101
M  END
> <Batch ID>
0042

> <Smiles>
CNC(C)C(=O)NC(C(=O)N1Cc2cc([101O:1][101CH2:1]CCNCc3c(Cl)ccc(C[100NH:0][100C:0](=O)N4CCCC(n5nc(-c6ccc(Oc7ccc(F)cc7F)cc6)c(C(N)=O)c5N)C4)c3Cl)ccc2CC1C(=O)NC1CCCc2ccccc21)C(C)(C)C

> <Shape>
0.185

> <Color>
0.117

> <Negative vol penalty>
0.000

$$$$

  -OEChem-04042322123D

 88 97  0     1  0  0  0  0  0999 V2000
  -31.7392   -8.2542   22.1703 C   0  0  0  0  0  0  0  0  0  0  0  0
  -31.5459   -9.3543   21.3409 C   0  0  0  0  0  0  0  0  0  0  0  0
  -23.4496  -29.9161   23.3035 C   0  0  0  0  0  0  0  0  0  0  0  0
  -23.6588  -30.6572   21.0135 C   0  0  0  0  0  0  0  0  0  0  0  0
  -30.6413   -7.6104   22.7396 C   0  0  0  0  0  0  0  0  0  0  0  0
  -30.2544   -9.8106   21.0796 C   0  0  0  0  0  0  0  0  0  0  0  0
  -29.8734  -14.8504   21.3960 C   0  0  0  0  0  0  0  0  0  0  0  0
  -22.0631  -29.8650   23.1604 C   0  0  0  0  0  0  0  0  0  0  0  0
  -22.2722  -30.6061   20.8703 C   0  0  0  0  0  0  0  0  0  0  0  0
  -30.3469  -15.5938   20.3157 C   0  0  0  0  0  0  0  0  0  0  0  0
  -19.7741  -27.7788   21.8034 C   0  0  0  0  0  0  0  0  0  0  0  0
  -19.1122  -26.6556   22.2992 C   0  0  0  0  0  0  0  0  0  0  0  0
  -28.0885  -15.8442   19.5058 C   0  0  0  0  0  0  0  0  0  0  0  0
  -29.5411  -22.8372   19.9696 C   0  0  0  0  0  0  0  0  0  0  0  0
  -27.1854  -21.6776   20.9124 C   0  0  0  0  0  0  0  0  0  0  0  0
  -17.8296  -28.0665   23.7831 C   0  0  0  0  0  0  0  0  0  0  0  0
  -24.2475  -30.3122   22.2301 C   0  0  0  0  0  0  0  0  0  0  0  0
  -26.4118  -31.1496   23.2894 C   0  0  0  0  0  0  0  0  0  0  0  0
  -29.3363   -8.0650   22.4928 C   0  0  0  0  0  0  0  0  0  0  0  0
  -28.5027  -14.5886   21.5336 C   0  0  0  0  0  0  0  0  0  0  0  0
  -29.1380   -9.1715   21.6451 C   0  0  0  0  0  0  0  0  0  0  0  0
  -27.5999  -15.0994   20.5901 C   0  0  0  0  0  0  0  0  0  0  0  0
  -29.3758  -21.4532   19.9180 C   0  0  0  0  0  0  0  0  0  0  0  0
  -28.1980  -20.8734   20.3894 C   0  0  0  0  0  0  0  0  0  0  0  0
  -28.5285  -23.6415   20.4927 C   0  0  0  0  0  0  0  0  0  0  0  0
  -21.4744  -30.2100   21.9438 C   0  0  0  0  0  0  0  0  0  0  0  0
  -29.4547  -16.0884   19.3689 C   0  0  0  0  0  0  0  0  0  0  0  0
  -19.4639  -29.0458   22.2975 C   0  0  0  0  0  0  0  0  0  0  0  0
  -18.1399  -26.7994   23.2890 C   0  0  0  0  0  0  0  0  0  0  0  0
  -18.4917  -29.1897   23.2873 C   0  0  0  0  0  0  0  0  0  0  0  0
  -27.3507  -23.0617   20.9640 C   0  0  0  0  0  0  0  0  0  0  0  0
  -25.6798  -30.3657   22.3775 C   0  0  0  0  0  0  0  0  0  0  0  0
  -27.7250  -30.8416   23.0300 C   0  0  0  0  0  0  0  0  0  0  0  0
  -25.9464  -32.0734   24.2822 C   0  0  0  0  0  0  0  0  0  0  0  0
  -26.7152  -11.9607   21.5874 C   0  0  0  0  0  0  0  0  0  0  0  0
  -24.3467  -14.0561   22.3097 C   0  0  0  0  0  0  0  0  0  0  0  0
  -23.1683  -17.2561   22.1736 C   0  0  0  0  0  0  0  0  0  0  0  0
  -29.8511  -25.7580   20.1039 C   0  0  0  0  0  0  0  0  0  0  0  0
  -28.1782   -7.3077   23.0928 C   0  0  0  0  0  0  0  0  0  0  0  0
  -28.0051  -13.8078   22.7190 C   0  0  0  0  0  0  0  0  0  0  0  0
  -26.1166  -14.8635   20.7031 C   0  0  0  0  0  0  0  0  0  0  0  0
  -26.8637   -8.0834   23.0659 C   0  0  0  0  0  0  0  0  0  0  0  0
  -31.4753  -21.0538   15.6853 C   0  0  0  0  0  0  0  0  0  0  0  0
  -32.6076  -20.7044   16.6420 C   0  0  0  0  0  0  0  0  0  0  0  0
  -30.3426  -29.3191   19.2460 C   0  0  0  0  0  0  0  0  0  0  0  0
  -30.2520  -21.6320   16.3927 C   0  0  0  0  0  0  0  0  0  0  0  0
  -26.6418   -8.7103   21.6931 C   0  0  0  0  0  0  0  0  0  0  0  0
  -29.4486  -30.1123   20.2004 C   0  0  0  0  0  0  0  0  0  0  0  0
  -32.4639  -19.3956   17.4186 C   0  0  0  0  0  0  0  0  0  0  0  0
  -30.8491  -28.0178   19.8528 C   0  0  0  0  0  0  0  0  0  0  0  0
  -28.5833  -27.8249   20.9016 C   0  0  0  0  0  0  0  0  0  0  0  0
  -29.3597  -20.6176   17.0899 C   0  0  0  0  0  0  0  0  0  0  0  0
  -27.7538   -9.7114   21.3575 C   0  0  1  0  0  0  0  0  0  0  0  0
  -26.6417  -13.1657   22.4819 C   0  0  1  0  0  0  0  0  0  0  0  0
  -28.8919  -29.2608   21.3537 C   0  0  2  0  0  0  0  0  0  0  0  0
  -31.0627  -18.8108   17.6070 C   0  0  1  0  0  0  0  0  0  0  0  0
  -27.9988  -19.3938   20.3447 C   0  0  0  0  0  0  0  0  0  0  0  0
  -21.1855  -18.6541   22.8151 C   0  0  0  0  0  0  0  0  0  0  0  0
  -22.7674  -12.8817   19.9781 C   0  0  0  0  0  0  0  0  0  0  0  0
  -21.2756  -14.8904   20.0677 C   0  0  0  0  0  0  0  0  0  0  0  0
  -21.4106  -13.3510   22.0259 C   0  0  0  0  0  0  0  0  0  0  0  0
  -24.8074  -18.9807   23.9336 C   0  0  0  0  0  0  0  0  0  0  0  0
  -30.4804  -20.6086   19.3544 C   0  0  0  0  0  0  0  0  0  0  0  0
  -31.0997  -17.5811   18.5192 C   0  0  0  0  0  0  0  0  0  1  0  0
  -23.3617  -14.8737   21.5094 C   0  0  1  0  0  0  0  0  0  0  0  0
  -22.5571  -18.1505   23.2370 C   0  0  2  0  0  0  0  0  0  0  0  0
  -22.2319  -14.0022   20.8918 C   0  0  0  0  0  0  0  0  0  0  0  0
  -26.4629  -29.6163   21.5971 N   0  0  0  0  0  0  0  0  0  0  0  0
  -27.7006  -29.9279   22.0178 N   0  0  0  0  0  0  0  0  0  0  0  0
  -25.6798  -14.0889   21.8765 N   0  0  0  0  0  0  0  0  0  0  0  0
  -29.7419  -27.1587   20.2824 N   0  0  0  0  0  0  0  0  0  0  0  0
  -28.8865  -31.2660   23.5713 N   0  0  0  0  0  0  0  0  0  0  0  0
  -25.7805  -33.4169   23.9191 N   0  0  0  0  0  0  0  0  0  0  0  0
  -28.7300  -25.0436   20.5338 N   0  0  0  0  0  0  0  0  0  0  0  0
  -27.5403  -10.9583   22.0605 N   0  0  0  0  0  0  0  0  0  0  0  0
  -22.8853  -15.9258   22.4007 N   0  0  0  0  0  0  0  0  0  0  0  0
  -30.0550  -19.8054   18.1539 N   0  3  1  0  0  0  0  0  0  0  0  0
  -23.4335  -19.3292   23.4888 N   0  3  0  0  0  0  0  0  0  0  0  0
  -25.7011  -31.7212   25.4609 O   0  0  0  0  0  0  0  0  0  0  0  0
  -26.0699  -11.9412   20.5458 O   0  0  0  0  0  0  0  0  0  0  0  0
  -23.9493  -13.4178   23.2876 O   0  0  0  0  0  0  0  0  0  0  0  0
  -23.8275  -17.6940   21.2333 O   0  0  0  0  0  0  0  0  0  0  0  0
  -30.8517  -25.2459   19.5974 O   0  0  0  0  0  0  0  0  0  0  0  0
  -20.1214  -30.1601   21.8036 O   0  0  0  0  0  0  0  0  0  0  0  0
  -29.9143  -16.8137   18.3132 O   0  0  0  0  0  0  0  0  0  1  0  0
  -17.5032  -25.7209   23.7640 F   0  0  0  0  0  0  0  0  0  0  0  0
  -18.1885  -30.4045   23.7649 F   0  0  0  0  0  0  0  0  0  0  0  0
  -26.0713  -24.0206   21.6191 Cl  0  0  0  0  0  0  0  0  0  0  0  0
  1  2  1  0  0  0  0
  1  5  2  0  0  0  0
  2  6  2  0  0  0  0
  3  8  2  0  0  0  0
  3 17  1  0  0  0  0
  4  9  1  0  0  0  0
  4 17  2  0  0  0  0
  5 19  1  0  0  0  0
  6 21  1  0  0  0  0
  7 10  2  0  0  0  0
  7 20  1  0  0  0  0
  8 26  1  0  0  0  0
  9 26  2  0  0  0  0
 10 27  1  0  0  0  0
 11 12  2  0  0  0  0
 11 28  1  0  0  0  0
 12 29  1  0  0  0  0
 13 22  1  0  0  0  0
 13 27  2  0  0  0  0
 14 23  1  0  0  0  0
 14 25  2  0  0  0  0
 15 24  1  0  0  0  0
 15 31  2  0  0  0  0
 16 29  2  0  0  0  0
 16 30  1  0  0  0  0
 17 32  1  0  0  0  0
 18 32  1  0  0  0  0
 18 33  2  0  0  0  0
 18 34  1  0  0  0  0
 19 21  2  0  0  0  0
 19 39  1  0  0  0  0
 20 22  2  0  0  0  0
 20 40  1  0  0  0  0
 21 53  1  0  0  0  0
 22 41  1  0  0  0  0
 23 24  2  0  0  0  0
 23 63  1  0  0  0  0
 24 57  1  0  0  0  0
 25 31  1  0  0  0  0
 25 74  1  0  0  0  0
 26 84  1  0  0  0  0
 27 85  1  0  0  0  0
 28 30  2  0  0  0  0
 28 84  1  0  0  0  0
 29 86  1  0  0  0  0
 30 87  1  0  0  0  0
 31 88  1  0  0  0  0
 32 68  2  0  0  0  0
 33 69  1  0  0  0  0
 33 72  1  0  0  0  0
 34 73  1  0  0  0  0
 34 79  2  0  0  0  0
 35 54  1  0  0  0  0
 35 75  1  0  0  0  0
 35 80  2  0  0  0  0
 36 65  1  0  0  0  0
 36 70  1  0  0  0  0
 36 81  2  0  0  0  0
 37 66  1  0  0  0  0
 37 76  1  0  0  0  0
 37 82  2  0  0  0  0
 38 71  1  0  0  0  0
 38 74  1  0  0  0  0
 38 83  2  0  0  0  0
 39 42  1  0  0  0  0
 40 54  1  0  0  0  0
 41 70  1  0  0  0  0
 42 47  1  0  0  0  0
 43 44  1  0  0  0  0
 43 46  1  0  0  0  0
 44 49  1  0  0  0  0
 45 48  1  0  0  0  0
 45 50  1  0  0  0  0
 46 52  1  0  0  0  0
 47 53  1  0  0  0  0
 48 55  1  0  0  0  0
 49 56  1  0  0  0  0
 50 71  1  0  0  0  0
 51 55  1  0  0  0  0
 51 71  1  0  0  0  0
 52 77  1  0  0  0  0
 53 75  1  0  0  0  0
 54 70  1  0  0  0  0
 55 69  1  0  0  0  0
 56 64  1  0  0  0  0
 56 77  1  0  0  0  0
 58 66  1  0  0  0  0
 59 67  1  0  0  0  0
 60 67  1  0  0  0  0
 61 67  1  0  0  0  0
 62 78  1  0  0  0  0
 63 77  1  0  0  0  0
 64 85  1  0  0  0  0
 65 67  1  0  0  0  0
 65 76  1  0  0  0  0
 66 78  1  0  0  0  0
 68 69  1  0  0  0  0
M  CHG  2  77   1  78   1
M  ISO  4  38 100  64 101  74 100  85 101
M  END
> <Batch ID>
0042

> <Smiles>
CNC(C)C(=O)NC(C(=O)N1Cc2cc([101O:1][101CH2:1]C3CCCCCN3Cc3cc([100NH:0][100C:0](=O)N4CCCC(n5nc(-c6ccc(Oc7ccc(F)cc7F)cc6)c(C(N)=O)c5N)C4)c(Cl)cc3C)ccc2CC1C(=O)NC1CCCc2ccccc21)C(C)(C)C

> <Shape>
0.277

> <Color>
0.061

> <Negative vol penalty>
0.000

$$$$

  -OEChem-04042322123D

 83 91  0     1  0  0  0  0  0999 V2000
  -24.7396  -37.0989   21.1146 C   0  0  0  0  0  0  0  0  0  0  0  0
  -25.4504  -36.0178   20.6032 C   0  0  0  0  0  0  0  0  0  0  0  0
  -24.4298   -9.3805   21.7114 C   0  0  0  0  0  0  0  0  0  0  0  0
  -22.5958  -10.4722   20.5794 C   0  0  0  0  0  0  0  0  0  0  0  0
  -24.1567  -37.0135   22.3783 C   0  0  0  0  0  0  0  0  0  0  0  0
  -25.5796  -34.8510   21.3558 C   0  0  0  0  0  0  0  0  0  0  0  0
  -25.7577  -29.1066   19.2402 C   0  0  0  0  0  0  0  0  0  0  0  0
  -23.7036   -8.1900   21.7400 C   0  0  0  0  0  0  0  0  0  0  0  0
  -21.8695   -9.2817   20.6079 C   0  0  0  0  0  0  0  0  0  0  0  0
  -26.8144  -28.2350   18.9804 C   0  0  0  0  0  0  0  0  0  0  0  0
  -21.1924   -6.8479   23.5612 C   0  0  0  0  0  0  0  0  0  0  0  0
  -21.1764   -6.1279   24.7557 C   0  0  0  0  0  0  0  0  0  0  0  0
  -26.5137  -27.2322   21.1537 C   0  0  0  0  0  0  0  0  0  0  0  0
  -27.0363  -20.4810   18.7946 C   0  0  0  0  0  0  0  0  0  0  0  0
  -26.8651  -20.3703   21.5769 C   0  0  0  0  0  0  0  0  0  0  0  0
  -22.1733   -4.2372   23.6294 C   0  0  0  0  0  0  0  0  0  0  0  0
  -23.8759  -10.5217   21.1311 C   0  0  0  0  0  0  0  0  0  0  0  0
  -25.5063  -12.1868   20.0935 C   0  0  0  0  0  0  0  0  0  0  0  0
  -24.2707  -35.8416   23.1427 C   0  0  0  0  0  0  0  0  0  0  0  0
  -25.0769  -29.0547   20.4651 C   0  0  0  0  0  0  0  0  0  0  0  0
  -24.9988  -34.7503   22.6314 C   0  0  0  0  0  0  0  0  0  0  0  0
  -25.4470  -28.1025   21.4255 C   0  0  0  0  0  0  0  0  0  0  0  0
  -26.1828  -19.5619   19.4048 C   0  0  0  0  0  0  0  0  0  0  0  0
  -27.8044  -21.3447   19.5756 C   0  0  0  0  0  0  0  0  0  0  0  0
  -26.0971  -19.5066   20.7959 C   0  0  0  0  0  0  0  0  0  0  0  0
  -22.4234   -8.1406   21.1882 C   0  0  0  0  0  0  0  0  0  0  0  0
  -27.1944  -27.2996   19.9383 C   0  0  0  0  0  0  0  0  0  0  0  0
  -21.6987   -6.2626   22.4007 C   0  0  0  0  0  0  0  0  0  0  0  0
  -21.6669   -4.8226   24.7899 C   0  0  0  0  0  0  0  0  0  0  0  0
  -22.1892   -4.9572   22.4349 C   0  0  0  0  0  0  0  0  0  0  0  0
  -27.7187  -21.2894   20.9667 C   0  0  0  0  0  0  0  0  0  0  0  0
  -24.6254  -11.7519   21.1018 C   0  0  0  0  0  0  0  0  0  0  0  0
  -25.9584  -13.4063   20.5351 C   0  0  0  0  0  0  0  0  0  0  0  0
  -25.8822  -11.5459   18.8673 C   0  0  0  0  0  0  0  0  0  0  0  0
  -24.6360  -31.0812   22.8739 C   0  0  0  0  0  0  0  0  0  0  0  0
  -22.6560  -28.7520   23.9586 C   0  0  0  0  0  0  0  0  0  0  0  0
  -21.7948  -25.4497   23.9596 C   0  0  0  0  0  0  0  0  0  0  0  0
  -25.0473  -18.4082   22.8053 C   0  0  0  0  0  0  0  0  0  0  0  0
  -23.6635  -35.8133   24.5230 C   0  0  0  0  0  0  0  0  0  0  0  0
  -23.9219  -29.9839   20.7193 C   0  0  0  0  0  0  0  0  0  0  0  0
  -24.7353  -27.9924   22.7483 C   0  0  0  0  0  0  0  0  0  0  0  0
  -23.5292  -34.4066   25.1006 C   0  0  0  0  0  0  0  0  0  0  0  0
  -25.4700  -15.6668   25.0377 C   0  0  0  0  0  0  0  0  0  0  0  0
  -24.8209  -33.6209   24.8982 C   0  0  0  0  0  0  0  0  0  0  0  0
  -25.3604  -14.4397   24.1298 C   0  0  0  0  0  0  0  0  0  0  0  0
  -24.5164  -16.7792   24.6052 C   0  0  0  0  0  0  0  0  0  0  0  0
  -24.5119  -15.9465   22.2867 C   0  0  0  0  0  0  0  0  0  0  0  0
  -25.1401  -33.4587   23.4072 C   0  0  1  0  0  0  0  0  0  0  0  0
  -23.6328  -30.1856   22.2036 C   0  0  1  0  0  0  0  0  0  0  0  0
  -25.5000  -14.8239   22.6437 C   0  0  2  0  0  0  0  0  0  0  0  0
  -25.3733  -18.6474   18.5435 C   0  0  0  0  0  0  0  0  0  0  0  0
  -20.1567  -23.8414   24.9733 C   0  0  0  0  0  0  0  0  0  0  0  0
  -24.2113  -28.8254   26.5826 C   0  0  0  0  0  0  0  0  0  0  0  0
  -23.1878  -26.6175   27.1704 C   0  0  0  0  0  0  0  0  0  0  0  0
  -21.7329  -28.6174   26.8445 C   0  0  0  0  0  0  0  0  0  0  0  0
  -20.6925  -24.7226   21.3110 C   0  0  0  0  0  0  0  0  0  0  0  0
  -28.7107  -22.3179   18.8811 C   0  0  0  0  0  0  0  0  0  0  0  0
  -29.0964  -24.7095   18.2726 C   0  0  0  0  0  0  0  0  0  0  0  0
  -28.4466  -26.0781   18.3271 C   0  0  0  0  0  0  0  0  0  1  0  0
  -22.8181  -27.5333   24.8347 C   0  0  1  0  0  0  0  0  0  0  0  0
  -20.4530  -24.7586   23.7970 C   0  0  2  0  0  0  0  0  0  0  0  0
  -23.0024  -27.9015   26.3340 C   0  0  0  0  0  0  0  0  0  0  0  0
  -24.5227  -12.6241   22.1082 N   0  0  0  0  0  0  0  0  0  0  0  0
  -25.3450  -13.6192   21.7345 N   0  0  0  0  0  0  0  0  0  0  0  0
  -23.6164  -28.9273   22.9523 N   0  0  0  0  0  0  0  0  0  0  0  0
  -24.7086  -17.0929   23.1877 N   0  0  0  0  0  0  0  0  0  0  0  0
  -26.8170  -14.3064   20.0107 N   0  0  0  0  0  0  0  0  0  0  0  0
  -25.3237  -10.2957   18.5683 N   0  0  0  0  0  0  0  0  0  0  0  0
  -25.2367  -18.5794   21.4344 N   0  0  0  0  0  0  0  0  0  0  0  0
  -24.3138  -32.4240   22.8231 N   0  0  0  0  0  0  0  0  0  0  0  0
  -21.6648  -26.6812   24.5661 N   0  0  0  0  0  0  0  0  0  0  0  0
  -20.4382  -23.9430   22.5498 N   0  3  0  0  0  0  0  0  0  0  0  0
  -28.1927  -23.7126   18.9001 N   0  3  0  0  0  0  0  0  0  0  0  0
  -26.7021  -12.0589   18.0685 O   0  0  0  0  0  0  0  0  0  0  0  0
  -25.6280  -30.5902   23.3996 O   0  0  0  0  0  0  0  0  0  0  0  0
  -21.7079  -29.5163   24.1552 O   0  0  0  0  0  0  0  0  0  0  0  0
  -22.8528  -24.9458   23.5893 O   0  0  0  0  0  0  0  0  0  0  0  0
  -25.1876  -19.3096   23.6358 O   0  0  0  0  0  0  0  0  0  0  0  0
  -21.7146   -6.9790   21.2158 O   0  0  0  0  0  0  0  0  0  0  0  0
  -28.2260  -26.4481   19.6875 O   0  0  0  0  0  0  0  0  0  1  0  0
  -21.6530   -4.1318   25.9374 F   0  0  0  0  0  0  0  0  0  0  0  0
  -22.6780   -4.3900   21.3235 F   0  0  0  0  0  0  0  0  0  0  0  0
  -28.6539  -22.3420   21.9653 Cl  0  0  0  0  0  0  0  0  0  0  0  0
  1  2  1  0  0  0  0
  1  5  2  0  0  0  0
  2  6  2  0  0  0  0
  3  8  2  0  0  0  0
  3 17  1  0  0  0  0
  4  9  1  0  0  0  0
  4 17  2  0  0  0  0
  5 19  1  0  0  0  0
  6 21  1  0  0  0  0
  7 10  2  0  0  0  0
  7 20  1  0  0  0  0
  8 26  1  0  0  0  0
  9 26  2  0  0  0  0
 10 27  1  0  0  0  0
 11 12  2  0  0  0  0
 11 28  1  0  0  0  0
 12 29  1  0  0  0  0
 13 22  1  0  0  0  0
 13 27  2  0  0  0  0
 14 23  2  0  0  0  0
 14 24  1  0  0  0  0
 15 25  2  0  0  0  0
 15 31  1  0  0  0  0
 16 29  2  0  0  0  0
 16 30  1  0  0  0  0
 17 32  1  0  0  0  0
 18 32  1  0  0  0  0
 18 33  2  0  0  0  0
 18 34  1  0  0  0  0
 19 21  2  0  0  0  0
 19 39  1  0  0  0  0
 20 22  2  0  0  0  0
 20 40  1  0  0  0  0
 21 48  1  0  0  0  0
 22 41  1  0  0  0  0
 23 25  1  0  0  0  0
 23 51  1  0  0  0  0
 24 31  2  0  0  0  0
 24 57  1  0  0  0  0
 25 69  1  0  0  0  0
 26 79  1  0  0  0  0
 27 80  1  0  0  0  0
 28 30  2  0  0  0  0
 28 79  1  0  0  0  0
 29 81  1  0  0  0  0
 30 82  1  0  0  0  0
 31 83  1  0  0  0  0
 32 63  2  0  0  0  0
 33 64  1  0  0  0  0
 33 67  1  0  0  0  0
 34 68  1  0  0  0  0
 34 74  2  0  0  0  0
 35 49  1  0  0  0  0
 35 70  1  0  0  0  0
 35 75  2  0  0  0  0
 36 60  1  0  0  0  0
 36 65  1  0  0  0  0
 36 76  2  0  0  0  0
 37 61  1  0  0  0  0
 37 71  1  0  0  0  0
 37 77  2  0  0  0  0
 38 66  1  0  0  0  0
 38 69  1  0  0  0  0
 38 78  2  0  0  0  0
 39 42  1  0  0  0  0
 40 49  1  0  0  0  0
 41 65  1  0  0  0  0
 42 44  1  0  0  0  0
 43 45  1  0  0  0  0
 43 46  1  0  0  0  0
 44 48  1  0  0  0  0
 45 50  1  0  0  0  0
 46 66  1  0  0  0  0
 47 50  1  0  0  0  0
 47 66  1  0  0  0  0
 48 70  1  0  0  0  0
 49 65  1  0  0  0  0
 50 64  1  0  0  0  0
 52 61  1  0  0  0  0
 53 62  1  0  0  0  0
 54 62  1  0  0  0  0
 55 62  1  0  0  0  0
 56 72  1  0  0  0  0
 57 73  1  0  0  0  0
 58 59  1  0  0  0  0
 58 73  1  0  0  0  0
 59 80  1  0  0  0  0
 60 62  1  0  0  0  0
 60 71  1  0  0  0  0
 61 72  1  0  0  0  0
 63 64  1  0  0  0  0
M  CHG  2  72   1  73   1
M  ISO  4  38 100  59 101  69 100  80 101
M  END
> <Batch ID>
0042

> <Smiles>
CNC(C)C(=O)NC(C(=O)N1Cc2cc([101O:1][101CH2:1]CNCc3cc(C)c([100NH:0][100C:0](=O)N4CCCC(n5nc(-c6ccc(Oc7ccc(F)cc7F)cc6)c(C(N)=O)c5N)C4)cc3Cl)ccc2CC1C(=O)NC1CCCc2ccccc21)C(C)(C)C

> <Shape>
0.269

> <Color>
0.113

> <Negative vol penalty>
0.000

$$$$

  -OEChem-04042322123D

 84 92  0     1  0  0  0  0  0999 V2000
  -27.9734  -34.1550   24.6716 C   0  0  0  0  0  0  0  0  0  0  0  0
  -28.1332  -32.8357   24.2601 C   0  0  0  0  0  0  0  0  0  0  0  0
  -23.1912  -11.1242   22.1252 C   0  0  0  0  0  0  0  0  0  0  0  0
  -22.6796  -13.2591   21.1166 C   0  0  0  0  0  0  0  0  0  0  0  0
  -26.7110  -34.6228   25.0343 C   0  0  0  0  0  0  0  0  0  0  0  0
  -27.0308  -31.9831   24.2122 C   0  0  0  0  0  0  0  0  0  0  0  0
  -26.8864  -29.2313   19.9634 C   0  0  0  0  0  0  0  0  0  0  0  0
  -22.1415  -11.2987   23.0270 C   0  0  0  0  0  0  0  0  0  0  0  0
  -21.6298  -13.4336   22.0184 C   0  0  0  0  0  0  0  0  0  0  0  0
  -27.7345  -28.1271   19.8909 C   0  0  0  0  0  0  0  0  0  0  0  0
  -18.4531  -12.3398   22.3822 C   0  0  0  0  0  0  0  0  0  0  0  0
  -17.2362  -12.7978   21.8772 C   0  0  0  0  0  0  0  0  0  0  0  0
  -25.8880  -26.6797   20.4519 C   0  0  0  0  0  0  0  0  0  0  0  0
  -30.6936  -18.0501   19.5011 C   0  0  0  0  0  0  0  0  0  0  0  0
  -28.5392  -18.2136   18.4198 C   0  0  0  0  0  0  0  0  0  0  0  0
  -17.3690  -14.7353   23.3145 C   0  0  0  0  0  0  0  0  0  0  0  0
  -23.4603  -12.1045   21.1700 C   0  0  0  0  0  0  0  0  0  0  0  0
  -29.8224  -20.2118   18.8646 C   0  0  0  0  0  0  0  0  0  0  0  0
  -24.4854  -11.3128   18.9723 C   0  0  0  0  0  0  0  0  0  0  0  0
  -25.5910  -33.7782   24.9816 C   0  0  0  0  0  0  0  0  0  0  0  0
  -25.5329  -29.0689   20.2920 C   0  0  0  0  0  0  0  0  0  0  0  0
  -25.7525  -32.4397   24.5758 C   0  0  0  0  0  0  0  0  0  0  0  0
  -25.0243  -27.7832   20.5255 C   0  0  0  0  0  0  0  0  0  0  0  0
  -30.8309  -19.4367   19.4372 C   0  0  0  0  0  0  0  0  0  0  0  0
  -29.5478  -17.4385   18.9924 C   0  0  0  0  0  0  0  0  0  0  0  0
  -21.3608  -12.4534   22.9736 C   0  0  0  0  0  0  0  0  0  0  0  0
  -27.2360  -26.8514   20.1379 C   0  0  0  0  0  0  0  0  0  0  0  0
  -19.1279  -13.0795   23.3535 C   0  0  0  0  0  0  0  0  0  0  0  0
  -16.6942  -13.9956   22.3433 C   0  0  0  0  0  0  0  0  0  0  0  0
  -28.6765  -19.6002   18.3559 C   0  0  0  0  0  0  0  0  0  0  0  0
  -18.5858  -14.2772   23.8195 C   0  0  0  0  0  0  0  0  0  0  0  0
  -24.5448  -11.9251   20.2385 C   0  0  0  0  0  0  0  0  0  0  0  0
  -25.7693  -11.3941   18.4910 C   0  0  0  0  0  0  0  0  0  0  0  0
  -28.8978  -22.4901   19.4827 C   0  0  0  0  0  0  0  0  0  0  0  0
  -28.5243  -23.6909   19.0205 C   0  0  0  0  0  0  0  0  0  0  0  0
  -29.9473  -21.6938   18.7846 C   0  0  0  0  0  0  0  0  0  0  0  0
  -23.3695  -10.7234   18.2919 C   0  0  0  0  0  0  0  0  0  0  0  0
  -23.6646  -30.0665   22.6623 C   0  0  0  0  0  0  0  0  0  0  0  0
  -21.3278  -28.7008   20.8745 C   0  0  0  0  0  0  0  0  0  0  0  0
  -20.4642  -26.4118   18.4951 C   0  0  0  0  0  0  0  0  0  0  0  0
  -30.3136  -15.1146   19.5918 C   0  0  0  0  0  0  0  0  0  0  0  0
  -24.2547  -34.3159   25.4286 C   0  0  0  0  0  0  0  0  0  0  0  0
  -24.6253  -30.2673   20.3400 C   0  0  0  0  0  0  0  0  0  0  0  0
  -23.5745  -27.5530   20.8622 C   0  0  0  0  0  0  0  0  0  0  0  0
  -23.0738  -33.4528   24.9917 C   0  0  0  0  0  0  0  0  0  0  0  0
  -30.3196  -11.5746   19.9730 C   0  0  0  0  0  0  0  0  0  0  0  0
  -23.3553  -31.9805   25.2744 C   0  0  0  0  0  0  0  0  0  0  0  0
  -28.8342  -11.2064   19.9630 C   0  0  0  0  0  0  0  0  0  0  0  0
  -30.5705  -12.9002   20.6896 C   0  0  0  0  0  0  0  0  0  0  0  0
  -28.2798  -13.6609   20.1967 C   0  0  0  0  0  0  0  0  0  0  0  0
  -24.5767  -31.4912   24.4869 C   0  0  1  0  0  0  0  0  0  0  0  0
  -23.3777  -30.0385   21.1877 C   0  0  1  0  0  0  0  0  0  0  0  0
  -27.9698  -12.3654   19.4291 C   0  0  2  0  0  0  0  0  0  0  0  0
  -32.0683  -20.0656   19.9899 C   0  0  0  0  0  0  0  0  0  0  0  0
  -18.4733  -25.4999   17.2695 C   0  0  0  0  0  0  0  0  0  0  0  0
  -20.5311  -27.1128   23.3551 C   0  0  0  0  0  0  0  0  0  0  0  0
  -19.2228  -25.5807   21.8688 C   0  0  0  0  0  0  0  0  0  0  0  0
  -18.6095  -27.9940   22.0189 C   0  0  0  0  0  0  0  0  0  0  0  0
  -21.5398  -27.2680   15.8742 C   0  0  0  0  0  0  0  0  0  0  0  0
  -27.4767  -24.5308   19.6767 C   0  0  0  0  0  0  0  0  0  1  0  0
  -20.7141  -27.3242   20.7885 C   0  0  1  0  0  0  0  0  0  0  0  0
  -19.5954  -26.5263   17.2555 C   0  0  2  0  0  0  0  0  0  0  0  0
  -19.7972  -27.0071   22.0034 C   0  0  0  0  0  0  0  0  0  0  0  0
  -25.7695  -12.3629   20.5426 N   0  0  0  0  0  0  0  0  0  0  0  0
  -30.9638  -22.2167   18.1759 N   0  0  0  0  0  0  0  0  0  0  0  0
  -26.4916  -12.0252   19.4606 N   0  0  0  0  0  0  0  0  0  0  0  0
  -22.7284  -28.7571   20.9033 N   0  0  0  0  0  0  0  0  0  0  0  0
  -29.7204  -13.9521   20.1280 N   0  0  0  0  0  0  0  0  0  0  0  0
  -26.3395  -10.9865   17.3373 N   0  0  0  0  0  0  0  0  0  0  0  0
  -22.1215  -10.7248   18.9296 N   0  0  0  0  0  0  0  0  0  0  0  0
  -29.4078  -16.0300   19.0569 N   0  0  0  0  0  0  0  0  0  0  0  0
  -24.2234  -31.2505   23.1043 N   0  0  0  0  0  0  0  0  0  0  0  0
  -20.0388  -27.2583   19.4969 N   0  0  0  0  0  0  0  0  0  0  0  0
  -20.4131  -26.3119   16.0282 N   0  3  0  0  0  0  0  0  0  0  0  0
  -23.4794  -10.1961   17.1590 O   0  0  0  0  0  0  0  0  0  0  0  0
  -23.3975  -29.0871   23.3485 O   0  0  0  0  0  0  0  0  0  0  0  0
  -20.5916  -29.6901   20.9075 O   0  0  0  0  0  0  0  0  0  0  0  0
  -21.4220  -25.6452   18.5687 O   0  0  0  0  0  0  0  0  0  0  0  0
  -31.5370  -15.2732   19.5817 O   0  0  0  0  0  0  0  0  0  0  0  0
  -20.3363  -12.6238   23.8533 O   0  0  0  0  0  0  0  0  0  0  0  0
  -28.0618  -25.7720   20.0684 O   0  0  0  0  0  0  0  0  0  1  0  0
  -15.5264  -14.4361   21.8571 F   0  0  0  0  0  0  0  0  0  0  0  0
  -27.7003  -20.3341   17.8029 F   0  0  0  0  0  0  0  0  0  0  0  0
  -19.2301  -14.9928   24.7516 F   0  0  0  0  0  0  0  0  0  0  0  0
  1  2  1  0  0  0  0
  1  5  2  0  0  0  0
  2  6  2  0  0  0  0
  3  8  2  0  0  0  0
  3 17  1  0  0  0  0
  4  9  1  0  0  0  0
  4 17  2  0  0  0  0
  5 20  1  0  0  0  0
  6 22  1  0  0  0  0
  7 10  2  0  0  0  0
  7 21  1  0  0  0  0
  8 26  1  0  0  0  0
  9 26  2  0  0  0  0
 10 27  1  0  0  0  0
 11 12  2  0  0  0  0
 11 28  1  0  0  0  0
 12 29  1  0  0  0  0
 13 23  1  0  0  0  0
 13 27  2  0  0  0  0
 14 24  2  0  0  0  0
 14 25  1  0  0  0  0
 15 25  2  0  0  0  0
 15 30  1  0  0  0  0
 16 29  2  0  0  0  0
 16 31  1  0  0  0  0
 17 32  1  0  0  0  0
 18 24  1  0  0  0  0
 18 30  2  0  0  0  0
 18 36  1  0  0  0  0
 19 32  1  0  0  0  0
 19 33  2  0  0  0  0
 19 37  1  0  0  0  0
 20 22  2  0  0  0  0
 20 42  1  0  0  0  0
 21 23  2  0  0  0  0
 21 43  1  0  0  0  0
 22 51  1  0  0  0  0
 23 44  1  0  0  0  0
 24 54  1  0  0  0  0
 25 71  1  0  0  0  0
 26 80  1  0  0  0  0
 27 81  1  0  0  0  0
 28 31  2  0  0  0  0
 28 80  1  0  0  0  0
 29 82  1  0  0  0  0
 30 83  1  0  0  0  0
 31 84  1  0  0  0  0
 32 64  2  0  0  0  0
 33 66  1  0  0  0  0
 33 69  1  0  0  0  0
 34 35  2  0  0  0  0
 34 36  1  0  0  0  0
 35 60  1  0  0  0  0
 36 65  2  0  0  0  0
 37 70  1  0  0  0  0
 37 75  2  0  0  0  0
 38 52  1  0  0  0  0
 38 72  1  0  0  0  0
 38 76  2  0  0  0  0
 39 61  1  0  0  0  0
 39 67  1  0  0  0  0
 39 77  2  0  0  0  0
 40 62  1  0  0  0  0
 40 73  1  0  0  0  0
 40 78  2  0  0  0  0
 41 68  1  0  0  0  0
 41 71  1  0  0  0  0
 41 79  2  0  0  0  0
 42 45  1  0  0  0  0
 43 52  1  0  0  0  0
 44 67  1  0  0  0  0
 45 47  1  0  0  0  0
 46 48  1  0  0  0  0
 46 49  1  0  0  0  0
 47 51  1  0  0  0  0
 48 53  1  0  0  0  0
 49 68  1  0  0  0  0
 50 53  1  0  0  0  0
 50 68  1  0  0  0  0
 51 72  1  0  0  0  0
 52 67  1  0  0  0  0
 53 66  1  0  0  0  0
 55 62  1  0  0  0  0
 56 63  1  0  0  0  0
 57 63  1  0  0  0  0
 58 63  1  0  0  0  0
 59 74  1  0  0  0  0
 60 81  1  0  0  0  0
 61 63  1  0  0  0  0
 61 73  1  0  0  0  0
 62 74  1  0  0  0  0
 64 66  1  0  0  0  0
M  CHG  1  74   1
M  ISO  4  41 100  60 101  71 100  81 101
M  END
> <Batch ID>
0042

> <Smiles>
CNC(C)C(=O)NC(C(=O)N1Cc2cc([101O:1][101CH2:1]C=CC(=N)c3c(C)cc([100NH:0][100C:0](=O)N4CCCC(n5nc(-c6ccc(Oc7ccc(F)cc7F)cc6)c(C(N)=O)c5N)C4)cc3F)ccc2CC1C(=O)NC1CCCc2ccccc21)C(C)(C)C

> <Shape>
0.294

> <Color>
0.083

> <Negative vol penalty>
0.000

$$$$

  -OEChem-04042322123D

 90 99  0     1  0  0  0  0  0999 V2000
  -30.2521  -21.1070   29.5567 C   0  0  0  0  0  0  0  0  0  0  0  0
  -30.2477  -21.4912   28.2196 C   0  0  0  0  0  0  0  0  0  0  0  0
  -22.8299   -9.9555   20.1597 C   0  0  0  0  0  0  0  0  0  0  0  0
  -24.3357   -9.5313   22.0009 C   0  0  0  0  0  0  0  0  0  0  0  0
  -29.0583  -20.7494   30.1819 C   0  0  0  0  0  0  0  0  0  0  0  0
  -29.0496  -21.5170   27.5067 C   0  0  0  0  0  0  0  0  0  0  0  0
  -28.5447  -25.7063   24.7067 C   0  0  0  0  0  0  0  0  0  0  0  0
  -30.7610  -19.4895   20.5099 C   0  0  0  0  0  0  0  0  0  0  0  0
  -30.6827  -18.1004   20.6083 C   0  0  0  0  0  0  0  0  0  0  0  0
  -22.1574   -8.7650   20.4354 C   0  0  0  0  0  0  0  0  0  0  0  0
  -23.6631   -8.3408   22.2766 C   0  0  0  0  0  0  0  0  0  0  0  0
  -29.2518  -25.7589   23.5063 C   0  0  0  0  0  0  0  0  0  0  0  0
  -20.8048   -7.3946   23.8113 C   0  0  0  0  0  0  0  0  0  0  0  0
  -20.4988   -7.1185   25.1439 C   0  0  0  0  0  0  0  0  0  0  0  0
  -27.2467  -25.1604   22.3060 C   0  0  0  0  0  0  0  0  0  0  0  0
  -21.8118   -5.0938   25.0259 C   0  0  0  0  0  0  0  0  0  0  0  0
  -23.9191  -10.3387   20.9424 C   0  0  0  0  0  0  0  0  0  0  0  0
  -24.0772  -12.8692   20.6611 C   0  0  0  0  0  0  0  0  0  0  0  0
  -27.8436  -20.7800   29.4790 C   0  0  0  0  0  0  0  0  0  0  0  0
  -27.1836  -25.3691   24.7169 C   0  0  0  0  0  0  0  0  0  0  0  0
  -27.8387  -21.1581   28.1227 C   0  0  0  0  0  0  0  0  0  0  0  0
  -26.5240  -25.1067   23.5077 C   0  0  0  0  0  0  0  0  0  0  0  0
  -29.9090  -20.2917   21.2690 C   0  0  0  0  0  0  0  0  0  0  0  0
  -28.9785  -19.7047   22.1264 C   0  0  0  0  0  0  0  0  0  0  0  0
  -28.9001  -18.3156   22.2249 C   0  0  0  0  0  0  0  0  0  0  0  0
  -29.7522  -17.5134   21.4658 C   0  0  0  0  0  0  0  0  0  0  0  0
  -22.5739   -7.9577   21.4939 C   0  0  0  0  0  0  0  0  0  0  0  0
  -28.6035  -25.4831   22.3060 C   0  0  0  0  0  0  0  0  0  0  0  0
  -21.6142   -6.5202   23.0860 C   0  0  0  0  0  0  0  0  0  0  0  0
  -21.0023   -5.9682   25.7512 C   0  0  0  0  0  0  0  0  0  0  0  0
  -22.1178   -5.3699   23.6933 C   0  0  0  0  0  0  0  0  0  0  0  0
  -24.6146  -11.5680   20.6578 C   0  0  0  0  0  0  0  0  0  0  0  0
  -25.1361  -13.6789   20.3301 C   0  0  0  0  0  0  0  0  0  0  0  0
  -29.9512  -23.7098   19.6975 C   0  0  0  0  0  0  0  0  0  0  0  0
  -31.1646  -24.1392   19.3062 C   0  0  0  0  0  0  0  0  0  0  0  0
  -22.7404  -13.3068   20.9388 C   0  0  0  0  0  0  0  0  0  0  0  0
  -25.4656  -23.0132   25.9826 C   0  0  0  0  0  0  0  0  0  0  0  0
  -22.9687  -24.7629   24.8752 C   0  0  0  0  0  0  0  0  0  0  0  0
  -21.8181  -27.0902   22.6602 C   0  0  0  0  0  0  0  0  0  0  0  0
  -30.4727  -15.1775   20.8567 C   0  0  0  0  0  0  0  0  0  0  0  0
  -26.5854  -20.3393   30.1843 C   0  0  0  0  0  0  0  0  0  0  0  0
  -26.4287  -25.3429   26.0176 C   0  0  0  0  0  0  0  0  0  0  0  0
  -25.0591  -24.7597   23.4625 C   0  0  0  0  0  0  0  0  0  0  0  0
  -25.3057  -20.7534   29.4625 C   0  0  0  0  0  0  0  0  0  0  0  0
  -27.3280  -23.5347   17.6202 C   0  0  0  0  0  0  0  0  0  0  0  0
  -28.1520  -24.8212   17.5817 C   0  0  0  0  0  0  0  0  0  0  0  0
  -29.7490  -12.5245   18.5952 C   0  0  0  0  0  0  0  0  0  0  0  0
  -28.1432  -22.2438   17.7809 C   0  0  0  0  0  0  0  0  0  0  0  0
  -25.4079  -20.4408   27.9730 C   0  0  0  0  0  0  0  0  0  0  0  0
  -28.3480  -25.5248   18.9265 C   0  0  0  0  0  0  0  0  0  0  0  0
  -28.3045  -12.1462   18.9305 C   0  0  0  0  0  0  0  0  0  0  0  0
  -30.5392  -12.9089   19.8448 C   0  0  0  0  0  0  0  0  0  0  0  0
  -28.4728  -13.5677   21.0132 C   0  0  0  0  0  0  0  0  0  0  0  0
  -28.4154  -21.8177   19.2223 C   0  0  0  0  0  0  0  0  0  0  0  0
  -26.5557  -21.2225   27.3227 C   0  0  1  0  0  0  0  0  0  0  0  0
  -28.8453  -24.6594   20.0873 C   0  0  2  0  0  0  0  0  0  1  0  0
  -25.1679  -24.4858   25.9596 C   0  0  1  0  0  0  0  0  0  0  0  0
  -27.6191  -13.2354   19.7786 C   0  0  2  0  0  0  0  0  0  0  0  0
  -28.0661  -20.5677   22.9394 C   0  0  0  0  0  0  0  0  0  0  0  0
  -27.9008  -17.6878   23.1458 C   0  0  0  0  0  0  0  0  0  0  0  0
  -32.2768  -23.2317   18.9154 C   0  0  0  0  0  0  0  0  0  0  0  0
  -19.7233  -28.2887   21.9725 C   0  0  0  0  0  0  0  0  0  0  0  0
  -22.0007  -22.2463   23.4469 C   0  0  0  0  0  0  0  0  0  0  0  0
  -20.5064  -23.6951   22.0553 C   0  0  0  0  0  0  0  0  0  0  0  0
  -20.1920  -23.5934   24.5279 C   0  0  0  0  0  0  0  0  0  0  0  0
  -22.9730  -29.7327   23.3254 C   0  0  0  0  0  0  0  0  0  0  0  0
  -30.0143  -21.7831   21.1441 C   0  0  0  0  0  0  0  0  0  0  0  0
  -22.1917  -24.8176   23.5820 C   0  0  1  0  0  0  0  0  0  0  0  0
  -20.9618  -28.3286   22.8542 C   0  0  2  0  0  0  0  0  0  0  0  0
  -21.2508  -23.5927   23.4037 C   0  0  0  0  0  0  0  0  0  0  0  0
  -25.9139  -11.5476   20.3489 N   0  0  0  0  0  0  0  0  0  0  0  0
  -26.2018  -12.8459   20.1551 N   0  0  0  0  0  0  0  0  0  0  0  0
  -24.3659  -24.7407   24.7612 N   0  0  0  0  0  0  0  0  0  0  0  0
  -29.8314  -13.9481   20.5958 N   0  0  0  0  0  0  0  0  0  0  0  0
  -25.2502  -15.0150   20.1745 N   0  0  0  0  0  0  0  0  0  0  0  0
  -21.7755  -12.3431   21.2622 N   0  0  0  0  0  0  0  0  0  0  0  0
  -29.6901  -16.1003   21.5500 N   0  0  0  0  0  0  0  0  0  0  0  0
  -26.1670  -22.5984   27.0986 N   0  0  0  0  0  0  0  0  0  0  0  0
  -21.5052  -26.1048   23.5724 N   0  0  0  0  0  0  0  0  0  0  0  0
  -29.7581  -22.2787   19.7419 N   0  3  2  0  0  0  0  0  0  0  0  0
  -21.7396  -29.5543   22.5169 N   0  3  0  0  0  0  0  0  0  0  0  0
  -22.4074  -14.5150   20.8851 O   0  0  0  0  0  0  0  0  0  0  0  0
  -25.0857  -22.3055   25.0572 O   0  0  0  0  0  0  0  0  0  0  0  0
  -22.3585  -24.7479   25.9471 O   0  0  0  0  0  0  0  0  0  0  0  0
  -22.6761  -27.0042   21.7844 O   0  0  0  0  0  0  0  0  0  0  0  0
  -31.6212  -15.4057   20.4683 O   0  0  0  0  0  0  0  0  0  0  0  0
  -21.9178   -6.7961   21.7633 O   0  0  0  0  0  0  0  0  0  0  0  0
  -29.2944  -25.5333   21.1279 O   0  0  0  0  0  0  0  0  0  1  0  0
  -20.7097   -5.7040   27.0313 F   0  0  0  0  0  0  0  0  0  0  0  0
  -22.8969   -4.5268   23.0020 F   0  0  0  0  0  0  0  0  0  0  0  0
  1  2  1  0  0  0  0
  1  5  2  0  0  0  0
  2  6  2  0  0  0  0
  3 10  2  0  0  0  0
  3 17  1  0  0  0  0
  4 11  1  0  0  0  0
  4 17  2  0  0  0  0
  5 19  1  0  0  0  0
  6 21  1  0  0  0  0
  7 12  2  0  0  0  0
  7 20  1  0  0  0  0
  8  9  2  0  0  0  0
  8 23  1  0  0  0  0
  9 26  1  0  0  0  0
 10 27  1  0  0  0  0
 11 27  2  0  0  0  0
 12 28  1  0  0  0  0
 13 14  2  0  0  0  0
 13 29  1  0  0  0  0
 14 30  1  0  0  0  0
 15 22  1  0  0  0  0
 15 28  2  0  0  0  0
 16 30  2  0  0  0  0
 16 31  1  0  0  0  0
 17 32  1  0  0  0  0
 18 32  1  0  0  0  0
 18 33  2  0  0  0  0
 18 36  1  0  0  0  0
 19 21  2  0  0  0  0
 19 41  1  0  0  0  0
 20 22  2  0  0  0  0
 20 42  1  0  0  0  0
 21 55  1  0  0  0  0
 22 43  1  0  0  0  0
 23 24  2  0  0  0  0
 23 67  1  0  0  0  0
 24 25  1  0  0  0  0
 24 59  1  0  0  0  0
 25 26  2  0  0  0  0
 25 60  1  0  0  0  0
 26 77  1  0  0  0  0
 27 87  1  0  0  0  0
 28 88  1  0  0  0  0
 29 31  2  0  0  0  0
 29 87  1  0  0  0  0
 30 89  1  0  0  0  0
 31 90  1  0  0  0  0
 32 71  2  0  0  0  0
 33 72  1  0  0  0  0
 33 75  1  0  0  0  0
 34 35  2  0  0  0  0
 34 56  1  0  0  0  0
 34 80  1  0  0  0  0
 35 61  1  0  0  0  0
 36 76  1  0  0  0  0
 36 82  2  0  0  0  0
 37 57  1  0  0  0  0
 37 78  1  0  0  0  0
 37 83  2  0  0  0  0
 38 68  1  0  0  0  0
 38 73  1  0  0  0  0
 38 84  2  0  0  0  0
 39 69  1  0  0  0  0
 39 79  1  0  0  0  0
 39 85  2  0  0  0  0
 40 74  1  0  0  0  0
 40 77  1  0  0  0  0
 40 86  2  0  0  0  0
 41 44  1  0  0  0  0
 42 57  1  0  0  0  0
 43 73  1  0  0  0  0
 44 49  1  0  0  0  0
 45 46  1  0  0  0  0
 45 48  1  0  0  0  0
 46 50  1  0  0  0  0
 47 51  1  0  0  0  0
 47 52  1  0  0  0  0
 48 54  1  0  0  0  0
 49 55  1  0  0  0  0
 50 56  1  0  0  0  0
 51 58  1  0  0  0  0
 52 74  1  0  0  0  0
 53 58  1  0  0  0  0
 53 74  1  0  0  0  0
 54 80  1  0  0  0  0
 55 78  1  0  0  0  0
 56 88  1  0  0  0  0
 57 73  1  0  0  0  0
 58 72  1  0  0  0  0
 62 69  1  0  0  0  0
 63 70  1  0  0  0  0
 64 70  1  0  0  0  0
 65 70  1  0  0  0  0
 66 81  1  0  0  0  0
 67 80  1  0  0  0  0
 68 70  1  0  0  0  0
 68 79  1  0  0  0  0
 69 81  1  0  0  0  0
 71 72  1  0  0  0  0
M  CHG  2  80   1  81   1
M  ISO  4  40 100  56 101  77 100  88 101
M  END
> <Batch ID>
0042

> <Smiles>
CC=C1N(Cc2ccc([100NH:0][100C:0](=O)N3CCCC(n4nc(-c5ccc(Oc6ccc(F)cc6F)cc5)c(C(N)=O)c4N)C3)c(C)c2C)CCCCC[101CH:1]1[101O:1]c1ccc2c(c1)CN(C(=O)C(NC(=O)C(C)NC)C(C)(C)C)C(C(=O)NC1CCCc3ccccc31)C2

> <Shape>
0.277

> <Color>
0.194

> <Negative vol penalty>
0.000

$$$$

  -OEChem-04042322123D

 88 97  0     1  0  0  0  0  0999 V2000
  -23.2182   -6.7319   23.9580 C   0  0  0  0  0  0  0  0  0  0  0  0
  -24.5454   -7.1376   23.8605 C   0  0  0  0  0  0  0  0  0  0  0  0
  -24.0229  -29.5266   23.9872 C   0  0  0  0  0  0  0  0  0  0  0  0
  -22.9344  -30.5403   22.0834 C   0  0  0  0  0  0  0  0  0  0  0  0
  -22.2500   -7.3171   23.1432 C   0  0  0  0  0  0  0  0  0  0  0  0
  -24.9052   -8.1280   22.9472 C   0  0  0  0  0  0  0  0  0  0  0  0
  -28.5791  -14.9208   24.1248 C   0  0  0  0  0  0  0  0  0  0  0  0
  -22.7800  -29.1578   24.5016 C   0  0  0  0  0  0  0  0  0  0  0  0
  -21.6914  -30.1715   22.5977 C   0  0  0  0  0  0  0  0  0  0  0  0
  -29.0805  -16.2184   24.2300 C   0  0  0  0  0  0  0  0  0  0  0  0
  -19.7943  -27.3795   22.7614 C   0  0  0  0  0  0  0  0  0  0  0  0
  -18.8716  -26.8155   21.8804 C   0  0  0  0  0  0  0  0  0  0  0  0
  -27.8708  -16.8589   22.2364 C   0  0  0  0  0  0  0  0  0  0  0  0
  -31.5343  -25.2246   20.7333 C   0  0  0  0  0  0  0  0  0  0  0  0
  -30.6273  -23.6656   22.3407 C   0  0  0  0  0  0  0  0  0  0  0  0
  -17.3277  -28.6147   22.3457 C   0  0  0  0  0  0  0  0  0  0  0  0
  -24.1002  -30.2180   22.7781 C   0  0  0  0  0  0  0  0  0  0  0  0
  -26.3416  -31.4335   22.8542 C   0  0  0  0  0  0  0  0  0  0  0  0
  -22.5965   -8.3220   22.2263 C   0  0  0  0  0  0  0  0  0  0  0  0
  -27.7084  -14.5910   23.0825 C   0  0  0  0  0  0  0  0  0  0  0  0
  -23.9409   -8.7262   22.1184 C   0  0  0  0  0  0  0  0  0  0  0  0
  -27.3555  -15.5641   22.1331 C   0  0  0  0  0  0  0  0  0  0  0  0
  -30.4156  -25.0382   19.9212 C   0  0  0  0  0  0  0  0  0  0  0  0
  -29.4028  -24.1655   20.3189 C   0  0  0  0  0  0  0  0  0  0  0  0
  -29.5086  -23.4791   21.5286 C   0  0  0  0  0  0  0  0  0  0  0  0
  -21.6142  -29.4802   23.8068 C   0  0  0  0  0  0  0  0  0  0  0  0
  -28.7274  -17.1849   23.2880 C   0  0  0  0  0  0  0  0  0  0  0  0
  -19.4837  -28.5611   23.4346 C   0  0  0  0  0  0  0  0  0  0  0  0
  -17.6383  -27.4331   21.6726 C   0  0  0  0  0  0  0  0  0  0  0  0
  -18.2504  -29.1787   23.2267 C   0  0  0  0  0  0  0  0  0  0  0  0
  -31.6402  -24.5383   21.9430 C   0  0  0  0  0  0  0  0  0  0  0  0
  -25.3838  -30.5997   22.2466 C   0  0  0  0  0  0  0  0  0  0  0  0
  -27.3762  -31.4821   21.9521 C   0  0  0  0  0  0  0  0  0  0  0  0
  -27.7682  -22.7571   23.1467 C   0  0  0  0  0  0  0  0  0  0  0  0
  -27.6226  -23.9269   23.8023 C   0  0  0  0  0  0  0  0  0  0  0  0
  -26.2999  -32.1041   24.1208 C   0  0  0  0  0  0  0  0  0  0  0  0
  -25.6053  -11.9544   21.4389 C   0  0  0  0  0  0  0  0  0  0  0  0
  -23.9947  -14.5636   21.3481 C   0  0  0  0  0  0  0  0  0  0  0  0
  -22.3804  -17.5306   21.8261 C   0  0  0  0  0  0  0  0  0  0  0  0
  -29.1981  -27.7572   17.6328 C   0  0  0  0  0  0  0  0  0  0  0  0
  -21.5228   -8.8918   21.3334 C   0  0  0  0  0  0  0  0  0  0  0  0
  -27.1927  -13.1900   22.8950 C   0  0  0  0  0  0  0  0  0  0  0  0
  -26.4433  -15.1550   21.0090 C   0  0  0  0  0  0  0  0  0  0  0  0
  -27.0718  -21.5402   23.7313 C   0  0  0  0  0  0  0  0  0  0  0  0
  -21.9247  -10.1991   20.6554 C   0  0  0  0  0  0  0  0  0  0  0  0
  -28.0362  -20.4060   24.0818 C   0  0  0  0  0  0  0  0  0  0  0  0
  -28.2727  -31.1752   17.2624 C   0  0  0  0  0  0  0  0  0  0  0  0
  -23.3260  -10.0848   20.0637 C   0  0  0  0  0  0  0  0  0  0  0  0
  -27.5138  -31.4906   18.5526 C   0  0  0  0  0  0  0  0  0  0  0  0
  -29.1543  -20.2099   21.7681 C   0  0  0  0  0  0  0  0  0  0  0  0
  -28.0008  -29.7516   16.7814 C   0  0  0  0  0  0  0  0  0  0  0  0
  -28.3909  -21.3681   21.1277 C   0  0  0  0  0  0  0  0  0  0  0  0
  -27.4874  -29.0160   19.0768 C   0  0  0  0  0  0  0  0  0  0  0  0
  -24.3664   -9.8151   21.1574 C   0  0  1  0  0  0  0  0  0  0  0  0
  -25.7577  -13.1444   22.3401 C   0  0  1  0  0  0  0  0  0  0  0  0
  -27.7736  -30.4220   19.6315 C   0  0  2  0  0  0  0  0  0  0  0  0
  -28.3988  -19.5102   22.8975 C   0  0  1  0  0  0  0  0  0  1  0  0
  -28.2047  -23.9673   19.4443 C   0  0  0  0  0  0  0  0  0  0  0  0
  -20.2004  -18.6839   21.3626 C   0  0  0  0  0  0  0  0  0  0  0  0
  -24.8207  -14.9471   18.4370 C   0  0  0  0  0  0  0  0  0  0  0  0
  -23.1758  -16.8290   18.2922 C   0  0  0  0  0  0  0  0  0  0  0  0
  -22.3816  -14.5155   18.7815 C   0  0  0  0  0  0  0  0  0  0  0  0
  -21.8258  -17.8931   24.7106 C   0  0  0  0  0  0  0  0  0  0  0  0
  -30.3267  -25.7850   18.6308 C   0  0  0  0  0  0  0  0  0  0  0  0
  -23.6320  -15.7997   20.5645 C   0  0  1  0  0  0  0  0  0  0  0  0
  -20.9939  -17.8493   22.3558 C   0  0  2  0  0  0  0  0  0  0  0  0
  -23.5232  -15.5231   19.0384 C   0  0  0  0  0  0  0  0  0  0  0  0
  -25.7751  -30.1511   21.0509 N   0  0  0  0  0  0  0  0  0  0  0  0
  -26.9901  -30.7050   20.8999 N   0  0  0  0  0  0  0  0  0  0  0  0
  -28.4853  -22.5844   21.9521 N   0  0  0  0  0  0  0  0  0  0  0  0
  -25.3592  -14.3050   21.5258 N   0  0  0  0  0  0  0  0  0  0  0  0
  -28.2680  -28.7869   17.8509 N   0  0  0  0  0  0  0  0  0  0  0  0
  -28.5694  -32.1134   21.9643 N   0  0  0  0  0  0  0  0  0  0  0  0
  -25.7660  -33.3989   24.1740 N   0  0  0  0  0  0  0  0  0  0  0  0
  -24.6721  -11.0337   21.8758 N   0  0  0  0  0  0  0  0  0  0  0  0
  -22.4092  -16.3203   21.1661 N   0  0  0  0  0  0  0  0  0  0  0  0
  -29.3969  -26.8901   18.7002 N   0  0  0  0  0  0  0  0  0  0  0  0
  -21.0899  -18.6070   23.6355 N   0  3  0  0  0  0  0  0  0  0  0  0
  -26.7386  -31.5773   25.1713 O   0  0  0  0  0  0  0  0  0  0  0  0
  -26.2830  -11.8768   20.4209 O   0  0  0  0  0  0  0  0  0  0  0  0
  -23.0946  -13.8421   21.7870 O   0  0  0  0  0  0  0  0  0  0  0  0
  -23.3408  -18.2820   21.9790 O   0  0  0  0  0  0  0  0  0  0  0  0
  -29.8103  -27.6238   16.5677 O   0  0  0  0  0  0  0  0  0  0  0  0
  -20.4011  -29.1202   24.3083 O   0  0  0  0  0  0  0  0  0  0  0  0
  -29.2170  -18.4509   23.3992 O   0  0  0  0  0  0  0  0  0  1  0  0
  -16.7530  -26.8922   20.8254 F   0  0  0  0  0  0  0  0  0  0  0  0
  -17.9468  -30.3146   23.8696 F   0  0  0  0  0  0  0  0  0  0  0  0
  -33.0202  -24.7691   22.9451 Cl  0  0  0  0  0  0  0  0  0  0  0  0
  1  2  1  0  0  0  0
  1  5  2  0  0  0  0
  2  6  2  0  0  0  0
  3  8  2  0  0  0  0
  3 17  1  0  0  0  0
  4  9  1  0  0  0  0
  4 17  2  0  0  0  0
  5 19  1  0  0  0  0
  6 21  1  0  0  0  0
  7 10  2  0  0  0  0
  7 20  1  0  0  0  0
  8 26  1  0  0  0  0
  9 26  2  0  0  0  0
 10 27  1  0  0  0  0
 11 12  2  0  0  0  0
 11 28  1  0  0  0  0
 12 29  1  0  0  0  0
 13 22  1  0  0  0  0
 13 27  2  0  0  0  0
 14 23  2  0  0  0  0
 14 31  1  0  0  0  0
 15 25  1  0  0  0  0
 15 31  2  0  0  0  0
 16 29  2  0  0  0  0
 16 30  1  0  0  0  0
 17 32  1  0  0  0  0
 18 32  1  0  0  0  0
 18 33  2  0  0  0  0
 18 36  1  0  0  0  0
 19 21  2  0  0  0  0
 19 41  1  0  0  0  0
 20 22  2  0  0  0  0
 20 42  1  0  0  0  0
 21 54  1  0  0  0  0
 22 43  1  0  0  0  0
 23 24  1  0  0  0  0
 23 64  1  0  0  0  0
 24 25  2  0  0  0  0
 24 58  1  0  0  0  0
 25 70  1  0  0  0  0
 26 84  1  0  0  0  0
 27 85  1  0  0  0  0
 28 30  2  0  0  0  0
 28 84  1  0  0  0  0
 29 86  1  0  0  0  0
 30 87  1  0  0  0  0
 31 88  1  0  0  0  0
 32 68  2  0  0  0  0
 33 69  1  0  0  0  0
 33 73  1  0  0  0  0
 34 35  2  0  0  0  0
 34 44  1  0  0  0  0
 34 70  1  0  0  0  0
 36 74  1  0  0  0  0
 36 79  2  0  0  0  0
 37 55  1  0  0  0  0
 37 75  1  0  0  0  0
 37 80  2  0  0  0  0
 38 65  1  0  0  0  0
 38 71  1  0  0  0  0
 38 81  2  0  0  0  0
 39 66  1  0  0  0  0
 39 76  1  0  0  0  0
 39 82  2  0  0  0  0
 40 72  1  0  0  0  0
 40 77  1  0  0  0  0
 40 83  2  0  0  0  0
 41 45  1  0  0  0  0
 42 55  1  0  0  0  0
 43 71  1  0  0  0  0
 44 46  1  0  0  0  0
 45 48  1  0  0  0  0
 46 57  1  0  0  0  0
 47 49  1  0  0  0  0
 47 51  1  0  0  0  0
 48 54  1  0  0  0  0
 49 56  1  0  0  0  0
 50 52  1  0  0  0  0
 50 57  1  0  0  0  0
 51 72  1  0  0  0  0
 52 70  1  0  0  0  0
 53 56  1  0  0  0  0
 53 72  1  0  0  0  0
 54 75  1  0  0  0  0
 55 71  1  0  0  0  0
 56 69  1  0  0  0  0
 57 85  1  0  0  0  0
 59 66  1  0  0  0  0
 60 67  1  0  0  0  0
 61 67  1  0  0  0  0
 62 67  1  0  0  0  0
 63 78  1  0  0  0  0
 64 77  1  0  0  0  0
 65 67  1  0  0  0  0
 65 76  1  0  0  0  0
 66 78  1  0  0  0  0
 68 69  1  0  0  0  0
M  CHG  1  78   1
M  ISO  4  40 100  57 101  77 100  85 101
M  END
> <Batch ID>
0042

> <Smiles>
C=C1CC[101CH:1]([101O:1]c2ccc3c(c2)CN(C(=O)C(NC(=O)C(C)NC)C(C)(C)C)C(C(=O)NC2CCCc4ccccc42)C3)CCN1c1cc(Cl)cc(C[100NH:0][100C:0](=O)N2CCCC(n3nc(-c4ccc(Oc5ccc(F)cc5F)cc4)c(C(N)=O)c3N)C2)c1C

> <Shape>
0.264

> <Color>
0.061

> <Negative vol penalty>
0.000

$$$$

  -OEChem-04042322123D

 89 98  0     1  0  0  0  0  0999 V2000
  -28.2057  -34.6438   23.1317 C   0  0  0  0  0  0  0  0  0  0  0  0
  -28.3350  -33.2618   23.2250 C   0  0  0  0  0  0  0  0  0  0  0  0
  -23.8341   -9.3844   19.9434 C   0  0  0  0  0  0  0  0  0  0  0  0
  -23.0107  -10.0509   22.1148 C   0  0  0  0  0  0  0  0  0  0  0  0
  -26.9406  -35.2286   23.1699 C   0  0  0  0  0  0  0  0  0  0  0  0
  -27.1992  -32.4638   23.3576 C   0  0  0  0  0  0  0  0  0  0  0  0
  -27.3198  -28.3965   20.3430 C   0  0  0  0  0  0  0  0  0  0  0  0
  -23.1425   -8.1779   20.0515 C   0  0  0  0  0  0  0  0  0  0  0  0
  -22.3191   -8.8444   22.2229 C   0  0  0  0  0  0  0  0  0  0  0  0
  -28.1119  -27.3244   20.7515 C   0  0  0  0  0  0  0  0  0  0  0  0
  -23.0266   -5.6265   22.9815 C   0  0  0  0  0  0  0  0  0  0  0  0
  -23.1067   -4.9400   24.1930 C   0  0  0  0  0  0  0  0  0  0  0  0
  -26.1468  -26.1951   21.5776 C   0  0  0  0  0  0  0  0  0  0  0  0
  -26.9866  -19.7669   18.3806 C   0  0  0  0  0  0  0  0  0  0  0  0
  -27.9443  -17.9169   17.1570 C   0  0  0  0  0  0  0  0  0  0  0  0
  -20.7089   -5.1001   24.4421 C   0  0  0  0  0  0  0  0  0  0  0  0
  -23.7682  -10.3209   20.9751 C   0  0  0  0  0  0  0  0  0  0  0  0
  -25.8719  -11.7401   20.7143 C   0  0  0  0  0  0  0  0  0  0  0  0
  -25.7881  -34.4366   23.2934 C   0  0  0  0  0  0  0  0  0  0  0  0
  -25.9343  -28.3807   20.5589 C   0  0  0  0  0  0  0  0  0  0  0  0
  -25.9176  -33.0386   23.3988 C   0  0  0  0  0  0  0  0  0  0  0  0
  -25.3390  -27.2671   21.1686 C   0  0  0  0  0  0  0  0  0  0  0  0
  -28.1512  -20.5062   18.1744 C   0  0  0  0  0  0  0  0  0  0  0  0
  -29.2124  -19.9509   17.4595 C   0  0  0  0  0  0  0  0  0  0  0  0
  -26.8831  -18.4722   17.8720 C   0  0  0  0  0  0  0  0  0  0  0  0
  -22.3850   -7.9079   21.1912 C   0  0  0  0  0  0  0  0  0  0  0  0
  -27.5258  -26.2248   21.3716 C   0  0  0  0  0  0  0  0  0  0  0  0
  -21.7877   -6.0500   22.5003 C   0  0  0  0  0  0  0  0  0  0  0  0
  -21.9478   -4.6767   24.9233 C   0  0  0  0  0  0  0  0  0  0  0  0
  -20.6289   -5.7867   23.2306 C   0  0  0  0  0  0  0  0  0  0  0  0
  -29.1090  -18.6562   16.9508 C   0  0  0  0  0  0  0  0  0  0  0  0
  -24.4829  -11.5671   20.8643 C   0  0  0  0  0  0  0  0  0  0  0  0
  -26.0441  -13.1016   20.6566 C   0  0  0  0  0  0  0  0  0  0  0  0
  -29.1846  -23.3520   20.4298 C   0  0  0  0  0  0  0  0  0  0  0  0
  -32.5427  -24.1298   19.1637 C   0  0  0  0  0  0  0  0  0  0  0  0
  -30.3170  -24.0247   20.1662 C   0  0  0  0  0  0  0  0  0  0  0  0
  -31.4152  -23.4594   19.4258 C   0  0  0  0  0  0  0  0  0  0  0  0
  -26.9134  -10.7580   20.6341 C   0  0  0  0  0  0  0  0  0  0  0  0
  -23.9018  -30.1765   22.2165 C   0  0  0  0  0  0  0  0  0  0  0  0
  -21.6792  -28.3055   20.7737 C   0  0  0  0  0  0  0  0  0  0  0  0
  -21.2988  -24.8076   19.9754 C   0  0  0  0  0  0  0  0  0  0  0  0
  -24.5550  -18.1239   18.7693 C   0  0  0  0  0  0  0  0  0  0  0  0
  -24.4451  -35.1176   23.3777 C   0  0  0  0  0  0  0  0  0  0  0  0
  -25.0903  -29.5333   20.0882 C   0  0  0  0  0  0  0  0  0  0  0  0
  -23.8535  -27.1923   21.4052 C   0  0  0  0  0  0  0  0  0  0  0  0
  -23.2681  -34.1742   23.1433 C   0  0  0  0  0  0  0  0  0  0  0  0
  -22.8066  -16.8745   21.6081 C   0  0  0  0  0  0  0  0  0  0  0  0
  -27.4609  -21.5159   21.7999 C   0  0  0  0  0  0  0  0  0  0  0  0
  -23.4436  -32.8911   23.9494 C   0  0  0  0  0  0  0  0  0  0  0  0
  -27.6101  -22.9415   22.3195 C   0  0  0  0  0  0  0  0  0  0  0  0
  -23.2011  -15.3966   21.6553 C   0  0  0  0  0  0  0  0  0  0  0  0
  -22.6469  -17.3733   20.1731 C   0  0  0  0  0  0  0  0  0  0  0  0
  -24.1922  -15.6432   19.3437 C   0  0  0  0  0  0  0  0  0  0  0  0
  -28.7202  -21.0527   21.0748 C   0  0  0  0  0  0  0  0  0  0  0  0
  -24.7077  -32.1375   23.5187 C   0  0  1  0  0  0  0  0  0  0  0  0
  -28.0077  -23.9047   21.2020 C   0  0  1  0  0  0  0  0  0  1  0  0
  -23.7567  -29.6362   20.8220 C   0  0  1  0  0  0  0  0  0  0  0  0
  -24.4281  -15.1122   20.7670 C   0  0  2  0  0  0  0  0  0  0  0  0
  -30.4561  -20.7573   17.2481 C   0  0  0  0  0  0  0  0  0  0  0  0
  -19.9927  -23.6831   18.1514 C   0  0  0  0  0  0  0  0  0  0  0  0
  -19.4797  -28.0916   22.8777 C   0  0  0  0  0  0  0  0  0  0  0  0
  -18.9310  -25.8226   21.9727 C   0  0  0  0  0  0  0  0  0  0  0  0
  -18.6941  -27.8347   20.5174 C   0  0  0  0  0  0  0  0  0  0  0  0
  -23.6911  -23.3715   18.9886 C   0  0  0  0  0  0  0  0  0  0  0  0
  -28.2362  -21.8960   18.7334 C   0  0  0  0  0  0  0  0  0  0  0  0
  -21.0054  -26.9961   21.1061 C   0  0  1  0  0  0  0  0  0  0  0  0
  -21.3603  -24.1786   18.5952 C   0  0  2  0  0  0  0  0  0  0  0  0
  -19.5538  -27.1922   21.6276 C   0  0  0  0  0  0  0  0  0  0  0  0
  -23.8198  -12.7260   20.8998 N   0  0  0  0  0  0  0  0  0  0  0  0
  -24.7964  -13.6403   20.7714 N   0  0  0  0  0  0  0  0  0  0  0  0
  -23.0716  -28.3468   20.9327 N   0  0  0  0  0  0  0  0  0  0  0  0
  -23.8491  -17.0731   19.3924 N   0  0  0  0  0  0  0  0  0  0  0  0
  -27.1395  -13.8785   20.5194 N   0  0  0  0  0  0  0  0  0  0  0  0
  -27.5266  -10.3360   21.8217 N   0  0  0  0  0  0  0  0  0  0  0  0
  -25.6998  -17.7216   18.0821 N   0  0  0  0  0  0  0  0  0  0  0  0
  -24.4768  -31.4316   22.2766 N   0  0  0  0  0  0  0  0  0  0  0  0
  -21.1031  -26.1708   19.9071 N   0  0  0  0  0  0  0  0  0  0  0  0
  -29.1106  -21.9879   19.9536 N   0  3  1  0  0  0  0  0  0  0  0  0
  -22.3018  -23.0234   18.5938 N   0  3  0  0  0  0  0  0  0  0  0  0
  -27.3004  -10.2813   19.5403 O   0  0  0  0  0  0  0  0  0  0  0  0
  -23.5190  -29.5051   23.1674 O   0  0  0  0  0  0  0  0  0  0  0  0
  -20.9961  -29.2544   20.3805 O   0  0  0  0  0  0  0  0  0  0  0  0
  -21.4093  -24.1544   21.0106 O   0  0  0  0  0  0  0  0  0  0  0  0
  -24.1873  -19.2978   18.8629 O   0  0  0  0  0  0  0  0  0  0  0  0
  -21.7098   -6.7308   21.2969 O   0  0  0  0  0  0  0  0  0  0  0  0
  -28.2968  -25.1773   21.7719 O   0  0  0  0  0  0  0  0  0  1  0  0
  -22.0247   -4.0160   26.0859 F   0  0  0  0  0  0  0  0  0  0  0  0
  -19.4357   -6.1900   22.7728 F   0  0  0  0  0  0  0  0  0  0  0  0
  -30.3987  -17.9337   16.0586 Cl  0  0  0  0  0  0  0  0  0  0  0  0
  1  2  1  0  0  0  0
  1  5  2  0  0  0  0
  2  6  2  0  0  0  0
  3  8  2  0  0  0  0
  3 17  1  0  0  0  0
  4  9  1  0  0  0  0
  4 17  2  0  0  0  0
  5 19  1  0  0  0  0
  6 21  1  0  0  0  0
  7 10  2  0  0  0  0
  7 20  1  0  0  0  0
  8 26  1  0  0  0  0
  9 26  2  0  0  0  0
 10 27  1  0  0  0  0
 11 12  2  0  0  0  0
 11 28  1  0  0  0  0
 12 29  1  0  0  0  0
 13 22  1  0  0  0  0
 13 27  2  0  0  0  0
 14 23  1  0  0  0  0
 14 25  2  0  0  0  0
 15 25  1  0  0  0  0
 15 31  2  0  0  0  0
 16 29  2  0  0  0  0
 16 30  1  0  0  0  0
 17 32  1  0  0  0  0
 18 32  1  0  0  0  0
 18 33  2  0  0  0  0
 18 38  1  0  0  0  0
 19 21  2  0  0  0  0
 19 43  1  0  0  0  0
 20 22  2  0  0  0  0
 20 44  1  0  0  0  0
 21 55  1  0  0  0  0
 22 45  1  0  0  0  0
 23 24  2  0  0  0  0
 23 65  1  0  0  0  0
 24 31  1  0  0  0  0
 24 59  1  0  0  0  0
 25 75  1  0  0  0  0
 26 85  1  0  0  0  0
 27 86  1  0  0  0  0
 28 30  2  0  0  0  0
 28 85  1  0  0  0  0
 29 87  1  0  0  0  0
 30 88  1  0  0  0  0
 31 89  1  0  0  0  0
 32 69  2  0  0  0  0
 33 70  1  0  0  0  0
 33 73  1  0  0  0  0
 34 36  2  0  0  0  0
 34 56  1  0  0  0  0
 34 78  1  0  0  0  0
 35 37  2  0  0  0  0
 36 37  1  0  0  0  0
 38 74  1  0  0  0  0
 38 80  2  0  0  0  0
 39 57  1  0  0  0  0
 39 76  1  0  0  0  0
 39 81  2  0  0  0  0
 40 66  1  0  0  0  0
 40 71  1  0  0  0  0
 40 82  2  0  0  0  0
 41 67  1  0  0  0  0
 41 77  1  0  0  0  0
 41 83  2  0  0  0  0
 42 72  1  0  0  0  0
 42 75  1  0  0  0  0
 42 84  2  0  0  0  0
 43 46  1  0  0  0  0
 44 57  1  0  0  0  0
 45 71  1  0  0  0  0
 46 49  1  0  0  0  0
 47 51  1  0  0  0  0
 47 52  1  0  0  0  0
 48 50  1  0  0  0  0
 48 54  1  0  0  0  0
 49 55  1  0  0  0  0
 50 56  1  0  0  0  0
 51 58  1  0  0  0  0
 52 72  1  0  0  0  0
 53 58  1  0  0  0  0
 53 72  1  0  0  0  0
 54 78  1  0  0  0  0
 55 76  1  0  0  0  0
 56 86  1  0  0  0  0
 57 71  1  0  0  0  0
 58 70  1  0  0  0  0
 60 67  1  0  0  0  0
 61 68  1  0  0  0  0
 62 68  1  0  0  0  0
 63 68  1  0  0  0  0
 64 79  1  0  0  0  0
 65 78  1  0  0  0  0
 66 68  1  0  0  0  0
 66 77  1  0  0  0  0
 67 79  1  0  0  0  0
 69 70  1  0  0  0  0
M  CHG  2  78   1  79   1
M  ISO  4  42 100  56 101  75 100  86 101
M  END
> <Batch ID>
0042

> <Smiles>
C=CC=C1N(Cc2cc([100NH:0][100C:0](=O)N3CCCC(n4nc(-c5ccc(Oc6ccc(F)cc6F)cc5)c(C(N)=O)c4N)C3)cc(Cl)c2C)CCC[101CH:1]1[101O:1]c1ccc2c(c1)CN(C(=O)C(NC(=O)C(C)NC)C(C)(C)C)C(C(=O)NC1CCCc3ccccc31)C2

> <Shape>
0.293

> <Color>
0.087

> <Negative vol penalty>
0.000

$$$$

  -OEChem-04042322123D

 88 97  0     1  0  0  0  0  0999 V2000
  -32.5946  -31.5085   22.4277 C   0  0  0  0  0  0  0  0  0  0  0  0
  -31.8612  -30.3427   22.2316 C   0  0  0  0  0  0  0  0  0  0  0  0
  -22.8541  -10.6707   20.6558 C   0  0  0  0  0  0  0  0  0  0  0  0
  -24.5398   -9.1254   21.4353 C   0  0  0  0  0  0  0  0  0  0  0  0
  -32.0915  -32.5176   23.2477 C   0  0  0  0  0  0  0  0  0  0  0  0
  -30.6246  -30.1849   22.8564 C   0  0  0  0  0  0  0  0  0  0  0  0
  -27.0915  -28.3390   19.7332 C   0  0  0  0  0  0  0  0  0  0  0  0
  -21.9653  -10.1849   21.6148 C   0  0  0  0  0  0  0  0  0  0  0  0
  -23.6510   -8.6397   22.3944 C   0  0  0  0  0  0  0  0  0  0  0  0
  -27.1256  -26.9701   19.4713 C   0  0  0  0  0  0  0  0  0  0  0  0
  -21.0178   -6.5220   22.5048 C   0  0  0  0  0  0  0  0  0  0  0  0
  -20.9271   -5.1391   22.6628 C   0  0  0  0  0  0  0  0  0  0  0  0
  -25.3587  -26.6248   21.0769 C   0  0  0  0  0  0  0  0  0  0  0  0
  -29.7702  -17.7692   21.2230 C   0  0  0  0  0  0  0  0  0  0  0  0
  -21.6165   -5.3573   24.9681 C   0  0  0  0  0  0  0  0  0  0  0  0
  -24.1414  -10.1409   20.5660 C   0  0  0  0  0  0  0  0  0  0  0  0
  -24.8920  -10.6301   18.1776 C   0  0  0  0  0  0  0  0  0  0  0  0
  -30.8437  -32.3762   23.8751 C   0  0  0  0  0  0  0  0  0  0  0  0
  -26.1966  -28.8607   20.6785 C   0  0  0  0  0  0  0  0  0  0  0  0
  -30.1049  -31.1926   23.6867 C   0  0  0  0  0  0  0  0  0  0  0  0
  -25.3133  -28.0011   21.3471 C   0  0  0  0  0  0  0  0  0  0  0  0
  -29.6602  -19.0382   21.7913 C   0  0  0  0  0  0  0  0  0  0  0  0
  -27.3527  -19.1547   21.0850 C   0  0  0  0  0  0  0  0  0  0  0  0
  -28.4515  -19.7310   21.7224 C   0  0  0  0  0  0  0  0  0  0  0  0
  -27.4627  -17.8856   20.5166 C   0  0  0  0  0  0  0  0  0  0  0  0
  -28.6714  -17.1929   20.5856 C   0  0  0  0  0  0  0  0  0  0  0  0
  -22.3638   -9.1695   22.4841 C   0  0  0  0  0  0  0  0  0  0  0  0
  -26.2612  -26.1124   20.1452 C   0  0  0  0  0  0  0  0  0  0  0  0
  -21.4080   -7.3225   23.5784 C   0  0  0  0  0  0  0  0  0  0  0  0
  -21.2264   -4.5567   23.8945 C   0  0  0  0  0  0  0  0  0  0  0  0
  -21.7073   -6.7402   24.8100 C   0  0  0  0  0  0  0  0  0  0  0  0
  -25.0598  -10.6419   19.5752 C   0  0  0  0  0  0  0  0  0  0  0  0
  -26.0345  -11.2159   17.6897 C   0  0  0  0  0  0  0  0  0  0  0  0
  -27.2845  -23.0504   21.2168 C   0  0  0  0  0  0  0  0  0  0  0  0
  -23.8010  -10.1341   17.3906 C   0  0  0  0  0  0  0  0  0  0  0  0
  -26.4989  -30.4302   23.4260 C   0  0  0  0  0  0  0  0  0  0  0  0
  -23.2691  -30.6421   23.2111 C   0  0  0  0  0  0  0  0  0  0  0  0
  -20.5453  -28.4746   22.2624 C   0  0  0  0  0  0  0  0  0  0  0  0
  -29.9427  -15.0960   20.0083 C   0  0  0  0  0  0  0  0  0  0  0  0
  -30.3628  -33.4744   24.7902 C   0  0  0  0  0  0  0  0  0  0  0  0
  -26.1538  -30.3430   20.9302 C   0  0  0  0  0  0  0  0  0  0  0  0
  -24.3198  -28.5135   22.3564 C   0  0  0  0  0  0  0  0  0  0  0  0
  -28.8741  -33.3870   25.1165 C   0  0  0  0  0  0  0  0  0  0  0  0
  -29.2790  -22.6224   19.0815 C   0  0  0  0  0  0  0  0  0  0  0  0
  -30.6633  -11.8465   18.7440 C   0  0  0  0  0  0  0  0  0  0  0  0
  -28.4930  -31.9586   25.4924 C   0  0  0  0  0  0  0  0  0  0  0  0
  -28.0011  -23.4300   18.8617 C   0  0  0  0  0  0  0  0  0  0  0  0
  -29.2921  -11.1698   18.6807 C   0  0  0  0  0  0  0  0  0  0  0  0
  -29.5646  -22.3391   20.5536 C   0  0  0  0  0  0  0  0  0  0  0  0
  -30.7892  -12.7602   19.9618 C   0  0  0  0  0  0  0  0  0  0  0  0
  -28.3476  -13.0786   20.0415 C   0  0  0  0  0  0  0  0  0  0  0  0
  -28.7483  -30.9947   24.3273 C   0  0  1  0  0  0  0  0  0  0  0  0
  -27.5138  -24.1015   20.1392 C   0  0  1  0  0  0  0  0  0  1  0  0
  -25.5567  -30.7016   22.2875 C   0  0  1  0  0  0  0  0  0  0  0  0
  -28.1501  -12.1985   18.7964 C   0  0  2  0  0  0  0  0  0  0  0  0
  -30.8529  -19.6344   22.4648 C   0  0  0  0  0  0  0  0  0  0  0  0
  -26.0564  -19.8984   21.0113 C   0  0  0  0  0  0  0  0  0  0  0  0
  -26.2826  -17.2700   19.8317 C   0  0  0  0  0  0  0  0  0  0  0  0
  -18.2775  -29.0151   21.3339 C   0  0  0  0  0  0  0  0  0  0  0  0
  -22.3708  -30.5393   26.1253 C   0  0  0  0  0  0  0  0  0  0  0  0
  -20.2534  -29.4433   25.3613 C   0  0  0  0  0  0  0  0  0  0  0  0
  -20.8083  -31.7511   24.5941 C   0  0  0  0  0  0  0  0  0  0  0  0
  -20.9598  -26.7195   19.9158 C   0  0  0  0  0  0  0  0  0  0  0  0
  -28.3370  -21.0973   22.3342 C   0  0  0  0  0  0  0  0  0  0  0  0
  -22.1091  -29.7909   23.6682 C   0  0  1  0  0  0  0  0  0  0  0  0
  -19.6968  -28.5772   21.0078 C   0  0  2  0  0  0  0  0  0  0  0  0
  -21.4107  -30.3697   24.9310 C   0  0  0  0  0  0  0  0  0  0  0  0
  -26.2177  -11.1914   19.9510 N   0  0  0  0  0  0  0  0  0  0  0  0
  -26.7880  -11.5304   18.7822 N   0  0  0  0  0  0  0  0  0  0  0  0
  -28.3440  -22.1459   21.3280 N   0  0  0  0  0  0  0  0  0  0  0  0
  -24.3207  -29.9698   22.5724 N   0  0  0  0  0  0  0  0  0  0  0  0
  -29.6757  -13.7106   20.0033 N   0  0  0  0  0  0  0  0  0  0  0  0
  -26.4582  -11.4875   16.4370 N   0  0  0  0  0  0  0  0  0  0  0  0
  -22.7055   -9.5628   18.0523 N   0  0  0  0  0  0  0  0  0  0  0  0
  -28.8051  -15.9024   20.0158 N   0  0  0  0  0  0  0  0  0  0  0  0
  -27.6989  -31.1095   23.3373 N   0  0  0  0  0  0  0  0  0  0  0  0
  -21.2299  -29.6449   22.5131 N   0  0  0  0  0  0  0  0  0  0  0  0
  -19.6346  -27.2590   20.3153 N   0  3  0  0  0  0  0  0  0  0  0  0
  -26.2671  -23.0351   21.9074 O   0  0  0  0  0  0  0  0  0  0  0  0
  -23.8049  -10.1809   16.1371 O   0  0  0  0  0  0  0  0  0  0  0  0
  -26.1614  -29.6627   24.3197 O   0  0  0  0  0  0  0  0  0  0  0  0
  -23.2399  -31.8596   23.4070 O   0  0  0  0  0  0  0  0  0  0  0  0
  -20.5928  -27.4591   22.9532 O   0  0  0  0  0  0  0  0  0  0  0  0
  -31.0953  -15.5349   19.9786 O   0  0  0  0  0  0  0  0  0  0  0  0
  -21.4968   -8.6954   23.4202 O   0  0  0  0  0  0  0  0  0  0  0  0
  -26.2929  -24.7757   19.8919 O   0  0  0  0  0  0  0  0  0  1  0  0
  -21.1377   -3.2289   24.0465 F   0  0  0  0  0  0  0  0  0  0  0  0
  -22.0815   -7.5042   25.8454 F   0  0  0  0  0  0  0  0  0  0  0  0
  1  2  1  0  0  0  0
  1  5  2  0  0  0  0
  2  6  2  0  0  0  0
  3  8  2  0  0  0  0
  3 16  1  0  0  0  0
  4  9  1  0  0  0  0
  4 16  2  0  0  0  0
  5 18  1  0  0  0  0
  6 20  1  0  0  0  0
  7 10  2  0  0  0  0
  7 19  1  0  0  0  0
  8 27  1  0  0  0  0
  9 27  2  0  0  0  0
 10 28  1  0  0  0  0
 11 12  2  0  0  0  0
 11 29  1  0  0  0  0
 12 30  1  0  0  0  0
 13 21  1  0  0  0  0
 13 28  2  0  0  0  0
 14 22  2  0  0  0  0
 14 26  1  0  0  0  0
 15 30  2  0  0  0  0
 15 31  1  0  0  0  0
 16 32  1  0  0  0  0
 17 32  1  0  0  0  0
 17 33  2  0  0  0  0
 17 35  1  0  0  0  0
 18 20  2  0  0  0  0
 18 40  1  0  0  0  0
 19 21  2  0  0  0  0
 19 41  1  0  0  0  0
 20 52  1  0  0  0  0
 21 42  1  0  0  0  0
 22 24  1  0  0  0  0
 22 56  1  0  0  0  0
 23 24  2  0  0  0  0
 23 25  1  0  0  0  0
 23 57  1  0  0  0  0
 24 64  1  0  0  0  0
 25 26  2  0  0  0  0
 25 58  1  0  0  0  0
 26 75  1  0  0  0  0
 27 85  1  0  0  0  0
 28 86  1  0  0  0  0
 29 31  2  0  0  0  0
 29 85  1  0  0  0  0
 30 87  1  0  0  0  0
 31 88  1  0  0  0  0
 32 68  2  0  0  0  0
 33 69  1  0  0  0  0
 33 73  1  0  0  0  0
 34 53  1  0  0  0  0
 34 70  1  0  0  0  0
 34 79  2  0  0  0  0
 35 74  1  0  0  0  0
 35 80  2  0  0  0  0
 36 54  1  0  0  0  0
 36 76  1  0  0  0  0
 36 81  2  0  0  0  0
 37 65  1  0  0  0  0
 37 71  1  0  0  0  0
 37 82  2  0  0  0  0
 38 66  1  0  0  0  0
 38 77  1  0  0  0  0
 38 83  2  0  0  0  0
 39 72  1  0  0  0  0
 39 75  1  0  0  0  0
 39 84  2  0  0  0  0
 40 43  1  0  0  0  0
 41 54  1  0  0  0  0
 42 71  1  0  0  0  0
 43 46  1  0  0  0  0
 44 47  1  0  0  0  0
 44 49  1  0  0  0  0
 45 48  1  0  0  0  0
 45 50  1  0  0  0  0
 46 52  1  0  0  0  0
 47 53  1  0  0  0  0
 48 55  1  0  0  0  0
 49 70  1  0  0  0  0
 50 72  1  0  0  0  0
 51 55  1  0  0  0  0
 51 72  1  0  0  0  0
 52 76  1  0  0  0  0
 53 86  1  0  0  0  0
 54 71  1  0  0  0  0
 55 69  1  0  0  0  0
 59 66  1  0  0  0  0
 60 67  1  0  0  0  0
 61 67  1  0  0  0  0
 62 67  1  0  0  0  0
 63 78  1  0  0  0  0
 64 70  1  0  0  0  0
 65 67  1  0  0  0  0
 65 77  1  0  0  0  0
 66 78  1  0  0  0  0
 68 69  1  0  0  0  0
M  CHG  1  78   1
M  ISO  4  39 100  53 101  75 100  86 101
M  END
> <Batch ID>
0042

> <Smiles>
CNC(C)C(=O)NC(C(=O)N1Cc2cc([101O:1][101CH:1]3CCCN(Cc4c(C)cc([100NH:0][100C:0](=O)N5CCCC(n6nc(-c7ccc(Oc8ccc(F)cc8F)cc7)c(C(N)=O)c6N)C5)c(C)c4C)C3=O)ccc2CC1C(=O)NC1CCCc2ccccc21)C(C)(C)C

> <Shape>
0.306

> <Color>
0.101

> <Negative vol penalty>
0.000

$$$$

  -OEChem-04042322123D

 85 93  0     1  0  0  0  0  0999 V2000
  -16.4644  -29.3442   23.3504 C   0  0  0  0  0  0  0  0  0  0  0  0
  -17.3783  -30.3870   23.2484 C   0  0  0  0  0  0  0  0  0  0  0  0
  -23.0471  -14.1164   22.0225 C   0  0  0  0  0  0  0  0  0  0  0  0
  -23.1947  -14.8220   19.7166 C   0  0  0  0  0  0  0  0  0  0  0  0
  -16.9171  -28.0271   23.3900 C   0  0  0  0  0  0  0  0  0  0  0  0
  -18.7443  -30.1126   23.1738 C   0  0  0  0  0  0  0  0  0  0  0  0
  -26.5336  -31.6249   22.6625 C   0  0  0  0  0  0  0  0  0  0  0  0
  -22.5417  -12.8827   21.6127 C   0  0  0  0  0  0  0  0  0  0  0  0
  -22.6894  -13.5882   19.3067 C   0  0  0  0  0  0  0  0  0  0  0  0
  -27.7921  -31.0682   22.8860 C   0  0  0  0  0  0  0  0  0  0  0  0
  -23.7518   -9.9945   20.3371 C   0  0  0  0  0  0  0  0  0  0  0  0
  -24.2773   -8.8483   20.9334 C   0  0  0  0  0  0  0  0  0  0  0  0
  -27.2155  -29.2083   21.4621 C   0  0  0  0  0  0  0  0  0  0  0  0
  -27.9802  -24.4881   23.4621 C   0  0  0  0  0  0  0  0  0  0  0  0
  -25.6334  -25.8529   22.8198 C   0  0  0  0  0  0  0  0  0  0  0  0
  -22.0797   -8.2662   21.7510 C   0  0  0  0  0  0  0  0  0  0  0  0
  -23.3736  -15.0862   21.0745 C   0  0  0  0  0  0  0  0  0  0  0  0
  -25.2466  -16.7053   21.6889 C   0  0  0  0  0  0  0  0  0  0  0  0
  -18.2903  -27.7379   23.3284 C   0  0  0  0  0  0  0  0  0  0  0  0
  -25.6011  -30.9710   21.8445 C   0  0  0  0  0  0  0  0  0  0  0  0
  -19.2195  -28.7887   23.1881 C   0  0  0  0  0  0  0  0  0  0  0  0
  -25.9468  -29.7601   21.2278 C   0  0  0  0  0  0  0  0  0  0  0  0
  -27.2515  -24.1273   22.3288 C   0  0  0  0  0  0  0  0  0  0  0  0
  -27.5354  -25.5313   24.2743 C   0  0  0  0  0  0  0  0  0  0  0  0
  -26.0781  -24.8097   22.0076 C   0  0  0  0  0  0  0  0  0  0  0  0
  -22.3629  -12.6185   20.2548 C   0  0  0  0  0  0  0  0  0  0  0  0
  -28.1322  -29.8582   22.2881 C   0  0  0  0  0  0  0  0  0  0  0  0
  -22.3903  -10.2767   20.4478 C   0  0  0  0  0  0  0  0  0  0  0  0
  -23.4413   -7.9841   21.6403 C   0  0  0  0  0  0  0  0  0  0  0  0
  -21.5542   -9.4125   21.1547 C   0  0  0  0  0  0  0  0  0  0  0  0
  -26.3621  -26.2137   23.9531 C   0  0  0  0  0  0  0  0  0  0  0  0
  -23.8951  -16.3610   21.4972 C   0  0  0  0  0  0  0  0  0  0  0  0
  -25.2130  -18.0192   22.0879 C   0  0  0  0  0  0  0  0  0  0  0  0
  -26.4269  -15.9088   21.5212 C   0  0  0  0  0  0  0  0  0  0  0  0
  -22.7055  -29.7368   22.2868 C   0  0  0  0  0  0  0  0  0  0  0  0
  -22.8184  -29.3194   19.0720 C   0  0  0  0  0  0  0  0  0  0  0  0
  -25.2603  -28.2538   16.6391 C   0  0  0  0  0  0  0  0  0  0  0  0
  -23.2556  -23.2183   21.5559 C   0  0  0  0  0  0  0  0  0  0  0  0
  -18.7247  -26.2940   23.3674 C   0  0  0  0  0  0  0  0  0  0  0  0
  -24.2574  -31.5981   21.5919 C   0  0  0  0  0  0  0  0  0  0  0  0
  -24.9890  -29.0283   20.3247 C   0  0  0  0  0  0  0  0  0  0  0  0
  -20.1969  -26.1256   23.7290 C   0  0  0  0  0  0  0  0  0  0  0  0
  -21.3251  -20.9357   23.4897 C   0  0  0  0  0  0  0  0  0  0  0  0
  -21.0518  -27.0441   22.8687 C   0  0  0  0  0  0  0  0  0  0  0  0
  -21.9289  -19.5707   23.1547 C   0  0  0  0  0  0  0  0  0  0  0  0
  -21.3123  -21.8606   22.2747 C   0  0  0  0  0  0  0  0  0  0  0  0
  -23.2226  -20.6654   21.2767 C   0  0  0  0  0  0  0  0  0  0  0  0
  -20.7119  -28.5158   23.1364 C   0  0  1  0  0  0  0  0  0  0  0  0
  -23.2004  -30.5895   21.1530 C   0  0  1  0  0  0  0  0  0  0  0  0
  -23.3084  -19.7169   22.4848 C   0  0  2  0  0  0  0  0  0  0  0  0
  -27.7449  -23.0058   21.4746 C   0  0  0  0  0  0  0  0  0  0  0  0
  -25.4793  -28.8008   14.1997 C   0  0  0  0  0  0  0  0  0  0  0  0
  -21.2355  -26.7453   18.6496 C   0  0  0  0  0  0  0  0  0  0  0  0
  -22.6733  -26.2706   16.6558 C   0  0  0  0  0  0  0  0  0  0  0  0
  -21.2309  -28.3054   16.6950 C   0  0  0  0  0  0  0  0  0  0  0  0
  -28.0356  -29.2215   16.9862 C   0  0  0  0  0  0  0  0  0  0  0  0
  -25.2801  -24.4390   20.8007 C   0  0  0  0  0  0  0  0  0  0  0  0
  -28.3478  -25.8883   25.4841 C   0  0  0  0  0  0  0  0  0  0  0  0
  -30.8830  -28.4167   24.1271 C   0  0  0  0  0  0  0  0  0  0  0  0
  -30.1480  -27.0892   24.2369 C   0  0  0  0  0  0  0  0  0  0  0  0
  -29.9808  -29.5884   23.7599 C   0  0  0  0  0  0  0  0  0  1  0  0
  -23.2950  -28.2210   18.1526 C   0  0  1  0  0  0  0  0  0  0  0  0
  -25.9551  -29.1242   15.6075 C   0  0  2  0  0  0  0  0  0  0  0  0
  -22.1203  -27.3896   17.5639 C   0  0  0  0  0  0  0  0  0  0  0  0
  -23.0635  -17.3743   21.7535 N   0  0  0  0  0  0  0  0  0  0  0  0
  -23.8947  -18.3683   22.1104 N   0  0  0  0  0  0  0  0  0  0  0  0
  -23.6851  -29.6787   20.1138 N   0  0  0  0  0  0  0  0  0  0  0  0
  -22.6507  -21.9574   21.6871 N   0  0  0  0  0  0  0  0  0  0  0  0
  -26.1827  -18.8983   22.4182 N   0  0  0  0  0  0  0  0  0  0  0  0
  -26.2815  -14.5782   21.1056 N   0  0  0  0  0  0  0  0  0  0  0  0
  -21.3875  -29.3415   22.1599 N   0  0  0  0  0  0  0  0  0  0  0  0
  -24.1338  -28.8650   17.1476 N   0  0  0  0  0  0  0  0  0  0  0  0
  -24.5269  -23.2201   20.9950 N   0  0  0  0  0  0  0  0  0  0  0  0
  -27.4299  -28.9176   15.6642 N   0  3  0  0  0  0  0  0  0  0  0  0
  -29.1299  -27.1437   25.3120 N   0  3  0  0  0  0  0  0  0  0  0  0
  -27.5754  -16.3586   21.7495 O   0  0  0  0  0  0  0  0  0  0  0  0
  -23.4637  -29.4569   23.2079 O   0  0  0  0  0  0  0  0  0  0  0  0
  -21.7208  -29.8444   18.8688 O   0  0  0  0  0  0  0  0  0  0  0  0
  -25.6734  -27.1413   16.9588 O   0  0  0  0  0  0  0  0  0  0  0  0
  -22.7058  -24.2644   21.9171 O   0  0  0  0  0  0  0  0  0  0  0  0
  -21.8699  -11.4146   19.8545 O   0  0  0  0  0  0  0  0  0  0  0  0
  -29.3597  -29.3122   22.5051 O   0  0  0  0  0  0  0  0  0  1  0  0
  -23.9457   -6.8827   22.2116 F   0  0  0  0  0  0  0  0  0  0  0  0
  -20.2451   -9.6776   21.2635 F   0  0  0  0  0  0  0  0  0  0  0  0
  -25.7808  -27.5093   24.9343 Cl  0  0  0  0  0  0  0  0  0  0  0  0
  1  2  1  0  0  0  0
  1  5  2  0  0  0  0
  2  6  2  0  0  0  0
  3  8  2  0  0  0  0
  3 17  1  0  0  0  0
  4  9  1  0  0  0  0
  4 17  2  0  0  0  0
  5 19  1  0  0  0  0
  6 21  1  0  0  0  0
  7 10  2  0  0  0  0
  7 20  1  0  0  0  0
  8 26  1  0  0  0  0
  9 26  2  0  0  0  0
 10 27  1  0  0  0  0
 11 12  2  0  0  0  0
 11 28  1  0  0  0  0
 12 29  1  0  0  0  0
 13 22  1  0  0  0  0
 13 27  2  0  0  0  0
 14 23  2  0  0  0  0
 14 24  1  0  0  0  0
 15 25  2  0  0  0  0
 15 31  1  0  0  0  0
 16 29  2  0  0  0  0
 16 30  1  0  0  0  0
 17 32  1  0  0  0  0
 18 32  1  0  0  0  0
 18 33  2  0  0  0  0
 18 34  1  0  0  0  0
 19 21  2  0  0  0  0
 19 39  1  0  0  0  0
 20 22  2  0  0  0  0
 20 40  1  0  0  0  0
 21 48  1  0  0  0  0
 22 41  1  0  0  0  0
 23 25  1  0  0  0  0
 23 51  1  0  0  0  0
 24 31  2  0  0  0  0
 24 58  1  0  0  0  0
 25 57  1  0  0  0  0
 26 81  1  0  0  0  0
 27 82  1  0  0  0  0
 28 30  2  0  0  0  0
 28 81  1  0  0  0  0
 29 83  1  0  0  0  0
 30 84  1  0  0  0  0
 31 85  1  0  0  0  0
 32 65  2  0  0  0  0
 33 66  1  0  0  0  0
 33 69  1  0  0  0  0
 34 70  1  0  0  0  0
 34 76  2  0  0  0  0
 35 49  1  0  0  0  0
 35 71  1  0  0  0  0
 35 77  2  0  0  0  0
 36 62  1  0  0  0  0
 36 67  1  0  0  0  0
 36 78  2  0  0  0  0
 37 63  1  0  0  0  0
 37 72  1  0  0  0  0
 37 79  2  0  0  0  0
 38 68  1  0  0  0  0
 38 73  1  0  0  0  0
 38 80  2  0  0  0  0
 39 42  1  0  0  0  0
 40 49  1  0  0  0  0
 41 67  1  0  0  0  0
 42 44  1  0  0  0  0
 43 45  1  0  0  0  0
 43 46  1  0  0  0  0
 44 48  1  0  0  0  0
 45 50  1  0  0  0  0
 46 68  1  0  0  0  0
 47 50  1  0  0  0  0
 47 68  1  0  0  0  0
 48 71  1  0  0  0  0
 49 67  1  0  0  0  0
 50 66  1  0  0  0  0
 52 63  1  0  0  0  0
 53 64  1  0  0  0  0
 54 64  1  0  0  0  0
 55 64  1  0  0  0  0
 56 74  1  0  0  0  0
 57 73  1  0  0  0  0
 58 75  1  0  0  0  0
 59 60  1  0  0  0  0
 59 61  1  0  0  0  0
 60 75  1  0  0  0  0
 61 82  1  0  0  0  0
 62 64  1  0  0  0  0
 62 72  1  0  0  0  0
 63 74  1  0  0  0  0
 65 66  1  0  0  0  0
M  CHG  2  74   1  75   1
M  ISO  4  38 100  61 101  73 100  82 101
M  END
> <Batch ID>
0042

> <Smiles>
CNC(C)C(=O)NC(C(=O)N1Cc2cc([101O:1][101CH2:1]CCNCc3cc(C)c(C[100NH:0][100C:0](=O)N4CCCC(n5nc(-c6ccc(Oc7ccc(F)cc7F)cc6)c(C(N)=O)c5N)C4)cc3Cl)ccc2CC1C(=O)NC1CCCc2ccccc21)C(C)(C)C

> <Shape>
0.203

> <Color>
0.100

> <Negative vol penalty>
0.000

$$$$

  -OEChem-04042322123D

 86 94  0     1  0  0  0  0  0999 V2000
  -23.7690  -26.7368    8.8617 C   0  0  0  0  0  0  0  0  0  0  0  0
  -24.7512  -25.7795    9.0950 C   0  0  0  0  0  0  0  0  0  0  0  0
  -23.0337   -9.9815   19.9116 C   0  0  0  0  0  0  0  0  0  0  0  0
  -23.8293   -9.8887   22.1910 C   0  0  0  0  0  0  0  0  0  0  0  0
  -23.8272  -27.9672    9.5149 C   0  0  0  0  0  0  0  0  0  0  0  0
  -25.7928  -26.0526    9.9809 C   0  0  0  0  0  0  0  0  0  0  0  0
  -28.5899  -22.0817   13.7110 C   0  0  0  0  0  0  0  0  0  0  0  0
  -22.2631   -8.8404   20.1341 C   0  0  0  0  0  0  0  0  0  0  0  0
  -23.0586   -8.7475   22.4135 C   0  0  0  0  0  0  0  0  0  0  0  0
  -29.7873  -21.3760   13.6019 C   0  0  0  0  0  0  0  0  0  0  0  0
  -19.8200   -8.0145   23.0415 C   0  0  0  0  0  0  0  0  0  0  0  0
  -19.0806   -7.9538   24.2227 C   0  0  0  0  0  0  0  0  0  0  0  0
  -30.9056  -23.0873   14.8826 C   0  0  0  0  0  0  0  0  0  0  0  0
  -29.4036  -19.6491   20.1609 C   0  0  0  0  0  0  0  0  0  0  0  0
  -31.8058  -18.2307   20.1805 C   0  0  0  0  0  0  0  0  0  0  0  0
  -20.2808   -5.9599   24.8715 C   0  0  0  0  0  0  0  0  0  0  0  0
  -23.8169  -10.5057   20.9401 C   0  0  0  0  0  0  0  0  0  0  0  0
  -24.2246  -13.0236   20.9013 C   0  0  0  0  0  0  0  0  0  0  0  0
  -24.8648  -28.2518   10.4165 C   0  0  0  0  0  0  0  0  0  0  0  0
  -28.5436  -23.3030   14.3986 C   0  0  0  0  0  0  0  0  0  0  0  0
  -25.8657  -27.2885   10.6457 C   0  0  0  0  0  0  0  0  0  0  0  0
  -29.7057  -23.8053   15.0012 C   0  0  0  0  0  0  0  0  0  0  0  0
  -29.5762  -18.5819   21.0423 C   0  0  0  0  0  0  0  0  0  0  0  0
  -30.4321  -20.0071   19.2892 C   0  0  0  0  0  0  0  0  0  0  0  0
  -30.7773  -17.8727   21.0521 C   0  0  0  0  0  0  0  0  0  0  0  0
  -31.6332  -19.2979   19.2991 C   0  0  0  0  0  0  0  0  0  0  0  0
  -22.2755   -8.2234   21.3850 C   0  0  0  0  0  0  0  0  0  0  0  0
  -30.9460  -21.8802   14.1852 C   0  0  0  0  0  0  0  0  0  0  0  0
  -20.7897   -7.0479   22.7752 C   0  0  0  0  0  0  0  0  0  0  0  0
  -19.3111   -6.9265   25.1377 C   0  0  0  0  0  0  0  0  0  0  0  0
  -21.0202   -6.0206   23.6902 C   0  0  0  0  0  0  0  0  0  0  0  0
  -24.6136  -11.6841   20.7107 C   0  0  0  0  0  0  0  0  0  0  0  0
  -25.3307  -13.7562   20.5460 C   0  0  0  0  0  0  0  0  0  0  0  0
  -22.9752  -13.5578   21.3587 C   0  0  0  0  0  0  0  0  0  0  0  0
  -27.8510  -26.3011   13.6015 C   0  0  0  0  0  0  0  0  0  0  0  0
  -28.1526  -26.8072   16.7914 C   0  0  0  0  0  0  0  0  0  0  0  0
  -29.4744  -25.8004   19.7723 C   0  0  0  0  0  0  0  0  0  0  0  0
  -30.8422  -14.6233   20.6785 C   0  0  0  0  0  0  0  0  0  0  0  0
  -24.9116  -29.6137   11.0630 C   0  0  0  0  0  0  0  0  0  0  0  0
  -27.2383  -24.0387   14.5302 C   0  0  0  0  0  0  0  0  0  0  0  0
  -29.7047  -25.1019   15.7676 C   0  0  0  0  0  0  0  0  0  0  0  0
  -25.8425  -29.6829   12.2708 C   0  0  0  0  0  0  0  0  0  0  0  0
  -29.6037  -12.3541   18.2303 C   0  0  0  0  0  0  0  0  0  0  0  0
  -27.1805  -29.0236   11.9521 C   0  0  0  0  0  0  0  0  0  0  0  0
  -28.1658  -12.0834   18.6766 C   0  0  0  0  0  0  0  0  0  0  0  0
  -30.5451  -12.5087   19.4228 C   0  0  0  0  0  0  0  0  0  0  0  0
  -28.6856  -13.2409   20.8649 C   0  0  0  0  0  0  0  0  0  0  0  0
  -26.9979  -27.5381   11.6183 C   0  0  1  0  0  0  0  0  0  0  0  0
  -27.4173  -25.5270   14.8141 C   0  0  1  0  0  0  0  0  0  0  0  0
  -27.6888  -13.1332   19.6983 C   0  0  2  0  0  0  0  0  0  0  0  0
  -28.4613  -18.2173   21.9667 C   0  0  0  0  0  0  0  0  0  0  0  0
  -30.2241  -21.1527   18.3539 C   0  0  0  0  0  0  0  0  0  0  0  0
  -29.8792  -25.7714   22.2488 C   0  0  0  0  0  0  0  0  0  0  0  0
  -33.2135  -17.6056   14.5254 C   0  0  0  0  0  0  0  0  0  0  0  0
  -30.1455  -29.0196   16.1251 C   0  0  0  0  0  0  0  0  0  0  0  0
  -30.9036  -28.9593   18.5105 C   0  0  0  0  0  0  0  0  0  0  0  0
  -28.5480  -29.5747   17.9675 C   0  0  0  0  0  0  0  0  0  0  0  0
  -27.1815  -23.9893   20.2432 C   0  0  0  0  0  0  0  0  0  0  0  0
  -30.9851  -16.7270   21.9873 C   0  0  0  0  0  0  0  0  0  0  0  0
  -32.7532  -19.6641   18.3703 C   0  0  0  0  0  0  0  0  0  0  0  0
  -33.5674  -19.6411   16.0091 C   0  0  0  0  0  0  0  0  0  0  0  0
  -32.0293  -19.7726   13.9840 C   0  0  0  0  0  0  0  0  0  1  0  0
  -29.2914  -27.1716   17.7130 C   0  0  1  0  0  0  0  0  0  0  0  0
  -28.8467  -25.6192   21.1426 C   0  0  2  0  0  0  0  0  0  0  0  0
  -33.2862  -19.1354   14.5895 C   0  0  2  0  0  0  0  0  0  0  0  0
  -29.7229  -28.6578   17.5630 C   0  0  0  0  0  0  0  0  0  0  0  0
  -25.8687  -11.5696   20.2685 N   0  0  0  0  0  0  0  0  0  0  0  0
  -26.2780  -12.8465   20.1782 N   0  0  0  0  0  0  0  0  0  0  0  0
  -28.4054  -25.7875   15.8629 N   0  0  0  0  0  0  0  0  0  0  0  0
  -30.0363  -13.5199   20.3526 N   0  0  0  0  0  0  0  0  0  0  0  0
  -25.5757  -15.0834   20.5153 N   0  0  0  0  0  0  0  0  0  0  0  0
  -21.9445  -12.6644   21.6812 N   0  0  0  0  0  0  0  0  0  0  0  0
  -26.8051  -26.7681   12.8285 N   0  0  0  0  0  0  0  0  0  0  0  0
  -28.8602  -26.8075   19.0584 N   0  0  0  0  0  0  0  0  0  0  0  0
  -30.2814  -15.5377   21.5618 N   0  0  0  0  0  0  0  0  0  0  0  0
  -28.2323  -24.2663   21.2562 N   0  3  0  0  0  0  0  0  0  0  0  0
  -32.5080  -19.2390   16.9646 N   0  3  0  0  0  0  0  0  0  0  0  0
  -22.7730  -14.7914   21.4622 O   0  0  0  0  0  0  0  0  0  0  0  0
  -29.0459  -26.4639   13.3842 O   0  0  0  0  0  0  0  0  0  0  0  0
  -27.0762  -27.4004   16.8963 O   0  0  0  0  0  0  0  0  0  0  0  0
  -30.4177  -25.1193   19.3765 O   0  0  0  0  0  0  0  0  0  0  0  0
  -31.9752  -14.7844   20.2125 O   0  0  0  0  0  0  0  0  0  0  0  0
  -21.5235   -7.1100   21.6025 O   0  0  0  0  0  0  0  0  0  0  0  0
  -32.1163  -21.1938   14.0797 O   0  0  0  0  0  0  0  0  0  1  0  0
  -18.6021   -6.8692   26.2727 F   0  0  0  0  0  0  0  0  0  0  0  0
  -21.9513   -5.0897   23.4405 F   0  0  0  0  0  0  0  0  0  0  0  0
  1  2  1  0  0  0  0
  1  5  2  0  0  0  0
  2  6  2  0  0  0  0
  3  8  2  0  0  0  0
  3 17  1  0  0  0  0
  4  9  1  0  0  0  0
  4 17  2  0  0  0  0
  5 19  1  0  0  0  0
  6 21  1  0  0  0  0
  7 10  2  0  0  0  0
  7 20  1  0  0  0  0
  8 27  1  0  0  0  0
  9 27  2  0  0  0  0
 10 28  1  0  0  0  0
 11 12  2  0  0  0  0
 11 29  1  0  0  0  0
 12 30  1  0  0  0  0
 13 22  1  0  0  0  0
 13 28  2  0  0  0  0
 14 23  2  0  0  0  0
 14 24  1  0  0  0  0
 15 25  2  0  0  0  0
 15 26  1  0  0  0  0
 16 30  2  0  0  0  0
 16 31  1  0  0  0  0
 17 32  1  0  0  0  0
 18 32  1  0  0  0  0
 18 33  2  0  0  0  0
 18 34  1  0  0  0  0
 19 21  2  0  0  0  0
 19 39  1  0  0  0  0
 20 22  2  0  0  0  0
 20 40  1  0  0  0  0
 21 48  1  0  0  0  0
 22 41  1  0  0  0  0
 23 25  1  0  0  0  0
 23 51  1  0  0  0  0
 24 26  2  0  0  0  0
 24 52  1  0  0  0  0
 25 59  1  0  0  0  0
 26 60  1  0  0  0  0
 27 83  1  0  0  0  0
 28 84  1  0  0  0  0
 29 31  2  0  0  0  0
 29 83  1  0  0  0  0
 30 85  1  0  0  0  0
 31 86  1  0  0  0  0
 32 67  2  0  0  0  0
 33 68  1  0  0  0  0
 33 71  1  0  0  0  0
 34 72  1  0  0  0  0
 34 78  2  0  0  0  0
 35 49  1  0  0  0  0
 35 73  1  0  0  0  0
 35 79  2  0  0  0  0
 36 63  1  0  0  0  0
 36 69  1  0  0  0  0
 36 80  2  0  0  0  0
 37 64  1  0  0  0  0
 37 74  1  0  0  0  0
 37 81  2  0  0  0  0
 38 70  1  0  0  0  0
 38 75  1  0  0  0  0
 38 82  2  0  0  0  0
 39 42  1  0  0  0  0
 40 49  1  0  0  0  0
 41 69  1  0  0  0  0
 42 44  1  0  0  0  0
 43 45  1  0  0  0  0
 43 46  1  0  0  0  0
 44 48  1  0  0  0  0
 45 50  1  0  0  0  0
 46 70  1  0  0  0  0
 47 50  1  0  0  0  0
 47 70  1  0  0  0  0
 48 73  1  0  0  0  0
 49 69  1  0  0  0  0
 50 68  1  0  0  0  0
 53 64  1  0  0  0  0
 54 65  1  0  0  0  0
 55 66  1  0  0  0  0
 56 66  1  0  0  0  0
 57 66  1  0  0  0  0
 58 76  1  0  0  0  0
 59 75  1  0  0  0  0
 60 77  1  0  0  0  0
 61 65  1  0  0  0  0
 61 77  1  0  0  0  0
 62 65  1  0  0  0  0
 62 84  1  0  0  0  0
 63 66  1  0  0  0  0
 63 74  1  0  0  0  0
 64 76  1  0  0  0  0
 67 68  1  0  0  0  0
M  CHG  2  76   1  77   1
M  ISO  4  38 100  62 101  75 100  84 101
M  END
> <Batch ID>
0042

> <Smiles>
CNC(C)C(=O)NC(C(=O)N1Cc2cc([101O:1][101CH2:1]C(C)CNCc3cc(C[100NH:0][100C:0](=O)N4CCCC(n5nc(-c6ccc(Oc7ccc(F)cc7F)cc6)c(C(N)=O)c5N)C4)c(C)cc3C)ccc2CC1C(=O)NC1CCCc2ccccc21)C(C)(C)C

> <Shape>
0.220

> <Color>
0.206

> <Negative vol penalty>
0.000

$$$$

  -OEChem-04042322123D

 88 97  0     1  0  0  0  0  0999 V2000
  -29.2993  -32.2548   16.1473 C   0  0  0  0  0  0  0  0  0  0  0  0
  -29.1726  -31.0761   16.8754 C   0  0  0  0  0  0  0  0  0  0  0  0
  -24.6332   -9.0004   21.1994 C   0  0  0  0  0  0  0  0  0  0  0  0
  -22.8066  -10.3996   20.4627 C   0  0  0  0  0  0  0  0  0  0  0  0
  -29.0483  -33.4817   16.7601 C   0  0  0  0  0  0  0  0  0  0  0  0
  -28.7958  -31.1238   18.2171 C   0  0  0  0  0  0  0  0  0  0  0  0
  -25.2756  -27.6708   19.3703 C   0  0  0  0  0  0  0  0  0  0  0  0
  -23.7353   -7.9650   21.4592 C   0  0  0  0  0  0  0  0  0  0  0  0
  -21.9087   -9.3643   20.7225 C   0  0  0  0  0  0  0  0  0  0  0  0
  -25.7063  -26.3565   19.5454 C   0  0  0  0  0  0  0  0  0  0  0  0
  -21.5291   -7.1307   23.8801 C   0  0  0  0  0  0  0  0  0  0  0  0
  -21.6688   -6.4394   25.0835 C   0  0  0  0  0  0  0  0  0  0  0  0
  -25.6569  -26.6653   21.9374 C   0  0  0  0  0  0  0  0  0  0  0  0
  -27.2988  -18.9773   15.2381 C   0  0  0  0  0  0  0  0  0  0  0  0
  -26.3934  -19.9213   17.7022 C   0  0  0  0  0  0  0  0  0  0  0  0
  -22.0202   -4.3846   23.8623 C   0  0  0  0  0  0  0  0  0  0  0  0
  -24.1688  -10.2177   20.7012 C   0  0  0  0  0  0  0  0  0  0  0  0
  -26.1825  -11.2670   19.5385 C   0  0  0  0  0  0  0  0  0  0  0  0
  -28.6589  -33.5439   18.1074 C   0  0  0  0  0  0  0  0  0  0  0  0
  -25.0424  -28.4971   20.4790 C   0  0  0  0  0  0  0  0  0  0  0  0
  -28.5407  -32.3528   18.8489 C   0  0  0  0  0  0  0  0  0  0  0  0
  -25.2208  -27.9890   21.7737 C   0  0  0  0  0  0  0  0  0  0  0  0
  -26.9141  -20.3110   15.3753 C   0  0  0  0  0  0  0  0  0  0  0  0
  -27.2308  -18.1156   16.3329 C   0  0  0  0  0  0  0  0  0  0  0  0
  -26.4614  -20.7830   16.6073 C   0  0  0  0  0  0  0  0  0  0  0  0
  -26.7781  -18.5876   17.5649 C   0  0  0  0  0  0  0  0  0  0  0  0
  -22.3731   -8.1470   21.2207 C   0  0  0  0  0  0  0  0  0  0  0  0
  -25.8997  -25.8544   20.8290 C   0  0  0  0  0  0  0  0  0  0  0  0
  -21.6349   -6.4489   22.6678 C   0  0  0  0  0  0  0  0  0  0  0  0
  -21.9144   -5.0664   25.0746 C   0  0  0  0  0  0  0  0  0  0  0  0
  -21.8804   -5.0759   22.6589 C   0  0  0  0  0  0  0  0  0  0  0  0
  -25.0957  -11.2878   20.4332 C   0  0  0  0  0  0  0  0  0  0  0  0
  -26.7430  -12.5159   19.6501 C   0  0  0  0  0  0  0  0  0  0  0  0
  -26.2179  -23.4045   18.9345 C   0  0  0  0  0  0  0  0  0  0  0  0
  -26.6439  -10.2130   18.6830 C   0  0  0  0  0  0  0  0  0  0  0  0
  -26.2846  -31.2210   21.5474 C   0  0  0  0  0  0  0  0  0  0  0  0
  -23.9034  -30.9944   23.7385 C   0  0  0  0  0  0  0  0  0  0  0  0
  -21.7147  -29.0073   25.4436 C   0  0  0  0  0  0  0  0  0  0  0  0
  -26.2730  -18.0546   19.9747 C   0  0  0  0  0  0  0  0  0  0  0  0
  -28.4443  -34.8963   18.7393 C   0  0  0  0  0  0  0  0  0  0  0  0
  -24.5524  -29.9043   20.2739 C   0  0  0  0  0  0  0  0  0  0  0  0
  -24.9649  -28.8289   22.9975 C   0  0  0  0  0  0  0  0  0  0  0  0
  -27.6858  -34.8368   20.0628 C   0  0  0  0  0  0  0  0  0  0  0  0
  -29.3376  -22.7056   19.8155 C   0  0  0  0  0  0  0  0  0  0  0  0
  -29.1051  -22.1198   18.4265 C   0  0  0  0  0  0  0  0  0  0  0  0
  -25.9037  -16.2157   23.0011 C   0  0  0  0  0  0  0  0  0  0  0  0
  -28.2563  -33.7399   20.9562 C   0  0  0  0  0  0  0  0  0  0  0  0
  -28.0670  -22.9746   20.6160 C   0  0  0  0  0  0  0  0  0  0  0  0
  -25.7500  -14.7680   22.5292 C   0  0  0  0  0  0  0  0  0  0  0  0
  -28.2696  -23.0176   17.5216 C   0  0  0  0  0  0  0  0  0  0  0  0
  -25.2159  -17.1971   22.0537 C   0  0  0  0  0  0  0  0  0  0  0  0
  -25.4501  -15.6256   20.1709 C   0  0  0  0  0  0  0  0  0  0  0  0
  -28.1100  -32.3619   20.2996 C   0  0  1  0  0  0  0  0  0  0  0  0
  -27.1453  -24.0154   19.9809 C   0  0  2  0  0  0  0  0  0  1  0  0
  -24.8400  -30.8165   21.4624 C   0  0  1  0  0  0  0  0  0  0  0  0
  -26.1819  -14.6057   21.0586 C   0  0  2  0  0  0  0  0  0  0  0  0
  -26.9951  -21.2148   14.1892 C   0  0  0  0  0  0  0  0  0  0  0  0
  -27.6495  -16.6919   16.1571 C   0  0  0  0  0  0  0  0  0  0  0  0
  -19.9203  -29.1036   27.1953 C   0  0  0  0  0  0  0  0  0  0  0  0
  -26.0344  -31.2977   25.9011 C   0  0  0  0  0  0  0  0  0  0  0  0
  -24.3675  -30.4482   27.5649 C   0  0  0  0  0  0  0  0  0  0  0  0
  -23.9244  -32.5699   26.3300 C   0  0  0  0  0  0  0  0  0  0  0  0
  -19.6704  -27.9687   23.5723 C   0  0  0  0  0  0  0  0  0  0  0  0
  -26.0417  -22.2143   16.7789 C   0  0  0  0  0  0  0  0  0  0  0  0
  -23.7629  -30.3650   25.1034 C   0  0  1  0  0  0  0  0  0  0  0  0
  -20.2256  -29.1427   25.7060 C   0  0  2  0  0  0  0  0  0  0  0  0
  -24.5291  -31.1547   26.2020 C   0  0  0  0  0  0  0  0  0  0  0  0
  -24.9716  -12.4572   21.0665 N   0  0  0  0  0  0  0  0  0  0  0  0
  -25.9876  -13.1828   20.5693 N   0  0  0  0  0  0  0  0  0  0  0  0
  -26.8361  -22.8979   17.7916 N   0  0  0  0  0  0  0  0  0  0  0  0
  -24.4930  -30.2004   22.7447 N   0  0  0  0  0  0  0  0  0  0  0  0
  -25.6773  -16.9874   20.6796 N   0  0  0  0  0  0  0  0  0  0  0  0
  -27.8035  -13.0978   19.0508 N   0  0  0  0  0  0  0  0  0  0  0  0
  -25.9522   -8.9941   18.6918 N   0  0  0  0  0  0  0  0  0  0  0  0
  -26.7020  -17.7279   18.6887 N   0  0  0  0  0  0  0  0  0  0  0  0
  -26.7504  -31.8829   20.4274 N   0  0  0  0  0  0  0  0  0  0  0  0
  -22.3304  -30.2374   25.3485 N   0  0  0  0  0  0  0  0  0  0  0  0
  -19.4802  -28.0348   25.0442 N   0  3  0  0  0  0  0  0  0  0  0  0
  -24.9988  -23.3727   19.1217 O   0  0  0  0  0  0  0  0  0  0  0  0
  -27.6500  -10.3426   17.9451 O   0  0  0  0  0  0  0  0  0  0  0  0
  -26.9286  -30.9537   22.5551 O   0  0  0  0  0  0  0  0  0  0  0  0
  -23.4983  -32.1456   23.5588 O   0  0  0  0  0  0  0  0  0  0  0  0
  -22.2761  -27.9191   25.3375 O   0  0  0  0  0  0  0  0  0  0  0  0
  -26.4182  -19.1684   20.4848 O   0  0  0  0  0  0  0  0  0  0  0  0
  -21.4967   -7.1368   21.4739 O   0  0  0  0  0  0  0  0  0  0  0  0
  -26.3207  -24.5720   21.0028 O   0  0  0  0  0  0  0  0  0  1  0  0
  -22.0500   -4.4029   26.2303 F   0  0  0  0  0  0  0  0  0  0  0  0
  -21.9843   -4.4157   21.4973 F   0  0  0  0  0  0  0  0  0  0  0  0
  1  2  1  0  0  0  0
  1  5  2  0  0  0  0
  2  6  2  0  0  0  0
  3  8  2  0  0  0  0
  3 17  1  0  0  0  0
  4  9  1  0  0  0  0
  4 17  2  0  0  0  0
  5 19  1  0  0  0  0
  6 21  1  0  0  0  0
  7 10  2  0  0  0  0
  7 20  1  0  0  0  0
  8 27  1  0  0  0  0
  9 27  2  0  0  0  0
 10 28  1  0  0  0  0
 11 12  2  0  0  0  0
 11 29  1  0  0  0  0
 12 30  1  0  0  0  0
 13 22  1  0  0  0  0
 13 28  2  0  0  0  0
 14 23  1  0  0  0  0
 14 24  2  0  0  0  0
 15 25  1  0  0  0  0
 15 26  2  0  0  0  0
 16 30  2  0  0  0  0
 16 31  1  0  0  0  0
 17 32  1  0  0  0  0
 18 32  1  0  0  0  0
 18 33  2  0  0  0  0
 18 35  1  0  0  0  0
 19 21  2  0  0  0  0
 19 40  1  0  0  0  0
 20 22  2  0  0  0  0
 20 41  1  0  0  0  0
 21 53  1  0  0  0  0
 22 42  1  0  0  0  0
 23 25  2  0  0  0  0
 23 57  1  0  0  0  0
 24 26  1  0  0  0  0
 24 58  1  0  0  0  0
 25 64  1  0  0  0  0
 26 75  1  0  0  0  0
 27 85  1  0  0  0  0
 28 86  1  0  0  0  0
 29 31  2  0  0  0  0
 29 85  1  0  0  0  0
 30 87  1  0  0  0  0
 31 88  1  0  0  0  0
 32 68  2  0  0  0  0
 33 69  1  0  0  0  0
 33 73  1  0  0  0  0
 34 54  1  0  0  0  0
 34 70  1  0  0  0  0
 34 79  2  0  0  0  0
 35 74  1  0  0  0  0
 35 80  2  0  0  0  0
 36 55  1  0  0  0  0
 36 76  1  0  0  0  0
 36 81  2  0  0  0  0
 37 65  1  0  0  0  0
 37 71  1  0  0  0  0
 37 82  2  0  0  0  0
 38 66  1  0  0  0  0
 38 77  1  0  0  0  0
 38 83  2  0  0  0  0
 39 72  1  0  0  0  0
 39 75  1  0  0  0  0
 39 84  2  0  0  0  0
 40 43  1  0  0  0  0
 41 55  1  0  0  0  0
 42 71  1  0  0  0  0
 43 47  1  0  0  0  0
 44 45  1  0  0  0  0
 44 48  1  0  0  0  0
 45 50  1  0  0  0  0
 46 49  1  0  0  0  0
 46 51  1  0  0  0  0
 47 53  1  0  0  0  0
 48 54  1  0  0  0  0
 49 56  1  0  0  0  0
 50 70  1  0  0  0  0
 51 72  1  0  0  0  0
 52 56  1  0  0  0  0
 52 72  1  0  0  0  0
 53 76  1  0  0  0  0
 54 86  1  0  0  0  0
 55 71  1  0  0  0  0
 56 69  1  0  0  0  0
 59 66  1  0  0  0  0
 60 67  1  0  0  0  0
 61 67  1  0  0  0  0
 62 67  1  0  0  0  0
 63 78  1  0  0  0  0
 64 70  1  0  0  0  0
 65 67  1  0  0  0  0
 65 77  1  0  0  0  0
 66 78  1  0  0  0  0
 68 69  1  0  0  0  0
M  CHG  1  78   1
M  ISO  4  39 100  54 101  75 100  86 101
M  END
> <Batch ID>
0042

> <Smiles>
CNC(C)C(=O)NC(C(=O)N1Cc2cc([101O:1][101CH:1]3CCCCN(Cc4cc([100NH:0][100C:0](=O)N5CCCC(n6nc(-c7ccc(Oc8ccc(F)cc8F)cc7)c(C(N)=O)c6N)C5)c(C)cc4C)C3=O)ccc2CC1C(=O)NC1CCCc2ccccc21)C(C)(C)C

> <Shape>
0.239

> <Color>
0.092

> <Negative vol penalty>
0.000

$$$$

  -OEChem-04042322123D

 86 95  0     1  0  0  0  0  0999 V2000
  -16.5831  -29.5746   23.8864 C   0  0  0  0  0  0  0  0  0  0  0  0
  -17.4268  -30.3014   23.0542 C   0  0  0  0  0  0  0  0  0  0  0  0
  -24.4093  -12.1107   20.4457 C   0  0  0  0  0  0  0  0  0  0  0  0
  -25.9176  -13.2374   21.9598 C   0  0  0  0  0  0  0  0  0  0  0  0
  -17.0632  -28.4437   24.5435 C   0  0  0  0  0  0  0  0  0  0  0  0
  -18.7475  -29.8909   22.8693 C   0  0  0  0  0  0  0  0  0  0  0  0
  -26.1886  -30.0867   20.0738 C   0  0  0  0  0  0  0  0  0  0  0  0
  -24.9998  -10.8886   20.7669 C   0  0  0  0  0  0  0  0  0  0  0  0
  -26.5081  -12.0152   22.2811 C   0  0  0  0  0  0  0  0  0  0  0  0
  -27.4776  -29.6094   20.3069 C   0  0  0  0  0  0  0  0  0  0  0  0
  -24.8620   -8.6424   23.2906 C   0  0  0  0  0  0  0  0  0  0  0  0
  -24.0178   -7.5615   23.5447 C   0  0  0  0  0  0  0  0  0  0  0  0
  -26.6399  -27.3475   20.2711 C   0  0  0  0  0  0  0  0  0  0  0  0
  -28.7567  -21.9379   21.7218 C   0  0  0  0  0  0  0  0  0  0  0  0
  -29.4979  -22.3080   23.9912 C   0  0  0  0  0  0  0  0  0  0  0  0
  -27.6530  -20.8113   23.5520 C   0  0  0  0  0  0  0  0  0  0  0  0
  -25.0246   -6.3451   21.7161 C   0  0  0  0  0  0  0  0  0  0  0  0
  -24.8683  -13.2852   21.0421 C   0  0  0  0  0  0  0  0  0  0  0  0
  -22.9111  -14.9139   20.8860 C   0  0  0  0  0  0  0  0  0  0  0  0
  -18.3941  -28.0269   24.3758 C   0  0  0  0  0  0  0  0  0  0  0  0
  -25.1120  -29.1971   19.9483 C   0  0  0  0  0  0  0  0  0  0  0  0
  -19.2441  -28.7385   23.5050 C   0  0  0  0  0  0  0  0  0  0  0  0
  -25.3386  -27.8160   20.0339 C   0  0  0  0  0  0  0  0  0  0  0  0
  -29.6187  -22.5602   22.6247 C   0  0  0  0  0  0  0  0  0  0  0  0
  -27.7738  -21.0635   22.1854 C   0  0  0  0  0  0  0  0  0  0  0  0
  -26.0491  -10.8408   21.6846 C   0  0  0  0  0  0  0  0  0  0  0  0
  -27.7030  -28.2397   20.4085 C   0  0  0  0  0  0  0  0  0  0  0  0
  -25.7874   -8.5747   22.2491 C   0  0  0  0  0  0  0  0  0  0  0  0
  -24.0991   -6.4129   22.7576 C   0  0  0  0  0  0  0  0  0  0  0  0
  -25.8688   -7.4260   21.4619 C   0  0  0  0  0  0  0  0  0  0  0  0
  -28.5150  -21.4336   24.4549 C   0  0  0  0  0  0  0  0  0  0  0  0
  -24.2591  -14.5481   20.7103 C   0  0  0  0  0  0  0  0  0  0  0  0
  -22.8417  -16.2037   20.4190 C   0  0  0  0  0  0  0  0  0  0  0  0
  -29.5702  -25.5915   21.4309 C   0  0  0  0  0  0  0  0  0  0  0  0
  -21.8193  -14.1557   21.4234 C   0  0  0  0  0  0  0  0  0  0  0  0
  -22.4176  -28.6949   21.5582 C   0  0  0  0  0  0  0  0  0  0  0  0
  -21.8183  -26.6169   19.1405 C   0  0  0  0  0  0  0  0  0  0  0  0
  -23.6781  -24.1729   17.2470 C   0  0  0  0  0  0  0  0  0  0  0  0
  -26.8817  -20.5734   19.8810 C   0  0  0  0  0  0  0  0  0  0  0  0
  -18.8591  -26.7911   25.1050 C   0  0  0  0  0  0  0  0  0  0  0  0
  -23.7319  -29.7267   19.6704 C   0  0  0  0  0  0  0  0  0  0  0  0
  -24.2201  -26.8181   19.8863 C   0  0  0  0  0  0  0  0  0  0  0  0
  -20.3783  -26.6916   25.1971 C   0  0  0  0  0  0  0  0  0  0  0  0
  -30.4566  -26.8779   23.9102 C   0  0  0  0  0  0  0  0  0  0  0  0
  -24.9096  -19.1637   17.2731 C   0  0  0  0  0  0  0  0  0  0  0  0
  -20.9979  -26.9154   23.8257 C   0  0  0  0  0  0  0  0  0  0  0  0
  -30.1789  -27.7202   22.6827 C   0  0  0  0  0  0  0  0  0  0  0  0
  -24.3914  -17.8564   17.8768 C   0  0  0  0  0  0  0  0  0  0  0  0
  -31.0264  -25.5350   23.4896 C   0  0  0  0  0  0  0  0  0  0  0  0
  -26.3374  -19.4691   17.7225 C   0  0  0  0  0  0  0  0  0  0  0  0
  -26.0288  -18.1490   19.7794 C   0  0  0  0  0  0  0  0  0  0  0  0
  -20.6930  -28.3285   23.3127 C   0  0  1  0  0  0  0  0  0  0  0  0
  -29.1604  -27.0078   21.8147 C   0  0  1  0  0  0  0  0  0  1  0  0
  -22.6268  -28.7545   20.0715 C   0  0  1  0  0  0  0  0  0  0  0  0
  -24.5711  -17.8321   19.4073 C   0  0  2  0  0  0  0  0  0  0  0  0
  -23.3334  -23.3074   14.9169 C   0  0  0  0  0  0  0  0  0  0  0  0
  -20.2403  -24.3936   20.5105 C   0  0  0  0  0  0  0  0  0  0  0  0
  -21.2064  -22.7830   18.8549 C   0  0  0  0  0  0  0  0  0  0  0  0
  -19.7631  -24.6602   18.0701 C   0  0  0  0  0  0  0  0  0  0  0  0
  -26.4378  -24.8851   16.4498 C   0  0  0  0  0  0  0  0  0  0  0  0
  -30.6762  -23.5020   22.1257 C   0  0  0  0  0  0  0  0  0  0  0  0
  -22.1022  -25.1552   18.8921 C   0  0  1  0  0  0  0  0  0  0  0  0
  -24.1045  -24.2814   15.7941 C   0  0  2  0  0  0  0  0  0  0  0  0
  -20.8450  -24.2639   19.0983 C   0  0  0  0  0  0  0  0  0  0  0  0
  -24.9931  -15.5264   20.1734 N   0  0  0  0  0  0  0  0  0  0  0  0
  -24.1031  -16.5196   20.0077 N   0  0  0  0  0  0  0  0  0  0  0  0
  -30.3274  -24.8944   22.3742 N   0  0  0  0  0  0  0  0  0  0  0  0
  -22.8876  -27.3856   19.6218 N   0  0  0  0  0  0  0  0  0  0  0  0
  -26.4307  -19.4328   19.1836 N   0  0  0  0  0  0  0  0  0  0  0  0
  -21.8253  -17.0871   20.3241 N   0  0  0  0  0  0  0  0  0  0  0  0
  -22.0651  -12.8458   21.8571 N   0  0  0  0  0  0  0  0  0  0  0  0
  -26.8975  -20.4321   21.2682 N   0  0  0  0  0  0  0  0  0  0  0  0
  -21.1140  -28.4308   21.9328 N   0  0  0  0  0  0  0  0  0  0  0  0
  -22.6801  -25.0731   17.5550 N   0  0  0  0  0  0  0  0  0  0  0  0
  -25.5589  -23.9866   15.6578 N   0  3  0  0  0  0  0  0  0  0  0  0
  -29.1771  -25.1049   20.3676 O   0  0  0  0  0  0  0  0  0  0  0  0
  -20.6566  -14.6201   21.5010 O   0  0  0  0  0  0  0  0  0  0  0  0
  -23.3688  -28.8737   22.3098 O   0  0  0  0  0  0  0  0  0  0  0  0
  -20.6913  -27.0619   18.9091 O   0  0  0  0  0  0  0  0  0  0  0  0
  -24.1775  -23.3673   18.0294 O   0  0  0  0  0  0  0  0  0  0  0  0
  -27.2026  -21.6091   19.2925 O   0  0  0  0  0  0  0  0  0  0  0  0
  -26.6254   -9.6483   21.9985 O   0  0  0  0  0  0  0  0  0  0  0  0
  -28.9600  -27.7711   20.6366 O   0  0  0  0  0  0  0  0  0  1  0  0
  -23.2894   -5.3744   23.0028 F   0  0  0  0  0  0  0  0  0  0  0  0
  -26.7567   -7.3547   20.4608 F   0  0  0  0  0  0  0  0  0  0  0  0
  -28.3645  -21.1238   26.1411 Cl  0  0  0  0  0  0  0  0  0  0  0  0
  1  2  1  0  0  0  0
  1  5  2  0  0  0  0
  2  6  2  0  0  0  0
  3  8  2  0  0  0  0
  3 18  1  0  0  0  0
  4  9  1  0  0  0  0
  4 18  2  0  0  0  0
  5 20  1  0  0  0  0
  6 22  1  0  0  0  0
  7 10  2  0  0  0  0
  7 21  1  0  0  0  0
  8 26  1  0  0  0  0
  9 26  2  0  0  0  0
 10 27  1  0  0  0  0
 11 12  2  0  0  0  0
 11 28  1  0  0  0  0
 12 29  1  0  0  0  0
 13 23  1  0  0  0  0
 13 27  2  0  0  0  0
 14 24  2  0  0  0  0
 14 25  1  0  0  0  0
 15 24  1  0  0  0  0
 15 31  2  0  0  0  0
 16 25  2  0  0  0  0
 16 31  1  0  0  0  0
 17 29  2  0  0  0  0
 17 30  1  0  0  0  0
 18 32  1  0  0  0  0
 19 32  1  0  0  0  0
 19 33  2  0  0  0  0
 19 35  1  0  0  0  0
 20 22  2  0  0  0  0
 20 40  1  0  0  0  0
 21 23  2  0  0  0  0
 21 41  1  0  0  0  0
 22 52  1  0  0  0  0
 23 42  1  0  0  0  0
 24 61  1  0  0  0  0
 25 72  1  0  0  0  0
 26 82  1  0  0  0  0
 27 83  1  0  0  0  0
 28 30  2  0  0  0  0
 28 82  1  0  0  0  0
 29 84  1  0  0  0  0
 30 85  1  0  0  0  0
 31 86  1  0  0  0  0
 32 65  2  0  0  0  0
 33 66  1  0  0  0  0
 33 70  1  0  0  0  0
 34 53  1  0  0  0  0
 34 67  1  0  0  0  0
 34 76  2  0  0  0  0
 35 71  1  0  0  0  0
 35 77  2  0  0  0  0
 36 54  1  0  0  0  0
 36 73  1  0  0  0  0
 36 78  2  0  0  0  0
 37 62  1  0  0  0  0
 37 68  1  0  0  0  0
 37 79  2  0  0  0  0
 38 63  1  0  0  0  0
 38 74  1  0  0  0  0
 38 80  2  0  0  0  0
 39 69  1  0  0  0  0
 39 72  1  0  0  0  0
 39 81  2  0  0  0  0
 40 43  1  0  0  0  0
 41 54  1  0  0  0  0
 42 68  1  0  0  0  0
 43 46  1  0  0  0  0
 44 47  1  0  0  0  0
 44 49  1  0  0  0  0
 45 48  1  0  0  0  0
 45 50  1  0  0  0  0
 46 52  1  0  0  0  0
 47 53  1  0  0  0  0
 48 55  1  0  0  0  0
 49 67  1  0  0  0  0
 50 69  1  0  0  0  0
 51 55  1  0  0  0  0
 51 69  1  0  0  0  0
 52 73  1  0  0  0  0
 53 83  1  0  0  0  0
 54 68  1  0  0  0  0
 55 66  1  0  0  0  0
 56 63  1  0  0  0  0
 57 64  1  0  0  0  0
 58 64  1  0  0  0  0
 59 64  1  0  0  0  0
 60 75  1  0  0  0  0
 61 67  1  0  0  0  0
 62 64  1  0  0  0  0
 62 74  1  0  0  0  0
 63 75  1  0  0  0  0
 65 66  1  0  0  0  0
M  CHG  1  75   1
M  ISO  4  39 100  53 101  72 100  83 101
M  END
> <Batch ID>
0042

> <Smiles>
CNC(C)C(=O)NC(C(=O)N1Cc2cc([101O:1][101CH:1]3CCCN(Cc4cc(Cl)cc([100NH:0][100C:0](=O)N5CCCC(n6nc(-c7ccc(Oc8ccc(F)cc8F)cc7)c(C(N)=O)c6N)C5)c4)C3=O)ccc2CC1C(=O)NC1CCCc2ccccc21)C(C)(C)C

> <Shape>
0.203

> <Color>
0.093

> <Negative vol penalty>
0.000

$$$$

  -OEChem-04042322123D

 83 91  0     1  0  0  0  0  0999 V2000
  -21.7641  -12.2384   19.7271 C   0  0  0  0  0  0  0  0  0  0  0  0
  -21.5797  -13.5632   20.1098 C   0  0  0  0  0  0  0  0  0  0  0  0
  -18.2654  -27.9556   22.0394 C   0  0  0  0  0  0  0  0  0  0  0  0
  -32.2272  -27.8849   18.5462 C   0  0  0  0  0  0  0  0  0  0  0  0
  -32.0746  -29.5081   20.3292 C   0  0  0  0  0  0  0  0  0  0  0  0
  -23.0239  -11.6512   19.8370 C   0  0  0  0  0  0  0  0  0  0  0  0
  -22.6549  -14.3011   20.6037 C   0  0  0  0  0  0  0  0  0  0  0  0
  -22.8958  -18.9520   18.6147 C   0  0  0  0  0  0  0  0  0  0  0  0
  -19.4859  -28.5848   22.2847 C   0  0  0  0  0  0  0  0  0  0  0  0
  -18.1471  -26.5753   22.2023 C   0  0  0  0  0  0  0  0  0  0  0  0
  -33.2598  -28.6206   17.9648 C   0  0  0  0  0  0  0  0  0  0  0  0
  -33.1072  -30.2438   19.7478 C   0  0  0  0  0  0  0  0  0  0  0  0
  -22.0163  -19.9077   19.1216 C   0  0  0  0  0  0  0  0  0  0  0  0
  -35.6938  -30.2617   15.8186 C   0  0  0  0  0  0  0  0  0  0  0  0
  -35.6467  -30.4711   14.4404 C   0  0  0  0  0  0  0  0  0  0  0  0
  -23.7884  -20.8030   20.4918 C   0  0  0  0  0  0  0  0  0  0  0  0
  -33.5299  -31.6097   14.6858 C   0  0  0  0  0  0  0  0  0  0  0  0
  -31.6345  -28.3287   19.7284 C   0  0  0  0  0  0  0  0  0  0  0  0
  -30.6885  -26.5376   21.2791 C   0  0  0  0  0  0  0  0  0  0  0  0
  -24.1171  -12.3852   20.3234 C   0  0  0  0  0  0  0  0  0  0  0  0
  -24.2277  -18.9077   19.0514 C   0  0  0  0  0  0  0  0  0  0  0  0
  -23.9301  -13.7228   20.7215 C   0  0  0  0  0  0  0  0  0  0  0  0
  -24.6835  -19.8474   19.9869 C   0  0  0  0  0  0  0  0  0  0  0  0
  -20.5881  -27.8336   22.6928 C   0  0  0  0  0  0  0  0  0  0  0  0
  -19.2493  -25.8242   22.6104 C   0  0  0  0  0  0  0  0  0  0  0  0
  -33.6998  -29.8000   18.5656 C   0  0  0  0  0  0  0  0  0  0  0  0
  -22.4618  -20.8315   20.0624 C   0  0  0  0  0  0  0  0  0  0  0  0
  -34.6590  -30.7261   16.6305 C   0  0  0  0  0  0  0  0  0  0  0  0
  -34.5648  -31.1451   13.8740 C   0  0  0  0  0  0  0  0  0  0  0  0
  -33.5771  -31.4001   16.0641 C   0  0  0  0  0  0  0  0  0  0  0  0
  -20.4698  -26.4533   22.8557 C   0  0  0  0  0  0  0  0  0  0  0  0
  -30.5674  -27.5695   20.3291 C   0  0  0  0  0  0  0  0  0  0  0  0
  -29.3957  -26.1454   21.5266 C   0  0  0  0  0  0  0  0  0  0  0  0
  -31.8644  -25.9833   21.8837 C   0  0  0  0  0  0  0  0  0  0  0  0
  -26.0217  -16.7648   20.5657 C   0  0  0  0  0  0  0  0  0  0  0  0
  -28.3890  -18.9004   19.9683 C   0  0  0  0  0  0  0  0  0  0  0  0
  -29.2812  -22.1286   19.3125 C   0  0  0  0  0  0  0  0  0  0  0  0
  -24.2019  -28.4088   22.0865 C   0  0  0  0  0  0  0  0  0  0  0  0
  -25.4494  -11.6933   20.4685 C   0  0  0  0  0  0  0  0  0  0  0  0
  -25.1708  -17.8876   18.4749 C   0  0  0  0  0  0  0  0  0  0  0  0
  -26.1089  -19.8552   20.4732 C   0  0  0  0  0  0  0  0  0  0  0  0
  -26.6196  -12.6566   20.6498 C   0  0  0  0  0  0  0  0  0  0  0  0
  -25.1030  -26.5621   19.1074 C   0  0  0  0  0  0  0  0  0  0  0  0
  -26.2783  -13.7219   21.6868 C   0  0  0  0  0  0  0  0  0  0  0  0
  -26.6286  -26.5347   19.2163 C   0  0  0  0  0  0  0  0  0  0  0  0
  -24.5378  -27.8933   19.5937 C   0  0  0  0  0  0  0  0  0  0  0  0
  -26.4650  -28.2376   21.0907 C   0  0  0  0  0  0  0  0  0  0  0  0
  -25.0773  -14.5634   21.2387 C   0  0  1  0  0  0  0  0  0  0  0  0
  -26.3719  -17.6094   19.3734 C   0  0  1  0  0  0  0  0  0  0  0  0
  -27.0959  -26.9092   20.6353 C   0  0  2  0  0  0  0  0  0  0  0  0
  -31.2933  -23.5734   18.9105 C   0  0  0  0  0  0  0  0  0  0  0  0
  -29.0242  -18.8418   22.9520 C   0  0  0  0  0  0  0  0  0  0  0  0
  -30.3459  -20.9452   22.6411 C   0  0  0  0  0  0  0  0  0  0  0  0
  -31.0301  -18.8581   21.4586 C   0  0  0  0  0  0  0  0  0  0  0  0
  -28.3499  -22.8727   16.6036 C   0  0  0  0  0  0  0  0  0  0  0  0
  -21.8764  -28.5507   22.9403 C   0  0  0  0  0  0  0  0  0  0  0  0
  -19.0759  -24.3428   22.7731 C   0  0  0  0  0  0  0  0  0  0  0  0
  -19.5911  -22.0868   21.8331 C   0  0  0  0  0  0  0  0  0  0  0  0
  -20.2265  -21.4051   20.6373 C   0  0  0  0  0  0  0  0  0  1  0  0
  -28.9608  -20.0937   20.6949 C   0  0  1  0  0  0  0  0  0  0  0  0
  -30.2068  -22.7254   18.2677 C   0  0  2  0  0  0  0  0  0  0  0  0
  -29.8129  -19.6836   21.9291 C   0  0  0  0  0  0  0  0  0  0  0  0
  -29.2979  -27.8170   19.9957 N   0  0  0  0  0  0  0  0  0  0  0  0
  -28.6094  -26.9351   20.7403 N   0  0  0  0  0  0  0  0  0  0  0  0
  -26.9911  -18.8340   19.8845 N   0  0  0  0  0  0  0  0  0  0  0  0
  -25.0054  -28.1816   20.9569 N   0  0  0  0  0  0  0  0  0  0  0  0
  -28.8661  -25.2053   22.3380 N   0  0  0  0  0  0  0  0  0  0  0  0
  -33.1130  -26.5032   21.5163 N   0  0  0  0  0  0  0  0  0  0  0  0
  -25.4828  -15.5336   20.2443 N   0  0  0  0  0  0  0  0  0  0  0  0
  -29.6896  -20.8689   19.6967 N   0  0  0  0  0  0  0  0  0  0  0  0
  -22.8303  -28.3448   21.8733 N   0  0  0  0  0  0  0  0  0  0  0  0
  -29.4371  -23.5843   17.3238 N   0  3  0  0  0  0  0  0  0  0  0  0
  -19.6941  -23.5589   21.6698 N   0  3  0  0  0  0  0  0  0  0  0  0
  -31.8106  -25.0434   22.7126 O   0  0  0  0  0  0  0  0  0  0  0  0
  -26.2266  -17.1975   21.6938 O   0  0  0  0  0  0  0  0  0  0  0  0
  -29.1548  -18.0620   19.4862 O   0  0  0  0  0  0  0  0  0  0  0  0
  -28.2967  -22.7221   19.7472 O   0  0  0  0  0  0  0  0  0  0  0  0
  -24.6721  -28.6460   23.2044 O   0  0  0  0  0  0  0  0  0  0  0  0
  -34.7076  -30.5181   17.9987 O   0  0  0  0  0  0  0  0  0  0  0  0
  -21.6052  -21.7649   20.5593 O   0  0  0  0  0  0  0  0  0  1  0  0
  -34.5204  -31.3476   12.5507 F   0  0  0  0  0  0  0  0  0  0  0  0
  -32.5805  -31.8497   16.8390 F   0  0  0  0  0  0  0  0  0  0  0  0
  -21.8389  -25.5208   23.3605 Cl  0  0  0  0  0  0  0  0  0  0  0  0
  1  2  1  0  0  0  0
  1  6  2  0  0  0  0
  2  7  2  0  0  0  0
  3  9  1  0  0  0  0
  3 10  2  0  0  0  0
  4 11  2  0  0  0  0
  4 18  1  0  0  0  0
  5 12  1  0  0  0  0
  5 18  2  0  0  0  0
  6 20  1  0  0  0  0
  7 22  1  0  0  0  0
  8 13  2  0  0  0  0
  8 21  1  0  0  0  0
  9 24  2  0  0  0  0
 10 25  1  0  0  0  0
 11 26  1  0  0  0  0
 12 26  2  0  0  0  0
 13 27  1  0  0  0  0
 14 15  2  0  0  0  0
 14 28  1  0  0  0  0
 15 29  1  0  0  0  0
 16 23  1  0  0  0  0
 16 27  2  0  0  0  0
 17 29  2  0  0  0  0
 17 30  1  0  0  0  0
 18 32  1  0  0  0  0
 19 32  1  0  0  0  0
 19 33  2  0  0  0  0
 19 34  1  0  0  0  0
 20 22  2  0  0  0  0
 20 39  1  0  0  0  0
 21 23  2  0  0  0  0
 21 40  1  0  0  0  0
 22 48  1  0  0  0  0
 23 41  1  0  0  0  0
 24 31  1  0  0  0  0
 24 56  1  0  0  0  0
 25 31  2  0  0  0  0
 25 57  1  0  0  0  0
 26 79  1  0  0  0  0
 27 80  1  0  0  0  0
 28 30  2  0  0  0  0
 28 79  1  0  0  0  0
 29 81  1  0  0  0  0
 30 82  1  0  0  0  0
 31 83  1  0  0  0  0
 32 63  2  0  0  0  0
 33 64  1  0  0  0  0
 33 67  1  0  0  0  0
 34 68  1  0  0  0  0
 34 74  2  0  0  0  0
 35 49  1  0  0  0  0
 35 69  1  0  0  0  0
 35 75  2  0  0  0  0
 36 60  1  0  0  0  0
 36 65  1  0  0  0  0
 36 76  2  0  0  0  0
 37 61  1  0  0  0  0
 37 70  1  0  0  0  0
 37 77  2  0  0  0  0
 38 66  1  0  0  0  0
 38 71  1  0  0  0  0
 38 78  2  0  0  0  0
 39 42  1  0  0  0  0
 40 49  1  0  0  0  0
 41 65  1  0  0  0  0
 42 44  1  0  0  0  0
 43 45  1  0  0  0  0
 43 46  1  0  0  0  0
 44 48  1  0  0  0  0
 45 50  1  0  0  0  0
 46 66  1  0  0  0  0
 47 50  1  0  0  0  0
 47 66  1  0  0  0  0
 48 69  1  0  0  0  0
 49 65  1  0  0  0  0
 50 64  1  0  0  0  0
 51 61  1  0  0  0  0
 52 62  1  0  0  0  0
 53 62  1  0  0  0  0
 54 62  1  0  0  0  0
 55 72  1  0  0  0  0
 56 71  1  0  0  0  0
 57 73  1  0  0  0  0
 58 59  1  0  0  0  0
 58 73  1  0  0  0  0
 59 80  1  0  0  0  0
 60 62  1  0  0  0  0
 60 70  1  0  0  0  0
 61 72  1  0  0  0  0
 63 64  1  0  0  0  0
M  CHG  2  72   1  73   1
M  ISO  4  38 100  59 101  71 100  80 101
M  END
> <Batch ID>
0042

> <Smiles>
CNC(C)C(=O)NC(C(=O)N1Cc2cc([101O:1][101CH2:1]CNCc3cccc(C[100NH:0][100C:0](=O)N4CCCC(n5nc(-c6ccc(Oc7ccc(F)cc7F)cc6)c(C(N)=O)c5N)C4)c3Cl)ccc2CC1C(=O)NC1CCCc2ccccc21)C(C)(C)C

> <Shape>
0.227

> <Color>
0.071

> <Negative vol penalty>
0.000

$$$$

  -OEChem-04042322123D

 85 93  0     1  0  0  0  0  0999 V2000
  -15.9334  -26.4204   22.9403 C   0  0  0  0  0  0  0  0  0  0  0  0
  -16.4997  -25.1736   22.6952 C   0  0  0  0  0  0  0  0  0  0  0  0
  -28.9562  -24.3484   19.4900 C   0  0  0  0  0  0  0  0  0  0  0  0
  -30.6393  -23.2751   18.1290 C   0  0  0  0  0  0  0  0  0  0  0  0
  -16.7357  -27.5606   22.9442 C   0  0  0  0  0  0  0  0  0  0  0  0
  -17.8687  -25.0664   22.4526 C   0  0  0  0  0  0  0  0  0  0  0  0
  -21.5522  -20.4635   24.1110 C   0  0  0  0  0  0  0  0  0  0  0  0
  -29.5585  -25.5852   19.2595 C   0  0  0  0  0  0  0  0  0  0  0  0
  -31.2416  -24.5120   17.8985 C   0  0  0  0  0  0  0  0  0  0  0  0
  -22.0425  -19.3580   23.4174 C   0  0  0  0  0  0  0  0  0  0  0  0
  -32.2289  -27.3079   20.4109 C   0  0  0  0  0  0  0  0  0  0  0  0
  -32.4012  -28.1576   21.5035 C   0  0  0  0  0  0  0  0  0  0  0  0
  -24.0729  -20.5682   22.9357 C   0  0  0  0  0  0  0  0  0  0  0  0
  -26.9928  -12.3694   18.8310 C   0  0  0  0  0  0  0  0  0  0  0  0
  -31.0351  -29.8293   20.4188 C   0  0  0  0  0  0  0  0  0  0  0  0
  -29.2093  -11.5521   19.3369 C   0  0  0  0  0  0  0  0  0  0  0  0
  -29.4966  -23.1933   18.9248 C   0  0  0  0  0  0  0  0  0  0  0  0
  -27.8654  -21.3048   18.3952 C   0  0  0  0  0  0  0  0  0  0  0  0
  -18.1168  -27.4662   22.7111 C   0  0  0  0  0  0  0  0  0  0  0  0
  -22.3154  -21.6355   24.2131 C   0  0  0  0  0  0  0  0  0  0  0  0
  -18.6900  -26.2066   22.4519 C   0  0  0  0  0  0  0  0  0  0  0  0
  -23.5911  -21.6864   23.6334 C   0  0  0  0  0  0  0  0  0  0  0  0
  -27.3507  -13.6323   19.3028 C   0  0  0  0  0  0  0  0  0  0  0  0
  -28.6380  -13.8552   19.7915 C   0  0  0  0  0  0  0  0  0  0  0  0
  -30.7012  -25.6670   18.4638 C   0  0  0  0  0  0  0  0  0  0  0  0
  -23.3018  -19.4112   22.8271 C   0  0  0  0  0  0  0  0  0  0  0  0
  -31.4598  -27.7188   19.3222 C   0  0  0  0  0  0  0  0  0  0  0  0
  -31.8043  -29.4183   21.5075 C   0  0  0  0  0  0  0  0  0  0  0  0
  -30.8629  -28.9795   19.3262 C   0  0  0  0  0  0  0  0  0  0  0  0
  -27.9221  -11.3293   18.8482 C   0  0  0  0  0  0  0  0  0  0  0  0
  -29.5673  -12.8151   19.8086 C   0  0  0  0  0  0  0  0  0  0  0  0
  -28.8752  -21.9154   19.1629 C   0  0  0  0  0  0  0  0  0  0  0  0
  -27.6224  -20.1130   19.0331 C   0  0  0  0  0  0  0  0  0  0  0  0
  -27.2062  -21.7732   17.2113 C   0  0  0  0  0  0  0  0  0  0  0  0
  -21.9388  -24.6469   23.2678 C   0  0  0  0  0  0  0  0  0  0  0  0
  -24.6690  -25.1088   24.9574 C   0  0  0  0  0  0  0  0  0  0  0  0
  -24.7984  -15.9495   20.8156 C   0  0  0  0  0  0  0  0  0  0  0  0
  -27.5298  -23.7802   26.2603 C   0  0  0  0  0  0  0  0  0  0  0  0
  -29.4154  -15.4818   21.5511 C   0  0  0  0  0  0  0  0  0  0  0  0
  -18.9356  -28.7324   22.6783 C   0  0  0  0  0  0  0  0  0  0  0  0
  -21.7832  -22.8100   24.9876 C   0  0  0  0  0  0  0  0  0  0  0  0
  -24.4583  -22.9138   23.7315 C   0  0  0  0  0  0  0  0  0  0  0  0
  -20.4389  -28.4884   22.7833 C   0  0  0  0  0  0  0  0  0  0  0  0
  -29.1627  -18.4191   23.5475 C   0  0  0  0  0  0  0  0  0  0  0  0
  -20.8646  -27.3662   21.8419 C   0  0  0  0  0  0  0  0  0  0  0  0
  -28.9823  -19.5403   22.5216 C   0  0  0  0  0  0  0  0  0  0  0  0
  -30.1189  -17.3389   23.0449 C   0  0  0  0  0  0  0  0  0  0  0  0
  -29.6074  -17.9020   20.7017 C   0  0  0  0  0  0  0  0  0  0  0  0
  -20.1751  -26.0467   22.2091 C   0  0  1  0  0  0  0  0  0  0  0  0
  -22.4330  -24.1318   24.5900 C   0  0  1  0  0  0  0  0  0  0  0  0
  -28.6023  -18.9811   21.1365 C   0  0  2  0  0  0  0  0  0  0  0  0
  -29.5825  -24.4126   27.5578 C   0  0  0  0  0  0  0  0  0  0  0  0
  -25.8526  -26.3919   22.4548 C   0  0  0  0  0  0  0  0  0  0  0  0
  -28.1221  -26.1315   23.4793 C   0  0  0  0  0  0  0  0  0  0  0  0
  -26.4104  -27.5649   24.5919 C   0  0  0  0  0  0  0  0  0  0  0  0
  -26.8379  -21.9421   28.4744 C   0  0  0  0  0  0  0  0  0  0  0  0
  -26.3276  -14.7306   19.2710 C   0  0  0  0  0  0  0  0  0  0  0  0
  -24.4317  -16.0209   22.2897 C   0  0  0  0  0  0  0  0  0  0  0  0
  -23.3471  -17.0460   22.5829 C   0  0  0  0  0  0  0  0  0  1  0  0
  -26.1442  -25.0512   24.6420 C   0  0  1  0  0  0  0  0  0  0  0  0
  -28.1558  -23.8924   27.6387 C   0  0  2  0  0  0  0  0  0  0  0  0
  -26.6154  -26.2623   23.7883 C   0  0  0  0  0  0  0  0  0  0  0  0
  -29.2480  -21.1728   20.2087 N   0  0  0  0  0  0  0  0  0  0  0  0
  -28.4682  -20.0834   20.1026 N   0  0  0  0  0  0  0  0  0  0  0  0
  -23.8912  -24.0384   24.4938 N   0  0  0  0  0  0  0  0  0  0  0  0
  -29.6937  -16.8534   21.7302 N   0  0  0  0  0  0  0  0  0  0  0  0
  -26.7698  -19.0979   18.7779 N   0  0  0  0  0  0  0  0  0  0  0  0
  -27.5772  -23.0195   16.6885 N   0  0  0  0  0  0  0  0  0  0  0  0
  -28.9883  -15.1430   20.2676 N   0  0  0  0  0  0  0  0  0  0  0  0
  -20.8147  -25.4453   23.3596 N   0  0  0  0  0  0  0  0  0  0  0  0
  -25.7890  -15.0062   20.5835 N   0  0  0  0  0  0  0  0  0  0  0  0
  -26.8306  -24.9196   25.9226 N   0  0  0  0  0  0  0  0  0  0  0  0
  -28.1782  -22.5608   28.3075 N   0  3  0  0  0  0  0  0  0  0  0  0
  -26.3029  -21.1135   16.6434 O   0  0  0  0  0  0  0  0  0  0  0  0
  -22.5342  -24.3436   22.2405 O   0  0  0  0  0  0  0  0  0  0  0  0
  -24.2245  -26.0648   25.5979 O   0  0  0  0  0  0  0  0  0  0  0  0
  -24.2705  -16.6491   19.9555 O   0  0  0  0  0  0  0  0  0  0  0  0
  -27.6521  -22.7829   25.5524 O   0  0  0  0  0  0  0  0  0  0  0  0
  -29.5203  -14.6722   22.4760 O   0  0  0  0  0  0  0  0  0  0  0  0
  -31.2890  -26.8738   18.2385 O   0  0  0  0  0  0  0  0  0  0  0  0
  -23.7826  -18.3338   22.1490 O   0  0  0  0  0  0  0  0  0  1  0  0
  -31.9686  -30.2336   22.5575 F   0  0  0  0  0  0  0  0  0  0  0  0
  -30.1219  -29.3794   18.2837 F   0  0  0  0  0  0  0  0  0  0  0  0
  -27.4799   -9.7711   18.2660 Cl  0  0  0  0  0  0  0  0  0  0  0  0
  -31.1732  -13.0443   20.4047 Cl  0  0  0  0  0  0  0  0  0  0  0  0
  1  2  1  0  0  0  0
  1  5  2  0  0  0  0
  2  6  2  0  0  0  0
  3  8  2  0  0  0  0
  3 17  1  0  0  0  0
  4  9  1  0  0  0  0
  4 17  2  0  0  0  0
  5 19  1  0  0  0  0
  6 21  1  0  0  0  0
  7 10  2  0  0  0  0
  7 20  1  0  0  0  0
  8 25  1  0  0  0  0
  9 25  2  0  0  0  0
 10 26  1  0  0  0  0
 11 12  2  0  0  0  0
 11 27  1  0  0  0  0
 12 28  1  0  0  0  0
 13 22  1  0  0  0  0
 13 26  2  0  0  0  0
 14 23  1  0  0  0  0
 14 30  2  0  0  0  0
 15 28  2  0  0  0  0
 15 29  1  0  0  0  0
 16 30  1  0  0  0  0
 16 31  2  0  0  0  0
 17 32  1  0  0  0  0
 18 32  1  0  0  0  0
 18 33  2  0  0  0  0
 18 34  1  0  0  0  0
 19 21  2  0  0  0  0
 19 40  1  0  0  0  0
 20 22  2  0  0  0  0
 20 41  1  0  0  0  0
 21 49  1  0  0  0  0
 22 42  1  0  0  0  0
 23 24  2  0  0  0  0
 23 57  1  0  0  0  0
 24 31  1  0  0  0  0
 24 69  1  0  0  0  0
 25 80  1  0  0  0  0
 26 81  1  0  0  0  0
 27 29  2  0  0  0  0
 27 80  1  0  0  0  0
 28 82  1  0  0  0  0
 29 83  1  0  0  0  0
 30 84  1  0  0  0  0
 31 85  1  0  0  0  0
 32 63  2  0  0  0  0
 33 64  1  0  0  0  0
 33 67  1  0  0  0  0
 34 68  1  0  0  0  0
 34 74  2  0  0  0  0
 35 50  1  0  0  0  0
 35 70  1  0  0  0  0
 35 75  2  0  0  0  0
 36 60  1  0  0  0  0
 36 65  1  0  0  0  0
 36 76  2  0  0  0  0
 37 58  1  0  0  0  0
 37 71  1  0  0  0  0
 37 77  2  0  0  0  0
 38 61  1  0  0  0  0
 38 72  1  0  0  0  0
 38 78  2  0  0  0  0
 39 66  1  0  0  0  0
 39 69  1  0  0  0  0
 39 79  2  0  0  0  0
 40 43  1  0  0  0  0
 41 50  1  0  0  0  0
 42 65  1  0  0  0  0
 43 45  1  0  0  0  0
 44 46  1  0  0  0  0
 44 47  1  0  0  0  0
 45 49  1  0  0  0  0
 46 51  1  0  0  0  0
 47 66  1  0  0  0  0
 48 51  1  0  0  0  0
 48 66  1  0  0  0  0
 49 70  1  0  0  0  0
 50 65  1  0  0  0  0
 51 64  1  0  0  0  0
 52 61  1  0  0  0  0
 53 62  1  0  0  0  0
 54 62  1  0  0  0  0
 55 62  1  0  0  0  0
 56 73  1  0  0  0  0
 57 71  1  0  0  0  0
 58 59  1  0  0  0  0
 59 81  1  0  0  0  0
 60 62  1  0  0  0  0
 60 72  1  0  0  0  0
 61 73  1  0  0  0  0
 63 64  1  0  0  0  0
M  CHG  1  73   1
M  ISO  4  39 100  59 101  69 100  81 101
M  END
> <Batch ID>
0042

> <Smiles>
CNC(C)C(=O)NC(C(=O)N1Cc2cc([101O:1][101CH2:1]CC(=O)NCc3cc(Cl)cc(Cl)c3[100NH:0][100C:0](=O)N3CCCC(n4nc(-c5ccc(Oc6ccc(F)cc6F)cc5)c(C(N)=O)c4N)C3)ccc2CC1C(=O)NC1CCCc2ccccc21)C(C)(C)C

> <Shape>
0.212

> <Color>
0.052

> <Negative vol penalty>
0.000

$$$$

  -OEChem-04042322123D

 82 90  0     1  0  0  0  0  0999 V2000
  -40.7742  -30.7040   18.9589 C   0  0  0  0  0  0  0  0  0  0  0  0
  -40.6934  -29.4003   19.4377 C   0  0  0  0  0  0  0  0  0  0  0  0
  -23.0791   -9.8613   19.9530 C   0  0  0  0  0  0  0  0  0  0  0  0
  -23.8315   -9.8894   22.2487 C   0  0  0  0  0  0  0  0  0  0  0  0
  -39.7439  -31.6064   19.2196 C   0  0  0  0  0  0  0  0  0  0  0  0
  -39.5825  -28.9985   20.1785 C   0  0  0  0  0  0  0  0  0  0  0  0
  -36.9544  -23.4669   20.1670 C   0  0  0  0  0  0  0  0  0  0  0  0
  -31.8715  -18.3844   24.1553 C   0  0  0  0  0  0  0  0  0  0  0  0
  -30.4847  -18.3788   24.0067 C   0  0  0  0  0  0  0  0  0  0  0  0
  -22.3353   -8.7099   20.2108 C   0  0  0  0  0  0  0  0  0  0  0  0
  -23.0876   -8.7379   22.5066 C   0  0  0  0  0  0  0  0  0  0  0  0
  -37.0612  -22.3759   21.0285 C   0  0  0  0  0  0  0  0  0  0  0  0
  -19.3829   -7.9240   21.6595 C   0  0  0  0  0  0  0  0  0  0  0  0
  -18.0776   -7.8724   21.1704 C   0  0  0  0  0  0  0  0  0  0  0  0
  -35.0834  -23.1126   22.1968 C   0  0  0  0  0  0  0  0  0  0  0  0
  -32.0543  -16.6181   22.5170 C   0  0  0  0  0  0  0  0  0  0  0  0
  -18.6431   -5.9180   19.8674 C   0  0  0  0  0  0  0  0  0  0  0  0
  -23.8272  -10.4511   20.9720 C   0  0  0  0  0  0  0  0  0  0  0  0
  -24.1676  -12.9753   20.8305 C   0  0  0  0  0  0  0  0  0  0  0  0
  -38.6153  -31.2127   19.9558 C   0  0  0  0  0  0  0  0  0  0  0  0
  -35.9158  -24.3965   20.3211 C   0  0  0  0  0  0  0  0  0  0  0  0
  -38.5367  -29.8969   20.4506 C   0  0  0  0  0  0  0  0  0  0  0  0
  -34.9642  -24.2131   21.3344 C   0  0  0  0  0  0  0  0  0  0  0  0
  -32.6564  -17.5041   23.4104 C   0  0  0  0  0  0  0  0  0  0  0  0
  -29.8825  -17.4928   23.1133 C   0  0  0  0  0  0  0  0  0  0  0  0
  -30.6673  -16.6124   22.3685 C   0  0  0  0  0  0  0  0  0  0  0  0
  -22.3395   -8.1482   21.4876 C   0  0  0  0  0  0  0  0  0  0  0  0
  -36.1273  -22.2002   22.0454 C   0  0  0  0  0  0  0  0  0  0  0  0
  -20.3183   -6.9726   21.2525 C   0  0  0  0  0  0  0  0  0  0  0  0
  -17.7077   -6.8694   20.2744 C   0  0  0  0  0  0  0  0  0  0  0  0
  -19.9484   -5.9697   20.3565 C   0  0  0  0  0  0  0  0  0  0  0  0
  -24.5963  -11.6402   20.7061 C   0  0  0  0  0  0  0  0  0  0  0  0
  -25.2603  -13.7224   20.4641 C   0  0  0  0  0  0  0  0  0  0  0  0
  -22.8953  -13.4938   21.2407 C   0  0  0  0  0  0  0  0  0  0  0  0
  -35.7656  -27.5065   20.9606 C   0  0  0  0  0  0  0  0  0  0  0  0
  -32.5999  -27.0715   20.4027 C   0  0  0  0  0  0  0  0  0  0  0  0
  -29.9415  -24.9334   20.3087 C   0  0  0  0  0  0  0  0  0  0  0  0
  -30.7252  -14.7737   20.6474 C   0  0  0  0  0  0  0  0  0  0  0  0
  -37.5487  -32.2369   20.2527 C   0  0  0  0  0  0  0  0  0  0  0  0
  -35.7992  -25.5533   19.3669 C   0  0  0  0  0  0  0  0  0  0  0  0
  -33.8187  -25.1714   21.5294 C   0  0  0  0  0  0  0  0  0  0  0  0
  -36.2324  -31.6258   20.7261 C   0  0  0  0  0  0  0  0  0  0  0  0
  -29.6203  -12.3380   18.2971 C   0  0  0  0  0  0  0  0  0  0  0  0
  -36.4889  -30.5667   21.7935 C   0  0  0  0  0  0  0  0  0  0  0  0
  -28.1795  -12.0491   18.7246 C   0  0  0  0  0  0  0  0  0  0  0  0
  -30.5313  -12.5782   19.4997 C   0  0  0  0  0  0  0  0  0  0  0  0
  -28.6193  -13.3135   20.8682 C   0  0  0  0  0  0  0  0  0  0  0  0
  -37.3363  -29.4163   21.2369 C   0  0  1  0  0  0  0  0  0  0  0  0
  -34.9975  -26.7194   19.9368 C   0  0  1  0  0  0  0  0  0  0  0  0
  -27.6505  -13.1290   19.6887 C   0  0  2  0  0  0  0  0  0  0  0  0
  -28.3947  -17.5083   22.9753 C   0  0  0  0  0  0  0  0  0  0  0  0
  -27.4741  -24.8769   19.8550 C   0  0  0  0  0  0  0  0  0  0  0  0
  -32.0727  -28.3460   23.1243 C   0  0  0  0  0  0  0  0  0  0  0  0
  -29.7507  -27.4142   23.0332 C   0  0  0  0  0  0  0  0  0  0  0  0
  -30.5004  -29.0607   21.3156 C   0  0  0  0  0  0  0  0  0  0  0  0
  -30.2814  -23.0441   18.0561 C   0  0  0  0  0  0  0  0  0  0  0  0
  -34.1481  -17.5109   23.5708 C   0  0  0  0  0  0  0  0  0  0  0  0
  -36.2707  -18.7419   23.1037 C   0  0  0  0  0  0  0  0  0  0  0  0
  -36.8174  -19.9467   22.3636 C   0  0  0  0  0  0  0  0  0  1  0  0
  -31.4061  -26.7011   21.2492 C   0  0  1  0  0  0  0  0  0  0  0  0
  -28.8647  -24.7105   19.2622 C   0  0  2  0  0  0  0  0  0  0  0  0
  -30.9551  -27.8633   22.1784 C   0  0  0  0  0  0  0  0  0  0  0  0
  -25.8626  -11.5416   20.2928 N   0  0  0  0  0  0  0  0  0  0  0  0
  -26.2389  -12.8243   20.1543 N   0  0  0  0  0  0  0  0  0  0  0  0
  -33.7514  -26.2903   20.5749 N   0  0  0  0  0  0  0  0  0  0  0  0
  -29.9687  -13.6164   20.3660 N   0  0  0  0  0  0  0  0  0  0  0  0
  -25.4700  -15.0533   20.3799 N   0  0  0  0  0  0  0  0  0  0  0  0
  -21.8830  -12.5869   21.5827 N   0  0  0  0  0  0  0  0  0  0  0  0
  -30.0744  -15.7055   21.4554 N   0  0  0  0  0  0  0  0  0  0  0  0
  -36.5220  -28.5336   20.4293 N   0  0  0  0  0  0  0  0  0  0  0  0
  -30.3760  -26.2419   20.3238 N   0  0  0  0  0  0  0  0  0  0  0  0
  -28.9717  -23.3373   18.6931 N   0  3  0  0  0  0  0  0  0  0  0  0
  -34.7999  -18.6749   22.9119 N   0  3  0  0  0  0  0  0  0  0  0  0
  -22.6580  -14.7247   21.2862 O   0  0  0  0  0  0  0  0  0  0  0  0
  -35.6773  -27.2052   22.1452 O   0  0  0  0  0  0  0  0  0  0  0  0
  -32.5116  -28.0144   19.6123 O   0  0  0  0  0  0  0  0  0  0  0  0
  -30.3533  -24.0372   21.0421 O   0  0  0  0  0  0  0  0  0  0  0  0
  -31.8556  -14.9391   20.1820 O   0  0  0  0  0  0  0  0  0  0  0  0
  -21.6136   -7.0247   21.7396 O   0  0  0  0  0  0  0  0  0  0  0  0
  -36.2295  -21.1365   22.8880 O   0  0  0  0  0  0  0  0  0  1  0  0
  -16.4538   -6.8191   19.8060 F   0  0  0  0  0  0  0  0  0  0  0  0
  -20.8423   -5.0522   19.9628 F   0  0  0  0  0  0  0  0  0  0  0  0
  1  2  1  0  0  0  0
  1  5  2  0  0  0  0
  2  6  2  0  0  0  0
  3 10  2  0  0  0  0
  3 18  1  0  0  0  0
  4 11  1  0  0  0  0
  4 18  2  0  0  0  0
  5 20  1  0  0  0  0
  6 22  1  0  0  0  0
  7 12  2  0  0  0  0
  7 21  1  0  0  0  0
  8  9  2  0  0  0  0
  8 24  1  0  0  0  0
  9 25  1  0  0  0  0
 10 27  1  0  0  0  0
 11 27  2  0  0  0  0
 12 28  1  0  0  0  0
 13 14  2  0  0  0  0
 13 29  1  0  0  0  0
 14 30  1  0  0  0  0
 15 23  1  0  0  0  0
 15 28  2  0  0  0  0
 16 24  2  0  0  0  0
 16 26  1  0  0  0  0
 17 30  2  0  0  0  0
 17 31  1  0  0  0  0
 18 32  1  0  0  0  0
 19 32  1  0  0  0  0
 19 33  2  0  0  0  0
 19 34  1  0  0  0  0
 20 22  2  0  0  0  0
 20 39  1  0  0  0  0
 21 23  2  0  0  0  0
 21 40  1  0  0  0  0
 22 48  1  0  0  0  0
 23 41  1  0  0  0  0
 24 57  1  0  0  0  0
 25 26  2  0  0  0  0
 25 51  1  0  0  0  0
 26 69  1  0  0  0  0
 27 79  1  0  0  0  0
 28 80  1  0  0  0  0
 29 31  2  0  0  0  0
 29 79  1  0  0  0  0
 30 81  1  0  0  0  0
 31 82  1  0  0  0  0
 32 63  2  0  0  0  0
 33 64  1  0  0  0  0
 33 67  1  0  0  0  0
 34 68  1  0  0  0  0
 34 74  2  0  0  0  0
 35 49  1  0  0  0  0
 35 70  1  0  0  0  0
 35 75  2  0  0  0  0
 36 60  1  0  0  0  0
 36 65  1  0  0  0  0
 36 76  2  0  0  0  0
 37 61  1  0  0  0  0
 37 71  1  0  0  0  0
 37 77  2  0  0  0  0
 38 66  1  0  0  0  0
 38 69  1  0  0  0  0
 38 78  2  0  0  0  0
 39 42  1  0  0  0  0
 40 49  1  0  0  0  0
 41 65  1  0  0  0  0
 42 44  1  0  0  0  0
 43 45  1  0  0  0  0
 43 46  1  0  0  0  0
 44 48  1  0  0  0  0
 45 50  1  0  0  0  0
 46 66  1  0  0  0  0
 47 50  1  0  0  0  0
 47 66  1  0  0  0  0
 48 70  1  0  0  0  0
 49 65  1  0  0  0  0
 50 64  1  0  0  0  0
 52 61  1  0  0  0  0
 53 62  1  0  0  0  0
 54 62  1  0  0  0  0
 55 62  1  0  0  0  0
 56 72  1  0  0  0  0
 57 73  1  0  0  0  0
 58 59  1  0  0  0  0
 58 73  1  0  0  0  0
 59 80  1  0  0  0  0
 60 62  1  0  0  0  0
 60 71  1  0  0  0  0
 61 72  1  0  0  0  0
 63 64  1  0  0  0  0
M  CHG  2  72   1  73   1
M  ISO  4  38 100  59 101  69 100  80 101
M  END
> <Batch ID>
0042

> <Smiles>
CNC(C)C(=O)NC(C(=O)N1Cc2cc([101O:1][101CH2:1]CNCc3ccc(C)c([100NH:0][100C:0](=O)N4CCCC(n5nc(-c6ccc(Oc7ccc(F)cc7F)cc6)c(C(N)=O)c5N)C4)c3)ccc2CC1C(=O)NC1CCCc2ccccc21)C(C)(C)C

> <Shape>
0.197

> <Color>
0.192

> <Negative vol penalty>
0.000

$$$$

  -OEChem-04042322123D

 87 96  0     1  0  0  0  0  0999 V2000
  -20.4695  -31.8400   22.8752 C   0  0  0  0  0  0  0  0  0  0  0  0
  -21.3435  -30.8378   23.2842 C   0  0  0  0  0  0  0  0  0  0  0  0
  -23.0084  -10.6363   22.0057 C   0  0  0  0  0  0  0  0  0  0  0  0
  -23.7961   -9.4050   20.0821 C   0  0  0  0  0  0  0  0  0  0  0  0
  -19.0989  -31.5894   22.8230 C   0  0  0  0  0  0  0  0  0  0  0  0
  -20.8473  -29.5849   23.6423 C   0  0  0  0  0  0  0  0  0  0  0  0
  -23.5477  -25.7869   21.6603 C   0  0  0  0  0  0  0  0  0  0  0  0
  -22.2379   -9.5397   22.3922 C   0  0  0  0  0  0  0  0  0  0  0  0
  -23.0256   -8.3083   20.4685 C   0  0  0  0  0  0  0  0  0  0  0  0
  -24.7582  -25.4761   22.2782 C   0  0  0  0  0  0  0  0  0  0  0  0
  -23.2252   -5.7950   22.7188 C   0  0  0  0  0  0  0  0  0  0  0  0
  -23.8237   -4.5359   22.6730 C   0  0  0  0  0  0  0  0  0  0  0  0
  -23.6963  -23.6347   23.4187 C   0  0  0  0  0  0  0  0  0  0  0  0
  -28.9720  -18.4770   21.3775 C   0  0  0  0  0  0  0  0  0  0  0  0
  -30.9496  -17.9489   20.0942 C   0  0  0  0  0  0  0  0  0  0  0  0
  -22.1471   -3.7961   21.0986 C   0  0  0  0  0  0  0  0  0  0  0  0
  -23.7875  -10.5690   20.8507 C   0  0  0  0  0  0  0  0  0  0  0  0
  -24.1242  -12.9953   20.1385 C   0  0  0  0  0  0  0  0  0  0  0  0
  -18.5865  -30.3298   23.1714 C   0  0  0  0  0  0  0  0  0  0  0  0
  -22.3979  -25.0293   21.9257 C   0  0  0  0  0  0  0  0  0  0  0  0
  -19.4684  -29.3177   23.5960 C   0  0  0  0  0  0  0  0  0  0  0  0
  -22.4730  -23.9363   22.8008 C   0  0  0  0  0  0  0  0  0  0  0  0
  -29.1213  -19.8253   21.0527 C   0  0  0  0  0  0  0  0  0  0  0  0
  -30.1847  -20.2354   20.2486 C   0  0  0  0  0  0  0  0  0  0  0  0
  -29.8862  -17.5388   20.8983 C   0  0  0  0  0  0  0  0  0  0  0  0
  -22.2465   -8.3757   21.6236 C   0  0  0  0  0  0  0  0  0  0  0  0
  -24.8320  -24.4017   23.1598 C   0  0  0  0  0  0  0  0  0  0  0  0
  -22.0875   -6.0546   21.9545 C   0  0  0  0  0  0  0  0  0  0  0  0
  -23.2847   -3.5365   21.8629 C   0  0  0  0  0  0  0  0  0  0  0  0
  -21.5485   -5.0552   21.1444 C   0  0  0  0  0  0  0  0  0  0  0  0
  -31.0989  -19.2971   19.7693 C   0  0  0  0  0  0  0  0  0  0  0  0
  -24.5832  -11.7016   20.4507 C   0  0  0  0  0  0  0  0  0  0  0  0
  -25.2622  -13.6966   19.8228 C   0  0  0  0  0  0  0  0  0  0  0  0
  -27.9066  -22.8705   22.8545 C   0  0  0  0  0  0  0  0  0  0  0  0
  -28.4841  -23.9943   22.3986 C   0  0  0  0  0  0  0  0  0  0  0  0
  -22.7885  -13.5166   20.1345 C   0  0  0  0  0  0  0  0  0  0  0  0
  -19.5485  -25.6457   23.1924 C   0  0  0  0  0  0  0  0  0  0  0  0
  -18.9282  -22.5859   22.3117 C   0  0  0  0  0  0  0  0  0  0  0  0
  -20.6674  -19.4253   22.3685 C   0  0  0  0  0  0  0  0  0  0  0  0
  -30.5515  -15.1098   20.8367 C   0  0  0  0  0  0  0  0  0  0  0  0
  -17.0931  -30.1208   23.1445 C   0  0  0  0  0  0  0  0  0  0  0  0
  -21.1060  -25.3611   21.2305 C   0  0  0  0  0  0  0  0  0  0  0  0
  -21.2723  -23.0791   23.1039 C   0  0  0  0  0  0  0  0  0  0  0  0
  -16.6831  -28.6508   23.1816 C   0  0  0  0  0  0  0  0  0  0  0  0
  -29.9976  -12.1005   19.0163 C   0  0  0  0  0  0  0  0  0  0  0  0
  -27.3839  -20.7223   24.6797 C   0  0  0  0  0  0  0  0  0  0  0  0
  -17.4653  -27.9054   24.2583 C   0  0  0  0  0  0  0  0  0  0  0  0
  -26.6502  -22.0483   24.8455 C   0  0  0  0  0  0  0  0  0  0  0  0
  -28.5018  -11.8348   19.2015 C   0  0  0  0  0  0  0  0  0  0  0  0
  -30.6291  -12.6902   20.2761 C   0  0  0  0  0  0  0  0  0  0  0  0
  -28.4621  -13.6180   20.9920 C   0  0  0  0  0  0  0  0  0  0  0  0
  -28.7526  -20.9196   24.0363 C   0  0  0  0  0  0  0  0  0  0  0  0
  -18.9708  -27.9379   23.9686 C   0  0  1  0  0  0  0  0  0  0  0  0
  -26.5503  -22.8011   23.5196 C   0  0  1  0  0  0  0  0  0  1  0  0
  -19.8783  -24.8375   21.9694 C   0  0  1  0  0  0  0  0  0  0  0  0
  -27.7685  -13.0841   19.7280 C   0  0  2  0  0  0  0  0  0  0  0  0
  -30.3314  -21.6865   19.9103 C   0  0  0  0  0  0  0  0  0  0  0  0
  -20.4183  -17.3996   20.9084 C   0  0  0  0  0  0  0  0  0  0  0  0
  -17.0264  -21.6085   24.4883 C   0  0  0  0  0  0  0  0  0  0  0  0
  -17.9471  -19.3035   24.1604 C   0  0  0  0  0  0  0  0  0  0  0  0
  -16.7716  -20.4537   22.2847 C   0  0  0  0  0  0  0  0  0  0  0  0
  -23.5399  -19.4424   21.6559 C   0  0  0  0  0  0  0  0  0  0  0  0
  -28.1242  -20.8133   21.5825 C   0  0  0  0  0  0  0  0  0  0  0  0
  -19.0779  -21.2338   22.9662 C   0  0  1  0  0  0  0  0  0  0  0  0
  -21.2151  -18.6678   21.1723 C   0  0  2  0  0  0  0  0  0  0  0  0
  -17.7230  -20.6715   23.4814 C   0  0  0  0  0  0  0  0  0  0  0  0
  -25.9094  -11.5851   20.3428 N   0  0  0  0  0  0  0  0  0  0  0  0
  -26.2935  -12.8145   19.9593 N   0  0  0  0  0  0  0  0  0  0  0  0
  -20.0304  -23.4476   22.4043 N   0  0  0  0  0  0  0  0  0  0  0  0
  -29.8843  -13.8727   20.7140 N   0  0  0  0  0  0  0  0  0  0  0  0
  -25.4712  -14.9754   19.4443 N   0  0  0  0  0  0  0  0  0  0  0  0
  -22.0412  -13.4303   18.9520 N   0  0  0  0  0  0  0  0  0  0  0  0
  -29.7341  -16.1694   21.2289 N   0  0  0  0  0  0  0  0  0  0  0  0
  -19.3075  -26.9819   22.9357 N   0  0  0  0  0  0  0  0  0  0  0  0
  -19.7470  -20.3799   21.9907 N   0  0  0  0  0  0  0  0  0  0  0  0
  -28.6629  -21.6453   22.7137 N   0  3  1  0  0  0  0  0  0  0  0  0
  -22.6374  -18.2892   21.4059 N   0  3  0  0  0  0  0  0  0  0  0  0
  -22.2788  -14.0580   21.1447 O   0  0  0  0  0  0  0  0  0  0  0  0
  -19.5136  -25.0972   24.2877 O   0  0  0  0  0  0  0  0  0  0  0  0
  -17.8749  -22.8645   21.7333 O   0  0  0  0  0  0  0  0  0  0  0  0
  -21.0182  -19.1910   23.5228 O   0  0  0  0  0  0  0  0  0  0  0  0
  -31.7534  -15.2267   20.5842 O   0  0  0  0  0  0  0  0  0  0  0  0
  -21.4949   -7.3053   22.0005 O   0  0  0  0  0  0  0  0  0  0  0  0
  -26.0121  -24.0965   23.7648 O   0  0  0  0  0  0  0  0  0  1  0  0
  -23.8605   -2.3279   21.8178 F   0  0  0  0  0  0  0  0  0  0  0  0
  -20.4564   -5.2991   20.4071 F   0  0  0  0  0  0  0  0  0  0  0  0
  -32.4271  -19.7636   18.7695 Cl  0  0  0  0  0  0  0  0  0  0  0  0
  1  2  1  0  0  0  0
  1  5  2  0  0  0  0
  2  6  2  0  0  0  0
  3  8  2  0  0  0  0
  3 17  1  0  0  0  0
  4  9  1  0  0  0  0
  4 17  2  0  0  0  0
  5 19  1  0  0  0  0
  6 21  1  0  0  0  0
  7 10  2  0  0  0  0
  7 20  1  0  0  0  0
  8 26  1  0  0  0  0
  9 26  2  0  0  0  0
 10 27  1  0  0  0  0
 11 12  2  0  0  0  0
 11 28  1  0  0  0  0
 12 29  1  0  0  0  0
 13 22  1  0  0  0  0
 13 27  2  0  0  0  0
 14 23  1  0  0  0  0
 14 25  2  0  0  0  0
 15 25  1  0  0  0  0
 15 31  2  0  0  0  0
 16 29  2  0  0  0  0
 16 30  1  0  0  0  0
 17 32  1  0  0  0  0
 18 32  1  0  0  0  0
 18 33  2  0  0  0  0
 18 36  1  0  0  0  0
 19 21  2  0  0  0  0
 19 41  1  0  0  0  0
 20 22  2  0  0  0  0
 20 42  1  0  0  0  0
 21 53  1  0  0  0  0
 22 43  1  0  0  0  0
 23 24  2  0  0  0  0
 23 63  1  0  0  0  0
 24 31  1  0  0  0  0
 24 57  1  0  0  0  0
 25 73  1  0  0  0  0
 26 83  1  0  0  0  0
 27 84  1  0  0  0  0
 28 30  2  0  0  0  0
 28 83  1  0  0  0  0
 29 85  1  0  0  0  0
 30 86  1  0  0  0  0
 31 87  1  0  0  0  0
 32 67  2  0  0  0  0
 33 68  1  0  0  0  0
 33 71  1  0  0  0  0
 34 35  2  0  0  0  0
 34 54  1  0  0  0  0
 34 76  1  0  0  0  0
 36 72  1  0  0  0  0
 36 78  2  0  0  0  0
 37 55  1  0  0  0  0
 37 74  1  0  0  0  0
 37 79  2  0  0  0  0
 38 64  1  0  0  0  0
 38 69  1  0  0  0  0
 38 80  2  0  0  0  0
 39 65  1  0  0  0  0
 39 75  1  0  0  0  0
 39 81  2  0  0  0  0
 40 70  1  0  0  0  0
 40 73  1  0  0  0  0
 40 82  2  0  0  0  0
 41 44  1  0  0  0  0
 42 55  1  0  0  0  0
 43 69  1  0  0  0  0
 44 47  1  0  0  0  0
 45 49  1  0  0  0  0
 45 50  1  0  0  0  0
 46 48  1  0  0  0  0
 46 52  1  0  0  0  0
 47 53  1  0  0  0  0
 48 54  1  0  0  0  0
 49 56  1  0  0  0  0
 50 70  1  0  0  0  0
 51 56  1  0  0  0  0
 51 70  1  0  0  0  0
 52 76  1  0  0  0  0
 53 74  1  0  0  0  0
 54 84  1  0  0  0  0
 55 69  1  0  0  0  0
 56 68  1  0  0  0  0
 58 65  1  0  0  0  0
 59 66  1  0  0  0  0
 60 66  1  0  0  0  0
 61 66  1  0  0  0  0
 62 77  1  0  0  0  0
 63 76  1  0  0  0  0
 64 66  1  0  0  0  0
 64 75  1  0  0  0  0
 65 77  1  0  0  0  0
 67 68  1  0  0  0  0
M  CHG  2  76   1  77   1
M  ISO  4  40 100  54 101  73 100  84 101
M  END
> <Batch ID>
0042

> <Smiles>
C=C1N(Cc2cc([100NH:0][100C:0](=O)N3CCCC(n4nc(-c5ccc(Oc6ccc(F)cc6F)cc5)c(C(N)=O)c4N)C3)cc(Cl)c2C)CCC[101CH:1]1[101O:1]c1ccc2c(c1)CN(C(=O)C(NC(=O)C(C)NC)C(C)(C)C)C(C(=O)NC1CCCc3ccccc31)C2

> <Shape>
0.233

> <Color>
0.136

> <Negative vol penalty>
0.000

$$$$

  -OEChem-04042322123D

 87 96  0     1  0  0  0  0  0999 V2000
  -28.1882  -33.0948   27.4872 C   0  0  0  0  0  0  0  0  0  0  0  0
  -28.6616  -32.4208   26.3660 C   0  0  0  0  0  0  0  0  0  0  0  0
  -22.8927  -10.9368   22.6327 C   0  0  0  0  0  0  0  0  0  0  0  0
  -24.6881   -9.4894   21.9129 C   0  0  0  0  0  0  0  0  0  0  0  0
  -26.9498  -32.7565   28.0312 C   0  0  0  0  0  0  0  0  0  0  0  0
  -27.8973  -31.4074   25.7887 C   0  0  0  0  0  0  0  0  0  0  0  0
  -27.5044  -30.0295   19.8345 C   0  0  0  0  0  0  0  0  0  0  0  0
  -27.7718  -21.5600   20.3787 C   0  0  0  0  0  0  0  0  0  0  0  0
  -28.0513  -20.1936   20.3625 C   0  0  0  0  0  0  0  0  0  0  0  0
  -22.4016   -9.9203   23.4520 C   0  0  0  0  0  0  0  0  0  0  0  0
  -24.1971   -8.4728   22.7321 C   0  0  0  0  0  0  0  0  0  0  0  0
  -28.1289  -29.0582   19.0533 C   0  0  0  0  0  0  0  0  0  0  0  0
  -21.7123   -6.1819   22.6419 C   0  0  0  0  0  0  0  0  0  0  0  0
  -21.6346   -4.8971   22.1045 C   0  0  0  0  0  0  0  0  0  0  0  0
  -26.2147  -27.6159   19.3271 C   0  0  0  0  0  0  0  0  0  0  0  0
  -25.5820  -21.1230   19.4563 C   0  0  0  0  0  0  0  0  0  0  0  0
  -23.1314   -4.0890   23.8203 C   0  0  0  0  0  0  0  0  0  0  0  0
  -24.0359  -10.7213   21.8631 C   0  0  0  0  0  0  0  0  0  0  0  0
  -23.8728  -12.4037   19.9524 C   0  0  0  0  0  0  0  0  0  0  0  0
  -26.1656  -31.7450   27.4546 C   0  0  0  0  0  0  0  0  0  0  0  0
  -26.2328  -29.7966   20.3778 C   0  0  0  0  0  0  0  0  0  0  0  0
  -26.6478  -31.0543   26.3264 C   0  0  0  0  0  0  0  0  0  0  0  0
  -25.5751  -28.5869   20.1127 C   0  0  0  0  0  0  0  0  0  0  0  0
  -26.5371  -22.0248   19.9256 C   0  0  0  0  0  0  0  0  0  0  0  0
  -25.8615  -19.7565   19.4401 C   0  0  0  0  0  0  0  0  0  0  0  0
  -27.0962  -19.2918   19.8932 C   0  0  0  0  0  0  0  0  0  0  0  0
  -23.0538   -8.6883   23.5017 C   0  0  0  0  0  0  0  0  0  0  0  0
  -27.4853  -27.8501   18.8019 C   0  0  0  0  0  0  0  0  0  0  0  0
  -22.4996   -6.4203   23.7684 C   0  0  0  0  0  0  0  0  0  0  0  0
  -22.3441   -3.8506   22.6937 C   0  0  0  0  0  0  0  0  0  0  0  0
  -23.2091   -5.3739   24.3576 C   0  0  0  0  0  0  0  0  0  0  0  0
  -24.5433  -11.7708   21.0162 C   0  0  0  0  0  0  0  0  0  0  0  0
  -24.7767  -13.3204   19.4737 C   0  0  0  0  0  0  0  0  0  0  0  0
  -28.0039  -25.2204   19.7130 C   0  0  0  0  0  0  0  0  0  0  0  0
  -22.5511  -12.1827   19.4426 C   0  0  0  0  0  0  0  0  0  0  0  0
  -25.0514  -29.6108   23.3229 C   0  0  0  0  0  0  0  0  0  0  0  0
  -22.2193  -29.4052   21.7549 C   0  0  0  0  0  0  0  0  0  0  0  0
  -20.5449  -28.6065   18.8904 C   0  0  0  0  0  0  0  0  0  0  0  0
  -28.5822  -17.2994   20.3035 C   0  0  0  0  0  0  0  0  0  0  0  0
  -24.8548  -31.3823   28.1063 C   0  0  0  0  0  0  0  0  0  0  0  0
  -25.5614  -30.8651   21.1963 C   0  0  0  0  0  0  0  0  0  0  0  0
  -24.2008  -28.2958   20.6558 C   0  0  0  0  0  0  0  0  0  0  0  0
  -23.9387  -30.5517   27.2111 C   0  0  0  0  0  0  0  0  0  0  0  0
  -29.7013  -13.9238   20.4765 C   0  0  0  0  0  0  0  0  0  0  0  0
  -28.4293  -24.1500   16.9778 C   0  0  0  0  0  0  0  0  0  0  0  0
  -24.7196  -29.4185   26.5532 C   0  0  0  0  0  0  0  0  0  0  0  0
  -28.4040  -13.1148   20.5448 C   0  0  0  0  0  0  0  0  0  0  0  0
  -29.4994  -24.9361   17.7355 C   0  0  0  0  0  0  0  0  0  0  0  0
  -27.0787  -24.1143   17.6840 C   0  0  0  0  0  0  0  0  0  0  0  0
  -29.5927  -15.2362   21.2508 C   0  0  0  0  0  0  0  0  0  0  0  0
  -27.1468  -15.2679   20.9579 C   0  0  0  0  0  0  0  0  0  0  0  0
  -25.8369  -29.9661   25.6570 C   0  0  1  0  0  0  0  0  0  0  0  0
  -24.4823  -30.3169   22.1249 C   0  0  1  0  0  0  0  0  0  0  0  0
  -27.1861  -13.9675   20.1386 C   0  0  2  0  0  0  0  0  0  0  0  0
  -28.9080  -25.9517   18.7171 C   0  0  2  0  0  0  0  0  0  1  0  0
  -24.8208  -18.8136   18.9291 C   0  0  0  0  0  0  0  0  0  0  0  0
  -30.0198  -26.7179   19.4329 C   0  0  0  0  0  0  0  0  0  0  0  0
  -18.2313  -28.5065   17.9237 C   0  0  0  0  0  0  0  0  0  0  0  0
  -21.6708  -26.8550   23.3379 C   0  0  0  0  0  0  0  0  0  0  0  0
  -19.8646  -26.3058   21.6935 C   0  0  0  0  0  0  0  0  0  0  0  0
  -19.6973  -28.3700   23.0840 C   0  0  0  0  0  0  0  0  0  0  0  0
  -21.2155  -30.5720   16.7817 C   0  0  0  0  0  0  0  0  0  0  0  0
  -26.2373  -23.4958   19.9408 C   0  0  0  0  0  0  0  0  0  0  0  0
  -21.3829  -28.2766   21.2019 C   0  0  1  0  0  0  0  0  0  0  0  0
  -19.4823  -29.3523   18.1035 C   0  0  2  0  0  0  0  0  0  0  0  0
  -20.6806  -27.4563   22.3205 C   0  0  0  0  0  0  0  0  0  0  0  0
  -25.7779  -12.2452   21.2027 N   0  0  0  0  0  0  0  0  0  0  0  0
  -25.8904  -13.1859   20.2495 N   0  0  0  0  0  0  0  0  0  0  0  0
  -27.1801  -24.2518   19.1317 N   0  0  0  0  0  0  0  0  0  0  0  0
  -23.5886  -29.3695   21.4556 N   0  0  0  0  0  0  0  0  0  0  0  0
  -28.4187  -15.9925   20.8097 N   0  0  0  0  0  0  0  0  0  0  0  0
  -24.7195  -14.2203   18.4691 N   0  0  0  0  0  0  0  0  0  0  0  0
  -22.3776  -11.2356   18.4240 N   0  0  0  0  0  0  0  0  0  0  0  0
  -27.3993  -17.9077   19.8848 N   0  0  0  0  0  0  0  0  0  0  0  0
  -25.2922  -30.4392   24.4024 N   0  0  0  0  0  0  0  0  0  0  0  0
  -20.4676  -28.8804   20.2395 N   0  0  0  0  0  0  0  0  0  0  0  0
  -19.9989  -29.7198   16.7548 N   0  3  0  0  0  0  0  0  0  0  0  0
  -28.0195  -25.4857   20.9153 O   0  0  0  0  0  0  0  0  0  0  0  0
  -21.5560  -12.8183   19.8659 O   0  0  0  0  0  0  0  0  0  0  0  0
  -25.2556  -28.4036   23.2722 O   0  0  0  0  0  0  0  0  0  0  0  0
  -21.6764  -30.2897   22.4216 O   0  0  0  0  0  0  0  0  0  0  0  0
  -21.3595  -27.8533   18.3615 O   0  0  0  0  0  0  0  0  0  0  0  0
  -29.6934  -17.8289   20.2205 O   0  0  0  0  0  0  0  0  0  0  0  0
  -22.5750   -7.6963   24.3012 O   0  0  0  0  0  0  0  0  0  0  0  0
  -28.0929  -26.9000   18.0402 O   0  0  0  0  0  0  0  0  0  1  0  0
  -22.2682   -2.6165   22.1785 F   0  0  0  0  0  0  0  0  0  0  0  0
  -23.9662   -5.5965   25.4407 F   0  0  0  0  0  0  0  0  0  0  0  0
  1  2  1  0  0  0  0
  1  5  2  0  0  0  0
  2  6  2  0  0  0  0
  3 10  2  0  0  0  0
  3 18  1  0  0  0  0
  4 11  1  0  0  0  0
  4 18  2  0  0  0  0
  5 20  1  0  0  0  0
  6 22  1  0  0  0  0
  7 12  2  0  0  0  0
  7 21  1  0  0  0  0
  8  9  2  0  0  0  0
  8 24  1  0  0  0  0
  9 26  1  0  0  0  0
 10 27  1  0  0  0  0
 11 27  2  0  0  0  0
 12 28  1  0  0  0  0
 13 14  2  0  0  0  0
 13 29  1  0  0  0  0
 14 30  1  0  0  0  0
 15 23  1  0  0  0  0
 15 28  2  0  0  0  0
 16 24  2  0  0  0  0
 16 25  1  0  0  0  0
 17 30  2  0  0  0  0
 17 31  1  0  0  0  0
 18 32  1  0  0  0  0
 19 32  1  0  0  0  0
 19 33  2  0  0  0  0
 19 35  1  0  0  0  0
 20 22  2  0  0  0  0
 20 40  1  0  0  0  0
 21 23  2  0  0  0  0
 21 41  1  0  0  0  0
 22 52  1  0  0  0  0
 23 42  1  0  0  0  0
 24 63  1  0  0  0  0
 25 26  2  0  0  0  0
 25 56  1  0  0  0  0
 26 74  1  0  0  0  0
 27 84  1  0  0  0  0
 28 85  1  0  0  0  0
 29 31  2  0  0  0  0
 29 84  1  0  0  0  0
 30 86  1  0  0  0  0
 31 87  1  0  0  0  0
 32 67  2  0  0  0  0
 33 68  1  0  0  0  0
 33 72  1  0  0  0  0
 34 55  1  0  0  0  0
 34 69  1  0  0  0  0
 34 78  2  0  0  0  0
 35 73  1  0  0  0  0
 35 79  2  0  0  0  0
 36 53  1  0  0  0  0
 36 75  1  0  0  0  0
 36 80  2  0  0  0  0
 37 64  1  0  0  0  0
 37 70  1  0  0  0  0
 37 81  2  0  0  0  0
 38 65  1  0  0  0  0
 38 76  1  0  0  0  0
 38 82  2  0  0  0  0
 39 71  1  0  0  0  0
 39 74  1  0  0  0  0
 39 83  2  0  0  0  0
 40 43  1  0  0  0  0
 41 53  1  0  0  0  0
 42 70  1  0  0  0  0
 43 46  1  0  0  0  0
 44 47  1  0  0  0  0
 44 50  1  0  0  0  0
 45 48  1  0  0  0  0
 45 49  1  0  0  0  0
 46 52  1  0  0  0  0
 47 54  1  0  0  0  0
 48 55  1  0  0  0  0
 49 69  1  0  0  0  0
 50 71  1  0  0  0  0
 51 54  1  0  0  0  0
 51 71  1  0  0  0  0
 52 75  1  0  0  0  0
 53 70  1  0  0  0  0
 54 68  1  0  0  0  0
 55 57  1  0  0  0  0
 55 85  1  0  0  0  0
 58 65  1  0  0  0  0
 59 66  1  0  0  0  0
 60 66  1  0  0  0  0
 61 66  1  0  0  0  0
 62 77  1  0  0  0  0
 63 69  1  0  0  0  0
 64 66  1  0  0  0  0
 64 76  1  0  0  0  0
 65 77  1  0  0  0  0
 67 68  1  0  0  0  0
M  CHG  1  77   1
M  ISO  4  39 100  55 101  74 100  85 101
M  END
> <Batch ID>
0042

> <Smiles>
CNC(C)C(=O)NC(C(=O)N1Cc2cc([101O:1][101C:1]3(C)CCCN(Cc4ccc([100NH:0][100C:0](=O)N5CCCC(n6nc(-c7ccc(Oc8ccc(F)cc8F)cc7)c(C(N)=O)c6N)C5)c(C)c4)C3=O)ccc2CC1C(=O)NC1CCCc2ccccc21)C(C)(C)C

> <Shape>
0.314

> <Color>
0.069

> <Negative vol penalty>
0.000

$$$$

  -OEChem-04042322123D

 88 97  0     1  0  0  0  0  0999 V2000
  -16.5386  -28.9778   23.2463 C   0  0  0  0  0  0  0  0  0  0  0  0
  -17.2821  -28.5793   22.1400 C   0  0  0  0  0  0  0  0  0  0  0  0
  -22.7573   -9.6354   20.0385 C   0  0  0  0  0  0  0  0  0  0  0  0
  -24.4886   -8.8843   21.5470 C   0  0  0  0  0  0  0  0  0  0  0  0
  -17.1165  -29.7978   24.2145 C   0  0  0  0  0  0  0  0  0  0  0  0
  -18.6037  -29.0015   22.0008 C   0  0  0  0  0  0  0  0  0  0  0  0
  -21.7031  -25.2522   20.5933 C   0  0  0  0  0  0  0  0  0  0  0  0
  -21.7946   -9.0144   20.8342 C   0  0  0  0  0  0  0  0  0  0  0  0
  -23.5258   -8.2633   22.3428 C   0  0  0  0  0  0  0  0  0  0  0  0
  -21.6869  -24.8835   19.2488 C   0  0  0  0  0  0  0  0  0  0  0  0
  -21.7115   -5.4110   22.2888 C   0  0  0  0  0  0  0  0  0  0  0  0
  -21.9772   -4.1169   22.7364 C   0  0  0  0  0  0  0  0  0  0  0  0
  -23.6870  -26.1794   18.8755 C   0  0  0  0  0  0  0  0  0  0  0  0
  -26.5907  -19.7438   18.0162 C   0  0  0  0  0  0  0  0  0  0  0  0
  -24.8700  -19.5800   19.7041 C   0  0  0  0  0  0  0  0  0  0  0  0
  -21.8279   -4.8777   25.0246 C   0  0  0  0  0  0  0  0  0  0  0  0
  -24.1043   -9.5703   20.3949 C   0  0  0  0  0  0  0  0  0  0  0  0
  -25.3822   -9.9473   18.2195 C   0  0  0  0  0  0  0  0  0  0  0  0
  -18.4489  -30.2225   24.0919 C   0  0  0  0  0  0  0  0  0  0  0  0
  -22.7070  -26.0975   21.0874 C   0  0  0  0  0  0  0  0  0  0  0  0
  -19.1996  -29.8291   22.9676 C   0  0  0  0  0  0  0  0  0  0  0  0
  -23.7152  -26.5553   20.2272 C   0  0  0  0  0  0  0  0  0  0  0  0
  -25.5078  -20.3020   18.6953 C   0  0  0  0  0  0  0  0  0  0  0  0
  -27.0359  -18.4636   18.3457 C   0  0  0  0  0  0  0  0  0  0  0  0
  -25.3152  -18.2998   20.0337 C   0  0  0  0  0  0  0  0  0  0  0  0
  -26.3981  -17.7417   19.3545 C   0  0  0  0  0  0  0  0  0  0  0  0
  -22.1788   -8.3284   21.9863 C   0  0  0  0  0  0  0  0  0  0  0  0
  -22.6772  -25.3494   18.3891 C   0  0  0  0  0  0  0  0  0  0  0  0
  -21.5041   -6.4385   23.2091 C   0  0  0  0  0  0  0  0  0  0  0  0
  -22.0354   -3.8502   24.1043 C   0  0  0  0  0  0  0  0  0  0  0  0
  -21.5623   -6.1718   24.5770 C   0  0  0  0  0  0  0  0  0  0  0  0
  -25.0993  -10.2111   19.5730 C   0  0  0  0  0  0  0  0  0  0  0  0
  -26.4008  -10.8138   17.9064 C   0  0  0  0  0  0  0  0  0  0  0  0
  -24.1877  -23.1603   16.6246 C   0  0  0  0  0  0  0  0  0  0  0  0
  -25.1671  -23.9871   16.2141 C   0  0  0  0  0  0  0  0  0  0  0  0
  -24.7781   -9.0034   17.3251 C   0  0  0  0  0  0  0  0  0  0  0  0
  -22.7545  -28.9822   22.4215 C   0  0  0  0  0  0  0  0  0  0  0  0
  -25.9042  -28.3174   22.8217 C   0  0  0  0  0  0  0  0  0  0  0  0
  -28.5428  -26.8023   20.8827 C   0  0  0  0  0  0  0  0  0  0  0  0
  -28.1156  -16.0795   20.1507 C   0  0  0  0  0  0  0  0  0  0  0  0
  -19.0155  -31.1470   25.1402 C   0  0  0  0  0  0  0  0  0  0  0  0
  -22.7256  -26.4644   22.5460 C   0  0  0  0  0  0  0  0  0  0  0  0
  -24.8265  -27.4485   20.7124 C   0  0  0  0  0  0  0  0  0  0  0  0
  -20.5386  -31.2443   25.1075 C   0  0  0  0  0  0  0  0  0  0  0  0
  -21.6984  -21.8787   15.1749 C   0  0  0  0  0  0  0  0  0  0  0  0
  -30.0918  -13.1289   19.8942 C   0  0  0  0  0  0  0  0  0  0  0  0
  -22.9316  -20.9740   15.1711 C   0  0  0  0  0  0  0  0  0  0  0  0
  -21.0305  -31.4387   23.6768 C   0  0  0  0  0  0  0  0  0  0  0  0
  -21.9598  -23.3491   15.4929 C   0  0  0  0  0  0  0  0  0  0  0  0
  -29.0620  -12.0227   19.6535 C   0  0  0  0  0  0  0  0  0  0  0  0
  -29.5678  -14.1914   20.8587 C   0  0  0  0  0  0  0  0  0  0  0  0
  -27.2377  -13.6642   20.2570 C   0  0  0  0  0  0  0  0  0  0  0  0
  -23.5284  -20.7714   16.5620 C   0  0  0  0  0  0  0  0  0  0  0  0
  -20.6439  -30.2462   22.7936 C   0  0  1  0  0  0  0  0  0  0  0  0
  -22.7480  -23.5948   16.7813 C   0  0  2  0  0  0  0  0  0  1  0  0
  -23.5037  -27.7455   22.8300 C   0  0  1  0  0  0  0  0  0  0  0  0
  -27.6956  -12.6046   19.2414 C   0  0  2  0  0  0  0  0  0  0  0  0
  -28.1983  -17.8923   17.5999 C   0  0  0  0  0  0  0  0  0  0  0  0
  -24.6118  -17.5511   21.1194 C   0  0  0  0  0  0  0  0  0  0  0  0
  -30.6217  -25.6020   21.6139 C   0  0  0  0  0  0  0  0  0  0  0  0
  -27.2319  -31.0503   22.5421 C   0  0  0  0  0  0  0  0  0  0  0  0
  -29.2547  -29.8961   21.6232 C   0  0  0  0  0  0  0  0  0  0  0  0
  -28.4961  -29.4155   23.9505 C   0  0  0  0  0  0  0  0  0  0  0  0
  -27.8548  -24.4016   19.2946 C   0  0  0  0  0  0  0  0  0  0  0  0
  -25.0287  -21.6788   18.3406 C   0  0  0  0  0  0  0  0  0  0  0  0
  -27.1537  -28.5270   22.0010 C   0  0  1  0  0  0  0  0  0  0  0  0
  -29.1889  -25.4506   21.1272 C   0  0  2  0  0  0  0  0  0  0  0  0
  -28.0087  -29.7188   22.5169 C   0  0  0  0  0  0  0  0  0  0  0  0
  -25.8757  -11.1700   20.0847 N   0  0  0  0  0  0  0  0  0  0  0  0
  -26.6565  -11.5163   19.0471 N   0  0  0  0  0  0  0  0  0  0  0  0
  -24.7976  -27.7844   22.1455 N   0  0  0  0  0  0  0  0  0  0  0  0
  -28.2725  -14.7000   20.4020 N   0  0  0  0  0  0  0  0  0  0  0  0
  -27.0939  -11.0357   16.7693 N   0  0  0  0  0  0  0  0  0  0  0  0
  -23.7443   -8.1907   17.8099 N   0  0  0  0  0  0  0  0  0  0  0  0
  -26.8502  -16.4412   19.6896 N   0  0  0  0  0  0  0  0  0  0  0  0
  -21.5276  -29.1270   23.0405 N   0  0  0  0  0  0  0  0  0  0  0  0
  -27.8555  -27.2480   21.9919 N   0  0  0  0  0  0  0  0  0  0  0  0
  -24.5826  -21.7977   16.9046 N   0  3  2  0  0  0  0  0  0  0  0  0
  -29.2014  -24.6477   19.8717 N   0  3  0  0  0  0  0  0  0  0  0  0
  -25.1553   -8.8729   16.1359 O   0  0  0  0  0  0  0  0  0  0  0  0
  -23.2534  -29.7492   21.6063 O   0  0  0  0  0  0  0  0  0  0  0  0
  -25.9119  -28.6089   24.0203 O   0  0  0  0  0  0  0  0  0  0  0  0
  -28.6412  -27.4045   19.8158 O   0  0  0  0  0  0  0  0  0  0  0  0
  -29.0440  -16.8770   20.3053 O   0  0  0  0  0  0  0  0  0  0  0  0
  -21.2396   -7.7225   22.7631 O   0  0  0  0  0  0  0  0  0  0  0  0
  -22.6634  -24.9916   17.0762 O   0  0  0  0  0  0  0  0  0  1  0  0
  -22.2890   -2.6072   24.5339 F   0  0  0  0  0  0  0  0  0  0  0  0
  -21.3627   -7.1546   25.4659 F   0  0  0  0  0  0  0  0  0  0  0  0
  1  2  1  0  0  0  0
  1  5  2  0  0  0  0
  2  6  2  0  0  0  0
  3  8  2  0  0  0  0
  3 17  1  0  0  0  0
  4  9  1  0  0  0  0
  4 17  2  0  0  0  0
  5 19  1  0  0  0  0
  6 21  1  0  0  0  0
  7 10  2  0  0  0  0
  7 20  1  0  0  0  0
  8 27  1  0  0  0  0
  9 27  2  0  0  0  0
 10 28  1  0  0  0  0
 11 12  2  0  0  0  0
 11 29  1  0  0  0  0
 12 30  1  0  0  0  0
 13 22  1  0  0  0  0
 13 28  2  0  0  0  0
 14 23  1  0  0  0  0
 14 24  2  0  0  0  0
 15 23  2  0  0  0  0
 15 25  1  0  0  0  0
 16 30  2  0  0  0  0
 16 31  1  0  0  0  0
 17 32  1  0  0  0  0
 18 32  1  0  0  0  0
 18 33  2  0  0  0  0
 18 36  1  0  0  0  0
 19 21  2  0  0  0  0
 19 41  1  0  0  0  0
 20 22  2  0  0  0  0
 20 42  1  0  0  0  0
 21 54  1  0  0  0  0
 22 43  1  0  0  0  0
 23 65  1  0  0  0  0
 24 26  1  0  0  0  0
 24 58  1  0  0  0  0
 25 26  2  0  0  0  0
 25 59  1  0  0  0  0
 26 75  1  0  0  0  0
 27 85  1  0  0  0  0
 28 86  1  0  0  0  0
 29 31  2  0  0  0  0
 29 85  1  0  0  0  0
 30 87  1  0  0  0  0
 31 88  1  0  0  0  0
 32 69  2  0  0  0  0
 33 70  1  0  0  0  0
 33 73  1  0  0  0  0
 34 35  2  0  0  0  0
 34 55  1  0  0  0  0
 34 78  1  0  0  0  0
 36 74  1  0  0  0  0
 36 80  2  0  0  0  0
 37 56  1  0  0  0  0
 37 76  1  0  0  0  0
 37 81  2  0  0  0  0
 38 66  1  0  0  0  0
 38 71  1  0  0  0  0
 38 82  2  0  0  0  0
 39 67  1  0  0  0  0
 39 77  1  0  0  0  0
 39 83  2  0  0  0  0
 40 72  1  0  0  0  0
 40 75  1  0  0  0  0
 40 84  2  0  0  0  0
 41 44  1  0  0  0  0
 42 56  1  0  0  0  0
 43 71  1  0  0  0  0
 44 48  1  0  0  0  0
 45 47  1  0  0  0  0
 45 49  1  0  0  0  0
 46 50  1  0  0  0  0
 46 51  1  0  0  0  0
 47 53  1  0  0  0  0
 48 54  1  0  0  0  0
 49 55  1  0  0  0  0
 50 57  1  0  0  0  0
 51 72  1  0  0  0  0
 52 57  1  0  0  0  0
 52 72  1  0  0  0  0
 53 78  1  0  0  0  0
 54 76  1  0  0  0  0
 55 86  1  0  0  0  0
 56 71  1  0  0  0  0
 57 70  1  0  0  0  0
 60 67  1  0  0  0  0
 61 68  1  0  0  0  0
 62 68  1  0  0  0  0
 63 68  1  0  0  0  0
 64 79  1  0  0  0  0
 65 78  1  0  0  0  0
 66 68  1  0  0  0  0
 66 77  1  0  0  0  0
 67 79  1  0  0  0  0
 69 70  1  0  0  0  0
M  CHG  2  78   1  79   1
M  ISO  4  40 100  55 101  75 100  86 101
M  END
> <Batch ID>
0042

> <Smiles>
C=C1N(Cc2cc(C)c([100NH:0][100C:0](=O)N3CCCC(n4nc(-c5ccc(Oc6ccc(F)cc6F)cc5)c(C(N)=O)c4N)C3)c(C)c2)CCCC[101CH:1]1[101O:1]c1ccc2c(c1)CN(C(=O)C(NC(=O)C(C)NC)C(C)(C)C)C(C(=O)NC1CCCc3ccccc31)C2

> <Shape>
0.251

> <Color>
0.102

> <Negative vol penalty>
0.000

$$$$

  -OEChem-04042322123D

 86 94  0     1  0  0  0  0  0999 V2000
  -25.6344  -38.0375   19.1077 C   0  0  0  0  0  0  0  0  0  0  0  0
  -26.4511  -36.9117   19.1395 C   0  0  0  0  0  0  0  0  0  0  0  0
  -27.0562  -14.9407   21.8130 C   0  0  0  0  0  0  0  0  0  0  0  0
  -26.2371  -15.1416   19.5490 C   0  0  0  0  0  0  0  0  0  0  0  0
  -24.5545  -38.1389   19.9837 C   0  0  0  0  0  0  0  0  0  0  0  0
  -26.1889  -35.8870   20.0482 C   0  0  0  0  0  0  0  0  0  0  0  0
  -27.0325  -29.8847   19.1723 C   0  0  0  0  0  0  0  0  0  0  0  0
  -26.7392  -13.5823   21.8071 C   0  0  0  0  0  0  0  0  0  0  0  0
  -25.9202  -13.7832   19.5430 C   0  0  0  0  0  0  0  0  0  0  0  0
  -28.0587  -29.0176   19.5447 C   0  0  0  0  0  0  0  0  0  0  0  0
  -25.8136  -10.1375   22.5140 C   0  0  0  0  0  0  0  0  0  0  0  0
  -25.1661   -9.6162   23.6340 C   0  0  0  0  0  0  0  0  0  0  0  0
  -26.7957  -28.3706   21.4955 C   0  0  0  0  0  0  0  0  0  0  0  0
  -26.2645  -26.3951   15.8281 C   0  0  0  0  0  0  0  0  0  0  0  0
  -25.1254  -25.5634   17.7896 C   0  0  0  0  0  0  0  0  0  0  0  0
  -23.3279  -11.1442   23.2825 C   0  0  0  0  0  0  0  0  0  0  0  0
  -26.8050  -15.7204   20.6839 C   0  0  0  0  0  0  0  0  0  0  0  0
  -28.3489  -17.7148   20.3014 C   0  0  0  0  0  0  0  0  0  0  0  0
  -24.2731  -37.1105   20.8970 C   0  0  0  0  0  0  0  0  0  0  0  0
  -25.8830  -30.0096   19.9657 C   0  0  0  0  0  0  0  0  0  0  0  0
  -25.1049  -35.9753   20.9381 C   0  0  0  0  0  0  0  0  0  0  0  0
  -25.7552  -29.2381   21.1295 C   0  0  0  0  0  0  0  0  0  0  0  0
  -25.1993  -26.4628   16.7260 C   0  0  0  0  0  0  0  0  0  0  0  0
  -27.2559  -25.4279   15.9937 C   0  0  0  0  0  0  0  0  0  0  0  0
  -27.1821  -24.5285   17.0573 C   0  0  0  0  0  0  0  0  0  0  0  0
  -26.1168  -24.5962   17.9553 C   0  0  0  0  0  0  0  0  0  0  0  0
  -26.1713  -13.0036   20.6721 C   0  0  0  0  0  0  0  0  0  0  0  0
  -27.9416  -28.2625   20.7080 C   0  0  0  0  0  0  0  0  0  0  0  0
  -25.2183  -11.1622   21.7782 C   0  0  0  0  0  0  0  0  0  0  0  0
  -23.9232  -10.1195   24.0183 C   0  0  0  0  0  0  0  0  0  0  0  0
  -23.9755  -11.6655   22.1624 C   0  0  0  0  0  0  0  0  0  0  0  0
  -27.1316  -17.1237   20.6896 C   0  0  0  0  0  0  0  0  0  0  0  0
  -28.1528  -19.0609   20.4910 C   0  0  0  0  0  0  0  0  0  0  0  0
  -29.5496  -17.1018   19.8131 C   0  0  0  0  0  0  0  0  0  0  0  0
  -24.5185  -32.3839   21.5795 C   0  0  0  0  0  0  0  0  0  0  0  0
  -22.1674  -30.1977   22.0433 C   0  0  0  0  0  0  0  0  0  0  0  0
  -30.2843  -24.6010   18.1128 C   0  0  0  0  0  0  0  0  0  0  0  0
  -21.2544  -26.9128   22.1942 C   0  0  0  0  0  0  0  0  0  0  0  0
  -25.0239  -23.6419   20.0147 C   0  0  0  0  0  0  0  0  0  0  0  0
  -23.1228  -37.2863   21.8563 C   0  0  0  0  0  0  0  0  0  0  0  0
  -24.7733  -30.9296   19.5360 C   0  0  0  0  0  0  0  0  0  0  0  0
  -24.5326  -29.3205   22.0053 C   0  0  0  0  0  0  0  0  0  0  0  0
  -22.6903  -35.9881   22.5331 C   0  0  0  0  0  0  0  0  0  0  0  0
  -24.4155  -21.5480   22.8294 C   0  0  0  0  0  0  0  0  0  0  0  0
  -23.9060  -35.2225   23.0456 C   0  0  0  0  0  0  0  0  0  0  0  0
  -25.1680  -20.2589   22.4917 C   0  0  0  0  0  0  0  0  0  0  0  0
  -23.7810  -22.1757   21.5896 C   0  0  0  0  0  0  0  0  0  0  0  0
  -25.4530  -21.1085   20.1286 C   0  0  0  0  0  0  0  0  0  0  0  0
  -24.8381  -34.8315   21.8925 C   0  0  1  0  0  0  0  0  0  0  0  0
  -23.8729  -31.3594   20.6901 C   0  0  1  0  0  0  0  0  0  0  0  0
  -26.1640  -20.4743   21.3353 C   0  0  2  0  0  0  0  0  0  0  0  0
  -24.1385  -27.4959   16.5480 C   0  0  0  0  0  0  0  0  0  0  0  0
  -28.3848  -25.3759   15.0170 C   0  0  0  0  0  0  0  0  0  0  0  0
  -19.2719  -25.4373   22.6298 C   0  0  0  0  0  0  0  0  0  0  0  0
  -22.4198  -30.7458   25.0343 C   0  0  0  0  0  0  0  0  0  0  0  0
  -21.1503  -28.6299   25.4583 C   0  0  0  0  0  0  0  0  0  0  0  0
  -20.0702  -30.5021   24.2130 C   0  0  0  0  0  0  0  0  0  0  0  0
  -21.3922  -25.7310   19.4843 C   0  0  0  0  0  0  0  0  0  0  0  0
  -28.2513  -23.4888   17.2306 C   0  0  0  0  0  0  0  0  0  0  0  0
  -31.0594  -24.7951   19.4038 C   0  0  0  0  0  0  0  0  0  0  0  0
  -30.2299  -25.4791   20.4846 C   0  0  0  0  0  0  0  0  0  0  0  0
  -29.7198  -26.8378   20.0267 C   0  0  0  0  0  0  0  0  0  1  0  0
  -21.8785  -29.1429   23.0839 C   0  0  1  0  0  0  0  0  0  0  0  0
  -20.0912  -26.1611   21.5726 C   0  0  2  0  0  0  0  0  0  0  0  0
  -21.4037  -29.7548   24.4321 C   0  0  0  0  0  0  0  0  0  0  0  0
  -26.2291  -18.0208   21.0952 N   0  0  0  0  0  0  0  0  0  0  0  0
  -26.8797  -19.1893   20.9631 N   0  0  0  0  0  0  0  0  0  0  0  0
  -23.4777  -30.2390   21.5461 N   0  0  0  0  0  0  0  0  0  0  0  0
  -24.7846  -22.3536   20.5380 N   0  0  0  0  0  0  0  0  0  0  0  0
  -28.9469  -20.1354   20.2983 N   0  0  0  0  0  0  0  0  0  0  0  0
  -29.5808  -15.7071   19.6788 N   0  0  0  0  0  0  0  0  0  0  0  0
  -26.0230  -23.6932   19.0432 N   0  0  0  0  0  0  0  0  0  0  0  0
  -24.3079  -33.6896   21.1789 N   0  0  0  0  0  0  0  0  0  0  0  0
  -29.1557  -23.8181   18.3067 N   0  0  0  0  0  0  0  0  0  0  0  0
  -20.9241  -28.2213   22.4770 N   0  0  0  0  0  0  0  0  0  0  0  0
  -20.5892  -25.1543   20.5932 N   0  3  0  0  0  0  0  0  0  0  0  0
  -30.5703  -17.7697   19.5205 O   0  0  0  0  0  0  0  0  0  0  0  0
  -25.1590  -32.0171   22.5577 O   0  0  0  0  0  0  0  0  0  0  0  0
  -21.2620  -30.9524   21.6796 O   0  0  0  0  0  0  0  0  0  0  0  0
  -30.6298  -25.0864   17.0389 O   0  0  0  0  0  0  0  0  0  0  0  0
  -22.3456  -26.3904   22.4108 O   0  0  0  0  0  0  0  0  0  0  0  0
  -24.4082  -24.6314   20.4195 O   0  0  0  0  0  0  0  0  0  0  0  0
  -25.8621  -11.6781   20.6660 O   0  0  0  0  0  0  0  0  0  0  0  0
  -28.9421  -27.4158   21.0742 O   0  0  0  0  0  0  0  0  0  1  0  0
  -23.3008   -9.6177   25.0930 F   0  0  0  0  0  0  0  0  0  0  0  0
  -23.3981  -12.6490   21.4588 F   0  0  0  0  0  0  0  0  0  0  0  0
  1  2  1  0  0  0  0
  1  5  2  0  0  0  0
  2  6  2  0  0  0  0
  3  8  2  0  0  0  0
  3 17  1  0  0  0  0
  4  9  1  0  0  0  0
  4 17  2  0  0  0  0
  5 19  1  0  0  0  0
  6 21  1  0  0  0  0
  7 10  2  0  0  0  0
  7 20  1  0  0  0  0
  8 27  1  0  0  0  0
  9 27  2  0  0  0  0
 10 28  1  0  0  0  0
 11 12  2  0  0  0  0
 11 29  1  0  0  0  0
 12 30  1  0  0  0  0
 13 22  1  0  0  0  0
 13 28  2  0  0  0  0
 14 23  1  0  0  0  0
 14 24  2  0  0  0  0
 15 23  2  0  0  0  0
 15 26  1  0  0  0  0
 16 30  2  0  0  0  0
 16 31  1  0  0  0  0
 17 32  1  0  0  0  0
 18 32  1  0  0  0  0
 18 33  2  0  0  0  0
 18 34  1  0  0  0  0
 19 21  2  0  0  0  0
 19 40  1  0  0  0  0
 20 22  2  0  0  0  0
 20 41  1  0  0  0  0
 21 49  1  0  0  0  0
 22 42  1  0  0  0  0
 23 52  1  0  0  0  0
 24 25  1  0  0  0  0
 24 53  1  0  0  0  0
 25 26  2  0  0  0  0
 25 59  1  0  0  0  0
 26 72  1  0  0  0  0
 27 83  1  0  0  0  0
 28 84  1  0  0  0  0
 29 31  2  0  0  0  0
 29 83  1  0  0  0  0
 30 85  1  0  0  0  0
 31 86  1  0  0  0  0
 32 66  2  0  0  0  0
 33 67  1  0  0  0  0
 33 70  1  0  0  0  0
 34 71  1  0  0  0  0
 34 77  2  0  0  0  0
 35 50  1  0  0  0  0
 35 73  1  0  0  0  0
 35 78  2  0  0  0  0
 36 63  1  0  0  0  0
 36 68  1  0  0  0  0
 36 79  2  0  0  0  0
 37 60  1  0  0  0  0
 37 74  1  0  0  0  0
 37 80  2  0  0  0  0
 38 64  1  0  0  0  0
 38 75  1  0  0  0  0
 38 81  2  0  0  0  0
 39 69  1  0  0  0  0
 39 72  1  0  0  0  0
 39 82  2  0  0  0  0
 40 43  1  0  0  0  0
 41 50  1  0  0  0  0
 42 68  1  0  0  0  0
 43 45  1  0  0  0  0
 44 46  1  0  0  0  0
 44 47  1  0  0  0  0
 45 49  1  0  0  0  0
 46 51  1  0  0  0  0
 47 69  1  0  0  0  0
 48 51  1  0  0  0  0
 48 69  1  0  0  0  0
 49 73  1  0  0  0  0
 50 68  1  0  0  0  0
 51 67  1  0  0  0  0
 54 64  1  0  0  0  0
 55 65  1  0  0  0  0
 56 65  1  0  0  0  0
 57 65  1  0  0  0  0
 58 76  1  0  0  0  0
 59 74  1  0  0  0  0
 60 61  1  0  0  0  0
 61 62  1  0  0  0  0
 62 84  1  0  0  0  0
 63 65  1  0  0  0  0
 63 75  1  0  0  0  0
 64 76  1  0  0  0  0
 66 67  1  0  0  0  0
M  CHG  1  76   1
M  ISO  4  39 100  62 101  72 100  84 101
M  END
> <Batch ID>
0042

> <Smiles>
CNC(C)C(=O)NC(C(=O)N1Cc2cc([101O:1][101CH2:1]CCC(=O)NCc3c(C)cc(C)cc3[100NH:0][100C:0](=O)N3CCCC(n4nc(-c5ccc(Oc6ccc(F)cc6F)cc5)c(C(N)=O)c4N)C3)ccc2CC1C(=O)NC1CCCc2ccccc21)C(C)(C)C

> <Shape>
0.246

> <Color>
0.078

> <Negative vol penalty>
0.000

$$$$

  -OEChem-04042322123D

 85 93  0     1  0  0  0  0  0999 V2000
  -26.0661  -25.2650   15.1251 C   0  0  0  0  0  0  0  0  0  0  0  0
  -26.4431  -24.0392   15.6642 C   0  0  0  0  0  0  0  0  0  0  0  0
  -28.8692  -26.3135   18.6304 C   0  0  0  0  0  0  0  0  0  0  0  0
  -27.1380  -25.1956   19.8914 C   0  0  0  0  0  0  0  0  0  0  0  0
  -24.9499  -25.9326   15.6275 C   0  0  0  0  0  0  0  0  0  0  0  0
  -25.7047  -23.4808   16.7070 C   0  0  0  0  0  0  0  0  0  0  0  0
  -24.6356  -17.5306   17.6863 C   0  0  0  0  0  0  0  0  0  0  0  0
  -29.2208  -13.4520   18.0418 C   0  0  0  0  0  0  0  0  0  0  0  0
  -28.1588  -12.6167   18.3878 C   0  0  0  0  0  0  0  0  0  0  0  0
  -28.0254  -27.4080   18.4422 C   0  0  0  0  0  0  0  0  0  0  0  0
  -26.2942  -26.2902   19.7033 C   0  0  0  0  0  0  0  0  0  0  0  0
  -25.2355  -16.5962   18.5293 C   0  0  0  0  0  0  0  0  0  0  0  0
  -23.8103  -28.9404   19.8620 C   0  0  0  0  0  0  0  0  0  0  0  0
  -23.0942  -29.4053   20.9650 C   0  0  0  0  0  0  0  0  0  0  0  0
  -23.5184  -16.9895   20.1773 C   0  0  0  0  0  0  0  0  0  0  0  0
  -29.5610  -13.9856   20.3734 C   0  0  0  0  0  0  0  0  0  0  0  0
  -25.1670  -29.8409   22.1272 C   0  0  0  0  0  0  0  0  0  0  0  0
  -28.4255  -25.2072   19.3550 C   0  0  0  0  0  0  0  0  0  0  0  0
  -30.2004  -23.8711   20.6088 C   0  0  0  0  0  0  0  0  0  0  0  0
  -24.1918  -25.3774   16.6705 C   0  0  0  0  0  0  0  0  0  0  0  0
  -23.4768  -18.2107   18.0876 C   0  0  0  0  0  0  0  0  0  0  0  0
  -24.5781  -24.1421   17.2248 C   0  0  0  0  0  0  0  0  0  0  0  0
  -22.9043  -17.9303   19.3365 C   0  0  0  0  0  0  0  0  0  0  0  0
  -29.9220  -14.1364   19.0345 C   0  0  0  0  0  0  0  0  0  0  0  0
  -27.7978  -12.4658   19.7267 C   0  0  0  0  0  0  0  0  0  0  0  0
  -26.7379  -27.3965   18.9787 C   0  0  0  0  0  0  0  0  0  0  0  0
  -24.6786  -16.3276   19.7762 C   0  0  0  0  0  0  0  0  0  0  0  0
  -25.2048  -28.9256   19.8916 C   0  0  0  0  0  0  0  0  0  0  0  0
  -23.7725  -29.8555   22.0976 C   0  0  0  0  0  0  0  0  0  0  0  0
  -25.8831  -29.3759   21.0242 C   0  0  0  0  0  0  0  0  0  0  0  0
  -28.4989  -13.1503   20.7195 C   0  0  0  0  0  0  0  0  0  0  0  0
  -29.2965  -24.0759   19.5492 C   0  0  0  0  0  0  0  0  0  0  0  0
  -30.7824  -22.6577   20.3339 C   0  0  0  0  0  0  0  0  0  0  0  0
  -30.4881  -24.7031   21.7405 C   0  0  0  0  0  0  0  0  0  0  0  0
  -22.7291  -21.2564   18.6056 C   0  0  0  0  0  0  0  0  0  0  0  0
  -19.7415  -20.0526   18.9891 C   0  0  0  0  0  0  0  0  0  0  0  0
  -17.7747  -17.3689   19.7482 C   0  0  0  0  0  0  0  0  0  0  0  0
  -30.3582  -17.3990   18.8803 C   0  0  0  0  0  0  0  0  0  0  0  0
  -23.0210  -26.1586   17.2124 C   0  0  0  0  0  0  0  0  0  0  0  0
  -22.8267  -19.1962   17.1557 C   0  0  0  0  0  0  0  0  0  0  0  0
  -21.6496  -18.6183   19.8062 C   0  0  0  0  0  0  0  0  0  0  0  0
  -22.0728  -25.3209   18.0665 C   0  0  0  0  0  0  0  0  0  0  0  0
  -30.6069  -19.7870   16.1723 C   0  0  0  0  0  0  0  0  0  0  0  0
  -22.8587  -24.4745   19.0629 C   0  0  0  0  0  0  0  0  0  0  0  0
  -30.3606  -21.1062   16.9065 C   0  0  0  0  0  0  0  0  0  0  0  0
  -29.7357  -18.6689   16.7372 C   0  0  0  0  0  0  0  0  0  0  0  0
  -29.6393  -19.7701   18.9399 C   0  0  0  0  0  0  0  0  0  0  0  0
  -23.7881  -23.4922   18.3399 C   0  0  1  0  0  0  0  0  0  0  0  0
  -21.9394  -20.2056   17.8777 C   0  0  1  0  0  0  0  0  0  0  0  0
  -30.5069  -20.9353   18.4302 C   0  0  2  0  0  0  0  0  0  0  0  0
  -26.6557  -11.5638   20.0634 C   0  0  0  0  0  0  0  0  0  0  0  0
  -15.3704  -16.7018   20.0167 C   0  0  0  0  0  0  0  0  0  0  0  0
  -19.6522  -21.4704   21.6894 C   0  0  0  0  0  0  0  0  0  0  0  0
  -17.6980  -20.0304   22.3024 C   0  0  0  0  0  0  0  0  0  0  0  0
  -17.5306  -21.6012   20.3718 C   0  0  0  0  0  0  0  0  0  0  0  0
  -17.9673  -15.3664   17.5776 C   0  0  0  0  0  0  0  0  0  0  0  0
  -31.0584  -15.0284   18.6640 C   0  0  0  0  0  0  0  0  0  0  0  0
  -26.3489  -15.1110   22.7246 C   0  0  0  0  0  0  0  0  0  0  0  0
  -25.1138  -15.6226   22.0054 C   0  0  0  0  0  0  0  0  0  1  0  0
  -18.9460  -19.5175   20.1553 C   0  0  1  0  0  0  0  0  0  0  0  0
  -16.5504  -16.7910   19.0614 C   0  0  2  0  0  0  0  0  0  0  0  0
  -18.4814  -20.6432   21.1220 C   0  0  0  0  0  0  0  0  0  0  0  0
  -29.3005  -23.0732   18.6668 N   0  0  0  0  0  0  0  0  0  0  0  0
  -30.2141  -22.2266   19.1714 N   0  0  0  0  0  0  0  0  0  0  0  0
  -21.0548  -19.5784   18.8617 N   0  0  0  0  0  0  0  0  0  0  0  0
  -29.9361  -18.5462   18.1881 N   0  0  0  0  0  0  0  0  0  0  0  0
  -31.7198  -21.9283   20.9755 N   0  0  0  0  0  0  0  0  0  0  0  0
  -29.7995  -25.9169   21.8696 N   0  0  0  0  0  0  0  0  0  0  0  0
  -23.0365  -22.3626   17.8365 N   0  0  0  0  0  0  0  0  0  0  0  0
  -17.8565  -18.7352   19.5815 N   0  0  0  0  0  0  0  0  0  0  0  0
  -30.6117  -16.2807   18.0955 N   0  0  0  0  0  0  0  0  0  0  0  0
  -26.5136  -13.6624   22.4645 N   0  0  0  0  0  0  0  0  0  0  0  0
  -16.8426  -15.4233   18.5466 N   0  3  0  0  0  0  0  0  0  0  0  0
  -31.3428  -24.3874   22.6027 O   0  0  0  0  0  0  0  0  0  0  0  0
  -23.0356  -21.0776   19.7785 O   0  0  0  0  0  0  0  0  0  0  0  0
  -19.2146  -20.8561   18.2155 O   0  0  0  0  0  0  0  0  0  0  0  0
  -18.5761  -16.6780   20.3734 O   0  0  0  0  0  0  0  0  0  0  0  0
  -30.5039  -17.3745   20.1072 O   0  0  0  0  0  0  0  0  0  0  0  0
  -27.9826  -11.5643   22.7266 O   0  0  0  0  0  0  0  0  0  0  0  0
  -28.9728  -13.8319   23.1760 O   0  0  0  0  0  0  0  0  0  0  0  0
  -25.9143  -28.4645   18.7954 O   0  0  0  0  0  0  0  0  0  0  0  0
  -25.2625  -15.4164   20.6012 O   0  0  0  0  0  0  0  0  0  1  0  0
  -23.0847  -30.3034   23.1562 F   0  0  0  0  0  0  0  0  0  0  0  0
  -27.2227  -29.3653   21.0580 F   0  0  0  0  0  0  0  0  0  0  0  0
  -28.0694  -12.9806   22.4258 S   0  0  0  0  0  0  0  0  0  0  0  0
  1  2  1  0  0  0  0
  1  5  2  0  0  0  0
  2  6  2  0  0  0  0
  3 10  2  0  0  0  0
  3 18  1  0  0  0  0
  4 11  1  0  0  0  0
  4 18  2  0  0  0  0
  5 20  1  0  0  0  0
  6 22  1  0  0  0  0
  7 12  2  0  0  0  0
  7 21  1  0  0  0  0
  8  9  2  0  0  0  0
  8 24  1  0  0  0  0
  9 25  1  0  0  0  0
 10 26  1  0  0  0  0
 11 26  2  0  0  0  0
 12 27  1  0  0  0  0
 13 14  2  0  0  0  0
 13 28  1  0  0  0  0
 14 29  1  0  0  0  0
 15 23  1  0  0  0  0
 15 27  2  0  0  0  0
 16 24  2  0  0  0  0
 16 31  1  0  0  0  0
 17 29  2  0  0  0  0
 17 30  1  0  0  0  0
 18 32  1  0  0  0  0
 19 32  1  0  0  0  0
 19 33  2  0  0  0  0
 19 34  1  0  0  0  0
 20 22  2  0  0  0  0
 20 39  1  0  0  0  0
 21 23  2  0  0  0  0
 21 40  1  0  0  0  0
 22 48  1  0  0  0  0
 23 41  1  0  0  0  0
 24 57  1  0  0  0  0
 25 31  2  0  0  0  0
 25 51  1  0  0  0  0
 26 81  1  0  0  0  0
 27 82  1  0  0  0  0
 28 30  2  0  0  0  0
 28 81  1  0  0  0  0
 29 83  1  0  0  0  0
 30 84  1  0  0  0  0
 31 85  1  0  0  0  0
 32 63  2  0  0  0  0
 33 64  1  0  0  0  0
 33 67  1  0  0  0  0
 34 68  1  0  0  0  0
 34 74  2  0  0  0  0
 35 49  1  0  0  0  0
 35 69  1  0  0  0  0
 35 75  2  0  0  0  0
 36 60  1  0  0  0  0
 36 65  1  0  0  0  0
 36 76  2  0  0  0  0
 37 61  1  0  0  0  0
 37 70  1  0  0  0  0
 37 77  2  0  0  0  0
 38 66  1  0  0  0  0
 38 71  1  0  0  0  0
 38 78  2  0  0  0  0
 39 42  1  0  0  0  0
 40 49  1  0  0  0  0
 41 65  1  0  0  0  0
 42 44  1  0  0  0  0
 43 45  1  0  0  0  0
 43 46  1  0  0  0  0
 44 48  1  0  0  0  0
 45 50  1  0  0  0  0
 46 66  1  0  0  0  0
 47 50  1  0  0  0  0
 47 66  1  0  0  0  0
 48 69  1  0  0  0  0
 49 65  1  0  0  0  0
 50 64  1  0  0  0  0
 52 61  1  0  0  0  0
 53 62  1  0  0  0  0
 54 62  1  0  0  0  0
 55 62  1  0  0  0  0
 56 73  1  0  0  0  0
 57 71  1  0  0  0  0
 58 59  1  0  0  0  0
 58 72  1  0  0  0  0
 59 82  1  0  0  0  0
 60 62  1  0  0  0  0
 60 70  1  0  0  0  0
 61 73  1  0  0  0  0
 63 64  1  0  0  0  0
 72 85  1  0  0  0  0
 79 85  2  0  0  0  0
 80 85  2  0  0  0  0
M  CHG  1  73   1
M  ISO  4  38 100  59 101  71 100  82 101
M  END
> <Batch ID>
0042

> <Smiles>
CNC(C)C(=O)NC(C(=O)N1Cc2cc([101O:1][101CH2:1]CNS(=O)(=O)c3cc(C[100NH:0][100C:0](=O)N4CCCC(n5nc(-c6ccc(Oc7ccc(F)cc7F)cc6)c(C(N)=O)c5N)C4)ccc3C)ccc2CC1C(=O)NC1CCCc2ccccc21)C(C)(C)C

> <Shape>
0.172

> <Color>
0.073

> <Negative vol penalty>
0.000

$$$$

  -OEChem-04042322123D

 90 99  0     1  0  0  0  0  0999 V2000
  -29.4437  -31.7206   26.4242 C   0  0  0  0  0  0  0  0  0  0  0  0
  -29.3480  -30.8733   25.3250 C   0  0  0  0  0  0  0  0  0  0  0  0
  -24.2677   -9.1621   21.3473 C   0  0  0  0  0  0  0  0  0  0  0  0
  -25.1180  -10.2635   23.3223 C   0  0  0  0  0  0  0  0  0  0  0  0
  -28.3406  -31.9093   27.2557 C   0  0  0  0  0  0  0  0  0  0  0  0
  -28.1492  -30.2132   25.0573 C   0  0  0  0  0  0  0  0  0  0  0  0
  -26.8851  -30.3928   20.1568 C   0  0  0  0  0  0  0  0  0  0  0  0
  -23.9859   -8.0242   22.1031 C   0  0  0  0  0  0  0  0  0  0  0  0
  -24.8362   -9.1256   24.0782 C   0  0  0  0  0  0  0  0  0  0  0  0
  -27.5493  -29.5206   19.2955 C   0  0  0  0  0  0  0  0  0  0  0  0
  -21.5911   -6.9943   24.2566 C   0  0  0  0  0  0  0  0  0  0  0  0
  -20.3538   -6.3794   24.0658 C   0  0  0  0  0  0  0  0  0  0  0  0
  -25.6520  -28.0318   19.3496 C   0  0  0  0  0  0  0  0  0  0  0  0
  -27.8489  -21.4384   20.4750 C   0  0  0  0  0  0  0  0  0  0  0  0
  -21.4689   -4.3441   23.3939 C   0  0  0  0  0  0  0  0  0  0  0  0
  -24.8338  -10.2818   21.9568 C   0  0  0  0  0  0  0  0  0  0  0  0
  -24.2124  -12.2413   20.4463 C   0  0  0  0  0  0  0  0  0  0  0  0
  -27.1248  -31.2587   26.9925 C   0  0  0  0  0  0  0  0  0  0  0  0
  -25.6015  -30.0853   20.6304 C   0  0  0  0  0  0  0  0  0  0  0  0
  -27.0291  -30.3923   25.8868 C   0  0  0  0  0  0  0  0  0  0  0  0
  -24.9726  -28.9030   20.2148 C   0  0  0  0  0  0  0  0  0  0  0  0
  -26.9963  -21.7789   19.4250 C   0  0  0  0  0  0  0  0  0  0  0  0
  -26.3989  -20.7779   18.6590 C   0  0  0  0  0  0  0  0  0  0  0  0
  -26.6543  -19.4363   18.9429 C   0  0  0  0  0  0  0  0  0  0  0  0
  -27.5071  -19.0958   19.9929 C   0  0  0  0  0  0  0  0  0  0  0  0
  -24.2701   -8.0060   23.4686 C   0  0  0  0  0  0  0  0  0  0  0  0
  -26.9340  -28.3385   18.8941 C   0  0  0  0  0  0  0  0  0  0  0  0
  -22.7674   -6.2842   24.0159 C   0  0  0  0  0  0  0  0  0  0  0  0
  -20.2926   -5.0543   23.6345 C   0  0  0  0  0  0  0  0  0  0  0  0
  -22.7062   -4.9591   23.5846 C   0  0  0  0  0  0  0  0  0  0  0  0
  -28.1044  -20.0968   20.7589 C   0  0  0  0  0  0  0  0  0  0  0  0
  -25.1257  -11.4573   21.1764 C   0  0  0  0  0  0  0  0  0  0  0  0
  -24.9812  -13.2327   19.8872 C   0  0  0  0  0  0  0  0  0  0  0  0
  -27.1504  -25.1203   17.6745 C   0  0  0  0  0  0  0  0  0  0  0  0
  -24.8163  -24.6132   14.8853 C   0  0  0  0  0  0  0  0  0  0  0  0
  -26.2924  -25.3812   16.6745 C   0  0  0  0  0  0  0  0  0  0  0  0
  -25.6708  -24.3527   15.8811 C   0  0  0  0  0  0  0  0  0  0  0  0
  -22.7958  -12.0873   20.2878 C   0  0  0  0  0  0  0  0  0  0  0  0
  -24.3339  -29.5646   23.4985 C   0  0  0  0  0  0  0  0  0  0  0  0
  -21.5549  -29.4932   21.8270 C   0  0  0  0  0  0  0  0  0  0  0  0
  -20.4033  -28.1345   18.6893 C   0  0  0  0  0  0  0  0  0  0  0  0
  -28.9919  -17.0775   20.2539 C   0  0  0  0  0  0  0  0  0  0  0  0
  -25.9738  -31.4571   27.9467 C   0  0  0  0  0  0  0  0  0  0  0  0
  -24.8877  -31.0495   21.5377 C   0  0  0  0  0  0  0  0  0  0  0  0
  -23.5873  -28.5364   20.6786 C   0  0  0  0  0  0  0  0  0  0  0  0
  -24.6284  -31.0120   27.3792 C   0  0  0  0  0  0  0  0  0  0  0  0
  -30.0098  -13.7304   19.5922 C   0  0  0  0  0  0  0  0  0  0  0  0
  -29.6603  -24.4749   18.9007 C   0  0  0  0  0  0  0  0  0  0  0  0
  -24.7531  -29.6404   26.7235 C   0  0  0  0  0  0  0  0  0  0  0  0
  -29.3344  -25.9267   18.5682 C   0  0  0  0  0  0  0  0  0  0  0  0
  -28.7547  -12.9051   19.8853 C   0  0  0  0  0  0  0  0  0  0  0  0
  -30.1560  -14.9034   20.5598 C   0  0  0  0  0  0  0  0  0  0  0  0
  -27.7244  -14.9512   20.9524 C   0  0  0  0  0  0  0  0  0  0  0  0
  -28.9567  -23.5138   17.9481 C   0  0  0  0  0  0  0  0  0  0  0  0
  -25.7385  -29.6779   25.5491 C   0  0  1  0  0  0  0  0  0  0  0  0
  -27.8259  -26.1665   18.5325 C   0  0  1  0  0  0  0  0  0  1  0  0
  -23.7900  -30.3892   22.3663 C   0  0  1  0  0  0  0  0  0  0  0  0
  -27.4996  -13.7963   19.9628 C   0  0  2  0  0  0  0  0  0  0  0  0
  -25.4853  -21.1465   17.5329 C   0  0  0  0  0  0  0  0  0  0  0  0
  -26.0098  -18.3668   18.1168 C   0  0  0  0  0  0  0  0  0  0  0  0
  -18.5482  -28.8785   17.1719 C   0  0  0  0  0  0  0  0  0  0  0  0
  -19.8768  -27.4545   23.3560 C   0  0  0  0  0  0  0  0  0  0  0  0
  -18.7539  -26.8639   21.1977 C   0  0  0  0  0  0  0  0  0  0  0  0
  -18.5525  -29.1750   22.1148 C   0  0  0  0  0  0  0  0  0  0  0  0
  -22.2280  -28.3404   16.3684 C   0  0  0  0  0  0  0  0  0  0  0  0
  -26.7380  -23.2294   19.1413 C   0  0  0  0  0  0  0  0  0  0  0  0
  -20.7547  -28.4205   21.1284 C   0  0  1  0  0  0  0  0  0  0  0  0
  -20.0452  -28.9152   17.4377 C   0  0  2  0  0  0  0  0  0  0  0  0
  -19.5128  -27.9767   21.9518 C   0  0  0  0  0  0  0  0  0  0  0  0
  -26.3788  -11.9114   21.0907 N   0  0  0  0  0  0  0  0  0  0  0  0
  -26.2585  -12.9914   20.3001 N   0  0  0  0  0  0  0  0  0  0  0  0
  -22.9331  -29.5085   21.5699 N   0  0  0  0  0  0  0  0  0  0  0  0
  -28.9307  -15.7055   20.5773 N   0  0  0  0  0  0  0  0  0  0  0  0
  -24.6824  -14.2785   19.0876 N   0  0  0  0  0  0  0  0  0  0  0  0
  -21.9478  -12.7209   21.2063 N   0  0  0  0  0  0  0  0  0  0  0  0
  -27.7595  -17.7297   20.2722 N   0  0  0  0  0  0  0  0  0  0  0  0
  -25.1173  -30.2762   24.3870 N   0  0  0  0  0  0  0  0  0  0  0  0
  -20.4376  -28.9448   19.8044 N   0  0  0  0  0  0  0  0  0  0  0  0
  -27.4611  -23.7290   17.9209 N   0  3  1  0  0  0  0  0  0  0  0  0
  -20.7469  -28.3451   16.2530 N   0  3  0  0  0  0  0  0  0  0  0  0
  -22.2971  -11.3943   19.3687 O   0  0  0  0  0  0  0  0  0  0  0  0
  -24.0618  -28.3715   23.5621 O   0  0  0  0  0  0  0  0  0  0  0  0
  -20.9772  -30.2928   22.5677 O   0  0  0  0  0  0  0  0  0  0  0  0
  -20.6263  -26.9259   18.6795 O   0  0  0  0  0  0  0  0  0  0  0  0
  -30.0552  -17.6268   19.9543 O   0  0  0  0  0  0  0  0  0  0  0  0
  -23.9950   -6.8959   24.2066 O   0  0  0  0  0  0  0  0  0  0  0  0
  -27.5803  -27.4851   18.0540 O   0  0  0  0  0  0  0  0  0  1  0  0
  -19.1043   -4.4634   23.4528 F   0  0  0  0  0  0  0  0  0  0  0  0
  -23.8328   -4.2714   23.3530 F   0  0  0  0  0  0  0  0  0  0  0  0
  -29.1676  -19.7228   22.0693 Cl  0  0  0  0  0  0  0  0  0  0  0  0
  1  2  1  0  0  0  0
  1  5  2  0  0  0  0
  2  6  2  0  0  0  0
  3  8  2  0  0  0  0
  3 16  1  0  0  0  0
  4  9  1  0  0  0  0
  4 16  2  0  0  0  0
  5 18  1  0  0  0  0
  6 20  1  0  0  0  0
  7 10  2  0  0  0  0
  7 19  1  0  0  0  0
  8 26  1  0  0  0  0
  9 26  2  0  0  0  0
 10 27  1  0  0  0  0
 11 12  2  0  0  0  0
 11 28  1  0  0  0  0
 12 29  1  0  0  0  0
 13 21  1  0  0  0  0
 13 27  2  0  0  0  0
 14 22  1  0  0  0  0
 14 31  2  0  0  0  0
 15 29  2  0  0  0  0
 15 30  1  0  0  0  0
 16 32  1  0  0  0  0
 17 32  1  0  0  0  0
 17 33  2  0  0  0  0
 17 38  1  0  0  0  0
 18 20  2  0  0  0  0
 18 43  1  0  0  0  0
 19 21  2  0  0  0  0
 19 44  1  0  0  0  0
 20 55  1  0  0  0  0
 21 45  1  0  0  0  0
 22 23  2  0  0  0  0
 22 66  1  0  0  0  0
 23 24  1  0  0  0  0
 23 59  1  0  0  0  0
 24 25  2  0  0  0  0
 24 60  1  0  0  0  0
 25 31  1  0  0  0  0
 25 76  1  0  0  0  0
 26 86  1  0  0  0  0
 27 87  1  0  0  0  0
 28 30  2  0  0  0  0
 28 86  1  0  0  0  0
 29 88  1  0  0  0  0
 30 89  1  0  0  0  0
 31 90  1  0  0  0  0
 32 70  2  0  0  0  0
 33 71  1  0  0  0  0
 33 74  1  0  0  0  0
 34 36  2  0  0  0  0
 34 56  1  0  0  0  0
 34 79  1  0  0  0  0
 35 37  2  0  0  0  0
 36 37  1  0  0  0  0
 38 75  1  0  0  0  0
 38 81  2  0  0  0  0
 39 57  1  0  0  0  0
 39 77  1  0  0  0  0
 39 82  2  0  0  0  0
 40 67  1  0  0  0  0
 40 72  1  0  0  0  0
 40 83  2  0  0  0  0
 41 68  1  0  0  0  0
 41 78  1  0  0  0  0
 41 84  2  0  0  0  0
 42 73  1  0  0  0  0
 42 76  1  0  0  0  0
 42 85  2  0  0  0  0
 43 46  1  0  0  0  0
 44 57  1  0  0  0  0
 45 72  1  0  0  0  0
 46 49  1  0  0  0  0
 47 51  1  0  0  0  0
 47 52  1  0  0  0  0
 48 50  1  0  0  0  0
 48 54  1  0  0  0  0
 49 55  1  0  0  0  0
 50 56  1  0  0  0  0
 51 58  1  0  0  0  0
 52 73  1  0  0  0  0
 53 58  1  0  0  0  0
 53 73  1  0  0  0  0
 54 79  1  0  0  0  0
 55 77  1  0  0  0  0
 56 87  1  0  0  0  0
 57 72  1  0  0  0  0
 58 71  1  0  0  0  0
 61 68  1  0  0  0  0
 62 69  1  0  0  0  0
 63 69  1  0  0  0  0
 64 69  1  0  0  0  0
 65 80  1  0  0  0  0
 66 79  1  0  0  0  0
 67 69  1  0  0  0  0
 67 78  1  0  0  0  0
 68 80  1  0  0  0  0
 70 71  1  0  0  0  0
M  CHG  2  79   1  80   1
M  ISO  4  42 100  56 101  76 100  87 101
M  END
> <Batch ID>
0042

> <Smiles>
C=CC=C1N(Cc2cc(Cl)c([100NH:0][100C:0](=O)N3CCCC(n4nc(-c5ccc(Oc6ccc(F)cc6F)cc5)c(C(N)=O)c4N)C3)c(C)c2C)CCC[101CH:1]1[101O:1]c1ccc2c(c1)CN(C(=O)C(NC(=O)C(C)NC)C(C)(C)C)C(C(=O)NC1CCCc3ccccc31)C2

> <Shape>
0.323

> <Color>
0.103

> <Negative vol penalty>
0.000

$$$$

  -OEChem-04042322123D

 85 93  0     1  0  0  0  0  0999 V2000
  -18.4229  -30.7628   25.6903 C   0  0  0  0  0  0  0  0  0  0  0  0
  -19.8104  -30.6630   25.7099 C   0  0  0  0  0  0  0  0  0  0  0  0
  -23.4967  -14.4874   19.3099 C   0  0  0  0  0  0  0  0  0  0  0  0
  -24.7772  -15.1268   21.2564 C   0  0  0  0  0  0  0  0  0  0  0  0
  -17.6807  -29.9740   24.8124 C   0  0  0  0  0  0  0  0  0  0  0  0
  -20.4564  -29.7734   24.8522 C   0  0  0  0  0  0  0  0  0  0  0  0
  -26.5217  -29.0318   21.1134 C   0  0  0  0  0  0  0  0  0  0  0  0
  -24.4463  -13.5121   19.0055 C   0  0  0  0  0  0  0  0  0  0  0  0
  -25.7269  -14.1515   20.9520 C   0  0  0  0  0  0  0  0  0  0  0  0
  -27.5645  -28.1265   20.9209 C   0  0  0  0  0  0  0  0  0  0  0  0
  -28.3192  -13.7799   18.8136 C   0  0  0  0  0  0  0  0  0  0  0  0
  -29.6648  -14.1385   18.8931 C   0  0  0  0  0  0  0  0  0  0  0  0
  -26.1844  -26.8715   19.3913 C   0  0  0  0  0  0  0  0  0  0  0  0
  -24.3748  -23.1971   25.0630 C   0  0  0  0  0  0  0  0  0  0  0  0
  -30.0204  -12.4326   20.5666 C   0  0  0  0  0  0  0  0  0  0  0  0
  -26.2793  -22.1317   26.0998 C   0  0  0  0  0  0  0  0  0  0  0  0
  -23.6622  -15.2948   20.4353 C   0  0  0  0  0  0  0  0  0  0  0  0
  -21.5358  -16.1525   21.5536 C   0  0  0  0  0  0  0  0  0  0  0  0
  -18.3186  -29.0812   23.9368 C   0  0  0  0  0  0  0  0  0  0  0  0
  -25.2967  -28.8573   20.4536 C   0  0  0  0  0  0  0  0  0  0  0  0
  -19.7220  -28.9709   23.9627 C   0  0  0  0  0  0  0  0  0  0  0  0
  -25.1286  -27.7773   19.5752 C   0  0  0  0  0  0  0  0  0  0  0  0
  -25.0163  -23.1396   23.8257 C   0  0  0  0  0  0  0  0  0  0  0  0
  -26.2892  -22.5782   23.7255 C   0  0  0  0  0  0  0  0  0  0  0  0
  -25.5614  -13.3441   19.8265 C   0  0  0  0  0  0  0  0  0  0  0  0
  -27.3949  -27.0446   20.0620 C   0  0  0  0  0  0  0  0  0  0  0  0
  -27.8241  -12.7477   19.6106 C   0  0  0  0  0  0  0  0  0  0  0  0
  -30.5154  -13.4648   19.7695 C   0  0  0  0  0  0  0  0  0  0  0  0
  -28.6748  -12.0741   20.4871 C   0  0  0  0  0  0  0  0  0  0  0  0
  -25.0063  -22.6931   26.2001 C   0  0  0  0  0  0  0  0  0  0  0  0
  -26.9207  -22.0742   24.8626 C   0  0  0  0  0  0  0  0  0  0  0  0
  -22.6819  -16.3028   20.7500 C   0  0  0  0  0  0  0  0  0  0  0  0
  -20.9414  -17.3906   21.5390 C   0  0  0  0  0  0  0  0  0  0  0  0
  -21.0518  -14.9970   22.2510 C   0  0  0  0  0  0  0  0  0  0  0  0
  -22.2981  -28.3624   21.3846 C   0  0  0  0  0  0  0  0  0  0  0  0
  -21.6720  -28.6947   18.2192 C   0  0  0  0  0  0  0  0  0  0  0  0
  -22.8088  -28.5135   15.0064 C   0  0  0  0  0  0  0  0  0  0  0  0
  -23.0557  -22.9180   20.6288 C   0  0  0  0  0  0  0  0  0  0  0  0
  -17.4711  -28.2150   23.0389 C   0  0  0  0  0  0  0  0  0  0  0  0
  -24.1910  -29.8575   20.6515 C   0  0  0  0  0  0  0  0  0  0  0  0
  -23.8400  -27.5566   18.8274 C   0  0  0  0  0  0  0  0  0  0  0  0
  -18.2549  -27.5687   21.8995 C   0  0  0  0  0  0  0  0  0  0  0  0
  -20.4717  -21.2865   18.8018 C   0  0  0  0  0  0  0  0  0  0  0  0
  -19.5523  -26.9600   22.4221 C   0  0  0  0  0  0  0  0  0  0  0  0
  -20.6417  -19.8107   19.1665 C   0  0  0  0  0  0  0  0  0  0  0  0
  -21.8178  -21.9989   18.6899 C   0  0  0  0  0  0  0  0  0  0  0  0
  -22.8604  -20.3874   20.2358 C   0  0  0  0  0  0  0  0  0  0  0  0
  -20.4606  -28.0355   23.0302 C   0  0  1  0  0  0  0  0  0  0  0  0
  -22.8110  -29.2952   20.3243 C   0  0  1  0  0  0  0  0  0  0  0  0
  -21.5278  -19.6401   20.4150 C   0  0  2  0  0  0  0  0  0  0  0  0
  -22.0548  -28.8051   12.6307 C   0  0  0  0  0  0  0  0  0  0  0  0
  -20.2271  -26.0105   18.3509 C   0  0  0  0  0  0  0  0  0  0  0  0
  -20.3378  -25.9072   15.8518 C   0  0  0  0  0  0  0  0  0  0  0  0
  -19.0768  -27.7477   16.9677 C   0  0  0  0  0  0  0  0  0  0  0  0
  -24.7595  -30.6880   14.5320 C   0  0  0  0  0  0  0  0  0  0  0  0
  -24.3165  -23.6855   22.6239 C   0  0  0  0  0  0  0  0  0  0  0  0
  -26.9654  -22.5247   22.3873 C   0  0  0  0  0  0  0  0  0  0  0  0
  -29.8574  -24.5397   20.8916 C   0  0  0  0  0  0  0  0  0  0  0  0
  -28.7819  -23.4657   20.9542 C   0  0  0  0  0  0  0  0  0  0  0  0
  -29.3103  -25.9601   20.9625 C   0  0  0  0  0  0  0  0  0  1  0  0
  -21.6040  -27.7563   17.0385 C   0  0  1  0  0  0  0  0  0  0  0  0
  -22.6879  -29.4768   13.8393 C   0  0  2  0  0  0  0  0  0  0  0  0
  -20.3352  -26.8582   17.0677 C   0  0  0  0  0  0  0  0  0  0  0  0
  -22.8098  -17.5388   20.2604 N   0  0  0  0  0  0  0  0  0  0  0  0
  -21.7364  -18.1765   20.7576 N   0  0  0  0  0  0  0  0  0  0  0  0
  -22.7864  -28.5584   19.0591 N   0  0  0  0  0  0  0  0  0  0  0  0
  -22.6087  -21.7992   19.9067 N   0  0  0  0  0  0  0  0  0  0  0  0
  -19.8214  -17.8728   22.1183 N   0  0  0  0  0  0  0  0  0  0  0  0
  -21.7845  -13.8057   22.1594 N   0  0  0  0  0  0  0  0  0  0  0  0
  -21.1273  -28.7835   21.9859 N   0  0  0  0  0  0  0  0  0  0  0  0
  -21.7185  -28.5904   15.8471 N   0  0  0  0  0  0  0  0  0  0  0  0
  -23.7933  -22.6400   21.7730 N   0  0  0  0  0  0  0  0  0  0  0  0
  -24.0326  -29.9837   13.4446 N   0  3  0  0  0  0  0  0  0  0  0  0
  -28.0510  -23.5335   22.2413 N   0  3  0  0  0  0  0  0  0  0  0  0
  -19.9920  -15.0159   22.9218 O   0  0  0  0  0  0  0  0  0  0  0  0
  -22.9177  -27.3358   21.6374 O   0  0  0  0  0  0  0  0  0  0  0  0
  -20.7733  -29.5230   18.3859 O   0  0  0  0  0  0  0  0  0  0  0  0
  -23.7721  -27.7650   15.1552 O   0  0  0  0  0  0  0  0  0  0  0  0
  -22.8107  -24.0786   20.2825 O   0  0  0  0  0  0  0  0  0  0  0  0
  -26.4881  -12.3924   19.5299 O   0  0  0  0  0  0  0  0  0  0  0  0
  -28.4108  -26.1591   19.8727 O   0  0  0  0  0  0  0  0  0  1  0  0
  -31.8079  -13.8082   19.8447 F   0  0  0  0  0  0  0  0  0  0  0  0
  -28.2052  -11.0808   21.2544 F   0  0  0  0  0  0  0  0  0  0  0  0
  -24.2141  -22.7663   27.7263 Cl  0  0  0  0  0  0  0  0  0  0  0  0
  -28.4958  -21.3716   24.7804 Cl  0  0  0  0  0  0  0  0  0  0  0  0
  1  2  1  0  0  0  0
  1  5  2  0  0  0  0
  2  6  2  0  0  0  0
  3  8  2  0  0  0  0
  3 17  1  0  0  0  0
  4  9  1  0  0  0  0
  4 17  2  0  0  0  0
  5 19  1  0  0  0  0
  6 21  1  0  0  0  0
  7 10  2  0  0  0  0
  7 20  1  0  0  0  0
  8 25  1  0  0  0  0
  9 25  2  0  0  0  0
 10 26  1  0  0  0  0
 11 12  2  0  0  0  0
 11 27  1  0  0  0  0
 12 28  1  0  0  0  0
 13 22  1  0  0  0  0
 13 26  2  0  0  0  0
 14 23  1  0  0  0  0
 14 30  2  0  0  0  0
 15 28  2  0  0  0  0
 15 29  1  0  0  0  0
 16 30  1  0  0  0  0
 16 31  2  0  0  0  0
 17 32  1  0  0  0  0
 18 32  1  0  0  0  0
 18 33  2  0  0  0  0
 18 34  1  0  0  0  0
 19 21  2  0  0  0  0
 19 39  1  0  0  0  0
 20 22  2  0  0  0  0
 20 40  1  0  0  0  0
 21 48  1  0  0  0  0
 22 41  1  0  0  0  0
 23 24  2  0  0  0  0
 23 56  1  0  0  0  0
 24 31  1  0  0  0  0
 24 57  1  0  0  0  0
 25 80  1  0  0  0  0
 26 81  1  0  0  0  0
 27 29  2  0  0  0  0
 27 80  1  0  0  0  0
 28 82  1  0  0  0  0
 29 83  1  0  0  0  0
 30 84  1  0  0  0  0
 31 85  1  0  0  0  0
 32 64  2  0  0  0  0
 33 65  1  0  0  0  0
 33 68  1  0  0  0  0
 34 69  1  0  0  0  0
 34 75  2  0  0  0  0
 35 49  1  0  0  0  0
 35 70  1  0  0  0  0
 35 76  2  0  0  0  0
 36 61  1  0  0  0  0
 36 66  1  0  0  0  0
 36 77  2  0  0  0  0
 37 62  1  0  0  0  0
 37 71  1  0  0  0  0
 37 78  2  0  0  0  0
 38 67  1  0  0  0  0
 38 72  1  0  0  0  0
 38 79  2  0  0  0  0
 39 42  1  0  0  0  0
 40 49  1  0  0  0  0
 41 66  1  0  0  0  0
 42 44  1  0  0  0  0
 43 45  1  0  0  0  0
 43 46  1  0  0  0  0
 44 48  1  0  0  0  0
 45 50  1  0  0  0  0
 46 67  1  0  0  0  0
 47 50  1  0  0  0  0
 47 67  1  0  0  0  0
 48 70  1  0  0  0  0
 49 66  1  0  0  0  0
 50 65  1  0  0  0  0
 51 62  1  0  0  0  0
 52 63  1  0  0  0  0
 53 63  1  0  0  0  0
 54 63  1  0  0  0  0
 55 73  1  0  0  0  0
 56 72  1  0  0  0  0
 57 74  1  0  0  0  0
 58 59  1  0  0  0  0
 58 60  1  0  0  0  0
 59 74  1  0  0  0  0
 60 81  1  0  0  0  0
 61 63  1  0  0  0  0
 61 71  1  0  0  0  0
 62 73  1  0  0  0  0
 64 65  1  0  0  0  0
M  CHG  2  73   1  74   1
M  ISO  4  38 100  60 101  72 100  81 101
M  END
> <Batch ID>
0042

> <Smiles>
CNC(C)C(=O)NC(C(=O)N1Cc2cc([101O:1][101CH2:1]CCNCc3c(Cl)cc(Cl)cc3C[100NH:0][100C:0](=O)N3CCCC(n4nc(-c5ccc(Oc6ccc(F)cc6F)cc5)c(C(N)=O)c4N)C3)ccc2CC1C(=O)NC1CCCc2ccccc21)C(C)(C)C

> <Shape>
0.198

> <Color>
0.079

> <Negative vol penalty>
0.000

$$$$

  -OEChem-04042322123D

 90 99  0     1  0  0  0  0  0999 V2000
  -18.3319  -19.4691   26.5093 C   0  0  0  0  0  0  0  0  0  0  0  0
  -19.1645  -18.6826   25.7197 C   0  0  0  0  0  0  0  0  0  0  0  0
  -26.5119  -25.4990   22.0290 C   0  0  0  0  0  0  0  0  0  0  0  0
  -25.7588  -24.4644   19.9797 C   0  0  0  0  0  0  0  0  0  0  0  0
  -17.5364  -20.4504   25.9193 C   0  0  0  0  0  0  0  0  0  0  0  0
  -19.2013  -18.8763   24.3393 C   0  0  0  0  0  0  0  0  0  0  0  0
  -23.9222  -18.9044   22.5068 C   0  0  0  0  0  0  0  0  0  0  0  0
  -26.4244  -26.7544   21.4274 C   0  0  0  0  0  0  0  0  0  0  0  0
  -25.6713  -25.7198   19.3781 C   0  0  0  0  0  0  0  0  0  0  0  0
  -24.5490  -17.6699   22.3430 C   0  0  0  0  0  0  0  0  0  0  0  0
  -24.0026  -28.9866   20.6623 C   0  0  0  0  0  0  0  0  0  0  0  0
  -23.4043  -30.0143   21.3911 C   0  0  0  0  0  0  0  0  0  0  0  0
  -24.0297  -17.7255   19.9879 C   0  0  0  0  0  0  0  0  0  0  0  0
  -30.1526  -13.2164   18.2326 C   0  0  0  0  0  0  0  0  0  0  0  0
  -25.4524  -31.2904   21.2730 C   0  0  0  0  0  0  0  0  0  0  0  0
  -26.1791  -24.3540   21.3052 C   0  0  0  0  0  0  0  0  0  0  0  0
  -25.5771  -22.6102   23.0671 C   0  0  0  0  0  0  0  0  0  0  0  0
  -17.5708  -20.6628   24.5321 C   0  0  0  0  0  0  0  0  0  0  0  0
  -23.3339  -19.5547   21.4125 C   0  0  0  0  0  0  0  0  0  0  0  0
  -18.4046  -19.8605   23.7299 C   0  0  0  0  0  0  0  0  0  0  0  0
  -23.3983  -18.9694   20.1400 C   0  0  0  0  0  0  0  0  0  0  0  0
  -29.1096  -13.7729   18.9730 C   0  0  0  0  0  0  0  0  0  0  0  0
  -29.2400  -11.9362   20.5372 C   0  0  0  0  0  0  0  0  0  0  0  0
  -28.6533  -13.1328   20.1252 C   0  0  0  0  0  0  0  0  0  0  0  0
  -30.2829  -11.3797   19.7967 C   0  0  0  0  0  0  0  0  0  0  0  0
  -26.0041  -26.8648   20.1020 C   0  0  0  0  0  0  0  0  0  0  0  0
  -24.6003  -17.0789   21.0840 C   0  0  0  0  0  0  0  0  0  0  0  0
  -25.3259  -29.1106   20.2389 C   0  0  0  0  0  0  0  0  0  0  0  0
  -24.1291  -31.1663   21.6964 C   0  0  0  0  0  0  0  0  0  0  0  0
  -26.0508  -30.2626   20.5442 C   0  0  0  0  0  0  0  0  0  0  0  0
  -30.7392  -12.0198   18.6445 C   0  0  0  0  0  0  0  0  0  0  0  0
  -26.2699  -23.0568   21.9259 C   0  0  0  0  0  0  0  0  0  0  0  0
  -26.0089  -21.3189   23.2474 C   0  0  0  0  0  0  0  0  0  0  0  0
  -24.1295  -12.7480   21.8649 C   0  0  0  0  0  0  0  0  0  0  0  0
  -25.1598  -13.5564   21.5471 C   0  0  0  0  0  0  0  0  0  0  0  0
  -24.6281  -23.3008   23.8906 C   0  0  0  0  0  0  0  0  0  0  0  0
  -20.3821  -20.4698   20.6687 C   0  0  0  0  0  0  0  0  0  0  0  0
  -21.8645  -21.8381   18.1285 C   0  0  0  0  0  0  0  0  0  0  0  0
  -24.4855  -20.9464   15.8150 C   0  0  0  0  0  0  0  0  0  0  0  0
  -28.1338  -17.3174   19.4620 C   0  0  0  0  0  0  0  0  0  0  0  0
  -16.6577  -21.7037   23.9342 C   0  0  0  0  0  0  0  0  0  0  0  0
  -22.6850  -20.8985   21.6009 C   0  0  0  0  0  0  0  0  0  0  0  0
  -22.7999  -19.6360   18.9293 C   0  0  0  0  0  0  0  0  0  0  0  0
  -23.8305  -11.3550   21.3767 C   0  0  0  0  0  0  0  0  0  0  0  0
  -17.0342  -22.0975   22.5083 C   0  0  0  0  0  0  0  0  0  0  0  0
  -24.4636  -10.8907   20.0573 C   0  0  0  0  0  0  0  0  0  0  0  0
  -29.7881  -18.4895   22.4599 C   0  0  0  0  0  0  0  0  0  0  0  0
  -24.6203  -12.0157   19.0336 C   0  0  0  0  0  0  0  0  0  0  0  0
  -17.3101  -20.8556   21.6666 C   0  0  0  0  0  0  0  0  0  0  0  0
  -28.9953  -19.7612   22.7673 C   0  0  0  0  0  0  0  0  0  0  0  0
  -29.9738  -18.3037   20.9568 C   0  0  0  0  0  0  0  0  0  0  0  0
  -27.9110  -19.5655   20.4813 C   0  0  0  0  0  0  0  0  0  0  0  0
  -25.8235  -12.9318   19.2790 C   0  0  0  0  0  0  0  0  0  0  0  0
  -18.4909  -20.0571   22.2319 C   0  0  1  0  0  0  0  0  0  0  0  0
  -21.6690  -21.2294   20.5119 C   0  0  1  0  0  0  0  0  0  0  0  0
  -27.6698  -19.7983   21.9839 C   0  0  2  0  0  0  0  0  0  0  0  0
  -28.7494  -11.2511   21.7739 C   0  0  0  0  0  0  0  0  0  0  0  0
  -30.9035  -10.0944   20.2505 C   0  0  0  0  0  0  0  0  0  0  0  0
  -26.0707  -22.3894   14.5103 C   0  0  0  0  0  0  0  0  0  0  0  0
  -19.7875  -21.6077   15.9053 C   0  0  0  0  0  0  0  0  0  0  0  0
  -21.6680  -21.4620   14.2588 C   0  0  0  0  0  0  0  0  0  0  0  0
  -21.3845  -23.5149   15.6473 C   0  0  0  0  0  0  0  0  0  0  0  0
  -26.8491  -19.5450   16.9144 C   0  0  0  0  0  0  0  0  0  0  0  0
  -28.4985  -15.0550   18.5106 C   0  0  0  0  0  0  0  0  0  0  0  0
  -27.5312  -13.7339   20.9192 C   0  0  0  0  0  0  0  0  0  0  0  0
  -25.1903  -14.9799   22.0338 C   0  0  0  0  0  0  0  0  0  1  0  0
  -22.2237  -21.3910   16.7321 C   0  0  1  0  0  0  0  0  0  0  0  0
  -25.8834  -21.5352   15.7545 C   0  0  2  0  0  0  0  0  0  0  0  0
  -21.2641  -21.9754   15.6574 C   0  0  0  0  0  0  0  0  0  0  0  0
  -27.0803  -22.1250   21.4171 N   0  0  0  0  0  0  0  0  0  0  0  0
  -26.8996  -21.0800   22.2425 N   0  0  0  0  0  0  0  0  0  0  0  0
  -22.1709  -20.9459   19.1658 N   0  0  0  0  0  0  0  0  0  0  0  0
  -28.6734  -18.3301   20.2724 N   0  0  0  0  0  0  0  0  0  0  0  0
  -25.7099  -20.3758   24.1659 N   0  0  0  0  0  0  0  0  0  0  0  0
  -25.1027  -24.0292   24.9899 N   0  0  0  0  0  0  0  0  0  0  0  0
  -19.7440  -20.6869   21.8750 N   0  0  0  0  0  0  0  0  0  0  0  0
  -23.6255  -21.7458   16.5378 N   0  0  0  0  0  0  0  0  0  0  0  0
  -28.9220  -16.1833   19.3096 N   0  0  0  0  0  0  0  0  0  0  0  0
  -26.2227  -13.0113   20.7323 N   0  3  1  0  0  0  0  0  0  0  0  0
  -26.9029  -20.4484   15.7362 N   0  3  0  0  0  0  0  0  0  0  0  0
  -23.3943  -23.2594   23.6680 O   0  0  0  0  0  0  0  0  0  0  0  0
  -19.9959  -19.7418   19.7617 O   0  0  0  0  0  0  0  0  0  0  0  0
  -21.3382  -22.9415   18.2936 O   0  0  0  0  0  0  0  0  0  0  0  0
  -24.1856  -19.8854   15.2720 O   0  0  0  0  0  0  0  0  0  0  0  0
  -27.0283  -17.4144   18.9185 O   0  0  0  0  0  0  0  0  0  0  0  0
  -25.9183  -28.0897   19.5147 O   0  0  0  0  0  0  0  0  0  0  0  0
  -25.2109  -15.8736   20.9215 O   0  0  0  0  0  0  0  0  0  1  0  0
  -23.5539  -32.1539   22.3950 F   0  0  0  0  0  0  0  0  0  0  0  0
  -27.3220  -30.3880   20.1392 F   0  0  0  0  0  0  0  0  0  0  0  0
  -32.0281  -11.3645   17.7006 Cl  0  0  0  0  0  0  0  0  0  0  0  0
  1  2  1  0  0  0  0
  1  5  2  0  0  0  0
  2  6  2  0  0  0  0
  3  8  2  0  0  0  0
  3 16  1  0  0  0  0
  4  9  1  0  0  0  0
  4 16  2  0  0  0  0
  5 18  1  0  0  0  0
  6 20  1  0  0  0  0
  7 10  2  0  0  0  0
  7 19  1  0  0  0  0
  8 26  1  0  0  0  0
  9 26  2  0  0  0  0
 10 27  1  0  0  0  0
 11 12  2  0  0  0  0
 11 28  1  0  0  0  0
 12 29  1  0  0  0  0
 13 21  1  0  0  0  0
 13 27  2  0  0  0  0
 14 22  2  0  0  0  0
 14 31  1  0  0  0  0
 15 29  2  0  0  0  0
 15 30  1  0  0  0  0
 16 32  1  0  0  0  0
 17 32  1  0  0  0  0
 17 33  2  0  0  0  0
 17 36  1  0  0  0  0
 18 20  2  0  0  0  0
 18 41  1  0  0  0  0
 19 21  2  0  0  0  0
 19 42  1  0  0  0  0
 20 54  1  0  0  0  0
 21 43  1  0  0  0  0
 22 24  1  0  0  0  0
 22 64  1  0  0  0  0
 23 24  2  0  0  0  0
 23 25  1  0  0  0  0
 23 57  1  0  0  0  0
 24 65  1  0  0  0  0
 25 31  2  0  0  0  0
 25 58  1  0  0  0  0
 26 86  1  0  0  0  0
 27 87  1  0  0  0  0
 28 30  2  0  0  0  0
 28 86  1  0  0  0  0
 29 88  1  0  0  0  0
 30 89  1  0  0  0  0
 31 90  1  0  0  0  0
 32 70  2  0  0  0  0
 33 71  1  0  0  0  0
 33 74  1  0  0  0  0
 34 35  2  0  0  0  0
 34 44  1  0  0  0  0
 35 66  1  0  0  0  0
 35 79  1  0  0  0  0
 36 75  1  0  0  0  0
 36 81  2  0  0  0  0
 37 55  1  0  0  0  0
 37 76  1  0  0  0  0
 37 82  2  0  0  0  0
 38 67  1  0  0  0  0
 38 72  1  0  0  0  0
 38 83  2  0  0  0  0
 39 68  1  0  0  0  0
 39 77  1  0  0  0  0
 39 84  2  0  0  0  0
 40 73  1  0  0  0  0
 40 78  1  0  0  0  0
 40 85  2  0  0  0  0
 41 45  1  0  0  0  0
 42 55  1  0  0  0  0
 43 72  1  0  0  0  0
 44 46  1  0  0  0  0
 45 49  1  0  0  0  0
 46 48  1  0  0  0  0
 47 50  1  0  0  0  0
 47 51  1  0  0  0  0
 48 53  1  0  0  0  0
 49 54  1  0  0  0  0
 50 56  1  0  0  0  0
 51 73  1  0  0  0  0
 52 56  1  0  0  0  0
 52 73  1  0  0  0  0
 53 79  1  0  0  0  0
 54 76  1  0  0  0  0
 55 72  1  0  0  0  0
 56 71  1  0  0  0  0
 59 68  1  0  0  0  0
 60 69  1  0  0  0  0
 61 69  1  0  0  0  0
 62 69  1  0  0  0  0
 63 80  1  0  0  0  0
 64 78  1  0  0  0  0
 65 79  1  0  0  0  0
 66 87  1  0  0  0  0
 67 69  1  0  0  0  0
 67 77  1  0  0  0  0
 68 80  1  0  0  0  0
 70 71  1  0  0  0  0
M  CHG  2  79   1  80   1
M  ISO  4  40 100  66 101  78 100  87 101
M  END
> <Batch ID>
0042

> <Smiles>
CNC(C)C(=O)NC(C(=O)N1Cc2cc([101O:1][101CH2:1]C3=CCCCCN3Cc3c(C[100NH:0][100C:0](=O)N4CCCC(n5nc(-c6ccc(Oc7ccc(F)cc7F)cc6)c(C(N)=O)c5N)C4)cc(Cl)c(C)c3C)ccc2CC1C(=O)NC1CCCc2ccccc21)C(C)(C)C

> <Shape>
0.168

> <Color>
0.053

> <Negative vol penalty>
0.000

$$$$

  -OEChem-04042322123D

 87 96  0     1  0  0  0  0  0999 V2000
  -17.6454  -11.6714   21.9999 C   0  0  0  0  0  0  0  0  0  0  0  0
  -18.0307  -13.0069   21.9431 C   0  0  0  0  0  0  0  0  0  0  0  0
  -22.1141  -28.3177   21.2352 C   0  0  0  0  0  0  0  0  0  0  0  0
  -23.3867  -28.5353   23.2773 C   0  0  0  0  0  0  0  0  0  0  0  0
  -18.5220  -10.7152   22.5110 C   0  0  0  0  0  0  0  0  0  0  0  0
  -19.2926  -13.3873   22.3985 C   0  0  0  0  0  0  0  0  0  0  0  0
  -24.5005  -18.1313   21.0991 C   0  0  0  0  0  0  0  0  0  0  0  0
  -20.9909  -27.9470   21.9746 C   0  0  0  0  0  0  0  0  0  0  0  0
  -22.2635  -28.1646   24.0167 C   0  0  0  0  0  0  0  0  0  0  0  0
  -25.2795  -19.0826   21.7565 C   0  0  0  0  0  0  0  0  0  0  0  0
  -18.6105  -29.4774   23.8250 C   0  0  0  0  0  0  0  0  0  0  0  0
  -17.3910  -30.0663   23.4908 C   0  0  0  0  0  0  0  0  0  0  0  0
  -26.7401  -17.3325   22.5457 C   0  0  0  0  0  0  0  0  0  0  0  0
  -32.5342  -26.0844   24.3907 C   0  0  0  0  0  0  0  0  0  0  0  0
  -32.2574  -23.8869   23.4259 C   0  0  0  0  0  0  0  0  0  0  0  0
  -16.4679  -27.8848   23.0152 C   0  0  0  0  0  0  0  0  0  0  0  0
  -23.3120  -28.6118   21.8865 C   0  0  0  0  0  0  0  0  0  0  0  0
  -24.8521  -30.2970   20.7482 C   0  0  0  0  0  0  0  0  0  0  0  0
  -19.7989  -11.0826   22.9639 C   0  0  0  0  0  0  0  0  0  0  0  0
  -24.8299  -16.7700   21.1693 C   0  0  0  0  0  0  0  0  0  0  0  0
  -20.1867  -12.4353   22.9173 C   0  0  0  0  0  0  0  0  0  0  0  0
  -25.9652  -16.3661   21.8863 C   0  0  0  0  0  0  0  0  0  0  0  0
  -32.7977  -24.7148   24.4099 C   0  0  0  0  0  0  0  0  0  0  0  0
  -31.7305  -26.6261   23.3876 C   0  0  0  0  0  0  0  0  0  0  0  0
  -31.4537  -24.4286   22.4227 C   0  0  0  0  0  0  0  0  0  0  0  0
  -31.1903  -25.7982   22.4035 C   0  0  0  0  0  0  0  0  0  0  0  0
  -21.0656  -27.8704   23.3653 C   0  0  0  0  0  0  0  0  0  0  0  0
  -26.3978  -18.6830   22.4822 C   0  0  0  0  0  0  0  0  0  0  0  0
  -18.7587  -28.0922   23.7542 C   0  0  0  0  0  0  0  0  0  0  0  0
  -16.3197  -29.2700   23.0859 C   0  0  0  0  0  0  0  0  0  0  0  0
  -17.6874  -27.2959   23.3494 C   0  0  0  0  0  0  0  0  0  0  0  0
  -24.4727  -28.9942   21.1233 C   0  0  0  0  0  0  0  0  0  0  0  0
  -26.0172  -30.1252   20.0415 C   0  0  0  0  0  0  0  0  0  0  0  0
  -24.2089  -31.5503   21.0150 C   0  0  0  0  0  0  0  0  0  0  0  0
  -23.3895  -14.1687   22.2929 C   0  0  0  0  0  0  0  0  0  0  0  0
  -25.9264  -12.6582   20.9493 C   0  0  0  0  0  0  0  0  0  0  0  0
  -29.1589  -12.8270   19.8681 C   0  0  0  0  0  0  0  0  0  0  0  0
  -30.2262  -25.8840   20.0777 C   0  0  0  0  0  0  0  0  0  0  0  0
  -20.6940  -10.0206   23.5519 C   0  0  0  0  0  0  0  0  0  0  0  0
  -23.9947  -15.7590   20.4326 C   0  0  0  0  0  0  0  0  0  0  0  0
  -26.3733  -14.9191   21.9759 C   0  0  0  0  0  0  0  0  0  0  0  0
  -22.1543  -10.4501   23.6670 C   0  0  0  0  0  0  0  0  0  0  0  0
  -28.2881  -26.9368   17.2826 C   0  0  0  0  0  0  0  0  0  0  0  0
  -22.2538  -11.8480   24.2693 C   0  0  0  0  0  0  0  0  0  0  0  0
  -27.1276  -27.7076   17.9159 C   0  0  0  0  0  0  0  0  0  0  0  0
  -27.8973  -21.9043   23.1401 C   0  0  0  0  0  0  0  0  0  0  0  0
  -29.1259  -20.1234   21.8554 C   0  0  0  0  0  0  0  0  0  0  0  0
  -28.6951  -25.7302   18.1265 C   0  0  0  0  0  0  0  0  0  0  0  0
  -27.8237  -26.7979   20.1686 C   0  0  0  0  0  0  0  0  0  0  0  0
  -28.6668  -22.9821   22.3936 C   0  0  0  0  0  0  0  0  0  0  0  0
  -21.5565  -12.8834   23.3787 C   0  0  1  0  0  0  0  0  0  0  0  0
  -24.1287  -14.3480   20.9970 C   0  0  1  0  0  0  0  0  0  0  0  0
  -27.4211  -28.0594   19.3875 C   0  0  2  0  0  0  0  0  0  0  0  0
  -27.7615  -20.6221   22.3251 C   0  0  1  0  0  0  0  0  0  1  0  0
  -29.9220  -21.1842   21.0895 C   0  0  1  0  0  0  0  0  0  0  0  0
  -33.6566  -24.1357   25.4825 C   0  0  0  0  0  0  0  0  0  0  0  0
  -31.4659  -28.0971   23.3940 C   0  0  0  0  0  0  0  0  0  0  0  0
  -29.3389  -21.4780   19.7085 C   0  0  0  0  0  0  0  0  0  0  0  0
  -30.9724  -11.4208   18.8526 C   0  0  0  0  0  0  0  0  0  0  0  0
  -26.4120  -11.3346   23.6553 C   0  0  0  0  0  0  0  0  0  0  0  0
  -28.7085  -10.7246   22.8666 C   0  0  0  0  0  0  0  0  0  0  0  0
  -26.7053   -9.8212   21.6861 C   0  0  0  0  0  0  0  0  0  0  0  0
  -29.2994  -14.5412   17.4596 C   0  0  0  0  0  0  0  0  0  0  0  0
  -30.8875  -23.5127   21.3779 C   0  0  0  0  0  0  0  0  0  0  0  0
  -27.3058  -12.2623   21.4178 C   0  0  1  0  0  0  0  0  0  0  0  0
  -29.8149  -12.3683   18.5782 C   0  0  2  0  0  0  0  0  0  0  0  0
  -27.2744  -11.0628   22.4066 C   0  0  0  0  0  0  0  0  0  0  0  0
  -25.3273  -28.0635   20.6904 N   0  0  0  0  0  0  0  0  0  0  0  0
  -26.2554  -28.7823   20.0360 N   0  0  0  0  0  0  0  0  0  0  0  0
  -25.5211  -13.9678   21.2436 N   0  0  0  0  0  0  0  0  0  0  0  0
  -28.9616  -26.1403   19.5070 N   0  0  0  0  0  0  0  0  0  0  0  0
  -26.8509  -30.9934   19.4302 N   0  0  0  0  0  0  0  0  0  0  0  0
  -23.0192  -31.5464   21.7559 N   0  0  0  0  0  0  0  0  0  0  0  0
  -30.3740  -26.3482   21.3843 N   0  0  0  0  0  0  0  0  0  0  0  0
  -22.3897  -13.2162   22.2431 N   0  0  0  0  0  0  0  0  0  0  0  0
  -28.0930  -12.0232   20.2130 N   0  0  0  0  0  0  0  0  0  0  0  0
  -30.0055  -22.4363   21.9524 N   0  3  1  0  0  0  0  0  0  0  0  0
  -30.3359  -13.5389   17.8173 N   0  3  0  0  0  0  0  0  0  0  0  0
  -24.6667  -32.6398   20.5943 O   0  0  0  0  0  0  0  0  0  0  0  0
  -23.7040  -14.8435   23.2662 O   0  0  0  0  0  0  0  0  0  0  0  0
  -25.2367  -11.8380   20.3384 O   0  0  0  0  0  0  0  0  0  0  0  0
  -29.5549  -13.7989   20.5078 O   0  0  0  0  0  0  0  0  0  0  0  0
  -31.1220  -25.3202   19.4439 O   0  0  0  0  0  0  0  0  0  0  0  0
  -19.9698  -27.5090   24.0872 O   0  0  0  0  0  0  0  0  0  0  0  0
  -27.1594  -19.6094   23.1253 O   0  0  0  0  0  0  0  0  0  1  0  0
  -15.1483  -29.8356   22.7664 F   0  0  0  0  0  0  0  0  0  0  0  0
  -17.8234  -25.9645   23.2806 F   0  0  0  0  0  0  0  0  0  0  0  0
  1  2  1  0  0  0  0
  1  5  2  0  0  0  0
  2  6  2  0  0  0  0
  3  8  2  0  0  0  0
  3 17  1  0  0  0  0
  4  9  1  0  0  0  0
  4 17  2  0  0  0  0
  5 19  1  0  0  0  0
  6 21  1  0  0  0  0
  7 10  2  0  0  0  0
  7 20  1  0  0  0  0
  8 27  1  0  0  0  0
  9 27  2  0  0  0  0
 10 28  1  0  0  0  0
 11 12  2  0  0  0  0
 11 29  1  0  0  0  0
 12 30  1  0  0  0  0
 13 22  1  0  0  0  0
 13 28  2  0  0  0  0
 14 23  1  0  0  0  0
 14 24  2  0  0  0  0
 15 23  2  0  0  0  0
 15 25  1  0  0  0  0
 16 30  2  0  0  0  0
 16 31  1  0  0  0  0
 17 32  1  0  0  0  0
 18 32  1  0  0  0  0
 18 33  2  0  0  0  0
 18 34  1  0  0  0  0
 19 21  2  0  0  0  0
 19 39  1  0  0  0  0
 20 22  2  0  0  0  0
 20 40  1  0  0  0  0
 21 51  1  0  0  0  0
 22 41  1  0  0  0  0
 23 56  1  0  0  0  0
 24 26  1  0  0  0  0
 24 57  1  0  0  0  0
 25 26  2  0  0  0  0
 25 64  1  0  0  0  0
 26 74  1  0  0  0  0
 27 84  1  0  0  0  0
 28 85  1  0  0  0  0
 29 31  2  0  0  0  0
 29 84  1  0  0  0  0
 30 86  1  0  0  0  0
 31 87  1  0  0  0  0
 32 68  2  0  0  0  0
 33 69  1  0  0  0  0
 33 72  1  0  0  0  0
 34 73  1  0  0  0  0
 34 79  2  0  0  0  0
 35 52  1  0  0  0  0
 35 75  1  0  0  0  0
 35 80  2  0  0  0  0
 36 65  1  0  0  0  0
 36 70  1  0  0  0  0
 36 81  2  0  0  0  0
 37 66  1  0  0  0  0
 37 76  1  0  0  0  0
 37 82  2  0  0  0  0
 38 71  1  0  0  0  0
 38 74  1  0  0  0  0
 38 83  2  0  0  0  0
 39 42  1  0  0  0  0
 40 52  1  0  0  0  0
 41 70  1  0  0  0  0
 42 44  1  0  0  0  0
 43 45  1  0  0  0  0
 43 48  1  0  0  0  0
 44 51  1  0  0  0  0
 45 53  1  0  0  0  0
 46 50  1  0  0  0  0
 46 54  1  0  0  0  0
 47 54  1  0  0  0  0
 47 55  1  0  0  0  0
 48 71  1  0  0  0  0
 49 53  1  0  0  0  0
 49 71  1  0  0  0  0
 50 77  1  0  0  0  0
 51 75  1  0  0  0  0
 52 70  1  0  0  0  0
 53 69  1  0  0  0  0
 54 85  1  0  0  0  0
 55 58  1  0  0  0  0
 55 77  1  0  0  0  0
 59 66  1  0  0  0  0
 60 67  1  0  0  0  0
 61 67  1  0  0  0  0
 62 67  1  0  0  0  0
 63 78  1  0  0  0  0
 64 77  1  0  0  0  0
 65 67  1  0  0  0  0
 65 76  1  0  0  0  0
 66 78  1  0  0  0  0
 68 69  1  0  0  0  0
M  CHG  2  77   1  78   1
M  ISO  4  38 100  54 101  74 100  85 101
M  END
> <Batch ID>
0042

> <Smiles>
CNC(C)C(=O)NC(C(=O)N1Cc2cc([101O:1][101CH:1]3CCN(Cc4cc(C)cc(C)c4[100NH:0][100C:0](=O)N4CCCC(n5nc(-c6ccc(Oc7ccc(F)cc7F)cc6)c(C(N)=O)c5N)C4)C(C)C3)ccc2CC1C(=O)NC1CCCc2ccccc21)C(C)(C)C

> <Shape>
0.257

> <Color>
0.059

> <Negative vol penalty>
0.000

$$$$

  -OEChem-04042322123D

 88 97  0     1  0  0  0  0  0999 V2000
  -28.4841  -11.3926   19.7319 C   0  0  0  0  0  0  0  0  0  0  0  0
  -28.7667  -12.1860   20.8381 C   0  0  0  0  0  0  0  0  0  0  0  0
  -18.8689  -23.0737   18.3585 C   0  0  0  0  0  0  0  0  0  0  0  0
  -16.8507  -24.3749   18.0923 C   0  0  0  0  0  0  0  0  0  0  0  0
  -28.5050  -11.9503   18.4553 C   0  0  0  0  0  0  0  0  0  0  0  0
  -29.0587  -13.5399   20.6691 C   0  0  0  0  0  0  0  0  0  0  0  0
  -29.9379  -21.7968   21.3419 C   0  0  0  0  0  0  0  0  0  0  0  0
  -18.7805  -22.6644   17.0280 C   0  0  0  0  0  0  0  0  0  0  0  0
  -16.7623  -23.9656   16.7618 C   0  0  0  0  0  0  0  0  0  0  0  0
  -29.8612  -22.8670   20.4516 C   0  0  0  0  0  0  0  0  0  0  0  0
  -19.4727  -23.9456   13.9764 C   0  0  0  0  0  0  0  0  0  0  0  0
  -20.6375  -23.9768   13.2098 C   0  0  0  0  0  0  0  0  0  0  0  0
  -27.9737  -21.8242   19.3702 C   0  0  0  0  0  0  0  0  0  0  0  0
  -23.9340  -30.0873   20.7023 C   0  0  0  0  0  0  0  0  0  0  0  0
  -24.8309  -28.4696   22.2564 C   0  0  0  0  0  0  0  0  0  0  0  0
  -20.4522  -21.5978   12.8313 C   0  0  0  0  0  0  0  0  0  0  0  0
  -17.9040  -23.9290   18.8907 C   0  0  0  0  0  0  0  0  0  0  0  0
  -17.9857  -23.5314   21.4092 C   0  0  0  0  0  0  0  0  0  0  0  0
  -28.8097  -13.3090   18.2705 C   0  0  0  0  0  0  0  0  0  0  0  0
  -29.0385  -20.7252   21.2460 C   0  0  0  0  0  0  0  0  0  0  0  0
  -29.0613  -14.1268   19.3908 C   0  0  0  0  0  0  0  0  0  0  0  0
  -28.0396  -20.7428   20.2621 C   0  0  0  0  0  0  0  0  0  0  0  0
  -23.8932  -29.4539   21.9444 C   0  0  0  0  0  0  0  0  0  0  0  0
  -24.9124  -29.7363   19.7722 C   0  0  0  0  0  0  0  0  0  0  0  0
  -25.8094  -28.1186   21.3263 C   0  0  0  0  0  0  0  0  0  0  0  0
  -25.8502  -28.7519   20.0842 C   0  0  0  0  0  0  0  0  0  0  0  0
  -17.7272  -23.1103   16.2296 C   0  0  0  0  0  0  0  0  0  0  0  0
  -28.8808  -22.8794   19.4638 C   0  0  0  0  0  0  0  0  0  0  0  0
  -18.7976  -22.7405   14.1705 C   0  0  0  0  0  0  0  0  0  0  0  0
  -21.1273  -22.8029   12.6372 C   0  0  0  0  0  0  0  0  0  0  0  0
  -19.2873  -21.5666   13.5980 C   0  0  0  0  0  0  0  0  0  0  0  0
  -17.9945  -24.3517   20.2652 C   0  0  0  0  0  0  0  0  0  0  0  0
  -18.0947  -24.4079   22.4610 C   0  0  0  0  0  0  0  0  0  0  0  0
  -27.8948  -26.0991   18.9814 C   0  0  0  0  0  0  0  0  0  0  0  0
  -17.8877  -22.1047   21.5119 C   0  0  0  0  0  0  0  0  0  0  0  0
  -29.3141  -17.6085   20.6859 C   0  0  0  0  0  0  0  0  0  0  0  0
  -26.1375  -17.6055   21.3426 C   0  0  0  0  0  0  0  0  0  0  0  0
  -23.2885  -19.6828   20.5780 C   0  0  0  0  0  0  0  0  0  0  0  0
  -20.3668  -29.9259   22.9516 C   0  0  0  0  0  0  0  0  0  0  0  0
  -28.8107  -13.8626   16.8673 C   0  0  0  0  0  0  0  0  0  0  0  0
  -29.1177  -19.5911   22.2308 C   0  0  0  0  0  0  0  0  0  0  0  0
  -27.0372  -19.6265   20.1296 C   0  0  0  0  0  0  0  0  0  0  0  0
  -29.5599  -15.1860   16.7509 C   0  0  0  0  0  0  0  0  0  0  0  0
  -25.7226  -25.4792   17.0792 C   0  0  0  0  0  0  0  0  0  0  0  0
  -17.0422  -28.9041   23.7129 C   0  0  0  0  0  0  0  0  0  0  0  0
  -29.0905  -16.1460   17.8337 C   0  0  0  0  0  0  0  0  0  0  0  0
  -26.9922  -24.6357   17.1792 C   0  0  0  0  0  0  0  0  0  0  0  0
  -16.9085  -27.5475   23.0189 C   0  0  0  0  0  0  0  0  0  0  0  0
  -25.5551  -26.4524   18.2428 C   0  0  0  0  0  0  0  0  0  0  0  0
  -17.8908  -29.8752   22.8951 C   0  0  0  0  0  0  0  0  0  0  0  0
  -19.0871  -28.0085   21.8190 C   0  0  0  0  0  0  0  0  0  0  0  0
  -29.4116  -15.5950   19.2288 C   0  0  1  0  0  0  0  0  0  0  0  0
  -27.5959  -24.6617   18.5776 C   0  0  1  0  0  0  0  0  0  1  0  0
  -28.4735  -18.3073   21.7168 C   0  0  1  0  0  0  0  0  0  0  0  0
  -18.2864  -26.9772   22.6323 C   0  0  2  0  0  0  0  0  0  0  0  0
  -24.9350  -30.4305   18.4496 C   0  0  0  0  0  0  0  0  0  0  0  0
  -26.8021  -27.0613   21.6850 C   0  0  0  0  0  0  0  0  0  0  0  0
  -21.1425  -20.0342   21.8304 C   0  0  0  0  0  0  0  0  0  0  0  0
  -25.0547  -15.4061   19.5260 C   0  0  0  0  0  0  0  0  0  0  0  0
  -22.8963  -16.6685   19.4007 C   0  0  0  0  0  0  0  0  0  0  0  0
  -23.7092  -15.8061   21.5958 C   0  0  0  0  0  0  0  0  0  0  0  0
  -23.6831  -22.6147   20.6633 C   0  0  0  0  0  0  0  0  0  0  0  0
  -26.9035  -28.3746   19.0831 C   0  0  0  0  0  0  0  0  0  0  0  0
  -22.8467  -29.8288   22.9385 C   0  0  0  0  0  0  0  0  0  0  0  0
  -24.8775  -17.7784   20.5293 C   0  0  1  0  0  0  0  0  0  0  0  0
  -22.5326  -20.5793   21.5420 C   0  0  2  0  0  0  0  0  0  0  0  0
  -24.1589  -16.4271   20.2553 C   0  0  0  0  0  0  0  0  0  0  0  0
  -18.1006  -25.6496   20.5621 N   0  0  0  0  0  0  0  0  0  0  0  0
  -18.1594  -25.6515   21.9047 N   0  0  0  0  0  0  0  0  0  0  0  0
  -26.8320  -26.9687   18.7221 N   0  0  0  0  0  0  0  0  0  0  0  0
  -27.1598  -18.5369   21.1122 N   0  0  0  0  0  0  0  0  0  0  0  0
  -19.1848  -29.2743   22.5628 N   0  0  0  0  0  0  0  0  0  0  0  0
  -18.1406  -24.2285   23.7982 N   0  0  0  0  0  0  0  0  0  0  0  0
  -17.7823  -21.3555   20.3321 N   0  0  0  0  0  0  0  0  0  0  0  0
  -28.7696  -16.4256   20.2237 N   0  0  0  0  0  0  0  0  0  0  0  0
  -24.0618  -18.7550   21.2430 N   0  0  0  0  0  0  0  0  0  0  0  0
  -21.5495  -29.2853   22.6027 N   0  0  0  0  0  0  0  0  0  0  0  0
  -22.3914  -21.9494   20.9729 N   0  3  0  0  0  0  0  0  0  0  0  0
  -28.9655  -26.4244   19.4913 O   0  0  0  0  0  0  0  0  0  0  0  0
  -17.8770  -21.5129   22.6179 O   0  0  0  0  0  0  0  0  0  0  0  0
  -30.3773  -18.1064   20.3347 O   0  0  0  0  0  0  0  0  0  0  0  0
  -26.2093  -16.6823   22.1577 O   0  0  0  0  0  0  0  0  0  0  0  0
  -23.1987  -19.7921   19.3571 O   0  0  0  0  0  0  0  0  0  0  0  0
  -20.3681  -30.9964   23.5688 O   0  0  0  0  0  0  0  0  0  0  0  0
  -17.6408  -22.7113   14.9312 O   0  0  0  0  0  0  0  0  0  0  0  0
  -28.8041  -23.9224   18.5931 O   0  0  0  0  0  0  0  0  0  1  0  0
  -22.2451  -22.8333   11.8998 F   0  0  0  0  0  0  0  0  0  0  0  0
  -18.6424  -20.4061   13.7800 F   0  0  0  0  0  0  0  0  0  0  0  0
  1  2  1  0  0  0  0
  1  5  2  0  0  0  0
  2  6  2  0  0  0  0
  3  8  2  0  0  0  0
  3 17  1  0  0  0  0
  4  9  1  0  0  0  0
  4 17  2  0  0  0  0
  5 19  1  0  0  0  0
  6 21  1  0  0  0  0
  7 10  2  0  0  0  0
  7 20  1  0  0  0  0
  8 27  1  0  0  0  0
  9 27  2  0  0  0  0
 10 28  1  0  0  0  0
 11 12  2  0  0  0  0
 11 29  1  0  0  0  0
 12 30  1  0  0  0  0
 13 22  1  0  0  0  0
 13 28  2  0  0  0  0
 14 23  1  0  0  0  0
 14 24  2  0  0  0  0
 15 23  2  0  0  0  0
 15 25  1  0  0  0  0
 16 30  2  0  0  0  0
 16 31  1  0  0  0  0
 17 32  1  0  0  0  0
 18 32  1  0  0  0  0
 18 33  2  0  0  0  0
 18 35  1  0  0  0  0
 19 21  2  0  0  0  0
 19 40  1  0  0  0  0
 20 22  2  0  0  0  0
 20 41  1  0  0  0  0
 21 52  1  0  0  0  0
 22 42  1  0  0  0  0
 23 64  1  0  0  0  0
 24 26  1  0  0  0  0
 24 56  1  0  0  0  0
 25 26  2  0  0  0  0
 25 57  1  0  0  0  0
 26 63  1  0  0  0  0
 27 85  1  0  0  0  0
 28 86  1  0  0  0  0
 29 31  2  0  0  0  0
 29 85  1  0  0  0  0
 30 87  1  0  0  0  0
 31 88  1  0  0  0  0
 32 68  2  0  0  0  0
 33 69  1  0  0  0  0
 33 73  1  0  0  0  0
 34 53  1  0  0  0  0
 34 70  1  0  0  0  0
 34 79  2  0  0  0  0
 35 74  1  0  0  0  0
 35 80  2  0  0  0  0
 36 54  1  0  0  0  0
 36 75  1  0  0  0  0
 36 81  2  0  0  0  0
 37 65  1  0  0  0  0
 37 71  1  0  0  0  0
 37 82  2  0  0  0  0
 38 66  1  0  0  0  0
 38 76  1  0  0  0  0
 38 83  2  0  0  0  0
 39 72  1  0  0  0  0
 39 77  1  0  0  0  0
 39 84  2  0  0  0  0
 40 43  1  0  0  0  0
 41 54  1  0  0  0  0
 42 71  1  0  0  0  0
 43 46  1  0  0  0  0
 44 47  1  0  0  0  0
 44 49  1  0  0  0  0
 45 48  1  0  0  0  0
 45 50  1  0  0  0  0
 46 52  1  0  0  0  0
 47 53  1  0  0  0  0
 48 55  1  0  0  0  0
 49 70  1  0  0  0  0
 50 72  1  0  0  0  0
 51 55  1  0  0  0  0
 51 72  1  0  0  0  0
 52 75  1  0  0  0  0
 53 86  1  0  0  0  0
 54 71  1  0  0  0  0
 55 69  1  0  0  0  0
 58 66  1  0  0  0  0
 59 67  1  0  0  0  0
 60 67  1  0  0  0  0
 61 67  1  0  0  0  0
 62 78  1  0  0  0  0
 63 70  1  0  0  0  0
 64 77  1  0  0  0  0
 65 67  1  0  0  0  0
 65 76  1  0  0  0  0
 66 78  1  0  0  0  0
 68 69  1  0  0  0  0
M  CHG  1  78   1
M  ISO  4  39 100  53 101  77 100  86 101
M  END
> <Batch ID>
0042

> <Smiles>
CNC(C)C(=O)NC(C(=O)N1Cc2cc([101O:1][101CH:1]3CCCN(Cc4c(C)cc(C[100NH:0][100C:0](=O)N5CCCC(n6nc(-c7ccc(Oc8ccc(F)cc8F)cc7)c(C(N)=O)c6N)C5)cc4C)C3=O)ccc2CC1C(=O)NC1CCCc2ccccc21)C(C)(C)C

> <Shape>
0.222

> <Color>
0.081

> <Negative vol penalty>
0.000

$$$$

  -OEChem-04042322123D

 88 96  0     1  0  0  0  0  0999 V2000
  -24.4808  -21.1106   22.7396 C   0  0  0  0  0  0  0  0  0  0  0  0
  -24.9883  -21.8979   23.4906 C   0  0  0  0  0  0  0  0  0  1  0  0
  -17.0248  -30.1798   24.4365 C   0  0  0  0  0  0  0  0  0  0  0  0
  -17.7950  -29.0741   24.7822 C   0  0  0  0  0  0  0  0  0  0  0  0
  -26.4260  -20.5028   15.8036 C   0  0  0  0  0  0  0  0  0  0  0  0
  -26.7949  -11.7891   21.7607 C   0  0  0  0  0  0  0  0  0  0  0  0
  -25.9481  -12.8829   19.7799 C   0  0  0  0  0  0  0  0  0  0  0  0
  -17.1790  -30.7710   23.1832 C   0  0  0  0  0  0  0  0  0  0  0  0
  -18.7192  -28.5582   23.8743 C   0  0  0  0  0  0  0  0  0  0  0  0
  -24.1459  -26.0364   25.1769 C   0  0  0  0  0  0  0  0  0  0  0  0
  -25.6554  -20.4614   16.9654 C   0  0  0  0  0  0  0  0  0  0  0  0
  -25.6426  -11.0055   21.8207 C   0  0  0  0  0  0  0  0  0  0  0  0
  -24.7957  -12.0992   19.8398 C   0  0  0  0  0  0  0  0  0  0  0  0
  -24.5595  -24.7103   25.2964 C   0  0  0  0  0  0  0  0  0  0  0  0
  -21.9054  -12.0491   21.5932 C   0  0  0  0  0  0  0  0  0  0  0  0
  -20.6784  -12.6854   21.4053 C   0  0  0  0  0  0  0  0  0  0  0  0
  -27.7889  -20.7898   15.8804 C   0  0  0  0  0  0  0  0  0  0  0  0
  -25.3317  -24.7517   23.0114 C   0  0  0  0  0  0  0  0  0  0  0  0
  -20.2414  -11.2776   19.4911 C   0  0  0  0  0  0  0  0  0  0  0  0
  -26.9476  -12.7279   20.7403 C   0  0  0  0  0  0  0  0  0  0  0  0
  -29.3350  -13.2393   20.0010 C   0  0  0  0  0  0  0  0  0  0  0  0
  -18.1123  -30.2680   22.2632 C   0  0  0  0  0  0  0  0  0  0  0  0
  -24.3124  -26.7278   23.9684 C   0  0  0  0  0  0  0  0  0  0  0  0
  -18.8850  -29.1424   22.6071 C   0  0  0  0  0  0  0  0  0  0  0  0
  -24.9216  -26.0873   22.8800 C   0  0  0  0  0  0  0  0  0  0  0  0
  -26.2476  -20.7071   18.2042 C   0  0  0  0  0  0  0  0  0  0  0  0
  -27.6105  -20.9942   18.2811 C   0  0  0  0  0  0  0  0  0  0  0  0
  -24.6430  -11.1605   20.8602 C   0  0  0  0  0  0  0  0  0  0  0  0
  -25.1499  -24.0669   24.2126 C   0  0  0  0  0  0  0  0  0  0  0  0
  -22.3004  -11.0271   20.7300 C   0  0  0  0  0  0  0  0  0  0  0  0
  -19.8465  -12.2997   20.3543 C   0  0  0  0  0  0  0  0  0  0  0  0
  -21.4684  -10.6413   19.6790 C   0  0  0  0  0  0  0  0  0  0  0  0
  -28.3811  -21.0355   17.1192 C   0  0  0  0  0  0  0  0  0  0  0  0
  -28.1375  -13.5381   20.6781 C   0  0  0  0  0  0  0  0  0  0  0  0
  -30.1478  -14.3185   20.2483 C   0  0  0  0  0  0  0  0  0  0  0  0
  -25.1563  -17.8884   21.9463 C   0  0  0  0  0  0  0  0  0  0  0  0
  -24.5340  -17.4707   23.0563 C   0  0  0  0  0  0  0  0  0  0  0  0
  -29.6816  -12.0891   19.2183 C   0  0  0  0  0  0  0  0  0  0  0  0
  -24.8996  -19.1925   21.2542 C   0  0  0  0  0  0  0  0  0  0  0  0
  -22.3464  -28.0808   21.8689 C   0  0  0  0  0  0  0  0  0  0  0  0
  -25.1158  -29.0816   20.5083 C   0  0  0  0  0  0  0  0  0  0  0  0
  -28.4660  -28.6031   20.0682 C   0  0  0  0  0  0  0  0  0  0  0  0
  -29.0266  -20.0360   21.6280 C   0  0  0  0  0  0  0  0  0  0  0  0
  -18.2099  -30.9116   20.9027 C   0  0  0  0  0  0  0  0  0  0  0  0
  -23.8852  -28.1662   23.8641 C   0  0  0  0  0  0  0  0  0  0  0  0
  -25.1416  -26.7916   21.5670 C   0  0  0  0  0  0  0  0  0  0  0  0
  -19.4769  -30.5338   20.1396 C   0  0  0  0  0  0  0  0  0  0  0  0
  -30.9660  -17.7197   23.5123 C   0  0  0  0  0  0  0  0  0  0  0  0
  -19.7136  -29.0285   20.2099 C   0  0  0  0  0  0  0  0  0  0  0  0
  -30.5690  -16.3584   22.9385 C   0  0  0  0  0  0  0  0  0  0  0  0
  -29.7794  -18.6799   23.5595 C   0  0  0  0  0  0  0  0  0  0  0  0
  -28.6754  -17.4929   21.7032 C   0  0  0  0  0  0  0  0  0  0  0  0
  -19.9157  -28.5689   21.6589 C   0  0  1  0  0  0  0  0  0  0  0  0
  -23.6361  -28.6128   22.4267 C   0  0  1  0  0  0  0  0  0  0  0  0
  -29.8515  -16.5086   21.5835 C   0  0  2  0  0  0  0  0  0  0  0  0
  -24.8185  -16.1561   23.7084 C   0  0  0  0  0  0  0  0  0  0  0  0
  -30.4524  -29.5619   18.8713 C   0  0  0  0  0  0  0  0  0  0  0  0
  -24.1263  -27.8604   17.8931 C   0  0  0  0  0  0  0  0  0  0  0  0
  -26.4709  -27.9932   17.0250 C   0  0  0  0  0  0  0  0  0  0  0  0
  -25.2533  -30.0794   17.6476 C   0  0  0  0  0  0  0  0  0  0  0  0
  -29.8779  -29.1541   22.6103 C   0  0  0  0  0  0  0  0  0  0  0  0
  -23.8591  -20.1496   21.8205 C   0  0  0  0  0  0  0  0  0  0  0  0
  -25.3930  -20.6560   19.4397 C   0  0  0  0  0  0  0  0  0  0  0  0
  -28.2303  -21.2554   19.6185 C   0  0  0  0  0  0  0  0  0  0  0  0
  -26.0596  -28.5240   19.4704 C   0  0  1  0  0  0  0  0  0  0  0  0
  -29.6406  -29.5607   20.1573 C   0  0  2  0  0  0  0  0  0  0  0  0
  -25.4718  -28.6001   18.0330 C   0  0  0  0  0  0  0  0  0  0  0  0
  -28.1814  -14.7148   21.3085 N   0  0  0  0  0  0  0  0  0  0  0  0
  -25.5910  -19.4239   20.1836 N   0  0  0  0  0  0  0  0  0  0  0  0
  -29.4164  -15.1649   21.0285 N   0  0  0  0  0  0  0  0  0  0  0  0
  -24.7011  -28.1954   21.5126 N   0  0  0  0  0  0  0  0  0  0  0  0
  -29.1444  -18.7787   22.2431 N   0  0  0  0  0  0  0  0  0  0  0  0
  -31.4097  -14.6164   19.8725 N   0  0  0  0  0  0  0  0  0  0  0  0
  -28.7285  -11.0729   19.0656 N   0  0  0  0  0  0  0  0  0  0  0  0
  -21.2529  -28.8906   22.1093 N   0  0  0  0  0  0  0  0  0  0  0  0
  -27.3202  -29.2388   19.6390 N   0  0  0  0  0  0  0  0  0  0  0  0
  -28.4180  -20.0399   20.3789 N   0  0  0  0  0  0  0  0  0  0  0  0
  -30.5402  -29.1738   21.2806 N   0  3  0  0  0  0  0  0  0  0  0  0
  -30.8091  -11.9586   18.6841 O   0  0  0  0  0  0  0  0  0  0  0  0
  -22.3438  -27.0152   21.2637 O   0  0  0  0  0  0  0  0  0  0  0  0
  -24.7651  -30.2620   20.4349 O   0  0  0  0  0  0  0  0  0  0  0  0
  -28.5569  -27.4097   20.3476 O   0  0  0  0  0  0  0  0  0  0  0  0
  -29.4384  -21.0772   22.1508 O   0  0  0  0  0  0  0  0  0  0  0  0
  -25.5540  -22.7724   24.3263 O   0  0  0  0  0  0  0  0  0  1  0  0
  -23.5185  -10.3958   20.9183 O   0  0  0  0  0  0  0  0  0  0  0  0
  -18.6676  -12.9098   20.1749 F   0  0  0  0  0  0  0  0  0  0  0  0
  -21.8420   -9.6593   18.8472 F   0  0  0  0  0  0  0  0  0  0  0  0
  -30.0707  -21.3870   17.1710 Cl  0  0  0  0  0  0  0  0  0  0  0  0
  1  2  3  0  0  0  0
  1 62  1  0  0  0  0
  2 84  1  0  0  0  0
  3  4  1  0  0  0  0
  3  8  2  0  0  0  0
  4  9  2  0  0  0  0
  5 11  2  0  0  0  0
  5 17  1  0  0  0  0
  6 12  2  0  0  0  0
  6 20  1  0  0  0  0
  7 13  1  0  0  0  0
  7 20  2  0  0  0  0
  8 22  1  0  0  0  0
  9 24  1  0  0  0  0
 10 14  2  0  0  0  0
 10 23  1  0  0  0  0
 11 26  1  0  0  0  0
 12 28  1  0  0  0  0
 13 28  2  0  0  0  0
 14 29  1  0  0  0  0
 15 16  2  0  0  0  0
 15 30  1  0  0  0  0
 16 31  1  0  0  0  0
 17 33  2  0  0  0  0
 18 25  1  0  0  0  0
 18 29  2  0  0  0  0
 19 31  2  0  0  0  0
 19 32  1  0  0  0  0
 20 34  1  0  0  0  0
 21 34  1  0  0  0  0
 21 35  2  0  0  0  0
 21 38  1  0  0  0  0
 22 24  2  0  0  0  0
 22 44  1  0  0  0  0
 23 25  2  0  0  0  0
 23 45  1  0  0  0  0
 24 53  1  0  0  0  0
 25 46  1  0  0  0  0
 26 27  2  0  0  0  0
 26 63  1  0  0  0  0
 27 33  1  0  0  0  0
 27 64  1  0  0  0  0
 28 85  1  0  0  0  0
 29 84  1  0  0  0  0
 30 32  2  0  0  0  0
 30 85  1  0  0  0  0
 31 86  1  0  0  0  0
 32 87  1  0  0  0  0
 33 88  1  0  0  0  0
 34 68  2  0  0  0  0
 35 70  1  0  0  0  0
 35 73  1  0  0  0  0
 36 37  2  0  0  0  0
 36 39  1  0  0  0  0
 37 56  1  0  0  0  0
 38 74  1  0  0  0  0
 38 79  2  0  0  0  0
 39 62  1  0  0  0  0
 39 69  2  0  0  0  0
 40 54  1  0  0  0  0
 40 75  1  0  0  0  0
 40 80  2  0  0  0  0
 41 65  1  0  0  0  0
 41 71  1  0  0  0  0
 41 81  2  0  0  0  0
 42 66  1  0  0  0  0
 42 76  1  0  0  0  0
 42 82  2  0  0  0  0
 43 72  1  0  0  0  0
 43 77  1  0  0  0  0
 43 83  2  0  0  0  0
 44 47  1  0  0  0  0
 45 54  1  0  0  0  0
 46 71  1  0  0  0  0
 47 49  1  0  0  0  0
 48 50  1  0  0  0  0
 48 51  1  0  0  0  0
 49 53  1  0  0  0  0
 50 55  1  0  0  0  0
 51 72  1  0  0  0  0
 52 55  1  0  0  0  0
 52 72  1  0  0  0  0
 53 75  1  0  0  0  0
 54 71  1  0  0  0  0
 55 70  1  0  0  0  0
 57 66  1  0  0  0  0
 58 67  1  0  0  0  0
 59 67  1  0  0  0  0
 60 67  1  0  0  0  0
 61 78  1  0  0  0  0
 63 69  1  0  0  0  0
 64 77  1  0  0  0  0
 65 67  1  0  0  0  0
 65 76  1  0  0  0  0
 66 78  1  0  0  0  0
 68 70  1  0  0  0  0
M  CHG  1  78   1
M  ISO  4   2 101  43 100  77 100  84 101
M  END
> <Batch ID>
0042

> <Smiles>
C=CCC(=CC#[101C:1][101O:1]c1ccc2c(c1)CN(C(=O)C(NC(=O)C(C)NC)C(C)(C)C)C(C(=O)NC1CCCc3ccccc31)C2)NCc1cccc(Cl)c1C[100NH:0][100C:0](=O)N1CCCC(n2nc(-c3ccc(Oc4ccc(F)cc4F)cc3)c(C(N)=O)c2N)C1

> <Shape>
0.232

> <Color>
0.068

> <Negative vol penalty>
0.000

$$$$

  -OEChem-04042322123D

 89 98  0     1  0  0  0  0  0999 V2000
  -16.9100  -30.4636   23.6813 C   0  0  0  0  0  0  0  0  0  0  0  0
  -18.1190  -31.0179   24.0893 C   0  0  0  0  0  0  0  0  0  0  0  0
  -26.7800  -21.5289   21.2633 C   0  0  0  0  0  0  0  0  0  0  0  0
  -27.8795  -19.8447   22.6018 C   0  0  0  0  0  0  0  0  0  0  0  0
  -16.8857  -29.1944   23.1045 C   0  0  0  0  0  0  0  0  0  0  0  0
  -19.3044  -30.3029   23.9217 C   0  0  0  0  0  0  0  0  0  0  0  0
  -23.0507  -33.1599   22.0651 C   0  0  0  0  0  0  0  0  0  0  0  0
  -25.6624  -20.7032   21.1423 C   0  0  0  0  0  0  0  0  0  0  0  0
  -26.7618  -19.0190   22.4809 C   0  0  0  0  0  0  0  0  0  0  0  0
  -23.7004  -34.0146   22.9546 C   0  0  0  0  0  0  0  0  0  0  0  0
  -23.6937  -18.7629   23.8743 C   0  0  0  0  0  0  0  0  0  0  0  0
  -23.2333  -18.1252   25.0262 C   0  0  0  0  0  0  0  0  0  0  0  0
  -25.5063  -32.4273   23.1511 C   0  0  0  0  0  0  0  0  0  0  0  0
  -27.4669  -29.6587   28.1797 C   0  0  0  0  0  0  0  0  0  0  0  0
  -28.8092  -27.6543   28.3137 C   0  0  0  0  0  0  0  0  0  0  0  0
  -23.5960  -15.9770   23.9818 C   0  0  0  0  0  0  0  0  0  0  0  0
  -27.8886  -21.0997   21.9930 C   0  0  0  0  0  0  0  0  0  0  0  0
  -28.5576  -28.8009   26.2020 C   0  0  0  0  0  0  0  0  0  0  0  0
  -29.8473  -22.4526   21.0761 C   0  0  0  0  0  0  0  0  0  0  0  0
  -18.0725  -28.4675   22.9210 C   0  0  0  0  0  0  0  0  0  0  0  0
  -23.6197  -31.9256   21.7198 C   0  0  0  0  0  0  0  0  0  0  0  0
  -19.2958  -29.0222   23.3432 C   0  0  0  0  0  0  0  0  0  0  0  0
  -24.8630  -31.5600   22.2550 C   0  0  0  0  0  0  0  0  0  0  0  0
  -27.7467  -29.7550   26.8166 C   0  0  0  0  0  0  0  0  0  0  0  0
  -29.0889  -27.7506   26.9505 C   0  0  0  0  0  0  0  0  0  0  0  0
  -25.6532  -19.4483   21.7511 C   0  0  0  0  0  0  0  0  0  0  0  0
  -24.9270  -33.6471   23.5000 C   0  0  0  0  0  0  0  0  0  0  0  0
  -24.1052  -18.0077   22.7761 C   0  0  0  0  0  0  0  0  0  0  0  0
  -23.1845  -16.7322   25.0799 C   0  0  0  0  0  0  0  0  0  0  0  0
  -24.0563  -16.6148   22.8298 C   0  0  0  0  0  0  0  0  0  0  0  0
  -27.9982  -28.6084   28.9283 C   0  0  0  0  0  0  0  0  0  0  0  0
  -29.0436  -21.9520   22.1179 C   0  0  0  0  0  0  0  0  0  0  0  0
  -30.8055  -23.2034   21.7122 C   0  0  0  0  0  0  0  0  0  0  0  0
  -26.6303  -33.2562   26.1708 C   0  0  0  0  0  0  0  0  0  0  0  0
  -25.5940  -33.4504   27.0074 C   0  0  0  0  0  0  0  0  0  0  0  0
  -29.8998  -29.5438   24.2884 C   0  0  0  0  0  0  0  0  0  0  0  0
  -28.8472  -28.9075   24.7739 C   0  0  0  0  0  0  0  0  0  0  0  0
  -29.7374  -22.2566   19.6601 C   0  0  0  0  0  0  0  0  0  0  0  0
  -22.7573  -28.8850   22.0581 C   0  0  0  0  0  0  0  0  0  0  0  0
  -25.4030  -28.3407   20.2618 C   0  0  0  0  0  0  0  0  0  0  0  0
  -28.4560  -29.4314   19.1959 C   0  0  0  0  0  0  0  0  0  0  0  0
  -30.9425  -26.0446   26.9671 C   0  0  0  0  0  0  0  0  0  0  0  0
  -17.9907  -27.0797   22.3362 C   0  0  0  0  0  0  0  0  0  0  0  0
  -22.9189  -31.0269   20.7382 C   0  0  0  0  0  0  0  0  0  0  0  0
  -25.5260  -30.2548   21.9008 C   0  0  0  0  0  0  0  0  0  0  0  0
  -19.3349  -26.5428   21.8514 C   0  0  0  0  0  0  0  0  0  0  0  0
  -29.1502  -34.9956   25.4188 C   0  0  0  0  0  0  0  0  0  0  0  0
  -33.1819  -23.5082   25.8588 C   0  0  0  0  0  0  0  0  0  0  0  0
  -29.4219  -33.9914   26.5399 C   0  0  0  0  0  0  0  0  0  0  0  0
  -20.4167  -26.7881   22.8985 C   0  0  0  0  0  0  0  0  0  0  0  0
  -27.6779  -35.2819   25.1320 C   0  0  0  0  0  0  0  0  0  0  0  0
  -32.4506  -22.8708   24.6750 C   0  0  0  0  0  0  0  0  0  0  0  0
  -32.2162  -23.9109   26.9718 C   0  0  0  0  0  0  0  0  0  0  0  0
  -30.3640  -24.1207   25.3611 C   0  0  0  0  0  0  0  0  0  0  0  0
  -29.0112  -32.5659   26.1779 C   0  0  0  0  0  0  0  0  0  0  0  0
  -20.6056  -28.2880   23.1556 C   0  0  1  0  0  0  0  0  0  0  0  0
  -26.8194  -34.0384   24.8907 C   0  0  2  0  0  0  0  0  0  1  0  0
  -23.3453  -29.5668   20.8551 C   0  0  1  0  0  0  0  0  0  0  0  0
  -31.2881  -23.7575   24.1873 C   0  0  2  0  0  0  0  0  0  0  0  0
  -30.4004  -28.7518   17.7625 C   0  0  0  0  0  0  0  0  0  0  0  0
  -26.3332  -26.4170   22.4399 C   0  0  0  0  0  0  0  0  0  0  0  0
  -28.6294  -26.5128   21.4465 C   0  0  0  0  0  0  0  0  0  0  0  0
  -26.7277  -25.6170   20.1035 C   0  0  0  0  0  0  0  0  0  0  0  0
  -28.0952  -31.7571   17.4015 C   0  0  0  0  0  0  0  0  0  0  0  0
  -27.1557  -30.8993   26.0470 C   0  0  0  0  0  0  0  0  0  0  0  0
  -26.8641  -28.1007   20.5559 C   0  0  1  0  0  0  0  0  0  0  0  0
  -29.0754  -29.4966   17.8115 C   0  0  2  0  0  0  0  0  0  0  0  0
  -27.1255  -26.6857   21.1448 C   0  0  0  0  0  0  0  0  0  0  0  0
  -29.4556  -22.3509   23.3242 N   0  0  0  0  0  0  0  0  0  0  0  0
  -30.5286  -23.1102   23.0444 N   0  0  0  0  0  0  0  0  0  0  0  0
  -24.7983  -29.4075   20.9416 N   0  0  0  0  0  0  0  0  0  0  0  0
  -31.1441  -24.7529   26.4365 N   0  0  0  0  0  0  0  0  0  0  0  0
  -31.8496  -23.9276   21.2563 N   0  0  0  0  0  0  0  0  0  0  0  0
  -30.4104  -21.1719   19.0815 N   0  0  0  0  0  0  0  0  0  0  0  0
  -29.9158  -26.7647   26.3572 N   0  0  0  0  0  0  0  0  0  0  0  0
  -21.3759  -28.8905   22.0888 N   0  0  0  0  0  0  0  0  0  0  0  0
  -27.5804  -28.3729   19.3144 N   0  0  0  0  0  0  0  0  0  0  0  0
  -27.5870  -32.2475   26.5682 N   0  3  2  0  0  0  0  0  0  0  0  0
  -29.3180  -30.9136   17.4188 N   0  3  0  0  0  0  0  0  0  0  0  0
  -29.0757  -23.0303   18.9271 O   0  0  0  0  0  0  0  0  0  0  0  0
  -23.5019  -28.3893   22.8956 O   0  0  0  0  0  0  0  0  0  0  0  0
  -24.8214  -27.6130   19.4531 O   0  0  0  0  0  0  0  0  0  0  0  0
  -28.7250  -30.2367   20.0846 O   0  0  0  0  0  0  0  0  0  0  0  0
  -31.6477  -26.4902   27.8760 O   0  0  0  0  0  0  0  0  0  0  0  0
  -24.5627  -18.6424   21.6335 O   0  0  0  0  0  0  0  0  0  0  0  0
  -25.5630  -34.4791   24.3689 O   0  0  0  0  0  0  0  0  0  1  0  0
  -22.7438  -16.1199   26.1867 F   0  0  0  0  0  0  0  0  0  0  0  0
  -24.4514  -15.8839   21.7784 F   0  0  0  0  0  0  0  0  0  0  0  0
  -27.6528  -28.4897   30.6104 Cl  0  0  0  0  0  0  0  0  0  0  0  0
  1  2  1  0  0  0  0
  1  5  2  0  0  0  0
  2  6  2  0  0  0  0
  3  8  2  0  0  0  0
  3 17  1  0  0  0  0
  4  9  1  0  0  0  0
  4 17  2  0  0  0  0
  5 20  1  0  0  0  0
  6 22  1  0  0  0  0
  7 10  2  0  0  0  0
  7 21  1  0  0  0  0
  8 26  1  0  0  0  0
  9 26  2  0  0  0  0
 10 27  1  0  0  0  0
 11 12  2  0  0  0  0
 11 28  1  0  0  0  0
 12 29  1  0  0  0  0
 13 23  1  0  0  0  0
 13 27  2  0  0  0  0
 14 24  2  0  0  0  0
 14 31  1  0  0  0  0
 15 25  1  0  0  0  0
 15 31  2  0  0  0  0
 16 29  2  0  0  0  0
 16 30  1  0  0  0  0
 17 32  1  0  0  0  0
 18 24  1  0  0  0  0
 18 25  2  0  0  0  0
 18 37  1  0  0  0  0
 19 32  1  0  0  0  0
 19 33  2  0  0  0  0
 19 38  1  0  0  0  0
 20 22  2  0  0  0  0
 20 43  1  0  0  0  0
 21 23  2  0  0  0  0
 21 44  1  0  0  0  0
 22 56  1  0  0  0  0
 23 45  1  0  0  0  0
 24 65  1  0  0  0  0
 25 75  1  0  0  0  0
 26 85  1  0  0  0  0
 27 86  1  0  0  0  0
 28 30  2  0  0  0  0
 28 85  1  0  0  0  0
 29 87  1  0  0  0  0
 30 88  1  0  0  0  0
 31 89  1  0  0  0  0
 32 69  2  0  0  0  0
 33 70  1  0  0  0  0
 33 73  1  0  0  0  0
 34 35  2  0  0  0  0
 34 57  1  0  0  0  0
 34 78  1  0  0  0  0
 36 37  2  0  0  0  0
 38 74  1  0  0  0  0
 38 80  2  0  0  0  0
 39 58  1  0  0  0  0
 39 76  1  0  0  0  0
 39 81  2  0  0  0  0
 40 66  1  0  0  0  0
 40 71  1  0  0  0  0
 40 82  2  0  0  0  0
 41 67  1  0  0  0  0
 41 77  1  0  0  0  0
 41 83  2  0  0  0  0
 42 72  1  0  0  0  0
 42 75  1  0  0  0  0
 42 84  2  0  0  0  0
 43 46  1  0  0  0  0
 44 58  1  0  0  0  0
 45 71  1  0  0  0  0
 46 50  1  0  0  0  0
 47 49  1  0  0  0  0
 47 51  1  0  0  0  0
 48 52  1  0  0  0  0
 48 53  1  0  0  0  0
 49 55  1  0  0  0  0
 50 56  1  0  0  0  0
 51 57  1  0  0  0  0
 52 59  1  0  0  0  0
 53 72  1  0  0  0  0
 54 59  1  0  0  0  0
 54 72  1  0  0  0  0
 55 78  1  0  0  0  0
 56 76  1  0  0  0  0
 57 86  1  0  0  0  0
 58 71  1  0  0  0  0
 59 70  1  0  0  0  0
 60 67  1  0  0  0  0
 61 68  1  0  0  0  0
 62 68  1  0  0  0  0
 63 68  1  0  0  0  0
 64 79  1  0  0  0  0
 65 78  1  0  0  0  0
 66 68  1  0  0  0  0
 66 77  1  0  0  0  0
 67 79  1  0  0  0  0
 69 70  1  0  0  0  0
M  CHG  2  78   1  79   1
M  ISO  4  42 100  57 101  75 100  86 101
M  END
> <Batch ID>
0042

> <Smiles>
C=Cc1c(CN2CCCC[101CH:1]([101O:1]c3ccc4c(c3)CN(C(=O)C(NC(=O)C(C)NC)C(C)(C)C)C(C(=O)NC3CCCc5ccccc53)C4)C2=C)cc(Cl)cc1[100NH:0][100C:0](=O)N1CCCC(n2nc(-c3ccc(Oc4ccc(F)cc4F)cc3)c(C(N)=O)c2N)C1

> <Shape>
0.229

> <Color>
0.089

> <Negative vol penalty>
0.000

$$$$

  -OEChem-04042322123D

 87 95  0     1  0  0  0  0  0999 V2000
  -40.8452  -26.2551   11.7505 C   0  0  0  0  0  0  0  0  0  0  0  0
  -40.3732  -25.1206   12.4028 C   0  0  0  0  0  0  0  0  0  0  0  0
  -23.0762   -9.8672   19.9414 C   0  0  0  0  0  0  0  0  0  0  0  0
  -23.8352   -9.8753   22.2350 C   0  0  0  0  0  0  0  0  0  0  0  0
  -41.1727  -27.3943   12.4845 C   0  0  0  0  0  0  0  0  0  0  0  0
  -40.2294  -25.1243   13.7898 C   0  0  0  0  0  0  0  0  0  0  0  0
  -35.9109  -22.2572   17.0511 C   0  0  0  0  0  0  0  0  0  0  0  0
  -22.3323   -8.7142   20.1916 C   0  0  0  0  0  0  0  0  0  0  0  0
  -23.0912   -8.7223   22.4853 C   0  0  0  0  0  0  0  0  0  0  0  0
  -35.9074  -21.0478   17.7446 C   0  0  0  0  0  0  0  0  0  0  0  0
  -21.1058   -5.9858   23.8225 C   0  0  0  0  0  0  0  0  0  0  0  0
  -20.3491   -5.9428   24.9934 C   0  0  0  0  0  0  0  0  0  0  0  0
  -36.4122  -22.2254   19.7885 C   0  0  0  0  0  0  0  0  0  0  0  0
  -30.5001  -18.3438   24.0462 C   0  0  0  0  0  0  0  0  0  0  0  0
  -32.0640  -16.5953   22.5364 C   0  0  0  0  0  0  0  0  0  0  0  0
  -19.1048   -7.8797   24.2604 C   0  0  0  0  0  0  0  0  0  0  0  0
  -23.8278  -10.4478   20.9631 C   0  0  0  0  0  0  0  0  0  0  0  0
  -24.1696  -12.9729   20.8420 C   0  0  0  0  0  0  0  0  0  0  0  0
  -41.0237  -27.4153   13.8802 C   0  0  0  0  0  0  0  0  0  0  0  0
  -36.1762  -23.4607   17.7201 C   0  0  0  0  0  0  0  0  0  0  0  0
  -40.5565  -26.2645   14.5433 C   0  0  0  0  0  0  0  0  0  0  0  0
  -36.4159  -23.4491   19.1016 C   0  0  0  0  0  0  0  0  0  0  0  0
  -31.8874  -18.3471   24.1908 C   0  0  0  0  0  0  0  0  0  0  0  0
  -29.8946  -17.4662   23.1467 C   0  0  0  0  0  0  0  0  0  0  0  0
  -32.6693  -17.4729   23.4359 C   0  0  0  0  0  0  0  0  0  0  0  0
  -30.6766  -16.5920   22.3918 C   0  0  0  0  0  0  0  0  0  0  0  0
  -22.3397   -8.1417   21.4636 C   0  0  0  0  0  0  0  0  0  0  0  0
  -36.1610  -21.0315   19.1130 C   0  0  0  0  0  0  0  0  0  0  0  0
  -20.8621   -6.9758   22.8705 C   0  0  0  0  0  0  0  0  0  0  0  0
  -19.3485   -6.8897   25.2124 C   0  0  0  0  0  0  0  0  0  0  0  0
  -19.8615   -7.9227   23.0895 C   0  0  0  0  0  0  0  0  0  0  0  0
  -24.5969  -11.6385   20.7051 C   0  0  0  0  0  0  0  0  0  0  0  0
  -25.2619  -13.7222   20.4788 C   0  0  0  0  0  0  0  0  0  0  0  0
  -22.8990  -13.4889   21.2602 C   0  0  0  0  0  0  0  0  0  0  0  0
  -38.4262  -25.6960   17.5084 C   0  0  0  0  0  0  0  0  0  0  0  0
  -36.5596  -27.2279   19.6743 C   0  0  0  0  0  0  0  0  0  0  0  0
  -35.1482  -18.5789   21.5843 C   0  0  0  0  0  0  0  0  0  0  0  0
  -34.1976  -27.0150   22.1284 C   0  0  0  0  0  0  0  0  0  0  0  0
  -30.7280  -14.7679   20.6551 C   0  0  0  0  0  0  0  0  0  0  0  0
  -41.4354  -28.6540   14.6357 C   0  0  0  0  0  0  0  0  0  0  0  0
  -36.1499  -24.7598   16.9625 C   0  0  0  0  0  0  0  0  0  0  0  0
  -36.6863  -24.7158   19.8703 C   0  0  0  0  0  0  0  0  0  0  0  0
  -40.8995  -28.7025   16.0642 C   0  0  0  0  0  0  0  0  0  0  0  0
  -29.6146  -12.3529   18.2875 C   0  0  0  0  0  0  0  0  0  0  0  0
  -41.1176  -27.3637   16.7620 C   0  0  0  0  0  0  0  0  0  0  0  0
  -28.1747  -12.0615   18.7167 C   0  0  0  0  0  0  0  0  0  0  0  0
  -30.5292  -12.5823   19.4894 C   0  0  0  0  0  0  0  0  0  0  0  0
  -28.6217  -13.3074   20.8696 C   0  0  0  0  0  0  0  0  0  0  0  0
  -40.3634  -26.2380   16.0440 C   0  0  1  0  0  0  0  0  0  0  0  0
  -36.9404  -25.8687   17.6502 C   0  0  1  0  0  0  0  0  0  0  0  0
  -27.6493  -13.1336   19.6915 C   0  0  2  0  0  0  0  0  0  0  0  0
  -28.4065  -17.4845   23.0122 C   0  0  0  0  0  0  0  0  0  0  0  0
  -32.8981  -28.4330   23.7402 C   0  0  0  0  0  0  0  0  0  0  0  0
  -32.2016  -20.7636   24.8185 C   0  0  0  0  0  0  0  0  0  0  0  0
  -32.0922  -19.0021   26.6119 C   0  0  0  0  0  0  0  0  0  0  0  0
  -39.0363  -27.4894   21.4371 C   0  0  0  0  0  0  0  0  0  0  0  0
  -37.5254  -28.0259   23.3601 C   0  0  0  0  0  0  0  0  0  0  0  0
  -37.5857  -29.5255   21.3675 C   0  0  0  0  0  0  0  0  0  0  0  0
  -31.6126  -26.2078   20.9345 C   0  0  0  0  0  0  0  0  0  0  0  0
  -34.1642  -17.4583   23.5747 C   0  0  0  0  0  0  0  0  0  0  0  0
  -35.7694  -19.8939   21.1645 C   0  0  0  0  0  0  0  0  0  1  0  0
  -36.4773  -27.2607   21.1813 C   0  0  1  0  0  0  0  0  0  0  0  0
  -32.9142  -27.7916   22.3614 C   0  0  2  0  0  0  0  0  0  0  0  0
  -32.5132  -19.2953   25.1603 C   0  0  0  0  0  0  0  0  0  0  0  0
  -37.6530  -28.0511   21.8220 C   0  0  0  0  0  0  0  0  0  0  0  0
  -25.8620  -11.5425   20.2873 N   0  0  0  0  0  0  0  0  0  0  0  0
  -26.2389  -12.8260   20.1585 N   0  0  0  0  0  0  0  0  0  0  0  0
  -36.6560  -25.9600   19.0837 N   0  0  0  0  0  0  0  0  0  0  0  0
  -29.9699  -13.6135   20.3661 N   0  0  0  0  0  0  0  0  0  0  0  0
  -25.4724  -15.0536   20.4052 N   0  0  0  0  0  0  0  0  0  0  0  0
  -21.8869  -12.5799   21.5975 N   0  0  0  0  0  0  0  0  0  0  0  0
  -30.0804  -15.6933   21.4728 N   0  0  0  0  0  0  0  0  0  0  0  0
  -38.9551  -26.2824   16.3744 N   0  0  0  0  0  0  0  0  0  0  0  0
  -34.7790  -18.5900   22.9203 N   0  0  0  0  0  0  0  0  0  0  0  0
  -35.1561  -27.7870   21.5066 N   0  0  0  0  0  0  0  0  0  0  0  0
  -31.7344  -26.8881   22.2495 N   0  3  0  0  0  0  0  0  0  0  0  0
  -22.6627  -14.7195   21.3168 O   0  0  0  0  0  0  0  0  0  0  0  0
  -39.0471  -25.0778   18.3652 O   0  0  0  0  0  0  0  0  0  0  0  0
  -36.5319  -28.2879   19.0439 O   0  0  0  0  0  0  0  0  0  0  0  0
  -35.0042  -17.6354   20.8115 O   0  0  0  0  0  0  0  0  0  0  0  0
  -34.3372  -25.8419   22.4676 O   0  0  0  0  0  0  0  0  0  0  0  0
  -31.8573  -14.9364   20.1878 O   0  0  0  0  0  0  0  0  0  0  0  0
  -21.6137   -7.0167   21.7082 O   0  0  0  0  0  0  0  0  0  0  0  0
  -36.1588  -19.8523   19.7923 O   0  0  0  0  0  0  0  0  0  1  0  0
  -18.6209   -6.8473   26.3362 F   0  0  0  0  0  0  0  0  0  0  0  0
  -19.6220   -8.8755   22.1781 F   0  0  0  0  0  0  0  0  0  0  0  0
  -33.8943  -19.2181   25.1689 F   0  0  0  0  0  0  0  0  0  0  0  0
  1  2  1  0  0  0  0
  1  5  2  0  0  0  0
  2  6  2  0  0  0  0
  3  8  2  0  0  0  0
  3 17  1  0  0  0  0
  4  9  1  0  0  0  0
  4 17  2  0  0  0  0
  5 19  1  0  0  0  0
  6 21  1  0  0  0  0
  7 10  2  0  0  0  0
  7 20  1  0  0  0  0
  8 27  1  0  0  0  0
  9 27  2  0  0  0  0
 10 28  1  0  0  0  0
 11 12  2  0  0  0  0
 11 29  1  0  0  0  0
 12 30  1  0  0  0  0
 13 22  1  0  0  0  0
 13 28  2  0  0  0  0
 14 23  1  0  0  0  0
 14 24  2  0  0  0  0
 15 25  1  0  0  0  0
 15 26  2  0  0  0  0
 16 30  2  0  0  0  0
 16 31  1  0  0  0  0
 17 32  1  0  0  0  0
 18 32  1  0  0  0  0
 18 33  2  0  0  0  0
 18 34  1  0  0  0  0
 19 21  2  0  0  0  0
 19 40  1  0  0  0  0
 20 22  2  0  0  0  0
 20 41  1  0  0  0  0
 21 49  1  0  0  0  0
 22 42  1  0  0  0  0
 23 25  2  0  0  0  0
 23 64  1  0  0  0  0
 24 26  1  0  0  0  0
 24 52  1  0  0  0  0
 25 60  1  0  0  0  0
 26 72  1  0  0  0  0
 27 83  1  0  0  0  0
 28 84  1  0  0  0  0
 29 31  2  0  0  0  0
 29 83  1  0  0  0  0
 30 85  1  0  0  0  0
 31 86  1  0  0  0  0
 32 66  2  0  0  0  0
 33 67  1  0  0  0  0
 33 70  1  0  0  0  0
 34 71  1  0  0  0  0
 34 77  2  0  0  0  0
 35 50  1  0  0  0  0
 35 73  1  0  0  0  0
 35 78  2  0  0  0  0
 36 62  1  0  0  0  0
 36 68  1  0  0  0  0
 36 79  2  0  0  0  0
 37 61  1  0  0  0  0
 37 74  1  0  0  0  0
 37 80  2  0  0  0  0
 38 63  1  0  0  0  0
 38 75  1  0  0  0  0
 38 81  2  0  0  0  0
 39 69  1  0  0  0  0
 39 72  1  0  0  0  0
 39 82  2  0  0  0  0
 40 43  1  0  0  0  0
 41 50  1  0  0  0  0
 42 68  1  0  0  0  0
 43 45  1  0  0  0  0
 44 46  1  0  0  0  0
 44 47  1  0  0  0  0
 45 49  1  0  0  0  0
 46 51  1  0  0  0  0
 47 69  1  0  0  0  0
 48 51  1  0  0  0  0
 48 69  1  0  0  0  0
 49 73  1  0  0  0  0
 50 68  1  0  0  0  0
 51 67  1  0  0  0  0
 53 63  1  0  0  0  0
 54 64  1  0  0  0  0
 55 64  1  0  0  0  0
 56 65  1  0  0  0  0
 57 65  1  0  0  0  0
 58 65  1  0  0  0  0
 59 76  1  0  0  0  0
 60 74  1  0  0  0  0
 61 84  1  0  0  0  0
 62 65  1  0  0  0  0
 62 75  1  0  0  0  0
 63 76  1  0  0  0  0
 64 87  1  0  0  0  0
 66 67  1  0  0  0  0
M  CHG  1  76   1
M  ISO  4  39 100  61 101  72 100  84 101
M  END
> <Batch ID>
0042

> <Smiles>
CNC(C)C(=O)NC(C(=O)N1Cc2cc([101O:1][101CH2:1]C(=O)NCc3cc([100NH:0][100C:0](=O)N4CCCC(n5nc(-c6ccc(Oc7ccc(F)cc7F)cc6)c(C(N)=O)c5N)C4)c(C)cc3C(C)(C)F)ccc2CC1C(=O)NC1CCCc2ccccc21)C(C)(C)C

> <Shape>
0.165

> <Color>
0.188

> <Negative vol penalty>
0.000

$$$$

  -OEChem-04042322123D

 91100  0     1  0  0  0  0  0999 V2000
  -21.1896  -24.8664   28.5861 C   0  0  0  0  0  0  0  0  0  0  0  0
  -22.0661  -23.8317   28.8969 C   0  0  0  0  0  0  0  0  0  0  0  0
  -22.9026   -9.9886   20.0683 C   0  0  0  0  0  0  0  0  0  0  0  0
  -24.3340   -9.5077   21.9542 C   0  0  0  0  0  0  0  0  0  0  0  0
  -20.7249  -25.0163   27.2802 C   0  0  0  0  0  0  0  0  0  0  0  0
  -22.4776  -22.9456   27.9019 C   0  0  0  0  0  0  0  0  0  0  0  0
  -27.9630  -20.2700   27.3940 C   0  0  0  0  0  0  0  0  0  0  0  0
  -22.2351   -8.7800   20.2667 C   0  0  0  0  0  0  0  0  0  0  0  0
  -23.6665   -8.2992   22.1528 C   0  0  0  0  0  0  0  0  0  0  0  0
  -28.4256  -19.0039   27.7501 C   0  0  0  0  0  0  0  0  0  0  0  0
  -20.7584   -7.2576   23.5235 C   0  0  0  0  0  0  0  0  0  0  0  0
  -20.3996   -6.9241   24.8294 C   0  0  0  0  0  0  0  0  0  0  0  0
  -28.0450  -18.2371   25.4948 C   0  0  0  0  0  0  0  0  0  0  0  0
  -32.8046  -12.5731   23.5589 C   0  0  0  0  0  0  0  0  0  0  0  0
  -21.7438   -4.9216   24.6873 C   0  0  0  0  0  0  0  0  0  0  0  0
  -23.9521  -10.3524   20.9120 C   0  0  0  0  0  0  0  0  0  0  0  0
  -24.0878  -12.8940   20.7394 C   0  0  0  0  0  0  0  0  0  0  0  0
  -21.1385  -24.1374   26.2667 C   0  0  0  0  0  0  0  0  0  0  0  0
  -27.5269  -20.5265   26.0862 C   0  0  0  0  0  0  0  0  0  0  0  0
  -22.0170  -23.0831   26.5815 C   0  0  0  0  0  0  0  0  0  0  0  0
  -27.5797  -19.5079   25.1240 C   0  0  0  0  0  0  0  0  0  0  0  0
  -30.8958  -12.7820   25.0250 C   0  0  0  0  0  0  0  0  0  0  0  0
  -31.7071  -12.4934   26.1224 C   0  0  0  0  0  0  0  0  0  0  0  0
  -31.4446  -12.8218   23.7433 C   0  0  0  0  0  0  0  0  0  0  0  0
  -22.6170   -7.9353   21.3090 C   0  0  0  0  0  0  0  0  0  0  0  0
  -28.4640  -17.9864   26.8012 C   0  0  0  0  0  0  0  0  0  0  0  0
  -21.6098   -6.4231   22.7993 C   0  0  0  0  0  0  0  0  0  0  0  0
  -20.8923   -5.7561   25.4114 C   0  0  0  0  0  0  0  0  0  0  0  0
  -22.1025   -5.2551   23.3812 C   0  0  0  0  0  0  0  0  0  0  0  0
  -33.6160  -12.2845   24.6562 C   0  0  0  0  0  0  0  0  0  0  0  0
  -33.0672  -12.2447   25.9380 C   0  0  0  0  0  0  0  0  0  0  0  0
  -24.6424  -11.6005   20.7071 C   0  0  0  0  0  0  0  0  0  0  0  0
  -25.1488  -13.7289   20.4871 C   0  0  0  0  0  0  0  0  0  0  0  0
  -31.1850  -14.7853   28.1888 C   0  0  0  0  0  0  0  0  0  0  0  0
  -34.1418  -16.1121   26.4620 C   0  0  0  0  0  0  0  0  0  0  0  0
  -32.0065  -15.6341   27.5481 C   0  0  0  0  0  0  0  0  0  0  0  0
  -33.3245  -15.2667   27.0997 C   0  0  0  0  0  0  0  0  0  0  0  0
  -22.7345  -13.3041   20.9763 C   0  0  0  0  0  0  0  0  0  0  0  0
  -24.7692  -21.4070   24.7733 C   0  0  0  0  0  0  0  0  0  0  0  0
  -26.5558  -21.5715   22.0709 C   0  0  0  0  0  0  0  0  0  0  0  0
  -29.3301  -20.5513   20.3653 C   0  0  0  0  0  0  0  0  0  0  0  0
  -31.0463  -13.1904   21.2832 C   0  0  0  0  0  0  0  0  0  0  0  0
  -20.5723  -24.3109   24.8796 C   0  0  0  0  0  0  0  0  0  0  0  0
  -27.0557  -21.9049   25.7112 C   0  0  0  0  0  0  0  0  0  0  0  0
  -27.1419  -19.7375   23.7013 C   0  0  0  0  0  0  0  0  0  0  0  0
  -21.3501  -23.5552   23.8053 C   0  0  0  0  0  0  0  0  0  0  0  0
  -29.3630  -13.8474   18.2154 C   0  0  0  0  0  0  0  0  0  0  0  0
  -30.1593  -13.3019   30.4161 C   0  0  0  0  0  0  0  0  0  0  0  0
  -21.6389  -22.1280   24.2597 C   0  0  0  0  0  0  0  0  0  0  0  0
  -29.6718  -14.7273   30.1686 C   0  0  0  0  0  0  0  0  0  0  0  0
  -27.9098  -13.4692   18.5110 C   0  0  0  0  0  0  0  0  0  0  0  0
  -30.3463  -12.9110   18.9153 C   0  0  0  0  0  0  0  0  0  0  0  0
  -28.6858  -12.3832   20.6570 C   0  0  0  0  0  0  0  0  0  0  0  0
  -31.5772  -13.0977   29.8972 C   0  0  0  0  0  0  0  0  0  0  0  0
  -22.5057  -22.1165   25.5246 C   0  0  1  0  0  0  0  0  0  0  0  0
  -29.7855  -15.1127   28.6860 C   0  0  1  0  0  0  0  0  0  0  0  0
  -26.1532  -21.9138   24.4813 C   0  0  1  0  0  0  0  0  0  0  0  0
  -27.6588  -13.3375   20.0260 C   0  0  2  0  0  0  0  0  0  0  0  0
  -29.4367  -13.0515   25.2228 C   0  0  0  0  0  0  0  0  0  0  0  0
  -30.5013  -20.8280   18.1632 C   0  0  0  0  0  0  0  0  0  0  0  0
  -24.5021  -19.7408   20.7514 C   0  0  0  0  0  0  0  0  0  0  0  0
  -26.1688  -19.2944   18.9372 C   0  0  0  0  0  0  0  0  0  0  0  0
  -25.3162  -21.6100   19.3031 C   0  0  0  0  0  0  0  0  0  0  0  0
  -31.7443  -21.6732   21.6585 C   0  0  0  0  0  0  0  0  0  0  0  0
  -31.0953  -12.4570   27.4918 C   0  0  0  0  0  0  0  0  0  0  0  0
  -29.3324  -16.5643   28.4981 C   0  0  0  0  0  0  0  0  0  1  0  0
  -26.9255  -20.6034   20.9731 C   0  0  1  0  0  0  0  0  0  0  0  0
  -30.3811  -21.3292   19.5940 C   0  0  2  0  0  0  0  0  0  0  0  0
  -25.7346  -20.3070   20.0184 C   0  0  0  0  0  0  0  0  0  0  0  0
  -25.9539  -11.6079   20.4541 N   0  0  0  0  0  0  0  0  0  0  0  0
  -26.2321  -12.9164   20.3250 N   0  0  0  0  0  0  0  0  0  0  0  0
  -26.6834  -21.1003   23.3852 N   0  0  0  0  0  0  0  0  0  0  0  0
  -30.0501  -12.8392   20.3478 N   0  0  0  0  0  0  0  0  0  0  0  0
  -25.2513  -15.0715   20.3902 N   0  0  0  0  0  0  0  0  0  0  0  0
  -22.3365  -13.5648   22.2947 N   0  0  0  0  0  0  0  0  0  0  0  0
  -30.6393  -13.1147   22.6148 N   0  0  0  0  0  0  0  0  0  0  0  0
  -23.8883  -22.3858   25.1923 N   0  0  0  0  0  0  0  0  0  0  0  0
  -28.0971  -21.1659   20.3103 N   0  0  0  0  0  0  0  0  0  0  0  0
  -31.7048  -13.4561   28.4363 N   0  3  1  0  0  0  0  0  0  0  0  0
  -31.7114  -21.1953   20.2522 N   0  3  0  0  0  0  0  0  0  0  0  0
  -21.8984  -13.4196   20.0484 O   0  0  0  0  0  0  0  0  0  0  0  0
  -24.5186  -20.2163   24.6278 O   0  0  0  0  0  0  0  0  0  0  0  0
  -26.1748  -22.7064   21.7733 O   0  0  0  0  0  0  0  0  0  0  0  0
  -29.5774  -19.5014   20.9544 O   0  0  0  0  0  0  0  0  0  0  0  0
  -32.1688  -13.5592   20.9282 O   0  0  0  0  0  0  0  0  0  0  0  0
  -21.9657   -6.7560   21.5031 O   0  0  0  0  0  0  0  0  0  0  0  0
  -28.9145  -16.7496   27.1463 O   0  0  0  0  0  0  0  0  0  1  0  0
  -20.5489   -5.4367   26.6661 F   0  0  0  0  0  0  0  0  0  0  0  0
  -22.9218   -4.4500   22.6910 F   0  0  0  0  0  0  0  0  0  0  0  0
  -35.2925  -11.9840   24.3546 Cl  0  0  0  0  0  0  0  0  0  0  0  0
  -34.0590  -11.8860   27.3166 Cl  0  0  0  0  0  0  0  0  0  0  0  0
  1  2  1  0  0  0  0
  1  5  2  0  0  0  0
  2  6  2  0  0  0  0
  3  8  2  0  0  0  0
  3 16  1  0  0  0  0
  4  9  1  0  0  0  0
  4 16  2  0  0  0  0
  5 18  1  0  0  0  0
  6 20  1  0  0  0  0
  7 10  2  0  0  0  0
  7 19  1  0  0  0  0
  8 25  1  0  0  0  0
  9 25  2  0  0  0  0
 10 26  1  0  0  0  0
 11 12  2  0  0  0  0
 11 27  1  0  0  0  0
 12 28  1  0  0  0  0
 13 21  1  0  0  0  0
 13 26  2  0  0  0  0
 14 24  1  0  0  0  0
 14 30  2  0  0  0  0
 15 28  2  0  0  0  0
 15 29  1  0  0  0  0
 16 32  1  0  0  0  0
 17 32  1  0  0  0  0
 17 33  2  0  0  0  0
 17 38  1  0  0  0  0
 18 20  2  0  0  0  0
 18 43  1  0  0  0  0
 19 21  2  0  0  0  0
 19 44  1  0  0  0  0
 20 55  1  0  0  0  0
 21 45  1  0  0  0  0
 22 23  1  0  0  0  0
 22 24  2  0  0  0  0
 22 59  1  0  0  0  0
 23 31  2  0  0  0  0
 23 65  1  0  0  0  0
 24 76  1  0  0  0  0
 25 86  1  0  0  0  0
 26 87  1  0  0  0  0
 27 29  2  0  0  0  0
 27 86  1  0  0  0  0
 28 88  1  0  0  0  0
 29 89  1  0  0  0  0
 30 31  1  0  0  0  0
 30 90  1  0  0  0  0
 31 91  1  0  0  0  0
 32 70  2  0  0  0  0
 33 71  1  0  0  0  0
 33 74  1  0  0  0  0
 34 36  2  0  0  0  0
 34 56  1  0  0  0  0
 34 79  1  0  0  0  0
 35 37  2  0  0  0  0
 36 37  1  0  0  0  0
 38 75  1  0  0  0  0
 38 81  2  0  0  0  0
 39 57  1  0  0  0  0
 39 77  1  0  0  0  0
 39 82  2  0  0  0  0
 40 67  1  0  0  0  0
 40 72  1  0  0  0  0
 40 83  2  0  0  0  0
 41 68  1  0  0  0  0
 41 78  1  0  0  0  0
 41 84  2  0  0  0  0
 42 73  1  0  0  0  0
 42 76  1  0  0  0  0
 42 85  2  0  0  0  0
 43 46  1  0  0  0  0
 44 57  1  0  0  0  0
 45 72  1  0  0  0  0
 46 49  1  0  0  0  0
 47 51  1  0  0  0  0
 47 52  1  0  0  0  0
 48 50  1  0  0  0  0
 48 54  1  0  0  0  0
 49 55  1  0  0  0  0
 50 56  1  0  0  0  0
 51 58  1  0  0  0  0
 52 73  1  0  0  0  0
 53 58  1  0  0  0  0
 53 73  1  0  0  0  0
 54 79  1  0  0  0  0
 55 77  1  0  0  0  0
 56 66  1  0  0  0  0
 57 72  1  0  0  0  0
 58 71  1  0  0  0  0
 60 68  1  0  0  0  0
 61 69  1  0  0  0  0
 62 69  1  0  0  0  0
 63 69  1  0  0  0  0
 64 80  1  0  0  0  0
 65 79  1  0  0  0  0
 66 87  1  0  0  0  0
 67 69  1  0  0  0  0
 67 78  1  0  0  0  0
 68 80  1  0  0  0  0
 70 71  1  0  0  0  0
M  CHG  2  79   1  80   1
M  ISO  4  42 100  66 101  76 100  87 101
M  END
> <Batch ID>
0042

> <Smiles>
C=CC=C1C([101CH2:1][101O:1]c2ccc3c(c2)CN(C(=O)C(NC(=O)C(C)NC)C(C)(C)C)C(C(=O)NC2CCCc4ccccc42)C3)CCCN1Cc1c(C)c([100NH:0][100C:0](=O)N2CCCC(n3nc(-c4ccc(Oc5ccc(F)cc5F)cc4)c(C(N)=O)c3N)C2)cc(Cl)c1Cl

> <Shape>
0.177

> <Color>
0.155

> <Negative vol penalty>
0.000

$$$$

  -OEChem-04042322123D

 89 98  0     1  0  0  0  0  0999 V2000
  -20.6118  -28.0848   33.7889 C   0  0  0  0  0  0  0  0  0  0  0  0
  -20.7982  -27.1029   32.8211 C   0  0  0  0  0  0  0  0  0  0  0  0
  -22.6666  -10.2009   20.1674 C   0  0  0  0  0  0  0  0  0  0  0  0
  -24.3217   -9.4175   21.7435 C   0  0  0  0  0  0  0  0  0  0  0  0
  -20.6820  -29.4318   33.4362 C   0  0  0  0  0  0  0  0  0  0  0  0
  -21.0538  -27.4677   31.4997 C   0  0  0  0  0  0  0  0  0  0  0  0
  -24.8031  -24.7658   29.4291 C   0  0  0  0  0  0  0  0  0  0  0  0
  -21.9316   -9.0308   20.3577 C   0  0  0  0  0  0  0  0  0  0  0  0
  -23.5866   -8.2474   21.9338 C   0  0  0  0  0  0  0  0  0  0  0  0
  -24.4977  -23.4731   29.0056 C   0  0  0  0  0  0  0  0  0  0  0  0
  -20.8419   -7.2840   23.6540 C   0  0  0  0  0  0  0  0  0  0  0  0
  -20.6595   -6.8408   24.9639 C   0  0  0  0  0  0  0  0  0  0  0  0
  -24.3135  -24.2669   26.7351 C   0  0  0  0  0  0  0  0  0  0  0  0
  -28.6173  -19.5021   23.4129 C   0  0  0  0  0  0  0  0  0  0  0  0
  -21.7802   -4.7708   24.4196 C   0  0  0  0  0  0  0  0  0  0  0  0
  -23.8617  -10.3942   20.8603 C   0  0  0  0  0  0  0  0  0  0  0  0
  -24.1973  -12.9226   20.9061 C   0  0  0  0  0  0  0  0  0  0  0  0
  -20.9482  -29.8133   32.1117 C   0  0  0  0  0  0  0  0  0  0  0  0
  -24.8554  -25.8225   28.5088 C   0  0  0  0  0  0  0  0  0  0  0  0
  -21.1263  -28.8211   31.1287 C   0  0  0  0  0  0  0  0  0  0  0  0
  -24.6223  -25.5716   27.1491 C   0  0  0  0  0  0  0  0  0  0  0  0
  -29.4064  -18.7532   22.5400 C   0  0  0  0  0  0  0  0  0  0  0  0
  -28.4390  -19.0783   24.7298 C   0  0  0  0  0  0  0  0  0  0  0  0
  -29.0496  -17.9054   25.1737 C   0  0  0  0  0  0  0  0  0  0  0  0
  -29.8386  -17.1563   24.3008 C   0  0  0  0  0  0  0  0  0  0  0  0
  -30.0170  -17.5803   22.9839 C   0  0  0  0  0  0  0  0  0  0  0  0
  -22.3915   -8.0541   21.2408 C   0  0  0  0  0  0  0  0  0  0  0  0
  -24.2499  -23.2240   27.6589 C   0  0  0  0  0  0  0  0  0  0  0  0
  -21.4934   -6.4705   22.7268 C   0  0  0  0  0  0  0  0  0  0  0  0
  -21.1287   -5.5843   25.3467 C   0  0  0  0  0  0  0  0  0  0  0  0
  -21.9626   -5.2140   23.1097 C   0  0  0  0  0  0  0  0  0  0  0  0
  -24.6217  -11.6025   20.6638 C   0  0  0  0  0  0  0  0  0  0  0  0
  -25.2776  -13.6989   20.5644 C   0  0  0  0  0  0  0  0  0  0  0  0
  -25.4693  -20.1093   26.8204 C   0  0  0  0  0  0  0  0  0  0  0  0
  -25.3670  -19.6666   28.0845 C   0  0  0  0  0  0  0  0  0  0  0  0
  -22.9389  -13.4043   21.3963 C   0  0  0  0  0  0  0  0  0  0  0  0
  -23.2524  -28.5397   28.1198 C   0  0  0  0  0  0  0  0  0  0  0  0
  -25.4515  -29.0494   25.7903 C   0  0  0  0  0  0  0  0  0  0  0  0
  -27.0454  -27.1049   23.2027 C   0  0  0  0  0  0  0  0  0  0  0  0
  -30.7635  -14.7191   20.6648 C   0  0  0  0  0  0  0  0  0  0  0  0
  -20.9677  -31.2819   31.7692 C   0  0  0  0  0  0  0  0  0  0  0  0
  -25.2126  -27.2064   28.9777 C   0  0  0  0  0  0  0  0  0  0  0  0
  -24.6861  -26.6677   26.1181 C   0  0  0  0  0  0  0  0  0  0  0  0
  -21.6143  -31.5841   30.4198 C   0  0  0  0  0  0  0  0  0  0  0  0
  -29.5597  -12.5025   18.1520 C   0  0  0  0  0  0  0  0  0  0  0  0
  -24.8722  -20.2680   24.0208 C   0  0  0  0  0  0  0  0  0  0  0  0
  -21.0873  -30.6326   29.3503 C   0  0  0  0  0  0  0  0  0  0  0  0
  -24.0375  -21.0657   25.0165 C   0  0  0  0  0  0  0  0  0  0  0  0
  -28.1357  -12.1750   18.6048 C   0  0  0  0  0  0  0  0  0  0  0  0
  -30.5110  -12.6423   19.3384 C   0  0  0  0  0  0  0  0  0  0  0  0
  -28.6495  -13.2696   20.8267 C   0  0  0  0  0  0  0  0  0  0  0  0
  -25.4352  -19.0005   24.6553 C   0  0  0  0  0  0  0  0  0  0  0  0
  -21.4302  -29.1770   29.6896 C   0  0  1  0  0  0  0  0  0  0  0  0
  -24.8265  -21.3707   26.2889 C   0  0  1  0  0  0  0  0  0  1  0  0
  -24.7331  -28.3009   28.0294 C   0  0  1  0  0  0  0  0  0  0  0  0
  -27.6418  -13.1741   19.6683 C   0  0  2  0  0  0  0  0  0  0  0  0
  -29.5808  -19.2289   21.1348 C   0  0  0  0  0  0  0  0  0  0  0  0
  -28.8559  -17.4527   26.5864 C   0  0  0  0  0  0  0  0  0  0  0  0
  -30.4941  -15.8984   24.7771 C   0  0  0  0  0  0  0  0  0  0  0  0
  -29.2788  -27.3848   22.0933 C   0  0  0  0  0  0  0  0  0  0  0  0
  -23.8872  -30.6130   23.6885 C   0  0  0  0  0  0  0  0  0  0  0  0
  -25.3479  -29.5826   21.9355 C   0  0  0  0  0  0  0  0  0  0  0  0
  -26.3505  -31.0446   23.6905 C   0  0  0  0  0  0  0  0  0  0  0  0
  -27.8609  -24.3432   23.8862 C   0  0  0  0  0  0  0  0  0  0  0  0
  -30.8629  -16.7789   22.0456 C   0  0  0  0  0  0  0  0  0  0  0  0
  -27.5862  -19.9026   25.6486 C   0  0  0  0  0  0  0  0  0  0  0  0
  -25.5412  -28.7328   24.3170 C   0  0  1  0  0  0  0  0  0  0  0  0
  -28.4935  -26.6506   23.1689 C   0  0  2  0  0  0  0  0  0  0  0  0
  -25.2668  -29.9769   23.4257 C   0  0  0  0  0  0  0  0  0  0  0  0
  -25.8740  -11.5397   20.2036 N   0  0  0  0  0  0  0  0  0  0  0  0
  -26.2457  -12.8303   20.1538 N   0  0  0  0  0  0  0  0  0  0  0  0
  -25.0330  -28.0050   26.6270 N   0  0  0  0  0  0  0  0  0  0  0  0
  -29.9853  -13.6052   20.3091 N   0  0  0  0  0  0  0  0  0  0  0  0
  -25.4845  -15.0328   20.5779 N   0  0  0  0  0  0  0  0  0  0  0  0
  -22.7733  -13.5519   22.7801 N   0  0  0  0  0  0  0  0  0  0  0  0
  -22.8165  -28.8991   29.3809 N   0  0  0  0  0  0  0  0  0  0  0  0
  -26.8514  -28.1259   24.1089 N   0  0  0  0  0  0  0  0  0  0  0  0
  -30.1880  -15.5855   21.5862 N   0  0  0  0  0  0  0  0  0  0  0  0
  -26.2351  -19.2932   25.9037 N   0  3  1  0  0  0  0  0  0  0  0  0
  -28.5713  -25.1883   22.8922 N   0  3  0  0  0  0  0  0  0  0  0  0
  -21.9840  -13.6795   20.6308 O   0  0  0  0  0  0  0  0  0  0  0  0
  -22.5571  -28.4090   27.1193 O   0  0  0  0  0  0  0  0  0  0  0  0
  -25.7489  -30.1795   26.1852 O   0  0  0  0  0  0  0  0  0  0  0  0
  -26.1742  -26.6066   22.4933 O   0  0  0  0  0  0  0  0  0  0  0  0
  -31.8856  -14.9291   20.1918 O   0  0  0  0  0  0  0  0  0  0  0  0
  -21.6744   -6.9123   21.4269 O   0  0  0  0  0  0  0  0  0  0  0  0
  -23.9509  -21.9633   27.2429 O   0  0  0  0  0  0  0  0  0  1  0  0
  -20.9548   -5.1595   26.6051 F   0  0  0  0  0  0  0  0  0  0  0  0
  -22.5903   -4.4285   22.2237 F   0  0  0  0  0  0  0  0  0  0  0  0
  1  2  1  0  0  0  0
  1  5  2  0  0  0  0
  2  6  2  0  0  0  0
  3  8  2  0  0  0  0
  3 16  1  0  0  0  0
  4  9  1  0  0  0  0
  4 16  2  0  0  0  0
  5 18  1  0  0  0  0
  6 20  1  0  0  0  0
  7 10  2  0  0  0  0
  7 19  1  0  0  0  0
  8 27  1  0  0  0  0
  9 27  2  0  0  0  0
 10 28  1  0  0  0  0
 11 12  2  0  0  0  0
 11 29  1  0  0  0  0
 12 30  1  0  0  0  0
 13 21  1  0  0  0  0
 13 28  2  0  0  0  0
 14 22  2  0  0  0  0
 14 23  1  0  0  0  0
 15 30  2  0  0  0  0
 15 31  1  0  0  0  0
 16 32  1  0  0  0  0
 17 32  1  0  0  0  0
 17 33  2  0  0  0  0
 17 36  1  0  0  0  0
 18 20  2  0  0  0  0
 18 41  1  0  0  0  0
 19 21  2  0  0  0  0
 19 42  1  0  0  0  0
 20 53  1  0  0  0  0
 21 43  1  0  0  0  0
 22 26  1  0  0  0  0
 22 57  1  0  0  0  0
 23 24  2  0  0  0  0
 23 66  1  0  0  0  0
 24 25  1  0  0  0  0
 24 58  1  0  0  0  0
 25 26  2  0  0  0  0
 25 59  1  0  0  0  0
 26 65  1  0  0  0  0
 27 86  1  0  0  0  0
 28 87  1  0  0  0  0
 29 31  2  0  0  0  0
 29 86  1  0  0  0  0
 30 88  1  0  0  0  0
 31 89  1  0  0  0  0
 32 70  2  0  0  0  0
 33 71  1  0  0  0  0
 33 74  1  0  0  0  0
 34 35  2  0  0  0  0
 34 54  1  0  0  0  0
 34 79  1  0  0  0  0
 36 75  1  0  0  0  0
 36 81  2  0  0  0  0
 37 55  1  0  0  0  0
 37 76  1  0  0  0  0
 37 82  2  0  0  0  0
 38 67  1  0  0  0  0
 38 72  1  0  0  0  0
 38 83  2  0  0  0  0
 39 68  1  0  0  0  0
 39 77  1  0  0  0  0
 39 84  2  0  0  0  0
 40 73  1  0  0  0  0
 40 78  1  0  0  0  0
 40 85  2  0  0  0  0
 41 44  1  0  0  0  0
 42 55  1  0  0  0  0
 43 72  1  0  0  0  0
 44 47  1  0  0  0  0
 45 49  1  0  0  0  0
 45 50  1  0  0  0  0
 46 48  1  0  0  0  0
 46 52  1  0  0  0  0
 47 53  1  0  0  0  0
 48 54  1  0  0  0  0
 49 56  1  0  0  0  0
 50 73  1  0  0  0  0
 51 56  1  0  0  0  0
 51 73  1  0  0  0  0
 52 79  1  0  0  0  0
 53 76  1  0  0  0  0
 54 87  1  0  0  0  0
 55 72  1  0  0  0  0
 56 71  1  0  0  0  0
 60 68  1  0  0  0  0
 61 69  1  0  0  0  0
 62 69  1  0  0  0  0
 63 69  1  0  0  0  0
 64 80  1  0  0  0  0
 65 78  1  0  0  0  0
 66 79  1  0  0  0  0
 67 69  1  0  0  0  0
 67 77  1  0  0  0  0
 68 80  1  0  0  0  0
 70 71  1  0  0  0  0
M  CHG  2  79   1  80   1
M  ISO  4  40 100  54 101  78 100  87 101
M  END
> <Batch ID>
0042

> <Smiles>
C=C1N(Cc2cc(C)c(C[100NH:0][100C:0](=O)N3CCCC(n4nc(-c5ccc(Oc6ccc(F)cc6F)cc5)c(C(N)=O)c4N)C3)c(C)c2C)CCC[101CH:1]1[101O:1]c1ccc2c(c1)CN(C(=O)C(NC(=O)C(C)NC)C(C)(C)C)C(C(=O)NC1CCCc3ccccc31)C2

> <Shape>
0.224

> <Color>
0.175

> <Negative vol penalty>
0.000

$$$$

  -OEChem-04042322123D

 90 99  0     1  0  0  0  0  0999 V2000
  -17.1690  -30.8614   23.6798 C   0  0  0  0  0  0  0  0  0  0  0  0
  -18.5019  -31.2462   23.5770 C   0  0  0  0  0  0  0  0  0  0  0  0
  -26.8031  -12.1120   20.3547 C   0  0  0  0  0  0  0  0  0  0  0  0
  -24.9282  -12.2988   21.8669 C   0  0  0  0  0  0  0  0  0  0  0  0
  -16.8155  -29.5238   23.5073 C   0  0  0  0  0  0  0  0  0  0  0  0
  -19.4824  -30.2933   23.3027 C   0  0  0  0  0  0  0  0  0  0  0  0
  -25.7506  -29.5479   19.9160 C   0  0  0  0  0  0  0  0  0  0  0  0
  -26.0760  -11.2232   19.5630 C   0  0  0  0  0  0  0  0  0  0  0  0
  -24.2010  -11.4100   21.0752 C   0  0  0  0  0  0  0  0  0  0  0  0
  -27.0494  -29.0940   20.1416 C   0  0  0  0  0  0  0  0  0  0  0  0
  -24.0449   -8.0692   20.5799 C   0  0  0  0  0  0  0  0  0  0  0  0
  -23.3406   -7.0530   21.2257 C   0  0  0  0  0  0  0  0  0  0  0  0
  -26.3120  -26.8251   19.7842 C   0  0  0  0  0  0  0  0  0  0  0  0
  -28.1810  -22.8356   19.1572 C   0  0  0  0  0  0  0  0  0  0  0  0
  -21.2753   -7.8930   20.2951 C   0  0  0  0  0  0  0  0  0  0  0  0
  -26.2293  -12.6498   21.5068 C   0  0  0  0  0  0  0  0  0  0  0  0
  -28.2033  -13.3203   22.9770 C   0  0  0  0  0  0  0  0  0  0  0  0
  -17.7909  -28.5556   23.2212 C   0  0  0  0  0  0  0  0  0  0  0  0
  -24.7188  -28.6414   19.6332 C   0  0  0  0  0  0  0  0  0  0  0  0
  -19.1418  -28.9413   23.1276 C   0  0  0  0  0  0  0  0  0  0  0  0
  -25.0015  -27.2703   19.5530 C   0  0  0  0  0  0  0  0  0  0  0  0
  -29.5572  -22.7634   18.9414 C   0  0  0  0  0  0  0  0  0  0  0  0
  -30.3066  -21.7566   19.5500 C   0  0  0  0  0  0  0  0  0  0  0  0
  -29.6799  -20.8220   20.3743 C   0  0  0  0  0  0  0  0  0  0  0  0
  -28.3037  -20.8943   20.5901 C   0  0  0  0  0  0  0  0  0  0  0  0
  -24.7750  -10.8722   19.9231 C   0  0  0  0  0  0  0  0  0  0  0  0
  -27.3297  -27.7321   20.0785 C   0  0  0  0  0  0  0  0  0  0  0  0
  -23.3643   -8.9973   19.7918 C   0  0  0  0  0  0  0  0  0  0  0  0
  -21.9559   -6.9649   21.0833 C   0  0  0  0  0  0  0  0  0  0  0  0
  -21.9796   -8.9092   19.6494 C   0  0  0  0  0  0  0  0  0  0  0  0
  -27.5543  -21.9011   19.9815 C   0  0  0  0  0  0  0  0  0  0  0  0
  -26.9801  -13.5675   22.3254 C   0  0  0  0  0  0  0  0  0  0  0  0
  -28.4957  -14.4996   23.6173 C   0  0  0  0  0  0  0  0  0  0  0  0
  -31.6141  -25.7485   17.9032 C   0  0  0  0  0  0  0  0  0  0  0  0
  -35.0471  -24.4564   18.0763 C   0  0  0  0  0  0  0  0  0  0  0  0
  -32.9322  -25.6202   17.6890 C   0  0  0  0  0  0  0  0  0  0  0  0
  -33.7327  -24.5838   18.2903 C   0  0  0  0  0  0  0  0  0  0  0  0
  -29.0036  -12.1309   23.0012 C   0  0  0  0  0  0  0  0  0  0  0  0
  -21.9903  -27.8349   21.0503 C   0  0  0  0  0  0  0  0  0  0  0  0
  -21.5721  -26.0627   18.3658 C   0  0  0  0  0  0  0  0  0  0  0  0
  -23.6051  -23.9539   16.2594 C   0  0  0  0  0  0  0  0  0  0  0  0
  -26.9632  -20.1852   22.6017 C   0  0  0  0  0  0  0  0  0  0  0  0
  -17.3665  -27.1143   23.0896 C   0  0  0  0  0  0  0  0  0  0  0  0
  -23.3285  -29.1494   19.3659 C   0  0  0  0  0  0  0  0  0  0  0  0
  -23.9334  -26.2579   19.2328 C   0  0  0  0  0  0  0  0  0  0  0  0
  -30.7824  -26.8324   17.2730 C   0  0  0  0  0  0  0  0  0  0  0  0
  -18.4195  -26.2270   22.4307 C   0  0  0  0  0  0  0  0  0  0  0  0
  -29.9648  -27.5583   18.3345 C   0  0  0  0  0  0  0  0  0  0  0  0
  -26.3779  -18.3212   25.5783 C   0  0  0  0  0  0  0  0  0  0  0  0
  -19.7942  -26.4894   23.0374 C   0  0  0  0  0  0  0  0  0  0  0  0
  -26.5832  -16.8685   25.1426 C   0  0  0  0  0  0  0  0  0  0  0  0
  -25.7114  -19.1527   24.4837 C   0  0  0  0  0  0  0  0  0  0  0  0
  -26.5777  -17.6458   22.7379 C   0  0  0  0  0  0  0  0  0  0  0  0
  -30.1859  -25.5565   19.8539 C   0  0  0  0  0  0  0  0  0  0  0  0
  -20.2311  -27.9410   22.8067 C   0  0  1  0  0  0  0  0  0  0  0  0
  -22.2522  -28.0925   19.5934 C   0  0  1  0  0  0  0  0  0  0  0  0
  -27.3048  -16.7845   23.7833 C   0  0  2  0  0  0  0  0  0  0  0  0
  -29.2261  -26.5718   19.2389 C   0  0  1  0  0  0  0  0  0  1  0  0
  -31.7827  -21.6823   19.3172 C   0  0  0  0  0  0  0  0  0  0  0  0
  -30.4903  -19.7438   21.0244 C   0  0  0  0  0  0  0  0  0  0  0  0
  -23.3856  -23.3817   13.8259 C   0  0  0  0  0  0  0  0  0  0  0  0
  -20.0413  -23.6238   19.3751 C   0  0  0  0  0  0  0  0  0  0  0  0
  -21.1372  -22.2765   17.5717 C   0  0  0  0  0  0  0  0  0  0  0  0
  -19.6447  -24.1826   16.9699 C   0  0  0  0  0  0  0  0  0  0  0  0
  -26.3594  -24.8669   15.6770 C   0  0  0  0  0  0  0  0  0  0  0  0
  -30.2062  -23.7806   18.0498 C   0  0  0  0  0  0  0  0  0  0  0  0
  -21.9279  -24.6567   17.9468 C   0  0  1  0  0  0  0  0  0  0  0  0
  -24.0805  -24.2638   14.8514 C   0  0  2  0  0  0  0  0  0  0  0  0
  -20.7035  -23.6992   17.9848 C   0  0  0  0  0  0  0  0  0  0  0  0
  -26.5266  -14.8066   22.5329 N   0  0  0  0  0  0  0  0  0  0  0  0
  -27.4697  -15.3484   23.3221 N   0  0  0  0  0  0  0  0  0  0  0  0
  -22.5885  -26.8034   18.9856 N   0  0  0  0  0  0  0  0  0  0  0  0
  -26.4521  -19.0279   23.2265 N   0  0  0  0  0  0  0  0  0  0  0  0
  -29.5277  -14.8830   24.3985 N   0  0  0  0  0  0  0  0  0  0  0  0
  -28.7666  -11.1865   24.0093 N   0  0  0  0  0  0  0  0  0  0  0  0
  -27.6777  -19.9398   21.4296 N   0  0  0  0  0  0  0  0  0  0  0  0
  -20.6978  -28.1186   21.4483 N   0  0  0  0  0  0  0  0  0  0  0  0
  -22.5584  -24.7687   16.6359 N   0  0  0  0  0  0  0  0  0  0  0  0
  -30.9863  -24.8177   18.8094 N   0  3  1  0  0  0  0  0  0  0  0  0
  -25.5504  -24.0445   14.7409 N   0  3  0  0  0  0  0  0  0  0  0  0
  -29.9132  -11.9197   22.1636 O   0  0  0  0  0  0  0  0  0  0  0  0
  -22.8936  -27.4090   21.7605 O   0  0  0  0  0  0  0  0  0  0  0  0
  -20.4364  -26.4905   18.1448 O   0  0  0  0  0  0  0  0  0  0  0  0
  -24.1092  -23.0743   16.9541 O   0  0  0  0  0  0  0  0  0  0  0  0
  -26.8038  -21.3084   23.0863 O   0  0  0  0  0  0  0  0  0  0  0  0
  -24.0650  -10.0051   19.1507 O   0  0  0  0  0  0  0  0  0  0  0  0
  -28.5964  -27.2863   20.2989 O   0  0  0  0  0  0  0  0  0  1  0  0
  -21.2799   -5.9881   21.7022 F   0  0  0  0  0  0  0  0  0  0  0  0
  -21.3204   -9.7973   18.8926 F   0  0  0  0  0  0  0  0  0  0  0  0
  -25.8472  -22.0302   20.2195 Cl  0  0  0  0  0  0  0  0  0  0  0  0
  1  2  1  0  0  0  0
  1  5  2  0  0  0  0
  2  6  2  0  0  0  0
  3  8  2  0  0  0  0
  3 16  1  0  0  0  0
  4  9  1  0  0  0  0
  4 16  2  0  0  0  0
  5 18  1  0  0  0  0
  6 20  1  0  0  0  0
  7 10  2  0  0  0  0
  7 19  1  0  0  0  0
  8 26  1  0  0  0  0
  9 26  2  0  0  0  0
 10 27  1  0  0  0  0
 11 12  2  0  0  0  0
 11 28  1  0  0  0  0
 12 29  1  0  0  0  0
 13 21  1  0  0  0  0
 13 27  2  0  0  0  0
 14 22  1  0  0  0  0
 14 31  2  0  0  0  0
 15 29  2  0  0  0  0
 15 30  1  0  0  0  0
 16 32  1  0  0  0  0
 17 32  1  0  0  0  0
 17 33  2  0  0  0  0
 17 38  1  0  0  0  0
 18 20  2  0  0  0  0
 18 43  1  0  0  0  0
 19 21  2  0  0  0  0
 19 44  1  0  0  0  0
 20 55  1  0  0  0  0
 21 45  1  0  0  0  0
 22 23  2  0  0  0  0
 22 66  1  0  0  0  0
 23 24  1  0  0  0  0
 23 59  1  0  0  0  0
 24 25  2  0  0  0  0
 24 60  1  0  0  0  0
 25 31  1  0  0  0  0
 25 76  1  0  0  0  0
 26 86  1  0  0  0  0
 27 87  1  0  0  0  0
 28 30  2  0  0  0  0
 28 86  1  0  0  0  0
 29 88  1  0  0  0  0
 30 89  1  0  0  0  0
 31 90  1  0  0  0  0
 32 70  2  0  0  0  0
 33 71  1  0  0  0  0
 33 74  1  0  0  0  0
 34 36  2  0  0  0  0
 34 46  1  0  0  0  0
 34 79  1  0  0  0  0
 35 37  2  0  0  0  0
 36 37  1  0  0  0  0
 38 75  1  0  0  0  0
 38 81  2  0  0  0  0
 39 56  1  0  0  0  0
 39 77  1  0  0  0  0
 39 82  2  0  0  0  0
 40 67  1  0  0  0  0
 40 72  1  0  0  0  0
 40 83  2  0  0  0  0
 41 68  1  0  0  0  0
 41 78  1  0  0  0  0
 41 84  2  0  0  0  0
 42 73  1  0  0  0  0
 42 76  1  0  0  0  0
 42 85  2  0  0  0  0
 43 47  1  0  0  0  0
 44 56  1  0  0  0  0
 45 72  1  0  0  0  0
 46 48  1  0  0  0  0
 47 50  1  0  0  0  0
 48 58  1  0  0  0  0
 49 51  1  0  0  0  0
 49 52  1  0  0  0  0
 50 55  1  0  0  0  0
 51 57  1  0  0  0  0
 52 73  1  0  0  0  0
 53 57  1  0  0  0  0
 53 73  1  0  0  0  0
 54 58  1  0  0  0  0
 54 79  1  0  0  0  0
 55 77  1  0  0  0  0
 56 72  1  0  0  0  0
 57 71  1  0  0  0  0
 58 87  1  0  0  0  0
 61 68  1  0  0  0  0
 62 69  1  0  0  0  0
 63 69  1  0  0  0  0
 64 69  1  0  0  0  0
 65 80  1  0  0  0  0
 66 79  1  0  0  0  0
 67 69  1  0  0  0  0
 67 78  1  0  0  0  0
 68 80  1  0  0  0  0
 70 71  1  0  0  0  0
M  CHG  2  79   1  80   1
M  ISO  4  42 100  58 101  76 100  87 101
M  END
> <Batch ID>
0042

> <Smiles>
C=CC=C1CC[101CH:1]([101O:1]c2ccc3c(c2)CN(C(=O)C(NC(=O)C(C)NC)C(C)(C)C)C(C(=O)NC2CCCc4ccccc42)C3)CN1Cc1cc(Cl)c([100NH:0][100C:0](=O)N2CCCC(n3nc(-c4ccc(Oc5ccc(F)cc5F)cc4)c(C(N)=O)c3N)C2)c(C)c1C

> <Shape>
0.247

> <Color>
0.064

> <Negative vol penalty>
0.000

$$$$

  -OEChem-04042322123D

 87 96  0     1  0  0  0  0  0999 V2000
  -22.4245  -28.7432   25.7899 C   0  0  0  0  0  0  0  0  0  0  0  0
  -23.4545  -27.9627   25.2746 C   0  0  0  0  0  0  0  0  0  0  0  0
  -22.6510  -10.2096   20.2528 C   0  0  0  0  0  0  0  0  0  0  0  0
  -24.2538   -9.5403   21.9320 C   0  0  0  0  0  0  0  0  0  0  0  0
  -22.6490  -30.0882   26.0803 C   0  0  0  0  0  0  0  0  0  0  0  0
  -24.7093  -28.5273   25.0485 C   0  0  0  0  0  0  0  0  0  0  0  0
  -28.4890  -25.5773   26.6783 C   0  0  0  0  0  0  0  0  0  0  0  0
  -21.9059   -9.0577   20.5048 C   0  0  0  0  0  0  0  0  0  0  0  0
  -23.5087   -8.3884   22.1841 C   0  0  0  0  0  0  0  0  0  0  0  0
  -28.8408  -24.4921   25.8768 C   0  0  0  0  0  0  0  0  0  0  0  0
  -19.6978   -7.9778   22.8267 C   0  0  0  0  0  0  0  0  0  0  0  0
  -18.3148   -8.1138   22.9467 C   0  0  0  0  0  0  0  0  0  0  0  0
  -30.6987  -25.7531   24.9953 C   0  0  0  0  0  0  0  0  0  0  0  0
  -30.4985  -18.3521   24.0351 C   0  0  0  0  0  0  0  0  0  0  0  0
  -32.0633  -16.5971   22.5339 C   0  0  0  0  0  0  0  0  0  0  0  0
  -18.0051   -6.6091   21.0819 C   0  0  0  0  0  0  0  0  0  0  0  0
  -23.8250  -10.4509   20.9663 C   0  0  0  0  0  0  0  0  0  0  0  0
  -24.1689  -12.9754   20.8383 C   0  0  0  0  0  0  0  0  0  0  0  0
  -23.9099  -30.6671   25.8667 C   0  0  0  0  0  0  0  0  0  0  0  0
  -29.2343  -26.7644   26.6362 C   0  0  0  0  0  0  0  0  0  0  0  0
  -24.9505  -29.8817   25.3351 C   0  0  0  0  0  0  0  0  0  0  0  0
  -30.3559  -26.8510   25.7992 C   0  0  0  0  0  0  0  0  0  0  0  0
  -29.8938  -17.4719   23.1379 C   0  0  0  0  0  0  0  0  0  0  0  0
  -31.8857  -18.3549   24.1817 C   0  0  0  0  0  0  0  0  0  0  0  0
  -30.6762  -16.5943   22.3873 C   0  0  0  0  0  0  0  0  0  0  0  0
  -22.3347   -8.1471   21.4705 C   0  0  0  0  0  0  0  0  0  0  0  0
  -29.9441  -24.5809   25.0330 C   0  0  0  0  0  0  0  0  0  0  0  0
  -20.2345   -7.1576   21.8343 C   0  0  0  0  0  0  0  0  0  0  0  0
  -17.4684   -7.4294   22.0743 C   0  0  0  0  0  0  0  0  0  0  0  0
  -19.3882   -6.4733   20.9619 C   0  0  0  0  0  0  0  0  0  0  0  0
  -32.6681  -17.4774   23.4312 C   0  0  0  0  0  0  0  0  0  0  0  0
  -24.5954  -11.6403   20.7060 C   0  0  0  0  0  0  0  0  0  0  0  0
  -25.2623  -13.7228   20.4745 C   0  0  0  0  0  0  0  0  0  0  0  0
  -31.4408  -21.5324   24.9296 C   0  0  0  0  0  0  0  0  0  0  0  0
  -22.8980  -13.4935   21.2531 C   0  0  0  0  0  0  0  0  0  0  0  0
  -28.6085  -29.7789   25.8460 C   0  0  0  0  0  0  0  0  0  0  0  0
  -31.6271  -30.2786   26.9235 C   0  0  0  0  0  0  0  0  0  0  0  0
  -34.8181  -28.6120   26.6844 C   0  0  0  0  0  0  0  0  0  0  0  0
  -30.7289  -14.7651   20.6560 C   0  0  0  0  0  0  0  0  0  0  0  0
  -24.0915  -32.1370   26.1515 C   0  0  0  0  0  0  0  0  0  0  0  0
  -28.8577  -27.9165   27.5268 C   0  0  0  0  0  0  0  0  0  0  0  0
  -31.2010  -28.0959   25.7320 C   0  0  0  0  0  0  0  0  0  0  0  0
  -25.5544  -32.5651   26.2346 C   0  0  0  0  0  0  0  0  0  0  0  0
  -33.7152  -22.4465   23.3238 C   0  0  0  0  0  0  0  0  0  0  0  0
  -29.6172  -12.3440   18.2939 C   0  0  0  0  0  0  0  0  0  0  0  0
  -26.3476  -31.9846   25.0681 C   0  0  0  0  0  0  0  0  0  0  0  0
  -32.3604  -23.1006   23.1510 C   0  0  0  0  0  0  0  0  0  0  0  0
  -28.1765  -12.0549   18.7217 C   0  0  0  0  0  0  0  0  0  0  0  0
  -33.5340  -20.9724   23.6386 C   0  0  0  0  0  0  0  0  0  0  0  0
  -30.5302  -12.5762   19.4965 C   0  0  0  0  0  0  0  0  0  0  0  0
  -28.6212  -13.3068   20.8716 C   0  0  0  0  0  0  0  0  0  0  0  0
  -26.3324  -30.4516   25.0993 C   0  0  1  0  0  0  0  0  0  0  0  0
  -31.5800  -22.9696   24.4441 C   0  0  1  0  0  0  0  0  0  1  0  0
  -29.3828  -29.2574   27.0234 C   0  0  1  0  0  0  0  0  0  0  0  0
  -27.6505  -13.1302   19.6926 C   0  0  2  0  0  0  0  0  0  0  0  0
  -28.4058  -17.4922   22.9996 C   0  0  0  0  0  0  0  0  0  0  0  0
  -36.7914  -28.6358   28.2346 C   0  0  0  0  0  0  0  0  0  0  0  0
  -32.6399  -32.5318   25.1326 C   0  0  0  0  0  0  0  0  0  0  0  0
  -34.9491  -31.5968   25.3805 C   0  0  0  0  0  0  0  0  0  0  0  0
  -33.7189  -32.4253   27.3862 C   0  0  0  0  0  0  0  0  0  0  0  0
  -34.8290  -25.6606   26.9029 C   0  0  0  0  0  0  0  0  0  0  0  0
  -32.4979  -19.3181   25.1572 C   0  0  0  0  0  0  0  0  0  0  0  0
  -33.0019  -30.2577   26.3003 C   0  0  1  0  0  0  0  0  0  0  0  0
  -35.5466  -27.8798   27.7968 C   0  0  2  0  0  0  0  0  0  0  0  0
  -33.5563  -31.6868   26.0398 C   0  0  0  0  0  0  0  0  0  0  0  0
  -25.8610  -11.5421   20.2904 N   0  0  0  0  0  0  0  0  0  0  0  0
  -26.2391  -12.8250   20.1584 N   0  0  0  0  0  0  0  0  0  0  0  0
  -32.5097  -20.6811   24.6430 N   0  0  0  0  0  0  0  0  0  0  0  0
  -30.7885  -29.1975   26.6173 N   0  0  0  0  0  0  0  0  0  0  0  0
  -29.9703  -13.6104   20.3693 N   0  0  0  0  0  0  0  0  0  0  0  0
  -25.4738  -15.0539   20.3974 N   0  0  0  0  0  0  0  0  0  0  0  0
  -21.8848  -12.5862   21.5915 N   0  0  0  0  0  0  0  0  0  0  0  0
  -30.0807  -15.6934   21.4700 N   0  0  0  0  0  0  0  0  0  0  0  0
  -27.2607  -29.9570   26.0933 N   0  0  0  0  0  0  0  0  0  0  0  0
  -33.8358  -29.4441   27.1783 N   0  0  0  0  0  0  0  0  0  0  0  0
  -35.9576  -26.5218   27.3407 N   0  3  0  0  0  0  0  0  0  0  0  0
  -30.4545  -21.2003   25.5922 O   0  0  0  0  0  0  0  0  0  0  0  0
  -22.6625  -14.7245   21.3058 O   0  0  0  0  0  0  0  0  0  0  0  0
  -29.1911  -30.0045   24.7918 O   0  0  0  0  0  0  0  0  0  0  0  0
  -31.3115  -31.2159   27.6608 O   0  0  0  0  0  0  0  0  0  0  0  0
  -35.0955  -28.4638   25.4962 O   0  0  0  0  0  0  0  0  0  0  0  0
  -31.8590  -14.9314   20.1899 O   0  0  0  0  0  0  0  0  0  0  0  0
  -21.6077   -7.0231   21.7170 O   0  0  0  0  0  0  0  0  0  0  0  0
  -30.2892  -23.5234   24.2491 O   0  0  0  0  0  0  0  0  0  1  0  0
  -16.1403   -7.5588   22.1906 F   0  0  0  0  0  0  0  0  0  0  0  0
  -19.8979   -5.6829   20.0073 F   0  0  0  0  0  0  0  0  0  0  0  0
  -34.3871  -17.4525   23.5857 Cl  0  0  0  0  0  0  0  0  0  0  0  0
  1  2  1  0  0  0  0
  1  5  2  0  0  0  0
  2  6  2  0  0  0  0
  3  8  2  0  0  0  0
  3 17  1  0  0  0  0
  4  9  1  0  0  0  0
  4 17  2  0  0  0  0
  5 19  1  0  0  0  0
  6 21  1  0  0  0  0
  7 10  2  0  0  0  0
  7 20  1  0  0  0  0
  8 26  1  0  0  0  0
  9 26  2  0  0  0  0
 10 27  1  0  0  0  0
 11 12  2  0  0  0  0
 11 28  1  0  0  0  0
 12 29  1  0  0  0  0
 13 22  1  0  0  0  0
 13 27  2  0  0  0  0
 14 23  2  0  0  0  0
 14 24  1  0  0  0  0
 15 25  2  0  0  0  0
 15 31  1  0  0  0  0
 16 29  2  0  0  0  0
 16 30  1  0  0  0  0
 17 32  1  0  0  0  0
 18 32  1  0  0  0  0
 18 33  2  0  0  0  0
 18 35  1  0  0  0  0
 19 21  2  0  0  0  0
 19 40  1  0  0  0  0
 20 22  2  0  0  0  0
 20 41  1  0  0  0  0
 21 52  1  0  0  0  0
 22 42  1  0  0  0  0
 23 25  1  0  0  0  0
 23 56  1  0  0  0  0
 24 31  2  0  0  0  0
 24 62  1  0  0  0  0
 25 73  1  0  0  0  0
 26 83  1  0  0  0  0
 27 84  1  0  0  0  0
 28 30  2  0  0  0  0
 28 83  1  0  0  0  0
 29 85  1  0  0  0  0
 30 86  1  0  0  0  0
 31 87  1  0  0  0  0
 32 66  2  0  0  0  0
 33 67  1  0  0  0  0
 33 71  1  0  0  0  0
 34 53  1  0  0  0  0
 34 68  1  0  0  0  0
 34 77  2  0  0  0  0
 35 72  1  0  0  0  0
 35 78  2  0  0  0  0
 36 54  1  0  0  0  0
 36 74  1  0  0  0  0
 36 79  2  0  0  0  0
 37 63  1  0  0  0  0
 37 69  1  0  0  0  0
 37 80  2  0  0  0  0
 38 64  1  0  0  0  0
 38 75  1  0  0  0  0
 38 81  2  0  0  0  0
 39 70  1  0  0  0  0
 39 73  1  0  0  0  0
 39 82  2  0  0  0  0
 40 43  1  0  0  0  0
 41 54  1  0  0  0  0
 42 69  1  0  0  0  0
 43 46  1  0  0  0  0
 44 47  1  0  0  0  0
 44 49  1  0  0  0  0
 45 48  1  0  0  0  0
 45 50  1  0  0  0  0
 46 52  1  0  0  0  0
 47 53  1  0  0  0  0
 48 55  1  0  0  0  0
 49 68  1  0  0  0  0
 50 70  1  0  0  0  0
 51 55  1  0  0  0  0
 51 70  1  0  0  0  0
 52 74  1  0  0  0  0
 53 84  1  0  0  0  0
 54 69  1  0  0  0  0
 55 67  1  0  0  0  0
 57 64  1  0  0  0  0
 58 65  1  0  0  0  0
 59 65  1  0  0  0  0
 60 65  1  0  0  0  0
 61 76  1  0  0  0  0
 62 68  1  0  0  0  0
 63 65  1  0  0  0  0
 63 75  1  0  0  0  0
 64 76  1  0  0  0  0
 66 67  1  0  0  0  0
M  CHG  1  76   1
M  ISO  4  39 100  53 101  73 100  84 101
M  END
> <Batch ID>
0042

> <Smiles>
CNC(C)C(=O)NC(C(=O)N1Cc2cc([101O:1][101CH:1]3CCCN(Cc4cc(C)c([100NH:0][100C:0](=O)N5CCCC(n6nc(-c7ccc(Oc8ccc(F)cc8F)cc7)c(C(N)=O)c6N)C5)cc4Cl)C3=O)ccc2CC1C(=O)NC1CCCc2ccccc21)C(C)(C)C

> <Shape>
0.194

> <Color>
0.191

> <Negative vol penalty>
0.000

$$$$

  -OEChem-04042322123D

 89 98  0     1  0  0  0  0  0999 V2000
  -23.4429  -18.0604   14.1313 C   0  0  0  0  0  0  0  0  0  0  0  0
  -23.2870  -19.3444   14.6435 C   0  0  0  0  0  0  0  0  0  0  0  0
  -29.8677  -17.7394   19.4136 C   0  0  0  0  0  0  0  0  0  0  0  0
  -27.9870  -18.3723   20.7918 C   0  0  0  0  0  0  0  0  0  0  0  0
  -22.7647  -16.9912   14.7151 C   0  0  0  0  0  0  0  0  0  0  0  0
  -22.4519  -19.5602   15.7392 C   0  0  0  0  0  0  0  0  0  0  0  0
  -23.2551  -23.6428   20.2328 C   0  0  0  0  0  0  0  0  0  0  0  0
  -29.8102  -16.4448   19.9296 C   0  0  0  0  0  0  0  0  0  0  0  0
  -27.9294  -17.0777   21.3078 C   0  0  0  0  0  0  0  0  0  0  0  0
  -22.7239  -24.9130   20.4521 C   0  0  0  0  0  0  0  0  0  0  0  0
  -27.9542  -13.6572   19.4625 C   0  0  0  0  0  0  0  0  0  0  0  0
  -28.0582  -12.5959   18.5635 C   0  0  0  0  0  0  0  0  0  0  0  0
  -21.0294  -23.9520   21.8749 C   0  0  0  0  0  0  0  0  0  0  0  0
  -25.0461  -29.2707   19.8971 C   0  0  0  0  0  0  0  0  0  0  0  0
  -30.0325  -11.8135   19.7155 C   0  0  0  0  0  0  0  0  0  0  0  0
  -28.9561  -18.7032   19.8447 C   0  0  0  0  0  0  0  0  0  0  0  0
  -28.8786  -20.4266   17.9656 C   0  0  0  0  0  0  0  0  0  0  0  0
  -21.9284  -17.1924   15.8245 C   0  0  0  0  0  0  0  0  0  0  0  0
  -22.6699  -22.5145   20.8252 C   0  0  0  0  0  0  0  0  0  0  0  0
  -21.7608  -18.4929   16.3375 C   0  0  0  0  0  0  0  0  0  0  0  0
  -21.5567  -22.6689   21.6636 C   0  0  0  0  0  0  0  0  0  0  0  0
  -26.1495  -29.4536   20.7306 C   0  0  0  0  0  0  0  0  0  0  0  0
  -25.9708  -29.9281   22.0300 C   0  0  0  0  0  0  0  0  0  0  0  0
  -24.6888  -30.2198   22.4960 C   0  0  0  0  0  0  0  0  0  0  0  0
  -23.5855  -30.0370   21.6624 C   0  0  0  0  0  0  0  0  0  0  0  0
  -28.8410  -16.1139   20.8767 C   0  0  0  0  0  0  0  0  0  0  0  0
  -21.6091  -25.0675   21.2709 C   0  0  0  0  0  0  0  0  0  0  0  0
  -28.8895  -13.7968   20.4880 C   0  0  0  0  0  0  0  0  0  0  0  0
  -29.0973  -11.6740   18.6900 C   0  0  0  0  0  0  0  0  0  0  0  0
  -29.9286  -12.8749   20.6145 C   0  0  0  0  0  0  0  0  0  0  0  0
  -23.7641  -29.5625   20.3630 C   0  0  0  0  0  0  0  0  0  0  0  0
  -29.0154  -20.0408   19.3125 C   0  0  0  0  0  0  0  0  0  0  0  0
  -29.0116  -21.7935   17.9847 C   0  0  0  0  0  0  0  0  0  0  0  0
  -28.6516  -19.6214   16.8012 C   0  0  0  0  0  0  0  0  0  0  0  0
  -21.2815  -19.8725   19.7316 C   0  0  0  0  0  0  0  0  0  0  0  0
  -21.2611  -19.0514   22.8697 C   0  0  0  0  0  0  0  0  0  0  0  0
  -21.3169  -20.0612   26.1291 C   0  0  0  0  0  0  0  0  0  0  0  0
  -27.7535  -26.6654   20.1363 C   0  0  0  0  0  0  0  0  0  0  0  0
  -21.1792  -16.0130   16.3922 C   0  0  0  0  0  0  0  0  0  0  0  0
  -23.2712  -21.1543   20.6001 C   0  0  0  0  0  0  0  0  0  0  0  0
  -20.9036  -21.4920   22.3394 C   0  0  0  0  0  0  0  0  0  0  0  0
  -20.6058  -16.2682   17.7838 C   0  0  0  0  0  0  0  0  0  0  0  0
  -30.5144  -24.9060   21.6787 C   0  0  0  0  0  0  0  0  0  0  0  0
  -19.9024  -17.6209   17.8314 C   0  0  0  0  0  0  0  0  0  0  0  0
  -30.3543  -23.5064   21.0824 C   0  0  0  0  0  0  0  0  0  0  0  0
  -19.6130  -27.0323   23.2639 C   0  0  0  0  0  0  0  0  0  0  0  0
  -19.0125  -28.2167   22.5156 C   0  0  0  0  0  0  0  0  0  0  0  0
  -29.1580  -25.5418   21.9686 C   0  0  0  0  0  0  0  0  0  0  0  0
  -28.0830  -24.2097   20.1956 C   0  0  0  0  0  0  0  0  0  0  0  0
  -21.9122  -28.0181   22.9459 C   0  0  0  0  0  0  0  0  0  0  0  0
  -20.8832  -18.7632   17.5403 C   0  0  1  0  0  0  0  0  0  0  0  0
  -22.2835  -20.0170   20.8419 C   0  0  1  0  0  0  0  0  0  0  0  0
  -29.4187  -23.5222   19.8590 C   0  0  2  0  0  0  0  0  0  0  0  0
  -21.0507  -26.7691   22.8341 C   0  0  2  0  0  0  0  0  0  1  0  0
  -19.8714  -29.4806   22.6425 C   0  0  2  0  0  0  0  0  0  0  0  0
  -27.1564  -30.1234   22.9215 C   0  0  0  0  0  0  0  0  0  0  0  0
  -24.4991  -30.7285   23.8906 C   0  0  0  0  0  0  0  0  0  0  0  0
  -19.2605  -30.6056   21.8093 C   0  0  0  0  0  0  0  0  0  0  0  0
  -21.2506  -19.1626   28.4712 C   0  0  0  0  0  0  0  0  0  0  0  0
  -18.2639  -18.5527   22.5909 C   0  0  0  0  0  0  0  0  0  0  0  0
  -18.0953  -18.5943   25.0885 C   0  0  0  0  0  0  0  0  0  0  0  0
  -19.4812  -16.8524   23.9625 C   0  0  0  0  0  0  0  0  0  0  0  0
  -23.9791  -21.1892   26.7611 C   0  0  0  0  0  0  0  0  0  0  0  0
  -27.5115  -29.1339   20.2076 C   0  0  0  0  0  0  0  0  0  0  0  0
  -22.2123  -30.3548   22.1767 C   0  0  0  0  0  0  0  0  0  0  0  0
  -20.3011  -19.2433   24.0188 C   0  0  1  0  0  0  0  0  0  0  0  0
  -22.1403  -19.5921   27.3150 C   0  0  2  0  0  0  0  0  0  0  0  0
  -19.0463  -18.3328   23.9010 C   0  0  0  0  0  0  0  0  0  0  0  0
  -29.2198  -21.0787   20.1280 N   0  0  0  0  0  0  0  0  0  0  0  0
  -29.2125  -22.1302   19.2910 N   0  0  0  0  0  0  0  0  0  0  0  0
  -21.5245  -20.1819   22.0832 N   0  0  0  0  0  0  0  0  0  0  0  0
  -28.3230  -25.5424   20.7591 N   0  0  0  0  0  0  0  0  0  0  0  0
  -28.9753  -22.7283   17.0114 N   0  0  0  0  0  0  0  0  0  0  0  0
  -27.3293  -19.3625   16.4154 N   0  0  0  0  0  0  0  0  0  0  0  0
  -21.6937  -19.0430   18.7062 N   0  0  0  0  0  0  0  0  0  0  0  0
  -21.0765  -19.0375   25.2373 N   0  0  0  0  0  0  0  0  0  0  0  0
  -28.0232  -27.8891   20.7366 N   0  0  0  0  0  0  0  0  0  0  0  0
  -21.2858  -29.1625   22.1660 N   0  3  1  0  0  0  0  0  0  0  0  0
  -23.0336  -20.6861   27.7906 N   0  3  0  0  0  0  0  0  0  0  0  0
  -29.5933  -19.1321   16.1324 O   0  0  0  0  0  0  0  0  0  0  0  0
  -20.2129  -20.4684   19.8008 O   0  0  0  0  0  0  0  0  0  0  0  0
  -21.7646  -17.9411   22.6812 O   0  0  0  0  0  0  0  0  0  0  0  0
  -20.9230  -21.2191   26.0080 O   0  0  0  0  0  0  0  0  0  0  0  0
  -27.0598  -26.5842   19.1168 O   0  0  0  0  0  0  0  0  0  0  0  0
  -28.7845  -14.8506   21.3802 O   0  0  0  0  0  0  0  0  0  0  0  0
  -21.0881  -26.3061   21.4861 O   0  0  0  0  0  0  0  0  0  1  0  0
  -29.1961  -10.6539   17.8275 F   0  0  0  0  0  0  0  0  0  0  0  0
  -30.8294  -13.0031   21.5984 F   0  0  0  0  0  0  0  0  0  0  0  0
  -22.4248  -29.3216   19.3001 Cl  0  0  0  0  0  0  0  0  0  0  0  0
  1  2  1  0  0  0  0
  1  5  2  0  0  0  0
  2  6  2  0  0  0  0
  3  8  2  0  0  0  0
  3 16  1  0  0  0  0
  4  9  1  0  0  0  0
  4 16  2  0  0  0  0
  5 18  1  0  0  0  0
  6 20  1  0  0  0  0
  7 10  2  0  0  0  0
  7 19  1  0  0  0  0
  8 26  1  0  0  0  0
  9 26  2  0  0  0  0
 10 27  1  0  0  0  0
 11 12  2  0  0  0  0
 11 28  1  0  0  0  0
 12 29  1  0  0  0  0
 13 21  1  0  0  0  0
 13 27  2  0  0  0  0
 14 22  1  0  0  0  0
 14 31  2  0  0  0  0
 15 29  2  0  0  0  0
 15 30  1  0  0  0  0
 16 32  1  0  0  0  0
 17 32  1  0  0  0  0
 17 33  2  0  0  0  0
 17 34  1  0  0  0  0
 18 20  2  0  0  0  0
 18 39  1  0  0  0  0
 19 21  2  0  0  0  0
 19 40  1  0  0  0  0
 20 51  1  0  0  0  0
 21 41  1  0  0  0  0
 22 23  2  0  0  0  0
 22 64  1  0  0  0  0
 23 24  1  0  0  0  0
 23 56  1  0  0  0  0
 24 25  2  0  0  0  0
 24 57  1  0  0  0  0
 25 31  1  0  0  0  0
 25 65  1  0  0  0  0
 26 85  1  0  0  0  0
 27 86  1  0  0  0  0
 28 30  2  0  0  0  0
 28 85  1  0  0  0  0
 29 87  1  0  0  0  0
 30 88  1  0  0  0  0
 31 89  1  0  0  0  0
 32 69  2  0  0  0  0
 33 70  1  0  0  0  0
 33 73  1  0  0  0  0
 34 74  1  0  0  0  0
 34 80  2  0  0  0  0
 35 52  1  0  0  0  0
 35 75  1  0  0  0  0
 35 81  2  0  0  0  0
 36 66  1  0  0  0  0
 36 71  1  0  0  0  0
 36 82  2  0  0  0  0
 37 67  1  0  0  0  0
 37 76  1  0  0  0  0
 37 83  2  0  0  0  0
 38 72  1  0  0  0  0
 38 77  1  0  0  0  0
 38 84  2  0  0  0  0
 39 42  1  0  0  0  0
 40 52  1  0  0  0  0
 41 71  1  0  0  0  0
 42 44  1  0  0  0  0
 43 45  1  0  0  0  0
 43 48  1  0  0  0  0
 44 51  1  0  0  0  0
 45 53  1  0  0  0  0
 46 47  1  0  0  0  0
 46 54  1  0  0  0  0
 47 55  1  0  0  0  0
 48 72  1  0  0  0  0
 49 53  1  0  0  0  0
 49 72  1  0  0  0  0
 50 54  1  0  0  0  0
 50 78  1  0  0  0  0
 51 75  1  0  0  0  0
 52 71  1  0  0  0  0
 53 70  1  0  0  0  0
 54 86  1  0  0  0  0
 55 58  1  0  0  0  0
 55 78  1  0  0  0  0
 59 67  1  0  0  0  0
 60 68  1  0  0  0  0
 61 68  1  0  0  0  0
 62 68  1  0  0  0  0
 63 79  1  0  0  0  0
 64 77  1  0  0  0  0
 65 78  1  0  0  0  0
 66 68  1  0  0  0  0
 66 76  1  0  0  0  0
 67 79  1  0  0  0  0
 69 70  1  0  0  0  0
M  CHG  2  78   1  79   1
M  ISO  4  38 100  54 101  77 100  86 101
M  END
> <Batch ID>
0042

> <Smiles>
CNC(C)C(=O)NC(C(=O)N1Cc2cc([101O:1][101CH:1]3CCC(C)N(Cc4c(Cl)cc(C[100NH:0][100C:0](=O)N5CCCC(n6nc(-c7ccc(Oc8ccc(F)cc8F)cc7)c(C(N)=O)c6N)C5)c(C)c4C)C3)ccc2CC1C(=O)NC1CCCc2ccccc21)C(C)(C)C

> <Shape>
0.229

> <Color>
0.069

> <Negative vol penalty>
0.000

$$$$

  -OEChem-04042322123D

 83 91  0     1  0  0  0  0  0999 V2000
  -37.7515  -27.3730   33.7533 C   0  0  0  0  0  0  0  0  0  0  0  0
  -36.5876  -26.9587   33.1136 C   0  0  0  0  0  0  0  0  0  0  0  0
  -23.0758   -9.8674   19.9401 C   0  0  0  0  0  0  0  0  0  0  0  0
  -23.8353   -9.8738   22.2336 C   0  0  0  0  0  0  0  0  0  0  0  0
  -38.9303  -27.5241   33.0243 C   0  0  0  0  0  0  0  0  0  0  0  0
  -36.6016  -26.6965   31.7441 C   0  0  0  0  0  0  0  0  0  0  0  0
  -33.3801  -22.4116   28.7831 C   0  0  0  0  0  0  0  0  0  0  0  0
  -31.1577  -17.6748   20.5912 C   0  0  0  0  0  0  0  0  0  0  0  0
  -22.3316   -8.7144   20.1898 C   0  0  0  0  0  0  0  0  0  0  0  0
  -23.0911   -8.7208   22.4833 C   0  0  0  0  0  0  0  0  0  0  0  0
  -32.1887  -22.4657   28.0611 C   0  0  0  0  0  0  0  0  0  0  0  0
  -21.1053   -5.9839   23.8191 C   0  0  0  0  0  0  0  0  0  0  0  0
  -20.3488   -5.9403   24.9901 C   0  0  0  0  0  0  0  0  0  0  0  0
  -31.3411  -19.0575   20.5819 C   0  0  0  0  0  0  0  0  0  0  0  0
  -33.4463  -22.6763   26.0133 C   0  0  0  0  0  0  0  0  0  0  0  0
  -19.1048   -7.8780   24.2587 C   0  0  0  0  0  0  0  0  0  0  0  0
  -23.8278  -10.4471   20.9621 C   0  0  0  0  0  0  0  0  0  0  0  0
  -24.1702  -12.9721   20.8425 C   0  0  0  0  0  0  0  0  0  0  0  0
  -38.9611  -27.2543   31.6470 C   0  0  0  0  0  0  0  0  0  0  0  0
  -34.6155  -22.5006   28.1257 C   0  0  0  0  0  0  0  0  0  0  0  0
  -37.7816  -26.8455   30.9957 C   0  0  0  0  0  0  0  0  0  0  0  0
  -34.6520  -22.6205   26.7291 C   0  0  0  0  0  0  0  0  0  0  0  0
  -29.5311  -17.9025   22.3630 C   0  0  0  0  0  0  0  0  0  0  0  0
  -29.7145  -19.2852   22.3537 C   0  0  0  0  0  0  0  0  0  0  0  0
  -30.2527  -17.0973   21.4818 C   0  0  0  0  0  0  0  0  0  0  0  0
  -22.3392   -8.1411   21.4613 C   0  0  0  0  0  0  0  0  0  0  0  0
  -32.2216  -22.6010   26.6763 C   0  0  0  0  0  0  0  0  0  0  0  0
  -20.8616   -6.9746   22.8678 C   0  0  0  0  0  0  0  0  0  0  0  0
  -19.3485   -6.8874   25.2100 C   0  0  0  0  0  0  0  0  0  0  0  0
  -19.8614   -7.9216   23.0876 C   0  0  0  0  0  0  0  0  0  0  0  0
  -30.6195  -19.8627   21.4631 C   0  0  0  0  0  0  0  0  0  0  0  0
  -24.5972  -11.6378   20.7047 C   0  0  0  0  0  0  0  0  0  0  0  0
  -25.2626  -13.7214   20.4796 C   0  0  0  0  0  0  0  0  0  0  0  0
  -22.8998  -13.4882   21.2613 C   0  0  0  0  0  0  0  0  0  0  0  0
  -37.0580  -24.5332   28.2060 C   0  0  0  0  0  0  0  0  0  0  0  0
  -38.4361  -22.3475   26.2449 C   0  0  0  0  0  0  0  0  0  0  0  0
  -38.0343  -19.8149   23.9929 C   0  0  0  0  0  0  0  0  0  0  0  0
  -30.7291  -14.7656   20.6554 C   0  0  0  0  0  0  0  0  0  0  0  0
  -40.2475  -27.4775   30.8921 C   0  0  0  0  0  0  0  0  0  0  0  0
  -35.8921  -22.4137   28.9164 C   0  0  0  0  0  0  0  0  0  0  0  0
  -35.9526  -22.6997   25.9737 C   0  0  0  0  0  0  0  0  0  0  0  0
  -40.2681  -26.8185   29.5153 C   0  0  0  0  0  0  0  0  0  0  0  0
  -29.6145  -12.3525   18.2865 C   0  0  0  0  0  0  0  0  0  0  0  0
  -38.9700  -27.1045   28.7671 C   0  0  0  0  0  0  0  0  0  0  0  0
  -28.1747  -12.0612   18.7158 C   0  0  0  0  0  0  0  0  0  0  0  0
  -30.5294  -12.5809   19.4884 C   0  0  0  0  0  0  0  0  0  0  0  0
  -28.6224  -13.3056   20.8694 C   0  0  0  0  0  0  0  0  0  0  0  0
  -37.7628  -26.5275   29.5163 C   0  0  1  0  0  0  0  0  0  0  0  0
  -37.0856  -23.0309   28.1939 C   0  0  1  0  0  0  0  0  0  0  0  0
  -27.6497  -13.1328   19.6914 C   0  0  2  0  0  0  0  0  0  0  0  0
  -28.5592  -17.2829   23.3185 C   0  0  0  0  0  0  0  0  0  0  0  0
  -39.3453  -18.2503   22.5332 C   0  0  0  0  0  0  0  0  0  0  0  0
  -38.9721  -24.6263   24.2879 C   0  0  0  0  0  0  0  0  0  0  0  0
  -39.3906  -22.9107   22.5131 C   0  0  0  0  0  0  0  0  0  0  0  0
  -40.8533  -22.9966   24.5320 C   0  0  0  0  0  0  0  0  0  0  0  0
  -36.9548  -17.4326   25.3781 C   0  0  0  0  0  0  0  0  0  0  0  0
  -28.9318  -20.1387   23.3076 C   0  0  0  0  0  0  0  0  0  0  0  0
  -29.0160  -21.5354   25.3766 C   0  0  0  0  0  0  0  0  0  0  0  0
  -29.9408  -21.9496   26.5041 C   0  0  0  0  0  0  0  0  0  1  0  0
  -38.4873  -22.1331   24.7515 C   0  0  1  0  0  0  0  0  0  0  0  0
  -38.6844  -18.4471   23.8887 C   0  0  2  0  0  0  0  0  0  0  0  0
  -39.4011  -23.1671   24.0352 C   0  0  0  0  0  0  0  0  0  0  0  0
  -25.8621  -11.5417   20.2866 N   0  0  0  0  0  0  0  0  0  0  0  0
  -26.2393  -12.8252   20.1586 N   0  0  0  0  0  0  0  0  0  0  0  0
  -37.1736  -22.6168   26.7921 N   0  0  0  0  0  0  0  0  0  0  0  0
  -29.9705  -13.6117   20.3659 N   0  0  0  0  0  0  0  0  0  0  0  0
  -25.4734  -15.0528   20.4069 N   0  0  0  0  0  0  0  0  0  0  0  0
  -21.8876  -12.5792   21.5983 N   0  0  0  0  0  0  0  0  0  0  0  0
  -30.0818  -15.6907   21.4739 N   0  0  0  0  0  0  0  0  0  0  0  0
  -37.6737  -25.0983   29.3065 N   0  0  0  0  0  0  0  0  0  0  0  0
  -38.8861  -20.7440   24.5519 N   0  0  0  0  0  0  0  0  0  0  0  0
  -37.6669  -17.3743   24.0756 N   0  3  0  0  0  0  0  0  0  0  0  0
  -29.7478  -20.6385   24.4469 N   0  3  0  0  0  0  0  0  0  0  0  0
  -22.6638  -14.7189   21.3189 O   0  0  0  0  0  0  0  0  0  0  0  0
  -36.5194  -25.1350   27.2844 O   0  0  0  0  0  0  0  0  0  0  0  0
  -39.4768  -22.2715   26.9027 O   0  0  0  0  0  0  0  0  0  0  0  0
  -36.8870  -20.0378   23.6128 O   0  0  0  0  0  0  0  0  0  0  0  0
  -31.8583  -14.9341   20.1880 O   0  0  0  0  0  0  0  0  0  0  0  0
  -21.6130   -7.0161   21.7053 O   0  0  0  0  0  0  0  0  0  0  0  0
  -31.0602  -22.6547   25.9691 O   0  0  0  0  0  0  0  0  0  1  0  0
  -18.6211   -6.8444   26.3339 F   0  0  0  0  0  0  0  0  0  0  0  0
  -19.6218   -8.8751   22.1769 F   0  0  0  0  0  0  0  0  0  0  0  0
  -30.8783  -21.5692   21.4205 Cl  0  0  0  0  0  0  0  0  0  0  0  0
  1  2  1  0  0  0  0
  1  5  2  0  0  0  0
  2  6  2  0  0  0  0
  3  9  2  0  0  0  0
  3 17  1  0  0  0  0
  4 10  1  0  0  0  0
  4 17  2  0  0  0  0
  5 19  1  0  0  0  0
  6 21  1  0  0  0  0
  7 11  2  0  0  0  0
  7 20  1  0  0  0  0
  8 14  1  0  0  0  0
  8 25  2  0  0  0  0
  9 26  1  0  0  0  0
 10 26  2  0  0  0  0
 11 27  1  0  0  0  0
 12 13  2  0  0  0  0
 12 28  1  0  0  0  0
 13 29  1  0  0  0  0
 14 31  2  0  0  0  0
 15 22  1  0  0  0  0
 15 27  2  0  0  0  0
 16 29  2  0  0  0  0
 16 30  1  0  0  0  0
 17 32  1  0  0  0  0
 18 32  1  0  0  0  0
 18 33  2  0  0  0  0
 18 34  1  0  0  0  0
 19 21  2  0  0  0  0
 19 39  1  0  0  0  0
 20 22  2  0  0  0  0
 20 40  1  0  0  0  0
 21 48  1  0  0  0  0
 22 41  1  0  0  0  0
 23 24  2  0  0  0  0
 23 25  1  0  0  0  0
 23 51  1  0  0  0  0
 24 31  1  0  0  0  0
 24 57  1  0  0  0  0
 25 69  1  0  0  0  0
 26 79  1  0  0  0  0
 27 80  1  0  0  0  0
 28 30  2  0  0  0  0
 28 79  1  0  0  0  0
 29 81  1  0  0  0  0
 30 82  1  0  0  0  0
 31 83  1  0  0  0  0
 32 63  2  0  0  0  0
 33 64  1  0  0  0  0
 33 67  1  0  0  0  0
 34 68  1  0  0  0  0
 34 74  2  0  0  0  0
 35 49  1  0  0  0  0
 35 70  1  0  0  0  0
 35 75  2  0  0  0  0
 36 60  1  0  0  0  0
 36 65  1  0  0  0  0
 36 76  2  0  0  0  0
 37 61  1  0  0  0  0
 37 71  1  0  0  0  0
 37 77  2  0  0  0  0
 38 66  1  0  0  0  0
 38 69  1  0  0  0  0
 38 78  2  0  0  0  0
 39 42  1  0  0  0  0
 40 49  1  0  0  0  0
 41 65  1  0  0  0  0
 42 44  1  0  0  0  0
 43 45  1  0  0  0  0
 43 46  1  0  0  0  0
 44 48  1  0  0  0  0
 45 50  1  0  0  0  0
 46 66  1  0  0  0  0
 47 50  1  0  0  0  0
 47 66  1  0  0  0  0
 48 70  1  0  0  0  0
 49 65  1  0  0  0  0
 50 64  1  0  0  0  0
 52 61  1  0  0  0  0
 53 62  1  0  0  0  0
 54 62  1  0  0  0  0
 55 62  1  0  0  0  0
 56 72  1  0  0  0  0
 57 73  1  0  0  0  0
 58 59  1  0  0  0  0
 58 73  1  0  0  0  0
 59 80  1  0  0  0  0
 60 62  1  0  0  0  0
 60 71  1  0  0  0  0
 61 72  1  0  0  0  0
 63 64  1  0  0  0  0
M  CHG  2  72   1  73   1
M  ISO  4  38 100  59 101  69 100  80 101
M  END
> <Batch ID>
0042

> <Smiles>
CNC(C)C(=O)NC(C(=O)N1Cc2cc([101O:1][101CH2:1]CNCc3c(Cl)ccc([100NH:0][100C:0](=O)N4CCCC(n5nc(-c6ccc(Oc7ccc(F)cc7F)cc6)c(C(N)=O)c5N)C4)c3C)ccc2CC1C(=O)NC1CCCc2ccccc21)C(C)(C)C

> <Shape>
0.173

> <Color>
0.192

> <Negative vol penalty>
0.000

$$$$
