
  -OEChem-04042322153D

 87 96  0     1  0  0  0  0  0999 V2000
  -22.6737  -29.7935   30.3647 C   0  0  0  0  0  0  0  0  0  0  0  0
  -23.5419  -28.7183   30.2050 C   0  0  0  0  0  0  0  0  0  0  0  0
  -22.6684  -10.1983   20.1639 C   0  0  0  0  0  0  0  0  0  0  0  0
  -24.3219   -9.4105   21.7395 C   0  0  0  0  0  0  0  0  0  0  0  0
  -21.3136  -29.5652   30.5697 C   0  0  0  0  0  0  0  0  0  0  0  0
  -23.0507  -27.4140   30.2515 C   0  0  0  0  0  0  0  0  0  0  0  0
  -24.9295  -24.4979   26.5621 C   0  0  0  0  0  0  0  0  0  0  0  0
  -21.9328   -9.0280   20.3507 C   0  0  0  0  0  0  0  0  0  0  0  0
  -23.5863   -8.2402   21.9263 C   0  0  0  0  0  0  0  0  0  0  0  0
  -26.2238  -24.0089   26.7338 C   0  0  0  0  0  0  0  0  0  0  0  0
  -20.8398   -7.2736   23.6418 C   0  0  0  0  0  0  0  0  0  0  0  0
  -20.6561   -6.8273   24.9505 C   0  0  0  0  0  0  0  0  0  0  0  0
  -25.3215  -21.8878   27.4452 C   0  0  0  0  0  0  0  0  0  0  0  0
  -29.5863  -17.7239   22.6364 C   0  0  0  0  0  0  0  0  0  0  0  0
  -31.1668  -17.6675   20.8099 C   0  0  0  0  0  0  0  0  0  0  0  0
  -21.7766   -4.7582   24.4022 C   0  0  0  0  0  0  0  0  0  0  0  0
  -23.8629  -10.3896   20.8583 C   0  0  0  0  0  0  0  0  0  0  0  0
  -24.1993  -12.9178   20.9105 C   0  0  0  0  0  0  0  0  0  0  0  0
  -20.8040  -28.2578   30.6091 C   0  0  0  0  0  0  0  0  0  0  0  0
  -23.8196  -23.6877   26.8416 C   0  0  0  0  0  0  0  0  0  0  0  0
  -21.6828  -27.1680   30.4586 C   0  0  0  0  0  0  0  0  0  0  0  0
  -24.0142  -22.3681   27.2738 C   0  0  0  0  0  0  0  0  0  0  0  0
  -29.7533  -19.1049   22.7382 C   0  0  0  0  0  0  0  0  0  0  0  0
  -30.6269  -19.7673   21.8759 C   0  0  0  0  0  0  0  0  0  0  0  0
  -30.2931  -17.0051   21.6722 C   0  0  0  0  0  0  0  0  0  0  0  0
  -22.3917   -8.0490   21.2319 C   0  0  0  0  0  0  0  0  0  0  0  0
  -26.4200  -22.7046   27.1781 C   0  0  0  0  0  0  0  0  0  0  0  0
  -21.4918   -6.4622   22.7133 C   0  0  0  0  0  0  0  0  0  0  0  0
  -21.1246   -5.5697   25.3307 C   0  0  0  0  0  0  0  0  0  0  0  0
  -31.3337  -19.0486   20.9117 C   0  0  0  0  0  0  0  0  0  0  0  0
  -21.9603   -5.2045   23.0935 C   0  0  0  0  0  0  0  0  0  0  0  0
  -24.6235  -11.5980   20.6653 C   0  0  0  0  0  0  0  0  0  0  0  0
  -25.2802  -13.6944   20.5715 C   0  0  0  0  0  0  0  0  0  0  0  0
  -29.2180  -21.3793   25.6599 C   0  0  0  0  0  0  0  0  0  0  0  0
  -29.7559  -22.5943   25.4627 C   0  0  0  0  0  0  0  0  0  0  0  0
  -22.9407  -13.3986   21.4008 C   0  0  0  0  0  0  0  0  0  0  0  0
  -21.3948  -23.8342   28.8917 C   0  0  0  0  0  0  0  0  0  0  0  0
  -20.3625  -21.2310   27.2546 C   0  0  0  0  0  0  0  0  0  0  0  0
  -21.8284  -18.2392   25.8697 C   0  0  0  0  0  0  0  0  0  0  0  0
  -30.7483  -14.7401   20.6678 C   0  0  0  0  0  0  0  0  0  0  0  0
  -19.3337  -28.0596   30.8805 C   0  0  0  0  0  0  0  0  0  0  0  0
  -22.4300  -24.2215   26.6257 C   0  0  0  0  0  0  0  0  0  0  0  0
  -22.8562  -21.4511   27.5682 C   0  0  0  0  0  0  0  0  0  0  0  0
  -18.8356  -26.6567   30.5426 C   0  0  0  0  0  0  0  0  0  0  0  0
  -29.5696  -12.4994   18.1644 C   0  0  0  0  0  0  0  0  0  0  0  0
  -28.9748  -18.7466   26.7686 C   0  0  0  0  0  0  0  0  0  0  0  0
  -19.7885  -25.6035   31.0988 C   0  0  0  0  0  0  0  0  0  0  0  0
  -28.3997  -19.9394   27.5242 C   0  0  0  0  0  0  0  0  0  0  0  0
  -28.1429  -12.1737   18.6120 C   0  0  0  0  0  0  0  0  0  0  0  0
  -30.5180  -12.6440   19.3533 C   0  0  0  0  0  0  0  0  0  0  0  0
  -28.6501  -13.2620   20.8359 C   0  0  0  0  0  0  0  0  0  0  0  0
  -30.1679  -19.1536   25.9102 C   0  0  0  0  0  0  0  0  0  0  0  0
  -21.1842  -25.7394   30.4781 C   0  0  1  0  0  0  0  0  0  0  0  0
  -28.0514  -21.0860   26.5763 C   0  0  1  0  0  0  0  0  0  1  0  0
  -21.3715  -23.4759   27.4326 C   0  0  1  0  0  0  0  0  0  0  0  0
  -27.6447  -13.1711   19.6763 C   0  0  2  0  0  0  0  0  0  0  0  0
  -30.8189  -21.2457   21.9678 C   0  0  0  0  0  0  0  0  0  0  0  0
  -21.0985  -16.8055   23.9439 C   0  0  0  0  0  0  0  0  0  0  0  0
  -18.9496  -19.5792   29.3959 C   0  0  0  0  0  0  0  0  0  0  0  0
  -19.5958  -17.5166   28.1324 C   0  0  0  0  0  0  0  0  0  0  0  0
  -18.1064  -19.2125   27.0702 C   0  0  0  0  0  0  0  0  0  0  0  0
  -24.4508  -18.5086   24.5246 C   0  0  0  0  0  0  0  0  0  0  0  0
  -28.9820  -19.8569   23.7826 C   0  0  0  0  0  0  0  0  0  0  0  0
  -20.5591  -19.7398   27.3836 C   0  0  1  0  0  0  0  0  0  0  0  0
  -22.0264  -17.9213   24.3986 C   0  0  2  0  0  0  0  0  0  0  0  0
  -19.3226  -19.0304   28.0043 C   0  0  0  0  0  0  0  0  0  0  0  0
  -25.8762  -11.5360   20.2060 N   0  0  0  0  0  0  0  0  0  0  0  0
  -26.2484  -12.8265   20.1597 N   0  0  0  0  0  0  0  0  0  0  0  0
  -21.5169  -22.0213   27.3478 N   0  0  0  0  0  0  0  0  0  0  0  0
  -29.9831  -13.6076   20.3177 N   0  0  0  0  0  0  0  0  0  0  0  0
  -25.4874  -15.0283   20.5885 N   0  0  0  0  0  0  0  0  0  0  0  0
  -22.7739  -13.5430   22.7848 N   0  0  0  0  0  0  0  0  0  0  0  0
  -30.1235  -15.6022   21.5684 N   0  0  0  0  0  0  0  0  0  0  0  0
  -21.2007  -25.1789   29.1439 N   0  0  0  0  0  0  0  0  0  0  0  0
  -20.9188  -19.2590   26.0539 N   0  0  0  0  0  0  0  0  0  0  0  0
  -29.8282  -20.2737   24.9540 N   0  3  1  0  0  0  0  0  0  0  0  0
  -23.4321  -17.4961   24.1452 N   0  3  0  0  0  0  0  0  0  0  0  0
  -21.9865  -13.6760   20.6352 O   0  0  0  0  0  0  0  0  0  0  0  0
  -21.5741  -22.9555   29.7268 O   0  0  0  0  0  0  0  0  0  0  0  0
  -19.2275  -21.6776   27.0706 O   0  0  0  0  0  0  0  0  0  0  0  0
  -22.4187  -17.6402   26.7660 O   0  0  0  0  0  0  0  0  0  0  0  0
  -31.8637  -14.9451   20.1821 O   0  0  0  0  0  0  0  0  0  0  0  0
  -21.6740   -6.9070   21.4146 O   0  0  0  0  0  0  0  0  0  0  0  0
  -27.6822  -22.2250   27.3472 O   0  0  0  0  0  0  0  0  0  1  0  0
  -20.9495   -5.1419   26.5879 F   0  0  0  0  0  0  0  0  0  0  0  0
  -32.1738  -19.6759   20.0765 F   0  0  0  0  0  0  0  0  0  0  0  0
  -22.5884   -4.4210   22.2062 F   0  0  0  0  0  0  0  0  0  0  0  0
  1  2  1  0  0  0  0
  1  5  2  0  0  0  0
  2  6  2  0  0  0  0
  3  8  2  0  0  0  0
  3 17  1  0  0  0  0
  4  9  1  0  0  0  0
  4 17  2  0  0  0  0
  5 19  1  0  0  0  0
  6 21  1  0  0  0  0
  7 10  2  0  0  0  0
  7 20  1  0  0  0  0
  8 26  1  0  0  0  0
  9 26  2  0  0  0  0
 10 27  1  0  0  0  0
 11 12  2  0  0  0  0
 11 28  1  0  0  0  0
 12 29  1  0  0  0  0
 13 22  1  0  0  0  0
 13 27  2  0  0  0  0
 14 23  1  0  0  0  0
 14 25  2  0  0  0  0
 15 25  1  0  0  0  0
 15 30  2  0  0  0  0
 16 29  2  0  0  0  0
 16 31  1  0  0  0  0
 17 32  1  0  0  0  0
 18 32  1  0  0  0  0
 18 33  2  0  0  0  0
 18 36  1  0  0  0  0
 19 21  2  0  0  0  0
 19 41  1  0  0  0  0
 20 22  2  0  0  0  0
 20 42  1  0  0  0  0
 21 53  1  0  0  0  0
 22 43  1  0  0  0  0
 23 24  2  0  0  0  0
 23 63  1  0  0  0  0
 24 30  1  0  0  0  0
 24 57  1  0  0  0  0
 25 73  1  0  0  0  0
 26 83  1  0  0  0  0
 27 84  1  0  0  0  0
 28 31  2  0  0  0  0
 28 83  1  0  0  0  0
 29 85  1  0  0  0  0
 30 86  1  0  0  0  0
 31 87  1  0  0  0  0
 32 67  2  0  0  0  0
 33 68  1  0  0  0  0
 33 71  1  0  0  0  0
 34 35  2  0  0  0  0
 34 54  1  0  0  0  0
 34 76  1  0  0  0  0
 36 72  1  0  0  0  0
 36 78  2  0  0  0  0
 37 55  1  0  0  0  0
 37 74  1  0  0  0  0
 37 79  2  0  0  0  0
 38 64  1  0  0  0  0
 38 69  1  0  0  0  0
 38 80  2  0  0  0  0
 39 65  1  0  0  0  0
 39 75  1  0  0  0  0
 39 81  2  0  0  0  0
 40 70  1  0  0  0  0
 40 73  1  0  0  0  0
 40 82  2  0  0  0  0
 41 44  1  0  0  0  0
 42 55  1  0  0  0  0
 43 69  1  0  0  0  0
 44 47  1  0  0  0  0
 45 49  1  0  0  0  0
 45 50  1  0  0  0  0
 46 48  1  0  0  0  0
 46 52  1  0  0  0  0
 47 53  1  0  0  0  0
 48 54  1  0  0  0  0
 49 56  1  0  0  0  0
 50 70  1  0  0  0  0
 51 56  1  0  0  0  0
 51 70  1  0  0  0  0
 52 76  1  0  0  0  0
 53 74  1  0  0  0  0
 54 84  1  0  0  0  0
 55 69  1  0  0  0  0
 56 68  1  0  0  0  0
 58 65  1  0  0  0  0
 59 66  1  0  0  0  0
 60 66  1  0  0  0  0
 61 66  1  0  0  0  0
 62 77  1  0  0  0  0
 63 76  1  0  0  0  0
 64 66  1  0  0  0  0
 64 75  1  0  0  0  0
 65 77  1  0  0  0  0
 67 68  1  0  0  0  0
M  CHG  2  76   1  77   1
M  ISO  4  40 100  54 101  73 100  84 101
M  END
> <Batch ID>
0043

> <Smiles>
C=C1N(Cc2cc([100NH:0][100C:0](=O)N3CCCC(n4nc(-c5ccc(Oc6ccc(F)cc6F)cc5)c(C(N)=O)c4N)C3)cc(F)c2C)CCC[101CH:1]1[101O:1]c1ccc2c(c1)CN(C(=O)C(NC(=O)C(C)NC)C(C)(C)C)C(C(=O)NC1CCCc3ccccc31)C2

> <Shape>
0.190

> <Color>
0.175

> <Negative vol penalty>
0.000

$$$$

  -OEChem-04042322153D

 89 98  0     1  0  0  0  0  0999 V2000
  -29.0909  -32.4654   26.0742 C   0  0  0  0  0  0  0  0  0  0  0  0
  -28.9074  -31.2377   25.4462 C   0  0  0  0  0  0  0  0  0  0  0  0
  -24.5378  -10.7047   23.8791 C   0  0  0  0  0  0  0  0  0  0  0  0
  -24.6333   -9.3133   21.9063 C   0  0  0  0  0  0  0  0  0  0  0  0
  -27.9871  -33.2527   26.3994 C   0  0  0  0  0  0  0  0  0  0  0  0
  -27.6198  -30.7961   25.1439 C   0  0  0  0  0  0  0  0  0  0  0  0
  -27.2714  -28.8766   20.4706 C   0  0  0  0  0  0  0  0  0  0  0  0
  -31.8466  -19.4966   20.5592 C   0  0  0  0  0  0  0  0  0  0  0  0
  -31.3466  -18.2625   20.1439 C   0  0  0  0  0  0  0  0  0  0  0  0
  -24.1540   -9.6002   24.6396 C   0  0  0  0  0  0  0  0  0  0  0  0
  -24.2496   -8.2087   22.6668 C   0  0  0  0  0  0  0  0  0  0  0  0
  -27.7531  -27.5828   20.2762 C   0  0  0  0  0  0  0  0  0  0  0  0
  -21.3934   -6.9486   23.9649 C   0  0  0  0  0  0  0  0  0  0  0  0
  -20.4095   -6.1107   23.4402 C   0  0  0  0  0  0  0  0  0  0  0  0
  -25.4988  -26.7323   20.3943 C   0  0  0  0  0  0  0  0  0  0  0  0
  -21.9591   -4.2579   23.4930 C   0  0  0  0  0  0  0  0  0  0  0  0
  -24.7774  -10.5613   22.5124 C   0  0  0  0  0  0  0  0  0  0  0  0
  -24.4510  -12.8953   21.5359 C   0  0  0  0  0  0  0  0  0  0  0  0
  -26.6859  -32.8248   26.0923 C   0  0  0  0  0  0  0  0  0  0  0  0
  -25.8985  -29.1071   20.6396 C   0  0  0  0  0  0  0  0  0  0  0  0
  -26.4974  -31.5777   25.4665 C   0  0  0  0  0  0  0  0  0  0  0  0
  -25.0020  -28.0303   20.5882 C   0  0  0  0  0  0  0  0  0  0  0  0
  -30.9991  -20.4246   21.1644 C   0  0  0  0  0  0  0  0  0  0  0  0
  -29.6515  -20.1184   21.3542 C   0  0  0  0  0  0  0  0  0  0  0  0
  -29.1515  -18.8842   20.9388 C   0  0  0  0  0  0  0  0  0  0  0  0
  -29.9991  -17.9563   20.3336 C   0  0  0  0  0  0  0  0  0  0  0  0
  -24.0100   -8.3522   24.0335 C   0  0  0  0  0  0  0  0  0  0  0  0
  -26.8670  -26.5101   20.2409 C   0  0  0  0  0  0  0  0  0  0  0  0
  -22.6602   -6.4412   24.2537 C   0  0  0  0  0  0  0  0  0  0  0  0
  -20.6923   -4.7654   23.2042 C   0  0  0  0  0  0  0  0  0  0  0  0
  -22.9431   -5.0958   24.0177 C   0  0  0  0  0  0  0  0  0  0  0  0
  -25.1732  -11.7020   21.7261 C   0  0  0  0  0  0  0  0  0  0  0  0
  -25.2502  -13.6532   20.7153 C   0  0  0  0  0  0  0  0  0  0  0  0
  -26.9528  -22.7268   21.7131 C   0  0  0  0  0  0  0  0  0  0  0  0
  -23.8763  -20.7227   21.6568 C   0  0  0  0  0  0  0  0  0  0  0  0
  -25.6748  -22.3614   21.8949 C   0  0  0  0  0  0  0  0  0  0  0  0
  -25.1507  -21.0865   21.4753 C   0  0  0  0  0  0  0  0  0  0  0  0
  -23.1721  -13.2839   22.0545 C   0  0  0  0  0  0  0  0  0  0  0  0
  -24.0935  -30.2937   22.9715 C   0  0  0  0  0  0  0  0  0  0  0  0
  -21.7369  -30.0146   20.7600 C   0  0  0  0  0  0  0  0  0  0  0  0
  -20.7272  -27.5983   18.2782 C   0  0  0  0  0  0  0  0  0  0  0  0
  -30.2375  -15.6765   19.2886 C   0  0  0  0  0  0  0  0  0  0  0  0
  -25.5210  -33.6889   26.5059 C   0  0  0  0  0  0  0  0  0  0  0  0
  -25.3923  -30.5117   20.8217 C   0  0  0  0  0  0  0  0  0  0  0  0
  -23.5169  -28.2267   20.7440 C   0  0  0  0  0  0  0  0  0  0  0  0
  -27.4955  -24.0617   22.1541 C   0  0  0  0  0  0  0  0  0  0  0  0
  -24.2118  -33.3184   25.8137 C   0  0  0  0  0  0  0  0  0  0  0  0
  -29.4136  -12.4174   18.1152 C   0  0  0  0  0  0  0  0  0  0  0  0
  -23.9981  -31.8084   25.8487 C   0  0  0  0  0  0  0  0  0  0  0  0
  -28.1775  -12.0389   18.9344 C   0  0  0  0  0  0  0  0  0  0  0  0
  -29.2205  -23.7794   20.3254 C   0  0  0  0  0  0  0  0  0  0  0  0
  -30.4160  -13.2226   18.9403 C   0  0  0  0  0  0  0  0  0  0  0  0
  -28.6251  -14.0280   20.4278 C   0  0  0  0  0  0  0  0  0  0  0  0
  -28.5287  -22.4902   19.8847 C   0  0  0  0  0  0  0  0  0  0  0  0
  -25.1178  -31.0754   25.1000 C   0  0  1  0  0  0  0  0  0  0  0  0
  -24.0253  -30.5714   21.4964 C   0  0  1  0  0  0  0  0  0  0  0  0
  -27.5572  -13.2717   19.6208 C   0  0  2  0  0  0  0  0  0  0  0  0
  -28.2575  -24.7437   21.0176 C   0  0  1  0  0  0  0  0  0  1  0  0
  -31.5601  -21.7386   21.5999 C   0  0  0  0  0  0  0  0  0  0  0  0
  -27.7051  -18.5577   21.1435 C   0  0  0  0  0  0  0  0  0  0  0  0
  -19.4685  -27.8967   16.1278 C   0  0  0  0  0  0  0  0  0  0  0  0
  -19.2797  -29.3519   22.4431 C   0  0  0  0  0  0  0  0  0  0  0  0
  -18.3848  -28.0525   20.4992 C   0  0  0  0  0  0  0  0  0  0  0  0
  -18.7826  -30.5053   20.2806 C   0  0  0  0  0  0  0  0  0  0  0  0
  -22.8670  -26.2877   16.7089 C   0  0  0  0  0  0  0  0  0  0  0  0
  -28.7424  -21.1185   22.0056 C   0  0  0  0  0  0  0  0  0  0  0  0
  -20.7597  -28.9321   20.3697 C   0  0  1  0  0  0  0  0  0  0  0  0
  -20.8379  -27.7430   16.7711 C   0  0  2  0  0  0  0  0  0  0  0  0
  -19.3272  -29.2042   20.9092 C   0  0  0  0  0  0  0  0  0  0  0  0
  -26.3413  -11.6974   21.0785 N   0  0  0  0  0  0  0  0  0  0  0  0
  -26.3592  -12.8971   20.4731 N   0  0  0  0  0  0  0  0  0  0  0  0
  -23.0714  -29.6181   20.9260 N   0  0  0  0  0  0  0  0  0  0  0  0
  -29.7583  -14.3768   19.5567 N   0  0  0  0  0  0  0  0  0  0  0  0
  -25.1054  -14.8860   20.1845 N   0  0  0  0  0  0  0  0  0  0  0  0
  -22.0265  -12.9749   21.3085 N   0  0  0  0  0  0  0  0  0  0  0  0
  -29.5128  -16.6966   19.9041 N   0  0  0  0  0  0  0  0  0  0  0  0
  -24.9105  -31.1618   23.6703 N   0  0  0  0  0  0  0  0  0  0  0  0
  -20.8391  -28.8148   18.9176 N   0  0  0  0  0  0  0  0  0  0  0  0
  -27.8243  -21.8026   21.0308 N   0  3  1  0  0  0  0  0  0  0  0  0
  -21.5016  -26.5452   16.1831 N   0  3  0  0  0  0  0  0  0  0  0  0
  -23.0500  -13.9018   23.1393 O   0  0  0  0  0  0  0  0  0  0  0  0
  -23.4512  -29.3617   23.4411 O   0  0  0  0  0  0  0  0  0  0  0  0
  -21.3323  -31.1709   20.9050 O   0  0  0  0  0  0  0  0  0  0  0  0
  -20.5548  -26.5150   18.8325 O   0  0  0  0  0  0  0  0  0  0  0  0
  -31.2018  -15.8719   18.5443 O   0  0  0  0  0  0  0  0  0  0  0  0
  -23.6358   -7.2742   24.7753 O   0  0  0  0  0  0  0  0  0  0  0  0
  -27.3346  -25.2461   20.0518 O   0  0  0  0  0  0  0  0  0  1  0  0
  -19.7468   -3.9605   22.7017 F   0  0  0  0  0  0  0  0  0  0  0  0
  -24.1579   -4.6023   24.2942 F   0  0  0  0  0  0  0  0  0  0  0  0
  1  2  1  0  0  0  0
  1  5  2  0  0  0  0
  2  6  2  0  0  0  0
  3 10  2  0  0  0  0
  3 17  1  0  0  0  0
  4 11  1  0  0  0  0
  4 17  2  0  0  0  0
  5 19  1  0  0  0  0
  6 21  1  0  0  0  0
  7 12  2  0  0  0  0
  7 20  1  0  0  0  0
  8  9  1  0  0  0  0
  8 23  2  0  0  0  0
  9 26  2  0  0  0  0
 10 27  1  0  0  0  0
 11 27  2  0  0  0  0
 12 28  1  0  0  0  0
 13 14  2  0  0  0  0
 13 29  1  0  0  0  0
 14 30  1  0  0  0  0
 15 22  1  0  0  0  0
 15 28  2  0  0  0  0
 16 30  2  0  0  0  0
 16 31  1  0  0  0  0
 17 32  1  0  0  0  0
 18 32  1  0  0  0  0
 18 33  2  0  0  0  0
 18 38  1  0  0  0  0
 19 21  2  0  0  0  0
 19 43  1  0  0  0  0
 20 22  2  0  0  0  0
 20 44  1  0  0  0  0
 21 55  1  0  0  0  0
 22 45  1  0  0  0  0
 23 24  1  0  0  0  0
 23 59  1  0  0  0  0
 24 25  2  0  0  0  0
 24 66  1  0  0  0  0
 25 26  1  0  0  0  0
 25 60  1  0  0  0  0
 26 76  1  0  0  0  0
 27 86  1  0  0  0  0
 28 87  1  0  0  0  0
 29 31  2  0  0  0  0
 29 86  1  0  0  0  0
 30 88  1  0  0  0  0
 31 89  1  0  0  0  0
 32 70  2  0  0  0  0
 33 71  1  0  0  0  0
 33 74  1  0  0  0  0
 34 36  2  0  0  0  0
 34 46  1  0  0  0  0
 34 79  1  0  0  0  0
 35 37  2  0  0  0  0
 36 37  1  0  0  0  0
 38 75  1  0  0  0  0
 38 81  2  0  0  0  0
 39 56  1  0  0  0  0
 39 77  1  0  0  0  0
 39 82  2  0  0  0  0
 40 67  1  0  0  0  0
 40 72  1  0  0  0  0
 40 83  2  0  0  0  0
 41 68  1  0  0  0  0
 41 78  1  0  0  0  0
 41 84  2  0  0  0  0
 42 73  1  0  0  0  0
 42 76  1  0  0  0  0
 42 85  2  0  0  0  0
 43 47  1  0  0  0  0
 44 56  1  0  0  0  0
 45 72  1  0  0  0  0
 46 58  1  0  0  0  0
 47 49  1  0  0  0  0
 48 50  1  0  0  0  0
 48 52  1  0  0  0  0
 49 55  1  0  0  0  0
 50 57  1  0  0  0  0
 51 54  1  0  0  0  0
 51 58  1  0  0  0  0
 52 73  1  0  0  0  0
 53 57  1  0  0  0  0
 53 73  1  0  0  0  0
 54 79  1  0  0  0  0
 55 77  1  0  0  0  0
 56 72  1  0  0  0  0
 57 71  1  0  0  0  0
 58 87  1  0  0  0  0
 61 68  1  0  0  0  0
 62 69  1  0  0  0  0
 63 69  1  0  0  0  0
 64 69  1  0  0  0  0
 65 80  1  0  0  0  0
 66 79  1  0  0  0  0
 67 69  1  0  0  0  0
 67 78  1  0  0  0  0
 68 80  1  0  0  0  0
 70 71  1  0  0  0  0
M  CHG  2  79   1  80   1
M  ISO  4  42 100  58 101  76 100  87 101
M  END
> <Batch ID>
0043

> <Smiles>
C=CC=C1C[101CH:1]([101O:1]c2ccc3c(c2)CN(C(=O)C(NC(=O)C(C)NC)C(C)(C)C)C(C(=O)NC2CCCc4ccccc42)C3)CCN1Cc1c(C)ccc([100NH:0][100C:0](=O)N2CCCC(n3nc(-c4ccc(Oc5ccc(F)cc5F)cc4)c(C(N)=O)c3N)C2)c1C

> <Shape>
0.327

> <Color>
0.141

> <Negative vol penalty>
0.000

$$$$

  -OEChem-04042322153D

 89 98  0     1  0  0  0  0  0999 V2000
  -30.2235  -35.0295   18.3597 C   0  0  0  0  0  0  0  0  0  0  0  0
  -30.1190  -33.6781   18.6731 C   0  0  0  0  0  0  0  0  0  0  0  0
  -22.6593  -10.3962   20.7043 C   0  0  0  0  0  0  0  0  0  0  0  0
  -24.4397   -9.1935   21.8092 C   0  0  0  0  0  0  0  0  0  0  0  0
  -29.5181  -35.9733   19.1051 C   0  0  0  0  0  0  0  0  0  0  0  0
  -29.3098  -33.2699   19.7329 C   0  0  0  0  0  0  0  0  0  0  0  0
  -26.4527  -29.2562   18.5614 C   0  0  0  0  0  0  0  0  0  0  0  0
  -28.3263  -19.8201   16.5643 C   0  0  0  0  0  0  0  0  0  0  0  0
  -21.9276   -9.2136   20.5961 C   0  0  0  0  0  0  0  0  0  0  0  0
  -23.7080   -8.0109   21.7010 C   0  0  0  0  0  0  0  0  0  0  0  0
  -27.0751  -28.0086   18.5655 C   0  0  0  0  0  0  0  0  0  0  0  0
  -28.0711  -18.5054   16.9541 C   0  0  0  0  0  0  0  0  0  0  0  0
  -21.1180   -6.5321   23.2902 C   0  0  0  0  0  0  0  0  0  0  0  0
  -21.0494   -5.7091   24.4142 C   0  0  0  0  0  0  0  0  0  0  0  0
  -26.1532  -27.5625   20.7496 C   0  0  0  0  0  0  0  0  0  0  0  0
  -22.0853   -3.9184   23.1662 C   0  0  0  0  0  0  0  0  0  0  0  0
  -23.9154  -10.3862   21.3108 C   0  0  0  0  0  0  0  0  0  0  0  0
  -24.2908  -12.7853   22.0925 C   0  0  0  0  0  0  0  0  0  0  0  0
  -28.6924  -35.5756   20.1684 C   0  0  0  0  0  0  0  0  0  0  0  0
  -25.6835  -29.6715   19.6579 C   0  0  0  0  0  0  0  0  0  0  0  0
  -28.5938  -34.2094   20.4940 C   0  0  0  0  0  0  0  0  0  0  0  0
  -25.5200  -28.8148   20.7559 C   0  0  0  0  0  0  0  0  0  0  0  0
  -28.8148  -20.7403   17.4919 C   0  0  0  0  0  0  0  0  0  0  0  0
  -29.0481  -20.3457   18.8092 C   0  0  0  0  0  0  0  0  0  0  0  0
  -28.7930  -19.0309   19.1991 C   0  0  0  0  0  0  0  0  0  0  0  0
  -22.4519   -8.0210   21.0945 C   0  0  0  0  0  0  0  0  0  0  0  0
  -26.9277  -27.1628   19.6609 C   0  0  0  0  0  0  0  0  0  0  0  0
  -28.3045  -18.1108   18.2715 C   0  0  0  0  0  0  0  0  0  0  0  0
  -21.6701   -6.0483   22.1041 C   0  0  0  0  0  0  0  0  0  0  0  0
  -21.5331   -4.4022   24.3523 C   0  0  0  0  0  0  0  0  0  0  0  0
  -22.1537   -4.7414   22.0421 C   0  0  0  0  0  0  0  0  0  0  0  0
  -24.6719  -11.6073   21.4224 C   0  0  0  0  0  0  0  0  0  0  0  0
  -25.3467  -13.6435   21.9057 C   0  0  0  0  0  0  0  0  0  0  0  0
  -28.3839  -24.1739   18.3045 C   0  0  0  0  0  0  0  0  0  0  0  0
  -23.0896  -13.0775   22.8188 C   0  0  0  0  0  0  0  0  0  0  0  0
  -25.8635  -32.0590   21.7486 C   0  0  0  0  0  0  0  0  0  0  0  0
  -22.9924  -30.9056   22.7226 C   0  0  0  0  0  0  0  0  0  0  0  0
  -21.5094  -27.6647   23.2836 C   0  0  0  0  0  0  0  0  0  0  0  0
  -29.1298  -15.9241   18.4865 C   0  0  0  0  0  0  0  0  0  0  0  0
  -27.9864  -36.6364   20.9753 C   0  0  0  0  0  0  0  0  0  0  0  0
  -24.9968  -31.0093   19.6266 C   0  0  0  0  0  0  0  0  0  0  0  0
  -24.6881  -29.2051   21.9492 C   0  0  0  0  0  0  0  0  0  0  0  0
  -26.8575  -36.0894   21.8451 C   0  0  0  0  0  0  0  0  0  0  0  0
  -25.6399  -23.1104   18.0594 C   0  0  0  0  0  0  0  0  0  0  0  0
  -29.9920  -12.8243   20.1008 C   0  0  0  0  0  0  0  0  0  0  0  0
  -27.3173  -34.8432   22.5951 C   0  0  0  0  0  0  0  0  0  0  0  0
  -26.0240  -24.1594   19.1013 C   0  0  0  0  0  0  0  0  0  0  0  0
  -28.6454  -12.3112   20.6100 C   0  0  0  0  0  0  0  0  0  0  0  0
  -26.7070  -22.9104   16.9869 C   0  0  0  0  0  0  0  0  0  0  0  0
  -29.8434  -13.5647   18.7754 C   0  0  0  0  0  0  0  0  0  0  0  0
  -27.5044  -14.1768   19.3292 C   0  0  0  0  0  0  0  0  0  0  0  0
  -27.7069  -33.7252   21.6205 C   0  0  1  0  0  0  0  0  0  0  0  0
  -27.1770  -25.0405   18.6378 C   0  0  1  0  0  0  0  0  0  1  0  0
  -24.6585  -31.5399   21.0164 C   0  0  1  0  0  0  0  0  0  0  0  0
  -27.6112  -13.4490   20.6803 C   0  0  1  0  0  0  0  0  0  0  0  0
  -29.5728  -21.3340   19.8022 C   0  0  0  0  0  0  0  0  0  0  0  0
  -19.1122  -26.9288   23.1880 C   0  0  0  0  0  0  0  0  0  0  0  0
  -23.0086  -31.4472   25.7253 C   0  0  0  0  0  0  0  0  0  0  0  0
  -21.5660  -29.4234   26.0276 C   0  0  0  0  0  0  0  0  0  0  0  0
  -20.7322  -31.3593   24.6935 C   0  0  0  0  0  0  0  0  0  0  0  0
  -22.1208  -25.5334   21.3233 C   0  0  0  0  0  0  0  0  0  0  0  0
  -29.0810  -22.1489   17.0458 C   0  0  0  0  0  0  0  0  0  0  0  0
  -29.0405  -18.6002   20.6098 C   0  0  0  0  0  0  0  0  0  0  0  0
  -22.5396  -29.8768   23.7304 C   0  0  1  0  0  0  0  0  0  0  0  0
  -20.4357  -26.9987   22.4422 C   0  0  2  0  0  0  0  0  0  0  0  0
  -21.9868  -30.5247   25.0312 C   0  0  0  0  0  0  0  0  0  0  0  0
  -25.8759  -11.7049   20.8524 N   0  0  0  0  0  0  0  0  0  0  0  0
  -26.2604  -12.9544   21.1637 N   0  0  0  0  0  0  0  0  0  0  0  0
  -28.0580  -23.0697   17.5124 N   0  0  0  0  0  0  0  0  0  0  0  0
  -24.0418  -30.5258   21.8739 N   0  0  0  0  0  0  0  0  0  0  0  0
  -28.8280  -14.6128   18.8681 N   0  0  0  0  0  0  0  0  0  0  0  0
  -25.5734  -14.9129   22.3053 N   0  0  0  0  0  0  0  0  0  0  0  0
  -22.1071  -12.0825   22.9132 N   0  0  0  0  0  0  0  0  0  0  0  0
  -26.5239  -33.0801   21.0924 N   0  0  0  0  0  0  0  0  0  0  0  0
  -21.5843  -29.0193   23.0372 N   0  0  0  0  0  0  0  0  0  0  0  0
  -20.8459  -25.6120   22.0818 N   0  3  0  0  0  0  0  0  0  0  0  0
  -29.5154  -24.4523   18.6974 O   0  0  0  0  0  0  0  0  0  0  0  0
  -22.8865  -14.1937   23.3539 O   0  0  0  0  0  0  0  0  0  0  0  0
  -26.1705  -31.5703   22.8297 O   0  0  0  0  0  0  0  0  0  0  0  0
  -22.4306  -32.0032   22.6848 O   0  0  0  0  0  0  0  0  0  0  0  0
  -22.2091  -27.0458   24.0823 O   0  0  0  0  0  0  0  0  0  0  0  0
  -30.2259  -16.2860   18.0605 O   0  0  0  0  0  0  0  0  0  0  0  0
  -21.7381   -6.8669   20.9892 O   0  0  0  0  0  0  0  0  0  0  0  0
  -28.0424  -16.7882   18.6430 O   0  0  0  0  0  0  0  0  0  0  0  0
  -27.5347  -25.9448   19.6677 O   0  0  0  0  0  0  0  0  0  1  0  0
  -21.4687   -3.6125   25.4322 F   0  0  0  0  0  0  0  0  0  0  0  0
  -22.6863   -4.2714   20.9058 F   0  0  0  0  0  0  0  0  0  0  0  0
  -30.3022  -18.1194   20.7499 F   0  0  0  0  0  0  0  0  0  0  0  0
  -28.2000  -17.5925   20.9572 F   0  0  0  0  0  0  0  0  0  0  0  0
  1  2  1  0  0  0  0
  1  5  2  0  0  0  0
  2  6  2  0  0  0  0
  3  9  2  0  0  0  0
  3 17  1  0  0  0  0
  4 10  1  0  0  0  0
  4 17  2  0  0  0  0
  5 19  1  0  0  0  0
  6 21  1  0  0  0  0
  7 11  2  0  0  0  0
  7 20  1  0  0  0  0
  8 12  2  0  0  0  0
  8 23  1  0  0  0  0
  9 26  1  0  0  0  0
 10 26  2  0  0  0  0
 11 27  1  0  0  0  0
 12 28  1  0  0  0  0
 13 14  2  0  0  0  0
 13 29  1  0  0  0  0
 14 30  1  0  0  0  0
 15 22  1  0  0  0  0
 15 27  2  0  0  0  0
 16 30  2  0  0  0  0
 16 31  1  0  0  0  0
 17 32  1  0  0  0  0
 18 32  1  0  0  0  0
 18 33  2  0  0  0  0
 18 35  1  0  0  0  0
 19 21  2  0  0  0  0
 19 40  1  0  0  0  0
 20 22  2  0  0  0  0
 20 41  1  0  0  0  0
 21 52  1  0  0  0  0
 22 42  1  0  0  0  0
 23 24  2  0  0  0  0
 23 62  1  0  0  0  0
 24 25  1  0  0  0  0
 24 56  1  0  0  0  0
 25 28  2  0  0  0  0
 25 63  1  0  0  0  0
 26 83  1  0  0  0  0
 27 85  1  0  0  0  0
 28 84  1  0  0  0  0
 29 31  2  0  0  0  0
 29 83  1  0  0  0  0
 30 86  1  0  0  0  0
 31 87  1  0  0  0  0
 32 67  2  0  0  0  0
 33 68  1  0  0  0  0
 33 72  1  0  0  0  0
 34 53  1  0  0  0  0
 34 69  1  0  0  0  0
 34 77  2  0  0  0  0
 35 73  1  0  0  0  0
 35 78  2  0  0  0  0
 36 54  1  0  0  0  0
 36 74  1  0  0  0  0
 36 79  2  0  0  0  0
 37 64  1  0  0  0  0
 37 70  1  0  0  0  0
 37 80  2  0  0  0  0
 38 65  1  0  0  0  0
 38 75  1  0  0  0  0
 38 81  2  0  0  0  0
 39 71  1  0  0  0  0
 39 82  2  0  0  0  0
 39 84  1  0  0  0  0
 40 43  1  0  0  0  0
 41 54  1  0  0  0  0
 42 70  1  0  0  0  0
 43 46  1  0  0  0  0
 44 47  1  0  0  0  0
 44 49  1  0  0  0  0
 45 48  1  0  0  0  0
 45 50  1  0  0  0  0
 46 52  1  0  0  0  0
 47 53  1  0  0  0  0
 48 55  1  0  0  0  0
 49 69  1  0  0  0  0
 50 71  1  0  0  0  0
 51 55  1  0  0  0  0
 51 71  1  0  0  0  0
 52 74  1  0  0  0  0
 53 85  1  0  0  0  0
 54 70  1  0  0  0  0
 55 68  1  0  0  0  0
 57 65  1  0  0  0  0
 58 66  1  0  0  0  0
 59 66  1  0  0  0  0
 60 66  1  0  0  0  0
 61 76  1  0  0  0  0
 62 69  1  0  0  0  0
 63 88  1  0  0  0  0
 63 89  1  0  0  0  0
 64 66  1  0  0  0  0
 64 75  1  0  0  0  0
 65 76  1  0  0  0  0
 67 68  1  0  0  0  0
M  CHG  1  76   1
M  ISO  4  39 100  53 101  84 100  85 101
M  END
> <Batch ID>
0043

> <Smiles>
CNC(C)C(=O)NC(C(=O)N1Cc2cc([101O:1][101CH:1]3CCCN(Cc4ccc([100O:0][100C:0](=O)N5CCCC(n6nc(-c7ccc(Oc8ccc(F)cc8F)cc7)c(C(N)=O)c6N)C5)c(C(F)F)c4C)C3=O)ccc2CC1C(=O)NC1CCCc2ccccc21)C(C)(C)C

> <Shape>
0.329

> <Color>
0.161

> <Negative vol penalty>
0.000

$$$$

  -OEChem-04042322153D

 83 91  0     1  0  0  0  0  0999 V2000
  -24.6227  -34.3753   13.9085 C   0  0  0  0  0  0  0  0  0  0  0  0
  -25.0740  -33.1242   14.3167 C   0  0  0  0  0  0  0  0  0  0  0  0
  -22.3772  -12.8787   22.5762 C   0  0  0  0  0  0  0  0  0  0  0  0
  -21.9572  -13.8269   20.3941 C   0  0  0  0  0  0  0  0  0  0  0  0
  -24.6839  -35.4574   14.7854 C   0  0  0  0  0  0  0  0  0  0  0  0
  -25.5878  -32.9549   15.6019 C   0  0  0  0  0  0  0  0  0  0  0  0
  -25.0602  -27.9936   19.1534 C   0  0  0  0  0  0  0  0  0  0  0  0
  -28.2337  -20.6104   15.9853 C   0  0  0  0  0  0  0  0  0  0  0  0
  -27.4768  -19.4721   15.7082 C   0  0  0  0  0  0  0  0  0  0  0  0
  -21.0487  -13.1101   22.9325 C   0  0  0  0  0  0  0  0  0  0  0  0
  -20.6286  -14.0582   20.7504 C   0  0  0  0  0  0  0  0  0  0  0  0
  -25.9234  -26.9302   19.4136 C   0  0  0  0  0  0  0  0  0  0  0  0
  -18.0375  -11.6707   22.3907 C   0  0  0  0  0  0  0  0  0  0  0  0
  -17.3528  -10.6447   23.0419 C   0  0  0  0  0  0  0  0  0  0  0  0
  -26.6939  -28.0509   21.4060 C   0  0  0  0  0  0  0  0  0  0  0  0
  -29.1073  -19.5462   17.9706 C   0  0  0  0  0  0  0  0  0  0  0  0
  -16.9902  -12.0924   24.9418 C   0  0  0  0  0  0  0  0  0  0  0  0
  -22.8315  -13.2371   21.3070 C   0  0  0  0  0  0  0  0  0  0  0  0
  -24.7335  -11.8430   20.3340 C   0  0  0  0  0  0  0  0  0  0  0  0
  -25.1898  -35.2991   16.0853 C   0  0  0  0  0  0  0  0  0  0  0  0
  -25.0151  -29.1005   20.0132 C   0  0  0  0  0  0  0  0  0  0  0  0
  -25.6570  -34.0362   16.4966 C   0  0  0  0  0  0  0  0  0  0  0  0
  -25.8274  -29.1259   21.1559 C   0  0  0  0  0  0  0  0  0  0  0  0
  -29.0490  -20.6475   17.1165 C   0  0  0  0  0  0  0  0  0  0  0  0
  -27.5351  -18.3708   16.5622 C   0  0  0  0  0  0  0  0  0  0  0  0
  -28.3504  -18.4078   17.6935 C   0  0  0  0  0  0  0  0  0  0  0  0
  -20.1744  -13.6998   22.0197 C   0  0  0  0  0  0  0  0  0  0  0  0
  -26.7426  -26.9600   20.5384 C   0  0  0  0  0  0  0  0  0  0  0  0
  -18.1985  -12.9076   23.0151 C   0  0  0  0  0  0  0  0  0  0  0  0
  -16.8292  -10.8555   24.3175 C   0  0  0  0  0  0  0  0  0  0  0  0
  -17.6749  -13.1185   24.2906 C   0  0  0  0  0  0  0  0  0  0  0  0
  -24.2039  -12.9989   20.9385 C   0  0  0  0  0  0  0  0  0  0  0  0
  -26.0728  -12.1125   20.1924 C   0  0  0  0  0  0  0  0  0  0  0  0
  -24.0737  -10.6338   19.9361 C   0  0  0  0  0  0  0  0  0  0  0  0
  -25.6219  -32.2055   19.7060 C   0  0  0  0  0  0  0  0  0  0  0  0
  -24.4679  -32.3332   22.7349 C   0  0  0  0  0  0  0  0  0  0  0  0
  -23.8620  -30.7103   25.6753 C   0  0  0  0  0  0  0  0  0  0  0  0
  -29.1888  -17.1903   19.7333 C   0  0  0  0  0  0  0  0  0  0  0  0
  -25.2797  -36.5088   16.9816 C   0  0  0  0  0  0  0  0  0  0  0  0
  -24.0591  -30.2274   19.7330 C   0  0  0  0  0  0  0  0  0  0  0  0
  -25.8021  -30.2818   22.1212 C   0  0  0  0  0  0  0  0  0  0  0  0
  -25.4912  -36.1622   18.4531 C   0  0  0  0  0  0  0  0  0  0  0  0
  -29.6144  -14.6452   22.1865 C   0  0  0  0  0  0  0  0  0  0  0  0
  -26.5854  -35.1098   18.6018 C   0  0  0  0  0  0  0  0  0  0  0  0
  -28.3261  -13.8253   22.0857 C   0  0  0  0  0  0  0  0  0  0  0  0
  -29.3557  -16.1362   21.9774 C   0  0  0  0  0  0  0  0  0  0  0  0
  -27.3395  -15.6536   20.6466 C   0  0  0  0  0  0  0  0  0  0  0  0
  -26.1981  -33.8072   17.8912 C   0  0  1  0  0  0  0  0  0  0  0  0
  -24.4681  -31.5376   20.3990 C   0  0  1  0  0  0  0  0  0  0  0  0
  -27.5592  -14.1384   20.7858 C   0  0  2  0  0  0  0  0  0  0  0  0
  -26.7127  -17.1651   16.2409 C   0  0  0  0  0  0  0  0  0  0  0  0
  -22.9448  -31.0869   27.9806 C   0  0  0  0  0  0  0  0  0  0  0  0
  -27.0417  -33.7708   23.5215 C   0  0  0  0  0  0  0  0  0  0  0  0
  -26.5059  -33.2726   25.9159 C   0  0  0  0  0  0  0  0  0  0  0  0
  -24.9675  -34.6988   24.5660 C   0  0  0  0  0  0  0  0  0  0  0  0
  -21.7113  -28.7178   25.2710 C   0  0  0  0  0  0  0  0  0  0  0  0
  -29.8630  -21.8723   17.4138 C   0  0  0  0  0  0  0  0  0  0  0  0
  -29.4646  -24.6468   20.0223 C   0  0  0  0  0  0  0  0  0  0  0  0
  -30.1195  -23.8712   18.8893 C   0  0  0  0  0  0  0  0  0  0  0  0
  -28.0906  -25.2037   19.6701 C   0  0  0  0  0  0  0  0  0  1  0  0
  -25.0697  -32.2133   24.1142 C   0  0  1  0  0  0  0  0  0  0  0  0
  -22.6284  -30.6520   26.5581 C   0  0  2  0  0  0  0  0  0  0  0  0
  -25.8983  -33.4678   24.5104 C   0  0  0  0  0  0  0  0  0  0  0  0
  -25.1312  -13.9330   21.1653 N   0  0  0  0  0  0  0  0  0  0  0  0
  -26.2570  -13.3645   20.7011 N   0  0  0  0  0  0  0  0  0  0  0  0
  -24.8552  -31.3624   21.8004 N   0  0  0  0  0  0  0  0  0  0  0  0
  -28.6296  -16.3567   20.7248 N   0  0  0  0  0  0  0  0  0  0  0  0
  -27.0992  -11.3982   19.6836 N   0  0  0  0  0  0  0  0  0  0  0  0
  -22.6937  -10.5228   20.1544 N   0  0  0  0  0  0  0  0  0  0  0  0
  -28.4237  -17.2990   18.5726 N   0  0  0  0  0  0  0  0  0  0  0  0
  -25.2476  -33.0606   18.6871 N   0  0  0  0  0  0  0  0  0  0  0  0
  -23.9632  -31.9182   25.0181 N   0  0  0  0  0  0  0  0  0  0  0  0
  -22.0869  -29.2642   26.6004 N   0  3  0  0  0  0  0  0  0  0  0  0
  -29.3048  -22.6876   18.5279 N   0  3  0  0  0  0  0  0  0  0  0  0
  -24.6925   -9.6736   19.4179 O   0  0  0  0  0  0  0  0  0  0  0  0
  -26.7670  -31.9642   20.0698 O   0  0  0  0  0  0  0  0  0  0  0  0
  -23.6776  -33.2502   22.4976 O   0  0  0  0  0  0  0  0  0  0  0  0
  -24.6584  -29.7789   25.5812 O   0  0  0  0  0  0  0  0  0  0  0  0
  -30.2801  -17.7438   19.8907 O   0  0  0  0  0  0  0  0  0  0  0  0
  -18.8778  -13.9255   22.3670 O   0  0  0  0  0  0  0  0  0  0  0  0
  -27.5866  -25.9237   20.7943 O   0  0  0  0  0  0  0  0  0  1  0  0
  -16.1704   -9.8706   24.9421 F   0  0  0  0  0  0  0  0  0  0  0  0
  -17.8254  -14.3050   24.8950 F   0  0  0  0  0  0  0  0  0  0  0  0
  1  2  1  0  0  0  0
  1  5  2  0  0  0  0
  2  6  2  0  0  0  0
  3 10  2  0  0  0  0
  3 18  1  0  0  0  0
  4 11  1  0  0  0  0
  4 18  2  0  0  0  0
  5 20  1  0  0  0  0
  6 22  1  0  0  0  0
  7 12  2  0  0  0  0
  7 21  1  0  0  0  0
  8  9  2  0  0  0  0
  8 24  1  0  0  0  0
  9 25  1  0  0  0  0
 10 27  1  0  0  0  0
 11 27  2  0  0  0  0
 12 28  1  0  0  0  0
 13 14  2  0  0  0  0
 13 29  1  0  0  0  0
 14 30  1  0  0  0  0
 15 23  1  0  0  0  0
 15 28  2  0  0  0  0
 16 24  2  0  0  0  0
 16 26  1  0  0  0  0
 17 30  2  0  0  0  0
 17 31  1  0  0  0  0
 18 32  1  0  0  0  0
 19 32  1  0  0  0  0
 19 33  2  0  0  0  0
 19 34  1  0  0  0  0
 20 22  2  0  0  0  0
 20 39  1  0  0  0  0
 21 23  2  0  0  0  0
 21 40  1  0  0  0  0
 22 48  1  0  0  0  0
 23 41  1  0  0  0  0
 24 57  1  0  0  0  0
 25 26  2  0  0  0  0
 25 51  1  0  0  0  0
 26 70  1  0  0  0  0
 27 80  1  0  0  0  0
 28 81  1  0  0  0  0
 29 31  2  0  0  0  0
 29 80  1  0  0  0  0
 30 82  1  0  0  0  0
 31 83  1  0  0  0  0
 32 64  2  0  0  0  0
 33 65  1  0  0  0  0
 33 68  1  0  0  0  0
 34 69  1  0  0  0  0
 34 75  2  0  0  0  0
 35 49  1  0  0  0  0
 35 71  1  0  0  0  0
 35 76  2  0  0  0  0
 36 61  1  0  0  0  0
 36 66  1  0  0  0  0
 36 77  2  0  0  0  0
 37 62  1  0  0  0  0
 37 72  1  0  0  0  0
 37 78  2  0  0  0  0
 38 67  1  0  0  0  0
 38 70  1  0  0  0  0
 38 79  2  0  0  0  0
 39 42  1  0  0  0  0
 40 49  1  0  0  0  0
 41 66  1  0  0  0  0
 42 44  1  0  0  0  0
 43 45  1  0  0  0  0
 43 46  1  0  0  0  0
 44 48  1  0  0  0  0
 45 50  1  0  0  0  0
 46 67  1  0  0  0  0
 47 50  1  0  0  0  0
 47 67  1  0  0  0  0
 48 71  1  0  0  0  0
 49 66  1  0  0  0  0
 50 65  1  0  0  0  0
 52 62  1  0  0  0  0
 53 63  1  0  0  0  0
 54 63  1  0  0  0  0
 55 63  1  0  0  0  0
 56 73  1  0  0  0  0
 57 74  1  0  0  0  0
 58 59  1  0  0  0  0
 58 60  1  0  0  0  0
 59 74  1  0  0  0  0
 60 81  1  0  0  0  0
 61 63  1  0  0  0  0
 61 72  1  0  0  0  0
 62 73  1  0  0  0  0
 64 65  1  0  0  0  0
M  CHG  2  73   1  74   1
M  ISO  4  38 100  60 101  70 100  81 101
M  END
> <Batch ID>
0043

> <Smiles>
CNC(C)C(=O)NC(C(=O)N1Cc2cc([101O:1][101CH2:1]CCNCc3ccc(C)c([100NH:0][100C:0](=O)N4CCCC(n5nc(-c6ccc(Oc7ccc(F)cc7F)cc6)c(C(N)=O)c5N)C4)c3)ccc2CC1C(=O)NC1CCCc2ccccc21)C(C)(C)C

> <Shape>
0.235

> <Color>
0.080

> <Negative vol penalty>
0.000

$$$$

  -OEChem-04042322153D

 86 94  0     1  0  0  0  0  0999 V2000
  -30.1018  -33.7381   17.5833 C   0  0  0  0  0  0  0  0  0  0  0  0
  -30.4815  -32.7275   18.4606 C   0  0  0  0  0  0  0  0  0  0  0  0
  -32.7242  -17.3451   23.4423 C   0  0  0  0  0  0  0  0  0  0  0  0
  -22.9828   -9.9149   19.9820 C   0  0  0  0  0  0  0  0  0  0  0  0
  -23.7186   -9.9449   22.2830 C   0  0  0  0  0  0  0  0  0  0  0  0
  -28.8228  -33.7336   17.0280 C   0  0  0  0  0  0  0  0  0  0  0  0
  -29.5820  -31.7122   18.7841 C   0  0  0  0  0  0  0  0  0  0  0  0
  -30.9064  -25.8379   19.8995 C   0  0  0  0  0  0  0  0  0  0  0  0
  -31.9584  -18.2522   24.1745 C   0  0  0  0  0  0  0  0  0  0  0  0
  -32.1044  -16.4675   22.5527 C   0  0  0  0  0  0  0  0  0  0  0  0
  -22.2086   -8.7846   20.2442 C   0  0  0  0  0  0  0  0  0  0  0  0
  -22.9445   -8.8146   22.5453 C   0  0  0  0  0  0  0  0  0  0  0  0
  -31.0746  -25.1229   21.0846 C   0  0  0  0  0  0  0  0  0  0  0  0
  -23.1606   -5.4771   22.0502 C   0  0  0  0  0  0  0  0  0  0  0  0
  -23.7436   -4.4504   22.7929 C   0  0  0  0  0  0  0  0  0  0  0  0
  -28.7785  -24.3934   20.9632 C   0  0  0  0  0  0  0  0  0  0  0  0
  -22.0292   -4.6956   24.4775 C   0  0  0  0  0  0  0  0  0  0  0  0
  -23.7378  -10.4950   21.0013 C   0  0  0  0  0  0  0  0  0  0  0  0
  -24.1420  -13.0086   20.8402 C   0  0  0  0  0  0  0  0  0  0  0  0
  -27.9105  -32.7125   17.3374 C   0  0  0  0  0  0  0  0  0  0  0  0
  -29.6678  -25.8448   19.2421 C   0  0  0  0  0  0  0  0  0  0  0  0
  -28.2892  -31.6948   18.2336 C   0  0  0  0  0  0  0  0  0  0  0  0
  -28.5979  -25.1071   19.7686 C   0  0  0  0  0  0  0  0  0  0  0  0
  -30.5727  -18.2817   24.0173 C   0  0  0  0  0  0  0  0  0  0  0  0
  -29.9529  -17.4041   23.1277 C   0  0  0  0  0  0  0  0  0  0  0  0
  -30.7187  -16.4970   22.3954 C   0  0  0  0  0  0  0  0  0  0  0  0
  -22.1894   -8.2345   21.5259 C   0  0  0  0  0  0  0  0  0  0  0  0
  -30.0098  -24.4029   21.6181 C   0  0  0  0  0  0  0  0  0  0  0  0
  -22.0120   -6.1131   22.5212 C   0  0  0  0  0  0  0  0  0  0  0  0
  -23.1779   -4.0596   24.0065 C   0  0  0  0  0  0  0  0  0  0  0  0
  -21.4462   -5.7223   23.7348 C   0  0  0  0  0  0  0  0  0  0  0  0
  -24.5382  -11.6622   20.7309 C   0  0  0  0  0  0  0  0  0  0  0  0
  -25.2557  -13.7250   20.4756 C   0  0  0  0  0  0  0  0  0  0  0  0
  -22.8800  -13.5623   21.2361 C   0  0  0  0  0  0  0  0  0  0  0  0
  -27.5437  -28.0844   18.4830 C   0  0  0  0  0  0  0  0  0  0  0  0
  -26.1012  -25.6353   16.9198 C   0  0  0  0  0  0  0  0  0  0  0  0
  -30.0881  -21.5258   23.8236 C   0  0  0  0  0  0  0  0  0  0  0  0
  -25.6310  -22.2688   16.6160 C   0  0  0  0  0  0  0  0  0  0  0  0
  -30.7435  -14.6420   20.6911 C   0  0  0  0  0  0  0  0  0  0  0  0
  -26.5232  -32.7759   16.7493 C   0  0  0  0  0  0  0  0  0  0  0  0
  -29.5103  -26.5994   17.9505 C   0  0  0  0  0  0  0  0  0  0  0  0
  -27.2536  -25.0656   19.0907 C   0  0  0  0  0  0  0  0  0  0  0  0
  -25.7574  -31.4593   16.8518 C   0  0  0  0  0  0  0  0  0  0  0  0
  -29.5957  -12.2134   18.3541 C   0  0  0  0  0  0  0  0  0  0  0  0
  -25.8867  -30.8744   18.2546 C   0  0  0  0  0  0  0  0  0  0  0  0
  -28.1450  -11.9642   18.7731 C   0  0  0  0  0  0  0  0  0  0  0  0
  -30.5035  -12.4417   19.5614 C   0  0  0  0  0  0  0  0  0  0  0  0
  -28.6003  -13.2365   20.9087 C   0  0  0  0  0  0  0  0  0  0  0  0
  -27.3503  -30.5627   18.5897 C   0  0  1  0  0  0  0  0  0  0  0  0
  -28.0595  -26.9536   17.6386 C   0  0  1  0  0  0  0  0  0  0  0  0
  -27.6359  -13.0655   19.7237 C   0  0  2  0  0  0  0  0  0  0  0  0
  -24.3655  -20.5700   15.2707 C   0  0  0  0  0  0  0  0  0  0  0  0
  -27.7655  -16.4990   23.9372 C   0  0  0  0  0  0  0  0  0  0  0  0
  -23.5542  -26.3219   18.4531 C   0  0  0  0  0  0  0  0  0  0  0  0
  -22.6461  -24.0788   17.8111 C   0  0  0  0  0  0  0  0  0  0  0  0
  -23.1997  -25.7506   16.0443 C   0  0  0  0  0  0  0  0  0  0  0  0
  -28.1264  -21.0141   15.6374 C   0  0  0  0  0  0  0  0  0  0  0  0
  -29.7723  -19.2680   24.8177 C   0  0  0  0  0  0  0  0  0  0  0  0
  -29.3784  -22.5296   22.9404 C   0  0  0  0  0  0  0  0  0  1  0  0
  -25.0733  -24.5917   17.2849 C   0  0  1  0  0  0  0  0  0  0  0  0
  -25.6625  -21.3524   15.4062 C   0  0  2  0  0  0  0  0  0  0  0  0
  -28.4658  -17.4395   22.9623 C   0  0  0  0  0  0  0  0  0  0  0  0
  -23.6430  -25.1879   17.4124 C   0  0  0  0  0  0  0  0  0  0  0  0
  -25.8046  -11.5285   20.3281 N   0  0  0  0  0  0  0  0  0  0  0  0
  -26.2138  -12.8001   20.1811 N   0  0  0  0  0  0  0  0  0  0  0  0
  -27.1476  -25.8246   17.8336 N   0  0  0  0  0  0  0  0  0  0  0  0
  -29.9605  -13.5013   20.4142 N   0  0  0  0  0  0  0  0  0  0  0  0
  -25.4990  -15.0495   20.3812 N   0  0  0  0  0  0  0  0  0  0  0  0
  -21.8429  -12.6839   21.5784 N   0  0  0  0  0  0  0  0  0  0  0  0
  -30.1102  -15.5969   21.4859 N   0  0  0  0  0  0  0  0  0  0  0  0
  -27.7667  -29.3367   17.9432 N   0  0  0  0  0  0  0  0  0  0  0  0
  -29.3276  -20.3827   24.0136 N   0  0  0  0  0  0  0  0  0  0  0  0
  -25.1930  -23.5342   16.2870 N   0  0  0  0  0  0  0  0  0  0  0  0
  -26.7872  -20.3815   15.5209 N   0  3  0  0  0  0  0  0  0  0  0  0
  -22.6731  -14.7991   21.2690 O   0  0  0  0  0  0  0  0  0  0  0  0
  -26.9835  -27.8388   19.5448 O   0  0  0  0  0  0  0  0  0  0  0  0
  -25.9841  -26.2545   15.8593 O   0  0  0  0  0  0  0  0  0  0  0  0
  -31.2015  -21.7299   24.2997 O   0  0  0  0  0  0  0  0  0  0  0  0
  -25.9583  -21.8980   17.7412 O   0  0  0  0  0  0  0  0  0  0  0  0
  -31.8811  -14.7751   20.2329 O   0  0  0  0  0  0  0  0  0  0  0  0
  -21.4339   -7.1318   21.7823 O   0  0  0  0  0  0  0  0  0  0  0  0
  -30.1710  -23.7047   22.7750 O   0  0  0  0  0  0  0  0  0  1  0  0
  -23.7369   -3.0726   24.7189 F   0  0  0  0  0  0  0  0  0  0  0  0
  -20.3421   -6.3288   24.1918 F   0  0  0  0  0  0  0  0  0  0  0  0
  -28.0632  -17.0889   21.7010 F   0  0  0  0  0  0  0  0  0  0  0  0
  -27.9395  -18.6893   23.1559 F   0  0  0  0  0  0  0  0  0  0  0  0
  1  2  1  0  0  0  0
  1  6  2  0  0  0  0
  2  7  2  0  0  0  0
  3  9  2  0  0  0  0
  3 10  1  0  0  0  0
  4 11  2  0  0  0  0
  4 18  1  0  0  0  0
  5 12  1  0  0  0  0
  5 18  2  0  0  0  0
  6 20  1  0  0  0  0
  7 22  1  0  0  0  0
  8 13  2  0  0  0  0
  8 21  1  0  0  0  0
  9 24  1  0  0  0  0
 10 26  2  0  0  0  0
 11 27  1  0  0  0  0
 12 27  2  0  0  0  0
 13 28  1  0  0  0  0
 14 15  2  0  0  0  0
 14 29  1  0  0  0  0
 15 30  1  0  0  0  0
 16 23  1  0  0  0  0
 16 28  2  0  0  0  0
 17 30  2  0  0  0  0
 17 31  1  0  0  0  0
 18 32  1  0  0  0  0
 19 32  1  0  0  0  0
 19 33  2  0  0  0  0
 19 34  1  0  0  0  0
 20 22  2  0  0  0  0
 20 40  1  0  0  0  0
 21 23  2  0  0  0  0
 21 41  1  0  0  0  0
 22 49  1  0  0  0  0
 23 42  1  0  0  0  0
 24 25  2  0  0  0  0
 24 58  1  0  0  0  0
 25 26  1  0  0  0  0
 25 62  1  0  0  0  0
 26 70  1  0  0  0  0
 27 81  1  0  0  0  0
 28 82  1  0  0  0  0
 29 31  2  0  0  0  0
 29 81  1  0  0  0  0
 30 83  1  0  0  0  0
 31 84  1  0  0  0  0
 32 64  2  0  0  0  0
 33 65  1  0  0  0  0
 33 68  1  0  0  0  0
 34 69  1  0  0  0  0
 34 75  2  0  0  0  0
 35 50  1  0  0  0  0
 35 71  1  0  0  0  0
 35 76  2  0  0  0  0
 36 60  1  0  0  0  0
 36 66  1  0  0  0  0
 36 77  2  0  0  0  0
 37 59  1  0  0  0  0
 37 72  1  0  0  0  0
 37 78  2  0  0  0  0
 38 61  1  0  0  0  0
 38 73  1  0  0  0  0
 38 79  2  0  0  0  0
 39 67  1  0  0  0  0
 39 70  1  0  0  0  0
 39 80  2  0  0  0  0
 40 43  1  0  0  0  0
 41 50  1  0  0  0  0
 42 66  1  0  0  0  0
 43 45  1  0  0  0  0
 44 46  1  0  0  0  0
 44 47  1  0  0  0  0
 45 49  1  0  0  0  0
 46 51  1  0  0  0  0
 47 67  1  0  0  0  0
 48 51  1  0  0  0  0
 48 67  1  0  0  0  0
 49 71  1  0  0  0  0
 50 66  1  0  0  0  0
 51 65  1  0  0  0  0
 52 61  1  0  0  0  0
 53 62  1  0  0  0  0
 54 63  1  0  0  0  0
 55 63  1  0  0  0  0
 56 63  1  0  0  0  0
 57 74  1  0  0  0  0
 58 72  1  0  0  0  0
 59 82  1  0  0  0  0
 60 63  1  0  0  0  0
 60 73  1  0  0  0  0
 61 74  1  0  0  0  0
 62 85  1  0  0  0  0
 62 86  1  0  0  0  0
 64 65  1  0  0  0  0
M  CHG  1  74   1
M  ISO  4  39 100  59 101  70 100  82 101
M  END
> <Batch ID>
0043

> <Smiles>
CNC(C)C(=O)NC(C(=O)N1Cc2cc([101O:1][101CH2:1]C(=O)NCc3cccc([100NH:0][100C:0](=O)N4CCCC(n5nc(-c6ccc(Oc7ccc(F)cc7F)cc6)c(C(N)=O)c5N)C4)c3C(C)(F)F)ccc2CC1C(=O)NC1CCCc2ccccc21)C(C)(C)C

> <Shape>
0.224

> <Color>
0.198

> <Negative vol penalty>
0.000

$$$$

  -OEChem-04042322153D

 91100  0     1  0  0  0  0  0999 V2000
  -29.8597  -33.3015   17.9273 C   0  0  0  0  0  0  0  0  0  0  0  0
  -28.7294  -32.6692   18.4352 C   0  0  0  0  0  0  0  0  0  0  0  0
  -24.6077  -12.1737   22.2639 C   0  0  0  0  0  0  0  0  0  0  0  0
  -26.0916  -11.2819   20.5787 C   0  0  0  0  0  0  0  0  0  0  0  0
  -31.0225  -32.5678   17.6954 C   0  0  0  0  0  0  0  0  0  0  0  0
  -28.7608  -31.3026   18.7105 C   0  0  0  0  0  0  0  0  0  0  0  0
  -26.6627  -30.1723   23.1788 C   0  0  0  0  0  0  0  0  0  0  0  0
  -27.5015  -22.6418   19.7410 C   0  0  0  0  0  0  0  0  0  0  0  0
  -24.5665  -10.9267   22.8875 C   0  0  0  0  0  0  0  0  0  0  0  0
  -26.0504  -10.0349   21.2023 C   0  0  0  0  0  0  0  0  0  0  0  0
  -25.2701  -30.1453   23.2397 C   0  0  0  0  0  0  0  0  0  0  0  0
  -22.9998   -7.9662   22.4344 C   0  0  0  0  0  0  0  0  0  0  0  0
  -27.0678  -23.9651   19.6617 C   0  0  0  0  0  0  0  0  0  0  0  0
  -21.7550   -7.4876   22.8431 C   0  0  0  0  0  0  0  0  0  0  0  0
  -25.3154  -27.7394   23.0699 C   0  0  0  0  0  0  0  0  0  0  0  0
  -22.5366   -7.4057   25.1277 C   0  0  0  0  0  0  0  0  0  0  0  0
  -25.3702  -12.3513   21.1094 C   0  0  0  0  0  0  0  0  0  0  0  0
  -24.8267  -23.2647   20.2310 C   0  0  0  0  0  0  0  0  0  0  0  0
  -24.3268  -14.3588   19.9309 C   0  0  0  0  0  0  0  0  0  0  0  0
  -31.0711  -31.1934   17.9771 C   0  0  0  0  0  0  0  0  0  0  0  0
  -27.3929  -28.9819   23.0518 C   0  0  0  0  0  0  0  0  0  0  0  0
  -29.9248  -30.5496   18.4809 C   0  0  0  0  0  0  0  0  0  0  0  0
  -26.7173  -27.7538   23.0102 C   0  0  0  0  0  0  0  0  0  0  0  0
  -25.2604  -21.9414   20.3103 C   0  0  0  0  0  0  0  0  0  0  0  0
  -26.5978  -21.6299   20.0653 C   0  0  0  0  0  0  0  0  0  0  0  0
  -25.2879   -9.8573   22.3568 C   0  0  0  0  0  0  0  0  0  0  0  0
  -24.5961  -28.9289   23.1823 C   0  0  0  0  0  0  0  0  0  0  0  0
  -24.0131   -8.1645   23.3724 C   0  0  0  0  0  0  0  0  0  0  0  0
  -21.5234   -7.2074   24.1897 C   0  0  0  0  0  0  0  0  0  0  0  0
  -25.7304  -24.2766   19.9067 C   0  0  0  0  0  0  0  0  0  0  0  0
  -23.7814   -7.8843   24.7190 C   0  0  0  0  0  0  0  0  0  0  0  0
  -25.4127  -13.6390   20.4644 C   0  0  0  0  0  0  0  0  0  0  0  0
  -24.8883  -15.5104   19.4358 C   0  0  0  0  0  0  0  0  0  0  0  0
  -23.4213  -23.6236   20.4844 C   0  0  0  0  0  0  0  0  0  0  0  0
  -22.9986  -24.4756   21.4313 C   0  0  0  0  0  0  0  0  0  0  0  0
  -22.9351  -14.0171   19.8868 C   0  0  0  0  0  0  0  0  0  0  0  0
  -29.3730  -27.7867   20.8714 C   0  0  0  0  0  0  0  0  0  0  0  0
  -29.7621  -25.4402   23.0771 C   0  0  0  0  0  0  0  0  0  0  0  0
  -27.6546  -23.5635   25.3251 C   0  0  0  0  0  0  0  0  0  0  0  0
  -28.3606  -19.8359   19.9220 C   0  0  0  0  0  0  0  0  0  0  0  0
  -32.3357  -30.4329   17.6655 C   0  0  0  0  0  0  0  0  0  0  0  0
  -28.8959  -29.0261   23.0143 C   0  0  0  0  0  0  0  0  0  0  0  0
  -27.4556  -26.4462   22.8945 C   0  0  0  0  0  0  0  0  0  0  0  0
  -32.4036  -29.0632   18.3361 C   0  0  0  0  0  0  0  0  0  0  0  0
  -20.7396  -28.9524   20.3822 C   0  0  0  0  0  0  0  0  0  0  0  0
  -29.7400  -16.7741   18.7391 C   0  0  0  0  0  0  0  0  0  0  0  0
  -31.0862  -28.3153   18.1571 C   0  0  0  0  0  0  0  0  0  0  0  0
  -28.6479  -15.7447   19.0386 C   0  0  0  0  0  0  0  0  0  0  0  0
  -21.6790  -29.4163   21.4931 C   0  0  0  0  0  0  0  0  0  0  0  0
  -19.5853  -28.1030   20.9116 C   0  0  0  0  0  0  0  0  0  0  0  0
  -29.8334  -17.8365   19.8329 C   0  0  0  0  0  0  0  0  0  0  0  0
  -27.4762  -17.4799   20.4539 C   0  0  0  0  0  0  0  0  0  0  0  0
  -21.7930  -27.1070   22.6341 C   0  0  0  0  0  0  0  0  0  0  0  0
  -29.9274  -29.0737   18.8155 C   0  0  1  0  0  0  0  0  0  0  0  0
  -29.5141  -27.7905   22.3673 C   0  0  1  0  0  0  0  0  0  0  0  0
  -27.3006  -16.4264   19.3481 C   0  0  2  0  0  0  0  0  0  0  0  0
  -22.5491  -28.3296   22.1235 C   0  0  2  0  0  0  0  0  0  1  0  0
  -19.8563  -26.5950   21.0272 C   0  0  2  0  0  0  0  0  0  0  0  0
  -24.2958  -20.8487   20.6580 C   0  0  0  0  0  0  0  0  0  0  0  0
  -17.4327  -26.1383   21.4352 C   0  0  0  0  0  0  0  0  0  0  0  0
  -28.1841  -22.4509   27.5112 C   0  0  0  0  0  0  0  0  0  0  0  0
  -30.2051  -22.9496   21.3709 C   0  0  0  0  0  0  0  0  0  0  0  0
  -29.1417  -21.5987   23.1910 C   0  0  0  0  0  0  0  0  0  0  0  0
  -31.2478  -22.8572   23.6422 C   0  0  0  0  0  0  0  0  0  0  0  0
  -25.5104  -25.0426   26.7300 C   0  0  0  0  0  0  0  0  0  0  0  0
  -21.5584  -24.8199   21.6419 C   0  0  0  0  0  0  0  0  0  0  0  0
  -18.8225  -25.9327   21.9395 C   0  0  0  0  0  0  0  0  0  0  0  0
  -29.0783  -24.1273   23.3733 C   0  0  1  0  0  0  0  0  0  0  0  0
  -27.6040  -23.6847   26.8375 C   0  0  2  0  0  0  0  0  0  0  0  0
  -29.9042  -22.9049   22.8824 C   0  0  0  0  0  0  0  0  0  0  0  0
  -26.5760  -14.2796   20.3216 N   0  0  0  0  0  0  0  0  0  0  0  0
  -26.2243  -15.4140   19.6926 N   0  0  0  0  0  0  0  0  0  0  0  0
  -28.9242  -26.5422   22.8551 N   0  0  0  0  0  0  0  0  0  0  0  0
  -28.5209  -18.4418   20.0688 N   0  0  0  0  0  0  0  0  0  0  0  0
  -24.3646  -16.5859   18.8102 N   0  0  0  0  0  0  0  0  0  0  0  0
  -22.4563  -13.3069   18.7774 N   0  0  0  0  0  0  0  0  0  0  0  0
  -27.0613  -20.2930   20.1400 N   0  0  0  0  0  0  0  0  0  0  0  0
  -29.9462  -28.8794   20.2495 N   0  0  0  0  0  0  0  0  0  0  0  0
  -28.8018  -24.1252   24.8058 N   0  0  0  0  0  0  0  0  0  0  0  0
  -21.2781  -26.2934   21.4686 N   0  3  2  0  0  0  0  0  0  0  0  0
  -26.1964  -23.8530   27.2969 N   0  3  0  0  0  0  0  0  0  0  0  0
  -22.1364  -14.3464   20.7963 O   0  0  0  0  0  0  0  0  0  0  0  0
  -28.7889  -26.8601   20.3220 O   0  0  0  0  0  0  0  0  0  0  0  0
  -30.9945  -25.4877   23.0509 O   0  0  0  0  0  0  0  0  0  0  0  0
  -26.7671  -23.0212   24.6703 O   0  0  0  0  0  0  0  0  0  0  0  0
  -29.3003  -20.5667   19.5982 O   0  0  0  0  0  0  0  0  0  0  0  0
  -25.2481   -8.6404   22.9652 O   0  0  0  0  0  0  0  0  0  0  0  0
  -23.2369  -28.8997   23.2409 O   0  0  0  0  0  0  0  0  0  1  0  0
  -20.3275   -6.7493   24.5822 F   0  0  0  0  0  0  0  0  0  0  0  0
  -25.3307  -25.5544   19.8259 F   0  0  0  0  0  0  0  0  0  0  0  0
  -24.7505   -8.0740   25.6249 F   0  0  0  0  0  0  0  0  0  0  0  0
  1  2  1  0  0  0  0
  1  5  2  0  0  0  0
  2  6  2  0  0  0  0
  3  9  2  0  0  0  0
  3 17  1  0  0  0  0
  4 10  1  0  0  0  0
  4 17  2  0  0  0  0
  5 20  1  0  0  0  0
  6 22  1  0  0  0  0
  7 11  2  0  0  0  0
  7 21  1  0  0  0  0
  8 13  1  0  0  0  0
  8 25  2  0  0  0  0
  9 26  1  0  0  0  0
 10 26  2  0  0  0  0
 11 27  1  0  0  0  0
 12 14  2  0  0  0  0
 12 28  1  0  0  0  0
 13 30  2  0  0  0  0
 14 29  1  0  0  0  0
 15 23  1  0  0  0  0
 15 27  2  0  0  0  0
 16 29  2  0  0  0  0
 16 31  1  0  0  0  0
 17 32  1  0  0  0  0
 18 24  2  0  0  0  0
 18 30  1  0  0  0  0
 18 34  1  0  0  0  0
 19 32  1  0  0  0  0
 19 33  2  0  0  0  0
 19 36  1  0  0  0  0
 20 22  2  0  0  0  0
 20 41  1  0  0  0  0
 21 23  2  0  0  0  0
 21 42  1  0  0  0  0
 22 54  1  0  0  0  0
 23 43  1  0  0  0  0
 24 25  1  0  0  0  0
 24 59  1  0  0  0  0
 25 77  1  0  0  0  0
 26 87  1  0  0  0  0
 27 88  1  0  0  0  0
 28 31  2  0  0  0  0
 28 87  1  0  0  0  0
 29 89  1  0  0  0  0
 30 90  1  0  0  0  0
 31 91  1  0  0  0  0
 32 71  2  0  0  0  0
 33 72  1  0  0  0  0
 33 75  1  0  0  0  0
 34 35  2  0  0  0  0
 35 66  1  0  0  0  0
 36 76  1  0  0  0  0
 36 82  2  0  0  0  0
 37 55  1  0  0  0  0
 37 78  1  0  0  0  0
 37 83  2  0  0  0  0
 38 68  1  0  0  0  0
 38 73  1  0  0  0  0
 38 84  2  0  0  0  0
 39 69  1  0  0  0  0
 39 79  1  0  0  0  0
 39 85  2  0  0  0  0
 40 74  1  0  0  0  0
 40 77  1  0  0  0  0
 40 86  2  0  0  0  0
 41 44  1  0  0  0  0
 42 55  1  0  0  0  0
 43 73  1  0  0  0  0
 44 47  1  0  0  0  0
 45 49  1  0  0  0  0
 45 50  1  0  0  0  0
 46 48  1  0  0  0  0
 46 51  1  0  0  0  0
 47 54  1  0  0  0  0
 48 56  1  0  0  0  0
 49 57  1  0  0  0  0
 50 58  1  0  0  0  0
 51 74  1  0  0  0  0
 52 56  1  0  0  0  0
 52 74  1  0  0  0  0
 53 57  1  0  0  0  0
 53 80  1  0  0  0  0
 54 78  1  0  0  0  0
 55 73  1  0  0  0  0
 56 72  1  0  0  0  0
 57 88  1  0  0  0  0
 58 67  1  0  0  0  0
 58 80  1  0  0  0  0
 60 67  1  0  0  0  0
 61 69  1  0  0  0  0
 62 70  1  0  0  0  0
 63 70  1  0  0  0  0
 64 70  1  0  0  0  0
 65 81  1  0  0  0  0
 66 80  1  0  0  0  0
 68 70  1  0  0  0  0
 68 79  1  0  0  0  0
 69 81  1  0  0  0  0
 71 72  1  0  0  0  0
M  CHG  2  80   1  81   1
M  ISO  4  40 100  57 101  77 100  88 101
M  END
> <Batch ID>
0043

> <Smiles>
CCC1CCC[101CH:1]([101O:1]c2ccc3c(c2)CN(C(=O)C(NC(=O)C(C)NC)C(C)(C)C)C(C(=O)NC2CCCc4ccccc42)C3)CN1CC=Cc1c(F)ccc([100NH:0][100C:0](=O)N2CCCC(n3nc(-c4ccc(Oc5ccc(F)cc5F)cc4)c(C(N)=O)c3N)C2)c1C

> <Shape>
0.207

> <Color>
0.067

> <Negative vol penalty>
0.000

$$$$

  -OEChem-04042322153D

 91 99  0     1  0  0  0  0  0999 V2000
  -18.6877  -21.7584   17.6189 C   0  0  0  0  0  0  0  0  0  0  0  0
  -20.0482  -22.0471   17.6535 C   0  0  0  0  0  0  0  0  0  0  0  0
  -23.0253   -9.8816   19.9808 C   0  0  0  0  0  0  0  0  0  0  0  0
  -23.7453   -9.9495   22.2860 C   0  0  0  0  0  0  0  0  0  0  0  0
  -18.1194  -21.2211   16.4646 C   0  0  0  0  0  0  0  0  0  0  0  0
  -20.8414  -21.7976   16.5341 C   0  0  0  0  0  0  0  0  0  0  0  0
  -23.9926  -25.6231   15.4946 C   0  0  0  0  0  0  0  0  0  0  0  0
  -22.2686   -8.7414   20.2507 C   0  0  0  0  0  0  0  0  0  0  0  0
  -22.9885   -8.8093   22.5559 C   0  0  0  0  0  0  0  0  0  0  0  0
  -25.1421  -25.7314   16.2761 C   0  0  0  0  0  0  0  0  0  0  0  0
  -23.2643   -5.4706   22.0995 C   0  0  0  0  0  0  0  0  0  0  0  0
  -23.8595   -4.4622   22.8574 C   0  0  0  0  0  0  0  0  0  0  0  0
  -26.4259  -24.6851   14.5222 C   0  0  0  0  0  0  0  0  0  0  0  0
  -31.1459  -17.6704   20.5537 C   0  0  0  0  0  0  0  0  0  0  0  0
  -29.4857  -17.9223   22.2907 C   0  0  0  0  0  0  0  0  0  0  0  0
  -22.1301   -4.6969   24.5280 C   0  0  0  0  0  0  0  0  0  0  0  0
  -23.7637  -10.4857   20.9984 C   0  0  0  0  0  0  0  0  0  0  0  0
  -24.1264  -13.0039   20.8119 C   0  0  0  0  0  0  0  0  0  0  0  0
  -18.9043  -20.9739   15.3272 C   0  0  0  0  0  0  0  0  0  0  0  0
  -24.0492  -25.0340   14.2233 C   0  0  0  0  0  0  0  0  0  0  0  0
  -20.2834  -21.2553   15.3640 C   0  0  0  0  0  0  0  0  0  0  0  0
  -25.2762  -24.5728   13.7255 C   0  0  0  0  0  0  0  0  0  0  0  0
  -31.3243  -19.0535   20.5235 C   0  0  0  0  0  0  0  0  0  0  0  0
  -30.5833  -19.8710   21.3769 C   0  0  0  0  0  0  0  0  0  0  0  0
  -30.2266  -17.1048   21.4373 C   0  0  0  0  0  0  0  0  0  0  0  0
  -22.2502   -8.2052   21.5382 C   0  0  0  0  0  0  0  0  0  0  0  0
  -26.3584  -25.2598   15.7911 C   0  0  0  0  0  0  0  0  0  0  0  0
  -22.1019   -6.0922   22.5559 C   0  0  0  0  0  0  0  0  0  0  0  0
  -23.2924   -4.0753   24.0716 C   0  0  0  0  0  0  0  0  0  0  0  0
  -21.5348   -5.7053   23.7701 C   0  0  0  0  0  0  0  0  0  0  0  0
  -29.6640  -19.3054   22.2605 C   0  0  0  0  0  0  0  0  0  0  0  0
  -24.5460  -11.6632   20.7201 C   0  0  0  0  0  0  0  0  0  0  0  0
  -25.2303  -13.7349   20.4465 C   0  0  0  0  0  0  0  0  0  0  0  0
  -31.8051  -22.7592   15.8158 C   0  0  0  0  0  0  0  0  0  0  0  0
  -31.4039  -21.7582   16.6053 C   0  0  0  0  0  0  0  0  0  0  0  0
  -28.5916  -23.6698   19.3319 C   0  0  0  0  0  0  0  0  0  0  0  0
  -28.5624  -24.7826   18.5859 C   0  0  0  0  0  0  0  0  0  0  0  0
  -22.8527  -13.5404   21.1934 C   0  0  0  0  0  0  0  0  0  0  0  0
  -32.2618  -21.2950   17.7284 C   0  0  0  0  0  0  0  0  0  0  0  0
  -29.8731  -23.1923   19.9207 C   0  0  0  0  0  0  0  0  0  0  0  0
  -22.7215  -22.4811   12.8729 C   0  0  0  0  0  0  0  0  0  0  0  0
  -24.1329  -23.6470   10.1951 C   0  0  0  0  0  0  0  0  0  0  0  0
  -26.5991  -25.5636    8.8198 C   0  0  0  0  0  0  0  0  0  0  0  0
  -30.7003  -14.7470   20.6871 C   0  0  0  0  0  0  0  0  0  0  0  0
  -18.2543  -20.3482   14.1187 C   0  0  0  0  0  0  0  0  0  0  0  0
  -22.8053  -24.9489   13.3819 C   0  0  0  0  0  0  0  0  0  0  0  0
  -25.3941  -23.9506   12.3590 C   0  0  0  0  0  0  0  0  0  0  0  0
  -19.0927  -20.4630   12.8482 C   0  0  0  0  0  0  0  0  0  0  0  0
  -29.6092  -12.2736   18.3700 C   0  0  0  0  0  0  0  0  0  0  0  0
  -20.5422  -20.0796   13.1287 C   0  0  0  0  0  0  0  0  0  0  0  0
  -28.1602  -12.0046   18.7824 C   0  0  0  0  0  0  0  0  0  0  0  0
  -30.5050  -12.5307   19.5805 C   0  0  0  0  0  0  0  0  0  0  0  0
  -28.5798  -13.3080   20.9066 C   0  0  0  0  0  0  0  0  0  0  0  0
  -21.1721  -21.0219   14.1616 C   0  0  1  0  0  0  0  0  0  0  0  0
  -22.8816  -23.8653   12.3107 C   0  0  1  0  0  0  0  0  0  0  0  0
  -27.6263  -13.1076   19.7173 C   0  0  2  0  0  0  0  0  0  0  0  0
  -27.5218  -26.2936    6.6032 C   0  0  0  0  0  0  0  0  0  0  0  0
  -25.4202  -20.9048    9.8306 C   0  0  0  0  0  0  0  0  0  0  0  0
  -27.0215  -21.9487    8.2136 C   0  0  0  0  0  0  0  0  0  0  0  0
  -24.5761  -21.9497    7.7210 C   0  0  0  0  0  0  0  0  0  0  0  0
  -26.0678  -28.4153    9.4069 C   0  0  0  0  0  0  0  0  0  0  0  0
  -32.3146  -19.6329   19.5668 C   0  0  0  0  0  0  0  0  0  0  0  0
  -30.7864  -21.3579   21.3310 C   0  0  0  0  0  0  0  0  0  0  0  0
  -27.3129  -25.3229   17.9685 C   0  0  0  0  0  0  0  0  0  1  0  0
  -25.4766  -23.4686    9.5305 C   0  0  1  0  0  0  0  0  0  0  0  0
  -26.5631  -26.6259    7.7360 C   0  0  2  0  0  0  0  0  0  0  0  0
  -25.6213  -22.0778    8.8505 C   0  0  0  0  0  0  0  0  0  0  0  0
  -25.8172  -11.5465   20.3271 N   0  0  0  0  0  0  0  0  0  0  0  0
  -26.2059  -12.8232   20.1685 N   0  0  0  0  0  0  0  0  0  0  0  0
  -24.1486  -23.8842   11.5768 N   0  0  0  0  0  0  0  0  0  0  0  0
  -29.9385  -13.5903   20.4179 N   0  0  0  0  0  0  0  0  0  0  0  0
  -25.4519  -15.0622   20.3389 N   0  0  0  0  0  0  0  0  0  0  0  0
  -21.8283  -12.6484   21.5388 N   0  0  0  0  0  0  0  0  0  0  0  0
  -30.0457  -15.6998   21.4671 N   0  0  0  0  0  0  0  0  0  0  0  0
  -31.6793  -20.2514   18.4322 N   0  0  0  0  0  0  0  0  0  0  0  0
  -29.7001  -22.0317   20.6556 N   0  0  0  0  0  0  0  0  0  0  0  0
  -21.5307  -22.2809   13.5447 N   0  0  0  0  0  0  0  0  0  0  0  0
  -25.6352  -24.5979    8.6207 N   0  0  0  0  0  0  0  0  0  0  0  0
  -26.9423  -27.9529    8.2986 N   0  3  0  0  0  0  0  0  0  0  0  0
  -22.6247  -14.7738   21.2112 O   0  0  0  0  0  0  0  0  0  0  0  0
  -33.3515  -21.8002   17.9786 O   0  0  0  0  0  0  0  0  0  0  0  0
  -30.9357  -23.7813   19.7520 O   0  0  0  0  0  0  0  0  0  0  0  0
  -23.6119  -21.6554   12.7081 O   0  0  0  0  0  0  0  0  0  0  0  0
  -23.1075  -23.5856    9.5121 O   0  0  0  0  0  0  0  0  0  0  0  0
  -27.4044  -25.5860    9.7480 O   0  0  0  0  0  0  0  0  0  0  0  0
  -31.8385  -14.8943   20.2348 O   0  0  0  0  0  0  0  0  0  0  0  0
  -21.5117   -7.0927   21.8020 O   0  0  0  0  0  0  0  0  0  0  0  0
  -27.4818  -25.3637   16.5521 O   0  0  0  0  0  0  0  0  0  1  0  0
  -23.8633   -3.1058   24.7985 F   0  0  0  0  0  0  0  0  0  0  0  0
  -20.4176   -6.2980   24.2132 F   0  0  0  0  0  0  0  0  0  0  0  0
  -28.7294  -20.2822   23.3346 Cl  0  0  0  0  0  0  0  0  0  0  0  0
  1  2  1  0  0  0  0
  1  5  2  0  0  0  0
  2  6  2  0  0  0  0
  3  8  2  0  0  0  0
  3 17  1  0  0  0  0
  4  9  1  0  0  0  0
  4 17  2  0  0  0  0
  5 19  1  0  0  0  0
  6 21  1  0  0  0  0
  7 10  2  0  0  0  0
  7 20  1  0  0  0  0
  8 26  1  0  0  0  0
  9 26  2  0  0  0  0
 10 27  1  0  0  0  0
 11 12  2  0  0  0  0
 11 28  1  0  0  0  0
 12 29  1  0  0  0  0
 13 22  1  0  0  0  0
 13 27  2  0  0  0  0
 14 23  1  0  0  0  0
 14 25  2  0  0  0  0
 15 25  1  0  0  0  0
 15 31  2  0  0  0  0
 16 29  2  0  0  0  0
 16 30  1  0  0  0  0
 17 32  1  0  0  0  0
 18 32  1  0  0  0  0
 18 33  2  0  0  0  0
 18 38  1  0  0  0  0
 19 21  2  0  0  0  0
 19 45  1  0  0  0  0
 20 22  2  0  0  0  0
 20 46  1  0  0  0  0
 21 54  1  0  0  0  0
 22 47  1  0  0  0  0
 23 24  2  0  0  0  0
 23 62  1  0  0  0  0
 24 31  1  0  0  0  0
 24 63  1  0  0  0  0
 25 74  1  0  0  0  0
 26 87  1  0  0  0  0
 27 88  1  0  0  0  0
 28 30  2  0  0  0  0
 28 87  1  0  0  0  0
 29 89  1  0  0  0  0
 30 90  1  0  0  0  0
 31 91  1  0  0  0  0
 32 68  2  0  0  0  0
 33 69  1  0  0  0  0
 33 72  1  0  0  0  0
 34 35  2  0  0  0  0
 35 39  1  0  0  0  0
 36 37  2  0  0  0  0
 36 40  1  0  0  0  0
 37 64  1  0  0  0  0
 38 73  1  0  0  0  0
 38 80  2  0  0  0  0
 39 75  1  0  0  0  0
 39 81  2  0  0  0  0
 40 76  1  0  0  0  0
 40 82  2  0  0  0  0
 41 55  1  0  0  0  0
 41 77  1  0  0  0  0
 41 83  2  0  0  0  0
 42 65  1  0  0  0  0
 42 70  1  0  0  0  0
 42 84  2  0  0  0  0
 43 66  1  0  0  0  0
 43 78  1  0  0  0  0
 43 85  2  0  0  0  0
 44 71  1  0  0  0  0
 44 74  1  0  0  0  0
 44 86  2  0  0  0  0
 45 48  1  0  0  0  0
 46 55  1  0  0  0  0
 47 70  1  0  0  0  0
 48 50  1  0  0  0  0
 49 51  1  0  0  0  0
 49 52  1  0  0  0  0
 50 54  1  0  0  0  0
 51 56  1  0  0  0  0
 52 71  1  0  0  0  0
 53 56  1  0  0  0  0
 53 71  1  0  0  0  0
 54 77  1  0  0  0  0
 55 70  1  0  0  0  0
 56 69  1  0  0  0  0
 57 66  1  0  0  0  0
 58 67  1  0  0  0  0
 59 67  1  0  0  0  0
 60 67  1  0  0  0  0
 61 79  1  0  0  0  0
 62 75  1  0  0  0  0
 63 76  1  0  0  0  0
 64 88  1  0  0  0  0
 65 67  1  0  0  0  0
 65 78  1  0  0  0  0
 66 79  1  0  0  0  0
 68 69  1  0  0  0  0
M  CHG  1  79   1
M  ISO  4  44 100  64 101  74 100  88 101
M  END
> <Batch ID>
0043

> <Smiles>
C=CC(=O)NCc1cc([100NH:0][100C:0](=O)N2CCCC(n3nc(-c4ccc(Oc5ccc(F)cc5F)cc4)c(C(N)=O)c3N)C2)cc(Cl)c1CNC(=O)C=C[101CH2:1][101O:1]c1ccc2c(c1)CN(C(=O)C(NC(=O)C(C)NC)C(C)(C)C)C(C(=O)NC1CCCc3ccccc31)C2

> <Shape>
0.209

> <Color>
0.188

> <Negative vol penalty>
0.000

$$$$

  -OEChem-04042322153D

 87 95  0     1  0  0  0  0  0999 V2000
  -26.3072  -35.1212   22.0410 C   0  0  0  0  0  0  0  0  0  0  0  0
  -26.7954  -33.8188   22.0127 C   0  0  0  0  0  0  0  0  0  0  0  0
  -22.5927  -11.3278   22.5186 C   0  0  0  0  0  0  0  0  0  0  0  0
  -22.5976  -10.7319   20.1773 C   0  0  0  0  0  0  0  0  0  0  0  0
  -27.3715  -20.7740   17.9850 C   0  0  0  0  0  0  0  0  0  0  0  0
  -25.0285  -35.3745   22.5357 C   0  0  0  0  0  0  0  0  0  0  0  0
  -26.0055  -32.7690   22.4802 C   0  0  0  0  0  0  0  0  0  0  0  0
  -26.0859  -28.7541   19.3949 C   0  0  0  0  0  0  0  0  0  0  0  0
  -26.5307  -19.9316   17.2578 C   0  0  0  0  0  0  0  0  0  0  0  0
  -22.1074  -10.0603   22.8402 C   0  0  0  0  0  0  0  0  0  0  0  0
  -22.1123   -9.4644   20.4989 C   0  0  0  0  0  0  0  0  0  0  0  0
  -27.2071  -27.9276   19.4546 C   0  0  0  0  0  0  0  0  0  0  0  0
  -23.3470   -6.5575   21.7012 C   0  0  0  0  0  0  0  0  0  0  0  0
  -23.9438   -5.4600   21.0806 C   0  0  0  0  0  0  0  0  0  0  0  0
  -25.9822  -26.3760   20.8371 C   0  0  0  0  0  0  0  0  0  0  0  0
  -24.9476  -21.7378   16.9959 C   0  0  0  0  0  0  0  0  0  0  0  0
  -21.8157   -4.8501   20.1130 C   0  0  0  0  0  0  0  0  0  0  0  0
  -22.8378  -11.6637   21.1871 C   0  0  0  0  0  0  0  0  0  0  0  0
  -27.0004  -22.0983   18.2178 C   0  0  0  0  0  0  0  0  0  0  0  0
  -24.6862  -13.3681   20.7562 C   0  0  0  0  0  0  0  0  0  0  0  0
  -24.2189  -34.3262   23.0006 C   0  0  0  0  0  0  0  0  0  0  0  0
  -24.9059  -28.4025   20.0660 C   0  0  0  0  0  0  0  0  0  0  0  0
  -24.7153  -33.0087   22.9829 C   0  0  0  0  0  0  0  0  0  0  0  0
  -24.8466  -27.1985   20.7823 C   0  0  0  0  0  0  0  0  0  0  0  0
  -25.3187  -20.4135   16.7632 C   0  0  0  0  0  0  0  0  0  0  0  0
  -25.7884  -22.5802   17.7232 C   0  0  0  0  0  0  0  0  0  0  0  0
  -21.8672   -9.1286   21.8304 C   0  0  0  0  0  0  0  0  0  0  0  0
  -27.1563  -26.7397   20.1782 C   0  0  0  0  0  0  0  0  0  0  0  0
  -21.9846   -6.8012   21.5277 C   0  0  0  0  0  0  0  0  0  0  0  0
  -23.1781   -4.6063   20.2865 C   0  0  0  0  0  0  0  0  0  0  0  0
  -21.2189   -5.9475   20.7336 C   0  0  0  0  0  0  0  0  0  0  0  0
  -23.3386  -12.9730   20.8542 C   0  0  0  0  0  0  0  0  0  0  0  0
  -24.6304  -14.6979   20.4168 C   0  0  0  0  0  0  0  0  0  0  0  0
  -27.9051  -22.9726   18.9910 C   0  0  0  0  0  0  0  0  0  0  0  0
  -25.8817  -12.6017   20.9543 C   0  0  0  0  0  0  0  0  0  0  0  0
  -23.1853  -29.6954   22.4052 C   0  0  0  0  0  0  0  0  0  0  0  0
  -21.1357  -27.2808   21.7046 C   0  0  0  0  0  0  0  0  0  0  0  0
  -20.6677  -24.1696   20.3824 C   0  0  0  0  0  0  0  0  0  0  0  0
  -22.4792  -18.8607   17.3856 C   0  0  0  0  0  0  0  0  0  0  0  0
  -22.8616  -34.6548   23.5701 C   0  0  0  0  0  0  0  0  0  0  0  0
  -23.6967  -29.2919   19.9697 C   0  0  0  0  0  0  0  0  0  0  0  0
  -23.5973  -26.7656   21.5036 C   0  0  0  0  0  0  0  0  0  0  0  0
  -21.9450  -33.4410   23.6991 C   0  0  0  0  0  0  0  0  0  0  0  0
  -20.7271  -17.9142   20.3370 C   0  0  0  0  0  0  0  0  0  0  0  0
  -22.6937  -32.2713   24.3301 C   0  0  0  0  0  0  0  0  0  0  0  0
  -21.3571  -16.5746   20.7226 C   0  0  0  0  0  0  0  0  0  0  0  0
  -20.6211  -18.0727   18.8219 C   0  0  0  0  0  0  0  0  0  0  0  0
  -22.5152  -16.5347   18.4741 C   0  0  0  0  0  0  0  0  0  0  0  0
  -23.8792  -31.8403   23.4581 C   0  0  1  0  0  0  0  0  0  0  0  0
  -22.7111  -29.0866   21.1160 C   0  0  1  0  0  0  0  0  0  0  0  0
  -22.6945  -16.3526   19.9910 C   0  0  2  0  0  0  0  0  0  0  0  0
  -25.3692  -23.9942   17.9599 C   0  0  0  0  0  0  0  0  0  0  0  0
  -18.8886  -22.4446   19.9865 C   0  0  0  0  0  0  0  0  0  0  0  0
  -30.9473  -25.1554   16.7644 C   0  0  0  0  0  0  0  0  0  0  0  0
  -31.7297  -23.1984   18.1210 C   0  0  0  0  0  0  0  0  0  0  0  0
  -21.2188  -26.5206   24.6585 C   0  0  0  0  0  0  0  0  0  0  0  0
  -20.2323  -24.3031   24.0439 C   0  0  0  0  0  0  0  0  0  0  0  0
  -18.9500  -26.3991   23.6134 C   0  0  0  0  0  0  0  0  0  0  0  0
  -21.0474  -24.2828   17.4495 C   0  0  0  0  0  0  0  0  0  0  0  0
  -24.4209  -19.5129   15.9843 C   0  0  0  0  0  0  0  0  0  0  0  0
  -29.1300  -25.9449   19.1158 C   0  0  0  0  0  0  0  0  0  1  0  0
  -20.9587  -25.8578   22.1767 C   0  0  1  0  0  0  0  0  0  0  0  0
  -19.6359  -23.6350   19.4057 C   0  0  2  0  0  0  0  0  0  0  0  0
  -31.1014  -24.5945   18.1807 C   0  0  0  0  0  0  0  0  0  0  0  0
  -29.7852  -24.5731   18.9827 C   0  0  2  0  0  0  0  0  0  0  0  0
  -20.3642  -25.7790   23.6112 C   0  0  0  0  0  0  0  0  0  0  0  0
  -22.4887  -13.9711   20.5979 N   0  0  0  0  0  0  0  0  0  0  0  0
  -23.3044  -15.0065   20.3356 N   0  0  0  0  0  0  0  0  0  0  0  0
  -22.4434  -27.6722   21.3847 N   0  0  0  0  0  0  0  0  0  0  0  0
  -21.9234  -17.8512   18.1887 N   0  0  0  0  0  0  0  0  0  0  0  0
  -25.5867  -15.6216   20.1830 N   0  0  0  0  0  0  0  0  0  0  0  0
  -27.7539  -23.0194   20.3146 N   0  0  0  0  0  0  0  0  0  0  0  0
  -25.7585  -11.2488   21.2991 N   0  0  0  0  0  0  0  0  0  0  0  0
  -23.4197  -31.0553   22.3325 N   0  0  0  0  0  0  0  0  0  0  0  0
  -20.1561  -25.1871   21.1596 N   0  0  0  0  0  0  0  0  0  0  0  0
  -23.7190  -18.5720   16.8285 N   0  0  0  0  0  0  0  0  0  0  0  0
  -28.8254  -23.6720   18.3241 N   0  3  0  0  0  0  0  0  0  0  0  0
  -20.2948  -23.2042   18.1403 N   0  3  0  0  0  0  0  0  0  0  0  0
  -27.0251  -13.1058   20.8452 O   0  0  0  0  0  0  0  0  0  0  0  0
  -23.3266  -28.9843   23.3932 O   0  0  0  0  0  0  0  0  0  0  0  0
  -20.1489  -28.0156   21.6159 O   0  0  0  0  0  0  0  0  0  0  0  0
  -21.8118  -23.7261   20.4517 O   0  0  0  0  0  0  0  0  0  0  0  0
  -21.9150  -19.9415   17.1845 O   0  0  0  0  0  0  0  0  0  0  0  0
  -21.3938   -7.8916   22.1439 O   0  0  0  0  0  0  0  0  0  0  0  0
  -28.2494  -25.9315   20.2386 O   0  0  0  0  0  0  0  0  0  1  0  0
  -23.7516   -3.5534   19.6894 F   0  0  0  0  0  0  0  0  0  0  0  0
  -19.9098   -6.1772   20.5623 F   0  0  0  0  0  0  0  0  0  0  0  0
  1  2  1  0  0  0  0
  1  6  2  0  0  0  0
  2  7  2  0  0  0  0
  3 10  2  0  0  0  0
  3 18  1  0  0  0  0
  4 11  1  0  0  0  0
  4 18  2  0  0  0  0
  5  9  2  0  0  0  0
  5 19  1  0  0  0  0
  6 21  1  0  0  0  0
  7 23  1  0  0  0  0
  8 12  2  0  0  0  0
  8 22  1  0  0  0  0
  9 25  1  0  0  0  0
 10 27  1  0  0  0  0
 11 27  2  0  0  0  0
 12 28  1  0  0  0  0
 13 14  2  0  0  0  0
 13 29  1  0  0  0  0
 14 30  1  0  0  0  0
 15 24  1  0  0  0  0
 15 28  2  0  0  0  0
 16 25  2  0  0  0  0
 16 26  1  0  0  0  0
 17 30  2  0  0  0  0
 17 31  1  0  0  0  0
 18 32  1  0  0  0  0
 19 26  2  0  0  0  0
 19 34  1  0  0  0  0
 20 32  1  0  0  0  0
 20 33  2  0  0  0  0
 20 35  1  0  0  0  0
 21 23  2  0  0  0  0
 21 40  1  0  0  0  0
 22 24  2  0  0  0  0
 22 41  1  0  0  0  0
 23 49  1  0  0  0  0
 24 42  1  0  0  0  0
 25 60  1  0  0  0  0
 26 52  1  0  0  0  0
 27 84  1  0  0  0  0
 28 85  1  0  0  0  0
 29 31  2  0  0  0  0
 29 84  1  0  0  0  0
 30 86  1  0  0  0  0
 31 87  1  0  0  0  0
 32 67  2  0  0  0  0
 33 68  1  0  0  0  0
 33 71  1  0  0  0  0
 34 72  1  0  0  0  0
 34 77  2  0  0  0  0
 35 73  1  0  0  0  0
 35 79  2  0  0  0  0
 36 50  1  0  0  0  0
 36 74  1  0  0  0  0
 36 80  2  0  0  0  0
 37 62  1  0  0  0  0
 37 69  1  0  0  0  0
 37 81  2  0  0  0  0
 38 63  1  0  0  0  0
 38 75  1  0  0  0  0
 38 82  2  0  0  0  0
 39 70  1  0  0  0  0
 39 76  1  0  0  0  0
 39 83  2  0  0  0  0
 40 43  1  0  0  0  0
 41 50  1  0  0  0  0
 42 69  1  0  0  0  0
 43 45  1  0  0  0  0
 44 46  1  0  0  0  0
 44 47  1  0  0  0  0
 45 49  1  0  0  0  0
 46 51  1  0  0  0  0
 47 70  1  0  0  0  0
 48 51  1  0  0  0  0
 48 70  1  0  0  0  0
 49 74  1  0  0  0  0
 50 69  1  0  0  0  0
 51 68  1  0  0  0  0
 53 63  1  0  0  0  0
 54 64  1  0  0  0  0
 55 64  1  0  0  0  0
 56 66  1  0  0  0  0
 57 66  1  0  0  0  0
 58 66  1  0  0  0  0
 59 78  1  0  0  0  0
 60 76  1  0  0  0  0
 61 65  1  0  0  0  0
 61 85  1  0  0  0  0
 62 66  1  0  0  0  0
 62 75  1  0  0  0  0
 63 78  1  0  0  0  0
 64 65  1  0  0  0  0
 65 77  1  0  0  0  0
 67 68  1  0  0  0  0
M  CHG  2  77   1  78   1
M  ISO  4  39 100  61 101  76 100  85 101
M  END
> <Batch ID>
0043

> <Smiles>
CNC(C)C(=O)NC(C(=O)N1Cc2cc([101O:1][101CH2:1]C(NC(=N)c3ccc(C[100NH:0][100C:0](=O)N4CCCC(n5nc(-c6ccc(Oc7ccc(F)cc7F)cc6)c(C(N)=O)c5N)C4)cc3C)C(C)C)ccc2CC1C(=O)NC1CCCc2ccccc21)C(C)(C)C

> <Shape>
0.243

> <Color>
0.088

> <Negative vol penalty>
0.000

$$$$

  -OEChem-04042322153D

 88 97  0     1  0  0  0  0  0999 V2000
  -30.1540  -17.9118   16.6309 C   0  0  0  0  0  0  0  0  0  0  0  0
  -29.4083  -19.0807   16.5169 C   0  0  0  0  0  0  0  0  0  0  0  0
  -21.9238  -16.3949   24.2012 C   0  0  0  0  0  0  0  0  0  0  0  0
  -22.0393  -16.8573   21.8326 C   0  0  0  0  0  0  0  0  0  0  0  0
  -30.2223  -17.2464   17.8542 C   0  0  0  0  0  0  0  0  0  0  0  0
  -28.7296  -19.5844   17.6260 C   0  0  0  0  0  0  0  0  0  0  0  0
  -27.8068  -25.4775   19.0137 C   0  0  0  0  0  0  0  0  0  0  0  0
  -18.5421  -28.2422   22.7422 C   0  0  0  0  0  0  0  0  0  0  0  0
  -18.3815  -26.9633   22.2093 C   0  0  0  0  0  0  0  0  0  0  0  0
  -22.3414  -15.0850   23.9659 C   0  0  0  0  0  0  0  0  0  0  0  0
  -22.4570  -15.5473   21.5973 C   0  0  0  0  0  0  0  0  0  0  0  0
  -26.7168  -26.3260   18.8251 C   0  0  0  0  0  0  0  0  0  0  0  0
  -25.3172  -13.7645   21.8434 C   0  0  0  0  0  0  0  0  0  0  0  0
  -26.3860  -13.5741   20.9676 C   0  0  0  0  0  0  0  0  0  0  0  0
  -25.9789  -25.8687   21.0758 C   0  0  0  0  0  0  0  0  0  0  0  0
  -24.9724  -12.2400   19.5326 C   0  0  0  0  0  0  0  0  0  0  0  0
  -21.7727  -17.2810   23.1345 C   0  0  0  0  0  0  0  0  0  0  0  0
  -21.9849  -19.6030   24.1695 C   0  0  0  0  0  0  0  0  0  0  0  0
  -29.5519  -17.7474   18.9813 C   0  0  0  0  0  0  0  0  0  0  0  0
  -27.9854  -24.8086   20.2332 C   0  0  0  0  0  0  0  0  0  0  0  0
  -28.7879  -18.9243   18.8652 C   0  0  0  0  0  0  0  0  0  0  0  0
  -27.0735  -25.0142   21.2783 C   0  0  0  0  0  0  0  0  0  0  0  0
  -19.8216  -28.7363   22.9963 C   0  0  0  0  0  0  0  0  0  0  0  0
  -20.9404  -27.9514   22.7175 C   0  0  0  0  0  0  0  0  0  0  0  0
  -20.7798  -26.6724   22.1846 C   0  0  0  0  0  0  0  0  0  0  0  0
  -19.5003  -26.1783   21.9304 C   0  0  0  0  0  0  0  0  0  0  0  0
  -22.6080  -14.6612   22.6640 C   0  0  0  0  0  0  0  0  0  0  0  0
  -25.8011  -26.5195   19.8552 C   0  0  0  0  0  0  0  0  0  0  0  0
  -24.0760  -13.1926   21.5639 C   0  0  0  0  0  0  0  0  0  0  0  0
  -26.2136  -12.8119   19.8122 C   0  0  0  0  0  0  0  0  0  0  0  0
  -23.9036  -12.4304   20.4085 C   0  0  0  0  0  0  0  0  0  0  0  0
  -21.3408  -18.6341   23.3769 C   0  0  0  0  0  0  0  0  0  0  0  0
  -21.1810  -20.7127   24.0761 C   0  0  0  0  0  0  0  0  0  0  0  0
  -23.1805  -28.8540   20.7642 C   0  0  0  0  0  0  0  0  0  0  0  0
  -22.2150  -28.6246   19.8550 C   0  0  0  0  0  0  0  0  0  0  0  0
  -23.2012  -19.5084   24.9228 C   0  0  0  0  0  0  0  0  0  0  0  0
  -28.0793  -21.7594   21.1264 C   0  0  0  0  0  0  0  0  0  0  0  0
  -28.8872  -23.0306   23.9993 C   0  0  0  0  0  0  0  0  0  0  0  0
  -27.8531  -25.8324   26.0237 C   0  0  0  0  0  0  0  0  0  0  0  0
  -18.1033  -24.2601   21.0849 C   0  0  0  0  0  0  0  0  0  0  0  0
  -29.6167  -16.9676   20.2706 C   0  0  0  0  0  0  0  0  0  0  0  0
  -29.1811  -23.9174   20.4299 C   0  0  0  0  0  0  0  0  0  0  0  0
  -27.2312  -24.3354   22.6135 C   0  0  0  0  0  0  0  0  0  0  0  0
  -29.1737  -17.7706   21.4910 C   0  0  0  0  0  0  0  0  0  0  0  0
  -25.6470  -30.8164   20.8424 C   0  0  0  0  0  0  0  0  0  0  0  0
  -16.5257  -21.2563   22.1645 C   0  0  0  0  0  0  0  0  0  0  0  0
  -24.3986  -31.3878   21.5164 C   0  0  0  0  0  0  0  0  0  0  0  0
  -27.8742  -18.5137   21.1981 C   0  0  0  0  0  0  0  0  0  0  0  0
  -25.4107  -29.6234   19.9192 C   0  0  0  0  0  0  0  0  0  0  0  0
  -17.6907  -20.3860   22.6414 C   0  0  0  0  0  0  0  0  0  0  0  0
  -16.9035  -22.0888   20.9406 C   0  0  0  0  0  0  0  0  0  0  0  0
  -19.2850  -22.0272   21.5680 C   0  0  0  0  0  0  0  0  0  0  0  0
  -23.7992  -30.4475   22.5596 C   0  0  0  0  0  0  0  0  0  0  0  0
  -28.0579  -19.5155   20.0517 C   0  0  1  0  0  0  0  0  0  0  0  0
  -24.6274  -28.4706   20.5509 C   0  0  2  0  0  0  0  0  0  1  0  0
  -28.9828  -22.8874   21.5376 C   0  0  1  0  0  0  0  0  0  0  0  0
  -18.9726  -21.2189   22.8380 C   0  0  2  0  0  0  0  0  0  0  0  0
  -19.9654  -30.1091   23.5672 C   0  0  0  0  0  0  0  0  0  0  0  0
  -21.9819  -25.8318   21.8861 C   0  0  0  0  0  0  0  0  0  0  0  0
  -29.1142  -27.1576   27.7415 C   0  0  0  0  0  0  0  0  0  0  0  0
  -27.6326  -21.0924   25.9940 C   0  0  0  0  0  0  0  0  0  0  0  0
  -27.3579  -23.0107   27.5792 C   0  0  0  0  0  0  0  0  0  0  0  0
  -29.6395  -22.3153   26.8490 C   0  0  0  0  0  0  0  0  0  0  0  0
  -27.2995  -28.3841   24.6304 C   0  0  0  0  0  0  0  0  0  0  0  0
  -22.3153  -28.4856   22.9918 C   0  0  0  0  0  0  0  0  0  0  0  0
  -28.1228  -23.5036   25.2121 C   0  0  1  0  0  0  0  0  0  0  0  0
  -28.6454  -27.0983   26.2960 C   0  0  2  0  0  0  0  0  0  0  0  0
  -28.1768  -22.4815   26.3825 C   0  0  0  0  0  0  0  0  0  0  0  0
  -20.2144  -19.0884   22.8211 N   0  0  0  0  0  0  0  0  0  0  0  0
  -20.1444  -20.3549   23.2651 N   0  0  0  0  0  0  0  0  0  0  0  0
  -28.4130  -23.4688   22.7548 N   0  0  0  0  0  0  0  0  0  0  0  0
  -18.1245  -22.8541   21.2018 N   0  0  0  0  0  0  0  0  0  0  0  0
  -21.2667  -21.9499   24.6095 N   0  0  0  0  0  0  0  0  0  0  0  0
  -24.4063  -19.8440   24.2908 N   0  0  0  0  0  0  0  0  0  0  0  0
  -19.3137  -24.8822   21.3892 N   0  0  0  0  0  0  0  0  0  0  0  0
  -28.7360  -20.7040   20.5229 N   0  0  0  0  0  0  0  0  0  0  0  0
  -28.6569  -24.8202   25.5434 N   0  0  0  0  0  0  0  0  0  0  0  0
  -22.7627  -29.5127   21.9818 N   0  3  2  0  0  0  0  0  0  0  0  0
  -27.8092  -28.3014   26.0234 N   0  3  0  0  0  0  0  0  0  0  0  0
  -23.2206  -19.1214   26.1158 O   0  0  0  0  0  0  0  0  0  0  0  0
  -26.8757  -21.8401   21.3420 O   0  0  0  0  0  0  0  0  0  0  0  0
  -29.8732  -22.3050   24.1510 O   0  0  0  0  0  0  0  0  0  0  0  0
  -26.6430  -25.7485   26.2211 O   0  0  0  0  0  0  0  0  0  0  0  0
  -17.0790  -24.8694   20.7665 O   0  0  0  0  0  0  0  0  0  0  0  0
  -23.0158  -13.3832   22.4340 O   0  0  0  0  0  0  0  0  0  0  0  0
  -24.7359  -27.3466   19.6735 O   0  0  0  0  0  0  0  0  0  1  0  0
  -27.2396  -12.6304   18.9704 F   0  0  0  0  0  0  0  0  0  0  0  0
  -22.7133  -11.8795   20.1340 F   0  0  0  0  0  0  0  0  0  0  0  0
  1  2  1  0  0  0  0
  1  5  2  0  0  0  0
  2  6  2  0  0  0  0
  3 10  2  0  0  0  0
  3 17  1  0  0  0  0
  4 11  1  0  0  0  0
  4 17  2  0  0  0  0
  5 19  1  0  0  0  0
  6 21  1  0  0  0  0
  7 12  2  0  0  0  0
  7 20  1  0  0  0  0
  8  9  1  0  0  0  0
  8 23  2  0  0  0  0
  9 26  2  0  0  0  0
 10 27  1  0  0  0  0
 11 27  2  0  0  0  0
 12 28  1  0  0  0  0
 13 14  2  0  0  0  0
 13 29  1  0  0  0  0
 14 30  1  0  0  0  0
 15 22  1  0  0  0  0
 15 28  2  0  0  0  0
 16 30  2  0  0  0  0
 16 31  1  0  0  0  0
 17 32  1  0  0  0  0
 18 32  1  0  0  0  0
 18 33  2  0  0  0  0
 18 36  1  0  0  0  0
 19 21  2  0  0  0  0
 19 41  1  0  0  0  0
 20 22  2  0  0  0  0
 20 42  1  0  0  0  0
 21 54  1  0  0  0  0
 22 43  1  0  0  0  0
 23 24  1  0  0  0  0
 23 58  1  0  0  0  0
 24 25  2  0  0  0  0
 24 65  1  0  0  0  0
 25 26  1  0  0  0  0
 25 59  1  0  0  0  0
 26 75  1  0  0  0  0
 27 85  1  0  0  0  0
 28 86  1  0  0  0  0
 29 31  2  0  0  0  0
 29 85  1  0  0  0  0
 30 87  1  0  0  0  0
 31 88  1  0  0  0  0
 32 69  2  0  0  0  0
 33 70  1  0  0  0  0
 33 73  1  0  0  0  0
 34 35  2  0  0  0  0
 34 55  1  0  0  0  0
 34 78  1  0  0  0  0
 36 74  1  0  0  0  0
 36 80  2  0  0  0  0
 37 56  1  0  0  0  0
 37 76  1  0  0  0  0
 37 81  2  0  0  0  0
 38 66  1  0  0  0  0
 38 71  1  0  0  0  0
 38 82  2  0  0  0  0
 39 67  1  0  0  0  0
 39 77  1  0  0  0  0
 39 83  2  0  0  0  0
 40 72  1  0  0  0  0
 40 75  1  0  0  0  0
 40 84  2  0  0  0  0
 41 44  1  0  0  0  0
 42 56  1  0  0  0  0
 43 71  1  0  0  0  0
 44 48  1  0  0  0  0
 45 47  1  0  0  0  0
 45 49  1  0  0  0  0
 46 50  1  0  0  0  0
 46 51  1  0  0  0  0
 47 53  1  0  0  0  0
 48 54  1  0  0  0  0
 49 55  1  0  0  0  0
 50 57  1  0  0  0  0
 51 72  1  0  0  0  0
 52 57  1  0  0  0  0
 52 72  1  0  0  0  0
 53 78  1  0  0  0  0
 54 76  1  0  0  0  0
 55 86  1  0  0  0  0
 56 71  1  0  0  0  0
 57 70  1  0  0  0  0
 60 67  1  0  0  0  0
 61 68  1  0  0  0  0
 62 68  1  0  0  0  0
 63 68  1  0  0  0  0
 64 79  1  0  0  0  0
 65 78  1  0  0  0  0
 66 68  1  0  0  0  0
 66 77  1  0  0  0  0
 67 79  1  0  0  0  0
 69 70  1  0  0  0  0
M  CHG  2  78   1  79   1
M  ISO  4  40 100  55 101  75 100  86 101
M  END
> <Batch ID>
0043

> <Smiles>
C=C1N(Cc2c(C)ccc([100NH:0][100C:0](=O)N3CCCC(n4nc(-c5ccc(Oc6ccc(F)cc6F)cc5)c(C(N)=O)c4N)C3)c2C)CCCC[101CH:1]1[101O:1]c1ccc2c(c1)CN(C(=O)C(NC(=O)C(C)NC)C(C)(C)C)C(C(=O)NC1CCCc3ccccc31)C2

> <Shape>
0.225

> <Color>
0.048

> <Negative vol penalty>
0.000

$$$$

  -OEChem-04042322153D

 86 94  0     1  0  0  0  0  0999 V2000
  -17.9468  -30.5928   23.7163 C   0  0  0  0  0  0  0  0  0  0  0  0
  -18.8105  -29.8480   24.5130 C   0  0  0  0  0  0  0  0  0  0  0  0
  -29.9888  -23.4947   20.0005 C   0  0  0  0  0  0  0  0  0  0  0  0
  -27.9482  -23.3311   21.2834 C   0  0  0  0  0  0  0  0  0  0  0  0
  -17.2722  -29.9811   22.6605 C   0  0  0  0  0  0  0  0  0  0  0  0
  -18.9993  -28.4907   24.2549 C   0  0  0  0  0  0  0  0  0  0  0  0
  -24.0106  -23.3842   24.6123 C   0  0  0  0  0  0  0  0  0  0  0  0
  -23.2035  -14.9507   22.8766 C   0  0  0  0  0  0  0  0  0  0  0  0
  -29.8062  -24.8728   19.8858 C   0  0  0  0  0  0  0  0  0  0  0  0
  -27.7656  -24.7092   21.1688 C   0  0  0  0  0  0  0  0  0  0  0  0
  -24.2080  -22.1029   25.1250 C   0  0  0  0  0  0  0  0  0  0  0  0
  -26.5723  -28.1324   20.9083 C   0  0  0  0  0  0  0  0  0  0  0  0
  -22.8958  -15.2001   24.2140 C   0  0  0  0  0  0  0  0  0  0  0  0
  -25.2961  -28.5925   20.5841 C   0  0  0  0  0  0  0  0  0  0  0  0
  -23.0502  -21.1708   23.2250 C   0  0  0  0  0  0  0  0  0  0  0  0
  -25.3743  -27.3506   18.5132 C   0  0  0  0  0  0  0  0  0  0  0  0
  -29.0597  -22.7238   20.6992 C   0  0  0  0  0  0  0  0  0  0  0  0
  -29.9410  -20.6157   21.8336 C   0  0  0  0  0  0  0  0  0  0  0  0
  -17.4603  -28.6179   22.3834 C   0  0  0  0  0  0  0  0  0  0  0  0
  -23.3209  -23.5695   23.4055 C   0  0  0  0  0  0  0  0  0  0  0  0
  -18.3256  -27.8599   23.1952 C   0  0  0  0  0  0  0  0  0  0  0  0
  -22.8477  -22.4553   22.6978 C   0  0  0  0  0  0  0  0  0  0  0  0
  -24.5356  -14.8640   22.4719 C   0  0  0  0  0  0  0  0  0  0  0  0
  -25.5599  -15.0269   23.4046 C   0  0  0  0  0  0  0  0  0  0  0  0
  -25.2522  -15.2764   24.7420 C   0  0  0  0  0  0  0  0  0  0  0  0
  -28.6946  -25.4800   20.4700 C   0  0  0  0  0  0  0  0  0  0  0  0
  -23.7252  -20.9961   24.4329 C   0  0  0  0  0  0  0  0  0  0  0  0
  -27.2496  -27.2814   20.0349 C   0  0  0  0  0  0  0  0  0  0  0  0
  -24.6971  -28.2016   19.3866 C   0  0  0  0  0  0  0  0  0  0  0  0
  -23.9201  -15.3631   25.1467 C   0  0  0  0  0  0  0  0  0  0  0  0
  -26.6506  -26.8905   18.8374 C   0  0  0  0  0  0  0  0  0  0  0  0
  -29.2475  -21.3002   20.8176 C   0  0  0  0  0  0  0  0  0  0  0  0
  -29.8311  -19.2901   21.4914 C   0  0  0  0  0  0  0  0  0  0  0  0
  -25.8361  -17.6718   26.3887 C   0  0  0  0  0  0  0  0  0  0  0  0
  -30.6233  -21.1320   22.9841 C   0  0  0  0  0  0  0  0  0  0  0  0
  -20.6372  -25.0482   22.5598 C   0  0  0  0  0  0  0  0  0  0  0  0
  -21.6110  -24.2685   19.5655 C   0  0  0  0  0  0  0  0  0  0  0  0
  -23.4627  -22.2168   17.5633 C   0  0  0  0  0  0  0  0  0  0  0  0
  -26.0696  -15.5835   19.1192 C   0  0  0  0  0  0  0  0  0  0  0  0
  -16.6730  -27.9900   21.2606 C   0  0  0  0  0  0  0  0  0  0  0  0
  -23.1396  -24.9564   22.8523 C   0  0  0  0  0  0  0  0  0  0  0  0
  -22.1185  -22.5990   21.3878 C   0  0  0  0  0  0  0  0  0  0  0  0
  -17.2150  -26.6322   20.8215 C   0  0  0  0  0  0  0  0  0  0  0  0
  -28.8648  -16.8406   17.3070 C   0  0  0  0  0  0  0  0  0  0  0  0
  -17.5056  -25.7555   22.0356 C   0  0  0  0  0  0  0  0  0  0  0  0
  -29.3129  -18.0551   18.1220 C   0  0  0  0  0  0  0  0  0  0  0  0
  -27.3451  -16.6905   17.3069 C   0  0  0  0  0  0  0  0  0  0  0  0
  -27.1735  -17.8774   19.4600 C   0  0  0  0  0  0  0  0  0  0  0  0
  -18.5757  -26.3909   22.9315 C   0  0  1  0  0  0  0  0  0  0  0  0
  -21.9739  -25.0618   21.8738 C   0  0  1  0  0  0  0  0  0  0  0  0
  -28.7014  -18.0381   19.5359 C   0  0  2  0  0  0  0  0  0  0  0  0
  -26.9880  -14.9345   22.9660 C   0  0  0  0  0  0  0  0  0  0  0  0
  -27.4201  -16.2497   27.6559 C   0  0  0  0  0  0  0  0  0  0  0  0
  -24.0290  -21.8023   15.1540 C   0  0  0  0  0  0  0  0  0  0  0  0
  -18.8773  -22.9793   19.1472 C   0  0  0  0  0  0  0  0  0  0  0  0
  -19.8205  -21.7894   17.1565 C   0  0  0  0  0  0  0  0  0  0  0  0
  -19.7270  -24.2820   17.1888 C   0  0  0  0  0  0  0  0  0  0  0  0
  -26.3404  -22.7250   18.0319 C   0  0  0  0  0  0  0  0  0  0  0  0
  -24.8373  -14.5963   21.0338 C   0  0  0  0  0  0  0  0  0  0  0  0
  -24.6229  -19.6217   26.1774 C   0  0  0  0  0  0  0  0  0  1  0  0
  -26.1289  -16.2711   26.8556 C   0  0  2  0  0  0  0  0  0  0  0  0
  -21.4085  -23.0857   18.6495 C   0  0  1  0  0  0  0  0  0  0  0  0
  -24.4317  -22.5177   16.4342 C   0  0  2  0  0  0  0  0  0  0  0  0
  -19.9703  -23.0312   18.0611 C   0  0  0  0  0  0  0  0  0  0  0  0
  -28.7352  -20.4774   19.8986 N   0  0  0  0  0  0  0  0  0  0  0  0
  -24.7398  -18.2585   26.7259 N   0  0  0  0  0  0  0  0  0  0  0  0
  -29.1070  -19.2622   20.3359 N   0  0  0  0  0  0  0  0  0  0  0  0
  -21.9607  -23.9761   20.8914 N   0  0  0  0  0  0  0  0  0  0  0  0
  -26.8287  -16.6799   18.6777 N   0  0  0  0  0  0  0  0  0  0  0  0
  -30.2843  -18.1572   22.0690 N   0  0  0  0  0  0  0  0  0  0  0  0
  -30.6392  -22.5190   23.1849 N   0  0  0  0  0  0  0  0  0  0  0  0
  -26.2575  -15.4413   25.6816 N   0  0  0  0  0  0  0  0  0  0  0  0
  -19.8921  -26.1952   22.3630 N   0  0  0  0  0  0  0  0  0  0  0  0
  -22.4628  -23.1629   17.6441 N   0  0  0  0  0  0  0  0  0  0  0  0
  -25.6241  -15.6505   20.4336 N   0  0  0  0  0  0  0  0  0  0  0  0
  -25.8083  -22.0818   16.8030 N   0  3  0  0  0  0  0  0  0  0  0  0
  -31.2158  -20.3866   23.8007 O   0  0  0  0  0  0  0  0  0  0  0  0
  -20.3057  -24.0689   23.2177 O   0  0  0  0  0  0  0  0  0  0  0  0
  -21.4712  -25.4099   19.1192 O   0  0  0  0  0  0  0  0  0  0  0  0
  -23.5788  -21.2381   18.2977 O   0  0  0  0  0  0  0  0  0  0  0  0
  -25.8128  -14.6142   18.3972 O   0  0  0  0  0  0  0  0  0  0  0  0
  -28.5163  -26.8248   20.3585 O   0  0  0  0  0  0  0  0  0  0  0  0
  -23.9160  -19.7443   24.9315 O   0  0  0  0  0  0  0  0  0  1  0  0
  -23.4709  -28.6424   19.0762 F   0  0  0  0  0  0  0  0  0  0  0  0
  -23.6116  -15.6038   26.4291 F   0  0  0  0  0  0  0  0  0  0  0  0
  -27.2958  -26.0722   17.9948 F   0  0  0  0  0  0  0  0  0  0  0  0
  1  2  1  0  0  0  0
  1  5  2  0  0  0  0
  2  6  2  0  0  0  0
  3  9  2  0  0  0  0
  3 17  1  0  0  0  0
  4 10  1  0  0  0  0
  4 17  2  0  0  0  0
  5 19  1  0  0  0  0
  6 21  1  0  0  0  0
  7 11  2  0  0  0  0
  7 20  1  0  0  0  0
  8 13  1  0  0  0  0
  8 23  2  0  0  0  0
  9 26  1  0  0  0  0
 10 26  2  0  0  0  0
 11 27  1  0  0  0  0
 12 14  2  0  0  0  0
 12 28  1  0  0  0  0
 13 30  2  0  0  0  0
 14 29  1  0  0  0  0
 15 22  1  0  0  0  0
 15 27  2  0  0  0  0
 16 29  2  0  0  0  0
 16 31  1  0  0  0  0
 17 32  1  0  0  0  0
 18 32  1  0  0  0  0
 18 33  2  0  0  0  0
 18 35  1  0  0  0  0
 19 21  2  0  0  0  0
 19 40  1  0  0  0  0
 20 22  2  0  0  0  0
 20 41  1  0  0  0  0
 21 49  1  0  0  0  0
 22 42  1  0  0  0  0
 23 24  1  0  0  0  0
 23 59  1  0  0  0  0
 24 25  2  0  0  0  0
 24 52  1  0  0  0  0
 25 30  1  0  0  0  0
 25 72  1  0  0  0  0
 26 82  1  0  0  0  0
 27 83  1  0  0  0  0
 28 31  2  0  0  0  0
 28 82  1  0  0  0  0
 29 84  1  0  0  0  0
 30 85  1  0  0  0  0
 31 86  1  0  0  0  0
 32 65  2  0  0  0  0
 33 67  1  0  0  0  0
 33 70  1  0  0  0  0
 34 61  1  0  0  0  0
 34 66  2  0  0  0  0
 35 71  1  0  0  0  0
 35 77  2  0  0  0  0
 36 50  1  0  0  0  0
 36 73  1  0  0  0  0
 36 78  2  0  0  0  0
 37 62  1  0  0  0  0
 37 68  1  0  0  0  0
 37 79  2  0  0  0  0
 38 63  1  0  0  0  0
 38 74  1  0  0  0  0
 38 80  2  0  0  0  0
 39 69  1  0  0  0  0
 39 75  1  0  0  0  0
 39 81  2  0  0  0  0
 40 43  1  0  0  0  0
 41 50  1  0  0  0  0
 42 68  1  0  0  0  0
 43 45  1  0  0  0  0
 44 46  1  0  0  0  0
 44 47  1  0  0  0  0
 45 49  1  0  0  0  0
 46 51  1  0  0  0  0
 47 69  1  0  0  0  0
 48 51  1  0  0  0  0
 48 69  1  0  0  0  0
 49 73  1  0  0  0  0
 50 68  1  0  0  0  0
 51 67  1  0  0  0  0
 53 61  1  0  0  0  0
 54 63  1  0  0  0  0
 55 64  1  0  0  0  0
 56 64  1  0  0  0  0
 57 64  1  0  0  0  0
 58 76  1  0  0  0  0
 59 75  1  0  0  0  0
 60 66  1  0  0  0  0
 60 83  1  0  0  0  0
 61 72  1  0  0  0  0
 62 64  1  0  0  0  0
 62 74  1  0  0  0  0
 63 76  1  0  0  0  0
 65 67  1  0  0  0  0
M  CHG  1  76   1
M  ISO  4  39 100  60 101  75 100  83 101
M  END
> <Batch ID>
0043

> <Smiles>
C=C(CN[101CH2:1][101O:1]c1ccc2c(c1)CN(C(=O)C(NC(=O)C(C)NC)C(C)(C)C)C(C(=O)NC1CCCc3ccccc31)C2)Nc1c(F)ccc(C[100NH:0][100C:0](=O)N2CCCC(n3nc(-c4ccc(Oc5ccc(F)cc5F)cc4)c(C(N)=O)c3N)C2)c1C

> <Shape>
0.175

> <Color>
0.075

> <Negative vol penalty>
0.000

$$$$

  -OEChem-04042322153D

 86 95  0     1  0  0  0  0  0999 V2000
  -29.8196  -11.5796   20.0725 C   0  0  0  0  0  0  0  0  0  0  0  0
  -29.7125  -12.8078   20.7151 C   0  0  0  0  0  0  0  0  0  0  0  0
  -19.8956  -26.9982   22.8239 C   0  0  0  0  0  0  0  0  0  0  0  0
  -30.7947  -24.8947   18.5972 C   0  0  0  0  0  0  0  0  0  0  0  0
  -28.5590  -23.9855   18.7085 C   0  0  0  0  0  0  0  0  0  0  0  0
  -28.9276  -11.2499   19.0543 C   0  0  0  0  0  0  0  0  0  0  0  0
  -28.7060  -13.7017   20.3480 C   0  0  0  0  0  0  0  0  0  0  0  0
  -24.4155  -20.3952   20.4522 C   0  0  0  0  0  0  0  0  0  0  0  0
  -19.3615  -26.4017   21.6818 C   0  0  0  0  0  0  0  0  0  0  0  0
  -21.1784  -27.5450   22.7902 C   0  0  0  0  0  0  0  0  0  0  0  0
  -31.3098  -23.6085   18.4370 C   0  0  0  0  0  0  0  0  0  0  0  0
  -29.0742  -22.6992   18.5483 C   0  0  0  0  0  0  0  0  0  0  0  0
  -23.5236  -21.1569   19.6984 C   0  0  0  0  0  0  0  0  0  0  0  0
  -30.6003  -20.3700   20.4659 C   0  0  0  0  0  0  0  0  0  0  0  0
  -30.1076  -19.3662   21.2996 C   0  0  0  0  0  0  0  0  0  0  0  0
  -22.0673  -19.2440   19.4996 C   0  0  0  0  0  0  0  0  0  0  0  0
  -29.3376  -18.1386   19.3663 C   0  0  0  0  0  0  0  0  0  0  0  0
  -29.4192  -25.0833   18.7330 C   0  0  0  0  0  0  0  0  0  0  0  0
  -29.0080  -27.4940   18.0070 C   0  0  0  0  0  0  0  0  0  0  0  0
  -27.9177  -12.1459   18.6667 C   0  0  0  0  0  0  0  0  0  0  0  0
  -24.1447  -19.0469   20.7265 C   0  0  0  0  0  0  0  0  0  0  0  0
  -27.7811  -13.3774   19.3390 C   0  0  0  0  0  0  0  0  0  0  0  0
  -22.9562  -18.4681   20.2592 C   0  0  0  0  0  0  0  0  0  0  0  0
  -20.1102  -26.3519   20.5059 C   0  0  0  0  0  0  0  0  0  0  0  0
  -21.9272  -27.4952   21.6144 C   0  0  0  0  0  0  0  0  0  0  0  0
  -30.4496  -22.5107   18.4125 C   0  0  0  0  0  0  0  0  0  0  0  0
  -22.3507  -20.5806   19.2195 C   0  0  0  0  0  0  0  0  0  0  0  0
  -30.4616  -20.2583   19.0824 C   0  0  0  0  0  0  0  0  0  0  0  0
  -29.4763  -18.2504   20.7498 C   0  0  0  0  0  0  0  0  0  0  0  0
  -29.8303  -19.1425   18.5326 C   0  0  0  0  0  0  0  0  0  0  0  0
  -21.3931  -26.8987   20.4722 C   0  0  0  0  0  0  0  0  0  0  0  0
  -28.8865  -26.4117   18.8991 C   0  0  0  0  0  0  0  0  0  0  0  0
  -28.3337  -28.5216   18.6201 C   0  0  0  0  0  0  0  0  0  0  0  0
  -20.6426  -23.5106   18.9571 C   0  0  0  0  0  0  0  0  0  0  0  0
  -29.6710  -27.5641   16.7377 C   0  0  0  0  0  0  0  0  0  0  0  0
  -25.5702  -16.2889   20.0445 C   0  0  0  0  0  0  0  0  0  0  0  0
  -23.2746  -15.0700   21.9854 C   0  0  0  0  0  0  0  0  0  0  0  0
  -19.7471  -15.5870   22.5390 C   0  0  0  0  0  0  0  0  0  0  0  0
  -23.9053  -28.6804   22.6287 C   0  0  0  0  0  0  0  0  0  0  0  0
  -26.9743  -11.7347   17.5638 C   0  0  0  0  0  0  0  0  0  0  0  0
  -25.1041  -18.2462   21.5637 C   0  0  0  0  0  0  0  0  0  0  0  0
  -22.6091  -17.0303   20.5433 C   0  0  0  0  0  0  0  0  0  0  0  0
  -26.2300  -12.9147   16.9474 C   0  0  0  0  0  0  0  0  0  0  0  0
  -17.9596  -22.3458   19.3644 C   0  0  0  0  0  0  0  0  0  0  0  0
  -27.1319  -30.1485   22.9609 C   0  0  0  0  0  0  0  0  0  0  0  0
  -25.6205  -13.7750   18.0442 C   0  0  0  0  0  0  0  0  0  0  0  0
  -19.0951  -21.5769   18.6915 C   0  0  0  0  0  0  0  0  0  0  0  0
  -27.9575  -29.4597   21.8718 C   0  0  0  0  0  0  0  0  0  0  0  0
  -18.4288  -23.6165   20.0673 C   0  0  0  0  0  0  0  0  0  0  0  0
  -26.1323  -29.1903   23.6061 C   0  0  0  0  0  0  0  0  0  0  0  0
  -26.0789  -27.7953   21.5762 C   0  0  0  0  0  0  0  0  0  0  0  0
  -26.7133  -14.3782   18.9358 C   0  0  1  0  0  0  0  0  0  0  0  0
  -20.4662  -22.0160   19.1893 C   0  0  1  0  0  0  0  0  0  1  0  0
  -24.9740  -16.7417   21.3473 C   0  0  1  0  0  0  0  0  0  0  0  0
  -27.0549  -28.7373   20.8526 C   0  0  2  0  0  0  0  0  0  0  0  0
  -18.3467  -15.2221   24.5891 C   0  0  0  0  0  0  0  0  0  0  0  0
  -22.7081  -12.3345   20.7582 C   0  0  0  0  0  0  0  0  0  0  0  0
  -20.3523  -12.5298   21.5830 C   0  0  0  0  0  0  0  0  0  0  0  0
  -22.2427  -12.4945   23.2102 C   0  0  0  0  0  0  0  0  0  0  0  0
  -18.7611  -18.3772   22.5035 C   0  0  0  0  0  0  0  0  0  0  0  0
  -19.5321  -25.7093   19.2784 C   0  0  0  0  0  0  0  0  0  0  0  0
  -21.8714  -14.5502   21.7861 C   0  0  1  0  0  0  0  0  0  0  0  0
  -19.1031  -16.2394   23.7490 C   0  0  2  0  0  0  0  0  0  0  0  0
  -21.8047  -12.9972   21.8173 C   0  0  0  0  0  0  0  0  0  0  0  0
  -28.1900  -26.7228   19.9954 N   0  0  0  0  0  0  0  0  0  0  0  0
  -27.8678  -28.0123   19.7964 N   0  0  0  0  0  0  0  0  0  0  0  0
  -19.5370  -24.2590   19.3701 N   0  0  0  0  0  0  0  0  0  0  0  0
  -23.5821  -16.2870   21.3608 N   0  0  0  0  0  0  0  0  0  0  0  0
  -25.3090  -28.5460   22.5805 N   0  0  0  0  0  0  0  0  0  0  0  0
  -28.0999  -29.8021   18.2623 N   0  0  0  0  0  0  0  0  0  0  0  0
  -30.3145  -26.4161   16.2557 N   0  0  0  0  0  0  0  0  0  0  0  0
  -23.2297  -28.0522   21.5830 N   0  0  0  0  0  0  0  0  0  0  0  0
  -26.0937  -15.0106   20.0795 N   0  0  0  0  0  0  0  0  0  0  0  0
  -21.0465  -15.2042   22.7962 N   0  0  0  0  0  0  0  0  0  0  0  0
  -18.1466  -17.2981   23.3189 N   0  3  0  0  0  0  0  0  0  0  0  0
  -21.6686  -23.9780   18.4663 O   0  0  0  0  0  0  0  0  0  0  0  0
  -29.7062  -28.6184   16.0589 O   0  0  0  0  0  0  0  0  0  0  0  0
  -25.5550  -17.0430   19.0787 O   0  0  0  0  0  0  0  0  0  0  0  0
  -24.0665  -14.4237   22.6759 O   0  0  0  0  0  0  0  0  0  0  0  0
  -19.1553  -15.4291   21.4734 O   0  0  0  0  0  0  0  0  0  0  0  0
  -23.3456  -29.3296   23.5160 O   0  0  0  0  0  0  0  0  0  0  0  0
  -30.9520  -21.2554   18.2560 O   0  0  0  0  0  0  0  0  0  0  0  0
  -21.4788  -21.3216   18.4830 O   0  0  0  0  0  0  0  0  0  1  0  0
  -29.0046  -17.2857   21.5504 F   0  0  0  0  0  0  0  0  0  0  0  0
  -29.6952  -19.0290   17.2042 F   0  0  0  0  0  0  0  0  0  0  0  0
  -22.1119  -26.8516   19.3404 F   0  0  0  0  0  0  0  0  0  0  0  0
  1  2  1  0  0  0  0
  1  6  2  0  0  0  0
  2  7  2  0  0  0  0
  3  9  2  0  0  0  0
  3 10  1  0  0  0  0
  4 11  2  0  0  0  0
  4 18  1  0  0  0  0
  5 12  1  0  0  0  0
  5 18  2  0  0  0  0
  6 20  1  0  0  0  0
  7 22  1  0  0  0  0
  8 13  2  0  0  0  0
  8 21  1  0  0  0  0
  9 24  1  0  0  0  0
 10 25  2  0  0  0  0
 11 26  1  0  0  0  0
 12 26  2  0  0  0  0
 13 27  1  0  0  0  0
 14 15  2  0  0  0  0
 14 28  1  0  0  0  0
 15 29  1  0  0  0  0
 16 23  1  0  0  0  0
 16 27  2  0  0  0  0
 17 29  2  0  0  0  0
 17 30  1  0  0  0  0
 18 32  1  0  0  0  0
 19 32  1  0  0  0  0
 19 33  2  0  0  0  0
 19 35  1  0  0  0  0
 20 22  2  0  0  0  0
 20 40  1  0  0  0  0
 21 23  2  0  0  0  0
 21 41  1  0  0  0  0
 22 52  1  0  0  0  0
 23 42  1  0  0  0  0
 24 31  2  0  0  0  0
 24 61  1  0  0  0  0
 25 31  1  0  0  0  0
 25 72  1  0  0  0  0
 26 82  1  0  0  0  0
 27 83  1  0  0  0  0
 28 30  2  0  0  0  0
 28 82  1  0  0  0  0
 29 84  1  0  0  0  0
 30 85  1  0  0  0  0
 31 86  1  0  0  0  0
 32 65  2  0  0  0  0
 33 66  1  0  0  0  0
 33 70  1  0  0  0  0
 34 53  1  0  0  0  0
 34 67  1  0  0  0  0
 34 76  2  0  0  0  0
 35 71  1  0  0  0  0
 35 77  2  0  0  0  0
 36 54  1  0  0  0  0
 36 73  1  0  0  0  0
 36 78  2  0  0  0  0
 37 62  1  0  0  0  0
 37 68  1  0  0  0  0
 37 79  2  0  0  0  0
 38 63  1  0  0  0  0
 38 74  1  0  0  0  0
 38 80  2  0  0  0  0
 39 69  1  0  0  0  0
 39 72  1  0  0  0  0
 39 81  2  0  0  0  0
 40 43  1  0  0  0  0
 41 54  1  0  0  0  0
 42 68  1  0  0  0  0
 43 46  1  0  0  0  0
 44 47  1  0  0  0  0
 44 49  1  0  0  0  0
 45 48  1  0  0  0  0
 45 50  1  0  0  0  0
 46 52  1  0  0  0  0
 47 53  1  0  0  0  0
 48 55  1  0  0  0  0
 49 67  1  0  0  0  0
 50 69  1  0  0  0  0
 51 55  1  0  0  0  0
 51 69  1  0  0  0  0
 52 73  1  0  0  0  0
 53 83  1  0  0  0  0
 54 68  1  0  0  0  0
 55 66  1  0  0  0  0
 56 63  1  0  0  0  0
 57 64  1  0  0  0  0
 58 64  1  0  0  0  0
 59 64  1  0  0  0  0
 60 75  1  0  0  0  0
 61 67  1  0  0  0  0
 62 64  1  0  0  0  0
 62 74  1  0  0  0  0
 63 75  1  0  0  0  0
 65 66  1  0  0  0  0
M  CHG  1  75   1
M  ISO  4  39 100  53 101  72 100  83 101
M  END
> <Batch ID>
0043

> <Smiles>
CNC(C)C(=O)NC(C(=O)N1Cc2cc([101O:1][101CH:1]3CCCN(Cc4cccc([100NH:0][100C:0](=O)N5CCCC(n6nc(-c7ccc(Oc8ccc(F)cc8F)cc7)c(C(N)=O)c6N)C5)c4F)C3=O)ccc2CC1C(=O)NC1CCCc2ccccc21)C(C)(C)C

> <Shape>
0.223

> <Color>
0.060

> <Negative vol penalty>
0.000

$$$$

  -OEChem-04042322153D

 85 94  0     1  0  0  0  0  0999 V2000
  -28.5533  -12.1439   20.8656 C   0  0  0  0  0  0  0  0  0  0  0  0
  -28.7371  -13.5215   20.8295 C   0  0  0  0  0  0  0  0  0  0  0  0
  -18.3172  -27.5329   23.9957 C   0  0  0  0  0  0  0  0  0  0  0  0
  -28.9883  -26.2505   18.9400 C   0  0  0  0  0  0  0  0  0  0  0  0
  -26.8782  -25.1320   19.3054 C   0  0  0  0  0  0  0  0  0  0  0  0
  -27.2719  -11.6120   20.7383 C   0  0  0  0  0  0  0  0  0  0  0  0
  -27.6384  -14.3681   20.6779 C   0  0  0  0  0  0  0  0  0  0  0  0
  -23.6839  -21.2260   19.9333 C   0  0  0  0  0  0  0  0  0  0  0  0
  -17.7577  -26.8105   22.9417 C   0  0  0  0  0  0  0  0  0  0  0  0
  -19.5277  -28.2026   23.8171 C   0  0  0  0  0  0  0  0  0  0  0  0
  -29.6212  -25.0143   18.8101 C   0  0  0  0  0  0  0  0  0  0  0  0
  -27.5111  -23.8957   19.1755 C   0  0  0  0  0  0  0  0  0  0  0  0
  -22.4761  -21.7727   19.5020 C   0  0  0  0  0  0  0  0  0  0  0  0
  -29.4290  -21.8662   21.0816 C   0  0  0  0  0  0  0  0  0  0  0  0
  -29.1163  -20.8769   22.0139 C   0  0  0  0  0  0  0  0  0  0  0  0
  -21.2824  -20.2859   20.9797 C   0  0  0  0  0  0  0  0  0  0  0  0
  -19.6193  -27.4275   21.5307 C   0  0  0  0  0  0  0  0  0  0  0  0
  -28.3216  -19.4503   20.2333 C   0  0  0  0  0  0  0  0  0  0  0  0
  -27.6168  -26.3094   19.1877 C   0  0  0  0  0  0  0  0  0  0  0  0
  -26.8944  -28.6121   18.3611 C   0  0  0  0  0  0  0  0  0  0  0  0
  -26.1589  -12.4527   20.5726 C   0  0  0  0  0  0  0  0  0  0  0  0
  -23.6995  -20.1959   20.8847 C   0  0  0  0  0  0  0  0  0  0  0  0
  -26.3344  -13.8515   20.5717 C   0  0  0  0  0  0  0  0  0  0  0  0
  -22.4919  -19.7296   21.4234 C   0  0  0  0  0  0  0  0  0  0  0  0
  -18.4088  -26.7578   21.7092 C   0  0  0  0  0  0  0  0  0  0  0  0
  -20.1788  -28.1499   22.5846 C   0  0  0  0  0  0  0  0  0  0  0  0
  -28.8826  -23.8369   18.9278 C   0  0  0  0  0  0  0  0  0  0  0  0
  -21.2749  -21.3006   20.0231 C   0  0  0  0  0  0  0  0  0  0  0  0
  -29.1880  -21.6476   19.7252 C   0  0  0  0  0  0  0  0  0  0  0  0
  -28.5626  -19.6690   21.5897 C   0  0  0  0  0  0  0  0  0  0  0  0
  -28.6343  -20.4396   19.3011 C   0  0  0  0  0  0  0  0  0  0  0  0
  -26.9626  -27.5860   19.3226 C   0  0  0  0  0  0  0  0  0  0  0  0
  -26.1690  -29.6063   18.9708 C   0  0  0  0  0  0  0  0  0  0  0  0
  -19.1300  -23.9240   20.2720 C   0  0  0  0  0  0  0  0  0  0  0  0
  -27.4381  -28.6619   17.0353 C   0  0  0  0  0  0  0  0  0  0  0  0
  -24.6918  -17.1762   20.9050 C   0  0  0  0  0  0  0  0  0  0  0  0
  -23.9341  -17.3571   24.0539 C   0  0  0  0  0  0  0  0  0  0  0  0
  -21.2717  -18.7581   26.0455 C   0  0  0  0  0  0  0  0  0  0  0  0
  -22.0985  -29.5929   23.3453 C   0  0  0  0  0  0  0  0  0  0  0  0
  -24.7935  -11.8239   20.4473 C   0  0  0  0  0  0  0  0  0  0  0  0
  -25.0121  -19.6353   21.3592 C   0  0  0  0  0  0  0  0  0  0  0  0
  -22.4553  -18.6394   22.4619 C   0  0  0  0  0  0  0  0  0  0  0  0
  -23.7564  -12.7689   19.8494 C   0  0  0  0  0  0  0  0  0  0  0  0
  -17.0406  -22.3852   21.6335 C   0  0  0  0  0  0  0  0  0  0  0  0
  -25.1686  -31.3955   23.2989 C   0  0  0  0  0  0  0  0  0  0  0  0
  -23.7973  -14.1084   20.5695 C   0  0  0  0  0  0  0  0  0  0  0  0
  -17.9531  -21.6993   20.6384 C   0  0  0  0  0  0  0  0  0  0  0  0
  -25.9685  -30.7204   22.1824 C   0  0  0  0  0  0  0  0  0  0  0  0
  -16.7831  -23.8140   21.1895 C   0  0  0  0  0  0  0  0  0  0  0  0
  -24.3330  -30.3880   24.0867 C   0  0  0  0  0  0  0  0  0  0  0  0
  -24.2579  -28.8603   22.1554 C   0  0  0  0  0  0  0  0  0  0  0  0
  -25.1577  -14.7906   20.3771 C   0  0  1  0  0  0  0  0  0  0  0  0
  -19.2745  -22.4406   20.5873 C   0  0  1  0  0  0  0  0  0  1  0  0
  -24.8844  -18.2357   21.9528 C   0  0  1  0  0  0  0  0  0  0  0  0
  -25.0653  -29.8439   21.2927 C   0  0  2  0  0  0  0  0  0  0  0  0
  -21.2620  -19.5618   28.4227 C   0  0  0  0  0  0  0  0  0  0  0  0
  -22.9677  -14.5358   24.6990 C   0  0  0  0  0  0  0  0  0  0  0  0
  -21.4506  -15.5257   26.4272 C   0  0  0  0  0  0  0  0  0  0  0  0
  -23.9223  -15.7822   26.6458 C   0  0  0  0  0  0  0  0  0  0  0  0
  -20.2471  -21.4220   25.2627 C   0  0  0  0  0  0  0  0  0  0  0  0
  -17.8061  -25.9801   20.5751 C   0  0  0  0  0  0  0  0  0  0  0  0
  -22.6918  -17.0971   24.8712 C   0  0  1  0  0  0  0  0  0  0  0  0
  -21.3602  -19.9665   26.9601 C   0  0  2  0  0  0  0  0  0  0  0  0
  -22.7566  -15.7436   25.6337 C   0  0  0  0  0  0  0  0  0  0  0  0
  -26.3311  -27.8996   20.4569 N   0  0  0  0  0  0  0  0  0  0  0  0
  -25.8592  -29.1339   20.2122 N   0  0  0  0  0  0  0  0  0  0  0  0
  -17.9736  -24.5435   20.7495 N   0  0  0  0  0  0  0  0  0  0  0  0
  -23.7646  -18.1189   22.8891 N   0  0  0  0  0  0  0  0  0  0  0  0
  -23.4996  -29.5966   23.1790 N   0  0  0  0  0  0  0  0  0  0  0  0
  -25.7723  -30.8298   18.5608 N   0  0  0  0  0  0  0  0  0  0  0  0
  -28.1566  -27.5540   16.5658 N   0  0  0  0  0  0  0  0  0  0  0  0
  -21.4081  -28.8309   22.4034 N   0  0  0  0  0  0  0  0  0  0  0  0
  -25.2312  -15.9489   21.2401 N   0  0  0  0  0  0  0  0  0  0  0  0
  -22.5195  -18.2611   25.7337 N   0  0  0  0  0  0  0  0  0  0  0  0
  -20.2574  -20.9235   26.6621 N   0  3  0  0  0  0  0  0  0  0  0  0
  -20.0375  -24.5187   19.6847 O   0  0  0  0  0  0  0  0  0  0  0  0
  -27.3051  -29.6659   16.2952 O   0  0  0  0  0  0  0  0  0  0  0  0
  -24.0965  -17.4513   19.8698 O   0  0  0  0  0  0  0  0  0  0  0  0
  -25.0163  -16.9071   24.4387 O   0  0  0  0  0  0  0  0  0  0  0  0
  -20.2025  -18.2987   25.6504 O   0  0  0  0  0  0  0  0  0  0  0  0
  -21.5494  -30.2415   24.2396 O   0  0  0  0  0  0  0  0  0  0  0  0
  -29.4997  -22.6304   18.8008 O   0  0  0  0  0  0  0  0  0  0  0  0
  -20.0945  -21.8320   19.6033 O   0  0  0  0  0  0  0  0  0  1  0  0
  -28.2638  -18.7184   22.4849 F   0  0  0  0  0  0  0  0  0  0  0  0
  -28.4015  -20.2234   17.9992 F   0  0  0  0  0  0  0  0  0  0  0  0
  1  2  1  0  0  0  0
  1  6  2  0  0  0  0
  2  7  2  0  0  0  0
  3  9  2  0  0  0  0
  3 10  1  0  0  0  0
  4 11  2  0  0  0  0
  4 19  1  0  0  0  0
  5 12  1  0  0  0  0
  5 19  2  0  0  0  0
  6 21  1  0  0  0  0
  7 23  1  0  0  0  0
  8 13  2  0  0  0  0
  8 22  1  0  0  0  0
  9 25  1  0  0  0  0
 10 26  2  0  0  0  0
 11 27  1  0  0  0  0
 12 27  2  0  0  0  0
 13 28  1  0  0  0  0
 14 15  2  0  0  0  0
 14 29  1  0  0  0  0
 15 30  1  0  0  0  0
 16 24  1  0  0  0  0
 16 28  2  0  0  0  0
 17 25  2  0  0  0  0
 17 26  1  0  0  0  0
 18 30  2  0  0  0  0
 18 31  1  0  0  0  0
 19 32  1  0  0  0  0
 20 32  1  0  0  0  0
 20 33  2  0  0  0  0
 20 35  1  0  0  0  0
 21 23  2  0  0  0  0
 21 40  1  0  0  0  0
 22 24  2  0  0  0  0
 22 41  1  0  0  0  0
 23 52  1  0  0  0  0
 24 42  1  0  0  0  0
 25 61  1  0  0  0  0
 26 72  1  0  0  0  0
 27 82  1  0  0  0  0
 28 83  1  0  0  0  0
 29 31  2  0  0  0  0
 29 82  1  0  0  0  0
 30 84  1  0  0  0  0
 31 85  1  0  0  0  0
 32 65  2  0  0  0  0
 33 66  1  0  0  0  0
 33 70  1  0  0  0  0
 34 53  1  0  0  0  0
 34 67  1  0  0  0  0
 34 76  2  0  0  0  0
 35 71  1  0  0  0  0
 35 77  2  0  0  0  0
 36 54  1  0  0  0  0
 36 73  1  0  0  0  0
 36 78  2  0  0  0  0
 37 62  1  0  0  0  0
 37 68  1  0  0  0  0
 37 79  2  0  0  0  0
 38 63  1  0  0  0  0
 38 74  1  0  0  0  0
 38 80  2  0  0  0  0
 39 69  1  0  0  0  0
 39 72  1  0  0  0  0
 39 81  2  0  0  0  0
 40 43  1  0  0  0  0
 41 54  1  0  0  0  0
 42 68  1  0  0  0  0
 43 46  1  0  0  0  0
 44 47  1  0  0  0  0
 44 49  1  0  0  0  0
 45 48  1  0  0  0  0
 45 50  1  0  0  0  0
 46 52  1  0  0  0  0
 47 53  1  0  0  0  0
 48 55  1  0  0  0  0
 49 67  1  0  0  0  0
 50 69  1  0  0  0  0
 51 55  1  0  0  0  0
 51 69  1  0  0  0  0
 52 73  1  0  0  0  0
 53 83  1  0  0  0  0
 54 68  1  0  0  0  0
 55 66  1  0  0  0  0
 56 63  1  0  0  0  0
 57 64  1  0  0  0  0
 58 64  1  0  0  0  0
 59 64  1  0  0  0  0
 60 75  1  0  0  0  0
 61 67  1  0  0  0  0
 62 64  1  0  0  0  0
 62 74  1  0  0  0  0
 63 75  1  0  0  0  0
 65 66  1  0  0  0  0
M  CHG  1  75   1
M  ISO  4  39 100  53 101  72 100  83 101
M  END
> <Batch ID>
0043

> <Smiles>
CNC(C)C(=O)NC(C(=O)N1Cc2cc([101O:1][101CH:1]3CCCN(Cc4cccc([100NH:0][100C:0](=O)N5CCCC(n6nc(-c7ccc(Oc8ccc(F)cc8F)cc7)c(C(N)=O)c6N)C5)c4)C3=O)ccc2CC1C(=O)NC1CCCc2ccccc21)C(C)(C)C

> <Shape>
0.219

> <Color>
0.070

> <Negative vol penalty>
0.000

$$$$

  -OEChem-04042322153D

 85 93  0     1  0  0  0  0  0999 V2000
  -27.6107  -32.6280   21.2801 C   0  0  0  0  0  0  0  0  0  0  0  0
  -27.2987  -31.4869   20.5481 C   0  0  0  0  0  0  0  0  0  0  0  0
  -26.6315  -12.5301   21.7589 C   0  0  0  0  0  0  0  0  0  0  0  0
  -25.9754  -13.9315   19.9034 C   0  0  0  0  0  0  0  0  0  0  0  0
  -27.1905  -32.7418   22.6047 C   0  0  0  0  0  0  0  0  0  0  0  0
  -26.5671  -30.4582   21.1407 C   0  0  0  0  0  0  0  0  0  0  0  0
  -22.8949  -28.7013   18.1286 C   0  0  0  0  0  0  0  0  0  0  0  0
  -28.5727  -23.9281   20.7716 C   0  0  0  0  0  0  0  0  0  0  0  0
  -29.1377  -22.7568   21.2760 C   0  0  0  0  0  0  0  0  0  0  0  0
  -25.3589  -11.9595   21.7779 C   0  0  0  0  0  0  0  0  0  0  0  0
  -24.7028  -13.3608   19.9223 C   0  0  0  0  0  0  0  0  0  0  0  0
  -23.2719  -27.8336   17.1046 C   0  0  0  0  0  0  0  0  0  0  0  0
  -23.6514   -9.6208   20.0320 C   0  0  0  0  0  0  0  0  0  0  0  0
  -23.5648   -8.2337   20.1502 C   0  0  0  0  0  0  0  0  0  0  0  0
  -22.5641  -25.9558   18.4434 C   0  0  0  0  0  0  0  0  0  0  0  0
  -22.3080   -8.4867   22.1981 C   0  0  0  0  0  0  0  0  0  0  0  0
  -26.9398  -13.5162   20.8217 C   0  0  0  0  0  0  0  0  0  0  0  0
  -28.0215  -22.7785   18.7193 C   0  0  0  0  0  0  0  0  0  0  0  0
  -29.3736  -13.6645   20.0719 C   0  0  0  0  0  0  0  0  0  0  0  0
  -26.4451  -31.7182   23.2107 C   0  0  0  0  0  0  0  0  0  0  0  0
  -22.3588  -28.2013   19.3240 C   0  0  0  0  0  0  0  0  0  0  0  0
  -26.1377  -30.5578   22.4750 C   0  0  0  0  0  0  0  0  0  0  0  0
  -22.1786  -26.8195   19.4800 C   0  0  0  0  0  0  0  0  0  0  0  0
  -28.0145  -23.9390   19.4933 C   0  0  0  0  0  0  0  0  0  0  0  0
  -29.1446  -21.5963   20.5021 C   0  0  0  0  0  0  0  0  0  0  0  0
  -24.3945  -12.3747   20.8596 C   0  0  0  0  0  0  0  0  0  0  0  0
  -23.1092  -26.4604   17.2630 C   0  0  0  0  0  0  0  0  0  0  0  0
  -23.0665  -10.4409   20.9969 C   0  0  0  0  0  0  0  0  0  0  0  0
  -22.8930   -7.6666   21.2332 C   0  0  0  0  0  0  0  0  0  0  0  0
  -22.3947   -9.8739   22.0799 C   0  0  0  0  0  0  0  0  0  0  0  0
  -28.5865  -21.6072   19.2237 C   0  0  0  0  0  0  0  0  0  0  0  0
  -28.2540  -14.1065   20.8019 C   0  0  0  0  0  0  0  0  0  0  0  0
  -30.3672  -14.5567   20.3934 C   0  0  0  0  0  0  0  0  0  0  0  0
  -27.4337  -22.7711   17.3647 C   0  0  0  0  0  0  0  0  0  0  0  0
  -29.5038  -12.5473   19.1828 C   0  0  0  0  0  0  0  0  0  0  0  0
  -23.2363  -28.2719   22.3783 C   0  0  0  0  0  0  0  0  0  0  0  0
  -20.3464  -26.8717   22.8369 C   0  0  0  0  0  0  0  0  0  0  0  0
  -17.7900  -25.0139   21.5483 C   0  0  0  0  0  0  0  0  0  0  0  0
  -30.3093  -20.2297   22.2690 C   0  0  0  0  0  0  0  0  0  0  0  0
  -26.0536  -31.8657   24.6597 C   0  0  0  0  0  0  0  0  0  0  0  0
  -21.9322  -29.1523   20.4085 C   0  0  0  0  0  0  0  0  0  0  0  0
  -21.5890  -26.2334   20.7359 C   0  0  0  0  0  0  0  0  0  0  0  0
  -24.9609  -30.8937   25.0974 C   0  0  0  0  0  0  0  0  0  0  0  0
  -31.7991  -17.4537   23.9277 C   0  0  0  0  0  0  0  0  0  0  0  0
  -25.2731  -29.4835   24.6067 C   0  0  0  0  0  0  0  0  0  0  0  0
  -31.1655  -16.2400   23.2437 C   0  0  0  0  0  0  0  0  0  0  0  0
  -30.8036  -18.6023   24.0807 C   0  0  0  0  0  0  0  0  0  0  0  0
  -29.4934  -17.7930   22.1578 C   0  0  0  0  0  0  0  0  0  0  0  0
  -25.3247  -29.4312   23.0750 C   0  0  1  0  0  0  0  0  0  0  0  0
  -21.8742  -28.5001   21.7864 C   0  0  1  0  0  0  0  0  0  0  0  0
  -30.4757  -16.6339   21.9229 C   0  0  2  0  0  0  0  0  0  0  0  0
  -27.4150  -25.2055   18.9758 C   0  0  0  0  0  0  0  0  0  0  0  0
  -15.5825  -23.9983   22.1748 C   0  0  0  0  0  0  0  0  0  0  0  0
  -21.7979  -24.6650   24.3645 C   0  0  0  0  0  0  0  0  0  0  0  0
  -19.7450  -23.2506   24.1333 C   0  0  0  0  0  0  0  0  0  0  0  0
  -19.6406  -25.4008   25.3936 C   0  0  0  0  0  0  0  0  0  0  0  0
  -16.3480  -26.6074   19.5136 C   0  0  0  0  0  0  0  0  0  0  0  0
  -24.9064  -23.7979   15.6119 C   0  0  0  0  0  0  0  0  0  0  0  0
  -25.4441  -22.4164   15.9462 C   0  0  0  0  0  0  0  0  0  0  0  0
  -23.9149  -24.3085   16.6497 C   0  0  0  0  0  0  0  0  0  1  0  0
  -19.8413  -25.4495   22.8738 C   0  0  1  0  0  0  0  0  0  0  0  0
  -16.2851  -25.2102   21.5830 C   0  0  2  0  0  0  0  0  0  0  0  0
  -20.2691  -24.7021   24.1683 C   0  0  0  0  0  0  0  0  0  0  0  0
  -28.5115  -15.1949   21.5322 N   0  0  0  0  0  0  0  0  0  0  0  0
  -29.8043  -15.4441   21.2627 N   0  0  0  0  0  0  0  0  0  0  0  0
  -21.1932  -27.2039   21.7699 N   0  0  0  0  0  0  0  0  0  0  0  0
  -30.1931  -18.9231   22.7888 N   0  0  0  0  0  0  0  0  0  0  0  0
  -31.6586  -14.6607   20.0144 N   0  0  0  0  0  0  0  0  0  0  0  0
  -28.2239  -23.0763   16.3355 N   0  0  0  0  0  0  0  0  0  0  0  0
  -28.3842  -11.7330   18.9646 N   0  0  0  0  0  0  0  0  0  0  0  0
  -29.7172  -20.4078   21.0191 N   0  0  0  0  0  0  0  0  0  0  0  0
  -23.9864  -29.4232   22.5242 N   0  0  0  0  0  0  0  0  0  0  0  0
  -18.3978  -25.5238   22.6761 N   0  0  0  0  0  0  0  0  0  0  0  0
  -26.1372  -22.4611   17.2339 N   0  3  0  0  0  0  0  0  0  0  0  0
  -15.7598  -25.4321   20.2061 N   0  3  0  0  0  0  0  0  0  0  0  0
  -30.5856  -12.2695   18.6117 O   0  0  0  0  0  0  0  0  0  0  0  0
  -23.5806  -27.1356   22.6817 O   0  0  0  0  0  0  0  0  0  0  0  0
  -19.9966  -27.6607   23.7182 O   0  0  0  0  0  0  0  0  0  0  0  0
  -18.3682  -24.4600   20.6158 O   0  0  0  0  0  0  0  0  0  0  0  0
  -30.9147  -21.1176   22.8749 O   0  0  0  0  0  0  0  0  0  0  0  0
  -23.1527  -11.8179   20.8777 O   0  0  0  0  0  0  0  0  0  0  0  0
  -23.4770  -25.6111   16.2653 O   0  0  0  0  0  0  0  0  0  1  0  0
  -22.8085   -6.3346   21.3458 F   0  0  0  0  0  0  0  0  0  0  0  0
  -21.8297  -10.6566   23.0093 F   0  0  0  0  0  0  0  0  0  0  0  0
  -28.5912  -20.4905   18.4799 F   0  0  0  0  0  0  0  0  0  0  0  0
  1  2  1  0  0  0  0
  1  5  2  0  0  0  0
  2  6  2  0  0  0  0
  3 10  2  0  0  0  0
  3 17  1  0  0  0  0
  4 11  1  0  0  0  0
  4 17  2  0  0  0  0
  5 20  1  0  0  0  0
  6 22  1  0  0  0  0
  7 12  2  0  0  0  0
  7 21  1  0  0  0  0
  8  9  1  0  0  0  0
  8 24  2  0  0  0  0
  9 25  2  0  0  0  0
 10 26  1  0  0  0  0
 11 26  2  0  0  0  0
 12 27  1  0  0  0  0
 13 14  2  0  0  0  0
 13 28  1  0  0  0  0
 14 29  1  0  0  0  0
 15 23  1  0  0  0  0
 15 27  2  0  0  0  0
 16 29  2  0  0  0  0
 16 30  1  0  0  0  0
 17 32  1  0  0  0  0
 18 24  1  0  0  0  0
 18 31  2  0  0  0  0
 18 34  1  0  0  0  0
 19 32  1  0  0  0  0
 19 33  2  0  0  0  0
 19 35  1  0  0  0  0
 20 22  2  0  0  0  0
 20 40  1  0  0  0  0
 21 23  2  0  0  0  0
 21 41  1  0  0  0  0
 22 49  1  0  0  0  0
 23 42  1  0  0  0  0
 24 52  1  0  0  0  0
 25 31  1  0  0  0  0
 25 71  1  0  0  0  0
 26 81  1  0  0  0  0
 27 82  1  0  0  0  0
 28 30  2  0  0  0  0
 28 81  1  0  0  0  0
 29 83  1  0  0  0  0
 30 84  1  0  0  0  0
 31 85  1  0  0  0  0
 32 64  2  0  0  0  0
 33 65  1  0  0  0  0
 33 68  1  0  0  0  0
 34 69  1  0  0  0  0
 34 74  2  0  0  0  0
 35 70  1  0  0  0  0
 35 76  2  0  0  0  0
 36 50  1  0  0  0  0
 36 72  1  0  0  0  0
 36 77  2  0  0  0  0
 37 61  1  0  0  0  0
 37 66  1  0  0  0  0
 37 78  2  0  0  0  0
 38 62  1  0  0  0  0
 38 73  1  0  0  0  0
 38 79  2  0  0  0  0
 39 67  1  0  0  0  0
 39 71  1  0  0  0  0
 39 80  2  0  0  0  0
 40 43  1  0  0  0  0
 41 50  1  0  0  0  0
 42 66  1  0  0  0  0
 43 45  1  0  0  0  0
 44 46  1  0  0  0  0
 44 47  1  0  0  0  0
 45 49  1  0  0  0  0
 46 51  1  0  0  0  0
 47 67  1  0  0  0  0
 48 51  1  0  0  0  0
 48 67  1  0  0  0  0
 49 72  1  0  0  0  0
 50 66  1  0  0  0  0
 51 65  1  0  0  0  0
 53 62  1  0  0  0  0
 54 63  1  0  0  0  0
 55 63  1  0  0  0  0
 56 63  1  0  0  0  0
 57 75  1  0  0  0  0
 58 59  1  0  0  0  0
 58 60  1  0  0  0  0
 59 74  1  0  0  0  0
 60 82  1  0  0  0  0
 61 63  1  0  0  0  0
 61 73  1  0  0  0  0
 62 75  1  0  0  0  0
 64 65  1  0  0  0  0
M  CHG  2  74   1  75   1
M  ISO  4  39 100  60 101  71 100  82 101
M  END
> <Batch ID>
0043

> <Smiles>
CNC(C)C(=O)NC(C(=O)N1Cc2cc([101O:1][101CH2:1]CCNC(=N)c3c(C)ccc([100NH:0][100C:0](=O)N4CCCC(n5nc(-c6ccc(Oc7ccc(F)cc7F)cc6)c(C(N)=O)c5N)C4)c3F)ccc2CC1C(=O)NC1CCCc2ccccc21)C(C)(C)C

> <Shape>
0.280

> <Color>
0.050

> <Negative vol penalty>
0.000

$$$$

  -OEChem-04042322153D

 87 96  0     1  0  0  0  0  0999 V2000
  -32.8043  -33.1404   21.6951 C   0  0  0  0  0  0  0  0  0  0  0  0
  -31.6910  -33.3291   20.8825 C   0  0  0  0  0  0  0  0  0  0  0  0
  -24.5735  -12.8681   22.3109 C   0  0  0  0  0  0  0  0  0  0  0  0
  -24.6534  -13.8824   20.1196 C   0  0  0  0  0  0  0  0  0  0  0  0
  -33.3489  -31.8657   21.8445 C   0  0  0  0  0  0  0  0  0  0  0  0
  -31.1223  -32.2432   20.2179 C   0  0  0  0  0  0  0  0  0  0  0  0
  -24.2346  -30.4292   21.2950 C   0  0  0  0  0  0  0  0  0  0  0  0
  -25.5604  -11.9603   21.9267 C   0  0  0  0  0  0  0  0  0  0  0  0
  -25.6403  -12.9747   19.7354 C   0  0  0  0  0  0  0  0  0  0  0  0
  -22.8683  -30.1475   21.2874 C   0  0  0  0  0  0  0  0  0  0  0  0
  -28.4380  -11.1550   18.2932 C   0  0  0  0  0  0  0  0  0  0  0  0
  -29.5419  -11.6510   17.5997 C   0  0  0  0  0  0  0  0  0  0  0  0
  -23.2521  -28.2726   19.8091 C   0  0  0  0  0  0  0  0  0  0  0  0
  -24.5813  -25.3951   24.6922 C   0  0  0  0  0  0  0  0  0  0  0  0
  -23.0527  -27.2458   24.4176 C   0  0  0  0  0  0  0  0  0  0  0  0
  -22.1984  -25.0266   24.8449 C   0  0  0  0  0  0  0  0  0  0  0  0
  -30.0756  -13.0813   19.4722 C   0  0  0  0  0  0  0  0  0  0  0  0
  -24.1200  -13.8291   21.4073 C   0  0  0  0  0  0  0  0  0  0  0  0
  -21.7939  -14.4695   22.2362 C   0  0  0  0  0  0  0  0  0  0  0  0
  -32.7808  -30.7620   21.1889 C   0  0  0  0  0  0  0  0  0  0  0  0
  -25.1177  -29.6233   20.5711 C   0  0  0  0  0  0  0  0  0  0  0  0
  -31.6607  -30.9527   20.3575 C   0  0  0  0  0  0  0  0  0  0  0  0
  -24.6232  -28.5424   19.8229 C   0  0  0  0  0  0  0  0  0  0  0  0
  -24.3565  -26.7517   24.4582 C   0  0  0  0  0  0  0  0  0  0  0  0
  -23.5022  -24.5326   24.8854 C   0  0  0  0  0  0  0  0  0  0  0  0
  -21.9736  -26.3833   24.6110 C   0  0  0  0  0  0  0  0  0  0  0  0
  -26.0938  -12.0136   20.6390 C   0  0  0  0  0  0  0  0  0  0  0  0
  -22.3783  -29.0721   20.5461 C   0  0  0  0  0  0  0  0  0  0  0  0
  -28.1529  -11.6222   19.5762 C   0  0  0  0  0  0  0  0  0  0  0  0
  -30.3607  -12.6142   18.1892 C   0  0  0  0  0  0  0  0  0  0  0  0
  -28.9717  -12.5853   20.1657 C   0  0  0  0  0  0  0  0  0  0  0  0
  -23.1001  -14.7667   21.8034 C   0  0  0  0  0  0  0  0  0  0  0  0
  -21.2293  -15.6954   22.4909 C   0  0  0  0  0  0  0  0  0  0  0  0
  -18.4956  -27.0677   23.3246 C   0  0  0  0  0  0  0  0  0  0  0  0
  -17.5041  -26.1947   23.5584 C   0  0  0  0  0  0  0  0  0  0  0  0
  -21.1487  -13.1988   22.3941 C   0  0  0  0  0  0  0  0  0  0  0  0
  -28.6683  -28.9306   19.5764 C   0  0  0  0  0  0  0  0  0  0  0  0
  -27.3455  -26.2142   20.1071 C   0  0  0  0  0  0  0  0  0  0  0  0
  -26.6576  -22.9718   20.9141 C   0  0  0  0  0  0  0  0  0  0  0  0
  -23.6086  -20.8879   23.9847 C   0  0  0  0  0  0  0  0  0  0  0  0
  -33.4332  -29.4110   21.3435 C   0  0  0  0  0  0  0  0  0  0  0  0
  -26.5898  -29.9264   20.5009 C   0  0  0  0  0  0  0  0  0  0  0  0
  -25.6062  -27.7236   19.0315 C   0  0  0  0  0  0  0  0  0  0  0  0
  -18.2560  -28.5285   23.0558 C   0  0  0  0  0  0  0  0  0  0  0  0
  -32.5444  -28.2512   20.9016 C   0  0  0  0  0  0  0  0  0  0  0  0
  -18.9866  -28.9616   21.7905 C   0  0  0  0  0  0  0  0  0  0  0  0
  -21.4619  -20.2797   21.1354 C   0  0  0  0  0  0  0  0  0  0  0  0
  -31.8997  -28.5564   19.5533 C   0  0  0  0  0  0  0  0  0  0  0  0
  -21.5200  -18.7546   21.0308 C   0  0  0  0  0  0  0  0  0  0  0  0
  -22.8137  -20.8577   21.5435 C   0  0  0  0  0  0  0  0  0  0  0  0
  -23.4262  -18.7727   22.7059 C   0  0  0  0  0  0  0  0  0  0  0  0
  -20.5496  -26.9967   22.0370 C   0  0  0  0  0  0  0  0  0  0  0  0
  -31.0004  -29.7955   19.6397 C   0  0  1  0  0  0  0  0  0  0  0  0
  -27.4637  -28.6614   20.4295 C   0  0  1  0  0  0  0  0  0  0  0  0
  -22.0840  -18.1257   22.3187 C   0  0  2  0  0  0  0  0  0  0  0  0
  -20.4443  -28.5018   21.8047 C   0  0  1  0  0  0  0  0  0  1  0  0
  -25.5107  -27.6736   24.2520 C   0  0  0  0  0  0  0  0  0  0  0  0
  -27.3550  -20.6199   20.3855 C   0  0  0  0  0  0  0  0  0  0  0  0
  -25.8359  -26.3653   17.4609 C   0  0  0  0  0  0  0  0  0  0  0  0
  -25.7425  -23.8635   17.4528 C   0  0  0  0  0  0  0  0  0  0  0  0
  -27.9476  -25.0277   17.3828 C   0  0  0  0  0  0  0  0  0  0  0  0
  -27.4750  -22.4619   23.7125 C   0  0  0  0  0  0  0  0  0  0  0  0
  -23.7420  -23.0819   25.1360 C   0  0  0  0  0  0  0  0  0  0  0  0
  -20.5714  -26.9151   24.5672 C   0  0  0  0  0  0  0  0  0  0  0  0
  -26.6123  -25.0299   19.5297 C   0  0  1  0  0  0  0  0  0  0  0  0
  -27.5626  -21.8162   21.3012 C   0  0  2  0  0  0  0  0  0  0  0  0
  -26.5240  -25.0864   17.9784 C   0  0  0  0  0  0  0  0  0  0  0  0
  -23.3505  -16.0785   21.7829 N   0  0  0  0  0  0  0  0  0  0  0  0
  -22.1939  -16.6165   22.2059 N   0  0  0  0  0  0  0  0  0  0  0  0
  -26.8170  -27.4811   19.8314 N   0  0  0  0  0  0  0  0  0  0  0  0
  -23.2855  -20.2305   22.7861 N   0  0  0  0  0  0  0  0  0  0  0  0
  -20.0067  -16.0645   22.9284 N   0  0  0  0  0  0  0  0  0  0  0  0
  -20.4491  -12.6647   21.3034 N   0  0  0  0  0  0  0  0  0  0  0  0
  -29.7399  -29.4625   20.2679 N   0  0  0  0  0  0  0  0  0  0  0  0
  -27.2835  -23.8424   20.0472 N   0  0  0  0  0  0  0  0  0  0  0  0
  -23.4547  -22.2688   23.9753 N   0  0  0  0  0  0  0  0  0  0  0  0
  -19.8460  -26.5602   23.2988 N   0  3  1  0  0  0  0  0  0  0  0  0
  -27.2869  -21.3891   22.7021 N   0  3  0  0  0  0  0  0  0  0  0  0
  -21.1775  -12.5638   23.4755 O   0  0  0  0  0  0  0  0  0  0  0  0
  -28.6302  -28.6736   18.3788 O   0  0  0  0  0  0  0  0  0  0  0  0
  -28.3626  -26.0244   20.7799 O   0  0  0  0  0  0  0  0  0  0  0  0
  -25.5090  -23.0885   21.3356 O   0  0  0  0  0  0  0  0  0  0  0  0
  -24.0005  -20.2878   24.9915 O   0  0  0  0  0  0  0  0  0  0  0  0
  -27.0571  -11.1281   20.2638 O   0  0  0  0  0  0  0  0  0  0  0  0
  -21.0438  -28.8000   20.5468 O   0  0  0  0  0  0  0  0  0  1  0  0
  -31.4216  -13.0893   17.5236 F   0  0  0  0  0  0  0  0  0  0  0  0
  -28.7036  -13.0371   21.3985 F   0  0  0  0  0  0  0  0  0  0  0  0
  1  2  1  0  0  0  0
  1  5  2  0  0  0  0
  2  6  2  0  0  0  0
  3  8  2  0  0  0  0
  3 18  1  0  0  0  0
  4  9  1  0  0  0  0
  4 18  2  0  0  0  0
  5 20  1  0  0  0  0
  6 22  1  0  0  0  0
  7 10  2  0  0  0  0
  7 21  1  0  0  0  0
  8 27  1  0  0  0  0
  9 27  2  0  0  0  0
 10 28  1  0  0  0  0
 11 12  2  0  0  0  0
 11 29  1  0  0  0  0
 12 30  1  0  0  0  0
 13 23  1  0  0  0  0
 13 28  2  0  0  0  0
 14 24  1  0  0  0  0
 14 25  2  0  0  0  0
 15 24  2  0  0  0  0
 15 26  1  0  0  0  0
 16 25  1  0  0  0  0
 16 26  2  0  0  0  0
 17 30  2  0  0  0  0
 17 31  1  0  0  0  0
 18 32  1  0  0  0  0
 19 32  1  0  0  0  0
 19 33  2  0  0  0  0
 19 36  1  0  0  0  0
 20 22  2  0  0  0  0
 20 41  1  0  0  0  0
 21 23  2  0  0  0  0
 21 42  1  0  0  0  0
 22 53  1  0  0  0  0
 23 43  1  0  0  0  0
 24 57  1  0  0  0  0
 25 63  1  0  0  0  0
 26 64  1  0  0  0  0
 27 84  1  0  0  0  0
 28 85  1  0  0  0  0
 29 31  2  0  0  0  0
 29 84  1  0  0  0  0
 30 86  1  0  0  0  0
 31 87  1  0  0  0  0
 32 68  2  0  0  0  0
 33 69  1  0  0  0  0
 33 72  1  0  0  0  0
 34 35  2  0  0  0  0
 34 44  1  0  0  0  0
 34 77  1  0  0  0  0
 36 73  1  0  0  0  0
 36 79  2  0  0  0  0
 37 54  1  0  0  0  0
 37 74  1  0  0  0  0
 37 80  2  0  0  0  0
 38 65  1  0  0  0  0
 38 70  1  0  0  0  0
 38 81  2  0  0  0  0
 39 66  1  0  0  0  0
 39 75  1  0  0  0  0
 39 82  2  0  0  0  0
 40 71  1  0  0  0  0
 40 76  1  0  0  0  0
 40 83  2  0  0  0  0
 41 45  1  0  0  0  0
 42 54  1  0  0  0  0
 43 70  1  0  0  0  0
 44 46  1  0  0  0  0
 45 48  1  0  0  0  0
 46 56  1  0  0  0  0
 47 49  1  0  0  0  0
 47 50  1  0  0  0  0
 48 53  1  0  0  0  0
 49 55  1  0  0  0  0
 50 71  1  0  0  0  0
 51 55  1  0  0  0  0
 51 71  1  0  0  0  0
 52 56  1  0  0  0  0
 52 77  1  0  0  0  0
 53 74  1  0  0  0  0
 54 70  1  0  0  0  0
 55 69  1  0  0  0  0
 56 85  1  0  0  0  0
 58 66  1  0  0  0  0
 59 67  1  0  0  0  0
 60 67  1  0  0  0  0
 61 67  1  0  0  0  0
 62 78  1  0  0  0  0
 63 76  1  0  0  0  0
 64 77  1  0  0  0  0
 65 67  1  0  0  0  0
 65 75  1  0  0  0  0
 66 78  1  0  0  0  0
 68 69  1  0  0  0  0
M  CHG  2  77   1  78   1
M  ISO  4  40 100  56 101  76 100  85 101
M  END
> <Batch ID>
0043

> <Smiles>
C=C1CC[101CH:1]([101O:1]c2ccc3c(c2)CN(C(=O)C(NC(=O)C(C)NC)C(C)(C)C)C(C(=O)NC2CCCc4ccccc42)C3)CN1Cc1cc(C)cc(C[100NH:0][100C:0](=O)N2CCCC(n3nc(-c4ccc(Oc5ccc(F)cc5F)cc4)c(C(N)=O)c3N)C2)c1

> <Shape>
0.211

> <Color>
0.070

> <Negative vol penalty>
0.000

$$$$

  -OEChem-04042322153D

 86 95  0     1  0  0  0  0  0999 V2000
  -16.6950  -30.0015   23.7032 C   0  0  0  0  0  0  0  0  0  0  0  0
  -17.0954  -28.6939   23.9589 C   0  0  0  0  0  0  0  0  0  0  0  0
  -32.6926  -17.4509   23.4230 C   0  0  0  0  0  0  0  0  0  0  0  0
  -22.6540  -10.2052   20.2635 C   0  0  0  0  0  0  0  0  0  0  0  0
  -24.3068   -9.4939   21.8758 C   0  0  0  0  0  0  0  0  0  0  0  0
  -17.5149  -30.8471   22.9572 C   0  0  0  0  0  0  0  0  0  0  0  0
  -18.3156  -28.2309   23.4677 C   0  0  0  0  0  0  0  0  0  0  0  0
  -23.6587  -23.7521   25.1133 C   0  0  0  0  0  0  0  0  0  0  0  0
  -31.9253  -18.2955   24.2252 C   0  0  0  0  0  0  0  0  0  0  0  0
  -32.0692  -16.5974   22.5127 C   0  0  0  0  0  0  0  0  0  0  0  0
  -21.9257   -9.0383   20.4953 C   0  0  0  0  0  0  0  0  0  0  0  0
  -23.5785   -8.3270   22.1076 C   0  0  0  0  0  0  0  0  0  0  0  0
  -24.3849  -22.6950   24.5667 C   0  0  0  0  0  0  0  0  0  0  0  0
  -19.7897   -7.8587   22.8360 C   0  0  0  0  0  0  0  0  0  0  0  0
  -18.4093   -7.9774   22.9970 C   0  0  0  0  0  0  0  0  0  0  0  0
  -25.7551  -24.2695   23.3573 C   0  0  0  0  0  0  0  0  0  0  0  0
  -18.0628   -6.5347   21.0903 C   0  0  0  0  0  0  0  0  0  0  0  0
  -23.8446  -10.4329   20.9538 C   0  0  0  0  0  0  0  0  0  0  0  0
  -24.1634  -12.9634   20.9039 C   0  0  0  0  0  0  0  0  0  0  0  0
  -18.7501  -30.3972   22.4648 C   0  0  0  0  0  0  0  0  0  0  0  0
  -23.9687  -25.0777   24.7770 C   0  0  0  0  0  0  0  0  0  0  0  0
  -19.1521  -29.0709   22.7132 C   0  0  0  0  0  0  0  0  0  0  0  0
  -25.0329  -25.3418   23.9030 C   0  0  0  0  0  0  0  0  0  0  0  0
  -30.5346  -18.2866   24.1171 C   0  0  0  0  0  0  0  0  0  0  0  0
  -29.9113  -17.4330   23.2068 C   0  0  0  0  0  0  0  0  0  0  0  0
  -30.6786  -16.5884   22.4046 C   0  0  0  0  0  0  0  0  0  0  0  0
  -22.3879   -8.0993   21.4173 C   0  0  0  0  0  0  0  0  0  0  0  0
  -25.4314  -22.9534   23.6863 C   0  0  0  0  0  0  0  0  0  0  0  0
  -20.3067   -7.0781   21.8020 C   0  0  0  0  0  0  0  0  0  0  0  0
  -17.5458   -7.3154   22.1242 C   0  0  0  0  0  0  0  0  0  0  0  0
  -19.4433   -6.4161   20.9292 C   0  0  0  0  0  0  0  0  0  0  0  0
  -24.5976  -11.6378   20.7144 C   0  0  0  0  0  0  0  0  0  0  0  0
  -25.2402  -13.7332   20.5374 C   0  0  0  0  0  0  0  0  0  0  0  0
  -27.8514  -20.6170   24.1924 C   0  0  0  0  0  0  0  0  0  0  0  0
  -22.8996  -13.4551   21.3697 C   0  0  0  0  0  0  0  0  0  0  0  0
  -22.4125  -27.4517   23.3466 C   0  0  0  0  0  0  0  0  0  0  0  0
  -25.0446  -29.1567   24.1756 C   0  0  0  0  0  0  0  0  0  0  0  0
  -28.6151  -28.6390   24.2080 C   0  0  0  0  0  0  0  0  0  0  0  0
  -30.7007  -14.8201   20.6104 C   0  0  0  0  0  0  0  0  0  0  0  0
  -19.5807  -31.3335   21.6233 C   0  0  0  0  0  0  0  0  0  0  0  0
  -23.1930  -26.2079   25.3960 C   0  0  0  0  0  0  0  0  0  0  0  0
  -25.4190  -26.7479   23.5256 C   0  0  0  0  0  0  0  0  0  0  0  0
  -21.0288  -30.8804   21.4568 C   0  0  0  0  0  0  0  0  0  0  0  0
  -29.8195  -21.7978   22.3340 C   0  0  0  0  0  0  0  0  0  0  0  0
  -29.5470  -12.4710   18.1963 C   0  0  0  0  0  0  0  0  0  0  0  0
  -21.0869  -29.3979   21.1022 C   0  0  0  0  0  0  0  0  0  0  0  0
  -28.3121  -21.9073   22.1121 C   0  0  0  0  0  0  0  0  0  0  0  0
  -28.1208  -12.1539   18.6518 C   0  0  0  0  0  0  0  0  0  0  0  0
  -30.1867  -21.3095   23.7325 C   0  0  0  0  0  0  0  0  0  0  0  0
  -30.4898  -12.6705   19.3817 C   0  0  0  0  0  0  0  0  0  0  0  0
  -28.6120  -13.3355   20.8312 C   0  0  0  0  0  0  0  0  0  0  0  0
  -20.4799  -28.5395   22.2185 C   0  0  1  0  0  0  0  0  0  0  0  0
  -27.5317  -21.8899   23.4203 C   0  0  1  0  0  0  0  0  0  1  0  0
  -23.2644  -27.4972   24.5835 C   0  0  1  0  0  0  0  0  0  0  0  0
  -27.6116  -13.1903   19.6727 C   0  0  2  0  0  0  0  0  0  0  0  0
  -28.4189  -17.4271   23.0943 C   0  0  0  0  0  0  0  0  0  0  0  0
  -30.3997  -29.6668   25.6418 C   0  0  0  0  0  0  0  0  0  0  0  0
  -25.3283  -31.1535   21.8860 C   0  0  0  0  0  0  0  0  0  0  0  0
  -27.8040  -31.1219   22.2577 C   0  0  0  0  0  0  0  0  0  0  0  0
  -26.2832  -31.9230   24.0656 C   0  0  0  0  0  0  0  0  0  0  0  0
  -29.5956  -25.9893   25.0892 C   0  0  0  0  0  0  0  0  0  0  0  0
  -29.7327  -19.2058   24.9924 C   0  0  0  0  0  0  0  0  0  0  0  0
  -26.3739  -29.4548   23.5252 C   0  0  1  0  0  0  0  0  0  0  0  0
  -29.4966  -28.4616   25.4310 C   0  0  2  0  0  0  0  0  0  0  0  0
  -26.4332  -30.8892   22.9282 C   0  0  0  0  0  0  0  0  0  0  0  0
  -25.8524  -11.5659   20.2624 N   0  0  0  0  0  0  0  0  0  0  0  0
  -26.2159  -12.8560   20.1648 N   0  0  0  0  0  0  0  0  0  0  0  0
  -29.2216  -20.3496   24.2559 N   0  0  0  0  0  0  0  0  0  0  0  0
  -24.6264  -27.8187   24.1522 N   0  0  0  0  0  0  0  0  0  0  0  0
  -29.9446  -13.6689   20.3041 N   0  0  0  0  0  0  0  0  0  0  0  0
  -25.4383  -15.0680   20.5007 N   0  0  0  0  0  0  0  0  0  0  0  0
  -21.9036  -12.5272   21.7033 N   0  0  0  0  0  0  0  0  0  0  0  0
  -30.0665  -15.7138   21.4728 N   0  0  0  0  0  0  0  0  0  0  0  0
  -21.4127  -28.4052   23.3168 N   0  0  0  0  0  0  0  0  0  0  0  0
  -27.3919  -29.1852   24.5348 N   0  0  0  0  0  0  0  0  0  0  0  0
  -30.3542  -27.2522   25.2803 N   0  3  0  0  0  0  0  0  0  0  0  0
  -26.9723  -19.9262   24.7043 O   0  0  0  0  0  0  0  0  0  0  0  0
  -22.6552  -14.6812   21.4710 O   0  0  0  0  0  0  0  0  0  0  0  0
  -22.6459  -26.6146   22.4826 O   0  0  0  0  0  0  0  0  0  0  0  0
  -24.4043  -30.0761   24.6919 O   0  0  0  0  0  0  0  0  0  0  0  0
  -28.9769  -28.3279   23.0753 O   0  0  0  0  0  0  0  0  0  0  0  0
  -31.8165  -15.0130   20.1207 O   0  0  0  0  0  0  0  0  0  0  0  0
  -21.6774   -6.9607   21.6439 O   0  0  0  0  0  0  0  0  0  0  0  0
  -26.1415  -21.9234   23.1508 O   0  0  0  0  0  0  0  0  0  1  0  0
  -16.2202   -7.4282   22.2799 F   0  0  0  0  0  0  0  0  0  0  0  0
  -19.9340   -5.6638   19.9347 F   0  0  0  0  0  0  0  0  0  0  0  0
  1  2  1  0  0  0  0
  1  6  2  0  0  0  0
  2  7  2  0  0  0  0
  3  9  2  0  0  0  0
  3 10  1  0  0  0  0
  4 11  2  0  0  0  0
  4 18  1  0  0  0  0
  5 12  1  0  0  0  0
  5 18  2  0  0  0  0
  6 20  1  0  0  0  0
  7 22  1  0  0  0  0
  8 13  2  0  0  0  0
  8 21  1  0  0  0  0
  9 24  1  0  0  0  0
 10 26  2  0  0  0  0
 11 27  1  0  0  0  0
 12 27  2  0  0  0  0
 13 28  1  0  0  0  0
 14 15  2  0  0  0  0
 14 29  1  0  0  0  0
 15 30  1  0  0  0  0
 16 23  1  0  0  0  0
 16 28  2  0  0  0  0
 17 30  2  0  0  0  0
 17 31  1  0  0  0  0
 18 32  1  0  0  0  0
 19 32  1  0  0  0  0
 19 33  2  0  0  0  0
 19 35  1  0  0  0  0
 20 22  2  0  0  0  0
 20 40  1  0  0  0  0
 21 23  2  0  0  0  0
 21 41  1  0  0  0  0
 22 52  1  0  0  0  0
 23 42  1  0  0  0  0
 24 25  2  0  0  0  0
 24 62  1  0  0  0  0
 25 26  1  0  0  0  0
 25 56  1  0  0  0  0
 26 73  1  0  0  0  0
 27 83  1  0  0  0  0
 28 84  1  0  0  0  0
 29 31  2  0  0  0  0
 29 83  1  0  0  0  0
 30 85  1  0  0  0  0
 31 86  1  0  0  0  0
 32 66  2  0  0  0  0
 33 67  1  0  0  0  0
 33 71  1  0  0  0  0
 34 53  1  0  0  0  0
 34 68  1  0  0  0  0
 34 77  2  0  0  0  0
 35 72  1  0  0  0  0
 35 78  2  0  0  0  0
 36 54  1  0  0  0  0
 36 74  1  0  0  0  0
 36 79  2  0  0  0  0
 37 63  1  0  0  0  0
 37 69  1  0  0  0  0
 37 80  2  0  0  0  0
 38 64  1  0  0  0  0
 38 75  1  0  0  0  0
 38 81  2  0  0  0  0
 39 70  1  0  0  0  0
 39 73  1  0  0  0  0
 39 82  2  0  0  0  0
 40 43  1  0  0  0  0
 41 54  1  0  0  0  0
 42 69  1  0  0  0  0
 43 46  1  0  0  0  0
 44 47  1  0  0  0  0
 44 49  1  0  0  0  0
 45 48  1  0  0  0  0
 45 50  1  0  0  0  0
 46 52  1  0  0  0  0
 47 53  1  0  0  0  0
 48 55  1  0  0  0  0
 49 68  1  0  0  0  0
 50 70  1  0  0  0  0
 51 55  1  0  0  0  0
 51 70  1  0  0  0  0
 52 74  1  0  0  0  0
 53 84  1  0  0  0  0
 54 69  1  0  0  0  0
 55 67  1  0  0  0  0
 57 64  1  0  0  0  0
 58 65  1  0  0  0  0
 59 65  1  0  0  0  0
 60 65  1  0  0  0  0
 61 76  1  0  0  0  0
 62 68  1  0  0  0  0
 63 65  1  0  0  0  0
 63 75  1  0  0  0  0
 64 76  1  0  0  0  0
 66 67  1  0  0  0  0
M  CHG  1  76   1
M  ISO  4  39 100  53 101  73 100  84 101
M  END
> <Batch ID>
0043

> <Smiles>
CNC(C)C(=O)NC(C(=O)N1Cc2cc([101O:1][101CH:1]3CCCN(Cc4cccc([100NH:0][100C:0](=O)N5CCCC(n6nc(-c7ccc(Oc8ccc(F)cc8F)cc7)c(C(N)=O)c6N)C5)c4C)C3=O)ccc2CC1C(=O)NC1CCCc2ccccc21)C(C)(C)C

> <Shape>
0.266

> <Color>
0.218

> <Negative vol penalty>
0.000

$$$$

  -OEChem-04042322153D

 87 96  0     1  0  0  0  0  0999 V2000
  -28.7082  -37.3754   21.4631 C   0  0  0  0  0  0  0  0  0  0  0  0
  -29.1540  -36.2573   22.1606 C   0  0  0  0  0  0  0  0  0  0  0  0
  -22.6898  -10.4481   20.8291 C   0  0  0  0  0  0  0  0  0  0  0  0
  -24.5311   -9.0145   21.4549 C   0  0  0  0  0  0  0  0  0  0  0  0
  -27.4535  -37.3620   20.8553 C   0  0  0  0  0  0  0  0  0  0  0  0
  -28.3447  -35.1254   22.2517 C   0  0  0  0  0  0  0  0  0  0  0  0
  -30.6136  -28.7386   19.8119 C   0  0  0  0  0  0  0  0  0  0  0  0
  -28.8234  -19.9028   20.9402 C   0  0  0  0  0  0  0  0  0  0  0  0
  -29.0070  -18.5265   20.8077 C   0  0  0  0  0  0  0  0  0  0  0  0
  -21.8684   -9.7938   21.7471 C   0  0  0  0  0  0  0  0  0  0  0  0
  -23.7097   -8.3602   22.3729 C   0  0  0  0  0  0  0  0  0  0  0  0
  -31.0572  -27.4401   19.5603 C   0  0  0  0  0  0  0  0  0  0  0  0
  -21.2987   -5.9907   22.3121 C   0  0  0  0  0  0  0  0  0  0  0  0
  -21.3465   -4.5971   22.3462 C   0  0  0  0  0  0  0  0  0  0  0  0
  -28.8816  -26.5697   20.1579 C   0  0  0  0  0  0  0  0  0  0  0  0
  -26.6126  -18.2051   20.8272 C   0  0  0  0  0  0  0  0  0  0  0  0
  -22.0480   -4.6777   24.6567 C   0  0  0  0  0  0  0  0  0  0  0  0
  -24.0212  -10.0584   20.6829 C   0  0  0  0  0  0  0  0  0  0  0  0
  -24.6820  -10.8289   18.3426 C   0  0  0  0  0  0  0  0  0  0  0  0
  -26.6324  -36.2258   20.9308 C   0  0  0  0  0  0  0  0  0  0  0  0
  -29.2962  -28.9591   20.2231 C   0  0  0  0  0  0  0  0  0  0  0  0
  -27.0773  -35.0972   21.6455 C   0  0  0  0  0  0  0  0  0  0  0  0
  -28.4280  -27.8692   20.3994 C   0  0  0  0  0  0  0  0  0  0  0  0
  -27.5343  -20.4303   21.0163 C   0  0  0  0  0  0  0  0  0  0  0  0
  -27.9016  -17.6776   20.7512 C   0  0  0  0  0  0  0  0  0  0  0  0
  -22.3783   -8.7498   22.5190 C   0  0  0  0  0  0  0  0  0  0  0  0
  -30.1934  -26.3584   19.7332 C   0  0  0  0  0  0  0  0  0  0  0  0
  -21.6257   -6.7278   23.4503 C   0  0  0  0  0  0  0  0  0  0  0  0
  -21.7211   -3.9406   23.5185 C   0  0  0  0  0  0  0  0  0  0  0  0
  -22.0003   -6.0713   24.6226 C   0  0  0  0  0  0  0  0  0  0  0  0
  -26.4289  -19.5815   20.9597 C   0  0  0  0  0  0  0  0  0  0  0  0
  -24.8701  -10.7335   19.7344 C   0  0  0  0  0  0  0  0  0  0  0  0
  -25.7536  -11.5658   17.9009 C   0  0  0  0  0  0  0  0  0  0  0  0
  -29.0362  -23.5187   20.2721 C   0  0  0  0  0  0  0  0  0  0  0  0
  -23.6323  -10.2989   17.5222 C   0  0  0  0  0  0  0  0  0  0  0  0
  -26.6686  -31.4517   21.2022 C   0  0  0  0  0  0  0  0  0  0  0  0
  -25.2875  -29.3398   19.4578 C   0  0  0  0  0  0  0  0  0  0  0  0
  -24.2402  -27.0473   17.1590 C   0  0  0  0  0  0  0  0  0  0  0  0
  -29.2994  -15.5935   20.5297 C   0  0  0  0  0  0  0  0  0  0  0  0
  -25.2644  -36.2754   20.2977 C   0  0  0  0  0  0  0  0  0  0  0  0
  -28.7933  -30.3354   20.5647 C   0  0  0  0  0  0  0  0  0  0  0  0
  -27.0295  -28.1511   20.8765 C   0  0  0  0  0  0  0  0  0  0  0  0
  -24.6236  -34.9009   20.1237 C   0  0  0  0  0  0  0  0  0  0  0  0
  -29.4332  -22.4038   17.1743 C   0  0  0  0  0  0  0  0  0  0  0  0
  -28.3391  -21.5687   17.8317 C   0  0  0  0  0  0  0  0  0  0  0  0
  -30.3146  -12.5559   18.9741 C   0  0  0  0  0  0  0  0  0  0  0  0
  -24.7634  -34.0809   21.4023 C   0  0  0  0  0  0  0  0  0  0  0  0
  -30.3646  -23.1176   18.1493 C   0  0  0  0  0  0  0  0  0  0  0  0
  -29.0154  -11.7551   18.8604 C   0  0  0  0  0  0  0  0  0  0  0  0
  -27.4062  -22.3827   18.7204 C   0  0  0  0  0  0  0  0  0  0  0  0
  -30.3698  -13.3662   20.2680 C   0  0  0  0  0  0  0  0  0  0  0  0
  -27.9104  -13.4330   20.3934 C   0  0  0  0  0  0  0  0  0  0  0  0
  -26.2387  -33.8415   21.7455 C   0  0  1  0  0  0  0  0  0  0  0  0
  -29.6622  -24.1493   19.0317 C   0  0  2  0  0  0  0  0  0  1  0  0
  -27.3142  -30.5466   20.1946 C   0  0  1  0  0  0  0  0  0  0  0  0
  -27.7802  -12.6513   19.0760 C   0  0  2  0  0  0  0  0  0  0  0  0
  -22.2027  -26.3249   15.8845 C   0  0  0  0  0  0  0  0  0  0  0  0
  -24.1893  -28.0108   21.9741 C   0  0  0  0  0  0  0  0  0  0  0  0
  -22.7596  -26.5733   20.5051 C   0  0  0  0  0  0  0  0  0  0  0  0
  -22.4556  -29.0492   20.5008 C   0  0  0  0  0  0  0  0  0  0  0  0
  -25.5277  -27.6099   14.5542 C   0  0  0  0  0  0  0  0  0  0  0  0
  -27.3798  -21.9170   21.1582 C   0  0  0  0  0  0  0  0  0  0  0  0
  -24.5072  -28.0504   19.4122 C   0  0  1  0  0  0  0  0  0  0  0  0
  -23.4470  -27.1993   15.8737 C   0  0  2  0  0  0  0  0  0  0  0  0
  -23.5062  -27.9213   20.5948 C   0  0  0  0  0  0  0  0  0  0  0  0
  -25.9745  -11.3596   20.1496 N   0  0  0  0  0  0  0  0  0  0  0  0
  -26.4900  -11.8554   19.0118 N   0  0  0  0  0  0  0  0  0  0  0  0
  -27.9806  -22.6368   20.0424 N   0  0  0  0  0  0  0  0  0  0  0  0
  -26.4880  -29.3275   20.1783 N   0  0  0  0  0  0  0  0  0  0  0  0
  -29.1694  -14.1943   20.4025 N   0  0  0  0  0  0  0  0  0  0  0  0
  -26.1285  -11.9877   16.6746 N   0  0  0  0  0  0  0  0  0  0  0  0
  -22.6088   -9.5656   18.1379 N   0  0  0  0  0  0  0  0  0  0  0  0
  -28.0884  -16.2794   20.6177 N   0  0  0  0  0  0  0  0  0  0  0  0
  -26.7891  -32.7967   20.9089 N   0  0  0  0  0  0  0  0  0  0  0  0
  -23.8848  -27.9965   18.0938 N   0  0  0  0  0  0  0  0  0  0  0  0
  -24.2820  -26.8138   14.7010 N   0  3  0  0  0  0  0  0  0  0  0  0
  -29.4653  -23.7911   21.3964 O   0  0  0  0  0  0  0  0  0  0  0  0
  -23.6116  -10.4565   16.2779 O   0  0  0  0  0  0  0  0  0  0  0  0
  -26.1011  -30.9668   22.1740 O   0  0  0  0  0  0  0  0  0  0  0  0
  -24.8441  -30.3340   18.8762 O   0  0  0  0  0  0  0  0  0  0  0  0
  -25.0876  -26.1715   17.3192 O   0  0  0  0  0  0  0  0  0  0  0  0
  -30.4028  -16.1453   20.5311 O   0  0  0  0  0  0  0  0  0  0  0  0
  -21.5771   -8.1113   23.4150 O   0  0  0  0  0  0  0  0  0  0  0  0
  -30.6317  -25.0937   19.4815 O   0  0  0  0  0  0  0  0  0  1  0  0
  -21.7654   -2.6022   23.5515 F   0  0  0  0  0  0  0  0  0  0  0  0
  -22.3144   -6.7740   25.7195 F   0  0  0  0  0  0  0  0  0  0  0  0
  -24.8193  -20.1982   21.0513 Cl  0  0  0  0  0  0  0  0  0  0  0  0
  1  2  1  0  0  0  0
  1  5  2  0  0  0  0
  2  6  2  0  0  0  0
  3 10  2  0  0  0  0
  3 18  1  0  0  0  0
  4 11  1  0  0  0  0
  4 18  2  0  0  0  0
  5 20  1  0  0  0  0
  6 22  1  0  0  0  0
  7 12  2  0  0  0  0
  7 21  1  0  0  0  0
  8  9  2  0  0  0  0
  8 24  1  0  0  0  0
  9 25  1  0  0  0  0
 10 26  1  0  0  0  0
 11 26  2  0  0  0  0
 12 27  1  0  0  0  0
 13 14  2  0  0  0  0
 13 28  1  0  0  0  0
 14 29  1  0  0  0  0
 15 23  1  0  0  0  0
 15 27  2  0  0  0  0
 16 25  2  0  0  0  0
 16 31  1  0  0  0  0
 17 29  2  0  0  0  0
 17 30  1  0  0  0  0
 18 32  1  0  0  0  0
 19 32  1  0  0  0  0
 19 33  2  0  0  0  0
 19 35  1  0  0  0  0
 20 22  2  0  0  0  0
 20 40  1  0  0  0  0
 21 23  2  0  0  0  0
 21 41  1  0  0  0  0
 22 53  1  0  0  0  0
 23 42  1  0  0  0  0
 24 31  2  0  0  0  0
 24 62  1  0  0  0  0
 25 73  1  0  0  0  0
 26 83  1  0  0  0  0
 27 84  1  0  0  0  0
 28 30  2  0  0  0  0
 28 83  1  0  0  0  0
 29 85  1  0  0  0  0
 30 86  1  0  0  0  0
 31 87  1  0  0  0  0
 32 66  2  0  0  0  0
 33 67  1  0  0  0  0
 33 71  1  0  0  0  0
 34 54  1  0  0  0  0
 34 68  1  0  0  0  0
 34 77  2  0  0  0  0
 35 72  1  0  0  0  0
 35 78  2  0  0  0  0
 36 55  1  0  0  0  0
 36 74  1  0  0  0  0
 36 79  2  0  0  0  0
 37 63  1  0  0  0  0
 37 69  1  0  0  0  0
 37 80  2  0  0  0  0
 38 64  1  0  0  0  0
 38 75  1  0  0  0  0
 38 81  2  0  0  0  0
 39 70  1  0  0  0  0
 39 73  1  0  0  0  0
 39 82  2  0  0  0  0
 40 43  1  0  0  0  0
 41 55  1  0  0  0  0
 42 69  1  0  0  0  0
 43 47  1  0  0  0  0
 44 45  1  0  0  0  0
 44 48  1  0  0  0  0
 45 50  1  0  0  0  0
 46 49  1  0  0  0  0
 46 51  1  0  0  0  0
 47 53  1  0  0  0  0
 48 54  1  0  0  0  0
 49 56  1  0  0  0  0
 50 68  1  0  0  0  0
 51 70  1  0  0  0  0
 52 56  1  0  0  0  0
 52 70  1  0  0  0  0
 53 74  1  0  0  0  0
 54 84  1  0  0  0  0
 55 69  1  0  0  0  0
 56 67  1  0  0  0  0
 57 64  1  0  0  0  0
 58 65  1  0  0  0  0
 59 65  1  0  0  0  0
 60 65  1  0  0  0  0
 61 76  1  0  0  0  0
 62 68  1  0  0  0  0
 63 65  1  0  0  0  0
 63 75  1  0  0  0  0
 64 76  1  0  0  0  0
 66 67  1  0  0  0  0
M  CHG  1  76   1
M  ISO  4  39 100  54 101  73 100  84 101
M  END
> <Batch ID>
0043

> <Smiles>
CNC(C)C(=O)NC(C(=O)N1Cc2cc([101O:1][101CH:1]3CCCCN(Cc4ccc([100NH:0][100C:0](=O)N5CCCC(n6nc(-c7ccc(Oc8ccc(F)cc8F)cc7)c(C(N)=O)c6N)C5)cc4Cl)C3=O)ccc2CC1C(=O)NC1CCCc2ccccc21)C(C)(C)C

> <Shape>
0.297

> <Color>
0.088

> <Negative vol penalty>
0.000

$$$$

  -OEChem-04042322153D

 86 95  0     1  0  0  0  0  0999 V2000
  -30.3941  -23.4802   16.8449 C   0  0  0  0  0  0  0  0  0  0  0  0
  -29.1144  -23.9005   17.1892 C   0  0  0  0  0  0  0  0  0  0  0  0
  -27.4292  -24.2734   21.9124 C   0  0  0  0  0  0  0  0  0  0  0  0
  -25.3256  -12.6958   19.3532 C   0  0  0  0  0  0  0  0  0  0  0  0
  -25.3112  -13.9224   21.4347 C   0  0  0  0  0  0  0  0  0  0  0  0
  -31.5040  -24.0947   17.4209 C   0  0  0  0  0  0  0  0  0  0  0  0
  -28.9443  -24.9433   18.1005 C   0  0  0  0  0  0  0  0  0  0  0  0
  -24.3617  -26.6050   18.7654 C   0  0  0  0  0  0  0  0  0  0  0  0
  -26.3312  -24.2668   22.7726 C   0  0  0  0  0  0  0  0  0  0  0  0
  -28.0190  -23.0701   21.5251 C   0  0  0  0  0  0  0  0  0  0  0  0
  -25.1362  -11.5047   20.0538 C   0  0  0  0  0  0  0  0  0  0  0  0
  -25.1218  -12.7312   22.1353 C   0  0  0  0  0  0  0  0  0  0  0  0
  -23.3876  -25.8772   19.4475 C   0  0  0  0  0  0  0  0  0  0  0  0
  -22.5740   -9.8605   21.5250 C   0  0  0  0  0  0  0  0  0  0  0  0
  -21.6245   -8.9640   21.0348 C   0  0  0  0  0  0  0  0  0  0  0  0
  -23.6825  -27.2992   21.3737 C   0  0  0  0  0  0  0  0  0  0  0  0
  -23.3426   -7.2852   20.7769 C   0  0  0  0  0  0  0  0  0  0  0  0
  -25.4131  -13.9047   20.0437 C   0  0  0  0  0  0  0  0  0  0  0  0
  -24.7659  -15.6880   18.3382 C   0  0  0  0  0  0  0  0  0  0  0  0
  -31.3462  -25.1372   18.3491 C   0  0  0  0  0  0  0  0  0  0  0  0
  -25.0124  -27.6804   19.3872 C   0  0  0  0  0  0  0  0  0  0  0  0
  -30.0523  -25.5923   18.6747 C   0  0  0  0  0  0  0  0  0  0  0  0
  -24.6627  -28.0407   20.6964 C   0  0  0  0  0  0  0  0  0  0  0  0
  -25.8230  -23.0570   23.2456 C   0  0  0  0  0  0  0  0  0  0  0  0
  -26.4128  -21.8537   22.8583 C   0  0  0  0  0  0  0  0  0  0  0  0
  -27.5108  -21.8603   21.9980 C   0  0  0  0  0  0  0  0  0  0  0  0
  -25.0343  -11.5223   21.4448 C   0  0  0  0  0  0  0  0  0  0  0  0
  -23.0499  -26.2225   20.7529 C   0  0  0  0  0  0  0  0  0  0  0  0
  -23.9079   -9.4693   21.6412 C   0  0  0  0  0  0  0  0  0  0  0  0
  -22.0088   -7.6764   20.6608 C   0  0  0  0  0  0  0  0  0  0  0  0
  -24.2922   -8.1817   21.2672 C   0  0  0  0  0  0  0  0  0  0  0  0
  -25.6093  -15.1355   19.3206 C   0  0  0  0  0  0  0  0  0  0  0  0
  -25.3909  -16.8525   17.9644 C   0  0  0  0  0  0  0  0  0  0  0  0
  -22.2667  -22.6714   24.4388 C   0  0  0  0  0  0  0  0  0  0  0  0
  -21.8335  -21.4898   24.9035 C   0  0  0  0  0  0  0  0  0  0  0  0
  -23.5280  -15.1928   17.8107 C   0  0  0  0  0  0  0  0  0  0  0  0
  -28.0217  -28.3248   20.1823 C   0  0  0  0  0  0  0  0  0  0  0  0
  -26.7809  -31.2120   20.9864 C   0  0  0  0  0  0  0  0  0  0  0  0
  -23.8134  -32.4366   22.6332 C   0  0  0  0  0  0  0  0  0  0  0  0
  -29.2209  -20.5027   20.7415 C   0  0  0  0  0  0  0  0  0  0  0  0
  -32.5822  -25.7722   18.9360 C   0  0  0  0  0  0  0  0  0  0  0  0
  -26.0418  -28.4721   18.6285 C   0  0  0  0  0  0  0  0  0  0  0  0
  -25.3172  -29.1994   21.4017 C   0  0  0  0  0  0  0  0  0  0  0  0
  -21.6415  -23.9840   24.8259 C   0  0  0  0  0  0  0  0  0  0  0  0
  -32.2982  -26.5572   20.2125 C   0  0  0  0  0  0  0  0  0  0  0  0
  -21.3093  -24.8002   23.5826 C   0  0  0  0  0  0  0  0  0  0  0  0
  -29.7400  -18.8311   17.6409 C   0  0  0  0  0  0  0  0  0  0  0  0
  -31.1201  -27.4949   19.9947 C   0  0  0  0  0  0  0  0  0  0  0  0
  -28.6590  -17.7479   17.6277 C   0  0  0  0  0  0  0  0  0  0  0  0
  -30.3064  -19.0499   19.0427 C   0  0  0  0  0  0  0  0  0  0  0  0
  -28.2232  -18.2291   20.0701 C   0  0  0  0  0  0  0  0  0  0  0  0
  -23.0101  -23.4735   22.2741 C   0  0  0  0  0  0  0  0  0  0  0  0
  -29.8423  -26.7041   19.6866 C   0  0  1  0  0  0  0  0  0  0  0  0
  -27.0061  -29.2261   19.5390 C   0  0  1  0  0  0  0  0  0  0  0  0
  -27.5767  -18.0187   18.6911 C   0  0  2  0  0  0  0  0  0  0  0  0
  -22.5006  -24.8685   22.6272 C   0  0  1  0  0  0  0  0  0  1  0  0
  -25.8638  -20.5581   23.3682 C   0  0  0  0  0  0  0  0  0  0  0  0
  -22.6098  -34.6272   22.4097 C   0  0  0  0  0  0  0  0  0  0  0  0
  -28.4861  -32.0614   23.3699 C   0  0  0  0  0  0  0  0  0  0  0  0
  -26.5034  -33.3077   24.2553 C   0  0  0  0  0  0  0  0  0  0  0  0
  -27.5033  -33.9538   22.0631 C   0  0  0  0  0  0  0  0  0  0  0  0
  -21.2534  -31.0970   21.9923 C   0  0  0  0  0  0  0  0  0  0  0  0
  -24.6411  -23.0785   24.1696 C   0  0  0  0  0  0  0  0  0  0  0  0
  -26.1800  -31.8065   22.2372 C   0  0  1  0  0  0  0  0  0  0  0  0
  -22.6508  -33.1672   21.9859 C   0  0  2  0  0  0  0  0  0  0  0  0
  -27.1665  -32.7545   22.9759 C   0  0  0  0  0  0  0  0  0  0  0  0
  -26.6881  -15.8871   19.5560 N   0  0  0  0  0  0  0  0  0  0  0  0
  -26.5267  -16.9238   18.7161 N   0  0  0  0  0  0  0  0  0  0  0  0
  -26.3222  -29.9388   20.6201 N   0  0  0  0  0  0  0  0  0  0  0  0
  -29.2241  -19.3050   19.9958 N   0  0  0  0  0  0  0  0  0  0  0  0
  -25.0743  -17.8122   17.0694 N   0  0  0  0  0  0  0  0  0  0  0  0
  -22.3342  -15.5737   18.4385 N   0  0  0  0  0  0  0  0  0  0  0  0
  -28.1251  -20.6499   21.5913 N   0  0  0  0  0  0  0  0  0  0  0  0
  -28.8030  -27.6252   19.2825 N   0  0  0  0  0  0  0  0  0  0  0  0
  -24.9327  -32.4432   21.8280 N   0  0  0  0  0  0  0  0  0  0  0  0
  -23.3609  -22.6639   23.4985 N   0  3  1  0  0  0  0  0  0  0  0  0
  -21.3598  -32.5298   22.3704 N   0  3  0  0  0  0  0  0  0  0  0  0
  -23.4829  -14.4219   16.8222 O   0  0  0  0  0  0  0  0  0  0  0  0
  -28.0924  -28.2694   21.4044 O   0  0  0  0  0  0  0  0  0  0  0  0
  -27.6210  -31.8567   20.3537 O   0  0  0  0  0  0  0  0  0  0  0  0
  -23.7374  -31.9155   23.7437 O   0  0  0  0  0  0  0  0  0  0  0  0
  -30.1096  -21.3489   20.6141 O   0  0  0  0  0  0  0  0  0  0  0  0
  -24.8493  -10.3602   22.1288 O   0  0  0  0  0  0  0  0  0  0  0  0
  -22.1000  -25.5134   21.4212 O   0  0  0  0  0  0  0  0  0  1  0  0
  -21.0965   -6.8151   20.1915 F   0  0  0  0  0  0  0  0  0  0  0  0
  -25.5719   -7.7997   21.3776 F   0  0  0  0  0  0  0  0  0  0  0  0
  1  2  1  0  0  0  0
  1  6  2  0  0  0  0
  2  7  2  0  0  0  0
  3  9  2  0  0  0  0
  3 10  1  0  0  0  0
  4 11  2  0  0  0  0
  4 18  1  0  0  0  0
  5 12  1  0  0  0  0
  5 18  2  0  0  0  0
  6 20  1  0  0  0  0
  7 22  1  0  0  0  0
  8 13  2  0  0  0  0
  8 21  1  0  0  0  0
  9 24  1  0  0  0  0
 10 26  2  0  0  0  0
 11 27  1  0  0  0  0
 12 27  2  0  0  0  0
 13 28  1  0  0  0  0
 14 15  2  0  0  0  0
 14 29  1  0  0  0  0
 15 30  1  0  0  0  0
 16 23  1  0  0  0  0
 16 28  2  0  0  0  0
 17 30  2  0  0  0  0
 17 31  1  0  0  0  0
 18 32  1  0  0  0  0
 19 32  1  0  0  0  0
 19 33  2  0  0  0  0
 19 36  1  0  0  0  0
 20 22  2  0  0  0  0
 20 41  1  0  0  0  0
 21 23  2  0  0  0  0
 21 42  1  0  0  0  0
 22 53  1  0  0  0  0
 23 43  1  0  0  0  0
 24 25  2  0  0  0  0
 24 63  1  0  0  0  0
 25 26  1  0  0  0  0
 25 57  1  0  0  0  0
 26 73  1  0  0  0  0
 27 83  1  0  0  0  0
 28 84  1  0  0  0  0
 29 31  2  0  0  0  0
 29 83  1  0  0  0  0
 30 85  1  0  0  0  0
 31 86  1  0  0  0  0
 32 67  2  0  0  0  0
 33 68  1  0  0  0  0
 33 71  1  0  0  0  0
 34 35  2  0  0  0  0
 34 44  1  0  0  0  0
 34 76  1  0  0  0  0
 36 72  1  0  0  0  0
 36 78  2  0  0  0  0
 37 54  1  0  0  0  0
 37 74  1  0  0  0  0
 37 79  2  0  0  0  0
 38 64  1  0  0  0  0
 38 69  1  0  0  0  0
 38 80  2  0  0  0  0
 39 65  1  0  0  0  0
 39 75  1  0  0  0  0
 39 81  2  0  0  0  0
 40 70  1  0  0  0  0
 40 73  1  0  0  0  0
 40 82  2  0  0  0  0
 41 45  1  0  0  0  0
 42 54  1  0  0  0  0
 43 69  1  0  0  0  0
 44 46  1  0  0  0  0
 45 48  1  0  0  0  0
 46 56  1  0  0  0  0
 47 49  1  0  0  0  0
 47 50  1  0  0  0  0
 48 53  1  0  0  0  0
 49 55  1  0  0  0  0
 50 70  1  0  0  0  0
 51 55  1  0  0  0  0
 51 70  1  0  0  0  0
 52 56  1  0  0  0  0
 52 76  1  0  0  0  0
 53 74  1  0  0  0  0
 54 69  1  0  0  0  0
 55 68  1  0  0  0  0
 56 84  1  0  0  0  0
 58 65  1  0  0  0  0
 59 66  1  0  0  0  0
 60 66  1  0  0  0  0
 61 66  1  0  0  0  0
 62 77  1  0  0  0  0
 63 76  1  0  0  0  0
 64 66  1  0  0  0  0
 64 75  1  0  0  0  0
 65 77  1  0  0  0  0
 67 68  1  0  0  0  0
M  CHG  2  76   1  77   1
M  ISO  4  40 100  56 101  73 100  84 101
M  END
> <Batch ID>
0043

> <Smiles>
C=C1CC[101CH:1]([101O:1]c2ccc3c(c2)CN(C(=O)C(NC(=O)C(C)NC)C(C)(C)C)C(C(=O)NC2CCCc4ccccc42)C3)CN1Cc1cccc([100NH:0][100C:0](=O)N2CCCC(n3nc(-c4ccc(Oc5ccc(F)cc5F)cc4)c(C(N)=O)c3N)C2)c1C

> <Shape>
0.252

> <Color>
0.065

> <Negative vol penalty>
0.000

$$$$

  -OEChem-04042322153D

 88 97  0     1  0  0  0  0  0999 V2000
  -31.4277  -35.2077   23.3675 C   0  0  0  0  0  0  0  0  0  0  0  0
  -31.2783  -33.8710   23.0121 C   0  0  0  0  0  0  0  0  0  0  0  0
  -23.3750   -9.9400   20.8122 C   0  0  0  0  0  0  0  0  0  0  0  0
  -24.8731  -10.0559   22.7041 C   0  0  0  0  0  0  0  0  0  0  0  0
  -30.4953  -35.8123   24.2095 C   0  0  0  0  0  0  0  0  0  0  0  0
  -30.1969  -33.1379   23.4993 C   0  0  0  0  0  0  0  0  0  0  0  0
  -27.9785  -30.3327   19.9139 C   0  0  0  0  0  0  0  0  0  0  0  0
  -22.9000   -8.7087   21.2637 C   0  0  0  0  0  0  0  0  0  0  0  0
  -24.3981   -8.8246   23.1557 C   0  0  0  0  0  0  0  0  0  0  0  0
  -28.6119  -29.1445   19.5523 C   0  0  0  0  0  0  0  0  0  0  0  0
  -20.7448   -7.5794   23.6116 C   0  0  0  0  0  0  0  0  0  0  0  0
  -19.3652   -7.3743   23.6033 C   0  0  0  0  0  0  0  0  0  0  0  0
  -27.0786  -27.9099   20.9466 C   0  0  0  0  0  0  0  0  0  0  0  0
  -27.9101  -19.3950   21.6135 C   0  0  0  0  0  0  0  0  0  0  0  0
  -29.7478  -19.2800   20.0492 C   0  0  0  0  0  0  0  0  0  0  0  0
  -19.6527   -5.5007   22.1052 C   0  0  0  0  0  0  0  0  0  0  0  0
  -24.3616  -10.6136   21.5324 C   0  0  0  0  0  0  0  0  0  0  0  0
  -24.1086  -13.0634   20.8673 C   0  0  0  0  0  0  0  0  0  0  0  0
  -29.3966  -35.0889   24.6995 C   0  0  0  0  0  0  0  0  0  0  0  0
  -26.8955  -30.3195   20.8045 C   0  0  0  0  0  0  0  0  0  0  0  0
  -29.2496  -33.7330   24.3496 C   0  0  0  0  0  0  0  0  0  0  0  0
  -26.4316  -29.0990   21.3158 C   0  0  0  0  0  0  0  0  0  0  0  0
  -27.7435  -20.7480   21.3183 C   0  0  0  0  0  0  0  0  0  0  0  0
  -28.5790  -21.3670   20.3885 C   0  0  0  0  0  0  0  0  0  0  0  0
  -28.9123  -18.6610   20.9790 C   0  0  0  0  0  0  0  0  0  0  0  0
  -23.4115   -8.1511   22.4355 C   0  0  0  0  0  0  0  0  0  0  0  0
  -28.1638  -27.9331   20.0709 C   0  0  0  0  0  0  0  0  0  0  0  0
  -21.5784   -6.7452   22.8667 C   0  0  0  0  0  0  0  0  0  0  0  0
  -18.8191   -6.3349   22.8502 C   0  0  0  0  0  0  0  0  0  0  0  0
  -29.5812  -20.6330   19.7540 C   0  0  0  0  0  0  0  0  0  0  0  0
  -21.0324   -5.7059   22.1135 C   0  0  0  0  0  0  0  0  0  0  0  0
  -24.8531  -11.8853   21.0661 C   0  0  0  0  0  0  0  0  0  0  0  0
  -25.0290  -13.9801   20.4214 C   0  0  0  0  0  0  0  0  0  0  0  0
  -28.1361  -23.2345   18.7978 C   0  0  0  0  0  0  0  0  0  0  0  0
  -26.5407  -20.5311   16.8951 C   0  0  0  0  0  0  0  0  0  0  0  0
  -27.5366  -22.5694   17.7935 C   0  0  0  0  0  0  0  0  0  0  0  0
  -27.1367  -21.1918   17.8940 C   0  0  0  0  0  0  0  0  0  0  0  0
  -22.7100  -13.3072   21.0679 C   0  0  0  0  0  0  0  0  0  0  0  0
  -26.3413  -31.5542   23.6806 C   0  0  0  0  0  0  0  0  0  0  0  0
  -23.3512  -30.4057   23.1684 C   0  0  0  0  0  0  0  0  0  0  0  0
  -21.3436  -28.1731   21.5461 C   0  0  0  0  0  0  0  0  0  0  0  0
  -30.0266  -16.4144   20.7388 C   0  0  0  0  0  0  0  0  0  0  0  0
  -28.4406  -35.7724   25.6447 C   0  0  0  0  0  0  0  0  0  0  0  0
  -26.2061  -31.6072   21.1637 C   0  0  0  0  0  0  0  0  0  0  0  0
  -25.2600  -29.0287   22.2597 C   0  0  0  0  0  0  0  0  0  0  0  0
  -28.5167  -24.6844   18.5879 C   0  0  0  0  0  0  0  0  0  0  0  0
  -27.1183  -35.0292   25.8166 C   0  0  0  0  0  0  0  0  0  0  0  0
  -29.8200  -13.3683   18.9070 C   0  0  0  0  0  0  0  0  0  0  0  0
  -27.3675  -33.5415   26.0428 C   0  0  0  0  0  0  0  0  0  0  0  0
  -28.4482  -12.8078   19.2891 C   0  0  0  0  0  0  0  0  0  0  0  0
  -27.9914  -24.9379   21.0886 C   0  0  0  0  0  0  0  0  0  0  0  0
  -30.4974  -14.0632   20.0868 C   0  0  0  0  0  0  0  0  0  0  0  0
  -28.8464  -23.6689   21.1424 C   0  0  0  0  0  0  0  0  0  0  0  0
  -28.3159  -14.5341   21.1301 C   0  0  0  0  0  0  0  0  0  0  0  0
  -28.0763  -32.9113   24.8377 C   0  0  1  0  0  0  0  0  0  0  0  0
  -25.4386  -31.5272   22.4797 C   0  0  1  0  0  0  0  0  0  0  0  0
  -27.5668  -13.8815   19.9568 C   0  0  2  0  0  0  0  0  0  0  0  0
  -27.9791  -25.5910   19.6993 C   0  0  1  0  0  0  0  0  0  1  0  0
  -26.6624  -21.5102   22.0131 C   0  0  0  0  0  0  0  0  0  0  0  0
  -18.9475  -27.4507   21.3614 C   0  0  0  0  0  0  0  0  0  0  0  0
  -23.5834  -28.9594   25.8451 C   0  0  0  0  0  0  0  0  0  0  0  0
  -21.6318  -27.5437   25.1703 C   0  0  0  0  0  0  0  0  0  0  0  0
  -21.3548  -30.0105   25.4171 C   0  0  0  0  0  0  0  0  0  0  0  0
  -21.2373  -28.8597   18.6693 C   0  0  0  0  0  0  0  0  0  0  0  0
  -22.6459  -29.0996   23.4435 C   0  0  1  0  0  0  0  0  0  0  0  0
  -20.0345  -28.3534   20.7990 C   0  0  2  0  0  0  0  0  0  0  0  0
  -22.3273  -28.9045   24.9527 C   0  0  0  0  0  0  0  0  0  0  0  0
  -26.1468  -12.0369   20.7706 N   0  0  0  0  0  0  0  0  0  0  0  0
  -26.2224  -13.3210   20.3814 N   0  0  0  0  0  0  0  0  0  0  0  0
  -28.4222  -22.7417   20.0778 N   0  0  0  0  0  0  0  0  0  0  0  0
  -24.6232  -30.3155   22.5857 N   0  0  0  0  0  0  0  0  0  0  0  0
  -29.6053  -15.0698   20.6661 N   0  0  0  0  0  0  0  0  0  0  0  0
  -24.9259  -15.2776   20.0634 N   0  0  0  0  0  0  0  0  0  0  0  0
  -21.9079  -12.2551   21.5305 N   0  0  0  0  0  0  0  0  0  0  0  0
  -29.0817  -17.2864   21.2785 N   0  0  0  0  0  0  0  0  0  0  0  0
  -27.1361  -32.6817   23.7617 N   0  0  0  0  0  0  0  0  0  0  0  0
  -21.4721  -29.0792   22.5775 N   0  0  0  0  0  0  0  0  0  0  0  0
  -20.2133  -28.0302   19.3552 N   0  3  0  0  0  0  0  0  0  0  0  0
  -22.1841  -14.4205   20.8280 O   0  0  0  0  0  0  0  0  0  0  0  0
  -26.3173  -30.6219   24.4756 O   0  0  0  0  0  0  0  0  0  0  0  0
  -22.7909  -31.4671   23.4533 O   0  0  0  0  0  0  0  0  0  0  0  0
  -22.1680  -27.3119   21.2472 O   0  0  0  0  0  0  0  0  0  0  0  0
  -31.1331  -16.7710   20.3257 O   0  0  0  0  0  0  0  0  0  0  0  0
  -22.9480   -6.9497   22.8765 O   0  0  0  0  0  0  0  0  0  0  0  0
  -28.7807  -26.7719   19.7202 O   0  0  0  0  0  0  0  0  0  1  0  0
  -17.4943   -6.1371   22.8435 F   0  0  0  0  0  0  0  0  0  0  0  0
  -30.3900  -21.2170   18.8582 F   0  0  0  0  0  0  0  0  0  0  0  0
  -21.8283   -4.9005   21.3968 F   0  0  0  0  0  0  0  0  0  0  0  0
  1  2  1  0  0  0  0
  1  5  2  0  0  0  0
  2  6  2  0  0  0  0
  3  8  2  0  0  0  0
  3 17  1  0  0  0  0
  4  9  1  0  0  0  0
  4 17  2  0  0  0  0
  5 19  1  0  0  0  0
  6 21  1  0  0  0  0
  7 10  2  0  0  0  0
  7 20  1  0  0  0  0
  8 26  1  0  0  0  0
  9 26  2  0  0  0  0
 10 27  1  0  0  0  0
 11 12  2  0  0  0  0
 11 28  1  0  0  0  0
 12 29  1  0  0  0  0
 13 22  1  0  0  0  0
 13 27  2  0  0  0  0
 14 23  2  0  0  0  0
 14 25  1  0  0  0  0
 15 25  2  0  0  0  0
 15 30  1  0  0  0  0
 16 29  2  0  0  0  0
 16 31  1  0  0  0  0
 17 32  1  0  0  0  0
 18 32  1  0  0  0  0
 18 33  2  0  0  0  0
 18 38  1  0  0  0  0
 19 21  2  0  0  0  0
 19 43  1  0  0  0  0
 20 22  2  0  0  0  0
 20 44  1  0  0  0  0
 21 55  1  0  0  0  0
 22 45  1  0  0  0  0
 23 24  1  0  0  0  0
 23 59  1  0  0  0  0
 24 30  2  0  0  0  0
 24 70  1  0  0  0  0
 25 75  1  0  0  0  0
 26 84  1  0  0  0  0
 27 85  1  0  0  0  0
 28 31  2  0  0  0  0
 28 84  1  0  0  0  0
 29 86  1  0  0  0  0
 30 87  1  0  0  0  0
 31 88  1  0  0  0  0
 32 68  2  0  0  0  0
 33 69  1  0  0  0  0
 33 73  1  0  0  0  0
 34 36  2  0  0  0  0
 34 46  1  0  0  0  0
 34 70  1  0  0  0  0
 35 37  2  0  0  0  0
 36 37  1  0  0  0  0
 38 74  1  0  0  0  0
 38 79  2  0  0  0  0
 39 56  1  0  0  0  0
 39 76  1  0  0  0  0
 39 80  2  0  0  0  0
 40 65  1  0  0  0  0
 40 71  1  0  0  0  0
 40 81  2  0  0  0  0
 41 66  1  0  0  0  0
 41 77  1  0  0  0  0
 41 82  2  0  0  0  0
 42 72  1  0  0  0  0
 42 75  1  0  0  0  0
 42 83  2  0  0  0  0
 43 47  1  0  0  0  0
 44 56  1  0  0  0  0
 45 71  1  0  0  0  0
 46 58  1  0  0  0  0
 47 49  1  0  0  0  0
 48 50  1  0  0  0  0
 48 52  1  0  0  0  0
 49 55  1  0  0  0  0
 50 57  1  0  0  0  0
 51 53  1  0  0  0  0
 51 58  1  0  0  0  0
 52 72  1  0  0  0  0
 53 70  1  0  0  0  0
 54 57  1  0  0  0  0
 54 72  1  0  0  0  0
 55 76  1  0  0  0  0
 56 71  1  0  0  0  0
 57 69  1  0  0  0  0
 58 85  1  0  0  0  0
 60 66  1  0  0  0  0
 61 67  1  0  0  0  0
 62 67  1  0  0  0  0
 63 67  1  0  0  0  0
 64 78  1  0  0  0  0
 65 67  1  0  0  0  0
 65 77  1  0  0  0  0
 66 78  1  0  0  0  0
 68 69  1  0  0  0  0
M  CHG  1  78   1
M  ISO  4  42 100  58 101  75 100  85 101
M  END
> <Batch ID>
0043

> <Smiles>
C=CC=C1C[101CH:1]([101O:1]c2ccc3c(c2)CN(C(=O)C(NC(=O)C(C)NC)C(C)(C)C)C(C(=O)NC2CCCc4ccccc42)C3)CCN1c1c(C)cc([100NH:0][100C:0](=O)N2CCCC(n3nc(-c4ccc(Oc5ccc(F)cc5F)cc4)c(C(N)=O)c3N)C2)cc1F

> <Shape>
0.357

> <Color>
0.158

> <Negative vol penalty>
0.000

$$$$

  -OEChem-04042322153D

 88 96  0     1  0  0  0  0  0999 V2000
  -29.4233  -32.2584   22.0517 C   0  0  0  0  0  0  0  0  0  0  0  0
  -28.8911  -31.0657   21.5724 C   0  0  0  0  0  0  0  0  0  0  0  0
  -23.8165   -9.6948   22.3194 C   0  0  0  0  0  0  0  0  0  0  0  0
  -23.1667   -9.8439   19.9972 C   0  0  0  0  0  0  0  0  0  0  0  0
  -28.7656  -32.9574   23.0629 C   0  0  0  0  0  0  0  0  0  0  0  0
  -27.7012  -30.5708   22.1050 C   0  0  0  0  0  0  0  0  0  0  0  0
  -23.3227  -27.5064   19.1142 C   0  0  0  0  0  0  0  0  0  0  0  0
  -22.9625   -8.6050   22.4885 C   0  0  0  0  0  0  0  0  0  0  0  0
  -22.3127   -8.7540   20.1663 C   0  0  0  0  0  0  0  0  0  0  0  0
  -23.0356  -26.1463   19.0075 C   0  0  0  0  0  0  0  0  0  0  0  0
  -22.9839   -5.2939   21.8038 C   0  0  0  0  0  0  0  0  0  0  0  0
  -23.4719   -4.1903   22.5034 C   0  0  0  0  0  0  0  0  0  0  0  0
  -21.4211  -26.3536   20.7878 C   0  0  0  0  0  0  0  0  0  0  0  0
  -21.7133  -18.9072   17.6457 C   0  0  0  0  0  0  0  0  0  0  0  0
  -22.3091  -17.0178   16.2628 C   0  0  0  0  0  0  0  0  0  0  0  0
  -21.7143   -4.4508   24.1405 C   0  0  0  0  0  0  0  0  0  0  0  0
  -23.9186  -10.3143   21.0738 C   0  0  0  0  0  0  0  0  0  0  0  0
  -26.1549  -11.4083   20.5173 C   0  0  0  0  0  0  0  0  0  0  0  0
  -27.5620  -32.4757   23.6015 C   0  0  0  0  0  0  0  0  0  0  0  0
  -22.6680  -28.2994   20.0676 C   0  0  0  0  0  0  0  0  0  0  0  0
  -27.0274  -31.2633   23.1254 C   0  0  0  0  0  0  0  0  0  0  0  0
  -21.6999  -27.7240   20.9029 C   0  0  0  0  0  0  0  0  0  0  0  0
  -20.8674  -19.3761   16.6406 C   0  0  0  0  0  0  0  0  0  0  0  0
  -21.4631  -17.4867   15.2577 C   0  0  0  0  0  0  0  0  0  0  0  0
  -20.7423  -18.6659   15.4467 C   0  0  0  0  0  0  0  0  0  0  0  0
  -22.4342  -17.7281   17.4567 C   0  0  0  0  0  0  0  0  0  0  0  0
  -22.2106   -8.1346   21.4119 C   0  0  0  0  0  0  0  0  0  0  0  0
  -22.0868  -25.5691   19.8463 C   0  0  0  0  0  0  0  0  0  0  0  0
  -21.8611   -5.9760   22.2726 C   0  0  0  0  0  0  0  0  0  0  0  0
  -22.8371   -3.7687   23.6717 C   0  0  0  0  0  0  0  0  0  0  0  0
  -21.2263   -5.5545   23.4409 C   0  0  0  0  0  0  0  0  0  0  0  0
  -24.8002  -11.4404   20.8987 C   0  0  0  0  0  0  0  0  0  0  0  0
  -26.5366  -12.7275   20.4943 C   0  0  0  0  0  0  0  0  0  0  0  0
  -26.9934  -10.2862   20.2111 C   0  0  0  0  0  0  0  0  0  0  0  0
  -23.5949  -30.0076   22.5828 C   0  0  0  0  0  0  0  0  0  0  0  0
  -20.4808  -30.9148   22.6237 C   0  0  0  0  0  0  0  0  0  0  0  0
  -20.9761  -22.4935   18.3171 C   0  0  0  0  0  0  0  0  0  0  0  0
  -17.2485  -30.2166   21.7805 C   0  0  0  0  0  0  0  0  0  0  0  0
  -23.5309  -17.8338   19.7222 C   0  0  0  0  0  0  0  0  0  0  0  0
  -26.9120  -33.2419   24.7262 C   0  0  0  0  0  0  0  0  0  0  0  0
  -22.9697  -29.7705   20.1520 C   0  0  0  0  0  0  0  0  0  0  0  0
  -20.9542  -28.5360   21.9292 C   0  0  0  0  0  0  0  0  0  0  0  0
  -25.4601  -32.8421   24.9762 C   0  0  0  0  0  0  0  0  0  0  0  0
  -25.5420  -16.9494   22.5241 C   0  0  0  0  0  0  0  0  0  0  0  0
  -25.3220  -31.3233   25.0053 C   0  0  0  0  0  0  0  0  0  0  0  0
  -25.7084  -15.4343   22.3872 C   0  0  0  0  0  0  0  0  0  0  0  0
  -24.1509  -17.4087   22.0908 C   0  0  0  0  0  0  0  0  0  0  0  0
  -23.9064  -15.4511   20.6152 C   0  0  0  0  0  0  0  0  0  0  0  0
  -25.7258  -30.7068   23.6605 C   0  0  1  0  0  0  0  0  0  0  0  0
  -22.6141  -30.3767   21.5061 C   0  0  1  0  0  0  0  0  0  0  0  0
  -25.3134  -14.9490   20.9786 C   0  0  2  0  0  0  0  0  0  0  0  0
  -19.8347  -19.1685   14.3692 C   0  0  0  0  0  0  0  0  0  0  0  0
  -14.9192  -31.1282   21.9820 C   0  0  0  0  0  0  0  0  0  0  0  0
  -20.3952  -30.0434   25.5466 C   0  0  0  0  0  0  0  0  0  0  0  0
  -17.8955  -30.0744   25.4102 C   0  0  0  0  0  0  0  0  0  0  0  0
  -19.1882  -32.1787   25.0589 C   0  0  0  0  0  0  0  0  0  0  0  0
  -21.8912  -22.1154   16.0211 C   0  0  0  0  0  0  0  0  0  0  0  0
  -16.9403  -30.3968   18.8425 C   0  0  0  0  0  0  0  0  0  0  0  0
  -20.1031  -20.6482   16.8687 C   0  0  0  0  0  0  0  0  0  0  0  0
  -21.9513  -23.6433   18.4574 C   0  0  0  0  0  0  0  0  0  1  0  0
  -19.2228  -30.3899   23.2725 C   0  0  1  0  0  0  0  0  0  0  0  0
  -16.1732  -31.0636   21.1241 C   0  0  2  0  0  0  0  0  0  0  0  0
  -21.3470  -16.7074   13.9887 C   0  0  0  0  0  0  0  0  0  0  0  0
  -19.1907  -30.6556   24.8041 C   0  0  0  0  0  0  0  0  0  0  0  0
  -24.3515  -12.6817   21.1034 N   0  0  0  0  0  0  0  0  0  0  0  0
  -25.4305  -13.4418   20.8499 N   0  0  0  0  0  0  0  0  0  0  0  0
  -21.2891  -29.9688   21.9775 N   0  0  0  0  0  0  0  0  0  0  0  0
  -23.8474  -16.9154   20.7456 N   0  0  0  0  0  0  0  0  0  0  0  0
  -27.7072  -13.3345   20.2050 N   0  0  0  0  0  0  0  0  0  0  0  0
  -26.4413   -9.0001   20.2838 N   0  0  0  0  0  0  0  0  0  0  0  0
  -23.2928  -17.2510   18.4780 N   0  0  0  0  0  0  0  0  0  0  0  0
  -24.6660  -30.8742   22.6893 N   0  0  0  0  0  0  0  0  0  0  0  0
  -18.1084  -30.9814   22.5400 N   0  0  0  0  0  0  0  0  0  0  0  0
  -20.9902  -21.7817   17.1172 N   0  0  0  0  0  0  0  0  0  0  0  0
  -15.8055  -30.4961   19.7961 N   0  3  0  0  0  0  0  0  0  0  0  0
  -28.2010  -10.4192   19.8987 O   0  0  0  0  0  0  0  0  0  0  0  0
  -23.3941  -29.0113   23.2674 O   0  0  0  0  0  0  0  0  0  0  0  0
  -20.7333  -32.1208   22.6819 O   0  0  0  0  0  0  0  0  0  0  0  0
  -20.2249  -22.2343   19.2623 O   0  0  0  0  0  0  0  0  0  0  0  0
  -17.3164  -28.9978   21.6370 O   0  0  0  0  0  0  0  0  0  0  0  0
  -23.5017  -19.0499   19.9278 O   0  0  0  0  0  0  0  0  0  0  0  0
  -21.3773   -7.0711   21.5764 O   0  0  0  0  0  0  0  0  0  0  0  0
  -21.8050  -24.2416   19.7446 O   0  0  0  0  0  0  0  0  0  1  0  0
  -23.3050   -2.7080   24.3426 F   0  0  0  0  0  0  0  0  0  0  0  0
  -20.1466   -6.2051   23.8955 F   0  0  0  0  0  0  0  0  0  0  0  0
  -22.1181  -15.5812   13.9681 F   0  0  0  0  0  0  0  0  0  0  0  0
  -20.0780  -16.2773   13.7282 F   0  0  0  0  0  0  0  0  0  0  0  0
  -21.7224  -17.4306   12.8948 F   0  0  0  0  0  0  0  0  0  0  0  0
  1  2  1  0  0  0  0
  1  5  2  0  0  0  0
  2  6  2  0  0  0  0
  3  8  2  0  0  0  0
  3 17  1  0  0  0  0
  4  9  1  0  0  0  0
  4 17  2  0  0  0  0
  5 19  1  0  0  0  0
  6 21  1  0  0  0  0
  7 10  2  0  0  0  0
  7 20  1  0  0  0  0
  8 27  1  0  0  0  0
  9 27  2  0  0  0  0
 10 28  1  0  0  0  0
 11 12  2  0  0  0  0
 11 29  1  0  0  0  0
 12 30  1  0  0  0  0
 13 22  1  0  0  0  0
 13 28  2  0  0  0  0
 14 23  1  0  0  0  0
 14 26  2  0  0  0  0
 15 24  2  0  0  0  0
 15 26  1  0  0  0  0
 16 30  2  0  0  0  0
 16 31  1  0  0  0  0
 17 32  1  0  0  0  0
 18 32  1  0  0  0  0
 18 33  2  0  0  0  0
 18 34  1  0  0  0  0
 19 21  2  0  0  0  0
 19 40  1  0  0  0  0
 20 22  2  0  0  0  0
 20 41  1  0  0  0  0
 21 49  1  0  0  0  0
 22 42  1  0  0  0  0
 23 25  2  0  0  0  0
 23 59  1  0  0  0  0
 24 25  1  0  0  0  0
 24 63  1  0  0  0  0
 25 52  1  0  0  0  0
 26 71  1  0  0  0  0
 27 82  1  0  0  0  0
 28 83  1  0  0  0  0
 29 31  2  0  0  0  0
 29 82  1  0  0  0  0
 30 84  1  0  0  0  0
 31 85  1  0  0  0  0
 32 65  2  0  0  0  0
 33 66  1  0  0  0  0
 33 69  1  0  0  0  0
 34 70  1  0  0  0  0
 34 76  2  0  0  0  0
 35 50  1  0  0  0  0
 35 72  1  0  0  0  0
 35 77  2  0  0  0  0
 36 61  1  0  0  0  0
 36 67  1  0  0  0  0
 36 78  2  0  0  0  0
 37 60  1  0  0  0  0
 37 74  1  0  0  0  0
 37 79  2  0  0  0  0
 38 62  1  0  0  0  0
 38 73  1  0  0  0  0
 38 80  2  0  0  0  0
 39 68  1  0  0  0  0
 39 71  1  0  0  0  0
 39 81  2  0  0  0  0
 40 43  1  0  0  0  0
 41 50  1  0  0  0  0
 42 67  1  0  0  0  0
 43 45  1  0  0  0  0
 44 46  1  0  0  0  0
 44 47  1  0  0  0  0
 45 49  1  0  0  0  0
 46 51  1  0  0  0  0
 47 68  1  0  0  0  0
 48 51  1  0  0  0  0
 48 68  1  0  0  0  0
 49 72  1  0  0  0  0
 50 67  1  0  0  0  0
 51 66  1  0  0  0  0
 53 62  1  0  0  0  0
 54 64  1  0  0  0  0
 55 64  1  0  0  0  0
 56 64  1  0  0  0  0
 57 74  1  0  0  0  0
 58 75  1  0  0  0  0
 59 74  1  0  0  0  0
 60 83  1  0  0  0  0
 61 64  1  0  0  0  0
 61 73  1  0  0  0  0
 62 75  1  0  0  0  0
 63 86  1  0  0  0  0
 63 87  1  0  0  0  0
 63 88  1  0  0  0  0
 65 66  1  0  0  0  0
M  CHG  1  75   1
M  ISO  4  39 100  60 101  71 100  83 101
M  END
> <Batch ID>
0043

> <Smiles>
CNC(C)C(=O)NC(C(=O)N1Cc2cc([101O:1][101CH2:1]C(=O)N(C)Cc3cc([100NH:0][100C:0](=O)N4CCCC(n5nc(-c6ccc(Oc7ccc(F)cc7F)cc6)c(C(N)=O)c5N)C4)cc(C(F)(F)F)c3C)ccc2CC1C(=O)NC1CCCc2ccccc21)C(C)(C)C

> <Shape>
0.226

> <Color>
0.080

> <Negative vol penalty>
0.000

$$$$

  -OEChem-04042322153D

 87 96  0     1  0  0  0  0  0999 V2000
  -16.5321  -29.8995   22.8467 C   0  0  0  0  0  0  0  0  0  0  0  0
  -17.5171  -30.7362   23.3618 C   0  0  0  0  0  0  0  0  0  0  0  0
  -27.1347  -15.9297   22.9281 C   0  0  0  0  0  0  0  0  0  0  0  0
  -24.8335  -16.5190   22.4876 C   0  0  0  0  0  0  0  0  0  0  0  0
  -16.8518  -28.5939   22.4763 C   0  0  0  0  0  0  0  0  0  0  0  0
  -18.8222  -30.2673   23.5077 C   0  0  0  0  0  0  0  0  0  0  0  0
  -25.6223  -32.5011   23.2157 C   0  0  0  0  0  0  0  0  0  0  0  0
  -27.0311  -14.8600   22.0389 C   0  0  0  0  0  0  0  0  0  0  0  0
  -24.7298  -15.4493   21.5983 C   0  0  0  0  0  0  0  0  0  0  0  0
  -26.7932  -32.4894   23.9724 C   0  0  0  0  0  0  0  0  0  0  0  0
  -25.7587  -11.7287   22.0476 C   0  0  0  0  0  0  0  0  0  0  0  0
  -26.2839  -10.5003   22.4486 C   0  0  0  0  0  0  0  0  0  0  0  0
  -27.2466  -30.2410   23.2252 C   0  0  0  0  0  0  0  0  0  0  0  0
  -31.6464  -24.5031   28.1451 C   0  0  0  0  0  0  0  0  0  0  0  0
  -30.1259  -25.8161   26.2095 C   0  0  0  0  0  0  0  0  0  0  0  0
  -27.7898  -10.5274   20.5596 C   0  0  0  0  0  0  0  0  0  0  0  0
  -26.0359  -16.7591   23.1525 C   0  0  0  0  0  0  0  0  0  0  0  0
  -26.4520  -17.8018   25.4432 C   0  0  0  0  0  0  0  0  0  0  0  0
  -18.1635  -28.1119   22.6088 C   0  0  0  0  0  0  0  0  0  0  0  0
  -25.2485  -31.3769   22.4654 C   0  0  0  0  0  0  0  0  0  0  0  0
  -19.1594  -28.9536   23.1400 C   0  0  0  0  0  0  0  0  0  0  0  0
  -26.0718  -30.2419   22.4578 C   0  0  0  0  0  0  0  0  0  0  0  0
  -32.0249  -25.7705   27.7025 C   0  0  0  0  0  0  0  0  0  0  0  0
  -30.5077  -23.8921   27.6199 C   0  0  0  0  0  0  0  0  0  0  0  0
  -31.2646  -26.4270   26.7347 C   0  0  0  0  0  0  0  0  0  0  0  0
  -29.7475  -24.5486   26.6521 C   0  0  0  0  0  0  0  0  0  0  0  0
  -25.8286  -14.6199   21.3740 C   0  0  0  0  0  0  0  0  0  0  0  0
  -27.6041  -31.3583   23.9795 C   0  0  0  0  0  0  0  0  0  0  0  0
  -26.2491  -12.3564   20.9025 C   0  0  0  0  0  0  0  0  0  0  0  0
  -27.2994   -9.8996   21.7046 C   0  0  0  0  0  0  0  0  0  0  0  0
  -27.2647  -11.7558   20.1585 C   0  0  0  0  0  0  0  0  0  0  0  0
  -26.1421  -17.8639   24.0714 C   0  0  0  0  0  0  0  0  0  0  0  0
  -26.4290  -19.1103   25.8600 C   0  0  0  0  0  0  0  0  0  0  0  0
  -30.0071  -29.4195   25.3977 C   0  0  0  0  0  0  0  0  0  0  0  0
  -26.7355  -16.6631   26.2671 C   0  0  0  0  0  0  0  0  0  0  0  0
  -22.7713  -29.3853   22.4912 C   0  0  0  0  0  0  0  0  0  0  0  0
  -24.1899  -28.2059   19.8231 C   0  0  0  0  0  0  0  0  0  0  0  0
  -27.5474  -27.4461   18.7426 C   0  0  0  0  0  0  0  0  0  0  0  0
  -27.7339  -24.4752   25.1401 C   0  0  0  0  0  0  0  0  0  0  0  0
  -18.4509  -26.6782   22.2391 C   0  0  0  0  0  0  0  0  0  0  0  0
  -23.9961  -31.4150   21.6333 C   0  0  0  0  0  0  0  0  0  0  0  0
  -25.7257  -29.0165   21.6533 C   0  0  0  0  0  0  0  0  0  0  0  0
  -19.9386  -26.3778   22.0756 C   0  0  0  0  0  0  0  0  0  0  0  0
  -29.1806  -30.0026   28.1479 C   0  0  0  0  0  0  0  0  0  0  0  0
  -24.7993  -23.2874   23.5108 C   0  0  0  0  0  0  0  0  0  0  0  0
  -20.7325  -26.9633   23.2391 C   0  0  0  0  0  0  0  0  0  0  0  0
  -28.9951  -31.0483   27.0684 C   0  0  0  0  0  0  0  0  0  0  0  0
  -24.9126  -21.7654   23.6243 C   0  0  0  0  0  0  0  0  0  0  0  0
  -30.4414  -29.2029   27.8728 C   0  0  0  0  0  0  0  0  0  0  0  0
  -26.1617  -23.9426   23.2909 C   0  0  0  0  0  0  0  0  0  0  0  0
  -27.3055  -22.0543   24.3842 C   0  0  0  0  0  0  0  0  0  0  0  0
  -20.5919  -28.4894   23.2903 C   0  0  1  0  0  0  0  0  0  0  0  0
  -28.8507  -30.3546   25.7281 C   0  0  1  0  0  0  0  0  0  1  0  0
  -23.4486  -30.0275   21.3137 C   0  0  1  0  0  0  0  0  0  0  0  0
  -25.9666  -21.3552   24.6713 C   0  0  2  0  0  0  0  0  0  0  0  0
  -33.2480  -26.4046   28.2789 C   0  0  0  0  0  0  0  0  0  0  0  0
  -30.1258  -22.5340   28.1126 C   0  0  0  0  0  0  0  0  0  0  0  0
  -28.5439  -27.3759   16.4405 C   0  0  0  0  0  0  0  0  0  0  0  0
  -23.5262  -25.2301   19.9411 C   0  0  0  0  0  0  0  0  0  0  0  0
  -25.6811  -24.7734   18.7512 C   0  0  0  0  0  0  0  0  0  0  0  0
  -23.9046  -26.1239   17.6363 C   0  0  0  0  0  0  0  0  0  0  0  0
  -29.6784  -29.3626   19.4806 C   0  0  0  0  0  0  0  0  0  0  0  0
  -31.6526  -27.7915   26.2428 C   0  0  0  0  0  0  0  0  0  0  0  0
  -25.2195  -27.1380   19.5428 C   0  0  1  0  0  0  0  0  0  0  0  0
  -28.3608  -28.1996   17.7058 C   0  0  2  0  0  0  0  0  0  0  0  0
  -24.5826  -25.8307   18.9924 C   0  0  0  0  0  0  0  0  0  0  0  0
  -25.9371  -19.1130   23.6451 N   0  0  0  0  0  0  0  0  0  0  0  0
  -26.1185  -19.8479   24.7555 N   0  0  0  0  0  0  0  0  0  0  0  0
  -30.6054  -28.7755   26.4824 N   0  0  0  0  0  0  0  0  0  0  0  0
  -24.4877  -29.1003   20.8609 N   0  0  0  0  0  0  0  0  0  0  0  0
  -27.1074  -23.5110   24.3225 N   0  0  0  0  0  0  0  0  0  0  0  0
  -26.6443  -19.6905   27.0598 N   0  0  0  0  0  0  0  0  0  0  0  0
  -26.7172  -15.3914   25.6784 N   0  0  0  0  0  0  0  0  0  0  0  0
  -28.5875  -23.9447   26.1067 N   0  0  0  0  0  0  0  0  0  0  0  0
  -21.4328  -29.1084   22.2882 N   0  0  0  0  0  0  0  0  0  0  0  0
  -26.2040  -27.7437   18.6528 N   0  0  0  0  0  0  0  0  0  0  0  0
  -29.7081  -28.5344   18.2477 N   0  3  0  0  0  0  0  0  0  0  0  0
  -30.3196  -29.2206   24.2208 O   0  0  0  0  0  0  0  0  0  0  0  0
  -26.9810  -16.7689   27.4927 O   0  0  0  0  0  0  0  0  0  0  0  0
  -23.4157  -29.1566   23.5081 O   0  0  0  0  0  0  0  0  0  0  0  0
  -23.1627  -28.2494   19.1415 O   0  0  0  0  0  0  0  0  0  0  0  0
  -28.0526  -26.6682   19.5489 O   0  0  0  0  0  0  0  0  0  0  0  0
  -27.5074  -25.6811   25.0113 O   0  0  0  0  0  0  0  0  0  0  0  0
  -25.7272  -13.5763   20.5060 O   0  0  0  0  0  0  0  0  0  0  0  0
  -28.7472  -31.3441   24.7177 O   0  0  0  0  0  0  0  0  0  1  0  0
  -27.8047   -8.7207   22.0907 F   0  0  0  0  0  0  0  0  0  0  0  0
  -27.7406  -12.3546   19.0582 F   0  0  0  0  0  0  0  0  0  0  0  0
  1  2  1  0  0  0  0
  1  5  2  0  0  0  0
  2  6  2  0  0  0  0
  3  8  2  0  0  0  0
  3 17  1  0  0  0  0
  4  9  1  0  0  0  0
  4 17  2  0  0  0  0
  5 19  1  0  0  0  0
  6 21  1  0  0  0  0
  7 10  2  0  0  0  0
  7 20  1  0  0  0  0
  8 27  1  0  0  0  0
  9 27  2  0  0  0  0
 10 28  1  0  0  0  0
 11 12  2  0  0  0  0
 11 29  1  0  0  0  0
 12 30  1  0  0  0  0
 13 22  1  0  0  0  0
 13 28  2  0  0  0  0
 14 23  1  0  0  0  0
 14 24  2  0  0  0  0
 15 25  1  0  0  0  0
 15 26  2  0  0  0  0
 16 30  2  0  0  0  0
 16 31  1  0  0  0  0
 17 32  1  0  0  0  0
 18 32  1  0  0  0  0
 18 33  2  0  0  0  0
 18 35  1  0  0  0  0
 19 21  2  0  0  0  0
 19 40  1  0  0  0  0
 20 22  2  0  0  0  0
 20 41  1  0  0  0  0
 21 52  1  0  0  0  0
 22 42  1  0  0  0  0
 23 25  2  0  0  0  0
 23 56  1  0  0  0  0
 24 26  1  0  0  0  0
 24 57  1  0  0  0  0
 25 63  1  0  0  0  0
 26 74  1  0  0  0  0
 27 84  1  0  0  0  0
 28 85  1  0  0  0  0
 29 31  2  0  0  0  0
 29 84  1  0  0  0  0
 30 86  1  0  0  0  0
 31 87  1  0  0  0  0
 32 67  2  0  0  0  0
 33 68  1  0  0  0  0
 33 72  1  0  0  0  0
 34 53  1  0  0  0  0
 34 69  1  0  0  0  0
 34 78  2  0  0  0  0
 35 73  1  0  0  0  0
 35 79  2  0  0  0  0
 36 54  1  0  0  0  0
 36 75  1  0  0  0  0
 36 80  2  0  0  0  0
 37 64  1  0  0  0  0
 37 70  1  0  0  0  0
 37 81  2  0  0  0  0
 38 65  1  0  0  0  0
 38 76  1  0  0  0  0
 38 82  2  0  0  0  0
 39 71  1  0  0  0  0
 39 74  1  0  0  0  0
 39 83  2  0  0  0  0
 40 43  1  0  0  0  0
 41 54  1  0  0  0  0
 42 70  1  0  0  0  0
 43 46  1  0  0  0  0
 44 47  1  0  0  0  0
 44 49  1  0  0  0  0
 45 48  1  0  0  0  0
 45 50  1  0  0  0  0
 46 52  1  0  0  0  0
 47 53  1  0  0  0  0
 48 55  1  0  0  0  0
 49 69  1  0  0  0  0
 50 71  1  0  0  0  0
 51 55  1  0  0  0  0
 51 71  1  0  0  0  0
 52 75  1  0  0  0  0
 53 85  1  0  0  0  0
 54 70  1  0  0  0  0
 55 68  1  0  0  0  0
 58 65  1  0  0  0  0
 59 66  1  0  0  0  0
 60 66  1  0  0  0  0
 61 66  1  0  0  0  0
 62 77  1  0  0  0  0
 63 69  1  0  0  0  0
 64 66  1  0  0  0  0
 64 76  1  0  0  0  0
 65 77  1  0  0  0  0
 67 68  1  0  0  0  0
M  CHG  1  77   1
M  ISO  4  39 100  53 101  74 100  85 101
M  END
> <Batch ID>
0043

> <Smiles>
CNC(C)C(=O)NC(C(=O)N1Cc2cc([101O:1][101CH:1]3CCCN(Cc4cc([100NH:0][100C:0](=O)N5CCCC(n6nc(-c7ccc(Oc8ccc(F)cc8F)cc7)c(C(N)=O)c6N)C5)c(C)cc4C)C3=O)ccc2CC1C(=O)NC1CCCc2ccccc21)C(C)(C)C

> <Shape>
0.205

> <Color>
0.097

> <Negative vol penalty>
0.000

$$$$

  -OEChem-04042322153D

 86 95  0     1  0  0  0  0  0999 V2000
  -22.4951  -23.2084   23.9919 C   0  0  0  0  0  0  0  0  0  0  0  0
  -23.0996  -23.8085   22.8919 C   0  0  0  0  0  0  0  0  0  0  0  0
  -25.7173  -13.1816   19.3404 C   0  0  0  0  0  0  0  0  0  0  0  0
  -25.7636  -13.2615   21.7547 C   0  0  0  0  0  0  0  0  0  0  0  0
  -21.5711  -23.9223   24.7537 C   0  0  0  0  0  0  0  0  0  0  0  0
  -22.7795  -25.1225   22.5524 C   0  0  0  0  0  0  0  0  0  0  0  0
  -26.8702  -27.8941   21.4435 C   0  0  0  0  0  0  0  0  0  0  0  0
  -23.7802  -22.9468   17.2668 C   0  0  0  0  0  0  0  0  0  0  0  0
  -24.6577  -23.9338   16.8178 C   0  0  0  0  0  0  0  0  0  0  0  0
  -24.7897  -12.1413   19.3926 C   0  0  0  0  0  0  0  0  0  0  0  0
  -24.8358  -12.2212   21.8069 C   0  0  0  0  0  0  0  0  0  0  0  0
  -27.4384  -27.7145   20.1831 C   0  0  0  0  0  0  0  0  0  0  0  0
  -24.8150   -8.8076   19.9494 C   0  0  0  0  0  0  0  0  0  0  0  0
  -25.0205   -7.7142   19.1081 C   0  0  0  0  0  0  0  0  0  0  0  0
  -26.3308  -29.7115   19.4059 C   0  0  0  0  0  0  0  0  0  0  0  0
  -22.8874   -8.1265   18.0512 C   0  0  0  0  0  0  0  0  0  0  0  0
  -26.2044  -13.7417   20.5215 C   0  0  0  0  0  0  0  0  0  0  0  0
  -28.4435  -14.7845   19.8839 C   0  0  0  0  0  0  0  0  0  0  0  0
  -21.2467  -25.2490   24.4291 C   0  0  0  0  0  0  0  0  0  0  0  0
  -26.0179  -28.9795   21.6919 C   0  0  0  0  0  0  0  0  0  0  0  0
  -21.8492  -25.8544   23.3098 C   0  0  0  0  0  0  0  0  0  0  0  0
  -25.7551  -29.9041   20.6710 C   0  0  0  0  0  0  0  0  0  0  0  0
  -24.2045  -22.0148   18.2139 C   0  0  0  0  0  0  0  0  0  0  0  0
  -26.3838  -23.0565   18.2629 C   0  0  0  0  0  0  0  0  0  0  0  0
  -25.9594  -23.9886   17.3158 C   0  0  0  0  0  0  0  0  0  0  0  0
  -25.5062  -22.0696   18.7119 C   0  0  0  0  0  0  0  0  0  0  0  0
  -24.3489  -11.6611   20.6258 C   0  0  0  0  0  0  0  0  0  0  0  0
  -27.1665  -28.6217   19.1632 C   0  0  0  0  0  0  0  0  0  0  0  0
  -23.6456   -9.5604   19.8417 C   0  0  0  0  0  0  0  0  0  0  0  0
  -24.0567   -7.3736   18.1590 C   0  0  0  0  0  0  0  0  0  0  0  0
  -22.6819   -9.2199   18.8925 C   0  0  0  0  0  0  0  0  0  0  0  0
  -27.1631  -14.8160   20.4682 C   0  0  0  0  0  0  0  0  0  0  0  0
  -28.9495  -16.0433   20.0978 C   0  0  0  0  0  0  0  0  0  0  0  0
  -27.6769  -24.8408   15.7260 C   0  0  0  0  0  0  0  0  0  0  0  0
  -27.4694  -23.9936   14.6991 C   0  0  0  0  0  0  0  0  0  0  0  0
  -29.1152  -13.7132   19.2080 C   0  0  0  0  0  0  0  0  0  0  0  0
  -22.9707  -29.2902   22.5415 C   0  0  0  0  0  0  0  0  0  0  0  0
  -23.7448  -32.4355   22.7153 C   0  0  0  0  0  0  0  0  0  0  0  0
  -25.0884  -35.5592   22.4257 C   0  0  0  0  0  0  0  0  0  0  0  0
  -26.3972  -21.3763   20.9640 C   0  0  0  0  0  0  0  0  0  0  0  0
  -20.2067  -25.9647   25.2542 C   0  0  0  0  0  0  0  0  0  0  0  0
  -25.4342  -29.1740   23.0645 C   0  0  0  0  0  0  0  0  0  0  0  0
  -24.8629  -31.0972   20.8920 C   0  0  0  0  0  0  0  0  0  0  0  0
  -28.9056  -25.7276   15.6666 C   0  0  0  0  0  0  0  0  0  0  0  0
  -20.2024  -27.4775   25.0500 C   0  0  0  0  0  0  0  0  0  0  0  0
  -28.6227  -27.1449   16.1425 C   0  0  0  0  0  0  0  0  0  0  0  0
  -28.6699  -19.7230   23.1500 C   0  0  0  0  0  0  0  0  0  0  0  0
  -20.2571  -27.8157   23.5635 C   0  0  0  0  0  0  0  0  0  0  0  0
  -28.6626  -18.2754   22.6533 C   0  0  0  0  0  0  0  0  0  0  0  0
  -27.2864  -20.3634   23.0516 C   0  0  0  0  0  0  0  0  0  0  0  0
  -26.6481  -18.8305   21.2317 C   0  0  0  0  0  0  0  0  0  0  0  0
  -26.6869  -26.3107   17.5077 C   0  0  0  0  0  0  0  0  0  0  0  0
  -21.5466  -27.2862   22.9244 C   0  0  1  0  0  0  0  0  0  0  0  0
  -24.1711  -30.0296   23.0609 C   0  0  1  0  0  0  0  0  0  0  0  0
  -28.0335  -18.1641   21.2507 C   0  0  2  0  0  0  0  0  0  0  0  0
  -27.9881  -27.1107   17.5246 C   0  0  2  0  0  0  0  0  0  1  0  0
  -23.2413  -20.9695   18.6753 C   0  0  0  0  0  0  0  0  0  0  0  0
  -27.7826  -23.1172   18.7947 C   0  0  0  0  0  0  0  0  0  0  0  0
  -24.5009  -37.9867   22.6696 C   0  0  0  0  0  0  0  0  0  0  0  0
  -22.2347  -32.3337   20.0660 C   0  0  0  0  0  0  0  0  0  0  0  0
  -22.5090  -34.8163   19.8941 C   0  0  0  0  0  0  0  0  0  0  0  0
  -21.2181  -33.8341   21.7892 C   0  0  0  0  0  0  0  0  0  0  0  0
  -27.1145  -35.9561   24.5461 C   0  0  0  0  0  0  0  0  0  0  0  0
  -23.7345  -33.5941   21.7476 C   0  0  1  0  0  0  0  0  0  0  0  0
  -25.0670  -36.7556   23.3599 C   0  0  2  0  0  0  0  0  0  0  0  0
  -22.4468  -33.6276   20.8769 C   0  0  0  0  0  0  0  0  0  0  0  0
  -26.8738  -16.0008   21.0126 N   0  0  0  0  0  0  0  0  0  0  0  0
  -27.9795  -16.7256   20.7713 N   0  0  0  0  0  0  0  0  0  0  0  0
  -26.8401  -25.0036   16.8434 N   0  0  0  0  0  0  0  0  0  0  0  0
  -24.3110  -31.2404   22.2494 N   0  0  0  0  0  0  0  0  0  0  0  0
  -26.7553  -20.2232   21.6940 N   0  0  0  0  0  0  0  0  0  0  0  0
  -30.1253  -16.6221   19.7736 N   0  0  0  0  0  0  0  0  0  0  0  0
  -28.4513  -12.4861   19.0758 N   0  0  0  0  0  0  0  0  0  0  0  0
  -25.9352  -21.1211   19.6732 N   0  0  0  0  0  0  0  0  0  0  0  0
  -22.6634  -28.1460   23.2527 N   0  0  0  0  0  0  0  0  0  0  0  0
  -23.9467  -34.7958   22.5472 N   0  0  0  0  0  0  0  0  0  0  0  0
  -26.4459  -37.0718   23.8283 N   0  3  0  0  0  0  0  0  0  0  0  0
  -30.2766  -13.8354   18.7498 O   0  0  0  0  0  0  0  0  0  0  0  0
  -22.3669  -29.7264   21.5684 O   0  0  0  0  0  0  0  0  0  0  0  0
  -23.2745  -32.5874   23.8455 O   0  0  0  0  0  0  0  0  0  0  0  0
  -26.0227  -35.3274   21.6616 O   0  0  0  0  0  0  0  0  0  0  0  0
  -26.5190  -22.5085   21.4384 O   0  0  0  0  0  0  0  0  0  0  0  0
  -23.4434  -10.6462   20.6771 O   0  0  0  0  0  0  0  0  0  0  0  0
  -27.7193  -28.4484   17.9319 O   0  0  0  0  0  0  0  0  0  1  0  0
  -24.2549   -6.3245   17.3501 F   0  0  0  0  0  0  0  0  0  0  0  0
  -21.5571   -9.9402   18.7835 F   0  0  0  0  0  0  0  0  0  0  0  0
  1  2  1  0  0  0  0
  1  5  2  0  0  0  0
  2  6  2  0  0  0  0
  3 10  2  0  0  0  0
  3 17  1  0  0  0  0
  4 11  1  0  0  0  0
  4 17  2  0  0  0  0
  5 19  1  0  0  0  0
  6 21  1  0  0  0  0
  7 12  2  0  0  0  0
  7 20  1  0  0  0  0
  8  9  2  0  0  0  0
  8 23  1  0  0  0  0
  9 25  1  0  0  0  0
 10 27  1  0  0  0  0
 11 27  2  0  0  0  0
 12 28  1  0  0  0  0
 13 14  2  0  0  0  0
 13 29  1  0  0  0  0
 14 30  1  0  0  0  0
 15 22  1  0  0  0  0
 15 28  2  0  0  0  0
 16 30  2  0  0  0  0
 16 31  1  0  0  0  0
 17 32  1  0  0  0  0
 18 32  1  0  0  0  0
 18 33  2  0  0  0  0
 18 36  1  0  0  0  0
 19 21  2  0  0  0  0
 19 41  1  0  0  0  0
 20 22  2  0  0  0  0
 20 42  1  0  0  0  0
 21 53  1  0  0  0  0
 22 43  1  0  0  0  0
 23 26  2  0  0  0  0
 23 57  1  0  0  0  0
 24 25  2  0  0  0  0
 24 26  1  0  0  0  0
 24 58  1  0  0  0  0
 25 69  1  0  0  0  0
 26 74  1  0  0  0  0
 27 83  1  0  0  0  0
 28 84  1  0  0  0  0
 29 31  2  0  0  0  0
 29 83  1  0  0  0  0
 30 85  1  0  0  0  0
 31 86  1  0  0  0  0
 32 67  2  0  0  0  0
 33 68  1  0  0  0  0
 33 72  1  0  0  0  0
 34 35  2  0  0  0  0
 34 44  1  0  0  0  0
 34 69  1  0  0  0  0
 36 73  1  0  0  0  0
 36 78  2  0  0  0  0
 37 54  1  0  0  0  0
 37 75  1  0  0  0  0
 37 79  2  0  0  0  0
 38 64  1  0  0  0  0
 38 70  1  0  0  0  0
 38 80  2  0  0  0  0
 39 65  1  0  0  0  0
 39 76  1  0  0  0  0
 39 81  2  0  0  0  0
 40 71  1  0  0  0  0
 40 74  1  0  0  0  0
 40 82  2  0  0  0  0
 41 45  1  0  0  0  0
 42 54  1  0  0  0  0
 43 70  1  0  0  0  0
 44 46  1  0  0  0  0
 45 48  1  0  0  0  0
 46 56  1  0  0  0  0
 47 49  1  0  0  0  0
 47 50  1  0  0  0  0
 48 53  1  0  0  0  0
 49 55  1  0  0  0  0
 50 71  1  0  0  0  0
 51 55  1  0  0  0  0
 51 71  1  0  0  0  0
 52 56  1  0  0  0  0
 52 69  1  0  0  0  0
 53 75  1  0  0  0  0
 54 70  1  0  0  0  0
 55 68  1  0  0  0  0
 56 84  1  0  0  0  0
 59 65  1  0  0  0  0
 60 66  1  0  0  0  0
 61 66  1  0  0  0  0
 62 66  1  0  0  0  0
 63 77  1  0  0  0  0
 64 66  1  0  0  0  0
 64 76  1  0  0  0  0
 65 77  1  0  0  0  0
 67 68  1  0  0  0  0
M  CHG  1  77   1
M  ISO  4  40 100  56 101  74 100  84 101
M  END
> <Batch ID>
0043

> <Smiles>
C=C1CC[101CH:1]([101O:1]c2ccc3c(c2)CN(C(=O)C(NC(=O)C(C)NC)C(C)(C)C)C(C(=O)NC2CCCc4ccccc42)C3)CN1c1ccc(C)c([100NH:0][100C:0](=O)N2CCCC(n3nc(-c4ccc(Oc5ccc(F)cc5F)cc4)c(C(N)=O)c3N)C2)c1C

> <Shape>
0.209

> <Color>
0.103

> <Negative vol penalty>
0.000

$$$$

  -OEChem-04042322153D

 88 97  0     1  0  0  0  0  0999 V2000
  -16.0519  -17.4703   23.8624 C   0  0  0  0  0  0  0  0  0  0  0  0
  -16.3869  -18.0601   22.6488 C   0  0  0  0  0  0  0  0  0  0  0  0
  -27.0008  -17.8380   20.7131 C   0  0  0  0  0  0  0  0  0  0  0  0
  -29.0850  -17.5580   19.5238 C   0  0  0  0  0  0  0  0  0  0  0  0
  -15.9668  -18.2517   25.0127 C   0  0  0  0  0  0  0  0  0  0  0  0
  -16.6487  -19.4292   22.5873 C   0  0  0  0  0  0  0  0  0  0  0  0
  -19.4349  -27.0886   20.8633 C   0  0  0  0  0  0  0  0  0  0  0  0
  -26.4316  -29.7201   21.1730 C   0  0  0  0  0  0  0  0  0  0  0  0
  -27.2709  -28.6799   20.7742 C   0  0  0  0  0  0  0  0  0  0  0  0
  -27.1348  -16.5574   21.2495 C   0  0  0  0  0  0  0  0  0  0  0  0
  -29.2191  -16.2774   20.0602 C   0  0  0  0  0  0  0  0  0  0  0  0
  -19.7370  -28.2168   21.6247 C   0  0  0  0  0  0  0  0  0  0  0  0
  -27.9597  -13.1923   19.4880 C   0  0  0  0  0  0  0  0  0  0  0  0
  -28.3401  -12.1647   18.6250 C   0  0  0  0  0  0  0  0  0  0  0  0
  -20.7186  -26.8048   23.3164 C   0  0  0  0  0  0  0  0  0  0  0  0
  -25.3684  -27.4859   19.8842 C   0  0  0  0  0  0  0  0  0  0  0  0
  -30.3101  -11.7675   19.9661 C   0  0  0  0  0  0  0  0  0  0  0  0
  -27.9759  -18.3383   19.8502 C   0  0  0  0  0  0  0  0  0  0  0  0
  -26.7898  -20.1376   18.4852 C   0  0  0  0  0  0  0  0  0  0  0  0
  -16.2157  -19.6332   24.9621 C   0  0  0  0  0  0  0  0  0  0  0  0
  -19.7632  -25.8071   21.3285 C   0  0  0  0  0  0  0  0  0  0  0  0
  -16.5915  -20.2307   23.7419 C   0  0  0  0  0  0  0  0  0  0  0  0
  -20.4218  -25.6621   22.5578 C   0  0  0  0  0  0  0  0  0  0  0  0
  -25.0606  -29.6432   20.9275 C   0  0  0  0  0  0  0  0  0  0  0  0
  -26.7394  -27.5629   20.1298 C   0  0  0  0  0  0  0  0  0  0  0  0
  -28.2439  -15.7771   20.9231 C   0  0  0  0  0  0  0  0  0  0  0  0
  -20.3763  -28.0748   22.8528 C   0  0  0  0  0  0  0  0  0  0  0  0
  -28.7545  -13.5076   20.5901 C   0  0  0  0  0  0  0  0  0  0  0  0
  -29.5153  -11.4523   18.8640 C   0  0  0  0  0  0  0  0  0  0  0  0
  -29.9297  -12.7952   20.8292 C   0  0  0  0  0  0  0  0  0  0  0  0
  -24.5290  -28.5262   20.2831 C   0  0  0  0  0  0  0  0  0  0  0  0
  -27.8377  -19.6608   19.2953 C   0  0  0  0  0  0  0  0  0  0  0  0
  -27.1242  -21.4442   18.2250 C   0  0  0  0  0  0  0  0  0  0  0  0
  -23.5746  -32.1226   23.2956 C   0  0  0  0  0  0  0  0  0  0  0  0
  -26.7704  -33.1742   24.7673 C   0  0  0  0  0  0  0  0  0  0  0  0
  -24.4968  -32.8690   23.9219 C   0  0  0  0  0  0  0  0  0  0  0  0
  -25.8512  -32.4295   24.1428 C   0  0  0  0  0  0  0  0  0  0  0  0
  -25.6188  -19.4601   18.0104 C   0  0  0  0  0  0  0  0  0  0  0  0
  -18.1051  -23.2041   22.0895 C   0  0  0  0  0  0  0  0  0  0  0  0
  -21.0548  -21.8931   22.4099 C   0  0  0  0  0  0  0  0  0  0  0  0
  -24.2436  -22.8857   23.7751 C   0  0  0  0  0  0  0  0  0  0  0  0
  -28.9739  -26.4237   19.8941 C   0  0  0  0  0  0  0  0  0  0  0  0
  -16.1172  -20.4300   26.2391 C   0  0  0  0  0  0  0  0  0  0  0  0
  -19.4544  -24.6021   20.4829 C   0  0  0  0  0  0  0  0  0  0  0  0
  -20.8138  -24.3099   23.0928 C   0  0  0  0  0  0  0  0  0  0  0  0
  -22.1615  -32.5860   23.0673 C   0  0  0  0  0  0  0  0  0  0  0  0
  -15.9758  -21.9290   25.9950 C   0  0  0  0  0  0  0  0  0  0  0  0
  -21.1731  -31.5304   23.5482 C   0  0  0  0  0  0  0  0  0  0  0  0
  -31.4250  -23.9752   19.0729 C   0  0  0  0  0  0  0  0  0  0  0  0
  -17.0367  -22.3976   25.0104 C   0  0  0  0  0  0  0  0  0  0  0  0
  -30.6240  -22.6737   18.9910 C   0  0  0  0  0  0  0  0  0  0  0  0
  -30.9081  -24.8903   20.1816 C   0  0  0  0  0  0  0  0  0  0  0  0
  -28.6677  -23.8746   20.0481 C   0  0  0  0  0  0  0  0  0  0  0  0
  -22.9727  -29.7738   23.3475 C   0  0  0  0  0  0  0  0  0  0  0  0
  -16.8506  -21.7233   23.6452 C   0  0  1  0  0  0  0  0  0  0  0  0
  -19.3732  -23.3104   21.2906 C   0  0  1  0  0  0  0  0  0  0  0  0
  -29.1099  -22.9484   18.9035 C   0  0  2  0  0  0  0  0  0  0  0  0
  -21.5315  -30.1458   23.0087 C   0  0  1  0  0  0  0  0  0  1  0  0
  -26.5699  -22.1498   23.1883 C   0  0  0  0  0  0  0  0  0  0  0  0
  -20.6799  -19.8848   24.6762 C   0  0  0  0  0  0  0  0  0  0  0  0
  -23.0727  -20.2592   25.3104 C   0  0  0  0  0  0  0  0  0  0  0  0
  -22.5109  -19.3159   23.0705 C   0  0  0  0  0  0  0  0  0  0  0  0
  -25.1246  -25.6681   23.2844 C   0  0  0  0  0  0  0  0  0  0  0  0
  -24.1924  -30.7832   21.3719 C   0  0  0  0  0  0  0  0  0  0  0  0
  -22.0472  -21.7567   23.5393 C   0  0  1  0  0  0  0  0  0  0  0  0
  -25.5030  -23.2162   22.9948 C   0  0  2  0  0  0  0  0  0  0  0  0
  -22.0594  -20.3259   24.1479 C   0  0  0  0  0  0  0  0  0  0  0  0
  -28.7682  -20.5889   19.5340 N   0  0  0  0  0  0  0  0  0  0  0  0
  -28.3062  -21.6619   18.8698 N   0  0  0  0  0  0  0  0  0  0  0  0
  -20.4848  -23.1616   22.2321 N   0  0  0  0  0  0  0  0  0  0  0  0
  -29.4678  -25.1092   20.0318 N   0  0  0  0  0  0  0  0  0  0  0  0
  -26.5195  -22.4165   17.5099 N   0  0  0  0  0  0  0  0  0  0  0  0
  -25.6881  -18.7867   16.7832 N   0  0  0  0  0  0  0  0  0  0  0  0
  -27.5921  -26.5058   19.7257 N   0  0  0  0  0  0  0  0  0  0  0  0
  -17.9897  -22.0296   22.8083 N   0  0  0  0  0  0  0  0  0  0  0  0
  -23.3342  -22.1904   23.0065 N   0  0  0  0  0  0  0  0  0  0  0  0
  -23.9614  -30.8035   22.8577 N   0  3  1  0  0  0  0  0  0  0  0  0
  -26.0601  -24.5246   23.4404 N   0  3  0  0  0  0  0  0  0  0  0  0
  -24.5382  -19.4660   18.6474 O   0  0  0  0  0  0  0  0  0  0  0  0
  -17.2923  -24.1206   22.0574 O   0  0  0  0  0  0  0  0  0  0  0  0
  -20.8003  -20.9120   21.7067 O   0  0  0  0  0  0  0  0  0  0  0  0
  -24.0841  -23.2085   24.9503 O   0  0  0  0  0  0  0  0  0  0  0  0
  -29.7247  -27.4026   19.8961 O   0  0  0  0  0  0  0  0  0  0  0  0
  -28.3751  -14.5276   21.4465 O   0  0  0  0  0  0  0  0  0  0  0  0
  -20.6717  -29.1743   23.5983 O   0  0  0  0  0  0  0  0  0  1  0  0
  -29.8796  -10.4645   18.0360 F   0  0  0  0  0  0  0  0  0  0  0  0
  -30.6967  -13.0927   21.8870 F   0  0  0  0  0  0  0  0  0  0  0  0
  -22.8378  -28.3960   19.9630 Cl  0  0  0  0  0  0  0  0  0  0  0  0
  1  2  1  0  0  0  0
  1  5  2  0  0  0  0
  2  6  2  0  0  0  0
  3 10  2  0  0  0  0
  3 18  1  0  0  0  0
  4 11  1  0  0  0  0
  4 18  2  0  0  0  0
  5 20  1  0  0  0  0
  6 22  1  0  0  0  0
  7 12  2  0  0  0  0
  7 21  1  0  0  0  0
  8  9  2  0  0  0  0
  8 24  1  0  0  0  0
  9 25  1  0  0  0  0
 10 26  1  0  0  0  0
 11 26  2  0  0  0  0
 12 27  1  0  0  0  0
 13 14  2  0  0  0  0
 13 28  1  0  0  0  0
 14 29  1  0  0  0  0
 15 23  1  0  0  0  0
 15 27  2  0  0  0  0
 16 25  2  0  0  0  0
 16 31  1  0  0  0  0
 17 29  2  0  0  0  0
 17 30  1  0  0  0  0
 18 32  1  0  0  0  0
 19 32  1  0  0  0  0
 19 33  2  0  0  0  0
 19 38  1  0  0  0  0
 20 22  2  0  0  0  0
 20 43  1  0  0  0  0
 21 23  2  0  0  0  0
 21 44  1  0  0  0  0
 22 55  1  0  0  0  0
 23 45  1  0  0  0  0
 24 31  2  0  0  0  0
 24 64  1  0  0  0  0
 25 74  1  0  0  0  0
 26 84  1  0  0  0  0
 27 85  1  0  0  0  0
 28 30  2  0  0  0  0
 28 84  1  0  0  0  0
 29 86  1  0  0  0  0
 30 87  1  0  0  0  0
 31 88  1  0  0  0  0
 32 68  2  0  0  0  0
 33 69  1  0  0  0  0
 33 72  1  0  0  0  0
 34 36  2  0  0  0  0
 34 46  1  0  0  0  0
 34 77  1  0  0  0  0
 35 37  2  0  0  0  0
 36 37  1  0  0  0  0
 38 73  1  0  0  0  0
 38 79  2  0  0  0  0
 39 56  1  0  0  0  0
 39 75  1  0  0  0  0
 39 80  2  0  0  0  0
 40 65  1  0  0  0  0
 40 70  1  0  0  0  0
 40 81  2  0  0  0  0
 41 66  1  0  0  0  0
 41 76  1  0  0  0  0
 41 82  2  0  0  0  0
 42 71  1  0  0  0  0
 42 74  1  0  0  0  0
 42 83  2  0  0  0  0
 43 47  1  0  0  0  0
 44 56  1  0  0  0  0
 45 70  1  0  0  0  0
 46 48  1  0  0  0  0
 47 50  1  0  0  0  0
 48 58  1  0  0  0  0
 49 51  1  0  0  0  0
 49 52  1  0  0  0  0
 50 55  1  0  0  0  0
 51 57  1  0  0  0  0
 52 71  1  0  0  0  0
 53 57  1  0  0  0  0
 53 71  1  0  0  0  0
 54 58  1  0  0  0  0
 54 77  1  0  0  0  0
 55 75  1  0  0  0  0
 56 70  1  0  0  0  0
 57 69  1  0  0  0  0
 58 85  1  0  0  0  0
 59 66  1  0  0  0  0
 60 67  1  0  0  0  0
 61 67  1  0  0  0  0
 62 67  1  0  0  0  0
 63 78  1  0  0  0  0
 64 77  1  0  0  0  0
 65 67  1  0  0  0  0
 65 76  1  0  0  0  0
 66 78  1  0  0  0  0
 68 69  1  0  0  0  0
M  CHG  2  77   1  78   1
M  ISO  4  42 100  58 101  74 100  85 101
M  END
> <Batch ID>
0043

> <Smiles>
C=CC=C1CC[101CH:1]([101O:1]c2ccc3c(c2)CN(C(=O)C(NC(=O)C(C)NC)C(C)(C)C)C(C(=O)NC2CCCc4ccccc42)C3)CN1Cc1ccc([100NH:0][100C:0](=O)N2CCCC(n3nc(-c4ccc(Oc5ccc(F)cc5F)cc4)c(C(N)=O)c3N)C2)cc1Cl

> <Shape>
0.255

> <Color>
0.048

> <Negative vol penalty>
0.000

$$$$

  -OEChem-04042322153D

 82 90  0     1  0  0  0  0  0999 V2000
  -24.2483  -35.8179   15.8978 C   0  0  0  0  0  0  0  0  0  0  0  0
  -24.5879  -34.4708   15.8239 C   0  0  0  0  0  0  0  0  0  0  0  0
  -25.9058  -12.1874   21.2405 C   0  0  0  0  0  0  0  0  0  0  0  0
  -25.8514  -13.8134   19.4544 C   0  0  0  0  0  0  0  0  0  0  0  0
  -24.5101  -36.5388   17.0621 C   0  0  0  0  0  0  0  0  0  0  0  0
  -25.1905  -33.8441   16.9141 C   0  0  0  0  0  0  0  0  0  0  0  0
  -24.4151  -28.0427   18.7164 C   0  0  0  0  0  0  0  0  0  0  0  0
  -32.0137  -22.0441   20.7628 C   0  0  0  0  0  0  0  0  0  0  0  0
  -31.1004  -21.2718   18.6637 C   0  0  0  0  0  0  0  0  0  0  0  0
  -32.0877  -20.7268   21.2153 C   0  0  0  0  0  0  0  0  0  0  0  0
  -31.1744  -19.9544   19.1161 C   0  0  0  0  0  0  0  0  0  0  0  0
  -24.5119  -12.1387   21.2387 C   0  0  0  0  0  0  0  0  0  0  0  0
  -24.4574  -13.7647   19.4525 C   0  0  0  0  0  0  0  0  0  0  0  0
  -25.1707  -26.8887   18.5140 C   0  0  0  0  0  0  0  0  0  0  0  0
  -22.0723  -10.6967   19.3942 C   0  0  0  0  0  0  0  0  0  0  0  0
  -21.4675   -9.4410   19.4487 C   0  0  0  0  0  0  0  0  0  0  0  0
  -26.2373  -27.2192   20.6523 C   0  0  0  0  0  0  0  0  0  0  0  0
  -20.3715  -10.0584   21.5115 C   0  0  0  0  0  0  0  0  0  0  0  0
  -26.5756  -13.0248   20.3484 C   0  0  0  0  0  0  0  0  0  0  0  0
  -28.8956  -12.2771   19.5959 C   0  0  0  0  0  0  0  0  0  0  0  0
  -25.1074  -35.9182   18.1706 C   0  0  0  0  0  0  0  0  0  0  0  0
  -24.5730  -28.8010   19.8854 C   0  0  0  0  0  0  0  0  0  0  0  0
  -25.4618  -34.5577   18.0939 C   0  0  0  0  0  0  0  0  0  0  0  0
  -25.4807  -28.3811   20.8683 C   0  0  0  0  0  0  0  0  0  0  0  0
  -31.5200  -22.3166   19.4870 C   0  0  0  0  0  0  0  0  0  0  0  0
  -31.6681  -19.6819   20.3920 C   0  0  0  0  0  0  0  0  0  0  0  0
  -23.7876  -12.9273   20.3446 C   0  0  0  0  0  0  0  0  0  0  0  0
  -26.0841  -26.4783   19.4807 C   0  0  0  0  0  0  0  0  0  0  0  0
  -21.8268  -11.6333   20.3983 C   0  0  0  0  0  0  0  0  0  0  0  0
  -20.6171   -9.1219   20.5073 C   0  0  0  0  0  0  0  0  0  0  0  0
  -20.9764  -11.3142   21.4569 C   0  0  0  0  0  0  0  0  0  0  0  0
  -28.0156  -13.0760   20.3503 C   0  0  0  0  0  0  0  0  0  0  0  0
  -30.1478  -12.7134   19.9538 C   0  0  0  0  0  0  0  0  0  0  0  0
  -28.6070  -11.2339   18.6556 C   0  0  0  0  0  0  0  0  0  0  0  0
  -25.5013  -31.7735   20.5227 C   0  0  0  0  0  0  0  0  0  0  0  0
  -24.6417  -30.9782   23.5478 C   0  0  0  0  0  0  0  0  0  0  0  0
  -29.0708  -24.4887   19.0472 C   0  0  0  0  0  0  0  0  0  0  0  0
  -24.1166  -28.5237   25.8600 C   0  0  0  0  0  0  0  0  0  0  0  0
  -32.2078  -17.9001   22.0891 C   0  0  0  0  0  0  0  0  0  0  0  0
  -25.4140  -36.7502   19.3906 C   0  0  0  0  0  0  0  0  0  0  0  0
  -23.7312  -30.0287   20.1007 C   0  0  0  0  0  0  0  0  0  0  0  0
  -25.6732  -29.1487   22.1498 C   0  0  0  0  0  0  0  0  0  0  0  0
  -25.7136  -35.9188   20.6353 C   0  0  0  0  0  0  0  0  0  0  0  0
  -32.5187  -14.6966   23.6117 C   0  0  0  0  0  0  0  0  0  0  0  0
  -26.6891  -34.7940   20.3037 C   0  0  0  0  0  0  0  0  0  0  0  0
  -31.4836  -13.8432   22.8753 C   0  0  0  0  0  0  0  0  0  0  0  0
  -32.0278  -16.1279   23.8217 C   0  0  0  0  0  0  0  0  0  0  0  0
  -30.5350  -15.9587   21.8692 C   0  0  0  0  0  0  0  0  0  0  0  0
  -26.0942  -33.8363   19.2642 C   0  0  1  0  0  0  0  0  0  0  0  0
  -24.3445  -31.0065   21.0982 C   0  0  1  0  0  0  0  0  0  0  0  0
  -31.0109  -14.5263   21.5770 C   0  0  2  0  0  0  0  0  0  0  0  0
  -23.4558  -28.1841   28.2570 C   0  0  0  0  0  0  0  0  0  0  0  0
  -27.4224  -31.8648   24.4374 C   0  0  0  0  0  0  0  0  0  0  0  0
  -27.0469  -30.6434   26.5904 C   0  0  0  0  0  0  0  0  0  0  0  0
  -25.5684  -32.5537   25.9680 C   0  0  0  0  0  0  0  0  0  0  0  0
  -21.7249  -26.9551   25.0995 C   0  0  0  0  0  0  0  0  0  0  0  0
  -31.4403  -23.7346   19.0000 C   0  0  0  0  0  0  0  0  0  0  0  0
  -28.1174  -25.3131   19.8856 C   0  0  0  0  0  0  0  0  0  1  0  0
  -25.3454  -30.3597   24.7315 C   0  0  1  0  0  0  0  0  0  0  0  0
  -22.9673  -28.2729   26.8195 C   0  0  2  0  0  0  0  0  0  0  0  0
  -26.3438  -31.3418   25.4069 C   0  0  0  0  0  0  0  0  0  0  0  0
  -28.6546  -13.9533   21.1288 N   0  0  0  0  0  0  0  0  0  0  0  0
  -29.9494  -13.7082   20.8656 N   0  0  0  0  0  0  0  0  0  0  0  0
  -24.8313  -30.3457   22.3109 N   0  0  0  0  0  0  0  0  0  0  0  0
  -31.6006  -16.7123   22.5486 N   0  0  0  0  0  0  0  0  0  0  0  0
  -31.3882  -12.3393   19.5745 N   0  0  0  0  0  0  0  0  0  0  0  0
  -27.2660  -10.9126   18.4050 N   0  0  0  0  0  0  0  0  0  0  0  0
  -31.7434  -18.3436   20.8513 N   0  0  0  0  0  0  0  0  0  0  0  0
  -25.1386  -32.9452   19.8864 N   0  0  0  0  0  0  0  0  0  0  0  0
  -30.3404  -24.4520   19.6021 N   0  0  0  0  0  0  0  0  0  0  0  0
  -24.2966  -29.8694   25.6193 N   0  0  0  0  0  0  0  0  0  0  0  0
  -22.2765  -26.9973   26.4783 N   0  3  0  0  0  0  0  0  0  0  0  0
  -29.5118  -10.5942   18.0678 O   0  0  0  0  0  0  0  0  0  0  0  0
  -26.6389  -31.3354   20.6481 O   0  0  0  0  0  0  0  0  0  0  0  0
  -23.9436  -31.9812   23.7156 O   0  0  0  0  0  0  0  0  0  0  0  0
  -28.7302  -23.9336   18.0061 O   0  0  0  0  0  0  0  0  0  0  0  0
  -24.7898  -27.6167   25.3755 O   0  0  0  0  0  0  0  0  0  0  0  0
  -33.0951  -18.4663   22.7327 O   0  0  0  0  0  0  0  0  0  0  0  0
  -22.4274  -12.8798   20.3423 O   0  0  0  0  0  0  0  0  0  0  0  0
  -26.8233  -25.3526   19.2854 O   0  0  0  0  0  0  0  0  0  1  0  0
  -20.0351   -7.9165   20.5588 F   0  0  0  0  0  0  0  0  0  0  0  0
  -20.7358  -12.2102   22.4239 F   0  0  0  0  0  0  0  0  0  0  0  0
  1  2  1  0  0  0  0
  1  5  2  0  0  0  0
  2  6  2  0  0  0  0
  3 12  2  0  0  0  0
  3 19  1  0  0  0  0
  4 13  1  0  0  0  0
  4 19  2  0  0  0  0
  5 21  1  0  0  0  0
  6 23  1  0  0  0  0
  7 14  2  0  0  0  0
  7 22  1  0  0  0  0
  8 10  2  0  0  0  0
  8 25  1  0  0  0  0
  9 11  1  0  0  0  0
  9 25  2  0  0  0  0
 10 26  1  0  0  0  0
 11 26  2  0  0  0  0
 12 27  1  0  0  0  0
 13 27  2  0  0  0  0
 14 28  1  0  0  0  0
 15 16  2  0  0  0  0
 15 29  1  0  0  0  0
 16 30  1  0  0  0  0
 17 24  1  0  0  0  0
 17 28  2  0  0  0  0
 18 30  2  0  0  0  0
 18 31  1  0  0  0  0
 19 32  1  0  0  0  0
 20 32  1  0  0  0  0
 20 33  2  0  0  0  0
 20 34  1  0  0  0  0
 21 23  2  0  0  0  0
 21 40  1  0  0  0  0
 22 24  2  0  0  0  0
 22 41  1  0  0  0  0
 23 49  1  0  0  0  0
 24 42  1  0  0  0  0
 25 57  1  0  0  0  0
 26 68  1  0  0  0  0
 27 79  1  0  0  0  0
 28 80  1  0  0  0  0
 29 31  2  0  0  0  0
 29 79  1  0  0  0  0
 30 81  1  0  0  0  0
 31 82  1  0  0  0  0
 32 62  2  0  0  0  0
 33 63  1  0  0  0  0
 33 66  1  0  0  0  0
 34 67  1  0  0  0  0
 34 73  2  0  0  0  0
 35 50  1  0  0  0  0
 35 69  1  0  0  0  0
 35 74  2  0  0  0  0
 36 59  1  0  0  0  0
 36 64  1  0  0  0  0
 36 75  2  0  0  0  0
 37 58  1  0  0  0  0
 37 70  1  0  0  0  0
 37 76  2  0  0  0  0
 38 60  1  0  0  0  0
 38 71  1  0  0  0  0
 38 77  2  0  0  0  0
 39 65  1  0  0  0  0
 39 68  1  0  0  0  0
 39 78  2  0  0  0  0
 40 43  1  0  0  0  0
 41 50  1  0  0  0  0
 42 64  1  0  0  0  0
 43 45  1  0  0  0  0
 44 46  1  0  0  0  0
 44 47  1  0  0  0  0
 45 49  1  0  0  0  0
 46 51  1  0  0  0  0
 47 65  1  0  0  0  0
 48 51  1  0  0  0  0
 48 65  1  0  0  0  0
 49 69  1  0  0  0  0
 50 64  1  0  0  0  0
 51 63  1  0  0  0  0
 52 60  1  0  0  0  0
 53 61  1  0  0  0  0
 54 61  1  0  0  0  0
 55 61  1  0  0  0  0
 56 72  1  0  0  0  0
 57 70  1  0  0  0  0
 58 80  1  0  0  0  0
 59 61  1  0  0  0  0
 59 71  1  0  0  0  0
 60 72  1  0  0  0  0
 62 63  1  0  0  0  0
M  CHG  1  72   1
M  ISO  4  39 100  58 101  68 100  80 101
M  END
> <Batch ID>
0043

> <Smiles>
CNC(C)C(=O)NC(C(=O)N1Cc2cc([101O:1][101CH2:1]C(=O)NCc3ccc([100NH:0][100C:0](=O)N4CCCC(n5nc(-c6ccc(Oc7ccc(F)cc7F)cc6)c(C(N)=O)c5N)C4)cc3)ccc2CC1C(=O)NC1CCCc2ccccc21)C(C)(C)C

> <Shape>
0.263

> <Color>
0.085

> <Negative vol penalty>
0.000

$$$$

  -OEChem-04042322153D

 85 93  0     1  0  0  0  0  0999 V2000
  -23.7752  -34.8645   16.8208 C   0  0  0  0  0  0  0  0  0  0  0  0
  -24.6683  -33.9946   17.4381 C   0  0  0  0  0  0  0  0  0  0  0  0
  -23.7468  -12.4011   20.5113 C   0  0  0  0  0  0  0  0  0  0  0  0
  -24.6450  -12.9419   22.6879 C   0  0  0  0  0  0  0  0  0  0  0  0
  -22.5516  -35.1501   17.4250 C   0  0  0  0  0  0  0  0  0  0  0  0
  -24.3386  -33.4105   18.6607 C   0  0  0  0  0  0  0  0  0  0  0  0
  -25.4183  -28.4650   18.8049 C   0  0  0  0  0  0  0  0  0  0  0  0
  -23.6167  -11.0668   20.8965 C   0  0  0  0  0  0  0  0  0  0  0  0
  -24.5149  -11.6076   23.0732 C   0  0  0  0  0  0  0  0  0  0  0  0
  -26.7519  -28.1099   19.0031 C   0  0  0  0  0  0  0  0  0  0  0  0
  -21.4800   -9.2030   22.7386 C   0  0  0  0  0  0  0  0  0  0  0  0
  -20.2874   -8.5511   22.4251 C   0  0  0  0  0  0  0  0  0  0  0  0
  -26.2898  -27.6998   21.3349 C   0  0  0  0  0  0  0  0  0  0  0  0
  -27.0294  -23.5875   23.3228 C   0  0  0  0  0  0  0  0  0  0  0  0
  -29.0481  -22.5639   21.6920 C   0  0  0  0  0  0  0  0  0  0  0  0
  -21.5155   -6.9339   21.1162 C   0  0  0  0  0  0  0  0  0  0  0  0
  -24.2611  -13.3386   21.4070 C   0  0  0  0  0  0  0  0  0  0  0  0
  -23.4396  -15.7401   21.1502 C   0  0  0  0  0  0  0  0  0  0  0  0
  -22.2027  -34.5617   18.6509 C   0  0  0  0  0  0  0  0  0  0  0  0
  -24.5114  -28.4505   19.8744 C   0  0  0  0  0  0  0  0  0  0  0  0
  -23.1097  -33.6895   19.2825 C   0  0  0  0  0  0  0  0  0  0  0  0
  -24.9447  -28.0526   21.1472 C   0  0  0  0  0  0  0  0  0  0  0  0
  -28.2795  -24.2052   23.2896 C   0  0  0  0  0  0  0  0  0  0  0  0
  -26.7886  -22.4579   22.5407 C   0  0  0  0  0  0  0  0  0  0  0  0
  -29.2889  -23.6934   22.4742 C   0  0  0  0  0  0  0  0  0  0  0  0
  -27.7980  -21.9461   21.7252 C   0  0  0  0  0  0  0  0  0  0  0  0
  -24.0007  -10.6701   22.1774 C   0  0  0  0  0  0  0  0  0  0  0  0
  -27.1885  -27.7300   20.2688 C   0  0  0  0  0  0  0  0  0  0  0  0
  -22.6904   -8.7204   22.2409 C   0  0  0  0  0  0  0  0  0  0  0  0
  -20.3051   -7.4166   21.6139 C   0  0  0  0  0  0  0  0  0  0  0  0
  -22.7081   -7.5858   21.4297 C   0  0  0  0  0  0  0  0  0  0  0  0
  -24.3963  -14.7170   21.0095 C   0  0  0  0  0  0  0  0  0  0  0  0
  -24.0475  -16.8534   20.6236 C   0  0  0  0  0  0  0  0  0  0  0  0
  -22.1195  -15.6886   21.7073 C   0  0  0  0  0  0  0  0  0  0  0  0
  -22.7342  -30.6421   21.3381 C   0  0  0  0  0  0  0  0  0  0  0  0
  -21.5555  -28.0669   22.9196 C   0  0  0  0  0  0  0  0  0  0  0  0
  -30.8298  -25.6025   20.2812 C   0  0  0  0  0  0  0  0  0  0  0  0
  -22.0188  -24.8559   23.9788 C   0  0  0  0  0  0  0  0  0  0  0  0
  -28.4788  -20.1783   20.0647 C   0  0  0  0  0  0  0  0  0  0  0  0
  -20.8886  -34.9376   19.2886 C   0  0  0  0  0  0  0  0  0  0  0  0
  -23.0702  -28.8106   19.6384 C   0  0  0  0  0  0  0  0  0  0  0  0
  -24.0063  -28.0009   22.3241 C   0  0  0  0  0  0  0  0  0  0  0  0
  -20.4573  -33.9858   20.4014 C   0  0  0  0  0  0  0  0  0  0  0  0
  -28.3195  -17.3191   17.9487 C   0  0  0  0  0  0  0  0  0  0  0  0
  -21.6242  -33.6999   21.3414 C   0  0  0  0  0  0  0  0  0  0  0  0
  -27.2060  -16.4714   18.5680 C   0  0  0  0  0  0  0  0  0  0  0  0
  -29.1519  -18.0287   19.0153 C   0  0  0  0  0  0  0  0  0  0  0  0
  -27.2657  -17.9741   20.5991 C   0  0  0  0  0  0  0  0  0  0  0  0
  -22.7778  -33.0169   20.5969 C   0  0  1  0  0  0  0  0  0  0  0  0
  -22.3498  -29.2548   20.9077 C   0  0  1  0  0  0  0  0  0  0  0  0
  -26.3597  -17.2915   19.5614 C   0  0  2  0  0  0  0  0  0  0  0  0
  -28.5142  -25.4131   24.1360 C   0  0  0  0  0  0  0  0  0  0  0  0
  -25.4400  -21.8166   22.5960 C   0  0  0  0  0  0  0  0  0  0  0  0
  -20.8946  -23.0301   25.2825 C   0  0  0  0  0  0  0  0  0  0  0  0
  -22.2274  -29.5137   25.5206 C   0  0  0  0  0  0  0  0  0  0  0  0
  -21.9851  -27.3281   26.7175 C   0  0  0  0  0  0  0  0  0  0  0  0
  -20.0296  -28.3204   25.5284 C   0  0  0  0  0  0  0  0  0  0  0  0
  -22.0003  -23.0398   21.6420 C   0  0  0  0  0  0  0  0  0  0  0  0
  -30.6423  -24.3413   22.4222 C   0  0  0  0  0  0  0  0  0  0  0  0
  -30.7579  -27.0242   19.7464 C   0  0  0  0  0  0  0  0  0  0  0  0
  -29.3531  -27.4318   19.3300 C   0  0  0  0  0  0  0  0  0  1  0  0
  -21.9250  -27.3266   24.1823 C   0  0  1  0  0  0  0  0  0  0  0  0
  -21.1241  -23.6318   23.9048 C   0  0  2  0  0  0  0  0  0  0  0  0
  -21.5602  -28.1249   25.4656 C   0  0  0  0  0  0  0  0  0  0  0  0
  -25.5261  -15.1425   20.4381 N   0  0  0  0  0  0  0  0  0  0  0  0
  -25.2831  -16.4453   20.2151 N   0  0  0  0  0  0  0  0  0  0  0  0
  -22.6084  -28.3682   22.0441 N   0  0  0  0  0  0  0  0  0  0  0  0
  -28.2837  -18.7887   19.9173 N   0  0  0  0  0  0  0  0  0  0  0  0
  -23.6404  -18.1319   20.4748 N   0  0  0  0  0  0  0  0  0  0  0  0
  -21.6510  -14.4646   22.2039 N   0  0  0  0  0  0  0  0  0  0  0  0
  -27.5728  -20.7998   20.9234 N   0  0  0  0  0  0  0  0  0  0  0  0
  -22.4852  -31.6149   20.3888 N   0  0  0  0  0  0  0  0  0  0  0  0
  -30.6270  -25.5649   21.6533 N   0  0  0  0  0  0  0  0  0  0  0  0
  -21.2858  -26.0184   24.0904 N   0  0  0  0  0  0  0  0  0  0  0  0
  -21.7407  -22.5913   23.0343 N   0  3  0  0  0  0  0  0  0  0  0  0
  -21.3711  -16.6945   21.7480 O   0  0  0  0  0  0  0  0  0  0  0  0
  -23.2194  -30.8172   22.4497 O   0  0  0  0  0  0  0  0  0  0  0  0
  -20.3752  -28.3605   22.7141 O   0  0  0  0  0  0  0  0  0  0  0  0
  -31.0420  -24.6249   19.5691 O   0  0  0  0  0  0  0  0  0  0  0  0
  -23.2455  -24.7874   23.9449 O   0  0  0  0  0  0  0  0  0  0  0  0
  -29.3659  -20.7777   19.4517 O   0  0  0  0  0  0  0  0  0  0  0  0
  -23.8736   -9.3682   22.5538 O   0  0  0  0  0  0  0  0  0  0  0  0
  -28.4898  -27.3836   20.4652 O   0  0  0  0  0  0  0  0  0  1  0  0
  -19.1599   -6.7898   21.3141 F   0  0  0  0  0  0  0  0  0  0  0  0
  -23.8680   -7.1168   20.9496 F   0  0  0  0  0  0  0  0  0  0  0  0
  1  2  1  0  0  0  0
  1  5  2  0  0  0  0
  2  6  2  0  0  0  0
  3  8  2  0  0  0  0
  3 17  1  0  0  0  0
  4  9  1  0  0  0  0
  4 17  2  0  0  0  0
  5 19  1  0  0  0  0
  6 21  1  0  0  0  0
  7 10  2  0  0  0  0
  7 20  1  0  0  0  0
  8 27  1  0  0  0  0
  9 27  2  0  0  0  0
 10 28  1  0  0  0  0
 11 12  2  0  0  0  0
 11 29  1  0  0  0  0
 12 30  1  0  0  0  0
 13 22  1  0  0  0  0
 13 28  2  0  0  0  0
 14 23  1  0  0  0  0
 14 24  2  0  0  0  0
 15 25  1  0  0  0  0
 15 26  2  0  0  0  0
 16 30  2  0  0  0  0
 16 31  1  0  0  0  0
 17 32  1  0  0  0  0
 18 32  1  0  0  0  0
 18 33  2  0  0  0  0
 18 34  1  0  0  0  0
 19 21  2  0  0  0  0
 19 40  1  0  0  0  0
 20 22  2  0  0  0  0
 20 41  1  0  0  0  0
 21 49  1  0  0  0  0
 22 42  1  0  0  0  0
 23 25  2  0  0  0  0
 23 52  1  0  0  0  0
 24 26  1  0  0  0  0
 24 53  1  0  0  0  0
 25 59  1  0  0  0  0
 26 71  1  0  0  0  0
 27 82  1  0  0  0  0
 28 83  1  0  0  0  0
 29 31  2  0  0  0  0
 29 82  1  0  0  0  0
 30 84  1  0  0  0  0
 31 85  1  0  0  0  0
 32 65  2  0  0  0  0
 33 66  1  0  0  0  0
 33 69  1  0  0  0  0
 34 70  1  0  0  0  0
 34 76  2  0  0  0  0
 35 50  1  0  0  0  0
 35 72  1  0  0  0  0
 35 77  2  0  0  0  0
 36 62  1  0  0  0  0
 36 67  1  0  0  0  0
 36 78  2  0  0  0  0
 37 60  1  0  0  0  0
 37 73  1  0  0  0  0
 37 79  2  0  0  0  0
 38 63  1  0  0  0  0
 38 74  1  0  0  0  0
 38 80  2  0  0  0  0
 39 68  1  0  0  0  0
 39 71  1  0  0  0  0
 39 81  2  0  0  0  0
 40 43  1  0  0  0  0
 41 50  1  0  0  0  0
 42 67  1  0  0  0  0
 43 45  1  0  0  0  0
 44 46  1  0  0  0  0
 44 47  1  0  0  0  0
 45 49  1  0  0  0  0
 46 51  1  0  0  0  0
 47 68  1  0  0  0  0
 48 51  1  0  0  0  0
 48 68  1  0  0  0  0
 49 72  1  0  0  0  0
 50 67  1  0  0  0  0
 51 66  1  0  0  0  0
 54 63  1  0  0  0  0
 55 64  1  0  0  0  0
 56 64  1  0  0  0  0
 57 64  1  0  0  0  0
 58 75  1  0  0  0  0
 59 73  1  0  0  0  0
 60 61  1  0  0  0  0
 61 83  1  0  0  0  0
 62 64  1  0  0  0  0
 62 74  1  0  0  0  0
 63 75  1  0  0  0  0
 65 66  1  0  0  0  0
M  CHG  1  75   1
M  ISO  4  39 100  61 101  71 100  83 101
M  END
> <Batch ID>
0043

> <Smiles>
CNC(C)C(=O)NC(C(=O)N1Cc2cc([101O:1][101CH2:1]CC(=O)NCc3cc([100NH:0][100C:0](=O)N4CCCC(n5nc(-c6ccc(Oc7ccc(F)cc7F)cc6)c(C(N)=O)c5N)C4)c(C)cc3C)ccc2CC1C(=O)NC1CCCc2ccccc21)C(C)(C)C

> <Shape>
0.219

> <Color>
0.075

> <Negative vol penalty>
0.000

$$$$

  -OEChem-04042322153D

 88 97  0     1  0  0  0  0  0999 V2000
  -17.8950  -17.5613   17.3058 C   0  0  0  0  0  0  0  0  0  0  0  0
  -19.2536  -17.2634   17.3322 C   0  0  0  0  0  0  0  0  0  0  0  0
  -26.3565  -28.0005   18.9378 C   0  0  0  0  0  0  0  0  0  0  0  0
  -25.9759  -27.3610   21.2363 C   0  0  0  0  0  0  0  0  0  0  0  0
  -17.2817  -18.1136   18.4295 C   0  0  0  0  0  0  0  0  0  0  0  0
  -20.0000  -17.5186   18.4820 C   0  0  0  0  0  0  0  0  0  0  0  0
  -23.0772  -13.6829   19.6918 C   0  0  0  0  0  0  0  0  0  0  0  0
  -25.8548  -29.2734   19.2089 C   0  0  0  0  0  0  0  0  0  0  0  0
  -25.4743  -28.6340   21.5074 C   0  0  0  0  0  0  0  0  0  0  0  0
  -24.2582  -13.5593   18.9613 C   0  0  0  0  0  0  0  0  0  0  0  0
  -22.5872  -30.3276   21.0306 C   0  0  0  0  0  0  0  0  0  0  0  0
  -21.4124  -30.4157   21.7773 C   0  0  0  0  0  0  0  0  0  0  0  0
  -25.4731  -14.6144   20.7585 C   0  0  0  0  0  0  0  0  0  0  0  0
  -31.6458  -17.6050   21.8557 C   0  0  0  0  0  0  0  0  0  0  0  0
  -28.9651  -16.8846   21.5766 C   0  0  0  0  0  0  0  0  0  0  0  0
  -22.5810  -31.6888   23.4657 C   0  0  0  0  0  0  0  0  0  0  0  0
  -26.4170  -27.0442   19.9515 C   0  0  0  0  0  0  0  0  0  0  0  0
  -28.2222  -25.4036   19.2052 C   0  0  0  0  0  0  0  0  0  0  0  0
  -18.0189  -18.3668   19.5970 C   0  0  0  0  0  0  0  0  0  0  0  0
  -23.0835  -14.2840   20.9587 C   0  0  0  0  0  0  0  0  0  0  0  0
  -19.3963  -18.0760   19.6220 C   0  0  0  0  0  0  0  0  0  0  0  0
  -24.2913  -14.7420   21.5041 C   0  0  0  0  0  0  0  0  0  0  0  0
  -31.2735  -16.2625   21.9251 C   0  0  0  0  0  0  0  0  0  0  0  0
  -30.6777  -18.5873   21.6468 C   0  0  0  0  0  0  0  0  0  0  0  0
  -29.9332  -15.9023   21.7856 C   0  0  0  0  0  0  0  0  0  0  0  0
  -29.3374  -18.2271   21.5072 C   0  0  0  0  0  0  0  0  0  0  0  0
  -25.4137  -29.5902   20.4937 C   0  0  0  0  0  0  0  0  0  0  0  0
  -25.4560  -14.0277   19.4933 C   0  0  0  0  0  0  0  0  0  0  0  0
  -23.7590  -30.9200   21.5015 C   0  0  0  0  0  0  0  0  0  0  0  0
  -21.4092  -31.0963   22.9949 C   0  0  0  0  0  0  0  0  0  0  0  0
  -23.7558  -31.6006   22.7190 C   0  0  0  0  0  0  0  0  0  0  0  0
  -26.9346  -25.7289   19.6720 C   0  0  0  0  0  0  0  0  0  0  0  0
  -28.2141  -24.0340   19.1019 C   0  0  0  0  0  0  0  0  0  0  0  0
  -28.9041  -13.9903   19.5645 C   0  0  0  0  0  0  0  0  0  0  0  0
  -29.2042  -15.0453   18.7846 C   0  0  0  0  0  0  0  0  0  0  0  0
  -29.3269  -26.2626   18.8930 C   0  0  0  0  0  0  0  0  0  0  0  0
  -21.7172  -16.8587   22.2267 C   0  0  0  0  0  0  0  0  0  0  0  0
  -23.0046  -15.7098   24.9735 C   0  0  0  0  0  0  0  0  0  0  0  0
  -26.1227  -14.2085   25.9938 C   0  0  0  0  0  0  0  0  0  0  0  0
  -26.9694  -19.0030   21.1374 C   0  0  0  0  0  0  0  0  0  0  0  0
  -17.3222  -19.0086   20.7706 C   0  0  0  0  0  0  0  0  0  0  0  0
  -21.8054  -14.3855   21.7452 C   0  0  0  0  0  0  0  0  0  0  0  0
  -24.3550  -15.3768   22.8685 C   0  0  0  0  0  0  0  0  0  0  0  0
  -18.1048  -18.9007   22.0769 C   0  0  0  0  0  0  0  0  0  0  0  0
  -28.8427  -10.8795   19.0546 C   0  0  0  0  0  0  0  0  0  0  0  0
  -24.3896  -20.7311   19.3951 C   0  0  0  0  0  0  0  0  0  0  0  0
  -30.1689  -11.3702   19.6372 C   0  0  0  0  0  0  0  0  0  0  0  0
  -19.5676  -19.2719   21.8550 C   0  0  0  0  0  0  0  0  0  0  0  0
  -27.9475  -11.9593   18.4510 C   0  0  0  0  0  0  0  0  0  0  0  0
  -24.9277  -22.1586   19.2734 C   0  0  0  0  0  0  0  0  0  0  0  0
  -24.7735  -20.0920   20.7285 C   0  0  0  0  0  0  0  0  0  0  0  0
  -26.7451  -21.5563   20.9229 C   0  0  0  0  0  0  0  0  0  0  0  0
  -29.9926  -12.2088   20.9011 C   0  0  0  0  0  0  0  0  0  0  0  0
  -20.2345  -18.3154   20.8590 C   0  0  1  0  0  0  0  0  0  0  0  0
  -27.6643  -13.1458   19.3749 C   0  0  2  0  0  0  0  0  0  1  0  0
  -21.8434  -15.4790   22.8084 C   0  0  1  0  0  0  0  0  0  0  0  0
  -26.4390  -22.2184   19.5696 C   0  0  2  0  0  0  0  0  0  0  0  0
  -32.3274  -15.2284   22.1499 C   0  0  0  0  0  0  0  0  0  0  0  0
  -31.1051  -20.0175   21.5766 C   0  0  0  0  0  0  0  0  0  0  0  0
  -26.6336  -12.6264   27.8735 C   0  0  0  0  0  0  0  0  0  0  0  0
  -23.6823  -18.2419   26.5352 C   0  0  0  0  0  0  0  0  0  0  0  0
  -25.5831  -16.9994   27.5895 C   0  0  0  0  0  0  0  0  0  0  0  0
  -23.2381  -16.2298   27.9523 C   0  0  0  0  0  0  0  0  0  0  0  0
  -27.3468  -12.2376   24.1565 C   0  0  0  0  0  0  0  0  0  0  0  0
  -29.5091  -14.4650   21.8569 C   0  0  0  0  0  0  0  0  0  0  0  0
  -24.3199  -15.8860   25.6932 C   0  0  1  0  0  0  0  0  0  0  0  0
  -26.3483  -12.7593   26.3857 C   0  0  2  0  0  0  0  0  0  0  0  0
  -24.2040  -16.8415   26.9142 C   0  0  0  0  0  0  0  0  0  0  0  0
  -26.1644  -24.6527   19.8526 N   0  0  0  0  0  0  0  0  0  0  0  0
  -26.9704  -23.6377   19.4974 N   0  0  0  0  0  0  0  0  0  0  0  0
  -23.0777  -15.4590   23.5959 N   0  0  0  0  0  0  0  0  0  0  0  0
  -26.2200  -20.1820   20.9390 N   0  0  0  0  0  0  0  0  0  0  0  0
  -29.1495  -23.1421   18.7122 N   0  0  0  0  0  0  0  0  0  0  0  0
  -30.2403  -26.5727   19.9097 N   0  0  0  0  0  0  0  0  0  0  0  0
  -28.3394  -19.2102   21.2942 N   0  0  0  0  0  0  0  0  0  0  0  0
  -20.5575  -17.0601   21.5027 N   0  0  0  0  0  0  0  0  0  0  0  0
  -24.7857  -14.5442   26.0266 N   0  0  0  0  0  0  0  0  0  0  0  0
  -29.8525  -13.6849   20.6124 N   0  3  2  0  0  0  0  0  0  0  0  0
  -27.5032  -12.1930   25.6332 N   0  3  0  0  0  0  0  0  0  0  0  0
  -29.4898  -26.7541   17.7504 O   0  0  0  0  0  0  0  0  0  0  0  0
  -22.6054  -17.6801   22.4216 O   0  0  0  0  0  0  0  0  0  0  0  0
  -21.9515  -15.7847   25.6113 O   0  0  0  0  0  0  0  0  0  0  0  0
  -27.0410  -14.9678   25.6927 O   0  0  0  0  0  0  0  0  0  0  0  0
  -26.4387  -17.8893   21.1388 O   0  0  0  0  0  0  0  0  0  0  0  0
  -24.9243  -30.8323   20.7586 O   0  0  0  0  0  0  0  0  0  0  0  0
  -26.6101  -13.9090   18.7821 O   0  0  0  0  0  0  0  0  0  1  0  0
  -20.2806  -31.1822   23.7111 F   0  0  0  0  0  0  0  0  0  0  0  0
  -24.8782  -32.1728   23.1759 F   0  0  0  0  0  0  0  0  0  0  0  0
  1  2  1  0  0  0  0
  1  5  2  0  0  0  0
  2  6  2  0  0  0  0
  3  8  2  0  0  0  0
  3 17  1  0  0  0  0
  4  9  1  0  0  0  0
  4 17  2  0  0  0  0
  5 19  1  0  0  0  0
  6 21  1  0  0  0  0
  7 10  2  0  0  0  0
  7 20  1  0  0  0  0
  8 27  1  0  0  0  0
  9 27  2  0  0  0  0
 10 28  1  0  0  0  0
 11 12  2  0  0  0  0
 11 29  1  0  0  0  0
 12 30  1  0  0  0  0
 13 22  1  0  0  0  0
 13 28  2  0  0  0  0
 14 23  1  0  0  0  0
 14 24  2  0  0  0  0
 15 25  1  0  0  0  0
 15 26  2  0  0  0  0
 16 30  2  0  0  0  0
 16 31  1  0  0  0  0
 17 32  1  0  0  0  0
 18 32  1  0  0  0  0
 18 33  2  0  0  0  0
 18 36  1  0  0  0  0
 19 21  2  0  0  0  0
 19 41  1  0  0  0  0
 20 22  2  0  0  0  0
 20 42  1  0  0  0  0
 21 54  1  0  0  0  0
 22 43  1  0  0  0  0
 23 25  2  0  0  0  0
 23 58  1  0  0  0  0
 24 26  1  0  0  0  0
 24 59  1  0  0  0  0
 25 65  1  0  0  0  0
 26 75  1  0  0  0  0
 27 85  1  0  0  0  0
 28 86  1  0  0  0  0
 29 31  2  0  0  0  0
 29 85  1  0  0  0  0
 30 87  1  0  0  0  0
 31 88  1  0  0  0  0
 32 69  2  0  0  0  0
 33 70  1  0  0  0  0
 33 73  1  0  0  0  0
 34 35  2  0  0  0  0
 34 55  1  0  0  0  0
 34 78  1  0  0  0  0
 36 74  1  0  0  0  0
 36 80  2  0  0  0  0
 37 56  1  0  0  0  0
 37 76  1  0  0  0  0
 37 81  2  0  0  0  0
 38 66  1  0  0  0  0
 38 71  1  0  0  0  0
 38 82  2  0  0  0  0
 39 67  1  0  0  0  0
 39 77  1  0  0  0  0
 39 83  2  0  0  0  0
 40 72  1  0  0  0  0
 40 75  1  0  0  0  0
 40 84  2  0  0  0  0
 41 44  1  0  0  0  0
 42 56  1  0  0  0  0
 43 71  1  0  0  0  0
 44 48  1  0  0  0  0
 45 47  1  0  0  0  0
 45 49  1  0  0  0  0
 46 50  1  0  0  0  0
 46 51  1  0  0  0  0
 47 53  1  0  0  0  0
 48 54  1  0  0  0  0
 49 55  1  0  0  0  0
 50 57  1  0  0  0  0
 51 72  1  0  0  0  0
 52 57  1  0  0  0  0
 52 72  1  0  0  0  0
 53 78  1  0  0  0  0
 54 76  1  0  0  0  0
 55 86  1  0  0  0  0
 56 71  1  0  0  0  0
 57 70  1  0  0  0  0
 60 67  1  0  0  0  0
 61 68  1  0  0  0  0
 62 68  1  0  0  0  0
 63 68  1  0  0  0  0
 64 79  1  0  0  0  0
 65 78  1  0  0  0  0
 66 68  1  0  0  0  0
 66 77  1  0  0  0  0
 67 79  1  0  0  0  0
 69 70  1  0  0  0  0
M  CHG  2  78   1  79   1
M  ISO  4  40 100  55 101  75 100  86 101
M  END
> <Batch ID>
0043

> <Smiles>
C=C1N(Cc2cc([100NH:0][100C:0](=O)N3CCCC(n4nc(-c5ccc(Oc6ccc(F)cc6F)cc5)c(C(N)=O)c4N)C3)c(C)cc2C)CCCC[101CH:1]1[101O:1]c1ccc2c(c1)CN(C(=O)C(NC(=O)C(C)NC)C(C)(C)C)C(C(=O)NC1CCCc3ccccc31)C2

> <Shape>
0.211

> <Color>
0.053

> <Negative vol penalty>
0.000

$$$$

  -OEChem-04042322153D

 87 96  0     1  0  0  0  0  0999 V2000
  -17.3117  -26.1728   23.3260 C   0  0  0  0  0  0  0  0  0  0  0  0
  -18.0886  -26.1758   22.1719 C   0  0  0  0  0  0  0  0  0  0  0  0
  -24.8612  -12.1913   23.4682 C   0  0  0  0  0  0  0  0  0  0  0  0
  -25.5156  -14.0938   24.8058 C   0  0  0  0  0  0  0  0  0  0  0  0
  -17.2489  -27.3131   24.1257 C   0  0  0  0  0  0  0  0  0  0  0  0
  -18.8024  -27.3197   21.8163 C   0  0  0  0  0  0  0  0  0  0  0  0
  -25.9623  -27.1330   21.0462 C   0  0  0  0  0  0  0  0  0  0  0  0
  -24.7258  -11.4243   24.6254 C   0  0  0  0  0  0  0  0  0  0  0  0
  -25.3800  -13.3269   25.9630 C   0  0  0  0  0  0  0  0  0  0  0  0
  -27.3067  -27.1294   20.6740 C   0  0  0  0  0  0  0  0  0  0  0  0
  -26.7512   -9.7826   26.7763 C   0  0  0  0  0  0  0  0  0  0  0  0
  -27.2894   -8.4958   26.7668 C   0  0  0  0  0  0  0  0  0  0  0  0
  -27.2063  -29.5078   20.2485 C   0  0  0  0  0  0  0  0  0  0  0  0
  -30.0653  -21.8202   21.3989 C   0  0  0  0  0  0  0  0  0  0  0  0
  -29.2371  -23.6951   22.6779 C   0  0  0  0  0  0  0  0  0  0  0  0
  -28.1802  -21.5322   22.8823 C   0  0  0  0  0  0  0  0  0  0  0  0
  -25.0963   -7.5756   27.1917 C   0  0  0  0  0  0  0  0  0  0  0  0
  -25.2562  -13.5260   23.5584 C   0  0  0  0  0  0  0  0  0  0  0  0
  -24.3974  -14.6152   21.4175 C   0  0  0  0  0  0  0  0  0  0  0  0
  -17.9700  -28.4684   23.7849 C   0  0  0  0  0  0  0  0  0  0  0  0
  -25.2380  -28.3283   21.0358 C   0  0  0  0  0  0  0  0  0  0  0  0
  -18.7482  -28.4770   22.6115 C   0  0  0  0  0  0  0  0  0  0  0  0
  -25.8627  -29.5199   20.6323 C   0  0  0  0  0  0  0  0  0  0  0  0
  -30.1415  -23.1661   21.7571 C   0  0  0  0  0  0  0  0  0  0  0  0
  -29.0846  -21.0032   21.9615 C   0  0  0  0  0  0  0  0  0  0  0  0
  -24.9851  -11.9921   25.8728 C   0  0  0  0  0  0  0  0  0  0  0  0
  -27.9271  -28.3139   20.2759 C   0  0  0  0  0  0  0  0  0  0  0  0
  -25.3856   -9.9660   26.9937 C   0  0  0  0  0  0  0  0  0  0  0  0
  -26.4619   -7.3923   26.9744 C   0  0  0  0  0  0  0  0  0  0  0  0
  -24.5582   -8.8624   27.2014 C   0  0  0  0  0  0  0  0  0  0  0  0
  -28.2564  -22.8781   23.2405 C   0  0  0  0  0  0  0  0  0  0  0  0
  -25.3969  -14.3186   22.3634 C   0  0  0  0  0  0  0  0  0  0  0  0
  -25.0318  -15.3932   20.4801 C   0  0  0  0  0  0  0  0  0  0  0  0
  -30.2134  -26.2113   20.4895 C   0  0  0  0  0  0  0  0  0  0  0  0
  -23.0187  -14.2227   21.3888 C   0  0  0  0  0  0  0  0  0  0  0  0
  -21.9614  -30.0413   21.6726 C   0  0  0  0  0  0  0  0  0  0  0  0
  -24.1614  -31.9159   22.7002 C   0  0  0  0  0  0  0  0  0  0  0  0
  -26.8481  -33.4966   24.0859 C   0  0  0  0  0  0  0  0  0  0  0  0
  -29.8257  -18.9536   20.6981 C   0  0  0  0  0  0  0  0  0  0  0  0
  -17.8334  -29.6925   24.6553 C   0  0  0  0  0  0  0  0  0  0  0  0
  -23.7715  -28.3684   21.3698 C   0  0  0  0  0  0  0  0  0  0  0  0
  -25.0351  -30.7757   20.6034 C   0  0  0  0  0  0  0  0  0  0  0  0
  -18.9165  -30.7394   24.4082 C   0  0  0  0  0  0  0  0  0  0  0  0
  -31.1490  -26.4130   17.3144 C   0  0  0  0  0  0  0  0  0  0  0  0
  -31.5963  -25.0546   17.8449 C   0  0  0  0  0  0  0  0  0  0  0  0
  -29.3463  -16.1571   18.5471 C   0  0  0  0  0  0  0  0  0  0  0  0
  -19.1018  -30.9731   22.9122 C   0  0  0  0  0  0  0  0  0  0  0  0
  -30.8865  -27.4634   18.3893 C   0  0  0  0  0  0  0  0  0  0  0  0
  -28.1841  -15.3985   19.1923 C   0  0  0  0  0  0  0  0  0  0  0  0
  -30.5794  -24.4012   18.7733 C   0  0  0  0  0  0  0  0  0  0  0  0
  -30.2727  -16.7726   19.5944 C   0  0  0  0  0  0  0  0  0  0  0  0
  -28.4430  -16.8541   21.2420 C   0  0  0  0  0  0  0  0  0  0  0  0
  -19.5564  -29.6903   22.2056 C   0  0  1  0  0  0  0  0  0  0  0  0
  -29.7468  -27.1016   19.3414 C   0  0  2  0  0  0  0  0  0  1  0  0
  -23.3518  -29.6622   22.0903 C   0  0  1  0  0  0  0  0  0  0  0  0
  -27.4465  -16.2713   20.2266 C   0  0  2  0  0  0  0  0  0  0  0  0
  -27.4729  -35.5605   25.3695 C   0  0  0  0  0  0  0  0  0  0  0  0
  -23.9105  -33.5725   20.1514 C   0  0  0  0  0  0  0  0  0  0  0  0
  -25.3983  -35.2886   21.2049 C   0  0  0  0  0  0  0  0  0  0  0  0
  -23.1918  -34.7509   22.2369 C   0  0  0  0  0  0  0  0  0  0  0  0
  -27.8468  -31.9105   26.3763 C   0  0  0  0  0  0  0  0  0  0  0  0
  -31.1966  -24.0456   21.1509 C   0  0  0  0  0  0  0  0  0  0  0  0
  -25.0777  -33.0750   22.4000 C   0  0  1  0  0  0  0  0  0  0  0  0
  -27.0629  -34.0990   25.4627 C   0  0  2  0  0  0  0  0  0  0  0  0
  -24.4033  -34.1448   21.4955 C   0  0  0  0  0  0  0  0  0  0  0  0
  -26.5767  -14.8636   22.0550 N   0  0  0  0  0  0  0  0  0  0  0  0
  -26.3226  -15.5105   20.9048 N   0  0  0  0  0  0  0  0  0  0  0  0
  -30.6479  -24.9345   20.1346 N   0  0  0  0  0  0  0  0  0  0  0  0
  -24.1826  -30.8432   21.8006 N   0  0  0  0  0  0  0  0  0  0  0  0
  -29.5050  -17.5890   20.5372 N   0  0  0  0  0  0  0  0  0  0  0  0
  -24.6059  -15.9815   19.3421 N   0  0  0  0  0  0  0  0  0  0  0  0
  -22.5300  -13.4226   22.4306 N   0  0  0  0  0  0  0  0  0  0  0  0
  -29.0067  -19.6362   21.5970 N   0  0  0  0  0  0  0  0  0  0  0  0
  -20.9666  -29.4595   22.4352 N   0  0  0  0  0  0  0  0  0  0  0  0
  -25.5299  -33.5829   23.6907 N   0  0  0  0  0  0  0  0  0  0  0  0
  -28.1300  -33.3571   26.1919 N   0  3  0  0  0  0  0  0  0  0  0  0
  -30.1982  -26.6286   21.6504 O   0  0  0  0  0  0  0  0  0  0  0  0
  -22.2472  -14.5574   20.4580 O   0  0  0  0  0  0  0  0  0  0  0  0
  -21.8014  -30.8065   20.7290 O   0  0  0  0  0  0  0  0  0  0  0  0
  -23.4410  -31.9602   23.7015 O   0  0  0  0  0  0  0  0  0  0  0  0
  -27.7593  -33.0025   23.4255 O   0  0  0  0  0  0  0  0  0  0  0  0
  -30.7408  -19.4844   20.0635 O   0  0  0  0  0  0  0  0  0  0  0  0
  -24.8528  -11.2441   27.0022 O   0  0  0  0  0  0  0  0  0  0  0  0
  -29.2411  -28.3040   19.9180 O   0  0  0  0  0  0  0  0  0  1  0  0
  -26.9785   -6.1565   26.9636 F   0  0  0  0  0  0  0  0  0  0  0  0
  -23.2453   -9.0322   27.4095 F   0  0  0  0  0  0  0  0  0  0  0  0
  -27.1392  -23.5310   24.3752 Cl  0  0  0  0  0  0  0  0  0  0  0  0
  1  2  1  0  0  0  0
  1  5  2  0  0  0  0
  2  6  2  0  0  0  0
  3  8  2  0  0  0  0
  3 18  1  0  0  0  0
  4  9  1  0  0  0  0
  4 18  2  0  0  0  0
  5 20  1  0  0  0  0
  6 22  1  0  0  0  0
  7 10  2  0  0  0  0
  7 21  1  0  0  0  0
  8 26  1  0  0  0  0
  9 26  2  0  0  0  0
 10 27  1  0  0  0  0
 11 12  2  0  0  0  0
 11 28  1  0  0  0  0
 12 29  1  0  0  0  0
 13 23  1  0  0  0  0
 13 27  2  0  0  0  0
 14 24  2  0  0  0  0
 14 25  1  0  0  0  0
 15 24  1  0  0  0  0
 15 31  2  0  0  0  0
 16 25  2  0  0  0  0
 16 31  1  0  0  0  0
 17 29  2  0  0  0  0
 17 30  1  0  0  0  0
 18 32  1  0  0  0  0
 19 32  1  0  0  0  0
 19 33  2  0  0  0  0
 19 35  1  0  0  0  0
 20 22  2  0  0  0  0
 20 40  1  0  0  0  0
 21 23  2  0  0  0  0
 21 41  1  0  0  0  0
 22 53  1  0  0  0  0
 23 42  1  0  0  0  0
 24 62  1  0  0  0  0
 25 73  1  0  0  0  0
 26 83  1  0  0  0  0
 27 84  1  0  0  0  0
 28 30  2  0  0  0  0
 28 83  1  0  0  0  0
 29 85  1  0  0  0  0
 30 86  1  0  0  0  0
 31 87  1  0  0  0  0
 32 66  2  0  0  0  0
 33 67  1  0  0  0  0
 33 71  1  0  0  0  0
 34 54  1  0  0  0  0
 34 68  1  0  0  0  0
 34 77  2  0  0  0  0
 35 72  1  0  0  0  0
 35 78  2  0  0  0  0
 36 55  1  0  0  0  0
 36 74  1  0  0  0  0
 36 79  2  0  0  0  0
 37 63  1  0  0  0  0
 37 69  1  0  0  0  0
 37 80  2  0  0  0  0
 38 64  1  0  0  0  0
 38 75  1  0  0  0  0
 38 81  2  0  0  0  0
 39 70  1  0  0  0  0
 39 73  1  0  0  0  0
 39 82  2  0  0  0  0
 40 43  1  0  0  0  0
 41 55  1  0  0  0  0
 42 69  1  0  0  0  0
 43 47  1  0  0  0  0
 44 45  1  0  0  0  0
 44 48  1  0  0  0  0
 45 50  1  0  0  0  0
 46 49  1  0  0  0  0
 46 51  1  0  0  0  0
 47 53  1  0  0  0  0
 48 54  1  0  0  0  0
 49 56  1  0  0  0  0
 50 68  1  0  0  0  0
 51 70  1  0  0  0  0
 52 56  1  0  0  0  0
 52 70  1  0  0  0  0
 53 74  1  0  0  0  0
 54 84  1  0  0  0  0
 55 69  1  0  0  0  0
 56 67  1  0  0  0  0
 57 64  1  0  0  0  0
 58 65  1  0  0  0  0
 59 65  1  0  0  0  0
 60 65  1  0  0  0  0
 61 76  1  0  0  0  0
 62 68  1  0  0  0  0
 63 65  1  0  0  0  0
 63 75  1  0  0  0  0
 64 76  1  0  0  0  0
 66 67  1  0  0  0  0
M  CHG  1  76   1
M  ISO  4  39 100  54 101  73 100  84 101
M  END
> <Batch ID>
0043

> <Smiles>
CNC(C)C(=O)NC(C(=O)N1Cc2cc([101O:1][101CH:1]3CCCCN(Cc4cc(Cl)cc([100NH:0][100C:0](=O)N5CCCC(n6nc(-c7ccc(Oc8ccc(F)cc8F)cc7)c(C(N)=O)c6N)C5)c4)C3=O)ccc2CC1C(=O)NC1CCCc2ccccc21)C(C)(C)C

> <Shape>
0.283

> <Color>
0.121

> <Negative vol penalty>
0.000

$$$$

  -OEChem-04042322153D

 87 96  0     1  0  0  0  0  0999 V2000
  -27.0589  -22.8036   19.9809 C   0  0  0  0  0  0  0  0  0  0  0  0
  -28.4753  -35.8231   22.0166 C   0  0  0  0  0  0  0  0  0  0  0  0
  -28.6694  -34.4465   21.9661 C   0  0  0  0  0  0  0  0  0  0  0  0
  -22.3579  -12.4790   22.6829 C   0  0  0  0  0  0  0  0  0  0  0  0
  -22.1780  -14.5824   21.5080 C   0  0  0  0  0  0  0  0  0  0  0  0
  -27.3038  -36.3410   22.5673 C   0  0  0  0  0  0  0  0  0  0  0  0
  -27.6925  -33.5869   22.4674 C   0  0  0  0  0  0  0  0  0  0  0  0
  -26.7727  -29.6801   19.3793 C   0  0  0  0  0  0  0  0  0  0  0  0
  -21.1092  -12.6973   23.2649 C   0  0  0  0  0  0  0  0  0  0  0  0
  -20.9293  -14.8006   22.0900 C   0  0  0  0  0  0  0  0  0  0  0  0
  -27.6907  -28.6309   19.3892 C   0  0  0  0  0  0  0  0  0  0  0  0
  -17.8608  -12.4313   22.3650 C   0  0  0  0  0  0  0  0  0  0  0  0
  -16.9610  -11.3657   22.3878 C   0  0  0  0  0  0  0  0  0  0  0  0
  -26.2204  -27.3658   20.8234 C   0  0  0  0  0  0  0  0  0  0  0  0
  -28.9142  -19.9598   18.4220 C   0  0  0  0  0  0  0  0  0  0  0  0
  -27.7937  -21.2912   16.7461 C   0  0  0  0  0  0  0  0  0  0  0  0
  -27.0993  -19.0110   17.1401 C   0  0  0  0  0  0  0  0  0  0  0  0
  -16.9067  -11.4633   24.8012 C   0  0  0  0  0  0  0  0  0  0  0  0
  -22.8923  -13.4216   21.8045 C   0  0  0  0  0  0  0  0  0  0  0  0
  -24.5590  -12.1225   20.3755 C   0  0  0  0  0  0  0  0  0  0  0  0
  -26.3078  -35.4871   23.0667 C   0  0  0  0  0  0  0  0  0  0  0  0
  -25.5745  -29.5843   20.1015 C   0  0  0  0  0  0  0  0  0  0  0  0
  -26.5072  -34.0939   23.0265 C   0  0  0  0  0  0  0  0  0  0  0  0
  -25.2877  -28.4142   20.8190 C   0  0  0  0  0  0  0  0  0  0  0  0
  -28.7722  -21.1636   17.7320 C   0  0  0  0  0  0  0  0  0  0  0  0
  -28.0778  -18.8834   18.1260 C   0  0  0  0  0  0  0  0  0  0  0  0
  -20.3949  -13.8581   22.9684 C   0  0  0  0  0  0  0  0  0  0  0  0
  -27.4160  -27.4747   20.1136 C   0  0  0  0  0  0  0  0  0  0  0  0
  -18.2836  -13.0129   23.5603 C   0  0  0  0  0  0  0  0  0  0  0  0
  -16.4840  -10.8817   23.6059 C   0  0  0  0  0  0  0  0  0  0  0  0
  -17.8065  -12.5289   24.7784 C   0  0  0  0  0  0  0  0  0  0  0  0
  -26.9573  -20.2149   16.4501 C   0  0  0  0  0  0  0  0  0  0  0  0
  -24.1824  -13.1969   21.2034 C   0  0  0  0  0  0  0  0  0  0  0  0
  -25.8752  -12.3694   20.0700 C   0  0  0  0  0  0  0  0  0  0  0  0
  -27.9586  -23.4767   19.3179 C   0  0  0  0  0  0  0  0  0  0  0  0
  -26.1658  -22.1349   20.6394 C   0  0  0  0  0  0  0  0  0  0  0  0
  -23.7881  -11.0015   19.9229 C   0  0  0  0  0  0  0  0  0  0  0  0
  -24.2752  -31.1940   22.5149 C   0  0  0  0  0  0  0  0  0  0  0  0
  -21.7249  -29.2848   21.9039 C   0  0  0  0  0  0  0  0  0  0  0  0
  -21.1687  -25.8145   21.0883 C   0  0  0  0  0  0  0  0  0  0  0  0
  -29.1427  -17.3665   19.8323 C   0  0  0  0  0  0  0  0  0  0  0  0
  -25.0790  -36.0948   23.6956 C   0  0  0  0  0  0  0  0  0  0  0  0
  -24.5826  -30.7142   20.0590 C   0  0  0  0  0  0  0  0  0  0  0  0
  -24.0065  -28.2534   21.5944 C   0  0  0  0  0  0  0  0  0  0  0  0
  -27.6414  -24.7375   18.5512 C   0  0  0  0  0  0  0  0  0  0  0  0
  -23.9286  -35.1056   23.8642 C   0  0  0  0  0  0  0  0  0  0  0  0
  -29.7932  -14.4898   21.8269 C   0  0  0  0  0  0  0  0  0  0  0  0
  -24.4337  -33.7959   24.4610 C   0  0  0  0  0  0  0  0  0  0  0  0
  -28.4643  -13.7309   21.8130 C   0  0  0  0  0  0  0  0  0  0  0  0
  -30.0809  -25.3597   18.8823 C   0  0  0  0  0  0  0  0  0  0  0  0
  -29.5822  -16.0024   21.8623 C   0  0  0  0  0  0  0  0  0  0  0  0
  -27.3715  -15.7721   20.7999 C   0  0  0  0  0  0  0  0  0  0  0  0
  -30.2643  -24.1116   19.7432 C   0  0  0  0  0  0  0  0  0  0  0  0
  -25.4599  -33.1284   23.5374 C   0  0  1  0  0  0  0  0  0  0  0  0
  -23.6260  -30.7146   21.2474 C   0  0  1  0  0  0  0  0  0  0  0  0
  -27.5326  -14.2465   20.6987 C   0  0  2  0  0  0  0  0  0  0  0  0
  -28.6348  -25.8554   18.8685 C   0  0  2  0  0  0  0  0  0  1  0  0
  -19.2995  -24.7145   19.8261 C   0  0  0  0  0  0  0  0  0  0  0  0
  -20.4979  -28.8599   24.6650 C   0  0  0  0  0  0  0  0  0  0  0  0
  -19.7108  -26.6122   23.8927 C   0  0  0  0  0  0  0  0  0  0  0  0
  -18.8812  -28.6773   22.7657 C   0  0  0  0  0  0  0  0  0  0  0  0
  -23.0456  -24.5496   19.1814 C   0  0  0  0  0  0  0  0  0  0  0  0
  -29.6724  -22.3211   18.0498 C   0  0  0  0  0  0  0  0  0  0  0  0
  -21.2655  -27.9288   22.3825 C   0  0  1  0  0  0  0  0  0  0  0  0
  -20.7185  -25.2563   19.7504 C   0  0  2  0  0  0  0  0  0  0  0  0
  -20.1165  -28.0264   23.4254 C   0  0  0  0  0  0  0  0  0  0  0  0
  -25.1788  -14.0619   21.4108 N   0  0  0  0  0  0  0  0  0  0  0  0
  -26.1945  -13.5312   20.7089 N   0  0  0  0  0  0  0  0  0  0  0  0
  -23.0713  -29.3885   21.5269 N   0  0  0  0  0  0  0  0  0  0  0  0
  -28.6930  -16.4186   20.7756 N   0  0  0  0  0  0  0  0  0  0  0  0
  -26.7789  -11.7037   19.3199 N   0  0  0  0  0  0  0  0  0  0  0  0
  -22.4509  -10.9019   20.3310 N   0  0  0  0  0  0  0  0  0  0  0  0
  -28.2227  -17.6602   18.8263 N   0  0  0  0  0  0  0  0  0  0  0  0
  -24.7940  -32.4721   22.4327 N   0  0  0  0  0  0  0  0  0  0  0  0
  -20.9233  -27.1679   21.1858 N   0  0  0  0  0  0  0  0  0  0  0  0
  -29.3211  -23.0029   19.3434 N   0  3  2  0  0  0  0  0  0  0  0  0
  -21.6211  -24.1514   19.3199 N   0  3  0  0  0  0  0  0  0  0  0  0
  -24.2753  -10.1059   19.1922 O   0  0  0  0  0  0  0  0  0  0  0  0
  -24.3020  -30.4593   23.4953 O   0  0  0  0  0  0  0  0  0  0  0  0
  -20.9170  -30.2159   21.8591 O   0  0  0  0  0  0  0  0  0  0  0  0
  -21.6831  -25.1189   21.9612 O   0  0  0  0  0  0  0  0  0  0  0  0
  -30.2718  -17.8596   19.8954 O   0  0  0  0  0  0  0  0  0  0  0  0
  -19.1763  -14.0713   23.5360 O   0  0  0  0  0  0  0  0  0  0  0  0
  -28.3106  -26.4493   20.1254 O   0  0  0  0  0  0  0  0  0  1  0  0
  -15.6187   -9.8594   23.6276 F   0  0  0  0  0  0  0  0  0  0  0  0
  -18.2081  -13.0843   25.9300 F   0  0  0  0  0  0  0  0  0  0  0  0
  -25.7512  -20.3715   15.2324 Cl  0  0  0  0  0  0  0  0  0  0  0  0
  1 35  2  0  0  0  0
  1 36  2  0  0  0  0
  2  3  1  0  0  0  0
  2  6  2  0  0  0  0
  3  7  2  0  0  0  0
  4  9  2  0  0  0  0
  4 19  1  0  0  0  0
  5 10  1  0  0  0  0
  5 19  2  0  0  0  0
  6 21  1  0  0  0  0
  7 23  1  0  0  0  0
  8 11  2  0  0  0  0
  8 22  1  0  0  0  0
  9 27  1  0  0  0  0
 10 27  2  0  0  0  0
 11 28  1  0  0  0  0
 12 13  2  0  0  0  0
 12 29  1  0  0  0  0
 13 30  1  0  0  0  0
 14 24  1  0  0  0  0
 14 28  2  0  0  0  0
 15 25  2  0  0  0  0
 15 26  1  0  0  0  0
 16 25  1  0  0  0  0
 16 32  2  0  0  0  0
 17 26  2  0  0  0  0
 17 32  1  0  0  0  0
 18 30  2  0  0  0  0
 18 31  1  0  0  0  0
 19 33  1  0  0  0  0
 20 33  1  0  0  0  0
 20 34  2  0  0  0  0
 20 37  1  0  0  0  0
 21 23  2  0  0  0  0
 21 42  1  0  0  0  0
 22 24  2  0  0  0  0
 22 43  1  0  0  0  0
 23 54  1  0  0  0  0
 24 44  1  0  0  0  0
 25 63  1  0  0  0  0
 26 73  1  0  0  0  0
 27 83  1  0  0  0  0
 28 84  1  0  0  0  0
 29 31  2  0  0  0  0
 29 83  1  0  0  0  0
 30 85  1  0  0  0  0
 31 86  1  0  0  0  0
 32 87  1  0  0  0  0
 33 67  2  0  0  0  0
 34 68  1  0  0  0  0
 34 71  1  0  0  0  0
 35 45  1  0  0  0  0
 35 76  1  0  0  0  0
 37 72  1  0  0  0  0
 37 78  2  0  0  0  0
 38 55  1  0  0  0  0
 38 74  1  0  0  0  0
 38 79  2  0  0  0  0
 39 64  1  0  0  0  0
 39 69  1  0  0  0  0
 39 80  2  0  0  0  0
 40 65  1  0  0  0  0
 40 75  1  0  0  0  0
 40 81  2  0  0  0  0
 41 70  1  0  0  0  0
 41 73  1  0  0  0  0
 41 82  2  0  0  0  0
 42 46  1  0  0  0  0
 43 55  1  0  0  0  0
 44 69  1  0  0  0  0
 45 57  1  0  0  0  0
 46 48  1  0  0  0  0
 47 49  1  0  0  0  0
 47 51  1  0  0  0  0
 48 54  1  0  0  0  0
 49 56  1  0  0  0  0
 50 53  1  0  0  0  0
 50 57  1  0  0  0  0
 51 70  1  0  0  0  0
 52 56  1  0  0  0  0
 52 70  1  0  0  0  0
 53 76  1  0  0  0  0
 54 74  1  0  0  0  0
 55 69  1  0  0  0  0
 56 68  1  0  0  0  0
 57 84  1  0  0  0  0
 58 65  1  0  0  0  0
 59 66  1  0  0  0  0
 60 66  1  0  0  0  0
 61 66  1  0  0  0  0
 62 77  1  0  0  0  0
 63 76  1  0  0  0  0
 64 66  1  0  0  0  0
 64 75  1  0  0  0  0
 65 77  1  0  0  0  0
 67 68  1  0  0  0  0
M  CHG  2  76   1  77   1
M  ISO  4  41 100  57 101  73 100  84 101
M  END
> <Batch ID>
0043

> <Smiles>
C=C=C1C[101CH:1]([101O:1]c2ccc3c(c2)CN(C(=O)C(NC(=O)C(C)NC)C(C)(C)C)C(C(=O)NC2CCCc4ccccc42)C3)CCN1Cc1cc(Cl)cc([100NH:0][100C:0](=O)N2CCCC(n3nc(-c4ccc(Oc5ccc(F)cc5F)cc4)c(C(N)=O)c3N)C2)c1

> <Shape>
0.309

> <Color>
0.080

> <Negative vol penalty>
0.000

$$$$

  -OEChem-04042322153D

 88 97  0     1  0  0  0  0  0999 V2000
  -27.5174  -32.7160   27.1189 C   0  0  0  0  0  0  0  0  0  0  0  0
  -27.7026  -31.5801   26.3373 C   0  0  0  0  0  0  0  0  0  0  0  0
  -22.7505  -10.7800   20.7148 C   0  0  0  0  0  0  0  0  0  0  0  0
  -24.4884   -9.3309   21.5613 C   0  0  0  0  0  0  0  0  0  0  0  0
  -26.2315  -33.2092   27.3360 C   0  0  0  0  0  0  0  0  0  0  0  0
  -26.6019  -30.9361   25.7733 C   0  0  0  0  0  0  0  0  0  0  0  0
  -27.3593  -29.6799   20.9263 C   0  0  0  0  0  0  0  0  0  0  0  0
  -27.0484  -19.6145   19.7724 C   0  0  0  0  0  0  0  0  0  0  0  0
  -27.1484  -18.2242   19.8222 C   0  0  0  0  0  0  0  0  0  0  0  0
  -21.8751  -10.2989   21.6884 C   0  0  0  0  0  0  0  0  0  0  0  0
  -23.6131   -8.8498   22.5349 C   0  0  0  0  0  0  0  0  0  0  0  0
  -28.1389  -28.5516   20.6754 C   0  0  0  0  0  0  0  0  0  0  0  0
  -21.0605   -6.6403   22.7172 C   0  0  0  0  0  0  0  0  0  0  0  0
  -21.0207   -5.2622   22.9289 C   0  0  0  0  0  0  0  0  0  0  0  0
  -26.1365  -27.2560   20.3133 C   0  0  0  0  0  0  0  0  0  0  0  0
  -29.5582  -18.3974   19.8195 C   0  0  0  0  0  0  0  0  0  0  0  0
  -21.6885   -5.5959   25.2267 C   0  0  0  0  0  0  0  0  0  0  0  0
  -24.0571  -10.2960   20.6512 C   0  0  0  0  0  0  0  0  0  0  0  0
  -24.8024  -10.7196   18.2485 C   0  0  0  0  0  0  0  0  0  0  0  0
  -25.1153  -32.5766   26.7665 C   0  0  0  0  0  0  0  0  0  0  0  0
  -25.9599  -29.6020   20.8833 C   0  0  0  0  0  0  0  0  0  0  0  0
  -25.2997  -31.4206   25.9841 C   0  0  0  0  0  0  0  0  0  0  0  0
  -25.3415  -28.3854   20.5616 C   0  0  0  0  0  0  0  0  0  0  0  0
  -28.2032  -20.3964   19.7461 C   0  0  0  0  0  0  0  0  0  0  0  0
  -28.4033  -17.6156   19.8457 C   0  0  0  0  0  0  0  0  0  0  0  0
  -22.3064   -9.3338   22.5984 C   0  0  0  0  0  0  0  0  0  0  0  0
  -27.5275  -27.3388   20.3716 C   0  0  0  0  0  0  0  0  0  0  0  0
  -21.4143   -7.4962   23.7603 C   0  0  0  0  0  0  0  0  0  0  0  0
  -21.3347   -4.7400   24.1836 C   0  0  0  0  0  0  0  0  0  0  0  0
  -21.7283   -6.9740   25.0150 C   0  0  0  0  0  0  0  0  0  0  0  0
  -29.4581  -19.7878   19.7697 C   0  0  0  0  0  0  0  0  0  0  0  0
  -24.9617  -10.7922   19.6454 C   0  0  0  0  0  0  0  0  0  0  0  0
  -25.9248  -11.3285   17.7428 C   0  0  0  0  0  0  0  0  0  0  0  0
  -28.6481  -23.7881   24.2008 C   0  0  0  0  0  0  0  0  0  0  0  0
  -29.0065  -24.7240   23.3094 C   0  0  0  0  0  0  0  0  0  0  0  0
  -23.7351  -10.1526   17.4771 C   0  0  0  0  0  0  0  0  0  0  0  0
  -23.6224  -30.0515   22.9900 C   0  0  0  0  0  0  0  0  0  0  0  0
  -21.7271  -29.6248   20.3923 C   0  0  0  0  0  0  0  0  0  0  0  0
  -21.3538  -28.3192   17.2613 C   0  0  0  0  0  0  0  0  0  0  0  0
  -29.6718  -15.4405   19.9239 C   0  0  0  0  0  0  0  0  0  0  0  0
  -23.7408  -33.1192   27.0683 C   0  0  0  0  0  0  0  0  0  0  0  0
  -25.1338  -30.8345   21.1302 C   0  0  0  0  0  0  0  0  0  0  0  0
  -23.8432  -28.2538   20.4828 C   0  0  0  0  0  0  0  0  0  0  0  0
  -28.8677  -22.3172   24.0186 C   0  0  0  0  0  0  0  0  0  0  0  0
  -29.7140  -24.4580   22.0124 C   0  0  0  0  0  0  0  0  0  0  0  0
  -22.6592  -32.5961   26.1267 C   0  0  0  0  0  0  0  0  0  0  0  0
  -27.7145  -21.6361   23.2789 C   0  0  0  0  0  0  0  0  0  0  0  0
  -30.5207  -12.1736   18.7909 C   0  0  0  0  0  0  0  0  0  0  0  0
  -22.7833  -31.0851   25.9581 C   0  0  0  0  0  0  0  0  0  0  0  0
  -29.1762  -11.4438   18.7485 C   0  0  0  0  0  0  0  0  0  0  0  0
  -30.6054  -13.1381   19.9725 C   0  0  0  0  0  0  0  0  0  0  0  0
  -28.1532  -13.3673   20.0294 C   0  0  0  0  0  0  0  0  0  0  0  0
  -27.2213  -22.3349   22.0084 C   0  0  0  0  0  0  0  0  0  0  0  0
  -24.1329  -30.7086   25.3349 C   0  0  1  0  0  0  0  0  0  0  0  0
  -23.7057  -30.5195   21.5646 C   0  0  1  0  0  0  0  0  0  0  0  0
  -27.9959  -12.4325   18.8190 C   0  0  2  0  0  0  0  0  0  0  0  0
  -28.8453  -24.0022   20.8252 C   0  0  2  0  0  0  0  0  0  0  0  0
  -19.6794  -28.1004   15.4050 C   0  0  0  0  0  0  0  0  0  0  0  0
  -20.2613  -27.4648   21.9722 C   0  0  0  0  0  0  0  0  0  0  0  0
  -19.2785  -26.6535   19.8172 C   0  0  0  0  0  0  0  0  0  0  0  0
  -18.7771  -28.9599   20.6245 C   0  0  0  0  0  0  0  0  0  0  0  0
  -23.0848  -29.7968   15.3695 C   0  0  0  0  0  0  0  0  0  0  0  0
  -28.0524  -21.8882   19.6930 C   0  0  0  0  0  0  0  0  0  0  0  0
  -27.7200  -24.9702   20.4649 C   0  0  0  0  0  0  0  0  0  1  0  0
  -21.0807  -28.4352   19.7243 C   0  0  1  0  0  0  0  0  0  0  0  0
  -20.8237  -28.9246   15.9741 C   0  0  2  0  0  0  0  0  0  0  0  0
  -19.8776  -27.8801   20.5379 C   0  0  0  0  0  0  0  0  0  0  0  0
  -26.0961  -11.3991   20.0041 N   0  0  0  0  0  0  0  0  0  0  0  0
  -26.6598  -11.7135   18.8254 N   0  0  0  0  0  0  0  0  0  0  0  0
  -23.0787  -29.4857   20.7385 N   0  0  0  0  0  0  0  0  0  0  0  0
  -29.4569  -14.0468   19.9721 N   0  0  0  0  0  0  0  0  0  0  0  0
  -26.3451  -11.5668   16.4823 N   0  0  0  0  0  0  0  0  0  0  0  0
  -22.6581   -9.5666   18.1561 N   0  0  0  0  0  0  0  0  0  0  0  0
  -28.5047  -16.2032   19.8951 N   0  0  0  0  0  0  0  0  0  0  0  0
  -24.1179  -30.9566   23.9091 N   0  0  0  0  0  0  0  0  0  0  0  0
  -20.7411  -28.8616   18.3711 N   0  0  0  0  0  0  0  0  0  0  0  0
  -28.3499  -22.5618   21.0154 N   0  3  2  0  0  0  0  0  0  0  0  0
  -21.9054  -28.9961   14.9515 N   0  3  0  0  0  0  0  0  0  0  0  0
  -23.7443  -10.1505   16.2227 O   0  0  0  0  0  0  0  0  0  0  0  0
  -23.1427  -28.9514   23.2377 O   0  0  0  0  0  0  0  0  0  0  0  0
  -21.0595  -30.6424   20.5928 O   0  0  0  0  0  0  0  0  0  0  0  0
  -22.2217  -27.4492   17.2803 O   0  0  0  0  0  0  0  0  0  0  0  0
  -30.8073  -15.9210   19.8818 O   0  0  0  0  0  0  0  0  0  0  0  0
  -21.4526   -8.8642   23.5487 O   0  0  0  0  0  0  0  0  0  0  0  0
  -28.2860  -26.2358   20.1269 O   0  0  0  0  0  0  0  0  0  1  0  0
  -21.2949   -3.4167   24.3872 F   0  0  0  0  0  0  0  0  0  0  0  0
  -22.0678   -7.7914   26.0212 F   0  0  0  0  0  0  0  0  0  0  0  0
  -30.9088  -20.7229   19.7379 Cl  0  0  0  0  0  0  0  0  0  0  0  0
  1  2  1  0  0  0  0
  1  5  2  0  0  0  0
  2  6  2  0  0  0  0
  3 10  2  0  0  0  0
  3 18  1  0  0  0  0
  4 11  1  0  0  0  0
  4 18  2  0  0  0  0
  5 20  1  0  0  0  0
  6 22  1  0  0  0  0
  7 12  2  0  0  0  0
  7 21  1  0  0  0  0
  8  9  2  0  0  0  0
  8 24  1  0  0  0  0
  9 25  1  0  0  0  0
 10 26  1  0  0  0  0
 11 26  2  0  0  0  0
 12 27  1  0  0  0  0
 13 14  2  0  0  0  0
 13 28  1  0  0  0  0
 14 29  1  0  0  0  0
 15 23  1  0  0  0  0
 15 27  2  0  0  0  0
 16 25  2  0  0  0  0
 16 31  1  0  0  0  0
 17 29  2  0  0  0  0
 17 30  1  0  0  0  0
 18 32  1  0  0  0  0
 19 32  1  0  0  0  0
 19 33  2  0  0  0  0
 19 36  1  0  0  0  0
 20 22  2  0  0  0  0
 20 41  1  0  0  0  0
 21 23  2  0  0  0  0
 21 42  1  0  0  0  0
 22 54  1  0  0  0  0
 23 43  1  0  0  0  0
 24 31  2  0  0  0  0
 24 63  1  0  0  0  0
 25 74  1  0  0  0  0
 26 84  1  0  0  0  0
 27 85  1  0  0  0  0
 28 30  2  0  0  0  0
 28 84  1  0  0  0  0
 29 86  1  0  0  0  0
 30 87  1  0  0  0  0
 31 88  1  0  0  0  0
 32 68  2  0  0  0  0
 33 69  1  0  0  0  0
 33 72  1  0  0  0  0
 34 35  2  0  0  0  0
 34 44  1  0  0  0  0
 35 45  1  0  0  0  0
 36 73  1  0  0  0  0
 36 79  2  0  0  0  0
 37 55  1  0  0  0  0
 37 75  1  0  0  0  0
 37 80  2  0  0  0  0
 38 65  1  0  0  0  0
 38 70  1  0  0  0  0
 38 81  2  0  0  0  0
 39 66  1  0  0  0  0
 39 76  1  0  0  0  0
 39 82  2  0  0  0  0
 40 71  1  0  0  0  0
 40 74  1  0  0  0  0
 40 83  2  0  0  0  0
 41 46  1  0  0  0  0
 42 55  1  0  0  0  0
 43 70  1  0  0  0  0
 44 47  1  0  0  0  0
 45 57  1  0  0  0  0
 46 49  1  0  0  0  0
 47 53  1  0  0  0  0
 48 50  1  0  0  0  0
 48 51  1  0  0  0  0
 49 54  1  0  0  0  0
 50 56  1  0  0  0  0
 51 71  1  0  0  0  0
 52 56  1  0  0  0  0
 52 71  1  0  0  0  0
 53 77  1  0  0  0  0
 54 75  1  0  0  0  0
 55 70  1  0  0  0  0
 56 69  1  0  0  0  0
 57 64  1  0  0  0  0
 57 77  1  0  0  0  0
 58 66  1  0  0  0  0
 59 67  1  0  0  0  0
 60 67  1  0  0  0  0
 61 67  1  0  0  0  0
 62 78  1  0  0  0  0
 63 77  1  0  0  0  0
 64 85  1  0  0  0  0
 65 67  1  0  0  0  0
 65 76  1  0  0  0  0
 66 78  1  0  0  0  0
 68 69  1  0  0  0  0
M  CHG  2  77   1  78   1
M  ISO  4  40 100  64 101  74 100  85 101
M  END
> <Batch ID>
0043

> <Smiles>
CNC(C)C(=O)NC(C(=O)N1Cc2cc([101O:1][101CH2:1]C3CC=CCCCN3Cc3ccc([100NH:0][100C:0](=O)N4CCCC(n5nc(-c6ccc(Oc7ccc(F)cc7F)cc6)c(C(N)=O)c5N)C4)cc3Cl)ccc2CC1C(=O)NC1CCCc2ccccc21)C(C)(C)C

> <Shape>
0.321

> <Color>
0.106

> <Negative vol penalty>
0.000

$$$$

  -OEChem-04042322153D

 95104  0     1  0  0  0  0  0999 V2000
  -15.8587  -31.3512   20.9105 C   0  0  0  0  0  0  0  0  0  0  0  0
  -17.1451  -31.4439   20.3890 C   0  0  0  0  0  0  0  0  0  0  0  0
  -22.8913  -10.1134   22.7108 C   0  0  0  0  0  0  0  0  0  0  0  0
  -24.4887   -9.6257   20.9651 C   0  0  0  0  0  0  0  0  0  0  0  0
  -15.6523  -30.7486   22.1507 C   0  0  0  0  0  0  0  0  0  0  0  0
  -18.2261  -30.9348   21.1080 C   0  0  0  0  0  0  0  0  0  0  0  0
  -23.2548  -28.2939   18.8182 C   0  0  0  0  0  0  0  0  0  0  0  0
  -31.8687  -26.1564   20.0611 C   0  0  0  0  0  0  0  0  0  0  0  0
  -22.2365   -8.9102   22.4478 C   0  0  0  0  0  0  0  0  0  0  0  0
  -23.8340   -8.4225   20.7021 C   0  0  0  0  0  0  0  0  0  0  0  0
  -24.5372  -28.7792   18.5661 C   0  0  0  0  0  0  0  0  0  0  0  0
  -22.6756   -5.6310   23.1456 C   0  0  0  0  0  0  0  0  0  0  0  0
  -22.3069   -4.8421   24.2352 C   0  0  0  0  0  0  0  0  0  0  0  0
  -32.2466  -24.9592   20.6689 C   0  0  0  0  0  0  0  0  0  0  0  0
  -25.2750  -27.9180   20.6953 C   0  0  0  0  0  0  0  0  0  0  0  0
  -29.5415  -18.7793   19.0087 C   0  0  0  0  0  0  0  0  0  0  0  0
  -30.5629  -17.2257   20.5514 C   0  0  0  0  0  0  0  0  0  0  0  0
  -19.9900   -5.0067   23.5703 C   0  0  0  0  0  0  0  0  0  0  0  0
  -24.0174  -10.4712   21.9694 C   0  0  0  0  0  0  0  0  0  0  0  0
  -30.8747  -23.7318   19.1041 C   0  0  0  0  0  0  0  0  0  0  0  0
  -25.7497  -11.9276   23.1465 C   0  0  0  0  0  0  0  0  0  0  0  0
  -16.7300  -30.2233   22.8808 C   0  0  0  0  0  0  0  0  0  0  0  0
  -22.9697  -27.6254   20.0174 C   0  0  0  0  0  0  0  0  0  0  0  0
  -18.0340  -30.3258   22.3597 C   0  0  0  0  0  0  0  0  0  0  0  0
  -23.9888  -27.4229   20.9590 C   0  0  0  0  0  0  0  0  0  0  0  0
  -30.9937  -26.1414   18.9749 C   0  0  0  0  0  0  0  0  0  0  0  0
  -30.8055  -19.2033   18.5988 C   0  0  0  0  0  0  0  0  0  0  0  0
  -30.4967  -24.9291   18.4963 C   0  0  0  0  0  0  0  0  0  0  0  0
  -31.9483  -18.6385   19.1651 C   0  0  0  0  0  0  0  0  0  0  0  0
  -29.4202  -17.7905   19.9851 C   0  0  0  0  0  0  0  0  0  0  0  0
  -22.7078   -8.0647   21.4435 C   0  0  0  0  0  0  0  0  0  0  0  0
  -25.5469  -28.5939   19.5060 C   0  0  0  0  0  0  0  0  0  0  0  0
  -21.7015   -6.1079   22.2684 C   0  0  0  0  0  0  0  0  0  0  0  0
  -20.9641   -4.5299   24.4475 C   0  0  0  0  0  0  0  0  0  0  0  0
  -31.8270  -17.6497   20.1415 C   0  0  0  0  0  0  0  0  0  0  0  0
  -20.3588   -5.7957   22.4807 C   0  0  0  0  0  0  0  0  0  0  0  0
  -31.7496  -23.7469   20.1903 C   0  0  0  0  0  0  0  0  0  0  0  0
  -24.6939  -11.7142   22.2402 C   0  0  0  0  0  0  0  0  0  0  0  0
  -26.0350  -13.2662   23.0324 C   0  0  0  0  0  0  0  0  0  0  0  0
  -30.3466  -22.4703   18.5904 C   0  0  0  0  0  0  0  0  0  0  0  0
  -26.4134  -10.9987   24.0139 C   0  0  0  0  0  0  0  0  0  0  0  0
  -21.0228  -28.1563   22.4734 C   0  0  0  0  0  0  0  0  0  0  0  0
  -22.0485  -25.2272   23.4171 C   0  0  0  0  0  0  0  0  0  0  0  0
  -24.4668  -22.8228   23.2845 C   0  0  0  0  0  0  0  0  0  0  0  0
  -26.9015  -17.8156   19.9412 C   0  0  0  0  0  0  0  0  0  0  0  0
  -16.4632  -29.6232   24.2386 C   0  0  0  0  0  0  0  0  0  0  0  0
  -21.5877  -27.0844   20.2625 C   0  0  0  0  0  0  0  0  0  0  0  0
  -23.7394  -26.6940   22.2532 C   0  0  0  0  0  0  0  0  0  0  0  0
  -17.6166  -28.7740   24.7664 C   0  0  0  0  0  0  0  0  0  0  0  0
  -23.5214  -16.9816   20.6872 C   0  0  0  0  0  0  0  0  0  0  0  0
  -18.9440  -29.5027   24.5823 C   0  0  0  0  0  0  0  0  0  0  0  0
  -23.6120  -15.5544   21.2323 C   0  0  0  0  0  0  0  0  0  0  0  0
  -24.5197  -17.2210   19.5559 C   0  0  0  0  0  0  0  0  0  0  0  0
  -26.0028  -15.4536   20.4195 C   0  0  0  0  0  0  0  0  0  0  0  0
  -19.2291  -29.7633   23.0983 C   0  0  1  0  0  0  0  0  0  0  0  0
  -21.2837  -26.8699   21.7420 C   0  0  1  0  0  0  0  0  0  0  0  0
  -25.0611  -15.1842   21.6045 C   0  0  2  0  0  0  0  0  0  0  0  0
  -29.5585  -24.9218   17.3298 C   0  0  0  0  0  0  0  0  0  0  0  0
  -33.3108  -19.0776   18.7392 C   0  0  0  0  0  0  0  0  0  0  0  0
  -25.0414  -20.5546   24.1915 C   0  0  0  0  0  0  0  0  0  0  0  0
  -22.7967  -26.4892   26.0924 C   0  0  0  0  0  0  0  0  0  0  0  0
  -24.1943  -24.4689   26.5754 C   0  0  0  0  0  0  0  0  0  0  0  0
  -21.7304  -24.2336   26.2649 C   0  0  0  0  0  0  0  0  0  0  0  0
  -24.5112  -21.6242   20.5789 C   0  0  0  0  0  0  0  0  0  0  0  0
  -30.9113  -20.2685   17.5460 C   0  0  0  0  0  0  0  0  0  0  0  0
  -30.6023  -27.4443   18.3422 C   0  0  0  0  0  0  0  0  0  0  0  0
  -28.7245  -29.0074   17.8231 C   0  0  0  0  0  0  0  0  0  0  0  0
  -27.2157  -29.1325   17.8994 C   0  0  0  0  0  0  0  0  0  1  0  0
  -23.1921  -24.7149   24.2589 C   0  0  1  0  0  0  0  0  0  0  0  0
  -24.3859  -21.3243   23.0554 C   0  0  2  0  0  0  0  0  0  0  0  0
  -22.9829  -24.9921   25.7745 C   0  0  0  0  0  0  0  0  0  0  0  0
  -24.3327  -12.8282   21.5978 N   0  0  0  0  0  0  0  0  0  0  0  0
  -25.1663  -13.7544   22.1012 N   0  0  0  0  0  0  0  0  0  0  0  0
  -22.3703  -26.1894   22.4494 N   0  0  0  0  0  0  0  0  0  0  0  0
  -25.8714  -16.8523   19.9824 N   0  0  0  0  0  0  0  0  0  0  0  0
  -26.9416  -14.0616   23.6388 N   0  0  0  0  0  0  0  0  0  0  0  0
  -25.9951   -9.6610   24.0059 N   0  0  0  0  0  0  0  0  0  0  0  0
  -28.1362  -17.3594   20.4015 N   0  0  0  0  0  0  0  0  0  0  0  0
  -31.2784  -21.5488   18.1070 N   0  0  0  0  0  0  0  0  0  0  0  0
  -19.7001  -28.5559   22.4545 N   0  0  0  0  0  0  0  0  0  0  0  0
  -23.3441  -23.3029   23.9252 N   0  0  0  0  0  0  0  0  0  0  0  0
  -25.0696  -20.9572   21.7831 N   0  3  0  0  0  0  0  0  0  0  0  0
  -29.1369  -27.6979   18.3882 N   0  3  0  0  0  0  0  0  0  0  0  0
  -29.1234  -22.2641   18.5775 O   0  0  0  0  0  0  0  0  0  0  0  0
  -27.3386  -11.3479   24.7856 O   0  0  0  0  0  0  0  0  0  0  0  0
  -21.9524  -28.7421   23.0159 O   0  0  0  0  0  0  0  0  0  0  0  0
  -20.9127  -24.7845   23.6061 O   0  0  0  0  0  0  0  0  0  0  0  0
  -25.4312  -23.4992   22.9339 O   0  0  0  0  0  0  0  0  0  0  0  0
  -26.6965  -18.9688   19.5537 O   0  0  0  0  0  0  0  0  0  0  0  0
  -22.0693   -6.8905   21.1867 O   0  0  0  0  0  0  0  0  0  0  0  0
  -26.7994  -29.0672   19.2628 O   0  0  0  0  0  0  0  0  0  1  0  0
  -20.6103   -3.7709   25.4930 F   0  0  0  0  0  0  0  0  0  0  0  0
  -32.9188  -17.0986   20.6902 F   0  0  0  0  0  0  0  0  0  0  0  0
  -19.4186   -6.2500   21.6408 F   0  0  0  0  0  0  0  0  0  0  0  0
  -32.2442  -22.2897   20.9760 Cl  0  0  0  0  0  0  0  0  0  0  0  0
  1  2  1  0  0  0  0
  1  5  2  0  0  0  0
  2  6  2  0  0  0  0
  3  9  2  0  0  0  0
  3 19  1  0  0  0  0
  4 10  1  0  0  0  0
  4 19  2  0  0  0  0
  5 22  1  0  0  0  0
  6 24  1  0  0  0  0
  7 11  2  0  0  0  0
  7 23  1  0  0  0  0
  8 14  2  0  0  0  0
  8 26  1  0  0  0  0
  9 31  1  0  0  0  0
 10 31  2  0  0  0  0
 11 32  1  0  0  0  0
 12 13  2  0  0  0  0
 12 33  1  0  0  0  0
 13 34  1  0  0  0  0
 14 37  1  0  0  0  0
 15 25  1  0  0  0  0
 15 32  2  0  0  0  0
 16 27  1  0  0  0  0
 16 30  2  0  0  0  0
 17 30  1  0  0  0  0
 17 35  2  0  0  0  0
 18 34  2  0  0  0  0
 18 36  1  0  0  0  0
 19 38  1  0  0  0  0
 20 28  1  0  0  0  0
 20 37  2  0  0  0  0
 20 40  1  0  0  0  0
 21 38  1  0  0  0  0
 21 39  2  0  0  0  0
 21 41  1  0  0  0  0
 22 24  2  0  0  0  0
 22 46  1  0  0  0  0
 23 25  2  0  0  0  0
 23 47  1  0  0  0  0
 24 55  1  0  0  0  0
 25 48  1  0  0  0  0
 26 28  2  0  0  0  0
 26 66  1  0  0  0  0
 27 29  2  0  0  0  0
 27 65  1  0  0  0  0
 28 58  1  0  0  0  0
 29 35  1  0  0  0  0
 29 59  1  0  0  0  0
 30 78  1  0  0  0  0
 31 90  1  0  0  0  0
 32 91  1  0  0  0  0
 33 36  2  0  0  0  0
 33 90  1  0  0  0  0
 34 92  1  0  0  0  0
 35 93  1  0  0  0  0
 36 94  1  0  0  0  0
 37 95  1  0  0  0  0
 38 72  2  0  0  0  0
 39 73  1  0  0  0  0
 39 76  1  0  0  0  0
 40 79  1  0  0  0  0
 40 84  2  0  0  0  0
 41 77  1  0  0  0  0
 41 85  2  0  0  0  0
 42 56  1  0  0  0  0
 42 80  1  0  0  0  0
 42 86  2  0  0  0  0
 43 69  1  0  0  0  0
 43 74  1  0  0  0  0
 43 87  2  0  0  0  0
 44 70  1  0  0  0  0
 44 81  1  0  0  0  0
 44 88  2  0  0  0  0
 45 75  1  0  0  0  0
 45 78  1  0  0  0  0
 45 89  2  0  0  0  0
 46 49  1  0  0  0  0
 47 56  1  0  0  0  0
 48 74  1  0  0  0  0
 49 51  1  0  0  0  0
 50 52  1  0  0  0  0
 50 53  1  0  0  0  0
 51 55  1  0  0  0  0
 52 57  1  0  0  0  0
 53 75  1  0  0  0  0
 54 57  1  0  0  0  0
 54 75  1  0  0  0  0
 55 80  1  0  0  0  0
 56 74  1  0  0  0  0
 57 73  1  0  0  0  0
 60 70  1  0  0  0  0
 61 71  1  0  0  0  0
 62 71  1  0  0  0  0
 63 71  1  0  0  0  0
 64 82  1  0  0  0  0
 65 79  1  0  0  0  0
 66 83  1  0  0  0  0
 67 68  1  0  0  0  0
 67 83  1  0  0  0  0
 68 91  1  0  0  0  0
 69 71  1  0  0  0  0
 69 81  1  0  0  0  0
 70 82  1  0  0  0  0
 72 73  1  0  0  0  0
M  CHG  2  82   1  83   1
M  ISO  4  45 100  68 101  78 100  91 101
M  END
> <Batch ID>
0043

> <Smiles>
CNC(C)C(=O)NC(C(=O)N1Cc2cc([101O:1][101CH2:1]CNCc3ccc(Cl)c(C(=O)NCc4cc([100NH:0][100C:0](=O)N5CCCC(n6nc(-c7ccc(Oc8ccc(F)cc8F)cc7)c(C(N)=O)c6N)C5)cc(F)c4C)c3C)ccc2CC1C(=O)NC1CCCc2ccccc21)C(C)(C)C

> <Shape>
0.235

> <Color>
0.073

> <Negative vol penalty>
0.000

$$$$

  -OEChem-04042322153D

 92101  0     1  0  0  0  0  0999 V2000
  -21.1750  -29.5125   14.1687 C   0  0  0  0  0  0  0  0  0  0  0  0
  -22.2906  -28.9721   14.8001 C   0  0  0  0  0  0  0  0  0  0  0  0
  -23.2460  -12.5191   23.6605 C   0  0  0  0  0  0  0  0  0  0  0  0
  -24.3893  -14.6148   24.0317 C   0  0  0  0  0  0  0  0  0  0  0  0
  -20.8543  -30.8568   14.3525 C   0  0  0  0  0  0  0  0  0  0  0  0
  -23.0869  -29.7761   15.6149 C   0  0  0  0  0  0  0  0  0  0  0  0
  -24.3232  -27.5071   19.9702 C   0  0  0  0  0  0  0  0  0  0  0  0
  -22.6222  -12.6394   24.9022 C   0  0  0  0  0  0  0  0  0  0  0  0
  -23.7655  -14.7352   25.2734 C   0  0  0  0  0  0  0  0  0  0  0  0
  -25.3416  -26.5559   19.9259 C   0  0  0  0  0  0  0  0  0  0  0  0
  -20.0184  -14.3418   26.2272 C   0  0  0  0  0  0  0  0  0  0  0  0
  -18.6520  -14.0702   26.2952 C   0  0  0  0  0  0  0  0  0  0  0  0
  -32.3259  -17.4655   20.4676 C   0  0  0  0  0  0  0  0  0  0  0  0
  -26.9003  -28.1945   20.7655 C   0  0  0  0  0  0  0  0  0  0  0  0
  -30.1844  -18.5772   20.3432 C   0  0  0  0  0  0  0  0  0  0  0  0
  -19.0824  -12.3032   27.8857 C   0  0  0  0  0  0  0  0  0  0  0  0
  -24.1296  -13.5067   23.2252 C   0  0  0  0  0  0  0  0  0  0  0  0
  -32.9495  -18.6922   20.6949 C   0  0  0  0  0  0  0  0  0  0  0  0
  -24.1527  -13.2987   20.6828 C   0  0  0  0  0  0  0  0  0  0  0  0
  -21.6415  -31.6753   15.1777 C   0  0  0  0  0  0  0  0  0  0  0  0
  -24.5886  -28.8144   20.4029 C   0  0  0  0  0  0  0  0  0  0  0  0
  -22.7772  -31.1330   15.8089 C   0  0  0  0  0  0  0  0  0  0  0  0
  -25.8830  -29.1597   20.8167 C   0  0  0  0  0  0  0  0  0  0  0  0
  -30.8081  -19.8040   20.5706 C   0  0  0  0  0  0  0  0  0  0  0  0
  -32.1907  -19.8615   20.7465 C   0  0  0  0  0  0  0  0  0  0  0  0
  -30.9433  -17.4080   20.2916 C   0  0  0  0  0  0  0  0  0  0  0  0
  -22.8819  -13.7475   25.7087 C   0  0  0  0  0  0  0  0  0  0  0  0
  -26.6310  -26.9003   20.3208 C   0  0  0  0  0  0  0  0  0  0  0  0
  -20.9169  -13.5940   26.9884 C   0  0  0  0  0  0  0  0  0  0  0  0
  -18.1839  -13.0509   27.1245 C   0  0  0  0  0  0  0  0  0  0  0  0
  -20.4489  -12.5747   27.8176 C   0  0  0  0  0  0  0  0  0  0  0  0
  -24.7748  -13.3827   21.9428 C   0  0  0  0  0  0  0  0  0  0  0  0
  -25.1932  -13.1948   19.7923 C   0  0  0  0  0  0  0  0  0  0  0  0
  -28.3360  -22.3485   19.3744 C   0  0  0  0  0  0  0  0  0  0  0  0
  -25.8668  -19.8598   18.2815 C   0  0  0  0  0  0  0  0  0  0  0  0
  -34.3957  -18.7169   20.8737 C   0  0  0  0  0  0  0  0  0  0  0  0
  -27.1617  -21.7876   19.0396 C   0  0  0  0  0  0  0  0  0  0  0  0
  -27.0361  -20.4176   18.6147 C   0  0  0  0  0  0  0  0  0  0  0  0
  -35.0809  -18.0892   21.8540 C   0  0  0  0  0  0  0  0  0  0  0  0
  -22.7588  -13.3134   20.3472 C   0  0  0  0  0  0  0  0  0  0  0  0
  -24.4158  -31.6960   19.0725 C   0  0  0  0  0  0  0  0  0  0  0  0
  -25.1423  -32.6959   22.0716 C   0  0  0  0  0  0  0  0  0  0  0  0
  -26.5460  -31.9889   25.1009 C   0  0  0  0  0  0  0  0  0  0  0  0
  -30.9146  -14.9081   19.9817 C   0  0  0  0  0  0  0  0  0  0  0  0
  -21.2821  -33.1343   15.3083 C   0  0  0  0  0  0  0  0  0  0  0  0
  -23.4733  -29.8214   20.4701 C   0  0  0  0  0  0  0  0  0  0  0  0
  -26.2155  -30.5439   21.3085 C   0  0  0  0  0  0  0  0  0  0  0  0
  -21.9634  -33.8263   16.4861 C   0  0  0  0  0  0  0  0  0  0  0  0
  -29.6977  -11.6020   19.4659 C   0  0  0  0  0  0  0  0  0  0  0  0
  -30.8856  -23.5747   18.9170 C   0  0  0  0  0  0  0  0  0  0  0  0
  -23.4470  -33.4743   16.5266 C   0  0  0  0  0  0  0  0  0  0  0  0
  -29.6303  -24.4413   18.9772 C   0  0  0  0  0  0  0  0  0  0  0  0
  -28.2389  -11.6773   19.9222 C   0  0  0  0  0  0  0  0  0  0  0  0
  -30.6090  -12.4673   20.3345 C   0  0  0  0  0  0  0  0  0  0  0  0
  -28.7281  -13.9421   20.9312 C   0  0  0  0  0  0  0  0  0  0  0  0
  -30.5702  -22.1665   18.4282 C   0  0  0  0  0  0  0  0  0  0  0  0
  -23.6514  -31.9669   16.7202 C   0  0  1  0  0  0  0  0  0  0  0  0
  -28.5331  -23.7862   19.8296 C   0  0  1  0  0  0  0  0  0  0  0  0
  -23.9683  -31.2641   20.4403 C   0  0  1  0  0  0  0  0  0  0  0  0
  -27.7619  -13.1377   20.0463 C   0  0  2  0  0  0  0  0  0  0  0  0
  -32.8489  -21.1843   20.9899 C   0  0  0  0  0  0  0  0  0  0  0  0
  -36.5664  -18.1500   22.0040 C   0  0  0  0  0  0  0  0  0  0  0  0
  -27.0225  -33.0179   27.3395 C   0  0  0  0  0  0  0  0  0  0  0  0
  -27.4483  -34.2777   20.8508 C   0  0  0  0  0  0  0  0  0  0  0  0
  -28.4251  -34.4912   23.1461 C   0  0  0  0  0  0  0  0  0  0  0  0
  -26.1915  -35.4829   22.6459 C   0  0  0  0  0  0  0  0  0  0  0  0
  -24.8864  -29.9816   26.5065 C   0  0  0  0  0  0  0  0  0  0  0  0
  -29.9680  -21.0460   20.6214 C   0  0  0  0  0  0  0  0  0  0  0  0
  -27.2803  -24.6684   19.8179 C   0  0  0  0  0  0  0  0  0  1  0  0
  -26.4202  -32.9715   22.8265 C   0  0  1  0  0  0  0  0  0  0  0  0
  -26.0417  -32.1961   26.5177 C   0  0  2  0  0  0  0  0  0  0  0  0
  -27.1158  -34.2802   22.3563 C   0  0  0  0  0  0  0  0  0  0  0  0
  -26.1073  -13.3359   21.8641 N   0  0  0  0  0  0  0  0  0  0  0  0
  -26.3310  -13.2214   20.5439 N   0  0  0  0  0  0  0  0  0  0  0  0
  -25.0924  -31.4949   21.3499 N   0  0  0  0  0  0  0  0  0  0  0  0
  -30.0971  -13.8378   20.4025 N   0  0  0  0  0  0  0  0  0  0  0  0
  -25.2368  -13.0841   18.4476 N   0  0  0  0  0  0  0  0  0  0  0  0
  -21.8230  -13.4263   21.3845 N   0  0  0  0  0  0  0  0  0  0  0  0
  -30.3093  -16.1618   20.0615 N   0  0  0  0  0  0  0  0  0  0  0  0
  -23.4351  -31.6011   18.1036 N   0  0  0  0  0  0  0  0  0  0  0  0
  -26.0692  -32.9569   24.2424 N   0  0  0  0  0  0  0  0  0  0  0  0
  -29.5048  -21.5000   19.2645 N   0  3  1  0  0  0  0  0  0  0  0  0
  -25.8457  -30.8831   27.1949 N   0  3  0  0  0  0  0  0  0  0  0  0
  -22.3546  -13.2126   19.1641 O   0  0  0  0  0  0  0  0  0  0  0  0
  -25.5653  -32.0878   18.9085 O   0  0  0  0  0  0  0  0  0  0  0  0
  -24.2195  -33.5127   22.1262 O   0  0  0  0  0  0  0  0  0  0  0  0
  -27.2914  -31.0632   24.7878 O   0  0  0  0  0  0  0  0  0  0  0  0
  -32.0571  -14.7230   19.5545 O   0  0  0  0  0  0  0  0  0  0  0  0
  -22.2731  -13.8654   26.9203 O   0  0  0  0  0  0  0  0  0  0  0  0
  -27.6269  -25.9740   20.2780 O   0  0  0  0  0  0  0  0  0  1  0  0
  -16.8716  -12.7912   27.1908 F   0  0  0  0  0  0  0  0  0  0  0  0
  -21.3071  -11.8538   28.5521 F   0  0  0  0  0  0  0  0  0  0  0  0
  1  2  1  0  0  0  0
  1  5  2  0  0  0  0
  2  6  2  0  0  0  0
  3  8  2  0  0  0  0
  3 17  1  0  0  0  0
  4  9  1  0  0  0  0
  4 17  2  0  0  0  0
  5 20  1  0  0  0  0
  6 22  1  0  0  0  0
  7 10  2  0  0  0  0
  7 21  1  0  0  0  0
  8 27  1  0  0  0  0
  9 27  2  0  0  0  0
 10 28  1  0  0  0  0
 11 12  2  0  0  0  0
 11 29  1  0  0  0  0
 12 30  1  0  0  0  0
 13 18  2  0  0  0  0
 13 26  1  0  0  0  0
 14 23  1  0  0  0  0
 14 28  2  0  0  0  0
 15 24  1  0  0  0  0
 15 26  2  0  0  0  0
 16 30  2  0  0  0  0
 16 31  1  0  0  0  0
 17 32  1  0  0  0  0
 18 25  1  0  0  0  0
 18 36  1  0  0  0  0
 19 32  1  0  0  0  0
 19 33  2  0  0  0  0
 19 40  1  0  0  0  0
 20 22  2  0  0  0  0
 20 45  1  0  0  0  0
 21 23  2  0  0  0  0
 21 46  1  0  0  0  0
 22 57  1  0  0  0  0
 23 47  1  0  0  0  0
 24 25  2  0  0  0  0
 24 68  1  0  0  0  0
 25 61  1  0  0  0  0
 26 79  1  0  0  0  0
 27 89  1  0  0  0  0
 28 90  1  0  0  0  0
 29 31  2  0  0  0  0
 29 89  1  0  0  0  0
 30 91  1  0  0  0  0
 31 92  1  0  0  0  0
 32 73  2  0  0  0  0
 33 74  1  0  0  0  0
 33 77  1  0  0  0  0
 34 37  2  0  0  0  0
 34 58  1  0  0  0  0
 34 82  1  0  0  0  0
 35 38  2  0  0  0  0
 36 39  2  0  0  0  0
 37 38  1  0  0  0  0
 39 62  1  0  0  0  0
 40 78  1  0  0  0  0
 40 84  2  0  0  0  0
 41 59  1  0  0  0  0
 41 80  1  0  0  0  0
 41 85  2  0  0  0  0
 42 70  1  0  0  0  0
 42 75  1  0  0  0  0
 42 86  2  0  0  0  0
 43 71  1  0  0  0  0
 43 81  1  0  0  0  0
 43 87  2  0  0  0  0
 44 76  1  0  0  0  0
 44 79  1  0  0  0  0
 44 88  2  0  0  0  0
 45 48  1  0  0  0  0
 46 59  1  0  0  0  0
 47 75  1  0  0  0  0
 48 51  1  0  0  0  0
 49 53  1  0  0  0  0
 49 54  1  0  0  0  0
 50 52  1  0  0  0  0
 50 56  1  0  0  0  0
 51 57  1  0  0  0  0
 52 58  1  0  0  0  0
 53 60  1  0  0  0  0
 54 76  1  0  0  0  0
 55 60  1  0  0  0  0
 55 76  1  0  0  0  0
 56 82  1  0  0  0  0
 57 80  1  0  0  0  0
 58 69  1  0  0  0  0
 59 75  1  0  0  0  0
 60 74  1  0  0  0  0
 63 71  1  0  0  0  0
 64 72  1  0  0  0  0
 65 72  1  0  0  0  0
 66 72  1  0  0  0  0
 67 83  1  0  0  0  0
 68 82  1  0  0  0  0
 69 90  1  0  0  0  0
 70 72  1  0  0  0  0
 70 81  1  0  0  0  0
 71 83  1  0  0  0  0
 73 74  1  0  0  0  0
M  CHG  2  82   1  83   1
M  ISO  4  44 100  69 101  79 100  90 101
M  END
> <Batch ID>
0043

> <Smiles>
C=CC=C1C([101CH2:1][101O:1]c2ccc3c(c2)CN(C(=O)C(NC(=O)C(C)NC)C(C)(C)C)C(C(=O)NC2CCCc4ccccc42)C3)CCCN1Cc1cc([100NH:0][100C:0](=O)N2CCCC(n3nc(-c4ccc(Oc5ccc(F)cc5F)cc4)c(C(N)=O)c3N)C2)cc(C=CC)c1C

> <Shape>
0.251

> <Color>
0.087

> <Negative vol penalty>
0.000

$$$$

  -OEChem-04042322153D

 84 92  0     1  0  0  0  0  0999 V2000
  -17.3419  -27.0277   18.9942 C   0  0  0  0  0  0  0  0  0  0  0  0
  -18.6751  -26.9106   18.6145 C   0  0  0  0  0  0  0  0  0  0  0  0
  -24.5265  -10.9442   23.7815 C   0  0  0  0  0  0  0  0  0  0  0  0
  -23.7300  -13.2244   23.7251 C   0  0  0  0  0  0  0  0  0  0  0  0
  -16.8941  -28.1947   19.6117 C   0  0  0  0  0  0  0  0  0  0  0  0
  -19.5611  -27.9610   18.8510 C   0  0  0  0  0  0  0  0  0  0  0  0
  -23.9813  -26.3833   20.7530 C   0  0  0  0  0  0  0  0  0  0  0  0
  -30.3645  -20.1419   19.7784 C   0  0  0  0  0  0  0  0  0  0  0  0
  -30.1812  -18.7765   19.5604 C   0  0  0  0  0  0  0  0  0  0  0  0
  -24.0817  -10.8214   25.0978 C   0  0  0  0  0  0  0  0  0  0  0  0
  -23.2851  -13.1016   25.0414 C   0  0  0  0  0  0  0  0  0  0  0  0
  -24.8947  -25.8233   19.8609 C   0  0  0  0  0  0  0  0  0  0  0  0
  -21.1472  -10.3107   26.6981 C   0  0  0  0  0  0  0  0  0  0  0  0
  -20.4505   -9.1522   27.0415 C   0  0  0  0  0  0  0  0  0  0  0  0
  -26.0951  -27.9144   19.7868 C   0  0  0  0  0  0  0  0  0  0  0  0
  -27.7919  -19.0627   19.7769 C   0  0  0  0  0  0  0  0  0  0  0  0
  -22.1322   -8.6312   28.6960 C   0  0  0  0  0  0  0  0  0  0  0  0
  -24.3507  -12.1458   23.0952 C   0  0  0  0  0  0  0  0  0  0  0  0
  -24.0849  -11.9911   20.5628 C   0  0  0  0  0  0  0  0  0  0  0  0
  -17.7772  -29.2562   19.8647 C   0  0  0  0  0  0  0  0  0  0  0  0
  -24.1119  -27.7186   21.1609 C   0  0  0  0  0  0  0  0  0  0  0  0
  -19.1244  -29.1439   19.4713 C   0  0  0  0  0  0  0  0  0  0  0  0
  -25.1835  -28.4882   20.6861 C   0  0  0  0  0  0  0  0  0  0  0  0
  -29.2616  -20.9678   19.9957 C   0  0  0  0  0  0  0  0  0  0  0  0
  -27.9753  -20.4282   19.9949 C   0  0  0  0  0  0  0  0  0  0  0  0
  -28.8949  -18.2369   19.5596 C   0  0  0  0  0  0  0  0  0  0  0  0
  -23.4610  -11.9001   25.7278 C   0  0  0  0  0  0  0  0  0  0  0  0
  -25.9502  -26.5897   19.3754 C   0  0  0  0  0  0  0  0  0  0  0  0
  -22.3365  -10.6295   27.3536 C   0  0  0  0  0  0  0  0  0  0  0  0
  -20.9430   -8.3124   28.0405 C   0  0  0  0  0  0  0  0  0  0  0  0
  -22.8290   -9.7898   28.3526 C   0  0  0  0  0  0  0  0  0  0  0  0
  -24.8105  -12.2734   21.7356 C   0  0  0  0  0  0  0  0  0  0  0  0
  -24.9596  -12.2723   19.5418 C   0  0  0  0  0  0  0  0  0  0  0  0
  -29.3999  -24.4858   19.2022 C   0  0  0  0  0  0  0  0  0  0  0  0
  -22.7404  -11.5173   20.4098 C   0  0  0  0  0  0  0  0  0  0  0  0
  -22.3220  -30.3315   20.8917 C   0  0  0  0  0  0  0  0  0  0  0  0
  -24.6032  -31.6190   22.8051 C   0  0  0  0  0  0  0  0  0  0  0  0
  -27.8168  -31.5233   23.9498 C   0  0  0  0  0  0  0  0  0  0  0  0
  -29.6937  -15.8918   19.1027 C   0  0  0  0  0  0  0  0  0  0  0  0
  -17.2364  -30.5166   20.4921 C   0  0  0  0  0  0  0  0  0  0  0  0
  -23.1335  -28.2998   22.1445 C   0  0  0  0  0  0  0  0  0  0  0  0
  -25.3798  -29.9204   21.1088 C   0  0  0  0  0  0  0  0  0  0  0  0
  -18.3222  -31.4359   21.0455 C   0  0  0  0  0  0  0  0  0  0  0  0
  -29.6424  -12.3757   18.5444 C   0  0  0  0  0  0  0  0  0  0  0  0
  -19.4514  -31.5982   20.0329 C   0  0  0  0  0  0  0  0  0  0  0  0
  -28.3285  -11.9256   19.1873 C   0  0  0  0  0  0  0  0  0  0  0  0
  -30.3090  -13.4960   19.3408 C   0  0  0  0  0  0  0  0  0  0  0  0
  -28.1371  -14.2046   20.2629 C   0  0  0  0  0  0  0  0  0  0  0  0
  -20.1214  -30.2518   19.7333 C   0  0  1  0  0  0  0  0  0  0  0  0
  -23.0680  -29.8231   22.0928 C   0  0  1  0  0  0  0  0  0  0  0  0
  -27.3962  -13.1221   19.4611 C   0  0  2  0  0  0  0  0  0  0  0  0
  -26.7796  -21.2934   20.2233 C   0  0  0  0  0  0  0  0  0  0  0  0
  -29.4001  -32.7290   25.4785 C   0  0  0  0  0  0  0  0  0  0  0  0
  -24.9169  -33.8335   20.7297 C   0  0  0  0  0  0  0  0  0  0  0  0
  -27.0948  -34.4385   21.8064 C   0  0  0  0  0  0  0  0  0  0  0  0
  -24.9721  -34.6144   23.1049 C   0  0  0  0  0  0  0  0  0  0  0  0
  -28.1815  -29.1288   25.6504 C   0  0  0  0  0  0  0  0  0  0  0  0
  -29.4843  -22.4358   20.2292 C   0  0  0  0  0  0  0  0  0  0  0  0
  -28.1765  -26.5522   18.5399 C   0  0  0  0  0  0  0  0  0  1  0  0
  -29.1301  -25.4584   18.0838 C   0  0  1  0  0  0  0  0  0  0  0  0
  -25.9154  -32.3292   22.5752 C   0  0  1  0  0  0  0  0  0  0  0  0
  -28.3887  -31.6002   25.3539 C   0  0  2  0  0  0  0  0  0  0  0  0
  -25.7203  -33.7775   22.0444 C   0  0  0  0  0  0  0  0  0  0  0  0
  -26.0507  -12.7009   21.4843 N   0  0  0  0  0  0  0  0  0  0  0  0
  -29.1720  -23.2282   19.0435 N   0  0  0  0  0  0  0  0  0  0  0  0
  -26.1112  -12.6893   20.1418 N   0  0  0  0  0  0  0  0  0  0  0  0
  -24.3933  -30.4453   22.0673 N   0  0  0  0  0  0  0  0  0  0  0  0
  -29.3676  -14.5967   19.5580 N   0  0  0  0  0  0  0  0  0  0  0  0
  -24.8483  -12.2009   18.1983 N   0  0  0  0  0  0  0  0  0  0  0  0
  -21.9805  -11.2796   21.5633 N   0  0  0  0  0  0  0  0  0  0  0  0
  -28.7080  -16.8502   19.3362 N   0  0  0  0  0  0  0  0  0  0  0  0
  -21.0177  -29.8830   20.8081 N   0  0  0  0  0  0  0  0  0  0  0  0
  -26.6494  -32.2478   23.8334 N   0  0  0  0  0  0  0  0  0  0  0  0
  -30.4153  -26.0858   17.6758 N   0  3  0  0  0  0  0  0  0  0  0  0
  -29.0661  -30.3209   25.7080 N   0  3  0  0  0  0  0  0  0  0  0  0
  -22.2335  -11.2950   19.2841 O   0  0  0  0  0  0  0  0  0  0  0  0
  -22.8875  -31.0769   20.1003 O   0  0  0  0  0  0  0  0  0  0  0  0
  -23.7974  -32.0844   23.6148 O   0  0  0  0  0  0  0  0  0  0  0  0
  -28.3541  -30.8875   23.0456 O   0  0  0  0  0  0  0  0  0  0  0  0
  -30.7565  -16.1271   18.5222 O   0  0  0  0  0  0  0  0  0  0  0  0
  -23.0266  -11.7805   27.0121 O   0  0  0  0  0  0  0  0  0  0  0  0
  -26.8428  -26.0458   18.5041 O   0  0  0  0  0  0  0  0  0  1  0  0
  -20.2730   -7.2007   28.3712 F   0  0  0  0  0  0  0  0  0  0  0  0
  -23.9703  -10.0915   28.9867 F   0  0  0  0  0  0  0  0  0  0  0  0
  1  2  1  0  0  0  0
  1  5  2  0  0  0  0
  2  6  2  0  0  0  0
  3 10  2  0  0  0  0
  3 18  1  0  0  0  0
  4 11  1  0  0  0  0
  4 18  2  0  0  0  0
  5 20  1  0  0  0  0
  6 22  1  0  0  0  0
  7 12  2  0  0  0  0
  7 21  1  0  0  0  0
  8  9  2  0  0  0  0
  8 24  1  0  0  0  0
  9 26  1  0  0  0  0
 10 27  1  0  0  0  0
 11 27  2  0  0  0  0
 12 28  1  0  0  0  0
 13 14  2  0  0  0  0
 13 29  1  0  0  0  0
 14 30  1  0  0  0  0
 15 23  1  0  0  0  0
 15 28  2  0  0  0  0
 16 25  1  0  0  0  0
 16 26  2  0  0  0  0
 17 30  2  0  0  0  0
 17 31  1  0  0  0  0
 18 32  1  0  0  0  0
 19 32  1  0  0  0  0
 19 33  2  0  0  0  0
 19 35  1  0  0  0  0
 20 22  2  0  0  0  0
 20 40  1  0  0  0  0
 21 23  2  0  0  0  0
 21 41  1  0  0  0  0
 22 49  1  0  0  0  0
 23 42  1  0  0  0  0
 24 25  2  0  0  0  0
 24 58  1  0  0  0  0
 25 52  1  0  0  0  0
 26 71  1  0  0  0  0
 27 81  1  0  0  0  0
 28 82  1  0  0  0  0
 29 31  2  0  0  0  0
 29 81  1  0  0  0  0
 30 83  1  0  0  0  0
 31 84  1  0  0  0  0
 32 64  2  0  0  0  0
 33 66  1  0  0  0  0
 33 69  1  0  0  0  0
 34 60  1  0  0  0  0
 34 65  2  0  0  0  0
 35 70  1  0  0  0  0
 35 76  2  0  0  0  0
 36 50  1  0  0  0  0
 36 72  1  0  0  0  0
 36 77  2  0  0  0  0
 37 61  1  0  0  0  0
 37 67  1  0  0  0  0
 37 78  2  0  0  0  0
 38 62  1  0  0  0  0
 38 73  1  0  0  0  0
 38 79  2  0  0  0  0
 39 68  1  0  0  0  0
 39 71  1  0  0  0  0
 39 80  2  0  0  0  0
 40 43  1  0  0  0  0
 41 50  1  0  0  0  0
 42 67  1  0  0  0  0
 43 45  1  0  0  0  0
 44 46  1  0  0  0  0
 44 47  1  0  0  0  0
 45 49  1  0  0  0  0
 46 51  1  0  0  0  0
 47 68  1  0  0  0  0
 48 51  1  0  0  0  0
 48 68  1  0  0  0  0
 49 72  1  0  0  0  0
 50 67  1  0  0  0  0
 51 66  1  0  0  0  0
 53 62  1  0  0  0  0
 54 63  1  0  0  0  0
 55 63  1  0  0  0  0
 56 63  1  0  0  0  0
 57 75  1  0  0  0  0
 58 65  1  0  0  0  0
 59 60  1  0  0  0  0
 59 82  1  0  0  0  0
 60 74  1  0  0  0  0
 61 63  1  0  0  0  0
 61 73  1  0  0  0  0
 62 75  1  0  0  0  0
 64 66  1  0  0  0  0
M  CHG  2  74   1  75   1
M  ISO  4  39 100  59 101  71 100  82 101
M  END
> <Batch ID>
0043

> <Smiles>
CNC(C)C(=O)NC(C(=O)N1Cc2cc([101O:1][101CH2:1]C(=N)CNCc3ccc([100NH:0][100C:0](=O)N4CCCC(n5nc(-c6ccc(Oc7ccc(F)cc7F)cc6)c(C(N)=O)c5N)C4)cc3C)ccc2CC1C(=O)NC1CCCc2ccccc21)C(C)(C)C

> <Shape>
0.266

> <Color>
0.077

> <Negative vol penalty>
0.000

$$$$

  -OEChem-04042322153D

 89 98  0     1  0  0  0  0  0999 V2000
  -28.6829  -37.6389   20.8596 C   0  0  0  0  0  0  0  0  0  0  0  0
  -28.8141  -36.4899   20.0863 C   0  0  0  0  0  0  0  0  0  0  0  0
  -23.4342  -16.6681   21.0665 C   0  0  0  0  0  0  0  0  0  0  0  0
  -25.1134  -16.2307   22.7476 C   0  0  0  0  0  0  0  0  0  0  0  0
  -28.3336  -37.5358   22.2055 C   0  0  0  0  0  0  0  0  0  0  0  0
  -28.5972  -35.2370   20.6588 C   0  0  0  0  0  0  0  0  0  0  0  0
  -26.1121  -28.7155   19.0430 C   0  0  0  0  0  0  0  0  0  0  0  0
  -23.0744  -17.8406   21.7309 C   0  0  0  0  0  0  0  0  0  0  0  0
  -24.7536  -17.4033   23.4120 C   0  0  0  0  0  0  0  0  0  0  0  0
  -26.4816  -27.3732   19.1173 C   0  0  0  0  0  0  0  0  0  0  0  0
  -21.2384  -18.7091   24.4325 C   0  0  0  0  0  0  0  0  0  0  0  0
  -19.8779  -18.9649   24.6035 C   0  0  0  0  0  0  0  0  0  0  0  0
  -25.8052  -27.3213   21.4322 C   0  0  0  0  0  0  0  0  0  0  0  0
  -31.6415  -20.0754   21.3251 C   0  0  0  0  0  0  0  0  0  0  0  0
  -31.9335  -17.6856   21.5261 C   0  0  0  0  0  0  0  0  0  0  0  0
  -30.1264  -18.5737   20.1909 C   0  0  0  0  0  0  0  0  0  0  0  0
  -20.1069  -21.0189   23.3521 C   0  0  0  0  0  0  0  0  0  0  0  0
  -24.4536  -15.8631   21.5749 C   0  0  0  0  0  0  0  0  0  0  0  0
  -24.0025  -13.5421   20.6173 C   0  0  0  0  0  0  0  0  0  0  0  0
  -28.1029  -36.2816   22.7923 C   0  0  0  0  0  0  0  0  0  0  0  0
  -25.5957  -29.3749   20.1678 C   0  0  0  0  0  0  0  0  0  0  0  0
  -28.2458  -35.1170   22.0141 C   0  0  0  0  0  0  0  0  0  0  0  0
  -25.4275  -28.6713   21.3690 C   0  0  0  0  0  0  0  0  0  0  0  0
  -32.3412  -18.9827   21.8372 C   0  0  0  0  0  0  0  0  0  0  0  0
  -30.5341  -19.8708   20.5020 C   0  0  0  0  0  0  0  0  0  0  0  0
  -30.8261  -17.4810   20.7030 C   0  0  0  0  0  0  0  0  0  0  0  0
  -23.7342  -18.2082   22.9036 C   0  0  0  0  0  0  0  0  0  0  0  0
  -26.3309  -26.6767   20.3128 C   0  0  0  0  0  0  0  0  0  0  0  0
  -22.0332  -19.6082   23.7215 C   0  0  0  0  0  0  0  0  0  0  0  0
  -19.3121  -20.1197   24.0633 C   0  0  0  0  0  0  0  0  0  0  0  0
  -21.4674  -20.7631   23.1812 C   0  0  0  0  0  0  0  0  0  0  0  0
  -24.8253  -14.6514   20.8895 C   0  0  0  0  0  0  0  0  0  0  0  0
  -24.8210  -12.6625   19.9518 C   0  0  0  0  0  0  0  0  0  0  0  0
  -28.6169  -23.0856   20.5829 C   0  0  0  0  0  0  0  0  0  0  0  0
  -30.9299  -24.7422   22.9047 C   0  0  0  0  0  0  0  0  0  0  0  0
  -29.2854  -24.0515   21.2354 C   0  0  0  0  0  0  0  0  0  0  0  0
  -30.2646  -23.7802   22.2555 C   0  0  0  0  0  0  0  0  0  0  0  0
  -22.6217  -13.3260   20.9373 C   0  0  0  0  0  0  0  0  0  0  0  0
  -26.5135  -31.8543   21.9323 C   0  0  0  0  0  0  0  0  0  0  0  0
  -23.6401  -31.3991   23.3671 C   0  0  0  0  0  0  0  0  0  0  0  0
  -21.0801  -29.2697   24.1148 C   0  0  0  0  0  0  0  0  0  0  0  0
  -29.3353  -15.7730   19.5852 C   0  0  0  0  0  0  0  0  0  0  0  0
  -27.7737  -36.2177   24.2627 C   0  0  0  0  0  0  0  0  0  0  0  0
  -25.1769  -30.8158   20.0639 C   0  0  0  0  0  0  0  0  0  0  0  0
  -24.8590  -29.3277   22.5995 C   0  0  0  0  0  0  0  0  0  0  0  0
  -27.1949  -34.8743   24.6995 C   0  0  0  0  0  0  0  0  0  0  0  0
  -29.5969  -11.9438   19.9528 C   0  0  0  0  0  0  0  0  0  0  0  0
  -26.6075  -21.0769   20.2073 C   0  0  0  0  0  0  0  0  0  0  0  0
  -28.0192  -33.7261   24.1259 C   0  0  0  0  0  0  0  0  0  0  0  0
  -26.2981  -22.5301   19.8564 C   0  0  0  0  0  0  0  0  0  0  0  0
  -28.0977  -11.8433   20.2045 C   0  0  0  0  0  0  0  0  0  0  0  0
  -30.0653  -13.3871   20.1162 C   0  0  0  0  0  0  0  0  0  0  0  0
  -28.1549  -13.8325   18.5721 C   0  0  0  0  0  0  0  0  0  0  0  0
  -27.6467  -20.9785   21.3172 C   0  0  0  0  0  0  0  0  0  0  0  0
  -27.9945  -33.7415   22.5927 C   0  0  1  0  0  0  0  0  0  0  0  0
  -27.5737  -23.3077   19.4988 C   0  0  1  0  0  0  0  0  0  0  0  0
  -25.1420  -31.5266   21.4133 C   0  0  1  0  0  0  0  0  0  0  0  0
  -27.2997  -12.7273   19.2252 C   0  0  2  0  0  0  0  0  0  0  0  0
  -33.5251  -19.2016   22.7174 C   0  0  0  0  0  0  0  0  0  0  0  0
  -18.8884  -29.1753   25.3334 C   0  0  0  0  0  0  0  0  0  0  0  0
  -25.1277  -31.2869   26.0288 C   0  0  0  0  0  0  0  0  0  0  0  0
  -23.0821  -30.2661   27.0495 C   0  0  0  0  0  0  0  0  0  0  0  0
  -22.9792  -32.5654   26.0876 C   0  0  0  0  0  0  0  0  0  0  0  0
  -19.5996  -28.6082   21.6390 C   0  0  0  0  0  0  0  0  0  0  0  0
  -29.7817  -21.0462   19.9512 C   0  0  0  0  0  0  0  0  0  0  0  0
  -27.2170  -24.7685   19.2040 C   0  0  0  0  0  0  0  0  0  1  0  0
  -23.1457  -30.5781   24.5336 C   0  0  1  0  0  0  0  0  0  0  0  0
  -19.5744  -29.4249   23.9993 C   0  0  2  0  0  0  0  0  0  0  0  0
  -23.5962  -31.1620   25.9024 C   0  0  0  0  0  0  0  0  0  0  0  0
  -26.0711  -14.4935   20.4343 N   0  0  0  0  0  0  0  0  0  0  0  0
  -26.0371  -13.2745   19.8694 N   0  0  0  0  0  0  0  0  0  0  0  0
  -24.4701  -30.7397   22.4495 N   0  0  0  0  0  0  0  0  0  0  0  0
  -29.1856  -14.3687   19.4647 N   0  0  0  0  0  0  0  0  0  0  0  0
  -24.6120  -11.4330   19.4351 N   0  0  0  0  0  0  0  0  0  0  0  0
  -22.3064  -12.7184   22.1603 N   0  0  0  0  0  0  0  0  0  0  0  0
  -30.4118  -16.1625   20.3867 N   0  0  0  0  0  0  0  0  0  0  0  0
  -26.7426  -33.2064   22.1019 N   0  0  0  0  0  0  0  0  0  0  0  0
  -21.6992  -30.4738   24.3755 N   0  0  0  0  0  0  0  0  0  0  0  0
  -28.9145  -21.7237   20.9763 N   0  3  1  0  0  0  0  0  0  0  0  0
  -19.0291  -28.4603   23.0027 N   0  3  0  0  0  0  0  0  0  0  0  0
  -21.6956  -13.6469   20.1544 O   0  0  0  0  0  0  0  0  0  0  0  0
  -27.3047  -30.9475   22.1633 O   0  0  0  0  0  0  0  0  0  0  0  0
  -23.2965  -32.5798   23.2698 O   0  0  0  0  0  0  0  0  0  0  0  0
  -21.6497  -28.1877   23.9901 O   0  0  0  0  0  0  0  0  0  0  0  0
  -28.5709  -16.5568   19.0186 O   0  0  0  0  0  0  0  0  0  0  0  0
  -23.3835  -19.3524   23.5519 O   0  0  0  0  0  0  0  0  0  0  0  0
  -26.6914  -25.3666   20.3881 O   0  0  0  0  0  0  0  0  0  1  0  0
  -18.0053  -20.3645   24.2262 F   0  0  0  0  0  0  0  0  0  0  0  0
  -22.2256  -21.6300   22.4961 F   0  0  0  0  0  0  0  0  0  0  0  0
  1  2  1  0  0  0  0
  1  5  2  0  0  0  0
  2  6  2  0  0  0  0
  3  8  2  0  0  0  0
  3 18  1  0  0  0  0
  4  9  1  0  0  0  0
  4 18  2  0  0  0  0
  5 20  1  0  0  0  0
  6 22  1  0  0  0  0
  7 10  2  0  0  0  0
  7 21  1  0  0  0  0
  8 27  1  0  0  0  0
  9 27  2  0  0  0  0
 10 28  1  0  0  0  0
 11 12  2  0  0  0  0
 11 29  1  0  0  0  0
 12 30  1  0  0  0  0
 13 23  1  0  0  0  0
 13 28  2  0  0  0  0
 14 24  2  0  0  0  0
 14 25  1  0  0  0  0
 15 24  1  0  0  0  0
 15 26  2  0  0  0  0
 16 25  2  0  0  0  0
 16 26  1  0  0  0  0
 17 30  2  0  0  0  0
 17 31  1  0  0  0  0
 18 32  1  0  0  0  0
 19 32  1  0  0  0  0
 19 33  2  0  0  0  0
 19 38  1  0  0  0  0
 20 22  2  0  0  0  0
 20 43  1  0  0  0  0
 21 23  2  0  0  0  0
 21 44  1  0  0  0  0
 22 55  1  0  0  0  0
 23 45  1  0  0  0  0
 24 59  1  0  0  0  0
 25 65  1  0  0  0  0
 26 76  1  0  0  0  0
 27 86  1  0  0  0  0
 28 87  1  0  0  0  0
 29 31  2  0  0  0  0
 29 86  1  0  0  0  0
 30 88  1  0  0  0  0
 31 89  1  0  0  0  0
 32 70  2  0  0  0  0
 33 71  1  0  0  0  0
 33 74  1  0  0  0  0
 34 36  2  0  0  0  0
 34 56  1  0  0  0  0
 34 79  1  0  0  0  0
 35 37  2  0  0  0  0
 36 37  1  0  0  0  0
 38 75  1  0  0  0  0
 38 81  2  0  0  0  0
 39 57  1  0  0  0  0
 39 77  1  0  0  0  0
 39 82  2  0  0  0  0
 40 67  1  0  0  0  0
 40 72  1  0  0  0  0
 40 83  2  0  0  0  0
 41 68  1  0  0  0  0
 41 78  1  0  0  0  0
 41 84  2  0  0  0  0
 42 73  1  0  0  0  0
 42 76  1  0  0  0  0
 42 85  2  0  0  0  0
 43 46  1  0  0  0  0
 44 57  1  0  0  0  0
 45 72  1  0  0  0  0
 46 49  1  0  0  0  0
 47 51  1  0  0  0  0
 47 52  1  0  0  0  0
 48 50  1  0  0  0  0
 48 54  1  0  0  0  0
 49 55  1  0  0  0  0
 50 56  1  0  0  0  0
 51 58  1  0  0  0  0
 52 73  1  0  0  0  0
 53 58  1  0  0  0  0
 53 73  1  0  0  0  0
 54 79  1  0  0  0  0
 55 77  1  0  0  0  0
 56 66  1  0  0  0  0
 57 72  1  0  0  0  0
 58 71  1  0  0  0  0
 60 68  1  0  0  0  0
 61 69  1  0  0  0  0
 62 69  1  0  0  0  0
 63 69  1  0  0  0  0
 64 80  1  0  0  0  0
 65 79  1  0  0  0  0
 66 87  1  0  0  0  0
 67 69  1  0  0  0  0
 67 78  1  0  0  0  0
 68 80  1  0  0  0  0
 70 71  1  0  0  0  0
M  CHG  2  79   1  80   1
M  ISO  4  42 100  66 101  76 100  87 101
M  END
> <Batch ID>
0043

> <Smiles>
C=CC=C1C([101CH2:1][101O:1]c2ccc3c(c2)CN(C(=O)C(NC(=O)C(C)NC)C(C)(C)C)C(C(=O)NC2CCCc4ccccc42)C3)CCCN1Cc1cc(C)cc([100NH:0][100C:0](=O)N2CCCC(n3nc(-c4ccc(Oc5ccc(F)cc5F)cc4)c(C(N)=O)c3N)C2)c1

> <Shape>
0.265

> <Color>
0.095

> <Negative vol penalty>
0.000

$$$$

  -OEChem-04042322153D

 87 96  0     1  0  0  0  0  0999 V2000
  -23.4036  -34.2663   24.4281 C   0  0  0  0  0  0  0  0  0  0  0  0
  -22.8660  -33.4434   23.4436 C   0  0  0  0  0  0  0  0  0  0  0  0
  -22.6878  -10.1208   20.1506 C   0  0  0  0  0  0  0  0  0  0  0  0
  -24.3419   -9.4090   21.7614 C   0  0  0  0  0  0  0  0  0  0  0  0
  -24.7529  -34.6145   24.3837 C   0  0  0  0  0  0  0  0  0  0  0  0
  -23.6773  -32.9692   22.4134 C   0  0  0  0  0  0  0  0  0  0  0  0
  -24.5180  -25.9004   21.3104 C   0  0  0  0  0  0  0  0  0  0  0  0
  -31.4289  -18.5082   20.2438 C   0  0  0  0  0  0  0  0  0  0  0  0
  -21.9814   -8.9351   20.3520 C   0  0  0  0  0  0  0  0  0  0  0  0
  -23.6354   -8.2232   21.9628 C   0  0  0  0  0  0  0  0  0  0  0  0
  -24.5626  -24.5668   20.9034 C   0  0  0  0  0  0  0  0  0  0  0  0
  -20.8944   -7.2173   23.6644 C   0  0  0  0  0  0  0  0  0  0  0  0
  -20.7063   -6.7922   24.9795 C   0  0  0  0  0  0  0  0  0  0  0  0
  -31.2169  -19.5755   19.3713 C   0  0  0  0  0  0  0  0  0  0  0  0
  -26.1182  -25.1444   19.1443 C   0  0  0  0  0  0  0  0  0  0  0  0
  -21.8882   -4.7435   24.4863 C   0  0  0  0  0  0  0  0  0  0  0  0
  -23.8681  -10.3577   20.8552 C   0  0  0  0  0  0  0  0  0  0  0  0
  -24.1364  -12.8946   20.8607 C   0  0  0  0  0  0  0  0  0  0  0  0
  -25.5833  -34.1365   23.3578 C   0  0  0  0  0  0  0  0  0  0  0  0
  -25.2862  -26.8596   20.6447 C   0  0  0  0  0  0  0  0  0  0  0  0
  -25.0387  -33.3124   22.3544 C   0  0  0  0  0  0  0  0  0  0  0  0
  -26.0872  -26.4796   19.5553 C   0  0  0  0  0  0  0  0  0  0  0  0
  -30.4091  -18.0949   21.1011 C   0  0  0  0  0  0  0  0  0  0  0  0
  -28.9652  -19.8166   20.2134 C   0  0  0  0  0  0  0  0  0  0  0  0
  -22.4551   -7.9863   21.2581 C   0  0  0  0  0  0  0  0  0  0  0  0
  -25.3605  -24.1898   19.8229 C   0  0  0  0  0  0  0  0  0  0  0  0
  -21.5793   -6.4055   22.7602 C   0  0  0  0  0  0  0  0  0  0  0  0
  -21.2032   -5.5553   25.3905 C   0  0  0  0  0  0  0  0  0  0  0  0
  -22.0762   -5.1687   23.1711 C   0  0  0  0  0  0  0  0  0  0  0  0
  -29.9851  -20.2298   19.3561 C   0  0  0  0  0  0  0  0  0  0  0  0
  -29.1773  -18.7492   21.0859 C   0  0  0  0  0  0  0  0  0  0  0  0
  -24.5987  -11.5821   20.6472 C   0  0  0  0  0  0  0  0  0  0  0  0
  -25.2005  -13.6932   20.5192 C   0  0  0  0  0  0  0  0  0  0  0  0
  -26.6422  -20.1042   19.3642 C   0  0  0  0  0  0  0  0  0  0  0  0
  -26.7497  -19.4337   18.2001 C   0  0  0  0  0  0  0  0  0  0  0  0
  -22.8595  -13.3511   21.3261 C   0  0  0  0  0  0  0  0  0  0  0  0
  -26.3276  -30.4555   20.3975 C   0  0  0  0  0  0  0  0  0  0  0  0
  -28.8387  -28.7646   19.9023 C   0  0  0  0  0  0  0  0  0  0  0  0
  -31.4382  -26.5568   19.8274 C   0  0  0  0  0  0  0  0  0  0  0  0
  -30.6557  -14.8602   20.6719 C   0  0  0  0  0  0  0  0  0  0  0  0
  -27.0249  -34.5784   23.3254 C   0  0  0  0  0  0  0  0  0  0  0  0
  -25.2220  -28.3179   21.0097 C   0  0  0  0  0  0  0  0  0  0  0  0
  -26.8700  -27.5515   18.8473 C   0  0  0  0  0  0  0  0  0  0  0  0
  -25.2488  -20.5151   19.8099 C   0  0  0  0  0  0  0  0  0  0  0  0
  -27.9019  -33.7295   22.4086 C   0  0  0  0  0  0  0  0  0  0  0  0
  -29.5441  -12.5692   18.1834 C   0  0  0  0  0  0  0  0  0  0  0  0
  -27.2156  -33.5133   21.0636 C   0  0  0  0  0  0  0  0  0  0  0  0
  -28.1234  -12.2120   18.6236 C   0  0  0  0  0  0  0  0  0  0  0  0
  -26.2676  -22.0214   21.5270 C   0  0  0  0  0  0  0  0  0  0  0  0
  -30.4756  -12.7547   19.3792 C   0  0  0  0  0  0  0  0  0  0  0  0
  -27.6647  -21.7334   20.9823 C   0  0  0  0  0  0  0  0  0  0  0  0
  -28.5786  -13.3581   20.8322 C   0  0  0  0  0  0  0  0  0  0  0  0
  -25.8922  -32.7578   21.2346 C   0  0  1  0  0  0  0  0  0  0  0  0
  -26.5694  -29.0424   20.8401 C   0  0  1  0  0  0  0  0  0  0  0  0
  -27.5893  -13.2159   19.6629 C   0  0  2  0  0  0  0  0  0  0  0  0
  -25.2040  -21.9014   20.4445 C   0  0  1  0  0  0  0  0  0  1  0  0
  -33.9308  -26.4573   19.5546 C   0  0  0  0  0  0  0  0  0  0  0  0
  -28.5247  -29.2155   16.9020 C   0  0  0  0  0  0  0  0  0  0  0  0
  -30.7850  -28.1873   16.5826 C   0  0  0  0  0  0  0  0  0  0  0  0
  -30.5473  -30.2848   17.9119 C   0  0  0  0  0  0  0  0  0  0  0  0
  -31.8019  -25.3765   22.5169 C   0  0  0  0  0  0  0  0  0  0  0  0
  -30.6826  -16.9455   22.0173 C   0  0  0  0  0  0  0  0  0  0  0  0
  -29.7362  -28.0990   18.8899 C   0  0  1  0  0  0  0  0  0  0  0  0
  -32.7778  -26.5530   20.5415 C   0  0  2  0  0  0  0  0  0  0  0  0
  -29.8776  -28.9323   17.5848 C   0  0  0  0  0  0  0  0  0  0  0  0
  -25.8582  -11.5447   20.2042 N   0  0  0  0  0  0  0  0  0  0  0  0
  -26.1964  -12.8436   20.1365 N   0  0  0  0  0  0  0  0  0  0  0  0
  -27.7088  -20.4879   20.1944 N   0  0  0  0  0  0  0  0  0  0  0  0
  -27.4728  -28.4655   19.8301 N   0  0  0  0  0  0  0  0  0  0  0  0
  -29.9119  -13.7200   20.3260 N   0  0  0  0  0  0  0  0  0  0  0  0
  -25.3719  -15.0322   20.5118 N   0  0  0  0  0  0  0  0  0  0  0  0
  -22.6716  -13.5182   22.7049 N   0  0  0  0  0  0  0  0  0  0  0  0
  -26.1385  -31.3461   21.4370 N   0  0  0  0  0  0  0  0  0  0  0  0
  -30.9990  -27.8387   19.5724 N   0  0  0  0  0  0  0  0  0  0  0  0
  -30.0455  -15.7268   21.5704 N   0  0  0  0  0  0  0  0  0  0  0  0
  -32.8627  -25.3961   21.4771 N   0  3  0  0  0  0  0  0  0  0  0  0
  -21.9079  -13.5876   20.5437 O   0  0  0  0  0  0  0  0  0  0  0  0
  -26.3148  -30.7201   19.2010 O   0  0  0  0  0  0  0  0  0  0  0  0
  -29.3319  -29.5336   20.7321 O   0  0  0  0  0  0  0  0  0  0  0  0
  -30.8430  -25.5256   19.5226 O   0  0  0  0  0  0  0  0  0  0  0  0
  -31.7782  -15.0917   20.2097 O   0  0  0  0  0  0  0  0  0  0  0  0
  -21.7658   -6.8293   21.4551 O   0  0  0  0  0  0  0  0  0  0  0  0
  -25.4028  -22.8854   19.4337 O   0  0  0  0  0  0  0  0  0  1  0  0
  -21.0239   -5.1479   26.6538 F   0  0  0  0  0  0  0  0  0  0  0  0
  -22.7360   -4.3849   22.3073 F   0  0  0  0  0  0  0  0  0  0  0  0
  -29.7710  -21.5462   18.2570 Cl  0  0  0  0  0  0  0  0  0  0  0  0
  -27.9162  -18.2271   22.1561 Cl  0  0  0  0  0  0  0  0  0  0  0  0
  1  2  1  0  0  0  0
  1  5  2  0  0  0  0
  2  6  2  0  0  0  0
  3  9  2  0  0  0  0
  3 17  1  0  0  0  0
  4 10  1  0  0  0  0
  4 17  2  0  0  0  0
  5 19  1  0  0  0  0
  6 21  1  0  0  0  0
  7 11  2  0  0  0  0
  7 20  1  0  0  0  0
  8 14  1  0  0  0  0
  8 23  2  0  0  0  0
  9 25  1  0  0  0  0
 10 25  2  0  0  0  0
 11 26  1  0  0  0  0
 12 13  2  0  0  0  0
 12 27  1  0  0  0  0
 13 28  1  0  0  0  0
 14 30  2  0  0  0  0
 15 22  1  0  0  0  0
 15 26  2  0  0  0  0
 16 28  2  0  0  0  0
 16 29  1  0  0  0  0
 17 32  1  0  0  0  0
 18 32  1  0  0  0  0
 18 33  2  0  0  0  0
 18 36  1  0  0  0  0
 19 21  2  0  0  0  0
 19 41  1  0  0  0  0
 20 22  2  0  0  0  0
 20 42  1  0  0  0  0
 21 53  1  0  0  0  0
 22 43  1  0  0  0  0
 23 31  1  0  0  0  0
 23 62  1  0  0  0  0
 24 30  1  0  0  0  0
 24 31  2  0  0  0  0
 24 68  1  0  0  0  0
 25 82  1  0  0  0  0
 26 83  1  0  0  0  0
 27 29  2  0  0  0  0
 27 82  1  0  0  0  0
 28 84  1  0  0  0  0
 29 85  1  0  0  0  0
 30 86  1  0  0  0  0
 31 87  1  0  0  0  0
 32 66  2  0  0  0  0
 33 67  1  0  0  0  0
 33 71  1  0  0  0  0
 34 35  2  0  0  0  0
 34 44  1  0  0  0  0
 34 68  1  0  0  0  0
 36 72  1  0  0  0  0
 36 77  2  0  0  0  0
 37 54  1  0  0  0  0
 37 73  1  0  0  0  0
 37 78  2  0  0  0  0
 38 63  1  0  0  0  0
 38 69  1  0  0  0  0
 38 79  2  0  0  0  0
 39 64  1  0  0  0  0
 39 74  1  0  0  0  0
 39 80  2  0  0  0  0
 40 70  1  0  0  0  0
 40 75  1  0  0  0  0
 40 81  2  0  0  0  0
 41 45  1  0  0  0  0
 42 54  1  0  0  0  0
 43 69  1  0  0  0  0
 44 56  1  0  0  0  0
 45 47  1  0  0  0  0
 46 48  1  0  0  0  0
 46 50  1  0  0  0  0
 47 53  1  0  0  0  0
 48 55  1  0  0  0  0
 49 51  1  0  0  0  0
 49 56  1  0  0  0  0
 50 70  1  0  0  0  0
 51 68  1  0  0  0  0
 52 55  1  0  0  0  0
 52 70  1  0  0  0  0
 53 73  1  0  0  0  0
 54 69  1  0  0  0  0
 55 67  1  0  0  0  0
 56 83  1  0  0  0  0
 57 64  1  0  0  0  0
 58 65  1  0  0  0  0
 59 65  1  0  0  0  0
 60 65  1  0  0  0  0
 61 76  1  0  0  0  0
 62 75  1  0  0  0  0
 63 65  1  0  0  0  0
 63 74  1  0  0  0  0
 64 76  1  0  0  0  0
 66 67  1  0  0  0  0
M  CHG  1  76   1
M  ISO  4  40 100  56 101  75 100  83 101
M  END
> <Batch ID>
0043

> <Smiles>
C=C1C[101CH:1]([101O:1]c2ccc3c(c2)CN(C(=O)C(NC(=O)C(C)NC)C(C)(C)C)C(C(=O)NC2CCCc4ccccc42)C3)CCN1c1c(Cl)ccc(C[100NH:0][100C:0](=O)N2CCCC(n3nc(-c4ccc(Oc5ccc(F)cc5F)cc4)c(C(N)=O)c3N)C2)c1Cl

> <Shape>
0.353

> <Color>
0.226

> <Negative vol penalty>
0.000

$$$$

  -OEChem-04042322153D

 88 97  0     1  0  0  0  0  0999 V2000
  -23.2427  -23.0592   18.5800 C   0  0  0  0  0  0  0  0  0  0  0  0
  -24.3291  -22.2726   18.2105 C   0  0  0  0  0  0  0  0  0  0  0  0
  -26.8711  -29.2035   20.3338 C   0  0  0  0  0  0  0  0  0  0  0  0
  -25.9025  -26.9948   20.4769 C   0  0  0  0  0  0  0  0  0  0  0  0
  -22.4758  -22.7092   19.6905 C   0  0  0  0  0  0  0  0  0  0  0  0
  -24.6499  -21.1362   18.9520 C   0  0  0  0  0  0  0  0  0  0  0  0
  -26.9427  -15.8737   16.8177 C   0  0  0  0  0  0  0  0  0  0  0  0
  -25.5942  -29.7576   20.2435 C   0  0  0  0  0  0  0  0  0  0  0  0
  -24.6256  -27.5489   20.3867 C   0  0  0  0  0  0  0  0  0  0  0  0
  -28.2405  -15.3666   16.7709 C   0  0  0  0  0  0  0  0  0  0  0  0
  -21.0977  -28.4107   20.5570 C   0  0  0  0  0  0  0  0  0  0  0  0
  -20.1220  -27.9398   21.4355 C   0  0  0  0  0  0  0  0  0  0  0  0
  -27.8323  -14.1496   18.8133 C   0  0  0  0  0  0  0  0  0  0  0  0
  -31.5202  -19.3278   19.6434 C   0  0  0  0  0  0  0  0  0  0  0  0
  -29.7733  -18.6013   21.6936 C   0  0  0  0  0  0  0  0  0  0  0  0
  -21.4667  -28.6533   23.3115 C   0  0  0  0  0  0  0  0  0  0  0  0
  -27.0252  -27.8221   20.4504 C   0  0  0  0  0  0  0  0  0  0  0  0
  -29.3131  -27.5016   21.5325 C   0  0  0  0  0  0  0  0  0  0  0  0
  -22.7816  -21.5625   20.4404 C   0  0  0  0  0  0  0  0  0  0  0  0
  -26.0820  -15.5306   17.8704 C   0  0  0  0  0  0  0  0  0  0  0  0
  -23.8873  -20.7712   20.0745 C   0  0  0  0  0  0  0  0  0  0  0  0
  -26.5232  -14.6517   18.8698 C   0  0  0  0  0  0  0  0  0  0  0  0
  -31.8027  -18.2181   20.4398 C   0  0  0  0  0  0  0  0  0  0  0  0
  -29.4908  -19.7110   20.8971 C   0  0  0  0  0  0  0  0  0  0  0  0
  -30.3642  -20.0744   19.8721 C   0  0  0  0  0  0  0  0  0  0  0  0
  -24.4715  -28.9304   20.2700 C   0  0  0  0  0  0  0  0  0  0  0  0
  -28.6865  -14.5067   17.7703 C   0  0  0  0  0  0  0  0  0  0  0  0
  -22.2580  -29.0029   21.0557 C   0  0  0  0  0  0  0  0  0  0  0  0
  -20.3065  -28.0611   22.8127 C   0  0  0  0  0  0  0  0  0  0  0  0
  -22.4425  -29.1242   22.4330 C   0  0  0  0  0  0  0  0  0  0  0  0
  -30.9292  -17.8548   21.4649 C   0  0  0  0  0  0  0  0  0  0  0  0
  -28.3440  -27.2490   20.5431 C   0  0  0  0  0  0  0  0  0  0  0  0
  -30.3829  -26.7188   21.1731 C   0  0  0  0  0  0  0  0  0  0  0  0
  -32.4179  -15.3142   19.0839 C   0  0  0  0  0  0  0  0  0  0  0  0
  -29.2516  -28.3666   22.6744 C   0  0  0  0  0  0  0  0  0  0  0  0
  -24.5940  -17.1457   20.1684 C   0  0  0  0  0  0  0  0  0  0  0  0
  -23.2256  -14.2666   20.7687 C   0  0  0  0  0  0  0  0  0  0  0  0
  -23.4048  -10.8670   20.5282 C   0  0  0  0  0  0  0  0  0  0  0  0
  -30.8702  -21.6802   17.9982 C   0  0  0  0  0  0  0  0  0  0  0  0
  -21.9522  -21.2507   21.6609 C   0  0  0  0  0  0  0  0  0  0  0  0
  -24.6762  -16.0650   17.8921 C   0  0  0  0  0  0  0  0  0  0  0  0
  -25.6317  -14.2363   20.0106 C   0  0  0  0  0  0  0  0  0  0  0  0
  -22.1326  -19.8235   22.1716 C   0  0  0  0  0  0  0  0  0  0  0  0
  -33.5952  -16.3498   16.5535 C   0  0  0  0  0  0  0  0  0  0  0  0
  -32.4829  -24.7832   17.3289 C   0  0  0  0  0  0  0  0  0  0  0  0
  -23.6131  -19.4613   22.2319 C   0  0  0  0  0  0  0  0  0  0  0  0
  -33.4933  -14.8686   16.8854 C   0  0  0  0  0  0  0  0  0  0  0  0
  -31.6965  -25.7897   18.1720 C   0  0  0  0  0  0  0  0  0  0  0  0
  -33.1449  -17.2648   17.6890 C   0  0  0  0  0  0  0  0  0  0  0  0
  -31.5752  -23.7043   16.7408 C   0  0  0  0  0  0  0  0  0  0  0  0
  -29.9421  -24.0124   18.5593 C   0  0  0  0  0  0  0  0  0  0  0  0
  -24.2520  -19.5172   20.8390 C   0  0  1  0  0  0  0  0  0  0  0  0
  -32.2946  -14.5530   17.7737 C   0  0  2  0  0  0  0  0  0  0  0  0
  -24.0550  -16.0558   19.2855 C   0  0  1  0  0  0  0  0  0  0  0  0
  -30.8232  -25.0814   19.2261 C   0  0  2  0  0  0  0  0  0  0  0  0
  -28.2454  -20.4925   21.1650 C   0  0  0  0  0  0  0  0  0  0  0  0
  -22.1549   -8.7800   21.1442 C   0  0  0  0  0  0  0  0  0  0  0  0
  -24.1423  -14.5747   23.6626 C   0  0  0  0  0  0  0  0  0  0  0  0
  -23.7287  -12.1261   23.9812 C   0  0  0  0  0  0  0  0  0  0  0  0
  -21.8375  -13.6424   23.3921 C   0  0  0  0  0  0  0  0  0  0  0  0
  -23.1109  -10.0674   17.6939 C   0  0  0  0  0  0  0  0  0  0  0  0
  -33.0570  -17.4412   20.1618 C   0  0  0  0  0  0  0  0  0  0  0  0
  -30.9489  -14.8255   17.1102 C   0  0  0  0  0  0  0  0  0  1  0  0
  -23.5684  -13.0802   21.6370 C   0  0  1  0  0  0  0  0  0  0  0  0
  -22.3891   -9.8344   20.0737 C   0  0  2  0  0  0  0  0  0  0  0  0
  -23.3369  -13.3650   23.1479 C   0  0  0  0  0  0  0  0  0  0  0  0
  -28.7613  -26.3742   19.6241 N   0  0  0  0  0  0  0  0  0  0  0  0
  -30.0044  -26.0704   20.0345 N   0  0  0  0  0  0  0  0  0  0  0  0
  -32.9295  -16.6072   18.9757 N   0  0  0  0  0  0  0  0  0  0  0  0
  -24.2679  -14.7904   19.9910 N   0  0  0  0  0  0  0  0  0  0  0  0
  -30.7815  -23.0741   17.7980 N   0  0  0  0  0  0  0  0  0  0  0  0
  -31.6010  -26.5288   21.7231 N   0  0  0  0  0  0  0  0  0  0  0  0
  -28.7731  -27.8438   23.8835 N   0  0  0  0  0  0  0  0  0  0  0  0
  -30.0953  -21.1987   19.0528 N   0  0  0  0  0  0  0  0  0  0  0  0
  -23.9029  -18.3386   20.0751 N   0  0  0  0  0  0  0  0  0  0  0  0
  -22.7975  -11.9566   21.1159 N   0  0  0  0  0  0  0  0  0  0  0  0
  -22.8628   -9.1513   18.8368 N   0  3  0  0  0  0  0  0  0  0  0  0
  -32.0594  -14.7875   20.1387 O   0  0  0  0  0  0  0  0  0  0  0  0
  -29.5951  -29.5718   22.6197 O   0  0  0  0  0  0  0  0  0  0  0  0
  -25.5640  -16.9205   20.8825 O   0  0  0  0  0  0  0  0  0  0  0  0
  -22.0736  -14.7076   20.7748 O   0  0  0  0  0  0  0  0  0  0  0  0
  -24.6160  -10.7200   20.3802 O   0  0  0  0  0  0  0  0  0  0  0  0
  -31.6022  -20.9702   17.3039 O   0  0  0  0  0  0  0  0  0  0  0  0
  -23.2254  -29.4707   20.1822 O   0  0  0  0  0  0  0  0  0  0  0  0
  -29.9530  -14.0108   17.7273 O   0  0  0  0  0  0  0  0  0  1  0  0
  -19.3687  -27.6101   23.6562 F   0  0  0  0  0  0  0  0  0  0  0  0
  -23.5545  -29.6933   22.9181 F   0  0  0  0  0  0  0  0  0  0  0  0
  -31.2464  -16.4883   22.4706 Cl  0  0  0  0  0  0  0  0  0  0  0  0
  1  2  1  0  0  0  0
  1  5  2  0  0  0  0
  2  6  2  0  0  0  0
  3  8  2  0  0  0  0
  3 17  1  0  0  0  0
  4  9  1  0  0  0  0
  4 17  2  0  0  0  0
  5 19  1  0  0  0  0
  6 21  1  0  0  0  0
  7 10  2  0  0  0  0
  7 20  1  0  0  0  0
  8 26  1  0  0  0  0
  9 26  2  0  0  0  0
 10 27  1  0  0  0  0
 11 12  2  0  0  0  0
 11 28  1  0  0  0  0
 12 29  1  0  0  0  0
 13 22  1  0  0  0  0
 13 27  2  0  0  0  0
 14 23  1  0  0  0  0
 14 25  2  0  0  0  0
 15 24  2  0  0  0  0
 15 31  1  0  0  0  0
 16 29  2  0  0  0  0
 16 30  1  0  0  0  0
 17 32  1  0  0  0  0
 18 32  1  0  0  0  0
 18 33  2  0  0  0  0
 18 35  1  0  0  0  0
 19 21  2  0  0  0  0
 19 40  1  0  0  0  0
 20 22  2  0  0  0  0
 20 41  1  0  0  0  0
 21 52  1  0  0  0  0
 22 42  1  0  0  0  0
 23 31  2  0  0  0  0
 23 62  1  0  0  0  0
 24 25  1  0  0  0  0
 24 56  1  0  0  0  0
 25 74  1  0  0  0  0
 26 84  1  0  0  0  0
 27 85  1  0  0  0  0
 28 30  2  0  0  0  0
 28 84  1  0  0  0  0
 29 86  1  0  0  0  0
 30 87  1  0  0  0  0
 31 88  1  0  0  0  0
 32 67  2  0  0  0  0
 33 68  1  0  0  0  0
 33 72  1  0  0  0  0
 34 53  1  0  0  0  0
 34 69  1  0  0  0  0
 34 78  2  0  0  0  0
 35 73  1  0  0  0  0
 35 79  2  0  0  0  0
 36 54  1  0  0  0  0
 36 75  1  0  0  0  0
 36 80  2  0  0  0  0
 37 64  1  0  0  0  0
 37 70  1  0  0  0  0
 37 81  2  0  0  0  0
 38 65  1  0  0  0  0
 38 76  1  0  0  0  0
 38 82  2  0  0  0  0
 39 71  1  0  0  0  0
 39 74  1  0  0  0  0
 39 83  2  0  0  0  0
 40 43  1  0  0  0  0
 41 54  1  0  0  0  0
 42 70  1  0  0  0  0
 43 46  1  0  0  0  0
 44 47  1  0  0  0  0
 44 49  1  0  0  0  0
 45 48  1  0  0  0  0
 45 50  1  0  0  0  0
 46 52  1  0  0  0  0
 47 53  1  0  0  0  0
 48 55  1  0  0  0  0
 49 69  1  0  0  0  0
 50 71  1  0  0  0  0
 51 55  1  0  0  0  0
 51 71  1  0  0  0  0
 52 75  1  0  0  0  0
 53 63  1  0  0  0  0
 54 70  1  0  0  0  0
 55 68  1  0  0  0  0
 57 65  1  0  0  0  0
 58 66  1  0  0  0  0
 59 66  1  0  0  0  0
 60 66  1  0  0  0  0
 61 77  1  0  0  0  0
 62 69  1  0  0  0  0
 63 85  1  0  0  0  0
 64 66  1  0  0  0  0
 64 76  1  0  0  0  0
 65 77  1  0  0  0  0
 67 68  1  0  0  0  0
M  CHG  1  77   1
M  ISO  4  39 100  63 101  74 100  85 101
M  END
> <Batch ID>
0043

> <Smiles>
CNC(C)C(=O)NC(C(=O)N1Cc2cc([101O:1][101CH2:1]C3CCCN(Cc4cc([100NH:0][100C:0](=O)N5CCCC(n6nc(-c7ccc(Oc8ccc(F)cc8F)cc7)c(C(N)=O)c6N)C5)c(C)cc4Cl)C3=O)ccc2CC1C(=O)NC1CCCc2ccccc21)C(C)(C)C

> <Shape>
0.252

> <Color>
0.068

> <Negative vol penalty>
0.000

$$$$

  -OEChem-04042322153D

 84 92  0     1  0  0  0  0  0999 V2000
  -20.3581  -23.8606   21.9001 C   0  0  0  0  0  0  0  0  0  0  0  0
  -21.3898  -24.4322   21.1623 C   0  0  0  0  0  0  0  0  0  0  0  0
  -26.7082  -12.9224   20.9780 C   0  0  0  0  0  0  0  0  0  0  0  0
  -26.7162  -13.0267   18.5643 C   0  0  0  0  0  0  0  0  0  0  0  0
  -19.4120  -24.6754   22.5206 C   0  0  0  0  0  0  0  0  0  0  0  0
  -21.4754  -25.8189   21.0438 C   0  0  0  0  0  0  0  0  0  0  0  0
  -26.1915  -27.5385   21.7119 C   0  0  0  0  0  0  0  0  0  0  0  0
  -26.2024  -11.6238   20.9202 C   0  0  0  0  0  0  0  0  0  0  0  0
  -26.2104  -11.7280   18.5065 C   0  0  0  0  0  0  0  0  0  0  0  0
  -27.0770  -27.3998   20.6440 C   0  0  0  0  0  0  0  0  0  0  0  0
  -24.5702   -8.4116   21.4117 C   0  0  0  0  0  0  0  0  0  0  0  0
  -23.5191   -8.0847   22.2684 C   0  0  0  0  0  0  0  0  0  0  0  0
  -26.7144  -29.7098   20.0510 C   0  0  0  0  0  0  0  0  0  0  0  0
  -27.9011  -23.3069   16.1032 C   0  0  0  0  0  0  0  0  0  0  0  0
  -29.7535  -23.7682   14.6225 C   0  0  0  0  0  0  0  0  0  0  0  0
  -29.8797  -21.9224   16.1762 C   0  0  0  0  0  0  0  0  0  0  0  0
  -22.1595   -9.8072   21.2576 C   0  0  0  0  0  0  0  0  0  0  0  0
  -26.9650  -13.6239   19.8000 C   0  0  0  0  0  0  0  0  0  0  0  0
  -28.8408  -15.3510   19.8800 C   0  0  0  0  0  0  0  0  0  0  0  0
  -19.4916  -26.0731   22.4176 C   0  0  0  0  0  0  0  0  0  0  0  0
  -25.5513  -28.7630   21.9512 C   0  0  0  0  0  0  0  0  0  0  0  0
  -20.5287  -26.6531   21.6624 C   0  0  0  0  0  0  0  0  0  0  0  0
  -25.8231  -29.8621   21.1241 C   0  0  0  0  0  0  0  0  0  0  0  0
  -28.4765  -24.0760   15.0918 C   0  0  0  0  0  0  0  0  0  0  0  0
  -28.6027  -22.2301   16.6455 C   0  0  0  0  0  0  0  0  0  0  0  0
  -25.9536  -11.0266   19.6845 C   0  0  0  0  0  0  0  0  0  0  0  0
  -27.3364  -28.4847   19.8117 C   0  0  0  0  0  0  0  0  0  0  0  0
  -24.4160   -9.4364   20.4780 C   0  0  0  0  0  0  0  0  0  0  0  0
  -22.3138   -8.7824   22.1913 C   0  0  0  0  0  0  0  0  0  0  0  0
  -23.2107  -10.1342   20.4010 C   0  0  0  0  0  0  0  0  0  0  0  0
  -30.4551  -22.6914   15.1647 C   0  0  0  0  0  0  0  0  0  0  0  0
  -27.4869  -14.9656   19.8590 C   0  0  0  0  0  0  0  0  0  0  0  0
  -28.8064  -16.7228   19.9383 C   0  0  0  0  0  0  0  0  0  0  0  0
  -30.0236  -14.5413   19.8493 C   0  0  0  0  0  0  0  0  0  0  0  0
  -22.5278  -29.7429   21.9930 C   0  0  0  0  0  0  0  0  0  0  0  0
  -23.8478  -32.5110   23.0503 C   0  0  0  0  0  0  0  0  0  0  0  0
  -27.7459  -27.1323   16.1246 C   0  0  0  0  0  0  0  0  0  0  0  0
  -26.5923  -34.5323   23.2208 C   0  0  0  0  0  0  0  0  0  0  0  0
  -26.7617  -21.6200   18.2533 C   0  0  0  0  0  0  0  0  0  0  0  0
  -18.4186  -26.9111   23.0666 C   0  0  0  0  0  0  0  0  0  0  0  0
  -24.6192  -28.9037   23.1233 C   0  0  0  0  0  0  0  0  0  0  0  0
  -25.1772  -31.2038   21.3505 C   0  0  0  0  0  0  0  0  0  0  0  0
  -18.7955  -28.3840   23.2035 C   0  0  0  0  0  0  0  0  0  0  0  0
  -24.9474  -19.8883   20.7804 C   0  0  0  0  0  0  0  0  0  0  0  0
  -19.3853  -28.9076   21.8978 C   0  0  0  0  0  0  0  0  0  0  0  0
  -25.5577  -18.4849   20.7677 C   0  0  0  0  0  0  0  0  0  0  0  0
  -24.8593  -20.4812   19.3753 C   0  0  0  0  0  0  0  0  0  0  0  0
  -26.7285  -19.0725   18.6065 C   0  0  0  0  0  0  0  0  0  0  0  0
  -20.6695  -28.1541   21.5311 C   0  0  1  0  0  0  0  0  0  0  0  0
  -23.6301  -30.0544   22.9654 C   0  0  1  0  0  0  0  0  0  0  0  0
  -26.8976  -18.4600   20.0064 C   0  0  2  0  0  0  0  0  0  0  0  0
  -27.3543  -36.7477   24.1199 C   0  0  0  0  0  0  0  0  0  0  0  0
  -22.3648  -33.9336   20.7949 C   0  0  0  0  0  0  0  0  0  0  0  0
  -23.8704  -35.9036   21.1413 C   0  0  0  0  0  0  0  0  0  0  0  0
  -22.3594  -35.1526   22.9785 C   0  0  0  0  0  0  0  0  0  0  0  0
  -28.6410  -33.2618   24.9378 C   0  0  0  0  0  0  0  0  0  0  0  0
  -27.7216  -25.2354   14.5088 C   0  0  0  0  0  0  0  0  0  0  0  0
  -28.4637  -28.4487   16.3784 C   0  0  0  0  0  0  0  0  0  0  0  0
  -27.9635  -29.1678   17.6217 C   0  0  0  0  0  0  0  0  0  1  0  0
  -24.3856  -33.7587   22.3922 C   0  0  1  0  0  0  0  0  0  0  0  0
  -27.2399  -35.2552   24.3881 C   0  0  2  0  0  0  0  0  0  0  0  0
  -23.2559  -34.6614   21.8210 C   0  0  0  0  0  0  0  0  0  0  0  0
  -26.6533  -16.0084   19.9008 N   0  0  0  0  0  0  0  0  0  0  0  0
  -27.4856  -17.0625   19.9487 N   0  0  0  0  0  0  0  0  0  0  0  0
  -24.2686  -31.2894   22.5058 N   0  0  0  0  0  0  0  0  0  0  0  0
  -26.1663  -20.4278   18.7167 N   0  0  0  0  0  0  0  0  0  0  0  0
  -29.7775  -17.6596   19.9813 N   0  0  0  0  0  0  0  0  0  0  0  0
  -29.8786  -13.1486   19.7894 N   0  0  0  0  0  0  0  0  0  0  0  0
  -28.0185  -21.4494   17.6736 N   0  0  0  0  0  0  0  0  0  0  0  0
  -21.7799  -28.6303   22.3279 N   0  0  0  0  0  0  0  0  0  0  0  0
  -28.2258  -26.5034   14.9847 N   0  0  0  0  0  0  0  0  0  0  0  0
  -25.2286  -34.4137   23.3866 N   0  0  0  0  0  0  0  0  0  0  0  0
  -28.6068  -34.7163   24.6372 N   0  3  0  0  0  0  0  0  0  0  0  0
  -31.1750  -15.0374   19.8909 O   0  0  0  0  0  0  0  0  0  0  0  0
  -22.3667  -30.4599   21.0123 O   0  0  0  0  0  0  0  0  0  0  0  0
  -23.0881  -32.6163   24.0164 O   0  0  0  0  0  0  0  0  0  0  0  0
  -26.8557  -26.6995   16.8513 O   0  0  0  0  0  0  0  0  0  0  0  0
  -27.2317  -34.1177   22.2565 O   0  0  0  0  0  0  0  0  0  0  0  0
  -26.2103  -22.7155   18.3871 O   0  0  0  0  0  0  0  0  0  0  0  0
  -25.4603   -9.7593   19.6277 O   0  0  0  0  0  0  0  0  0  0  0  0
  -28.1998  -28.3518   18.7682 O   0  0  0  0  0  0  0  0  0  1  0  0
  -21.3039   -8.4673   23.0129 F   0  0  0  0  0  0  0  0  0  0  0  0
  -23.0563  -11.1189   19.5052 F   0  0  0  0  0  0  0  0  0  0  0  0
  -32.0315  -22.3128   14.5872 Cl  0  0  0  0  0  0  0  0  0  0  0  0
  1  2  1  0  0  0  0
  1  5  2  0  0  0  0
  2  6  2  0  0  0  0
  3  8  2  0  0  0  0
  3 18  1  0  0  0  0
  4  9  1  0  0  0  0
  4 18  2  0  0  0  0
  5 20  1  0  0  0  0
  6 22  1  0  0  0  0
  7 10  2  0  0  0  0
  7 21  1  0  0  0  0
  8 26  1  0  0  0  0
  9 26  2  0  0  0  0
 10 27  1  0  0  0  0
 11 12  2  0  0  0  0
 11 28  1  0  0  0  0
 12 29  1  0  0  0  0
 13 23  1  0  0  0  0
 13 27  2  0  0  0  0
 14 24  2  0  0  0  0
 14 25  1  0  0  0  0
 15 24  1  0  0  0  0
 15 31  2  0  0  0  0
 16 25  2  0  0  0  0
 16 31  1  0  0  0  0
 17 29  2  0  0  0  0
 17 30  1  0  0  0  0
 18 32  1  0  0  0  0
 19 32  1  0  0  0  0
 19 33  2  0  0  0  0
 19 34  1  0  0  0  0
 20 22  2  0  0  0  0
 20 40  1  0  0  0  0
 21 23  2  0  0  0  0
 21 41  1  0  0  0  0
 22 49  1  0  0  0  0
 23 42  1  0  0  0  0
 24 57  1  0  0  0  0
 25 69  1  0  0  0  0
 26 80  1  0  0  0  0
 27 81  1  0  0  0  0
 28 30  2  0  0  0  0
 28 80  1  0  0  0  0
 29 82  1  0  0  0  0
 30 83  1  0  0  0  0
 31 84  1  0  0  0  0
 32 63  2  0  0  0  0
 33 64  1  0  0  0  0
 33 67  1  0  0  0  0
 34 68  1  0  0  0  0
 34 74  2  0  0  0  0
 35 50  1  0  0  0  0
 35 70  1  0  0  0  0
 35 75  2  0  0  0  0
 36 60  1  0  0  0  0
 36 65  1  0  0  0  0
 36 76  2  0  0  0  0
 37 58  1  0  0  0  0
 37 71  1  0  0  0  0
 37 77  2  0  0  0  0
 38 61  1  0  0  0  0
 38 72  1  0  0  0  0
 38 78  2  0  0  0  0
 39 66  1  0  0  0  0
 39 69  1  0  0  0  0
 39 79  2  0  0  0  0
 40 43  1  0  0  0  0
 41 50  1  0  0  0  0
 42 65  1  0  0  0  0
 43 45  1  0  0  0  0
 44 46  1  0  0  0  0
 44 47  1  0  0  0  0
 45 49  1  0  0  0  0
 46 51  1  0  0  0  0
 47 66  1  0  0  0  0
 48 51  1  0  0  0  0
 48 66  1  0  0  0  0
 49 70  1  0  0  0  0
 50 65  1  0  0  0  0
 51 64  1  0  0  0  0
 52 61  1  0  0  0  0
 53 62  1  0  0  0  0
 54 62  1  0  0  0  0
 55 62  1  0  0  0  0
 56 73  1  0  0  0  0
 57 71  1  0  0  0  0
 58 59  1  0  0  0  0
 59 81  1  0  0  0  0
 60 62  1  0  0  0  0
 60 72  1  0  0  0  0
 61 73  1  0  0  0  0
 63 64  1  0  0  0  0
M  CHG  1  73   1
M  ISO  4  39 100  59 101  69 100  81 101
M  END
> <Batch ID>
0043

> <Smiles>
CNC(C)C(=O)NC(C(=O)N1Cc2cc([101O:1][101CH2:1]CC(=O)NCc3cc(Cl)cc([100NH:0][100C:0](=O)N4CCCC(n5nc(-c6ccc(Oc7ccc(F)cc7F)cc6)c(C(N)=O)c5N)C4)c3)ccc2CC1C(=O)NC1CCCc2ccccc21)C(C)(C)C

> <Shape>
0.256

> <Color>
0.115

> <Negative vol penalty>
0.000

$$$$

  -OEChem-04042322153D

 87 96  0     1  0  0  0  0  0999 V2000
  -27.8033  -37.5304   25.8481 C   0  0  0  0  0  0  0  0  0  0  0  0
  -27.3382  -36.3967   26.5049 C   0  0  0  0  0  0  0  0  0  0  0  0
  -25.8592  -13.5141   20.5250 C   0  0  0  0  0  0  0  0  0  0  0  0
  -24.2450  -14.9299   21.6326 C   0  0  0  0  0  0  0  0  0  0  0  0
  -27.4451  -37.7586   24.5211 C   0  0  0  0  0  0  0  0  0  0  0  0
  -26.5248  -35.4848   25.8314 C   0  0  0  0  0  0  0  0  0  0  0  0
  -22.0504  -28.9963   24.7820 C   0  0  0  0  0  0  0  0  0  0  0  0
  -25.3139  -12.3972   21.1581 C   0  0  0  0  0  0  0  0  0  0  0  0
  -23.6997  -13.8130   22.2657 C   0  0  0  0  0  0  0  0  0  0  0  0
  -21.0649  -28.4446   23.9644 C   0  0  0  0  0  0  0  0  0  0  0  0
  -22.6213  -10.3871   20.7808 C   0  0  0  0  0  0  0  0  0  0  0  0
  -22.3965   -9.2487   20.0068 C   0  0  0  0  0  0  0  0  0  0  0  0
  -22.4735  -28.7984   22.0382 C   0  0  0  0  0  0  0  0  0  0  0  0
  -22.6674  -24.5004   23.9809 C   0  0  0  0  0  0  0  0  0  0  0  0
  -24.9645  -23.8231   23.6623 C   0  0  0  0  0  0  0  0  0  0  0  0
  -23.8892   -7.9879   21.4279 C   0  0  0  0  0  0  0  0  0  0  0  0
  -25.3248  -14.7805   20.7623 C   0  0  0  0  0  0  0  0  0  0  0  0
  -25.9804  -16.1668   18.7237 C   0  0  0  0  0  0  0  0  0  0  0  0
  -26.6166  -36.8549   23.8356 C   0  0  0  0  0  0  0  0  0  0  0  0
  -23.2523  -29.4639   24.2315 C   0  0  0  0  0  0  0  0  0  0  0  0
  -26.1718  -35.6852   24.4846 C   0  0  0  0  0  0  0  0  0  0  0  0
  -23.4736  -29.3532   22.8513 C   0  0  0  0  0  0  0  0  0  0  0  0
  -22.2614  -23.5765   23.0180 C   0  0  0  0  0  0  0  0  0  0  0  0
  -23.2070  -22.7759   22.3773 C   0  0  0  0  0  0  0  0  0  0  0  0
  -24.5586  -22.8991   22.6994 C   0  0  0  0  0  0  0  0  0  0  0  0
  -24.2341  -12.5466   22.0284 C   0  0  0  0  0  0  0  0  0  0  0  0
  -21.2752  -28.3483   22.5920 C   0  0  0  0  0  0  0  0  0  0  0  0
  -23.4801  -10.3260   21.8782 C   0  0  0  0  0  0  0  0  0  0  0  0
  -23.0304   -8.0490   20.3304 C   0  0  0  0  0  0  0  0  0  0  0  0
  -24.1140   -9.1264   22.2018 C   0  0  0  0  0  0  0  0  0  0  0  0
  -24.0190  -24.6237   24.3030 C   0  0  0  0  0  0  0  0  0  0  0  0
  -25.8880  -15.9347   20.1091 C   0  0  0  0  0  0  0  0  0  0  0  0
  -26.5888  -17.3939   18.6210 C   0  0  0  0  0  0  0  0  0  0  0  0
  -19.0381  -23.9260   21.0924 C   0  0  0  0  0  0  0  0  0  0  0  0
  -18.6848  -22.9976   20.1907 C   0  0  0  0  0  0  0  0  0  0  0  0
  -25.5542  -15.3466   17.6277 C   0  0  0  0  0  0  0  0  0  0  0  0
  -24.6989  -32.2900   24.0768 C   0  0  0  0  0  0  0  0  0  0  0  0
  -27.1053  -30.5501   22.7712 C   0  0  0  0  0  0  0  0  0  0  0  0
  -27.4147  -27.8448   20.4042 C   0  0  0  0  0  0  0  0  0  0  0  0
  -26.9130  -22.1086   22.2777 C   0  0  0  0  0  0  0  0  0  0  0  0
  -26.2665  -37.1470   22.3978 C   0  0  0  0  0  0  0  0  0  0  0  0
  -24.3162  -30.0318   25.1303 C   0  0  0  0  0  0  0  0  0  0  0  0
  -24.7549  -29.8220   22.2135 C   0  0  0  0  0  0  0  0  0  0  0  0
  -18.0428  -24.8143   21.7881 C   0  0  0  0  0  0  0  0  0  0  0  0
  -25.0514  -36.3641   21.9110 C   0  0  0  0  0  0  0  0  0  0  0  0
  -18.4626  -26.2746   21.6708 C   0  0  0  0  0  0  0  0  0  0  0  0
  -29.6460  -20.2633   20.9350 C   0  0  0  0  0  0  0  0  0  0  0  0
  -25.2072  -34.8919   22.2613 C   0  0  0  0  0  0  0  0  0  0  0  0
  -28.9999  -18.9676   20.4392 C   0  0  0  0  0  0  0  0  0  0  0  0
  -29.0002  -20.7609   22.2269 C   0  0  0  0  0  0  0  0  0  0  0  0
  -26.8933  -19.6069   21.6805 C   0  0  0  0  0  0  0  0  0  0  0  0
  -20.8392  -25.5428   21.2458 C   0  0  0  0  0  0  0  0  0  0  0  0
  -25.2609  -34.6950   23.7817 C   0  0  1  0  0  0  0  0  0  0  0  0
  -25.2919  -30.9471   24.3971 C   0  0  1  0  0  0  0  0  0  0  0  0
  -27.4672  -19.1016   20.3467 C   0  0  2  0  0  0  0  0  0  0  0  0
  -19.9299  -26.4642   22.0548 C   0  0  1  0  0  0  0  0  0  1  0  0
  -22.7667  -21.7859   21.3449 C   0  0  0  0  0  0  0  0  0  0  0  0
  -29.1837  -26.0811   20.1643 C   0  0  0  0  0  0  0  0  0  0  0  0
  -28.3507  -32.4828   20.7652 C   0  0  0  0  0  0  0  0  0  0  0  0
  -28.9726  -30.5093   19.3556 C   0  0  0  0  0  0  0  0  0  0  0  0
  -29.9173  -30.7468   21.6521 C   0  0  0  0  0  0  0  0  0  0  0  0
  -25.4240  -25.6611   20.5692 C   0  0  0  0  0  0  0  0  0  0  0  0
  -20.8017  -23.4639   22.6901 C   0  0  0  0  0  0  0  0  0  0  0  0
  -27.4820  -30.1283   21.3715 C   0  0  1  0  0  0  0  0  0  0  0  0
  -27.8028  -26.4095   20.7102 C   0  0  2  0  0  0  0  0  0  0  0  0
  -28.6535  -30.9713   20.7935 C   0  0  0  0  0  0  0  0  0  0  0  0
  -26.3972  -16.9340   20.8345 N   0  0  0  0  0  0  0  0  0  0  0  0
  -26.8154  -17.8060   19.9012 N   0  0  0  0  0  0  0  0  0  0  0  0
  -25.7621  -30.3756   23.1335 N   0  0  0  0  0  0  0  0  0  0  0  0
  -27.5488  -20.8674   22.0630 N   0  0  0  0  0  0  0  0  0  0  0  0
  -26.9469  -18.1497   17.5613 N   0  0  0  0  0  0  0  0  0  0  0  0
  -24.2526  -15.5130   17.1353 N   0  0  0  0  0  0  0  0  0  0  0  0
  -25.5356  -22.0961   22.0605 N   0  0  0  0  0  0  0  0  0  0  0  0
  -25.6170  -33.3227   24.0677 N   0  0  0  0  0  0  0  0  0  0  0  0
  -27.7514  -28.6959   21.4355 N   0  0  0  0  0  0  0  0  0  0  0  0
  -20.4439  -24.0918   21.3714 N   0  3  1  0  0  0  0  0  0  0  0  0
  -26.8211  -25.4668   20.1031 N   0  3  0  0  0  0  0  0  0  0  0  0
  -26.2999  -14.4801   17.1113 O   0  0  0  0  0  0  0  0  0  0  0  0
  -23.4977  -32.3822   23.8529 O   0  0  0  0  0  0  0  0  0  0  0  0
  -27.9724  -31.0107   23.5179 O   0  0  0  0  0  0  0  0  0  0  0  0
  -26.8710  -28.1783   19.3536 O   0  0  0  0  0  0  0  0  0  0  0  0
  -27.5480  -23.1154   22.6020 O   0  0  0  0  0  0  0  0  0  0  0  0
  -23.7016  -11.4569   22.6461 O   0  0  0  0  0  0  0  0  0  0  0  0
  -20.3148  -27.8108   21.7916 O   0  0  0  0  0  0  0  0  0  1  0  0
  -22.8133   -6.9555   19.5880 F   0  0  0  0  0  0  0  0  0  0  0  0
  -24.9392   -9.0612   23.2557 F   0  0  0  0  0  0  0  0  0  0  0  0
  -24.5197  -25.7646   25.4902 Cl  0  0  0  0  0  0  0  0  0  0  0  0
  1  2  1  0  0  0  0
  1  5  2  0  0  0  0
  2  6  2  0  0  0  0
  3  8  2  0  0  0  0
  3 17  1  0  0  0  0
  4  9  1  0  0  0  0
  4 17  2  0  0  0  0
  5 19  1  0  0  0  0
  6 21  1  0  0  0  0
  7 10  2  0  0  0  0
  7 20  1  0  0  0  0
  8 26  1  0  0  0  0
  9 26  2  0  0  0  0
 10 27  1  0  0  0  0
 11 12  2  0  0  0  0
 11 28  1  0  0  0  0
 12 29  1  0  0  0  0
 13 22  1  0  0  0  0
 13 27  2  0  0  0  0
 14 23  1  0  0  0  0
 14 31  2  0  0  0  0
 15 25  2  0  0  0  0
 15 31  1  0  0  0  0
 16 29  2  0  0  0  0
 16 30  1  0  0  0  0
 17 32  1  0  0  0  0
 18 32  1  0  0  0  0
 18 33  2  0  0  0  0
 18 36  1  0  0  0  0
 19 21  2  0  0  0  0
 19 41  1  0  0  0  0
 20 22  2  0  0  0  0
 20 42  1  0  0  0  0
 21 53  1  0  0  0  0
 22 43  1  0  0  0  0
 23 24  2  0  0  0  0
 23 63  1  0  0  0  0
 24 25  1  0  0  0  0
 24 57  1  0  0  0  0
 25 73  1  0  0  0  0
 26 83  1  0  0  0  0
 27 84  1  0  0  0  0
 28 30  2  0  0  0  0
 28 83  1  0  0  0  0
 29 85  1  0  0  0  0
 30 86  1  0  0  0  0
 31 87  1  0  0  0  0
 32 67  2  0  0  0  0
 33 68  1  0  0  0  0
 33 71  1  0  0  0  0
 34 35  2  0  0  0  0
 34 44  1  0  0  0  0
 34 76  1  0  0  0  0
 36 72  1  0  0  0  0
 36 78  2  0  0  0  0
 37 54  1  0  0  0  0
 37 74  1  0  0  0  0
 37 79  2  0  0  0  0
 38 64  1  0  0  0  0
 38 69  1  0  0  0  0
 38 80  2  0  0  0  0
 39 65  1  0  0  0  0
 39 75  1  0  0  0  0
 39 81  2  0  0  0  0
 40 70  1  0  0  0  0
 40 73  1  0  0  0  0
 40 82  2  0  0  0  0
 41 45  1  0  0  0  0
 42 54  1  0  0  0  0
 43 69  1  0  0  0  0
 44 46  1  0  0  0  0
 45 48  1  0  0  0  0
 46 56  1  0  0  0  0
 47 49  1  0  0  0  0
 47 50  1  0  0  0  0
 48 53  1  0  0  0  0
 49 55  1  0  0  0  0
 50 70  1  0  0  0  0
 51 55  1  0  0  0  0
 51 70  1  0  0  0  0
 52 56  1  0  0  0  0
 52 76  1  0  0  0  0
 53 74  1  0  0  0  0
 54 69  1  0  0  0  0
 55 68  1  0  0  0  0
 56 84  1  0  0  0  0
 58 65  1  0  0  0  0
 59 66  1  0  0  0  0
 60 66  1  0  0  0  0
 61 66  1  0  0  0  0
 62 77  1  0  0  0  0
 63 76  1  0  0  0  0
 64 66  1  0  0  0  0
 64 75  1  0  0  0  0
 65 77  1  0  0  0  0
 67 68  1  0  0  0  0
M  CHG  2  76   1  77   1
M  ISO  4  40 100  56 101  73 100  84 101
M  END
> <Batch ID>
0043

> <Smiles>
C=C1CC[101CH:1]([101O:1]c2ccc3c(c2)CN(C(=O)C(NC(=O)C(C)NC)C(C)(C)C)C(C(=O)NC2CCCc4ccccc42)C3)CN1Cc1cc(Cl)cc([100NH:0][100C:0](=O)N2CCCC(n3nc(-c4ccc(Oc5ccc(F)cc5F)cc4)c(C(N)=O)c3N)C2)c1C

> <Shape>
0.279

> <Color>
0.052

> <Negative vol penalty>
0.000

$$$$

  -OEChem-04042322153D

 85 94  0     1  0  0  0  0  0999 V2000
  -18.7943  -24.9911   25.0506 C   0  0  0  0  0  0  0  0  0  0  0  0
  -19.9933  -24.3564   24.7423 C   0  0  0  0  0  0  0  0  0  0  0  0
  -31.3024  -19.0710   21.0850 C   0  0  0  0  0  0  0  0  0  0  0  0
  -22.6255  -10.2442   20.2393 C   0  0  0  0  0  0  0  0  0  0  0  0
  -24.3698   -9.3611   21.6587 C   0  0  0  0  0  0  0  0  0  0  0  0
  -18.3670  -26.0787   24.2902 C   0  0  0  0  0  0  0  0  0  0  0  0
  -20.7652  -24.8084   23.6725 C   0  0  0  0  0  0  0  0  0  0  0  0
  -25.6880  -25.1122   24.8206 C   0  0  0  0  0  0  0  0  0  0  0  0
  -30.6578  -19.7342   22.1292 C   0  0  0  0  0  0  0  0  0  0  0  0
  -31.1221  -17.6984   20.9138 C   0  0  0  0  0  0  0  0  0  0  0  0
  -21.9065   -9.0578   20.3847 C   0  0  0  0  0  0  0  0  0  0  0  0
  -23.6508   -8.1747   21.8041 C   0  0  0  0  0  0  0  0  0  0  0  0
  -26.4138  -23.9219   24.8319 C   0  0  0  0  0  0  0  0  0  0  0  0
  -22.1067   -5.0510   22.8417 C   0  0  0  0  0  0  0  0  0  0  0  0
  -22.0003   -4.5092   24.1226 C   0  0  0  0  0  0  0  0  0  0  0  0
  -27.2733  -24.4322   22.6365 C   0  0  0  0  0  0  0  0  0  0  0  0
  -20.9045   -6.5234   24.8837 C   0  0  0  0  0  0  0  0  0  0  0  0
  -23.8572  -10.3958   20.8762 C   0  0  0  0  0  0  0  0  0  0  0  0
  -24.1860  -12.9167   21.0873 C   0  0  0  0  0  0  0  0  0  0  0  0
  -19.1387  -26.5504   23.2166 C   0  0  0  0  0  0  0  0  0  0  0  0
  -25.7410  -25.9676   23.7107 C   0  0  0  0  0  0  0  0  0  0  0  0
  -20.3471  -25.9026   22.8962 C   0  0  0  0  0  0  0  0  0  0  0  0
  -26.5493  -25.6340   22.6146 C   0  0  0  0  0  0  0  0  0  0  0  0
  -29.6528  -17.6523   22.8311 C   0  0  0  0  0  0  0  0  0  0  0  0
  -29.8331  -19.0248   23.0023 C   0  0  0  0  0  0  0  0  0  0  0  0
  -30.2973  -16.9891   21.7868 C   0  0  0  0  0  0  0  0  0  0  0  0
  -22.4191   -8.0231   21.1671 C   0  0  0  0  0  0  0  0  0  0  0  0
  -27.2044  -23.5803   23.7386 C   0  0  0  0  0  0  0  0  0  0  0  0
  -21.6120   -6.3291   22.5818 C   0  0  0  0  0  0  0  0  0  0  0  0
  -21.3992   -5.2453   25.1436 C   0  0  0  0  0  0  0  0  0  0  0  0
  -21.0109   -7.0653   23.6028 C   0  0  0  0  0  0  0  0  0  0  0  0
  -24.6007  -11.6208   20.7259 C   0  0  0  0  0  0  0  0  0  0  0  0
  -25.2426  -13.7239   20.7429 C   0  0  0  0  0  0  0  0  0  0  0  0
  -29.7298  -19.9014   25.3345 C   0  0  0  0  0  0  0  0  0  0  0  0
  -31.0290  -19.8342   25.6784 C   0  0  0  0  0  0  0  0  0  0  0  0
  -22.9557  -13.3519   21.6812 C   0  0  0  0  0  0  0  0  0  0  0  0
  -23.6151  -27.0525   21.6113 C   0  0  0  0  0  0  0  0  0  0  0  0
  -26.1145  -28.8559   20.6001 C   0  0  0  0  0  0  0  0  0  0  0  0
  -29.1481  -30.2216   19.8390 C   0  0  0  0  0  0  0  0  0  0  0  0
  -30.7031  -14.8038   20.6009 C   0  0  0  0  0  0  0  0  0  0  0  0
  -18.6125  -27.6998   22.3941 C   0  0  0  0  0  0  0  0  0  0  0  0
  -24.9731  -27.2609   23.7252 C   0  0  0  0  0  0  0  0  0  0  0  0
  -26.6564  -26.5277   21.4070 C   0  0  0  0  0  0  0  0  0  0  0  0
  -28.7143  -20.2694   26.3962 C   0  0  0  0  0  0  0  0  0  0  0  0
  -19.6726  -28.3518   21.5101 C   0  0  0  0  0  0  0  0  0  0  0  0
  -27.8490  -21.4474   25.9450 C   0  0  0  0  0  0  0  0  0  0  0  0
  -29.3915  -12.7350   18.0170 C   0  0  0  0  0  0  0  0  0  0  0  0
  -20.4808  -27.2885   20.7732 C   0  0  0  0  0  0  0  0  0  0  0  0
  -27.9941  -12.3673   18.5211 C   0  0  0  0  0  0  0  0  0  0  0  0
  -30.4060  -12.8033   19.1572 C   0  0  0  0  0  0  0  0  0  0  0  0
  -28.6238  -13.3009   20.7836 C   0  0  0  0  0  0  0  0  0  0  0  0
  -27.7592  -20.0107   23.8144 C   0  0  0  0  0  0  0  0  0  0  0  0
  -21.2244  -26.3791   21.7589 C   0  0  1  0  0  0  0  0  0  0  0  0
  -24.6981  -27.8082   22.3279 C   0  0  1  0  0  0  0  0  0  0  0  0
  -27.5538  -13.2835   19.6798 C   0  0  2  0  0  0  0  0  0  0  0  0
  -27.3671  -21.3285   24.4923 C   0  0  2  0  0  0  0  0  0  1  0  0
  -28.7666  -16.8912   23.7680 C   0  0  0  0  0  0  0  0  0  0  0  0
  -30.2534  -31.7851   18.2169 C   0  0  0  0  0  0  0  0  0  0  0  0
  -26.0330  -26.6859   18.4566 C   0  0  0  0  0  0  0  0  0  0  0  0
  -27.8980  -27.8736   17.2821 C   0  0  0  0  0  0  0  0  0  0  0  0
  -25.7011  -29.0118   17.5996 C   0  0  0  0  0  0  0  0  0  0  0  0
  -29.9594  -32.0748   21.9992 C   0  0  0  0  0  0  0  0  0  0  0  0
  -27.2227  -28.6770   19.5907 C   0  0  1  0  0  0  0  0  0  0  0  0
  -29.5681  -31.6550   19.5683 C   0  0  2  0  0  0  0  0  0  0  0  0
  -26.7167  -28.0536   18.2593 C   0  0  0  0  0  0  0  0  0  0  0  0
  -25.8252  -11.6012   20.1928 N   0  0  0  0  0  0  0  0  0  0  0  0
  -26.1890  -12.8947   20.2164 N   0  0  0  0  0  0  0  0  0  0  0  0
  -29.1860  -19.7182   24.0566 N   0  0  0  0  0  0  0  0  0  0  0  0
  -25.8816  -27.7782   21.4662 N   0  0  0  0  0  0  0  0  0  0  0  0
  -29.9235  -13.6925   20.2161 N   0  0  0  0  0  0  0  0  0  0  0  0
  -25.4452  -15.0549   20.8420 N   0  0  0  0  0  0  0  0  0  0  0  0
  -21.9769  -12.3914   21.9704 N   0  0  0  0  0  0  0  0  0  0  0  0
  -30.1276  -15.5956   21.5942 N   0  0  0  0  0  0  0  0  0  0  0  0
  -22.4016  -27.0460   22.2723 N   0  0  0  0  0  0  0  0  0  0  0  0
  -27.8504  -29.9851   19.4375 N   0  0  0  0  0  0  0  0  0  0  0  0
  -30.5119  -32.1259   20.6211 N   0  3  0  0  0  0  0  0  0  0  0  0
  -22.7245  -14.5590   21.9323 O   0  0  0  0  0  0  0  0  0  0  0  0
  -23.8617  -26.5162   20.5374 O   0  0  0  0  0  0  0  0  0  0  0  0
  -25.4837  -29.9157   20.6241 O   0  0  0  0  0  0  0  0  0  0  0  0
  -29.8976  -29.3934   20.3518 O   0  0  0  0  0  0  0  0  0  0  0  0
  -31.7879  -15.0513   20.0681 O   0  0  0  0  0  0  0  0  0  0  0  0
  -21.7177   -6.8654   21.3095 O   0  0  0  0  0  0  0  0  0  0  0  0
  -27.9133  -22.4188   23.7468 O   0  0  0  0  0  0  0  0  0  1  0  0
  -21.2958   -4.7242   26.3732 F   0  0  0  0  0  0  0  0  0  0  0  0
  -20.5328   -8.2931   23.3589 F   0  0  0  0  0  0  0  0  0  0  0  0
  1  2  1  0  0  0  0
  1  6  2  0  0  0  0
  2  7  2  0  0  0  0
  3  9  2  0  0  0  0
  3 10  1  0  0  0  0
  4 11  2  0  0  0  0
  4 18  1  0  0  0  0
  5 12  1  0  0  0  0
  5 18  2  0  0  0  0
  6 20  1  0  0  0  0
  7 22  1  0  0  0  0
  8 13  2  0  0  0  0
  8 21  1  0  0  0  0
  9 25  1  0  0  0  0
 10 26  2  0  0  0  0
 11 27  1  0  0  0  0
 12 27  2  0  0  0  0
 13 28  1  0  0  0  0
 14 15  2  0  0  0  0
 14 29  1  0  0  0  0
 15 30  1  0  0  0  0
 16 23  1  0  0  0  0
 16 28  2  0  0  0  0
 17 30  2  0  0  0  0
 17 31  1  0  0  0  0
 18 32  1  0  0  0  0
 19 32  1  0  0  0  0
 19 33  2  0  0  0  0
 19 36  1  0  0  0  0
 20 22  2  0  0  0  0
 20 41  1  0  0  0  0
 21 23  2  0  0  0  0
 21 42  1  0  0  0  0
 22 53  1  0  0  0  0
 23 43  1  0  0  0  0
 24 25  2  0  0  0  0
 24 26  1  0  0  0  0
 24 57  1  0  0  0  0
 25 68  1  0  0  0  0
 26 73  1  0  0  0  0
 27 82  1  0  0  0  0
 28 83  1  0  0  0  0
 29 31  2  0  0  0  0
 29 82  1  0  0  0  0
 30 84  1  0  0  0  0
 31 85  1  0  0  0  0
 32 66  2  0  0  0  0
 33 67  1  0  0  0  0
 33 71  1  0  0  0  0
 34 35  2  0  0  0  0
 34 44  1  0  0  0  0
 34 68  1  0  0  0  0
 36 72  1  0  0  0  0
 36 77  2  0  0  0  0
 37 54  1  0  0  0  0
 37 74  1  0  0  0  0
 37 78  2  0  0  0  0
 38 63  1  0  0  0  0
 38 69  1  0  0  0  0
 38 79  2  0  0  0  0
 39 64  1  0  0  0  0
 39 75  1  0  0  0  0
 39 80  2  0  0  0  0
 40 70  1  0  0  0  0
 40 73  1  0  0  0  0
 40 81  2  0  0  0  0
 41 45  1  0  0  0  0
 42 54  1  0  0  0  0
 43 69  1  0  0  0  0
 44 46  1  0  0  0  0
 45 48  1  0  0  0  0
 46 56  1  0  0  0  0
 47 49  1  0  0  0  0
 47 50  1  0  0  0  0
 48 53  1  0  0  0  0
 49 55  1  0  0  0  0
 50 70  1  0  0  0  0
 51 55  1  0  0  0  0
 51 70  1  0  0  0  0
 52 56  1  0  0  0  0
 52 68  1  0  0  0  0
 53 74  1  0  0  0  0
 54 69  1  0  0  0  0
 55 67  1  0  0  0  0
 56 83  1  0  0  0  0
 58 64  1  0  0  0  0
 59 65  1  0  0  0  0
 60 65  1  0  0  0  0
 61 65  1  0  0  0  0
 62 76  1  0  0  0  0
 63 65  1  0  0  0  0
 63 75  1  0  0  0  0
 64 76  1  0  0  0  0
 66 67  1  0  0  0  0
M  CHG  1  76   1
M  ISO  4  40 100  56 101  73 100  83 101
M  END
> <Batch ID>
0043

> <Smiles>
C=C1CC[101CH:1]([101O:1]c2ccc3c(c2)CN(C(=O)C(NC(=O)C(C)NC)C(C)(C)C)C(C(=O)NC2CCCc4ccccc42)C3)CN1c1cccc([100NH:0][100C:0](=O)N2CCCC(n3nc(-c4ccc(Oc5ccc(F)cc5F)cc4)c(C(N)=O)c3N)C2)c1C

> <Shape>
0.278

> <Color>
0.202

> <Negative vol penalty>
0.000

$$$$

  -OEChem-04042322153D

 91100  0     1  0  0  0  0  0999 V2000
  -17.0394  -28.6571   24.6097 C   0  0  0  0  0  0  0  0  0  0  0  0
  -17.3200  -27.8823   23.4889 C   0  0  0  0  0  0  0  0  0  0  0  0
  -22.6013  -10.4336   20.8215 C   0  0  0  0  0  0  0  0  0  0  0  0
  -24.4609   -9.0544   21.5119 C   0  0  0  0  0  0  0  0  0  0  0  0
  -17.7545  -29.8315   24.8407 C   0  0  0  0  0  0  0  0  0  0  0  0
  -18.3152  -28.2821   22.5977 C   0  0  0  0  0  0  0  0  0  0  0  0
  -24.6573  -24.4445   20.1323 C   0  0  0  0  0  0  0  0  0  0  0  0
  -21.7604   -9.7323   21.6856 C   0  0  0  0  0  0  0  0  0  0  0  0
  -23.6200   -8.3531   22.3760 C   0  0  0  0  0  0  0  0  0  0  0  0
  -25.8939  -23.9280   19.7448 C   0  0  0  0  0  0  0  0  0  0  0  0
  -21.3031   -5.9009   22.1528 C   0  0  0  0  0  0  0  0  0  0  0  0
  -21.4000   -4.5095   22.1640 C   0  0  0  0  0  0  0  0  0  0  0  0
  -27.1069  -20.5841   21.4265 C   0  0  0  0  0  0  0  0  0  0  0  0
  -28.6266  -18.7136   21.2582 C   0  0  0  0  0  0  0  0  0  0  0  0
  -26.7454  -26.1702   19.4352 C   0  0  0  0  0  0  0  0  0  0  0  0
  -21.9842   -4.5691   24.5076 C   0  0  0  0  0  0  0  0  0  0  0  0
  -23.9516  -10.0946   20.7346 C   0  0  0  0  0  0  0  0  0  0  0  0
  -24.6975  -10.9344   18.4442 C   0  0  0  0  0  0  0  0  0  0  0  0
  -18.7655  -30.2409   23.9571 C   0  0  0  0  0  0  0  0  0  0  0  0
  -24.4646  -25.8277   20.1876 C   0  0  0  0  0  0  0  0  0  0  0  0
  -19.0436  -29.4638   22.8164 C   0  0  0  0  0  0  0  0  0  0  0  0
  -28.4086  -20.0835   21.4050 C   0  0  0  0  0  0  0  0  0  0  0  0
  -25.5127  -26.6935   19.8347 C   0  0  0  0  0  0  0  0  0  0  0  0
  -26.0231  -19.7149   21.3014 C   0  0  0  0  0  0  0  0  0  0  0  0
  -26.2411  -18.3450   21.1547 C   0  0  0  0  0  0  0  0  0  0  0  0
  -27.5429  -17.8443   21.1331 C   0  0  0  0  0  0  0  0  0  0  0  0
  -22.2697   -8.6921   22.4629 C   0  0  0  0  0  0  0  0  0  0  0  0
  -26.9353  -24.7888   19.3969 C   0  0  0  0  0  0  0  0  0  0  0  0
  -21.5468   -6.6265   23.3189 C   0  0  0  0  0  0  0  0  0  0  0  0
  -21.7406   -3.8436   23.3414 C   0  0  0  0  0  0  0  0  0  0  0  0
  -21.8873   -5.9606   24.4963 C   0  0  0  0  0  0  0  0  0  0  0  0
  -24.8206  -10.8182   19.8418 C   0  0  0  0  0  0  0  0  0  0  0  0
  -25.7618  -11.7177   18.0697 C   0  0  0  0  0  0  0  0  0  0  0  0
  -29.6995  -21.9872   20.3498 C   0  0  0  0  0  0  0  0  0  0  0  0
  -23.7093  -10.3837   17.5633 C   0  0  0  0  0  0  0  0  0  0  0  0
  -22.1266  -28.6628   20.9438 C   0  0  0  0  0  0  0  0  0  0  0  0
  -24.8797  -29.4631   22.0348 C   0  0  0  0  0  0  0  0  0  0  0  0
  -27.4793  -30.7819   23.8068 C   0  0  0  0  0  0  0  0  0  0  0  0
  -29.0250  -15.8161   20.9436 C   0  0  0  0  0  0  0  0  0  0  0  0
  -19.4792  -31.5426   24.2234 C   0  0  0  0  0  0  0  0  0  0  0  0
  -23.1306  -26.4277   20.5401 C   0  0  0  0  0  0  0  0  0  0  0  0
  -25.2492  -28.1739   19.8756 C   0  0  0  0  0  0  0  0  0  0  0  0
  -20.7737  -31.7009   23.4301 C   0  0  0  0  0  0  0  0  0  0  0  0
  -30.7218  -22.6929   23.0004 C   0  0  0  0  0  0  0  0  0  0  0  0
  -30.2255  -12.8481   19.3857 C   0  0  0  0  0  0  0  0  0  0  0  0
  -29.5581  -21.7270   22.9028 C   0  0  0  0  0  0  0  0  0  0  0  0
  -20.5548  -31.3198   21.9694 C   0  0  0  0  0  0  0  0  0  0  0  0
  -28.9636  -12.0039   19.1931 C   0  0  0  0  0  0  0  0  0  0  0  0
  -30.5848  -23.7512   21.9241 C   0  0  0  0  0  0  0  0  0  0  0  0
  -30.1877  -13.6340   20.6952 C   0  0  0  0  0  0  0  0  0  0  0  0
  -27.7243  -13.6107   20.6996 C   0  0  0  0  0  0  0  0  0  0  0  0
  -29.5895  -21.0306   21.5428 C   0  0  1  0  0  0  0  0  0  0  0  0
  -20.1327  -29.8513   21.8397 C   0  0  1  0  0  0  0  0  0  0  0  0
  -23.2504  -27.7453   21.3267 C   0  0  1  0  0  0  0  0  0  0  0  0
  -27.6874  -12.8511   19.3634 C   0  0  2  0  0  0  0  0  0  0  0  0
  -24.6394  -20.2767   21.3296 C   0  0  0  0  0  0  0  0  0  0  0  0
  -28.4115  -32.9722   24.6011 C   0  0  0  0  0  0  0  0  0  0  0  0
  -25.8916  -30.0498   19.2178 C   0  0  0  0  0  0  0  0  0  0  0  0
  -27.5436  -31.6422   20.2194 C   0  0  0  0  0  0  0  0  0  0  0  0
  -25.0978  -32.0571   20.4807 C   0  0  0  0  0  0  0  0  0  0  0  0
  -27.2341  -29.9885   26.6475 C   0  0  0  0  0  0  0  0  0  0  0  0
  -30.4971  -24.1561   19.4887 C   0  0  0  0  0  0  0  0  0  0  0  0
  -29.2958  -25.0668   19.3084 C   0  0  0  0  0  0  0  0  0  1  0  0
  -26.1821  -30.1788   21.7800 C   0  0  1  0  0  0  0  0  0  0  0  0
  -27.5168  -31.7903   24.9409 C   0  0  2  0  0  0  0  0  0  0  0  0
  -25.0749  -17.4165   21.0217 C   0  0  0  0  0  0  0  0  0  0  0  0
  -26.1781  -30.9547   20.4327 C   0  0  0  0  0  0  0  0  0  0  0  0
  -25.8797  -11.4749   20.3225 N   0  0  0  0  0  0  0  0  0  0  0  0
  -26.4319  -12.0112   19.2208 N   0  0  0  0  0  0  0  0  0  0  0  0
  -30.3073  -23.2207   20.5902 N   0  0  0  0  0  0  0  0  0  0  0  0
  -24.4828  -28.5145   21.0845 N   0  0  0  0  0  0  0  0  0  0  0  0
  -28.9527  -14.4160   20.7848 N   0  0  0  0  0  0  0  0  0  0  0  0
  -26.1806  -12.1769   16.8713 N   0  0  0  0  0  0  0  0  0  0  0  0
  -23.9405   -9.1179   17.0080 N   0  0  0  0  0  0  0  0  0  0  0  0
  -27.7870  -16.4566   20.9837 N   0  0  0  0  0  0  0  0  0  0  0  0
  -21.2793  -28.9809   21.9880 N   0  0  0  0  0  0  0  0  0  0  0  0
  -26.4240  -31.0152   22.9506 N   0  0  0  0  0  0  0  0  0  0  0  0
  -28.0333  -31.1521   26.1846 N   0  3  0  0  0  0  0  0  0  0  0  0
  -29.3336  -21.6202   19.2287 O   0  0  0  0  0  0  0  0  0  0  0  0
  -22.6603  -11.0031   17.2643 O   0  0  0  0  0  0  0  0  0  0  0  0
  -22.0346  -29.0554   19.7866 O   0  0  0  0  0  0  0  0  0  0  0  0
  -24.2272  -29.7396   23.0453 O   0  0  0  0  0  0  0  0  0  0  0  0
  -28.3059  -29.8799   23.6899 O   0  0  0  0  0  0  0  0  0  0  0  0
  -30.1061  -16.4067   21.0098 O   0  0  0  0  0  0  0  0  0  0  0  0
  -21.4494   -8.0078   23.3064 O   0  0  0  0  0  0  0  0  0  0  0  0
  -28.1413  -24.2779   19.0238 O   0  0  0  0  0  0  0  0  0  1  0  0
  -21.8321   -2.5073   23.3524 F   0  0  0  0  0  0  0  0  0  0  0  0
  -22.1214   -6.6521   25.6201 F   0  0  0  0  0  0  0  0  0  0  0  0
  -23.8686  -18.0519   21.0617 F   0  0  0  0  0  0  0  0  0  0  0  0
  -25.0733  -16.7129   19.8535 F   0  0  0  0  0  0  0  0  0  0  0  0
  -25.0361  -16.4849   22.0158 F   0  0  0  0  0  0  0  0  0  0  0  0
  1  2  1  0  0  0  0
  1  5  2  0  0  0  0
  2  6  2  0  0  0  0
  3  8  2  0  0  0  0
  3 17  1  0  0  0  0
  4  9  1  0  0  0  0
  4 17  2  0  0  0  0
  5 19  1  0  0  0  0
  6 21  1  0  0  0  0
  7 10  2  0  0  0  0
  7 20  1  0  0  0  0
  8 27  1  0  0  0  0
  9 27  2  0  0  0  0
 10 28  1  0  0  0  0
 11 12  2  0  0  0  0
 11 29  1  0  0  0  0
 12 30  1  0  0  0  0
 13 22  1  0  0  0  0
 13 24  2  0  0  0  0
 14 22  2  0  0  0  0
 14 26  1  0  0  0  0
 15 23  1  0  0  0  0
 15 28  2  0  0  0  0
 16 30  2  0  0  0  0
 16 31  1  0  0  0  0
 17 32  1  0  0  0  0
 18 32  1  0  0  0  0
 18 33  2  0  0  0  0
 18 35  1  0  0  0  0
 19 21  2  0  0  0  0
 19 40  1  0  0  0  0
 20 23  2  0  0  0  0
 20 41  1  0  0  0  0
 21 53  1  0  0  0  0
 22 52  1  0  0  0  0
 23 42  1  0  0  0  0
 24 25  1  0  0  0  0
 24 56  1  0  0  0  0
 25 26  2  0  0  0  0
 25 66  1  0  0  0  0
 26 75  1  0  0  0  0
 27 85  1  0  0  0  0
 28 86  1  0  0  0  0
 29 31  2  0  0  0  0
 29 85  1  0  0  0  0
 30 87  1  0  0  0  0
 31 88  1  0  0  0  0
 32 68  2  0  0  0  0
 33 69  1  0  0  0  0
 33 73  1  0  0  0  0
 34 52  1  0  0  0  0
 34 70  1  0  0  0  0
 34 79  2  0  0  0  0
 35 74  1  0  0  0  0
 35 80  2  0  0  0  0
 36 54  1  0  0  0  0
 36 76  1  0  0  0  0
 36 81  2  0  0  0  0
 37 64  1  0  0  0  0
 37 71  1  0  0  0  0
 37 82  2  0  0  0  0
 38 65  1  0  0  0  0
 38 77  1  0  0  0  0
 38 83  2  0  0  0  0
 39 72  1  0  0  0  0
 39 75  1  0  0  0  0
 39 84  2  0  0  0  0
 40 43  1  0  0  0  0
 41 54  1  0  0  0  0
 42 71  1  0  0  0  0
 43 47  1  0  0  0  0
 44 46  1  0  0  0  0
 44 49  1  0  0  0  0
 45 48  1  0  0  0  0
 45 50  1  0  0  0  0
 46 52  1  0  0  0  0
 47 53  1  0  0  0  0
 48 55  1  0  0  0  0
 49 70  1  0  0  0  0
 50 72  1  0  0  0  0
 51 55  1  0  0  0  0
 51 72  1  0  0  0  0
 53 76  1  0  0  0  0
 54 71  1  0  0  0  0
 55 69  1  0  0  0  0
 57 65  1  0  0  0  0
 58 67  1  0  0  0  0
 59 67  1  0  0  0  0
 60 67  1  0  0  0  0
 61 78  1  0  0  0  0
 62 63  1  0  0  0  0
 62 70  1  0  0  0  0
 63 86  1  0  0  0  0
 64 67  1  0  0  0  0
 64 77  1  0  0  0  0
 65 78  1  0  0  0  0
 66 89  1  0  0  0  0
 66 90  1  0  0  0  0
 66 91  1  0  0  0  0
 68 69  1  0  0  0  0
M  CHG  1  78   1
M  ISO  4  39 100  63 101  75 100  86 101
M  END
> <Batch ID>
0043

> <Smiles>
CNC(C)C(=O)NC(C(=O)N1Cc2cc([101O:1][101CH2:1]CN3CCCC(c4cc(C)c(C(F)(F)F)c([100NH:0][100C:0](=O)N5CCCC(n6nc(-c7ccc(Oc8ccc(F)cc8F)cc7)c(C(N)=O)c6N)C5)c4)C3=O)ccc2CC1C(=O)NC1CCCc2ccccc21)C(C)(C)C

> <Shape>
0.343

> <Color>
0.109

> <Negative vol penalty>
0.000

$$$$

  -OEChem-04042322153D

 90 99  0     1  0  0  0  0  0999 V2000
  -23.3599  -26.7020   14.8520 C   0  0  0  0  0  0  0  0  0  0  0  0
  -22.9745  -26.8922   16.1751 C   0  0  0  0  0  0  0  0  0  0  0  0
  -28.6829  -18.5342   20.8558 C   0  0  0  0  0  0  0  0  0  0  0  0
  -27.4127  -17.5692   19.0413 C   0  0  0  0  0  0  0  0  0  0  0  0
  -24.6839  -26.9217   14.4743 C   0  0  0  0  0  0  0  0  0  0  0  0
  -23.9133  -27.3011   17.1217 C   0  0  0  0  0  0  0  0  0  0  0  0
  -22.1628  -30.9790   20.1308 C   0  0  0  0  0  0  0  0  0  0  0  0
  -17.5861  -25.5543   23.6441 C   0  0  0  0  0  0  0  0  0  0  0  0
  -18.2042  -24.3043   23.6133 C   0  0  0  0  0  0  0  0  0  0  0  0
  -29.5734  -17.4619   20.8027 C   0  0  0  0  0  0  0  0  0  0  0  0
  -28.3032  -16.4969   18.9882 C   0  0  0  0  0  0  0  0  0  0  0  0
  -21.3000  -30.6034   21.1594 C   0  0  0  0  0  0  0  0  0  0  0  0
  -28.8688  -13.6407   20.7067 C   0  0  0  0  0  0  0  0  0  0  0  0
  -28.3324  -12.3573   20.6035 C   0  0  0  0  0  0  0  0  0  0  0  0
  -23.1327  -30.7023   22.7248 C   0  0  0  0  0  0  0  0  0  0  0  0
  -18.7059  -26.1587   21.5904 C   0  0  0  0  0  0  0  0  0  0  0  0
  -29.4986  -12.0380   18.5118 C   0  0  0  0  0  0  0  0  0  0  0  0
  -27.6025  -18.5878   19.9751 C   0  0  0  0  0  0  0  0  0  0  0  0
  -26.9796  -21.0581   19.8431 C   0  0  0  0  0  0  0  0  0  0  0  0
  -25.6372  -27.3428   15.4147 C   0  0  0  0  0  0  0  0  0  0  0  0
  -23.5217  -31.2088   20.3898 C   0  0  0  0  0  0  0  0  0  0  0  0
  -25.2516  -27.5254   16.7565 C   0  0  0  0  0  0  0  0  0  0  0  0
  -24.0102  -31.0832   21.6981 C   0  0  0  0  0  0  0  0  0  0  0  0
  -17.8368  -26.4815   22.6326 C   0  0  0  0  0  0  0  0  0  0  0  0
  -19.3241  -24.9087   21.5596 C   0  0  0  0  0  0  0  0  0  0  0  0
  -19.0733  -23.9815   22.5711 C   0  0  0  0  0  0  0  0  0  0  0  0
  -29.3836  -16.4433   19.8689 C   0  0  0  0  0  0  0  0  0  0  0  0
  -21.7854  -30.4621   22.4561 C   0  0  0  0  0  0  0  0  0  0  0  0
  -29.7201  -14.1228   19.7124 C   0  0  0  0  0  0  0  0  0  0  0  0
  -28.6473  -11.5559   19.5061 C   0  0  0  0  0  0  0  0  0  0  0  0
  -30.0350  -13.3215   18.6150 C   0  0  0  0  0  0  0  0  0  0  0  0
  -26.6819  -19.6949   20.0298 C   0  0  0  0  0  0  0  0  0  0  0  0
  -25.7732  -21.6969   19.9944 C   0  0  0  0  0  0  0  0  0  0  0  0
  -18.9431  -28.8215   24.0001 C   0  0  0  0  0  0  0  0  0  0  0  0
  -19.5985  -28.0674   24.8979 C   0  0  0  0  0  0  0  0  0  0  0  0
  -17.0616  -18.9474   20.9699 C   0  0  0  0  0  0  0  0  0  0  0  0
  -17.0854  -20.0113   21.7802 C   0  0  0  0  0  0  0  0  0  0  0  0
  -28.2346  -21.6904   19.5584 C   0  0  0  0  0  0  0  0  0  0  0  0
  -26.2452  -29.8914   19.4150 C   0  0  0  0  0  0  0  0  0  0  0  0
  -27.5721  -32.3349   21.0856 C   0  0  0  0  0  0  0  0  0  0  0  0
  -27.2644  -34.6409   23.5825 C   0  0  0  0  0  0  0  0  0  0  0  0
  -21.1083  -22.5498   22.5877 C   0  0  0  0  0  0  0  0  0  0  0  0
  -27.0669  -27.5218   14.9689 C   0  0  0  0  0  0  0  0  0  0  0  0
  -24.4339  -31.6393   19.2741 C   0  0  0  0  0  0  0  0  0  0  0  0
  -25.4565  -31.3382   22.0324 C   0  0  0  0  0  0  0  0  0  0  0  0
  -27.9181  -28.3157   15.9565 C   0  0  0  0  0  0  0  0  0  0  0  0
  -21.0759  -19.8616   20.2606 C   0  0  0  0  0  0  0  0  0  0  0  0
  -17.3203  -30.9860   23.0509 C   0  0  0  0  0  0  0  0  0  0  0  0
  -27.6964  -27.8106   17.3787 C   0  0  0  0  0  0  0  0  0  0  0  0
  -18.8203  -31.1907   23.2316 C   0  0  0  0  0  0  0  0  0  0  0  0
  -22.5681  -19.6817   19.9839 C   0  0  0  0  0  0  0  0  0  0  0  0
  -20.7997  -20.1708   21.7324 C   0  0  0  0  0  0  0  0  0  0  0  0
  -23.0623  -21.1416   21.9828 C   0  0  0  0  0  0  0  0  0  0  0  0
  -16.7809  -29.9365   24.0172 C   0  0  0  0  0  0  0  0  0  0  0  0
  -26.2353  -27.9924   17.8073 C   0  0  1  0  0  0  0  0  0  0  0  0
  -19.5819  -29.8709   23.1183 C   0  0  1  0  0  0  0  0  0  1  0  0
  -25.9042  -31.3477   19.5582 C   0  0  1  0  0  0  0  0  0  0  0  0
  -23.3745  -20.8865   20.5000 C   0  0  1  0  0  0  0  0  0  0  0  0
  -20.2528  -24.5912   20.4326 C   0  0  0  0  0  0  0  0  0  0  0  0
  -28.5298  -36.4745   24.7374 C   0  0  0  0  0  0  0  0  0  0  0  0
  -29.2228  -30.2501   22.5819 C   0  0  0  0  0  0  0  0  0  0  0  0
  -29.7258  -31.9903   24.3101 C   0  0  0  0  0  0  0  0  0  0  0  0
  -30.4777  -32.3203   21.9546 C   0  0  0  0  0  0  0  0  0  0  0  0
  -25.2624  -36.6746   22.7984 C   0  0  0  0  0  0  0  0  0  0  0  0
  -17.1736  -27.8269   22.6671 C   0  0  0  0  0  0  0  0  0  0  0  0
  -17.9586  -21.2134   21.5623 C   0  0  0  0  0  0  0  0  0  0  0  0
  -18.8644  -21.4957   22.7575 C   0  0  0  0  0  0  0  0  0  0  0  0
  -28.0212  -32.5343   22.5130 C   0  0  1  0  0  0  0  0  0  0  0  0
  -27.5573  -36.1299   23.6202 C   0  0  2  0  0  0  0  0  0  0  0  0
  -29.3350  -31.7670   22.8336 C   0  0  0  0  0  0  0  0  0  0  0  0
  -25.3878  -19.4794   20.2807 N   0  0  0  0  0  0  0  0  0  0  0  0
  -24.8617  -20.7158   20.2528 N   0  0  0  0  0  0  0  0  0  0  0  0
  -26.3102  -31.7507   20.9061 N   0  0  0  0  0  0  0  0  0  0  0  0
  -21.6209  -21.3004   22.1904 N   0  0  0  0  0  0  0  0  0  0  0  0
  -25.4137  -22.9965   19.9304 N   0  0  0  0  0  0  0  0  0  0  0  0
  -28.6051  -21.8665   18.2182 N   0  0  0  0  0  0  0  0  0  0  0  0
  -25.9806  -29.3722   18.1620 N   0  0  0  0  0  0  0  0  0  0  0  0
  -28.1067  -33.9764   22.7164 N   0  0  0  0  0  0  0  0  0  0  0  0
  -19.7033  -22.6822   22.5576 N   0  0  0  0  0  0  0  0  0  0  0  0
  -17.5141  -28.6203   23.8986 N   0  3  1  0  0  0  0  0  0  0  0  0
  -26.2999  -36.8998   23.8375 N   0  3  0  0  0  0  0  0  0  0  0  0
  -29.0120  -22.0726   20.4656 O   0  0  0  0  0  0  0  0  0  0  0  0
  -26.7151  -29.2841   20.3700 O   0  0  0  0  0  0  0  0  0  0  0  0
  -28.3105  -32.6910   20.1639 O   0  0  0  0  0  0  0  0  0  0  0  0
  -26.3795  -34.1188   24.2570 O   0  0  0  0  0  0  0  0  0  0  0  0
  -21.8467  -23.4675   22.9652 O   0  0  0  0  0  0  0  0  0  0  0  0
  -30.2525  -15.3970   19.8167 O   0  0  0  0  0  0  0  0  0  0  0  0
  -20.9455  -30.0950   23.4619 O   0  0  0  0  0  0  0  0  0  1  0  0
  -28.1333  -10.3229   19.4079 F   0  0  0  0  0  0  0  0  0  0  0  0
  -30.8533  -13.7787   17.6573 F   0  0  0  0  0  0  0  0  0  0  0  0
  1  2  1  0  0  0  0
  1  5  2  0  0  0  0
  2  6  2  0  0  0  0
  3 10  2  0  0  0  0
  3 18  1  0  0  0  0
  4 11  1  0  0  0  0
  4 18  2  0  0  0  0
  5 20  1  0  0  0  0
  6 22  1  0  0  0  0
  7 12  2  0  0  0  0
  7 21  1  0  0  0  0
  8  9  2  0  0  0  0
  8 24  1  0  0  0  0
  9 26  1  0  0  0  0
 10 27  1  0  0  0  0
 11 27  2  0  0  0  0
 12 28  1  0  0  0  0
 13 14  2  0  0  0  0
 13 29  1  0  0  0  0
 14 30  1  0  0  0  0
 15 23  1  0  0  0  0
 15 28  2  0  0  0  0
 16 24  2  0  0  0  0
 16 25  1  0  0  0  0
 17 30  2  0  0  0  0
 17 31  1  0  0  0  0
 18 32  1  0  0  0  0
 19 32  1  0  0  0  0
 19 33  2  0  0  0  0
 19 38  1  0  0  0  0
 20 22  2  0  0  0  0
 20 43  1  0  0  0  0
 21 23  2  0  0  0  0
 21 44  1  0  0  0  0
 22 55  1  0  0  0  0
 23 45  1  0  0  0  0
 24 65  1  0  0  0  0
 25 26  2  0  0  0  0
 25 59  1  0  0  0  0
 26 79  1  0  0  0  0
 27 87  1  0  0  0  0
 28 88  1  0  0  0  0
 29 31  2  0  0  0  0
 29 87  1  0  0  0  0
 30 89  1  0  0  0  0
 31 90  1  0  0  0  0
 32 71  2  0  0  0  0
 33 72  1  0  0  0  0
 33 75  1  0  0  0  0
 34 35  2  0  0  0  0
 34 56  1  0  0  0  0
 34 80  1  0  0  0  0
 36 37  2  0  0  0  0
 37 66  1  0  0  0  0
 38 76  1  0  0  0  0
 38 82  2  0  0  0  0
 39 57  1  0  0  0  0
 39 77  1  0  0  0  0
 39 83  2  0  0  0  0
 40 68  1  0  0  0  0
 40 73  1  0  0  0  0
 40 84  2  0  0  0  0
 41 69  1  0  0  0  0
 41 78  1  0  0  0  0
 41 85  2  0  0  0  0
 42 74  1  0  0  0  0
 42 79  1  0  0  0  0
 42 86  2  0  0  0  0
 43 46  1  0  0  0  0
 44 57  1  0  0  0  0
 45 73  1  0  0  0  0
 46 49  1  0  0  0  0
 47 51  1  0  0  0  0
 47 52  1  0  0  0  0
 48 50  1  0  0  0  0
 48 54  1  0  0  0  0
 49 55  1  0  0  0  0
 50 56  1  0  0  0  0
 51 58  1  0  0  0  0
 52 74  1  0  0  0  0
 53 58  1  0  0  0  0
 53 74  1  0  0  0  0
 54 80  1  0  0  0  0
 55 77  1  0  0  0  0
 56 88  1  0  0  0  0
 57 73  1  0  0  0  0
 58 72  1  0  0  0  0
 60 69  1  0  0  0  0
 61 70  1  0  0  0  0
 62 70  1  0  0  0  0
 63 70  1  0  0  0  0
 64 81  1  0  0  0  0
 65 80  1  0  0  0  0
 66 67  1  0  0  0  0
 67 79  1  0  0  0  0
 68 70  1  0  0  0  0
 68 78  1  0  0  0  0
 69 81  1  0  0  0  0
 71 72  1  0  0  0  0
M  CHG  2  80   1  81   1
M  ISO  4  42 100  56 101  79 100  88 101
M  END
> <Batch ID>
0043

> <Smiles>
C=CCC[100N:0](c1ccc(CN2CCC[101CH:1]([101O:1]c3ccc4c(c3)CN(C(=O)C(NC(=O)C(C)NC)C(C)(C)C)C(C(=O)NC3CCCc5ccccc53)C4)C2=C)cc1C)[100C:0](=O)N1CCCC(n2nc(-c3ccc(Oc4ccc(F)cc4F)cc3)c(C(N)=O)c2N)C1

> <Shape>
0.237

> <Color>
0.067

> <Negative vol penalty>
0.000

$$$$

  -OEChem-04042322153D

 87 96  0     1  0  0  0  0  0999 V2000
  -18.4287  -32.9263   24.2370 C   0  0  0  0  0  0  0  0  0  0  0  0
  -19.6801  -33.0955   23.6532 C   0  0  0  0  0  0  0  0  0  0  0  0
  -24.6980  -11.9841   21.3510 C   0  0  0  0  0  0  0  0  0  0  0  0
  -25.7629  -13.3988   22.9947 C   0  0  0  0  0  0  0  0  0  0  0  0
  -18.0729  -31.6901   24.7746 C   0  0  0  0  0  0  0  0  0  0  0  0
  -20.5769  -32.0286   23.6076 C   0  0  0  0  0  0  0  0  0  0  0  0
  -25.7648  -29.2674   19.5115 C   0  0  0  0  0  0  0  0  0  0  0  0
  -25.1061  -10.8539   22.0593 C   0  0  0  0  0  0  0  0  0  0  0  0
  -26.1710  -12.2685   23.7030 C   0  0  0  0  0  0  0  0  0  0  0  0
  -27.0875  -28.8347   19.5949 C   0  0  0  0  0  0  0  0  0  0  0  0
  -24.1298   -9.1534   24.8140 C   0  0  0  0  0  0  0  0  0  0  0  0
  -23.1928   -8.1394   25.0124 C   0  0  0  0  0  0  0  0  0  0  0  0
  -26.3341  -26.7228   20.4845 C   0  0  0  0  0  0  0  0  0  0  0  0
  -29.0012  -21.8957   21.9326 C   0  0  0  0  0  0  0  0  0  0  0  0
  -27.3605  -21.1488   23.5410 C   0  0  0  0  0  0  0  0  0  0  0  0
  -24.6187   -6.5901   23.8276 C   0  0  0  0  0  0  0  0  0  0  0  0
  -25.0264  -13.2565   21.8187 C   0  0  0  0  0  0  0  0  0  0  0  0
  -23.2852  -14.8094   20.7870 C   0  0  0  0  0  0  0  0  0  0  0  0
  -18.9621  -30.6049   24.7270 C   0  0  0  0  0  0  0  0  0  0  0  0
  -24.7157  -28.4338   19.9249 C   0  0  0  0  0  0  0  0  0  0  0  0
  -20.2331  -30.7771   24.1463 C   0  0  0  0  0  0  0  0  0  0  0  0
  -24.9988  -27.1463   20.4029 C   0  0  0  0  0  0  0  0  0  0  0  0
  -29.5987  -22.6903   22.9110 C   0  0  0  0  0  0  0  0  0  0  0  0
  -29.0771  -22.7141   24.2044 C   0  0  0  0  0  0  0  0  0  0  0  0
  -27.8821  -21.1250   22.2476 C   0  0  0  0  0  0  0  0  0  0  0  0
  -25.8426  -10.9961   23.2353 C   0  0  0  0  0  0  0  0  0  0  0  0
  -27.3725  -27.5633   20.0841 C   0  0  0  0  0  0  0  0  0  0  0  0
  -25.3112   -8.8859   24.1223 C   0  0  0  0  0  0  0  0  0  0  0  0
  -23.4373   -6.8577   24.5192 C   0  0  0  0  0  0  0  0  0  0  0  0
  -25.5557   -7.6042   23.6292 C   0  0  0  0  0  0  0  0  0  0  0  0
  -27.9580  -21.9433   24.5195 C   0  0  0  0  0  0  0  0  0  0  0  0
  -24.6056  -14.4244   21.0872 C   0  0  0  0  0  0  0  0  0  0  0  0
  -23.4209  -15.9801   20.0817 C   0  0  0  0  0  0  0  0  0  0  0  0
  -29.5032  -25.3092   21.4713 C   0  0  0  0  0  0  0  0  0  0  0  0
  -22.0468  -14.1663   21.1162 C   0  0  0  0  0  0  0  0  0  0  0  0
  -22.4682  -28.6004   22.1665 C   0  0  0  0  0  0  0  0  0  0  0  0
  -21.4069  -25.8799   20.7541 C   0  0  0  0  0  0  0  0  0  0  0  0
  -22.8699  -22.8742   19.3966 C   0  0  0  0  0  0  0  0  0  0  0  0
  -27.6674  -20.1809   19.9219 C   0  0  0  0  0  0  0  0  0  0  0  0
  -18.5508  -29.3009   25.3636 C   0  0  0  0  0  0  0  0  0  0  0  0
  -23.2926  -28.9055   19.8036 C   0  0  0  0  0  0  0  0  0  0  0  0
  -23.9074  -26.2052   20.8406 C   0  0  0  0  0  0  0  0  0  0  0  0
  -19.4162  -28.1168   24.9401 C   0  0  0  0  0  0  0  0  0  0  0  0
  -30.8826  -27.2890   23.1341 C   0  0  0  0  0  0  0  0  0  0  0  0
  -26.4593  -18.2686   17.1722 C   0  0  0  0  0  0  0  0  0  0  0  0
  -20.8950  -28.4838   25.0114 C   0  0  0  0  0  0  0  0  0  0  0  0
  -30.3104  -27.6995   21.7934 C   0  0  0  0  0  0  0  0  0  0  0  0
  -25.7215  -17.1041   17.8368 C   0  0  0  0  0  0  0  0  0  0  0  0
  -31.3851  -25.8583   23.0583 C   0  0  0  0  0  0  0  0  0  0  0  0
  -27.7111  -18.6661   17.9525 C   0  0  0  0  0  0  0  0  0  0  0  0
  -26.7543  -17.7794   20.0423 C   0  0  0  0  0  0  0  0  0  0  0  0
  -21.2240  -29.6369   24.0556 C   0  0  1  0  0  0  0  0  0  0  0  0
  -29.1459  -26.7901   21.4539 C   0  0  1  0  0  0  0  0  0  1  0  0
  -22.3365  -28.1657   20.7343 C   0  0  1  0  0  0  0  0  0  0  0  0
  -25.4512  -17.3857   19.3278 C   0  0  2  0  0  0  0  0  0  0  0  0
  -29.7295  -23.5733   25.2426 C   0  0  0  0  0  0  0  0  0  0  0  0
  -22.0385  -21.3165   17.6134 C   0  0  0  0  0  0  0  0  0  0  0  0
  -20.2467  -24.2928   23.0876 C   0  0  0  0  0  0  0  0  0  0  0  0
  -20.8665  -22.1915   21.8758 C   0  0  0  0  0  0  0  0  0  0  0  0
  -19.2261  -23.7751   20.8639 C   0  0  0  0  0  0  0  0  0  0  0  0
  -25.3568  -23.1665   17.8190 C   0  0  0  0  0  0  0  0  0  0  0  0
  -30.8015  -23.5107   22.5444 C   0  0  0  0  0  0  0  0  0  0  0  0
  -21.6734  -24.4055   20.9387 C   0  0  1  0  0  0  0  0  0  0  0  0
  -22.9559  -22.4870   17.9313 C   0  0  2  0  0  0  0  0  0  0  0  0
  -20.5229  -23.6858   21.6976 C   0  0  0  0  0  0  0  0  0  0  0  0
  -25.5133  -15.2810   20.6114 N   0  0  0  0  0  0  0  0  0  0  0  0
  -24.7621  -16.2159   20.0050 N   0  0  0  0  0  0  0  0  0  0  0  0
  -30.4741  -24.9226   22.3970 N   0  0  0  0  0  0  0  0  0  0  0  0
  -22.5324  -26.7148   20.7087 N   0  0  0  0  0  0  0  0  0  0  0  0
  -27.3775  -18.9216   19.3554 N   0  0  0  0  0  0  0  0  0  0  0  0
  -22.5226  -16.8206   19.5257 N   0  0  0  0  0  0  0  0  0  0  0  0
  -22.0883  -12.9703   21.8458 N   0  0  0  0  0  0  0  0  0  0  0  0
  -27.2754  -20.3184   21.2531 N   0  0  0  0  0  0  0  0  0  0  0  0
  -21.3175  -29.1540   22.6945 N   0  0  0  0  0  0  0  0  0  0  0  0
  -21.9388  -23.8690   19.6082 N   0  0  0  0  0  0  0  0  0  0  0  0
  -24.3511  -22.0997   17.5789 N   0  3  0  0  0  0  0  0  0  0  0  0
  -28.8969  -24.5222   20.7397 O   0  0  0  0  0  0  0  0  0  0  0  0
  -20.9370  -14.6296   20.7595 O   0  0  0  0  0  0  0  0  0  0  0  0
  -23.5344  -28.4437   22.7499 O   0  0  0  0  0  0  0  0  0  0  0  0
  -20.2435  -26.2754   20.6469 O   0  0  0  0  0  0  0  0  0  0  0  0
  -23.5570  -22.3443   20.2670 O   0  0  0  0  0  0  0  0  0  0  0  0
  -28.1979  -21.0810   19.2658 O   0  0  0  0  0  0  0  0  0  0  0  0
  -26.2408   -9.8935   23.9269 O   0  0  0  0  0  0  0  0  0  0  0  0
  -28.6627  -27.1386   20.1671 O   0  0  0  0  0  0  0  0  0  1  0  0
  -22.5381   -5.8836   24.7111 F   0  0  0  0  0  0  0  0  0  0  0  0
  -26.6894   -7.3408   22.9650 F   0  0  0  0  0  0  0  0  0  0  0  0
  -27.2834  -21.9430   26.1089 Cl  0  0  0  0  0  0  0  0  0  0  0  0
  1  2  1  0  0  0  0
  1  5  2  0  0  0  0
  2  6  2  0  0  0  0
  3  8  2  0  0  0  0
  3 17  1  0  0  0  0
  4  9  1  0  0  0  0
  4 17  2  0  0  0  0
  5 19  1  0  0  0  0
  6 21  1  0  0  0  0
  7 10  2  0  0  0  0
  7 20  1  0  0  0  0
  8 26  1  0  0  0  0
  9 26  2  0  0  0  0
 10 27  1  0  0  0  0
 11 12  2  0  0  0  0
 11 28  1  0  0  0  0
 12 29  1  0  0  0  0
 13 22  1  0  0  0  0
 13 27  2  0  0  0  0
 14 23  1  0  0  0  0
 14 25  2  0  0  0  0
 15 25  1  0  0  0  0
 15 31  2  0  0  0  0
 16 29  2  0  0  0  0
 16 30  1  0  0  0  0
 17 32  1  0  0  0  0
 18 32  1  0  0  0  0
 18 33  2  0  0  0  0
 18 35  1  0  0  0  0
 19 21  2  0  0  0  0
 19 40  1  0  0  0  0
 20 22  2  0  0  0  0
 20 41  1  0  0  0  0
 21 52  1  0  0  0  0
 22 42  1  0  0  0  0
 23 24  2  0  0  0  0
 23 62  1  0  0  0  0
 24 31  1  0  0  0  0
 24 56  1  0  0  0  0
 25 73  1  0  0  0  0
 26 83  1  0  0  0  0
 27 84  1  0  0  0  0
 28 30  2  0  0  0  0
 28 83  1  0  0  0  0
 29 85  1  0  0  0  0
 30 86  1  0  0  0  0
 31 87  1  0  0  0  0
 32 66  2  0  0  0  0
 33 67  1  0  0  0  0
 33 71  1  0  0  0  0
 34 53  1  0  0  0  0
 34 68  1  0  0  0  0
 34 77  2  0  0  0  0
 35 72  1  0  0  0  0
 35 78  2  0  0  0  0
 36 54  1  0  0  0  0
 36 74  1  0  0  0  0
 36 79  2  0  0  0  0
 37 63  1  0  0  0  0
 37 69  1  0  0  0  0
 37 80  2  0  0  0  0
 38 64  1  0  0  0  0
 38 75  1  0  0  0  0
 38 81  2  0  0  0  0
 39 70  1  0  0  0  0
 39 73  1  0  0  0  0
 39 82  2  0  0  0  0
 40 43  1  0  0  0  0
 41 54  1  0  0  0  0
 42 69  1  0  0  0  0
 43 46  1  0  0  0  0
 44 47  1  0  0  0  0
 44 49  1  0  0  0  0
 45 48  1  0  0  0  0
 45 50  1  0  0  0  0
 46 52  1  0  0  0  0
 47 53  1  0  0  0  0
 48 55  1  0  0  0  0
 49 68  1  0  0  0  0
 50 70  1  0  0  0  0
 51 55  1  0  0  0  0
 51 70  1  0  0  0  0
 52 74  1  0  0  0  0
 53 84  1  0  0  0  0
 54 69  1  0  0  0  0
 55 67  1  0  0  0  0
 57 64  1  0  0  0  0
 58 65  1  0  0  0  0
 59 65  1  0  0  0  0
 60 65  1  0  0  0  0
 61 76  1  0  0  0  0
 62 68  1  0  0  0  0
 63 65  1  0  0  0  0
 63 75  1  0  0  0  0
 64 76  1  0  0  0  0
 66 67  1  0  0  0  0
M  CHG  1  76   1
M  ISO  4  39 100  53 101  73 100  84 101
M  END
> <Batch ID>
0043

> <Smiles>
CNC(C)C(=O)NC(C(=O)N1Cc2cc([101O:1][101CH:1]3CCCN(Cc4cc([100NH:0][100C:0](=O)N5CCCC(n6nc(-c7ccc(Oc8ccc(F)cc8F)cc7)c(C(N)=O)c6N)C5)cc(Cl)c4C)C3=O)ccc2CC1C(=O)NC1CCCc2ccccc21)C(C)(C)C

> <Shape>
0.182

> <Color>
0.106

> <Negative vol penalty>
0.000

$$$$

  -OEChem-04042322153D

 92101  0     1  0  0  0  0  0999 V2000
  -29.2016  -35.2228   26.1780 C   0  0  0  0  0  0  0  0  0  0  0  0
  -28.3362  -34.3425   26.8196 C   0  0  0  0  0  0  0  0  0  0  0  0
  -22.4025  -10.6144   20.7929 C   0  0  0  0  0  0  0  0  0  0  0  0
  -23.9156  -10.2116   22.6328 C   0  0  0  0  0  0  0  0  0  0  0  0
  -28.9227  -35.6515   24.8809 C   0  0  0  0  0  0  0  0  0  0  0  0
  -27.1908  -33.8913   26.1648 C   0  0  0  0  0  0  0  0  0  0  0  0
  -26.0743  -26.8601   25.0661 C   0  0  0  0  0  0  0  0  0  0  0  0
  -29.5947  -19.1203   21.1837 C   0  0  0  0  0  0  0  0  0  0  0  0
  -28.8126  -20.1326   21.7397 C   0  0  0  0  0  0  0  0  0  0  0  0
  -21.5801   -9.5817   21.2431 C   0  0  0  0  0  0  0  0  0  0  0  0
  -23.0932   -9.1788   23.0831 C   0  0  0  0  0  0  0  0  0  0  0  0
  -25.6871  -25.5212   25.0046 C   0  0  0  0  0  0  0  0  0  0  0  0
  -22.4875   -5.9493   22.2869 C   0  0  0  0  0  0  0  0  0  0  0  0
  -23.0977   -4.7545   22.6687 C   0  0  0  0  0  0  0  0  0  0  0  0
  -23.6799  -26.1455   23.8089 C   0  0  0  0  0  0  0  0  0  0  0  0
  -22.1905   -5.0024   24.8942 C   0  0  0  0  0  0  0  0  0  0  0  0
  -23.5703  -10.9293   21.4877 C   0  0  0  0  0  0  0  0  0  0  0  0
  -24.0755  -13.3516   20.8671 C   0  0  0  0  0  0  0  0  0  0  0  0
  -27.7783  -35.1978   24.2064 C   0  0  0  0  0  0  0  0  0  0  0  0
  -25.2723  -27.8463   24.4851 C   0  0  0  0  0  0  0  0  0  0  0  0
  -26.8956  -34.3154   24.8580 C   0  0  0  0  0  0  0  0  0  0  0  0
  -24.0688  -27.4869   23.8565 C   0  0  0  0  0  0  0  0  0  0  0  0
  -30.0866  -18.0953   21.9920 C   0  0  0  0  0  0  0  0  0  0  0  0
  -28.5225  -20.1200   23.1040 C   0  0  0  0  0  0  0  0  0  0  0  0
  -29.7964  -18.0828   23.3563 C   0  0  0  0  0  0  0  0  0  0  0  0
  -29.0144  -19.0951   23.9123 C   0  0  0  0  0  0  0  0  0  0  0  0
  -21.9254   -8.8639   22.3882 C   0  0  0  0  0  0  0  0  0  0  0  0
  -24.4928  -25.1649   24.3778 C   0  0  0  0  0  0  0  0  0  0  0  0
  -21.7288   -6.6706   23.2087 C   0  0  0  0  0  0  0  0  0  0  0  0
  -22.9492   -4.2810   23.9723 C   0  0  0  0  0  0  0  0  0  0  0  0
  -21.5803   -6.1972   24.5124 C   0  0  0  0  0  0  0  0  0  0  0  0
  -24.4205  -11.9957   21.0229 C   0  0  0  0  0  0  0  0  0  0  0  0
  -25.2228  -13.9467   20.4024 C   0  0  0  0  0  0  0  0  0  0  0  0
  -25.5181  -21.8775   24.5662 C   0  0  0  0  0  0  0  0  0  0  0  0
  -25.8880  -19.6228   30.2226 C   0  0  0  0  0  0  0  0  0  0  0  0
  -25.3052  -21.8277   25.8916 C   0  0  0  0  0  0  0  0  0  0  0  0
  -26.0998  -19.6727   28.9026 C   0  0  0  0  0  0  0  0  0  0  0  0
  -25.8115  -20.7718   26.7329 C   0  0  0  0  0  0  0  0  0  0  0  0
  -25.5945  -20.7293   28.0562 C   0  0  0  0  0  0  0  0  0  0  0  0
  -22.8293  -14.0139   21.1199 C   0  0  0  0  0  0  0  0  0  0  0  0
  -24.7939  -31.4912   23.7356 C   0  0  0  0  0  0  0  0  0  0  0  0
  -23.9058  -29.9443   21.2398 C   0  0  0  0  0  0  0  0  0  0  0  0
  -23.1742  -28.9221   18.0685 C   0  0  0  0  0  0  0  0  0  0  0  0
  -30.7530  -14.6706   20.5992 C   0  0  0  0  0  0  0  0  0  0  0  0
  -27.4940  -35.7260   22.8226 C   0  0  0  0  0  0  0  0  0  0  0  0
  -25.6195  -29.3072   24.5811 C   0  0  0  0  0  0  0  0  0  0  0  0
  -23.2208  -28.5853   23.2756 C   0  0  0  0  0  0  0  0  0  0  0  0
  -26.4551  -34.9080   22.0599 C   0  0  0  0  0  0  0  0  0  0  0  0
  -29.5327  -11.9122   18.7074 C   0  0  0  0  0  0  0  0  0  0  0  0
  -25.1071  -21.2486   21.7995 C   0  0  0  0  0  0  0  0  0  0  0  0
  -25.2501  -34.6143   22.9478 C   0  0  0  0  0  0  0  0  0  0  0  0
  -24.2766  -22.3463   22.4549 C   0  0  0  0  0  0  0  0  0  0  0  0
  -28.0679  -11.7963   19.1329 C   0  0  0  0  0  0  0  0  0  0  0  0
  -30.4282  -12.3244   19.8736 C   0  0  0  0  0  0  0  0  0  0  0  0
  -28.5391  -13.4329   21.0032 C   0  0  0  0  0  0  0  0  0  0  0  0
  -25.5317  -20.1909   22.8130 C   0  0  0  0  0  0  0  0  0  0  0  0
  -25.6559  -33.7842   24.1717 C   0  0  1  0  0  0  0  0  0  0  0  0
  -25.0074  -22.9637   23.6463 C   0  0  1  0  0  0  0  0  0  1  0  0
  -25.2115  -30.1078   23.3315 C   0  0  1  0  0  0  0  0  0  0  0  0
  -27.5889  -13.0740   19.8480 C   0  0  2  0  0  0  0  0  0  0  0  0
  -30.3241  -16.9817   24.2204 C   0  0  0  0  0  0  0  0  0  0  0  0
  -28.7034  -19.0841   25.3756 C   0  0  0  0  0  0  0  0  0  0  0  0
  -21.8819  -29.6034   16.0282 C   0  0  0  0  0  0  0  0  0  0  0  0
  -21.3113  -29.1080   22.6084 C   0  0  0  0  0  0  0  0  0  0  0  0
  -20.2688  -28.8919   20.3425 C   0  0  0  0  0  0  0  0  0  0  0  0
  -21.1088  -31.1081   21.1207 C   0  0  0  0  0  0  0  0  0  0  0  0
  -25.6240  -29.0324   16.4116 C   0  0  0  0  0  0  0  0  0  0  0  0
  -30.9213  -17.0232   21.3712 C   0  0  0  0  0  0  0  0  0  0  0  0
  -27.6807  -21.2219   23.6770 C   0  0  0  0  0  0  0  0  0  0  0  0
  -22.7663  -29.3079   20.4850 C   0  0  1  0  0  0  0  0  0  0  0  0
  -23.2261  -29.6508   16.7379 C   0  0  2  0  0  0  0  0  0  0  0  0
  -21.3873  -29.5894   21.1457 C   0  0  0  0  0  0  0  0  0  0  0  0
  -25.6879  -11.7439   20.6844 N   0  0  0  0  0  0  0  0  0  0  0  0
  -26.1492  -12.9498   20.3113 N   0  0  0  0  0  0  0  0  0  0  0  0
  -24.0719  -29.5604   22.5761 N   0  0  0  0  0  0  0  0  0  0  0  0
  -29.9199  -13.5434   20.5073 N   0  0  0  0  0  0  0  0  0  0  0  0
  -25.5196  -15.2201   20.0668 N   0  0  0  0  0  0  0  0  0  0  0  0
  -22.6022  -14.5458   22.3966 N   0  0  0  0  0  0  0  0  0  0  0  0
  -25.8360  -32.3961   23.8037 N   0  0  0  0  0  0  0  0  0  0  0  0
  -22.8761  -29.7775   19.1081 N   0  0  0  0  0  0  0  0  0  0  0  0
  -30.1910  -15.7859   21.2084 N   0  0  0  0  0  0  0  0  0  0  0  0
  -26.2739  -20.7890   23.9859 N   0  3  1  0  0  0  0  0  0  0  0  0
  -24.2494  -29.0325   15.8482 N   0  3  0  0  0  0  0  0  0  0  0  0
  -21.9366  -14.1163   20.2445 O   0  0  0  0  0  0  0  0  0  0  0  0
  -23.6130  -31.7224   23.9672 O   0  0  0  0  0  0  0  0  0  0  0  0
  -24.6273  -30.7639   20.6645 O   0  0  0  0  0  0  0  0  0  0  0  0
  -23.3743  -27.7141   18.1746 O   0  0  0  0  0  0  0  0  0  0  0  0
  -31.9100  -14.6838   20.1655 O   0  0  0  0  0  0  0  0  0  0  0  0
  -21.1230   -7.8562   22.8279 O   0  0  0  0  0  0  0  0  0  0  0  0
  -24.1230  -23.8556   24.3173 O   0  0  0  0  0  0  0  0  0  1  0  0
  -23.5339   -3.1329   24.3384 F   0  0  0  0  0  0  0  0  0  0  0  0
  -20.8517   -6.8852   25.4021 F   0  0  0  0  0  0  0  0  0  0  0  0
  1  2  1  0  0  0  0
  1  5  2  0  0  0  0
  2  6  2  0  0  0  0
  3 10  2  0  0  0  0
  3 17  1  0  0  0  0
  4 11  1  0  0  0  0
  4 17  2  0  0  0  0
  5 19  1  0  0  0  0
  6 21  1  0  0  0  0
  7 12  2  0  0  0  0
  7 20  1  0  0  0  0
  8  9  2  0  0  0  0
  8 23  1  0  0  0  0
  9 24  1  0  0  0  0
 10 27  1  0  0  0  0
 11 27  2  0  0  0  0
 12 28  1  0  0  0  0
 13 14  2  0  0  0  0
 13 29  1  0  0  0  0
 14 30  1  0  0  0  0
 15 22  1  0  0  0  0
 15 28  2  0  0  0  0
 16 30  2  0  0  0  0
 16 31  1  0  0  0  0
 17 32  1  0  0  0  0
 18 32  1  0  0  0  0
 18 33  2  0  0  0  0
 18 40  1  0  0  0  0
 19 21  2  0  0  0  0
 19 45  1  0  0  0  0
 20 22  2  0  0  0  0
 20 46  1  0  0  0  0
 21 57  1  0  0  0  0
 22 47  1  0  0  0  0
 23 25  2  0  0  0  0
 23 68  1  0  0  0  0
 24 26  2  0  0  0  0
 24 69  1  0  0  0  0
 25 26  1  0  0  0  0
 25 61  1  0  0  0  0
 26 62  1  0  0  0  0
 27 89  1  0  0  0  0
 28 90  1  0  0  0  0
 29 31  2  0  0  0  0
 29 89  1  0  0  0  0
 30 91  1  0  0  0  0
 31 92  1  0  0  0  0
 32 73  2  0  0  0  0
 33 74  1  0  0  0  0
 33 77  1  0  0  0  0
 34 36  2  0  0  0  0
 34 58  1  0  0  0  0
 34 82  1  0  0  0  0
 35 37  2  0  0  0  0
 36 38  1  0  0  0  0
 37 39  1  0  0  0  0
 38 39  2  0  0  0  0
 40 78  1  0  0  0  0
 40 84  2  0  0  0  0
 41 59  1  0  0  0  0
 41 79  1  0  0  0  0
 41 85  2  0  0  0  0
 42 70  1  0  0  0  0
 42 75  1  0  0  0  0
 42 86  2  0  0  0  0
 43 71  1  0  0  0  0
 43 80  1  0  0  0  0
 43 87  2  0  0  0  0
 44 76  1  0  0  0  0
 44 81  1  0  0  0  0
 44 88  2  0  0  0  0
 45 48  1  0  0  0  0
 46 59  1  0  0  0  0
 47 75  1  0  0  0  0
 48 51  1  0  0  0  0
 49 53  1  0  0  0  0
 49 54  1  0  0  0  0
 50 52  1  0  0  0  0
 50 56  1  0  0  0  0
 51 57  1  0  0  0  0
 52 58  1  0  0  0  0
 53 60  1  0  0  0  0
 54 76  1  0  0  0  0
 55 60  1  0  0  0  0
 55 76  1  0  0  0  0
 56 82  1  0  0  0  0
 57 79  1  0  0  0  0
 58 90  1  0  0  0  0
 59 75  1  0  0  0  0
 60 74  1  0  0  0  0
 63 71  1  0  0  0  0
 64 72  1  0  0  0  0
 65 72  1  0  0  0  0
 66 72  1  0  0  0  0
 67 83  1  0  0  0  0
 68 81  1  0  0  0  0
 69 82  1  0  0  0  0
 70 72  1  0  0  0  0
 70 80  1  0  0  0  0
 71 83  1  0  0  0  0
 73 74  1  0  0  0  0
M  CHG  2  82   1  83   1
M  ISO  4  44 100  58 101  81 100  90 101
M  END
> <Batch ID>
0043

> <Smiles>
C=CC=CC=C1N(Cc2ccc(C[100NH:0][100C:0](=O)N3CCCC(n4nc(-c5ccc(Oc6ccc(F)cc6F)cc5)c(C(N)=O)c4N)C3)c(C)c2C)CCC[101CH:1]1[101O:1]c1ccc2c(c1)CN(C(=O)C(NC(=O)C(C)NC)C(C)(C)C)C(C(=O)NC1CCCc3ccccc31)C2

> <Shape>
0.292

> <Color>
0.159

> <Negative vol penalty>
0.000

$$$$

  -OEChem-04042322153D

 87 96  0     1  0  0  0  0  0999 V2000
  -21.8832   -8.2251   24.7425 C   0  0  0  0  0  0  0  0  0  0  0  0
  -23.1741   -8.6897   24.9730 C   0  0  0  0  0  0  0  0  0  0  0  0
  -26.1998  -30.5785   21.7919 C   0  0  0  0  0  0  0  0  0  0  0  0
  -23.8723  -30.2665   21.2242 C   0  0  0  0  0  0  0  0  0  0  0  0
  -21.3348   -8.2998   23.4628 C   0  0  0  0  0  0  0  0  0  0  0  0
  -23.9178   -9.2283   23.9236 C   0  0  0  0  0  0  0  0  0  0  0  0
  -28.8819  -14.2160   22.5832 C   0  0  0  0  0  0  0  0  0  0  0  0
  -25.8874  -31.7912   22.4062 C   0  0  0  0  0  0  0  0  0  0  0  0
  -23.5599  -31.4792   21.8385 C   0  0  0  0  0  0  0  0  0  0  0  0
  -30.1270  -14.3596   21.9726 C   0  0  0  0  0  0  0  0  0  0  0  0
  -25.2299  -34.9676   21.4561 C   0  0  0  0  0  0  0  0  0  0  0  0
  -26.0548  -36.0601   21.1887 C   0  0  0  0  0  0  0  0  0  0  0  0
  -29.0476  -14.5106   19.8206 C   0  0  0  0  0  0  0  0  0  0  0  0
  -30.0066  -21.6881   20.0839 C   0  0  0  0  0  0  0  0  0  0  0  0
  -28.8001  -20.0564   21.3950 C   0  0  0  0  0  0  0  0  0  0  0  0
  -26.5821  -36.2375   23.5398 C   0  0  0  0  0  0  0  0  0  0  0  0
  -25.1923  -29.8162   21.2008 C   0  0  0  0  0  0  0  0  0  0  0  0
  -26.3881  -28.3608   19.4806 C   0  0  0  0  0  0  0  0  0  0  0  0
  -22.0686   -8.8485   22.3992 C   0  0  0  0  0  0  0  0  0  0  0  0
  -27.7090  -14.2077   21.8146 C   0  0  0  0  0  0  0  0  0  0  0  0
  -23.3792   -9.3092   22.6282 C   0  0  0  0  0  0  0  0  0  0  0  0
  -27.7886  -14.3693   20.4241 C   0  0  0  0  0  0  0  0  0  0  0  0
  -31.1639  -20.9166   20.1886 C   0  0  0  0  0  0  0  0  0  0  0  0
  -29.9574  -19.2848   21.4996 C   0  0  0  0  0  0  0  0  0  0  0  0
  -31.1393  -19.7149   20.8964 C   0  0  0  0  0  0  0  0  0  0  0  0
  -28.8247  -21.2581   20.6872 C   0  0  0  0  0  0  0  0  0  0  0  0
  -24.5675  -32.2416   22.4296 C   0  0  0  0  0  0  0  0  0  0  0  0
  -30.2102  -14.5041   20.5908 C   0  0  0  0  0  0  0  0  0  0  0  0
  -25.0810  -34.5100   22.7654 C   0  0  0  0  0  0  0  0  0  0  0  0
  -26.7309  -36.6950   22.2305 C   0  0  0  0  0  0  0  0  0  0  0  0
  -25.7571  -35.1450   23.8072 C   0  0  0  0  0  0  0  0  0  0  0  0
  -25.5144  -28.5637   20.5656 C   0  0  0  0  0  0  0  0  0  0  0  0
  -26.3490  -27.0061   19.2570 C   0  0  0  0  0  0  0  0  0  0  0  0
  -34.1147  -17.7893   19.7119 C   0  0  0  0  0  0  0  0  0  0  0  0
  -34.9308  -18.5119   18.9299 C   0  0  0  0  0  0  0  0  0  0  0  0
  -27.1655  -29.3117   18.7409 C   0  0  0  0  0  0  0  0  0  0  0  0
  -25.3939  -12.0968   21.2779 C   0  0  0  0  0  0  0  0  0  0  0  0
  -24.0442  -14.5703   19.6709 C   0  0  0  0  0  0  0  0  0  0  0  0
  -25.1499  -17.1659   17.4220 C   0  0  0  0  0  0  0  0  0  0  0  0
  -26.3938  -21.7588   21.1189 C   0  0  0  0  0  0  0  0  0  0  0  0
  -21.4509   -8.8648   21.0234 C   0  0  0  0  0  0  0  0  0  0  0  0
  -26.3718  -14.0786   22.4912 C   0  0  0  0  0  0  0  0  0  0  0  0
  -26.5579  -14.3873   19.5561 C   0  0  0  0  0  0  0  0  0  0  0  0
  -34.5849  -16.6115   20.5214 C   0  0  0  0  0  0  0  0  0  0  0  0
  -22.1668   -9.7928   20.0454 C   0  0  0  0  0  0  0  0  0  0  0  0
  -33.6955  -15.4013   20.2629 C   0  0  0  0  0  0  0  0  0  0  0  0
  -23.2603  -23.4495   21.1097 C   0  0  0  0  0  0  0  0  0  0  0  0
  -23.6763   -9.5876   20.1222 C   0  0  0  0  0  0  0  0  0  0  0  0
  -23.6393  -24.9141   20.8780 C   0  0  0  0  0  0  0  0  0  0  0  0
  -24.2807  -22.7324   21.9919 C   0  0  0  0  0  0  0  0  0  0  0  0
  -26.0530  -24.3012   21.3084 C   0  0  0  0  0  0  0  0  0  0  0  0
  -31.8556  -16.9386   19.4779 C   0  0  0  0  0  0  0  0  0  0  0  0
  -24.2082   -9.9229   21.5208 C   0  0  1  0  0  0  0  0  0  0  0  0
  -25.2773  -13.5682   21.5590 C   0  0  1  0  0  0  0  0  0  0  0  0
  -25.0890  -25.0478   20.3721 C   0  0  2  0  0  0  0  0  0  0  0  0
  -32.2151  -15.7630   20.3829 C   0  0  1  0  0  0  0  0  0  1  0  0
  -32.4166  -21.3997   19.5341 C   0  0  0  0  0  0  0  0  0  0  0  0
  -29.9043  -18.0020   22.2631 C   0  0  0  0  0  0  0  0  0  0  0  0
  -24.2055  -19.4472   16.9732 C   0  0  0  0  0  0  0  0  0  0  0  0
  -22.5603  -13.1897   17.3901 C   0  0  0  0  0  0  0  0  0  0  0  0
  -22.9480  -15.2319   15.9946 C   0  0  0  0  0  0  0  0  0  0  0  0
  -21.5934  -15.3895   18.0833 C   0  0  0  0  0  0  0  0  0  0  0  0
  -27.7307  -18.4810   18.0293 C   0  0  0  0  0  0  0  0  0  0  0  0
  -32.3840  -18.8848   21.0084 C   0  0  0  0  0  0  0  0  0  0  0  0
  -24.0968  -15.0780   18.2502 C   0  0  1  0  0  0  0  0  0  0  0  0
  -25.2569  -18.6489   17.7283 C   0  0  2  0  0  0  0  0  0  0  0  0
  -22.8215  -14.7083   17.4412 C   0  0  0  0  0  0  0  0  0  0  0  0
  -24.9607  -27.4288   21.0010 N   0  0  0  0  0  0  0  0  0  0  0  0
  -25.4876  -26.4998   20.1853 N   0  0  0  0  0  0  0  0  0  0  0  0
  -25.2741  -14.2514   20.2638 N   0  0  0  0  0  0  0  0  0  0  0  0
  -25.6305  -22.8988   21.4485 N   0  0  0  0  0  0  0  0  0  0  0  0
  -26.9678  -26.2107   18.3588 N   0  0  0  0  0  0  0  0  0  0  0  0
  -26.5903  -29.9113   17.6122 N   0  0  0  0  0  0  0  0  0  0  0  0
  -27.6486  -22.0412   20.5802 N   0  0  0  0  0  0  0  0  0  0  0  0
  -24.3042  -11.3564   21.6948 N   0  0  0  0  0  0  0  0  0  0  0  0
  -24.3540  -16.5113   18.3381 N   0  0  0  0  0  0  0  0  0  0  0  0
  -32.7178  -18.1492   19.7401 N   0  3  1  0  0  0  0  0  0  0  0  0
  -26.6023  -19.1615   17.3434 N   0  3  0  0  0  0  0  0  0  0  0  0
  -28.3413  -29.6083   19.0617 O   0  0  0  0  0  0  0  0  0  0  0  0
  -26.3975  -11.6654   20.7226 O   0  0  0  0  0  0  0  0  0  0  0  0
  -22.9527  -14.4675   20.2364 O   0  0  0  0  0  0  0  0  0  0  0  0
  -25.7128  -16.6414   16.4636 O   0  0  0  0  0  0  0  0  0  0  0  0
  -25.9551  -20.6165   21.2757 O   0  0  0  0  0  0  0  0  0  0  0  0
  -24.2623  -33.4248   23.0291 O   0  0  0  0  0  0  0  0  0  0  0  0
  -31.4243  -14.6438   19.9923 O   0  0  0  0  0  0  0  0  0  1  0  0
  -27.5243  -37.7432   21.9733 F   0  0  0  0  0  0  0  0  0  0  0  0
  -25.6189  -34.7092   25.0669 F   0  0  0  0  0  0  0  0  0  0  0  0
  1  2  1  0  0  0  0
  1  5  2  0  0  0  0
  2  6  2  0  0  0  0
  3  8  2  0  0  0  0
  3 17  1  0  0  0  0
  4  9  1  0  0  0  0
  4 17  2  0  0  0  0
  5 19  1  0  0  0  0
  6 21  1  0  0  0  0
  7 10  2  0  0  0  0
  7 20  1  0  0  0  0
  8 27  1  0  0  0  0
  9 27  2  0  0  0  0
 10 28  1  0  0  0  0
 11 12  2  0  0  0  0
 11 29  1  0  0  0  0
 12 30  1  0  0  0  0
 13 22  1  0  0  0  0
 13 28  2  0  0  0  0
 14 23  2  0  0  0  0
 14 26  1  0  0  0  0
 15 24  1  0  0  0  0
 15 26  2  0  0  0  0
 16 30  2  0  0  0  0
 16 31  1  0  0  0  0
 17 32  1  0  0  0  0
 18 32  1  0  0  0  0
 18 33  2  0  0  0  0
 18 36  1  0  0  0  0
 19 21  2  0  0  0  0
 19 41  1  0  0  0  0
 20 22  2  0  0  0  0
 20 42  1  0  0  0  0
 21 53  1  0  0  0  0
 22 43  1  0  0  0  0
 23 25  1  0  0  0  0
 23 57  1  0  0  0  0
 24 25  2  0  0  0  0
 24 58  1  0  0  0  0
 25 64  1  0  0  0  0
 26 74  1  0  0  0  0
 27 84  1  0  0  0  0
 28 85  1  0  0  0  0
 29 31  2  0  0  0  0
 29 84  1  0  0  0  0
 30 86  1  0  0  0  0
 31 87  1  0  0  0  0
 32 68  2  0  0  0  0
 33 69  1  0  0  0  0
 33 72  1  0  0  0  0
 34 35  2  0  0  0  0
 34 44  1  0  0  0  0
 34 77  1  0  0  0  0
 36 73  1  0  0  0  0
 36 79  2  0  0  0  0
 37 54  1  0  0  0  0
 37 75  1  0  0  0  0
 37 80  2  0  0  0  0
 38 65  1  0  0  0  0
 38 70  1  0  0  0  0
 38 81  2  0  0  0  0
 39 66  1  0  0  0  0
 39 76  1  0  0  0  0
 39 82  2  0  0  0  0
 40 71  1  0  0  0  0
 40 74  1  0  0  0  0
 40 83  2  0  0  0  0
 41 45  1  0  0  0  0
 42 54  1  0  0  0  0
 43 70  1  0  0  0  0
 44 46  1  0  0  0  0
 45 48  1  0  0  0  0
 46 56  1  0  0  0  0
 47 49  1  0  0  0  0
 47 50  1  0  0  0  0
 48 53  1  0  0  0  0
 49 55  1  0  0  0  0
 50 71  1  0  0  0  0
 51 55  1  0  0  0  0
 51 71  1  0  0  0  0
 52 56  1  0  0  0  0
 52 77  1  0  0  0  0
 53 75  1  0  0  0  0
 54 70  1  0  0  0  0
 55 69  1  0  0  0  0
 56 85  1  0  0  0  0
 59 66  1  0  0  0  0
 60 67  1  0  0  0  0
 61 67  1  0  0  0  0
 62 67  1  0  0  0  0
 63 78  1  0  0  0  0
 64 77  1  0  0  0  0
 65 67  1  0  0  0  0
 65 76  1  0  0  0  0
 66 78  1  0  0  0  0
 68 69  1  0  0  0  0
M  CHG  2  77   1  78   1
M  ISO  4  40 100  56 101  74 100  85 101
M  END
> <Batch ID>
0043

> <Smiles>
C=C1CC[101CH:1]([101O:1]c2ccc3c(c2)CN(C(=O)C(NC(=O)C(C)NC)C(C)(C)C)C(C(=O)NC2CCCc4ccccc42)C3)CN1Cc1c(C)cc([100NH:0][100C:0](=O)N2CCCC(n3nc(-c4ccc(Oc5ccc(F)cc5F)cc4)c(C(N)=O)c3N)C2)cc1C

> <Shape>
0.236

> <Color>
0.076

> <Negative vol penalty>
0.000

$$$$

  -OEChem-04042322153D

 89 98  0     1  0  0  0  0  0999 V2000
  -17.7995  -24.3003   21.4293 C   0  0  0  0  0  0  0  0  0  0  0  0
  -18.7014  -24.4128   20.3760 C   0  0  0  0  0  0  0  0  0  0  0  0
  -29.5491  -14.8344   20.8299 C   0  0  0  0  0  0  0  0  0  0  0  0
  -28.1887  -14.6252   18.8443 C   0  0  0  0  0  0  0  0  0  0  0  0
  -17.7717  -25.2723   22.4285 C   0  0  0  0  0  0  0  0  0  0  0  0
  -19.5754  -25.4979   20.3209 C   0  0  0  0  0  0  0  0  0  0  0  0
  -26.7100  -24.5108   20.2005 C   0  0  0  0  0  0  0  0  0  0  0  0
  -29.7649  -13.4564   20.8273 C   0  0  0  0  0  0  0  0  0  0  0  0
  -28.4045  -13.2471   18.8417 C   0  0  0  0  0  0  0  0  0  0  0  0
  -28.0798  -24.3979   19.9619 C   0  0  0  0  0  0  0  0  0  0  0  0
  -27.2221  -10.5371   20.4815 C   0  0  0  0  0  0  0  0  0  0  0  0
  -26.1213   -9.7092   20.2618 C   0  0  0  0  0  0  0  0  0  0  0  0
  -28.2967  -26.8060   20.0056 C   0  0  0  0  0  0  0  0  0  0  0  0
  -26.1141  -26.3349   15.6888 C   0  0  0  0  0  0  0  0  0  0  0  0
  -24.7346  -24.7980   16.9425 C   0  0  0  0  0  0  0  0  0  0  0  0
  -26.9686  -24.1550   16.2844 C   0  0  0  0  0  0  0  0  0  0  0  0
  -27.1977   -8.7988   18.2997 C   0  0  0  0  0  0  0  0  0  0  0  0
  -28.7610  -15.4188   19.8384 C   0  0  0  0  0  0  0  0  0  0  0  0
  -29.5100  -17.8558   19.7500 C   0  0  0  0  0  0  0  0  0  0  0  0
  -18.6523  -26.3648   22.3906 C   0  0  0  0  0  0  0  0  0  0  0  0
  -26.1302  -25.7727   20.3581 C   0  0  0  0  0  0  0  0  0  0  0  0
  -19.5584  -26.4861   21.3198 C   0  0  0  0  0  0  0  0  0  0  0  0
  -26.9273  -26.9248   20.2572 C   0  0  0  0  0  0  0  0  0  0  0  0
  -24.9096  -26.0369   16.3260 C   0  0  0  0  0  0  0  0  0  0  0  0
  -27.1436  -25.3939   15.6680 C   0  0  0  0  0  0  0  0  0  0  0  0
  -25.7641  -23.8569   16.9217 C   0  0  0  0  0  0  0  0  0  0  0  0
  -29.1926  -12.6627   19.8332 C   0  0  0  0  0  0  0  0  0  0  0  0
  -28.8711  -25.5427   19.8644 C   0  0  0  0  0  0  0  0  0  0  0  0
  -28.3107  -10.4960   19.6103 C   0  0  0  0  0  0  0  0  0  0  0  0
  -26.1090   -8.8400   19.1709 C   0  0  0  0  0  0  0  0  0  0  0  0
  -28.2985   -9.6268   18.5194 C   0  0  0  0  0  0  0  0  0  0  0  0
  -28.5372  -16.8422   19.8409 C   0  0  0  0  0  0  0  0  0  0  0  0
  -28.7920  -19.0258   19.7956 C   0  0  0  0  0  0  0  0  0  0  0  0
  -30.9351  -17.7493   19.6346 C   0  0  0  0  0  0  0  0  0  0  0  0
  -30.6640  -25.2837   16.0071 C   0  0  0  0  0  0  0  0  0  0  0  0
  -23.0141  -27.7574   21.0113 C   0  0  0  0  0  0  0  0  0  0  0  0
  -25.2748  -29.1034   22.5886 C   0  0  0  0  0  0  0  0  0  0  0  0
  -27.1597  -30.8117   24.8615 C   0  0  0  0  0  0  0  0  0  0  0  0
  -24.4546  -22.1434   18.2237 C   0  0  0  0  0  0  0  0  0  0  0  0
  -18.5528  -27.4151   23.4684 C   0  0  0  0  0  0  0  0  0  0  0  0
  -24.6485  -25.9443   20.5552 C   0  0  0  0  0  0  0  0  0  0  0  0
  -26.2545  -28.2628   20.3990 C   0  0  0  0  0  0  0  0  0  0  0  0
  -19.7677  -28.3371   23.5345 C   0  0  0  0  0  0  0  0  0  0  0  0
  -33.9736  -26.6568   17.3423 C   0  0  0  0  0  0  0  0  0  0  0  0
  -34.2704  -25.5493   18.3457 C   0  0  0  0  0  0  0  0  0  0  0  0
  -23.9249  -19.8626   20.9060 C   0  0  0  0  0  0  0  0  0  0  0  0
  -20.1516  -28.8153   22.1378 C   0  0  0  0  0  0  0  0  0  0  0  0
  -32.8951  -26.2328   16.3521 C   0  0  0  0  0  0  0  0  0  0  0  0
  -33.0055  -25.1038   19.0725 C   0  0  0  0  0  0  0  0  0  0  0  0
  -25.1576  -18.9569   20.8605 C   0  0  0  0  0  0  0  0  0  0  0  0
  -23.4615  -20.2605   19.5057 C   0  0  0  0  0  0  0  0  0  0  0  0
  -25.7334  -19.9448   18.6067 C   0  0  0  0  0  0  0  0  0  0  0  0
  -20.5393  -27.6356   21.2380 C   0  0  1  0  0  0  0  0  0  0  0  0
  -31.6161  -25.7716   17.0594 C   0  0  2  0  0  0  0  0  0  0  0  0
  -24.2949  -27.1275   21.4740 C   0  0  1  0  0  0  0  0  0  0  0  0
  -31.9010  -24.6675   18.0962 C   0  0  2  0  0  0  0  0  0  0  0  0
  -26.2761  -19.5704   19.9956 C   0  0  2  0  0  0  0  0  0  0  0  0
  -23.8089  -27.0430   16.3481 C   0  0  0  0  0  0  0  0  0  0  0  0
  -27.3325  -33.0423   25.9980 C   0  0  0  0  0  0  0  0  0  0  0  0
  -26.4184  -30.3130   20.0326 C   0  0  0  0  0  0  0  0  0  0  0  0
  -27.4191  -32.1356   21.4273 C   0  0  0  0  0  0  0  0  0  0  0  0
  -24.9426  -31.8481   21.3442 C   0  0  0  0  0  0  0  0  0  0  0  0
  -26.8010  -29.6048   27.5398 C   0  0  0  0  0  0  0  0  0  0  0  0
  -28.4400  -25.7149   14.9821 C   0  0  0  0  0  0  0  0  0  0  0  0
  -30.6407  -24.2925   18.8831 C   0  0  0  0  0  0  0  0  0  1  0  0
  -26.3439  -30.1664   22.6092 C   0  0  1  0  0  0  0  0  0  0  0  0
  -26.7722  -31.6308   26.0793 C   0  0  2  0  0  0  0  0  0  0  0  0
  -26.2871  -31.0885   21.3587 C   0  0  0  0  0  0  0  0  0  0  0  0
  -27.2960  -17.3259   19.9371 N   0  0  0  0  0  0  0  0  0  0  0  0
  -27.4838  -18.6563   19.9070 N   0  0  0  0  0  0  0  0  0  0  0  0
  -25.2809  -28.2212   21.5013 N   0  0  0  0  0  0  0  0  0  0  0  0
  -24.5725  -20.8380   18.7461 N   0  0  0  0  0  0  0  0  0  0  0  0
  -29.1583  -20.3244   19.7509 N   0  0  0  0  0  0  0  0  0  0  0  0
  -31.4988  -17.6859   18.3530 N   0  0  0  0  0  0  0  0  0  0  0  0
  -25.5864  -22.5984   17.5480 N   0  0  0  0  0  0  0  0  0  0  0  0
  -21.8782  -27.1821   21.5481 N   0  0  0  0  0  0  0  0  0  0  0  0
  -29.4926  -26.0123   15.9270 N   0  0  0  0  0  0  0  0  0  0  0  0
  -26.1948  -30.8706   23.8782 N   0  0  0  0  0  0  0  0  0  0  0  0
  -27.2907  -30.9901   27.3209 N   0  3  0  0  0  0  0  0  0  0  0  0
  -31.6852  -17.6948   20.6386 O   0  0  0  0  0  0  0  0  0  0  0  0
  -30.9693  -24.3183   15.3169 O   0  0  0  0  0  0  0  0  0  0  0  0
  -23.0522  -28.6974   20.2260 O   0  0  0  0  0  0  0  0  0  0  0  0
  -24.4519  -29.0577   23.5073 O   0  0  0  0  0  0  0  0  0  0  0  0
  -28.2147  -30.1854   24.7881 O   0  0  0  0  0  0  0  0  0  0  0  0
  -23.4355  -22.8188   18.3886 O   0  0  0  0  0  0  0  0  0  0  0  0
  -29.4032  -11.3180   19.8302 O   0  0  0  0  0  0  0  0  0  0  0  0
  -30.2085  -25.4251   19.6358 O   0  0  0  0  0  0  0  0  0  1  0  0
  -25.0525   -8.0439   18.9609 F   0  0  0  0  0  0  0  0  0  0  0  0
  -29.3419   -9.5819   17.6797 F   0  0  0  0  0  0  0  0  0  0  0  0
  1  2  1  0  0  0  0
  1  5  2  0  0  0  0
  2  6  2  0  0  0  0
  3  8  2  0  0  0  0
  3 18  1  0  0  0  0
  4  9  1  0  0  0  0
  4 18  2  0  0  0  0
  5 20  1  0  0  0  0
  6 22  1  0  0  0  0
  7 10  2  0  0  0  0
  7 21  1  0  0  0  0
  8 27  1  0  0  0  0
  9 27  2  0  0  0  0
 10 28  1  0  0  0  0
 11 12  2  0  0  0  0
 11 29  1  0  0  0  0
 12 30  1  0  0  0  0
 13 23  1  0  0  0  0
 13 28  2  0  0  0  0
 14 24  2  0  0  0  0
 14 25  1  0  0  0  0
 15 24  1  0  0  0  0
 15 26  2  0  0  0  0
 16 25  2  0  0  0  0
 16 26  1  0  0  0  0
 17 30  2  0  0  0  0
 17 31  1  0  0  0  0
 18 32  1  0  0  0  0
 19 32  1  0  0  0  0
 19 33  2  0  0  0  0
 19 34  1  0  0  0  0
 20 22  2  0  0  0  0
 20 40  1  0  0  0  0
 21 23  2  0  0  0  0
 21 41  1  0  0  0  0
 22 53  1  0  0  0  0
 23 42  1  0  0  0  0
 24 58  1  0  0  0  0
 25 64  1  0  0  0  0
 26 75  1  0  0  0  0
 27 86  1  0  0  0  0
 28 87  1  0  0  0  0
 29 31  2  0  0  0  0
 29 86  1  0  0  0  0
 30 88  1  0  0  0  0
 31 89  1  0  0  0  0
 32 69  2  0  0  0  0
 33 70  1  0  0  0  0
 33 73  1  0  0  0  0
 34 74  1  0  0  0  0
 34 80  2  0  0  0  0
 35 54  1  0  0  0  0
 35 77  1  0  0  0  0
 35 81  2  0  0  0  0
 36 55  1  0  0  0  0
 36 76  1  0  0  0  0
 36 82  2  0  0  0  0
 37 66  1  0  0  0  0
 37 71  1  0  0  0  0
 37 83  2  0  0  0  0
 38 67  1  0  0  0  0
 38 78  1  0  0  0  0
 38 84  2  0  0  0  0
 39 72  1  0  0  0  0
 39 75  1  0  0  0  0
 39 85  2  0  0  0  0
 40 43  1  0  0  0  0
 41 55  1  0  0  0  0
 42 71  1  0  0  0  0
 43 47  1  0  0  0  0
 44 45  1  0  0  0  0
 44 48  1  0  0  0  0
 45 49  1  0  0  0  0
 46 50  1  0  0  0  0
 46 51  1  0  0  0  0
 47 53  1  0  0  0  0
 48 54  1  0  0  0  0
 49 56  1  0  0  0  0
 50 57  1  0  0  0  0
 51 72  1  0  0  0  0
 52 57  1  0  0  0  0
 52 72  1  0  0  0  0
 53 76  1  0  0  0  0
 54 56  1  0  0  0  0
 55 71  1  0  0  0  0
 56 65  1  0  0  0  0
 57 70  1  0  0  0  0
 59 67  1  0  0  0  0
 60 68  1  0  0  0  0
 61 68  1  0  0  0  0
 62 68  1  0  0  0  0
 63 79  1  0  0  0  0
 64 77  1  0  0  0  0
 65 87  1  0  0  0  0
 66 68  1  0  0  0  0
 66 78  1  0  0  0  0
 67 79  1  0  0  0  0
 69 70  1  0  0  0  0
M  CHG  1  79   1
M  ISO  4  39 100  65 101  75 100  87 101
M  END
> <Batch ID>
0043

> <Smiles>
CNC(C)C(=O)NC(C(=O)N1Cc2cc([101O:1][101CH2:1]C3CCCCC3C(=O)NCc3cc(C)cc([100NH:0][100C:0](=O)N4CCCC(n5nc(-c6ccc(Oc7ccc(F)cc7F)cc6)c(C(N)=O)c5N)C4)c3)ccc2CC1C(=O)NC1CCCc2ccccc21)C(C)(C)C

> <Shape>
0.248

> <Color>
0.061

> <Negative vol penalty>
0.000

$$$$

  -OEChem-04042322153D

 88 97  0     1  0  0  0  0  0999 V2000
  -34.2071  -33.3428   24.1916 C   0  0  0  0  0  0  0  0  0  0  0  0
  -32.9366  -32.8448   24.4625 C   0  0  0  0  0  0  0  0  0  0  0  0
  -22.6677  -10.1954   20.1655 C   0  0  0  0  0  0  0  0  0  0  0  0
  -24.3247   -9.4116   21.7394 C   0  0  0  0  0  0  0  0  0  0  0  0
  -35.0076  -32.7233   23.2328 C   0  0  0  0  0  0  0  0  0  0  0  0
  -32.4655  -31.7276   23.7738 C   0  0  0  0  0  0  0  0  0  0  0  0
  -30.4750  -25.7674   27.2959 C   0  0  0  0  0  0  0  0  0  0  0  0
  -21.9343   -9.0240   20.3543 C   0  0  0  0  0  0  0  0  0  0  0  0
  -23.5913   -8.2402   21.9282 C   0  0  0  0  0  0  0  0  0  0  0  0
  -29.8770  -24.6669   27.9104 C   0  0  0  0  0  0  0  0  0  0  0  0
  -20.8488   -7.2705   23.6484 C   0  0  0  0  0  0  0  0  0  0  0  0
  -20.6677   -6.8251   24.9577 C   0  0  0  0  0  0  0  0  0  0  0  0
  -29.4792  -23.6616   25.7473 C   0  0  0  0  0  0  0  0  0  0  0  0
  -29.4115  -18.7514   22.5212 C   0  0  0  0  0  0  0  0  0  0  0  0
  -21.7908   -4.7574   24.4095 C   0  0  0  0  0  0  0  0  0  0  0  0
  -23.8630  -10.3891   20.8580 C   0  0  0  0  0  0  0  0  0  0  0  0
  -24.1953  -12.9179   20.9076 C   0  0  0  0  0  0  0  0  0  0  0  0
  -34.5498  -31.5921   22.5389 C   0  0  0  0  0  0  0  0  0  0  0  0
  -30.5913  -25.8120   25.9038 C   0  0  0  0  0  0  0  0  0  0  0  0
  -33.2601  -31.0932   22.8038 C   0  0  0  0  0  0  0  0  0  0  0  0
  -30.0884  -24.7555   25.1268 C   0  0  0  0  0  0  0  0  0  0  0  0
  -30.0120  -17.5814   22.9861 C   0  0  0  0  0  0  0  0  0  0  0  0
  -28.6181  -19.5157   23.3768 C   0  0  0  0  0  0  0  0  0  0  0  0
  -29.8191  -17.1757   24.3067 C   0  0  0  0  0  0  0  0  0  0  0  0
  -29.0257  -17.9400   25.1623 C   0  0  0  0  0  0  0  0  0  0  0  0
  -28.4252  -19.1100   24.6974 C   0  0  0  0  0  0  0  0  0  0  0  0
  -22.3960   -8.0465   21.2356 C   0  0  0  0  0  0  0  0  0  0  0  0
  -29.3801  -23.6168   27.1380 C   0  0  0  0  0  0  0  0  0  0  0  0
  -21.5008   -6.4594   22.7196 C   0  0  0  0  0  0  0  0  0  0  0  0
  -21.1387   -5.5685   25.3383 C   0  0  0  0  0  0  0  0  0  0  0  0
  -21.9718   -5.2029   23.1002 C   0  0  0  0  0  0  0  0  0  0  0  0
  -24.6214  -11.5986   20.6630 C   0  0  0  0  0  0  0  0  0  0  0  0
  -25.2745  -13.6960   20.5665 C   0  0  0  0  0  0  0  0  0  0  0  0
  -22.9366  -13.3971   21.3993 C   0  0  0  0  0  0  0  0  0  0  0  0
  -31.7852  -27.7065   22.8936 C   0  0  0  0  0  0  0  0  0  0  0  0
  -32.4222  -24.7475   22.3945 C   0  0  0  0  0  0  0  0  0  0  0  0
  -33.6426  -21.8669   22.7344 C   0  0  0  0  0  0  0  0  0  0  0  0
  -30.7591  -14.7233   20.6655 C   0  0  0  0  0  0  0  0  0  0  0  0
  -35.4328  -30.9849   21.4777 C   0  0  0  0  0  0  0  0  0  0  0  0
  -31.1727  -27.0056   25.1958 C   0  0  0  0  0  0  0  0  0  0  0  0
  -30.2044  -24.8625   23.6308 C   0  0  0  0  0  0  0  0  0  0  0  0
  -35.0048  -29.5805   21.0595 C   0  0  0  0  0  0  0  0  0  0  0  0
  -25.3575  -21.0138   27.4452 C   0  0  0  0  0  0  0  0  0  0  0  0
  -25.2784  -20.6684   25.9631 C   0  0  0  0  0  0  0  0  0  0  0  0
  -29.5567  -12.5090   18.1499 C   0  0  0  0  0  0  0  0  0  0  0  0
  -33.4997  -29.5312   20.8167 C   0  0  0  0  0  0  0  0  0  0  0  0
  -28.1334  -12.1790   18.6029 C   0  0  0  0  0  0  0  0  0  0  0  0
  -26.4781  -21.9769   27.8179 C   0  0  0  0  0  0  0  0  0  0  0  0
  -26.2028  -19.5189   25.5619 C   0  0  0  0  0  0  0  0  0  0  0  0
  -30.5085  -12.6482   19.3359 C   0  0  0  0  0  0  0  0  0  0  0  0
  -28.6470  -13.2707   20.8263 C   0  0  0  0  0  0  0  0  0  0  0  0
  -28.2418  -20.4272   26.7708 C   0  0  0  0  0  0  0  0  0  0  0  0
  -32.7233  -29.8684   22.0954 C   0  0  1  0  0  0  0  0  0  0  0  0
  -31.9568  -26.6307   23.9254 C   0  0  1  0  0  0  0  0  0  0  0  0
  -27.6388  -13.1758   19.6684 C   0  0  2  0  0  0  0  0  0  0  0  0
  -27.7737  -21.8615   27.0182 C   0  0  2  0  0  0  0  0  0  1  0  0
  -27.9881  -20.7643   22.8502 C   0  0  0  0  0  0  0  0  0  0  0  0
  -30.4644  -15.9201   24.8020 C   0  0  0  0  0  0  0  0  0  0  0  0
  -28.8209  -17.5009   26.5787 C   0  0  0  0  0  0  0  0  0  0  0  0
  -35.9852  -22.0128   21.8464 C   0  0  0  0  0  0  0  0  0  0  0  0
  -29.9573  -24.5400   20.6099 C   0  0  0  0  0  0  0  0  0  0  0  0
  -30.7421  -22.2676   19.9110 C   0  0  0  0  0  0  0  0  0  0  0  0
  -32.1373  -24.2746   19.4134 C   0  0  0  0  0  0  0  0  0  0  0  0
  -33.5337  -19.1086   21.6672 C   0  0  0  0  0  0  0  0  0  0  0  0
  -30.8566  -16.7809   22.0495 C   0  0  0  0  0  0  0  0  0  0  0  0
  -31.9707  -23.4402   21.7942 C   0  0  1  0  0  0  0  0  0  0  0  0
  -34.8904  -21.0890   22.3572 C   0  0  2  0  0  0  0  0  0  0  0  0
  -31.1976  -23.6366   20.4596 C   0  0  0  0  0  0  0  0  0  0  0  0
  -25.8735  -11.5383   20.2020 N   0  0  0  0  0  0  0  0  0  0  0  0
  -26.2435  -12.8294   20.1541 N   0  0  0  0  0  0  0  0  0  0  0  0
  -27.6251  -19.8811   25.5578 N   0  0  1  0  0  0  0  0  0  0  0  0
  -31.5305  -25.3849   23.2658 N   0  0  0  0  0  0  0  0  0  0  0  0
  -29.9821  -13.6088   20.3085 N   0  0  0  0  0  0  0  0  0  0  0  0
  -25.4796  -15.0303   20.5821 N   0  0  0  0  0  0  0  0  0  0  0  0
  -22.7715  -13.5424   22.7835 N   0  0  0  0  0  0  0  0  0  0  0  0
  -32.7065  -28.7318   22.9911 N   0  0  0  0  0  0  0  0  0  0  0  0
  -33.1653  -22.6111   21.6762 N   0  0  0  0  0  0  0  0  0  0  0  0
  -30.1830  -15.5874   21.5886 N   0  0  0  0  0  0  0  0  0  0  0  0
  -34.5788  -20.0952   21.2912 N   0  3  0  0  0  0  0  0  0  0  0  0
  -21.9809  -13.6723   20.6348 O   0  0  0  0  0  0  0  0  0  0  0  0
  -30.8843  -27.6136   22.0680 O   0  0  0  0  0  0  0  0  0  0  0  0
  -33.5325  -25.1966   22.0964 O   0  0  0  0  0  0  0  0  0  0  0  0
  -33.1393  -21.8164   23.8545 O   0  0  0  0  0  0  0  0  0  0  0  0
  -31.8807  -14.9354   20.1923 O   0  0  0  0  0  0  0  0  0  0  0  0
  -21.6805   -6.9035   21.4203 O   0  0  0  0  0  0  0  0  0  0  0  0
  -28.8016  -22.5435   27.7446 O   0  0  0  0  0  0  0  0  0  1  0  0
  -20.9661   -5.1415   26.5961 F   0  0  0  0  0  0  0  0  0  0  0  0
  -22.6000   -4.4196   22.2126 F   0  0  0  0  0  0  0  0  0  0  0  0
  1  2  1  0  0  0  0
  1  5  2  0  0  0  0
  2  6  2  0  0  0  0
  3  8  2  0  0  0  0
  3 16  1  0  0  0  0
  4  9  1  0  0  0  0
  4 16  2  0  0  0  0
  5 18  1  0  0  0  0
  6 20  1  0  0  0  0
  7 10  2  0  0  0  0
  7 19  1  0  0  0  0
  8 27  1  0  0  0  0
  9 27  2  0  0  0  0
 10 28  1  0  0  0  0
 11 12  2  0  0  0  0
 11 29  1  0  0  0  0
 12 30  1  0  0  0  0
 13 21  1  0  0  0  0
 13 28  2  0  0  0  0
 14 22  1  0  0  0  0
 14 23  2  0  0  0  0
 15 30  2  0  0  0  0
 15 31  1  0  0  0  0
 16 32  1  0  0  0  0
 17 32  1  0  0  0  0
 17 33  2  0  0  0  0
 17 34  1  0  0  0  0
 18 20  2  0  0  0  0
 18 39  1  0  0  0  0
 19 21  2  0  0  0  0
 19 40  1  0  0  0  0
 20 53  1  0  0  0  0
 21 41  1  0  0  0  0
 22 24  2  0  0  0  0
 22 65  1  0  0  0  0
 23 26  1  0  0  0  0
 23 57  1  0  0  0  0
 24 25  1  0  0  0  0
 24 58  1  0  0  0  0
 25 26  2  0  0  0  0
 25 59  1  0  0  0  0
 26 71  1  0  0  0  0
 27 85  1  0  0  0  0
 28 86  1  0  0  0  0
 29 31  2  0  0  0  0
 29 85  1  0  0  0  0
 30 87  1  0  0  0  0
 31 88  1  0  0  0  0
 32 69  2  0  0  0  0
 33 70  1  0  0  0  0
 33 74  1  0  0  0  0
 34 75  1  0  0  0  0
 34 80  2  0  0  0  0
 35 54  1  0  0  0  0
 35 76  1  0  0  0  0
 35 81  2  0  0  0  0
 36 66  1  0  0  0  0
 36 72  1  0  0  0  0
 36 82  2  0  0  0  0
 37 67  1  0  0  0  0
 37 77  1  0  0  0  0
 37 83  2  0  0  0  0
 38 73  1  0  0  0  0
 38 78  1  0  0  0  0
 38 84  2  0  0  0  0
 39 42  1  0  0  0  0
 40 54  1  0  0  0  0
 41 72  1  0  0  0  0
 42 46  1  0  0  0  0
 43 44  1  0  0  0  0
 43 48  1  0  0  0  0
 44 49  1  0  0  0  0
 45 47  1  0  0  0  0
 45 50  1  0  0  0  0
 46 53  1  0  0  0  0
 47 55  1  0  0  0  0
 48 56  1  0  0  0  0
 49 71  1  0  0  0  0
 50 73  1  0  0  0  0
 51 55  1  0  0  0  0
 51 73  1  0  0  0  0
 52 56  1  0  0  0  0
 52 71  1  0  0  0  0
 53 76  1  0  0  0  0
 54 72  1  0  0  0  0
 55 70  1  0  0  0  0
 56 86  1  0  0  0  0
 60 67  1  0  0  0  0
 61 68  1  0  0  0  0
 62 68  1  0  0  0  0
 63 68  1  0  0  0  0
 64 79  1  0  0  0  0
 65 78  1  0  0  0  0
 66 68  1  0  0  0  0
 66 77  1  0  0  0  0
 67 79  1  0  0  0  0
 69 70  1  0  0  0  0
M  CHG  1  79   1
M  ISO  4  38 100  56 101  78 100  86 101
M  END
> <Batch ID>
0043

> <Smiles>
CNC(C)C(=O)NC(C(=O)N1Cc2cc([101O:1][101CH:1]3CCCCN(c4c(C)cc(C[100NH:0][100C:0](=O)N5CCCC(n6nc(-c7ccc(Oc8ccc(F)cc8F)cc7)c(C(N)=O)c6N)C5)c(C)c4C)C3)ccc2CC1C(=O)NC1CCCc2ccccc21)C(C)(C)C

> <Shape>
0.199

> <Color>
0.183

> <Negative vol penalty>
0.000

$$$$

  -OEChem-04042322153D

 84 92  0     1  0  0  0  0  0999 V2000
  -27.6170  -33.1892   24.7411 C   0  0  0  0  0  0  0  0  0  0  0  0
  -27.9256  -31.8611   24.4649 C   0  0  0  0  0  0  0  0  0  0  0  0
  -32.6581  -17.4365   23.4278 C   0  0  0  0  0  0  0  0  0  0  0  0
  -22.9992   -9.8913   19.9853 C   0  0  0  0  0  0  0  0  0  0  0  0
  -23.7153   -9.9571   22.2918 C   0  0  0  0  0  0  0  0  0  0  0  0
  -26.4172  -33.5074   25.3760 C   0  0  0  0  0  0  0  0  0  0  0  0
  -27.0349  -30.8502   24.8246 C   0  0  0  0  0  0  0  0  0  0  0  0
  -25.9518  -25.6448   21.7855 C   0  0  0  0  0  0  0  0  0  0  0  0
  -31.8797  -18.3478   24.1415 C   0  0  0  0  0  0  0  0  0  0  0  0
  -32.0521  -16.5428   22.5448 C   0  0  0  0  0  0  0  0  0  0  0  0
  -22.2308   -8.7591   20.2562 C   0  0  0  0  0  0  0  0  0  0  0  0
  -22.9469   -8.8249   22.5627 C   0  0  0  0  0  0  0  0  0  0  0  0
  -26.4222  -24.3435   21.9565 C   0  0  0  0  0  0  0  0  0  0  0  0
  -23.1909   -5.4827   22.1139 C   0  0  0  0  0  0  0  0  0  0  0  0
  -23.7748   -4.4702   22.8751 C   0  0  0  0  0  0  0  0  0  0  0  0
  -24.4434  -23.8015   23.2252 C   0  0  0  0  0  0  0  0  0  0  0  0
  -22.0445   -4.7253   24.5418 C   0  0  0  0  0  0  0  0  0  0  0  0
  -23.7414  -10.4903   21.0032 C   0  0  0  0  0  0  0  0  0  0  0  0
  -24.1291  -13.0044   20.8120 C   0  0  0  0  0  0  0  0  0  0  0  0
  -25.5070  -32.5008   25.7350 C   0  0  0  0  0  0  0  0  0  0  0  0
  -24.7267  -26.0379   22.3433 C   0  0  0  0  0  0  0  0  0  0  0  0
  -25.8224  -31.1552   25.4661 C   0  0  0  0  0  0  0  0  0  0  0  0
  -23.9585  -25.1076   23.0577 C   0  0  0  0  0  0  0  0  0  0  0  0
  -30.4952  -18.3652   23.9723 C   0  0  0  0  0  0  0  0  0  0  0  0
  -29.8892  -17.4714   23.0893 C   0  0  0  0  0  0  0  0  0  0  0  0
  -30.6676  -16.5602   22.3756 C   0  0  0  0  0  0  0  0  0  0  0  0
  -22.2047   -8.2259   21.5448 C   0  0  0  0  0  0  0  0  0  0  0  0
  -25.6693  -23.4224   22.6789 C   0  0  0  0  0  0  0  0  0  0  0  0
  -22.0338   -6.1167   22.5667 C   0  0  0  0  0  0  0  0  0  0  0  0
  -23.2016   -4.0914   24.0890 C   0  0  0  0  0  0  0  0  0  0  0  0
  -21.4606   -5.7379   23.7807 C   0  0  0  0  0  0  0  0  0  0  0  0
  -24.5358  -11.6595   20.7239 C   0  0  0  0  0  0  0  0  0  0  0  0
  -25.2408  -13.7238   20.4472 C   0  0  0  0  0  0  0  0  0  0  0  0
  -22.8600  -13.5542   21.1899 C   0  0  0  0  0  0  0  0  0  0  0  0
  -23.8333  -28.1948   24.5004 C   0  0  0  0  0  0  0  0  0  0  0  0
  -20.8520  -27.2661   23.6221 C   0  0  0  0  0  0  0  0  0  0  0  0
  -27.8810  -20.7862   23.7629 C   0  0  0  0  0  0  0  0  0  0  0  0
  -18.8470  -24.8527   22.2797 C   0  0  0  0  0  0  0  0  0  0  0  0
  -30.7199  -14.6830   20.6964 C   0  0  0  0  0  0  0  0  0  0  0  0
  -24.2442  -32.8895   26.4621 C   0  0  0  0  0  0  0  0  0  0  0  0
  -24.2208  -27.4378   22.1270 C   0  0  0  0  0  0  0  0  0  0  0  0
  -22.6272  -25.4737   23.6593 C   0  0  0  0  0  0  0  0  0  0  0  0
  -23.1849  -31.7904   26.4734 C   0  0  0  0  0  0  0  0  0  0  0  0
  -29.6092  -12.2154   18.3824 C   0  0  0  0  0  0  0  0  0  0  0  0
  -23.8107  -30.4498   26.8449 C   0  0  0  0  0  0  0  0  0  0  0  0
  -28.1568  -11.9615   18.7925 C   0  0  0  0  0  0  0  0  0  0  0  0
  -30.5051  -12.4663   19.5941 C   0  0  0  0  0  0  0  0  0  0  0  0
  -28.5850  -13.2652   20.9148 C   0  0  0  0  0  0  0  0  0  0  0  0
  -24.8708  -30.0325   25.8185 C   0  0  1  0  0  0  0  0  0  0  0  0
  -23.2017  -27.8734   23.1755 C   0  0  1  0  0  0  0  0  0  0  0  0
  -27.6319  -13.0716   19.7241 C   0  0  2  0  0  0  0  0  0  0  0  0
  -28.4034  -17.4940   22.9110 C   0  0  0  0  0  0  0  0  0  0  0  0
  -16.4477  -24.3681   21.7264 C   0  0  0  0  0  0  0  0  0  0  0  0
  -20.2765  -26.7563   26.5749 C   0  0  0  0  0  0  0  0  0  0  0  0
  -18.2803  -25.4133   25.8822 C   0  0  0  0  0  0  0  0  0  0  0  0
  -18.4049  -27.8403   25.3193 C   0  0  0  0  0  0  0  0  0  0  0  0
  -30.2925  -21.2245   23.2681 C   0  0  0  0  0  0  0  0  0  0  0  0
  -19.4482  -24.5703   19.3956 C   0  0  0  0  0  0  0  0  0  0  0  0
  -29.6811  -19.3562   24.7528 C   0  0  0  0  0  0  0  0  0  0  0  0
  -27.5413  -21.9697   22.8816 C   0  0  0  0  0  0  0  0  0  1  0  0
  -19.8837  -26.2038   24.0836 C   0  0  1  0  0  0  0  0  0  0  0  0
  -17.7695  -24.9172   21.2123 C   0  0  2  0  0  0  0  0  0  0  0  0
  -19.2373  -26.5468   25.4554 C   0  0  0  0  0  0  0  0  0  0  0  0
  -25.8065  -11.5296   20.3336 N   0  0  0  0  0  0  0  0  0  0  0  0
  -26.2079  -12.8021   20.1731 N   0  0  0  0  0  0  0  0  0  0  0  0
  -22.1784  -26.8563   23.4258 N   0  0  0  0  0  0  0  0  0  0  0  0
  -29.9474  -13.5332   20.4281 N   0  0  0  0  0  0  0  0  0  0  0  0
  -25.4755  -15.0487   20.3373 N   0  0  0  0  0  0  0  0  0  0  0  0
  -21.8263  -12.6730   21.5352 N   0  0  0  0  0  0  0  0  0  0  0  0
  -30.0732  -15.6438   21.4731 N   0  0  0  0  0  0  0  0  0  0  0  0
  -24.2407  -29.5093   24.6253 N   0  0  0  0  0  0  0  0  0  0  0  0
  -18.9245  -26.0267   22.9987 N   0  0  0  0  0  0  0  0  0  0  0  0
  -29.2304  -20.4691   23.9210 N   0  0  0  0  0  0  0  0  0  0  0  0
  -18.1753  -24.1236   20.0180 N   0  3  0  0  0  0  0  0  0  0  0  0
  -22.6440  -14.7897   21.2046 O   0  0  0  0  0  0  0  0  0  0  0  0
  -23.9417  -27.3157   25.3472 O   0  0  0  0  0  0  0  0  0  0  0  0
  -20.4449  -28.4155   23.4355 O   0  0  0  0  0  0  0  0  0  0  0  0
  -26.9602  -20.1651   24.3027 O   0  0  0  0  0  0  0  0  0  0  0  0
  -19.5471  -23.8588   22.4602 O   0  0  0  0  0  0  0  0  0  0  0  0
  -31.8604  -14.8182   20.2460 O   0  0  0  0  0  0  0  0  0  0  0  0
  -21.4549   -7.1212   21.8095 O   0  0  0  0  0  0  0  0  0  0  0  0
  -26.1264  -22.1519   22.8479 O   0  0  0  0  0  0  0  0  0  1  0  0
  -23.7615   -3.1180   24.8191 F   0  0  0  0  0  0  0  0  0  0  0  0
  -20.3483   -6.3424   24.2203 F   0  0  0  0  0  0  0  0  0  0  0  0
  1  2  1  0  0  0  0
  1  6  2  0  0  0  0
  2  7  2  0  0  0  0
  3  9  2  0  0  0  0
  3 10  1  0  0  0  0
  4 11  2  0  0  0  0
  4 18  1  0  0  0  0
  5 12  1  0  0  0  0
  5 18  2  0  0  0  0
  6 20  1  0  0  0  0
  7 22  1  0  0  0  0
  8 13  2  0  0  0  0
  8 21  1  0  0  0  0
  9 24  1  0  0  0  0
 10 26  2  0  0  0  0
 11 27  1  0  0  0  0
 12 27  2  0  0  0  0
 13 28  1  0  0  0  0
 14 15  2  0  0  0  0
 14 29  1  0  0  0  0
 15 30  1  0  0  0  0
 16 23  1  0  0  0  0
 16 28  2  0  0  0  0
 17 30  2  0  0  0  0
 17 31  1  0  0  0  0
 18 32  1  0  0  0  0
 19 32  1  0  0  0  0
 19 33  2  0  0  0  0
 19 34  1  0  0  0  0
 20 22  2  0  0  0  0
 20 40  1  0  0  0  0
 21 23  2  0  0  0  0
 21 41  1  0  0  0  0
 22 49  1  0  0  0  0
 23 42  1  0  0  0  0
 24 25  2  0  0  0  0
 24 59  1  0  0  0  0
 25 26  1  0  0  0  0
 25 52  1  0  0  0  0
 26 70  1  0  0  0  0
 27 81  1  0  0  0  0
 28 82  1  0  0  0  0
 29 31  2  0  0  0  0
 29 81  1  0  0  0  0
 30 83  1  0  0  0  0
 31 84  1  0  0  0  0
 32 64  2  0  0  0  0
 33 65  1  0  0  0  0
 33 68  1  0  0  0  0
 34 69  1  0  0  0  0
 34 75  2  0  0  0  0
 35 50  1  0  0  0  0
 35 71  1  0  0  0  0
 35 76  2  0  0  0  0
 36 61  1  0  0  0  0
 36 66  1  0  0  0  0
 36 77  2  0  0  0  0
 37 60  1  0  0  0  0
 37 73  1  0  0  0  0
 37 78  2  0  0  0  0
 38 62  1  0  0  0  0
 38 72  1  0  0  0  0
 38 79  2  0  0  0  0
 39 67  1  0  0  0  0
 39 70  1  0  0  0  0
 39 80  2  0  0  0  0
 40 43  1  0  0  0  0
 41 50  1  0  0  0  0
 42 66  1  0  0  0  0
 43 45  1  0  0  0  0
 44 46  1  0  0  0  0
 44 47  1  0  0  0  0
 45 49  1  0  0  0  0
 46 51  1  0  0  0  0
 47 67  1  0  0  0  0
 48 51  1  0  0  0  0
 48 67  1  0  0  0  0
 49 71  1  0  0  0  0
 50 66  1  0  0  0  0
 51 65  1  0  0  0  0
 53 62  1  0  0  0  0
 54 63  1  0  0  0  0
 55 63  1  0  0  0  0
 56 63  1  0  0  0  0
 57 73  1  0  0  0  0
 58 74  1  0  0  0  0
 59 73  1  0  0  0  0
 60 82  1  0  0  0  0
 61 63  1  0  0  0  0
 61 72  1  0  0  0  0
 62 74  1  0  0  0  0
 64 65  1  0  0  0  0
M  CHG  1  74   1
M  ISO  4  39 100  60 101  70 100  82 101
M  END
> <Batch ID>
0043

> <Smiles>
CNC(C)C(=O)NC(C(=O)N1Cc2cc([101O:1][101CH2:1]C(=O)N(C)Cc3cccc([100NH:0][100C:0](=O)N4CCCC(n5nc(-c6ccc(Oc7ccc(F)cc7F)cc6)c(C(N)=O)c5N)C4)c3C)ccc2CC1C(=O)NC1CCCc2ccccc21)C(C)(C)C

> <Shape>
0.278

> <Color>
0.202

> <Negative vol penalty>
0.000

$$$$

  -OEChem-04042322153D

 87 96  0     1  0  0  0  0  0999 V2000
  -19.9053  -11.3949   22.7576 C   0  0  0  0  0  0  0  0  0  0  0  0
  -20.9142  -12.2758   23.1339 C   0  0  0  0  0  0  0  0  0  0  0  0
  -30.0164  -24.7742   25.9894 C   0  0  0  0  0  0  0  0  0  0  0  0
  -22.3426  -28.7895   22.5136 C   0  0  0  0  0  0  0  0  0  0  0  0
  -22.1922  -28.7696   20.1024 C   0  0  0  0  0  0  0  0  0  0  0  0
  -20.2155  -10.2603   22.0090 C   0  0  0  0  0  0  0  0  0  0  0  0
  -22.2341  -12.0220   22.7626 C   0  0  0  0  0  0  0  0  0  0  0  0
  -24.5889  -16.1509   21.0156 C   0  0  0  0  0  0  0  0  0  0  0  0
  -30.4497  -24.8979   24.6693 C   0  0  0  0  0  0  0  0  0  0  0  0
  -20.9930  -28.4480   22.6007 C   0  0  0  0  0  0  0  0  0  0  0  0
  -20.8426  -28.4281   20.1894 C   0  0  0  0  0  0  0  0  0  0  0  0
  -25.0392  -17.0740   21.9585 C   0  0  0  0  0  0  0  0  0  0  0  0
  -17.4971  -27.9333   23.4593 C   0  0  0  0  0  0  0  0  0  0  0  0
  -16.7090  -28.6266   24.3779 C   0  0  0  0  0  0  0  0  0  0  0  0
  -28.9163  -23.9711   26.2901 C   0  0  0  0  0  0  0  0  0  0  0  0
  -27.2688  -16.1732   21.7668 C   0  0  0  0  0  0  0  0  0  0  0  0
  -17.2160  -30.7007   23.2473 C   0  0  0  0  0  0  0  0  0  0  0  0
  -22.9422  -28.9504   21.2645 C   0  0  0  0  0  0  0  0  0  0  0  0
  -24.9554  -30.4590   21.6874 C   0  0  0  0  0  0  0  0  0  0  0  0
  -21.5385   -9.9976   21.6201 C   0  0  0  0  0  0  0  0  0  0  0  0
  -25.4745  -15.2233   20.4484 C   0  0  0  0  0  0  0  0  0  0  0  0
  -22.5625  -10.8822   22.0092 C   0  0  0  0  0  0  0  0  0  0  0  0
  -26.8278  -15.2411   20.8150 C   0  0  0  0  0  0  0  0  0  0  0  0
  -29.7827  -24.2185   23.6499 C   0  0  0  0  0  0  0  0  0  0  0  0
  -28.6826  -23.4154   23.9505 C   0  0  0  0  0  0  0  0  0  0  0  0
  -20.2430  -28.2673   21.4386 C   0  0  0  0  0  0  0  0  0  0  0  0
  -26.3787  -17.0834   22.3363 C   0  0  0  0  0  0  0  0  0  0  0  0
  -18.1447  -28.6237   22.4348 C   0  0  0  0  0  0  0  0  0  0  0  0
  -16.5685  -30.0103   24.2719 C   0  0  0  0  0  0  0  0  0  0  0  0
  -18.0041  -30.0074   22.3288 C   0  0  0  0  0  0  0  0  0  0  0  0
  -28.2494  -23.2917   25.2707 C   0  0  0  0  0  0  0  0  0  0  0  0
  -24.3361  -29.3037   21.1740 C   0  0  0  0  0  0  0  0  0  0  0  0
  -26.2773  -30.3230   21.3405 C   0  0  0  0  0  0  0  0  0  0  0  0
  -27.2943  -20.3041   22.9362 C   0  0  0  0  0  0  0  0  0  0  0  0
  -24.3865  -31.5569   22.4132 C   0  0  0  0  0  0  0  0  0  0  0  0
  -25.6867  -12.0519   20.4206 C   0  0  0  0  0  0  0  0  0  0  0  0
  -28.1101  -12.6215   18.3408 C   0  0  0  0  0  0  0  0  0  0  0  0
  -30.8421  -14.9610   18.0576 C   0  0  0  0  0  0  0  0  0  0  0  0
  -29.7102  -25.5654   20.1437 C   0  0  0  0  0  0  0  0  0  0  0  0
  -21.8319   -8.7335   20.8515 C   0  0  0  0  0  0  0  0  0  0  0  0
  -24.9785  -14.2517   19.4129 C   0  0  0  0  0  0  0  0  0  0  0  0
  -27.8231  -14.2796   20.2207 C   0  0  0  0  0  0  0  0  0  0  0  0
  -23.2024   -8.7335   20.1793 C   0  0  0  0  0  0  0  0  0  0  0  0
  -30.1554  -19.7353   23.3961 C   0  0  0  0  0  0  0  0  0  0  0  0
  -29.0912  -28.3493   18.0122 C   0  0  0  0  0  0  0  0  0  0  0  0
  -24.2742   -9.2144   21.1523 C   0  0  0  0  0  0  0  0  0  0  0  0
  -29.0532  -18.7367   23.7448 C   0  0  0  0  0  0  0  0  0  0  0  0
  -27.8582  -29.0138   18.6271 C   0  0  0  0  0  0  0  0  0  0  0  0
  -29.6677  -20.8867   22.5213 C   0  0  0  0  0  0  0  0  0  0  0  0
  -29.0273  -26.8277   18.1246 C   0  0  0  0  0  0  0  0  0  0  0  0
  -27.5675  -26.9810   20.1043 C   0  0  0  0  0  0  0  0  0  0  0  0
  -24.0028  -10.6543   21.6046 C   0  0  1  0  0  0  0  0  0  0  0  0
  -27.8334  -18.8830   22.8441 C   0  0  1  0  0  0  0  0  0  1  0  0
  -25.8629  -13.0156   19.2813 C   0  0  1  0  0  0  0  0  0  0  0  0
  -27.6125  -28.5181   20.0649 C   0  0  2  0  0  0  0  0  0  0  0  0
  -32.0572  -15.8131   16.0341 C   0  0  0  0  0  0  0  0  0  0  0  0
  -30.0728  -10.3596   18.9250 C   0  0  0  0  0  0  0  0  0  0  0  0
  -31.9339  -11.8961   18.2589 C   0  0  0  0  0  0  0  0  0  0  0  0
  -30.1857  -11.2631   16.5958 C   0  0  0  0  0  0  0  0  0  0  0  0
  -30.2960  -17.7803   18.7735 C   0  0  0  0  0  0  0  0  0  0  0  0
  -27.9761  -22.6910   22.8413 C   0  0  0  0  0  0  0  0  0  0  0  0
  -30.2685  -24.3693   22.2453 C   0  0  0  0  0  0  0  0  0  0  0  0
  -29.5959  -12.8556   18.4688 C   0  0  1  0  0  0  0  0  0  0  0  0
  -30.9672  -16.0951   17.0564 C   0  0  2  0  0  0  0  0  0  0  0  0
  -30.4290  -11.6009   18.0829 C   0  0  0  0  0  0  0  0  0  0  0  0
  -25.1942  -28.4935   20.5483 N   0  0  0  0  0  0  0  0  0  0  0  0
  -26.3661  -29.1407   20.6663 N   0  0  0  0  0  0  0  0  0  0  0  0
  -28.2953  -21.2733   22.8278 N   0  0  0  0  0  0  0  0  0  0  0  0
  -27.2883  -13.3447   19.2169 N   0  0  0  0  0  0  0  0  0  0  0  0
  -28.7941  -26.4234   19.5131 N   0  0  0  0  0  0  0  0  0  0  0  0
  -27.3609  -31.1006   21.5493 N   0  0  0  0  0  0  0  0  0  0  0  0
  -23.0117  -31.5374   22.6849 N   0  0  0  0  0  0  0  0  0  0  0  0
  -24.3931  -11.5904   20.5722 N   0  0  0  0  0  0  0  0  0  0  0  0
  -29.8930  -14.0392   17.6693 N   0  0  0  0  0  0  0  0  0  0  0  0
  -29.4175  -25.2368   21.4617 N   0  0  0  0  0  0  0  0  0  0  0  0
  -31.2969  -17.3693   17.7555 N   0  3  0  0  0  0  0  0  0  0  0  0
  -26.0957  -20.5393   23.0789 O   0  0  0  0  0  0  0  0  0  0  0  0
  -25.0739  -32.5343   22.7947 O   0  0  0  0  0  0  0  0  0  0  0  0
  -26.6532  -11.7484   21.1102 O   0  0  0  0  0  0  0  0  0  0  0  0
  -27.6934  -11.8315   17.4899 O   0  0  0  0  0  0  0  0  0  0  0  0
  -31.5211  -14.8971   19.0800 O   0  0  0  0  0  0  0  0  0  0  0  0
  -30.7173  -25.1291   19.5760 O   0  0  0  0  0  0  0  0  0  0  0  0
  -18.9261  -27.9338   21.5231 O   0  0  0  0  0  0  0  0  0  0  0  0
  -26.8207  -17.9829   23.2569 O   0  0  0  0  0  0  0  0  0  1  0  0
  -15.8104  -30.6758   25.1532 F   0  0  0  0  0  0  0  0  0  0  0  0
  -18.6229  -30.6759   21.3459 F   0  0  0  0  0  0  0  0  0  0  0  0
  -26.8923  -22.3080   25.6848 Cl  0  0  0  0  0  0  0  0  0  0  0  0
  1  2  1  0  0  0  0
  1  6  2  0  0  0  0
  2  7  2  0  0  0  0
  3  9  2  0  0  0  0
  3 15  1  0  0  0  0
  4 10  2  0  0  0  0
  4 18  1  0  0  0  0
  5 11  1  0  0  0  0
  5 18  2  0  0  0  0
  6 20  1  0  0  0  0
  7 22  1  0  0  0  0
  8 12  2  0  0  0  0
  8 21  1  0  0  0  0
  9 24  1  0  0  0  0
 10 26  1  0  0  0  0
 11 26  2  0  0  0  0
 12 27  1  0  0  0  0
 13 14  2  0  0  0  0
 13 28  1  0  0  0  0
 14 29  1  0  0  0  0
 15 31  2  0  0  0  0
 16 23  1  0  0  0  0
 16 27  2  0  0  0  0
 17 29  2  0  0  0  0
 17 30  1  0  0  0  0
 18 32  1  0  0  0  0
 19 32  1  0  0  0  0
 19 33  2  0  0  0  0
 19 35  1  0  0  0  0
 20 22  2  0  0  0  0
 20 40  1  0  0  0  0
 21 23  2  0  0  0  0
 21 41  1  0  0  0  0
 22 52  1  0  0  0  0
 23 42  1  0  0  0  0
 24 25  2  0  0  0  0
 24 62  1  0  0  0  0
 25 31  1  0  0  0  0
 25 61  1  0  0  0  0
 26 83  1  0  0  0  0
 27 84  1  0  0  0  0
 28 30  2  0  0  0  0
 28 83  1  0  0  0  0
 29 85  1  0  0  0  0
 30 86  1  0  0  0  0
 31 87  1  0  0  0  0
 32 66  2  0  0  0  0
 33 67  1  0  0  0  0
 33 71  1  0  0  0  0
 34 53  1  0  0  0  0
 34 68  1  0  0  0  0
 34 77  2  0  0  0  0
 35 72  1  0  0  0  0
 35 78  2  0  0  0  0
 36 54  1  0  0  0  0
 36 73  1  0  0  0  0
 36 79  2  0  0  0  0
 37 63  1  0  0  0  0
 37 69  1  0  0  0  0
 37 80  2  0  0  0  0
 38 64  1  0  0  0  0
 38 74  1  0  0  0  0
 38 81  2  0  0  0  0
 39 70  1  0  0  0  0
 39 75  1  0  0  0  0
 39 82  2  0  0  0  0
 40 43  1  0  0  0  0
 41 54  1  0  0  0  0
 42 69  1  0  0  0  0
 43 46  1  0  0  0  0
 44 47  1  0  0  0  0
 44 49  1  0  0  0  0
 45 48  1  0  0  0  0
 45 50  1  0  0  0  0
 46 52  1  0  0  0  0
 47 53  1  0  0  0  0
 48 55  1  0  0  0  0
 49 68  1  0  0  0  0
 50 70  1  0  0  0  0
 51 55  1  0  0  0  0
 51 70  1  0  0  0  0
 52 73  1  0  0  0  0
 53 84  1  0  0  0  0
 54 69  1  0  0  0  0
 55 67  1  0  0  0  0
 56 64  1  0  0  0  0
 57 65  1  0  0  0  0
 58 65  1  0  0  0  0
 59 65  1  0  0  0  0
 60 76  1  0  0  0  0
 61 68  1  0  0  0  0
 62 75  1  0  0  0  0
 63 65  1  0  0  0  0
 63 74  1  0  0  0  0
 64 76  1  0  0  0  0
 66 67  1  0  0  0  0
M  CHG  1  76   1
M  ISO  4  39 100  53 101  75 100  84 101
M  END
> <Batch ID>
0043

> <Smiles>
CNC(C)C(=O)NC(C(=O)N1Cc2cc([101O:1][101CH:1]3CCCN(Cc4c(Cl)cccc4C[100NH:0][100C:0](=O)N4CCCC(n5nc(-c6ccc(Oc7ccc(F)cc7F)cc6)c(C(N)=O)c5N)C4)C3=O)ccc2CC1C(=O)NC1CCCc2ccccc21)C(C)(C)C

> <Shape>
0.280

> <Color>
0.073

> <Negative vol penalty>
0.000

$$$$

  -OEChem-04042322153D

 84 92  0     1  0  0  0  0  0999 V2000
  -29.0473  -26.8938   15.1341 C   0  0  0  0  0  0  0  0  0  0  0  0
  -27.8684  -27.5032   15.5484 C   0  0  0  0  0  0  0  0  0  0  0  0
  -25.9655  -13.6262   21.5273 C   0  0  0  0  0  0  0  0  0  0  0  0
  -25.2376  -14.4431   19.3732 C   0  0  0  0  0  0  0  0  0  0  0  0
  -30.0692  -26.6645   16.0531 C   0  0  0  0  0  0  0  0  0  0  0  0
  -27.7155  -27.8942   16.8791 C   0  0  0  0  0  0  0  0  0  0  0  0
  -23.6908  -30.4935   17.9964 C   0  0  0  0  0  0  0  0  0  0  0  0
  -25.3251  -23.1293   16.4852 C   0  0  0  0  0  0  0  0  0  0  0  0
  -26.0777  -22.2559   17.2701 C   0  0  0  0  0  0  0  0  0  0  0  0
  -24.8662  -12.7690   21.5737 C   0  0  0  0  0  0  0  0  0  0  0  0
  -24.1383  -13.5858   19.4196 C   0  0  0  0  0  0  0  0  0  0  0  0
  -22.4164  -29.9294   18.0370 C   0  0  0  0  0  0  0  0  0  0  0  0
  -23.9713   -9.7915   20.2445 C   0  0  0  0  0  0  0  0  0  0  0  0
  -24.1926   -8.4748   20.6482 C   0  0  0  0  0  0  0  0  0  0  0  0
  -22.5065  -29.9145   20.4476 C   0  0  0  0  0  0  0  0  0  0  0  0
  -26.0853  -23.8745   19.0638 C   0  0  0  0  0  0  0  0  0  0  0  0
  -22.6693   -8.7859   22.4975 C   0  0  0  0  0  0  0  0  0  0  0  0
  -26.1512  -14.4633   20.4270 C   0  0  0  0  0  0  0  0  0  0  0  0
  -28.5587  -15.0727   19.8436 C   0  0  0  0  0  0  0  0  0  0  0  0
  -29.9230  -27.0419   17.3982 C   0  0  0  0  0  0  0  0  0  0  0  0
  -24.3881  -30.7627   19.1828 C   0  0  0  0  0  0  0  0  0  0  0  0
  -28.7447  -27.6930   17.8166 C   0  0  0  0  0  0  0  0  0  0  0  0
  -23.7885  -30.4844   20.4194 C   0  0  0  0  0  0  0  0  0  0  0  0
  -24.9526  -24.3754   16.9894 C   0  0  0  0  0  0  0  0  0  0  0  0
  -25.3326  -24.7479   18.2788 C   0  0  0  0  0  0  0  0  0  0  0  0
  -26.4578  -22.6285   18.5595 C   0  0  0  0  0  0  0  0  0  0  0  0
  -23.9526  -12.7487   20.5199 C   0  0  0  0  0  0  0  0  0  0  0  0
  -21.8253  -29.6372   19.2627 C   0  0  0  0  0  0  0  0  0  0  0  0
  -23.0991  -10.6054   20.9673 C   0  0  0  0  0  0  0  0  0  0  0  0
  -23.5416   -7.9720   21.7747 C   0  0  0  0  0  0  0  0  0  0  0  0
  -22.4481  -10.1026   22.0938 C   0  0  0  0  0  0  0  0  0  0  0  0
  -27.2863  -15.3495   20.3787 C   0  0  0  0  0  0  0  0  0  0  0  0
  -29.2728  -16.2295   20.0400 C   0  0  0  0  0  0  0  0  0  0  0  0
  -23.5023  -26.0905   19.2802 C   0  0  0  0  0  0  0  0  0  0  0  0
  -29.0511  -13.8770   19.2243 C   0  0  0  0  0  0  0  0  0  0  0  0
  -27.1188  -29.7524   20.4582 C   0  0  0  0  0  0  0  0  0  0  0  0
  -26.4600  -32.0116   22.6907 C   0  0  0  0  0  0  0  0  0  0  0  0
  -24.1188  -33.9260   24.2722 C   0  0  0  0  0  0  0  0  0  0  0  0
  -27.6796  -21.9554   20.6572 C   0  0  0  0  0  0  0  0  0  0  0  0
  -31.0638  -26.7769   18.3487 C   0  0  0  0  0  0  0  0  0  0  0  0
  -25.7511  -31.3960   19.1226 C   0  0  0  0  0  0  0  0  0  0  0  0
  -24.4869  -30.7730   21.7222 C   0  0  0  0  0  0  0  0  0  0  0  0
  -30.6396  -26.8196   19.8131 C   0  0  0  0  0  0  0  0  0  0  0  0
  -29.5532  -20.0049   22.9729 C   0  0  0  0  0  0  0  0  0  0  0  0
  -29.8399  -28.0848   20.0859 C   0  0  0  0  0  0  0  0  0  0  0  0
  -29.3052  -18.5648   22.5181 C   0  0  0  0  0  0  0  0  0  0  0  0
  -28.3089  -20.8750   22.8048 C   0  0  0  0  0  0  0  0  0  0  0  0
  -27.4669  -19.4161   21.0070 C   0  0  0  0  0  0  0  0  0  0  0  0
  -28.5439  -28.0992   19.2654 C   0  0  1  0  0  0  0  0  0  0  0  0
  -26.5792  -31.1526   20.3805 C   0  0  1  0  0  0  0  0  0  0  0  0
  -28.7110  -18.5172   21.0967 C   0  0  2  0  0  0  0  0  0  0  0  0
  -24.1474  -25.2938   16.1300 C   0  0  0  0  0  0  0  0  0  0  0  0
  -23.8781  -35.6506   26.0791 C   0  0  0  0  0  0  0  0  0  0  0  0
  -18.9451  -27.4315   18.7986 C   0  0  0  0  0  0  0  0  0  0  0  0
  -26.7855  -29.8370   24.8062 C   0  0  0  0  0  0  0  0  0  0  0  0
  -25.6281  -31.3457   26.4350 C   0  0  0  0  0  0  0  0  0  0  0  0
  -27.7946  -32.0431   25.4140 C   0  0  0  0  0  0  0  0  0  0  0  0
  -23.0478  -35.9307   22.3767 C   0  0  0  0  0  0  0  0  0  0  0  0
  -24.9407  -26.0857   18.8445 C   0  0  0  0  0  0  0  0  0  0  0  0
  -21.3202  -26.7909   19.3234 C   0  0  0  0  0  0  0  0  0  0  0  0
  -25.7016  -32.0358   23.9958 C   0  0  1  0  0  0  0  0  0  0  0  0
  -24.0791  -35.4096   24.5911 C   0  0  2  0  0  0  0  0  0  0  0  0
  -20.4094  -27.8221   18.6654 C   0  0  2  0  0  0  0  0  0  1  0  0
  -26.4648  -31.3080   25.1383 C   0  0  0  0  0  0  0  0  0  0  0  0
  -27.1944  -16.5850   20.8778 N   0  0  0  0  0  0  0  0  0  0  0  0
  -22.6763  -26.9429   18.7864 N   0  0  0  0  0  0  0  0  0  0  0  0
  -28.4181  -17.0949   20.6571 N   0  0  0  0  0  0  0  0  0  0  0  0
  -25.8205  -31.3867   21.6108 N   0  0  0  0  0  0  0  0  0  0  0  0
  -27.8044  -20.7834   21.4329 N   0  0  0  0  0  0  0  0  0  0  0  0
  -30.5421  -16.5805   19.7434 N   0  0  0  0  0  0  0  0  0  0  0  0
  -28.1846  -12.7821   19.1027 N   0  0  0  0  0  0  0  0  0  0  0  0
  -27.2207  -21.7407   19.3580 N   0  0  0  0  0  0  0  0  0  0  0  0
  -27.9207  -29.3984   19.3900 N   0  0  0  0  0  0  0  0  0  0  0  0
  -25.4085  -33.4381   24.2717 N   0  0  0  0  0  0  0  0  0  0  0  0
  -22.9642  -36.0683   23.8535 N   0  3  0  0  0  0  0  0  0  0  0  0
  -30.2295  -13.7768   18.8064 O   0  0  0  0  0  0  0  0  0  0  0  0
  -26.8302  -29.0461   21.4171 O   0  0  0  0  0  0  0  0  0  0  0  0
  -27.5756  -32.5344   22.6298 O   0  0  0  0  0  0  0  0  0  0  0  0
  -23.1067  -33.2652   24.0497 O   0  0  0  0  0  0  0  0  0  0  0  0
  -27.9850  -23.0643   21.1032 O   0  0  0  0  0  0  0  0  0  0  0  0
  -22.8798  -11.9122   20.5647 O   0  0  0  0  0  0  0  0  0  0  0  0
  -20.5818  -29.0860   19.3052 O   0  0  0  0  0  0  0  0  0  1  0  0
  -23.7530   -6.7071   22.1614 F   0  0  0  0  0  0  0  0  0  0  0  0
  -21.6081  -10.8794   22.7915 F   0  0  0  0  0  0  0  0  0  0  0  0
  1  2  1  0  0  0  0
  1  5  2  0  0  0  0
  2  6  2  0  0  0  0
  3 10  2  0  0  0  0
  3 18  1  0  0  0  0
  4 11  1  0  0  0  0
  4 18  2  0  0  0  0
  5 20  1  0  0  0  0
  6 22  1  0  0  0  0
  7 12  2  0  0  0  0
  7 21  1  0  0  0  0
  8  9  2  0  0  0  0
  8 24  1  0  0  0  0
  9 26  1  0  0  0  0
 10 27  1  0  0  0  0
 11 27  2  0  0  0  0
 12 28  1  0  0  0  0
 13 14  2  0  0  0  0
 13 29  1  0  0  0  0
 14 30  1  0  0  0  0
 15 23  1  0  0  0  0
 15 28  2  0  0  0  0
 16 25  1  0  0  0  0
 16 26  2  0  0  0  0
 17 30  2  0  0  0  0
 17 31  1  0  0  0  0
 18 32  1  0  0  0  0
 19 32  1  0  0  0  0
 19 33  2  0  0  0  0
 19 35  1  0  0  0  0
 20 22  2  0  0  0  0
 20 40  1  0  0  0  0
 21 23  2  0  0  0  0
 21 41  1  0  0  0  0
 22 49  1  0  0  0  0
 23 42  1  0  0  0  0
 24 25  2  0  0  0  0
 24 52  1  0  0  0  0
 25 59  1  0  0  0  0
 26 72  1  0  0  0  0
 27 81  1  0  0  0  0
 28 82  1  0  0  0  0
 29 31  2  0  0  0  0
 29 81  1  0  0  0  0
 30 83  1  0  0  0  0
 31 84  1  0  0  0  0
 32 65  2  0  0  0  0
 33 67  1  0  0  0  0
 33 70  1  0  0  0  0
 34 59  1  0  0  0  0
 34 66  2  0  0  0  0
 35 71  1  0  0  0  0
 35 76  2  0  0  0  0
 36 50  1  0  0  0  0
 36 73  1  0  0  0  0
 36 77  2  0  0  0  0
 37 61  1  0  0  0  0
 37 68  1  0  0  0  0
 37 78  2  0  0  0  0
 38 62  1  0  0  0  0
 38 74  1  0  0  0  0
 38 79  2  0  0  0  0
 39 69  1  0  0  0  0
 39 72  1  0  0  0  0
 39 80  2  0  0  0  0
 40 43  1  0  0  0  0
 41 50  1  0  0  0  0
 42 68  1  0  0  0  0
 43 45  1  0  0  0  0
 44 46  1  0  0  0  0
 44 47  1  0  0  0  0
 45 49  1  0  0  0  0
 46 51  1  0  0  0  0
 47 69  1  0  0  0  0
 48 51  1  0  0  0  0
 48 69  1  0  0  0  0
 49 73  1  0  0  0  0
 50 68  1  0  0  0  0
 51 67  1  0  0  0  0
 53 62  1  0  0  0  0
 54 63  1  0  0  0  0
 55 64  1  0  0  0  0
 56 64  1  0  0  0  0
 57 64  1  0  0  0  0
 58 75  1  0  0  0  0
 60 63  1  0  0  0  0
 60 66  1  0  0  0  0
 61 64  1  0  0  0  0
 61 74  1  0  0  0  0
 62 75  1  0  0  0  0
 63 82  1  0  0  0  0
 65 67  1  0  0  0  0
M  CHG  1  75   1
M  ISO  4  39 100  63 101  72 100  82 101
M  END
> <Batch ID>
0043

> <Smiles>
CNC(C)C(=O)NC(C(=O)N1Cc2cc([101O:1][101CH:1](C)CNC=Cc3cc([100NH:0][100C:0](=O)N4CCCC(n5nc(-c6ccc(Oc7ccc(F)cc7F)cc6)c(C(N)=O)c5N)C4)ccc3C)ccc2CC1C(=O)NC1CCCc2ccccc21)C(C)(C)C

> <Shape>
0.286

> <Color>
0.074

> <Negative vol penalty>
0.000

$$$$

  -OEChem-04042322153D

 86 95  0     1  0  0  0  0  0999 V2000
  -28.9419  -35.3521   23.7965 C   0  0  0  0  0  0  0  0  0  0  0  0
  -29.0356  -34.0011   23.4782 C   0  0  0  0  0  0  0  0  0  0  0  0
  -25.2816  -13.5392   19.6869 C   0  0  0  0  0  0  0  0  0  0  0  0
  -26.4354  -12.1728   21.3112 C   0  0  0  0  0  0  0  0  0  0  0  0
  -27.7573  -35.8617   24.3265 C   0  0  0  0  0  0  0  0  0  0  0  0
  -27.9450  -33.1586   23.6909 C   0  0  0  0  0  0  0  0  0  0  0  0
  -27.0944  -30.0570   19.7791 C   0  0  0  0  0  0  0  0  0  0  0  0
  -31.4275  -22.6443   20.9092 C   0  0  0  0  0  0  0  0  0  0  0  0
  -31.3530  -21.3807   21.4952 C   0  0  0  0  0  0  0  0  0  0  0  0
  -24.0719  -12.9449   20.0462 C   0  0  0  0  0  0  0  0  0  0  0  0
  -25.2258  -11.5785   21.6706 C   0  0  0  0  0  0  0  0  0  0  0  0
  -27.9229  -28.9422   19.6586 C   0  0  0  0  0  0  0  0  0  0  0  0
  -22.4410  -10.0487   19.4327 C   0  0  0  0  0  0  0  0  0  0  0  0
  -21.5858   -9.6492   18.4058 C   0  0  0  0  0  0  0  0  0  0  0  0
  -26.2051  -27.5663   20.6461 C   0  0  0  0  0  0  0  0  0  0  0  0
  -19.8751  -11.1292   19.2546 C   0  0  0  0  0  0  0  0  0  0  0  0
  -26.4634  -13.1531   20.3194 C   0  0  0  0  0  0  0  0  0  0  0  0
  -28.3196  -13.7589   18.6778 C   0  0  0  0  0  0  0  0  0  0  0  0
  -26.6484  -35.0270   24.5367 C   0  0  0  0  0  0  0  0  0  0  0  0
  -25.8170  -29.9366   20.3450 C   0  0  0  0  0  0  0  0  0  0  0  0
  -26.7449  -33.6572   24.2254 C   0  0  0  0  0  0  0  0  0  0  0  0
  -25.3613  -28.6806   20.7703 C   0  0  0  0  0  0  0  0  0  0  0  0
  -29.0964  -22.4956   20.2920 C   0  0  0  0  0  0  0  0  0  0  0  0
  -29.0219  -21.2319   20.8779 C   0  0  0  0  0  0  0  0  0  0  0  0
  -30.2991  -23.2018   20.3076 C   0  0  0  0  0  0  0  0  0  0  0  0
  -30.1502  -20.6745   21.4795 C   0  0  0  0  0  0  0  0  0  0  0  0
  -24.0440  -11.9646   21.0381 C   0  0  0  0  0  0  0  0  0  0  0  0
  -27.4794  -27.6971   20.0947 C   0  0  0  0  0  0  0  0  0  0  0  0
  -22.0132  -10.9884   20.3706 C   0  0  0  0  0  0  0  0  0  0  0  0
  -20.3029  -10.1894   18.3167 C   0  0  0  0  0  0  0  0  0  0  0  0
  -20.7304  -11.5287   20.2815 C   0  0  0  0  0  0  0  0  0  0  0  0
  -27.7133  -13.7662   19.9482 C   0  0  0  0  0  0  0  0  0  0  0  0
  -29.4809  -14.4725   18.8474 C   0  0  0  0  0  0  0  0  0  0  0  0
  -30.7467  -24.7220   18.3823 C   0  0  0  0  0  0  0  0  0  0  0  0
  -30.6657  -23.8512   17.3596 C   0  0  0  0  0  0  0  0  0  0  0  0
  -27.8730  -13.1607   17.4537 C   0  0  0  0  0  0  0  0  0  0  0  0
  -24.3735  -31.1509   22.9034 C   0  0  0  0  0  0  0  0  0  0  0  0
  -21.7734  -29.6616   21.6609 C   0  0  0  0  0  0  0  0  0  0  0  0
  -19.5367  -27.6667   20.0286 C   0  0  0  0  0  0  0  0  0  0  0  0
  -31.1376  -18.7143   22.7161 C   0  0  0  0  0  0  0  0  0  0  0  0
  -25.4048  -35.6141   25.1560 C   0  0  0  0  0  0  0  0  0  0  0  0
  -24.9252  -31.1439   20.4434 C   0  0  0  0  0  0  0  0  0  0  0  0
  -23.9907  -28.4944   21.3663 C   0  0  0  0  0  0  0  0  0  0  0  0
  -31.2058  -26.1371   18.0983 C   0  0  0  0  0  0  0  0  0  0  0  0
  -24.1709  -34.7288   25.0010 C   0  0  0  0  0  0  0  0  0  0  0  0
  -30.2026  -27.1592   18.6360 C   0  0  0  0  0  0  0  0  0  0  0  0
  -32.7421  -15.5824   22.1740 C   0  0  0  0  0  0  0  0  0  0  0  0
  -24.5030  -33.2831   25.3568 C   0  0  0  0  0  0  0  0  0  0  0  0
  -31.6920  -14.7627   21.4208 C   0  0  0  0  0  0  0  0  0  0  0  0
  -32.1066  -16.4846   23.2304 C   0  0  0  0  0  0  0  0  0  0  0  0
  -29.9819  -16.5361   21.9844 C   0  0  0  0  0  0  0  0  0  0  0  0
  -30.3687  -25.6078   20.6797 C   0  0  0  0  0  0  0  0  0  0  0  0
  -25.5754  -32.7164   24.4185 C   0  0  1  0  0  0  0  0  0  0  0  0
  -23.8406  -31.0004   21.5066 C   0  0  1  0  0  0  0  0  0  0  0  0
  -30.5685  -15.6599   20.8655 C   0  0  2  0  0  0  0  0  0  0  0  0
  -29.6962  -26.8318   20.0477 C   0  0  2  0  0  0  0  0  0  1  0  0
  -27.8842  -23.0919   19.6472 C   0  0  0  0  0  0  0  0  0  0  0  0
  -27.7305  -20.4747   20.8598 C   0  0  0  0  0  0  0  0  0  0  0  0
  -17.1646  -26.8569   20.1501 C   0  0  0  0  0  0  0  0  0  0  0  0
  -22.5440  -27.7491   23.9099 C   0  0  0  0  0  0  0  0  0  0  0  0
  -20.5279  -26.3781   23.3408 C   0  0  0  0  0  0  0  0  0  0  0  0
  -20.2542  -28.7332   24.1162 C   0  0  0  0  0  0  0  0  0  0  0  0
  -18.8664  -28.8798   17.4136 C   0  0  0  0  0  0  0  0  0  0  0  0
  -21.1603  -28.2889   21.7981 C   0  0  1  0  0  0  0  0  0  0  0  0
  -18.1052  -27.9105   19.5862 C   0  0  2  0  0  0  0  0  0  0  0  0
  -21.1414  -27.7929   23.2715 C   0  0  0  0  0  0  0  0  0  0  0  0
  -28.4302  -14.4316   20.8579 N   0  0  0  0  0  0  0  0  0  0  0  0
  -29.4990  -14.8489   20.1581 N   0  0  0  0  0  0  0  0  0  0  0  0
  -30.3954  -24.4879   19.7180 N   0  0  0  0  0  0  0  0  0  0  0  0
  -23.1584  -29.7061   21.4470 N   0  0  0  0  0  0  0  0  0  0  0  0
  -31.0545  -17.3084   22.6310 N   0  0  0  0  0  0  0  0  0  0  0  0
  -30.4781  -14.8083   18.0016 N   0  0  0  0  0  0  0  0  0  0  0  0
  -26.6570  -12.4637   17.4554 N   0  0  0  0  0  0  0  0  0  0  0  0
  -30.0976  -19.3929   22.0815 N   0  0  0  0  0  0  0  0  0  0  0  0
  -24.9937  -32.3626   23.1414 N   0  0  0  0  0  0  0  0  0  0  0  0
  -19.8427  -28.3663   21.1767 N   0  0  0  0  0  0  0  0  0  0  0  0
  -18.0099  -27.8781   18.0993 N   0  3  0  0  0  0  0  0  0  0  0  0
  -28.5407  -13.2277   16.3939 O   0  0  0  0  0  0  0  0  0  0  0  0
  -24.2311  -30.2361   23.7062 O   0  0  0  0  0  0  0  0  0  0  0  0
  -21.0490  -30.6574   21.7334 O   0  0  0  0  0  0  0  0  0  0  0  0
  -20.3054  -26.9264   19.4189 O   0  0  0  0  0  0  0  0  0  0  0  0
  -32.0775  -19.2756   23.2849 O   0  0  0  0  0  0  0  0  0  0  0  0
  -22.8638  -11.3846   21.3891 O   0  0  0  0  0  0  0  0  0  0  0  0
  -28.2863  -26.6075   19.9789 O   0  0  0  0  0  0  0  0  0  1  0  0
  -19.4823   -9.8069   17.3295 F   0  0  0  0  0  0  0  0  0  0  0  0
  -20.3142  -12.4327   21.1790 F   0  0  0  0  0  0  0  0  0  0  0  0
  1  2  1  0  0  0  0
  1  5  2  0  0  0  0
  2  6  2  0  0  0  0
  3 10  2  0  0  0  0
  3 17  1  0  0  0  0
  4 11  1  0  0  0  0
  4 17  2  0  0  0  0
  5 19  1  0  0  0  0
  6 21  1  0  0  0  0
  7 12  2  0  0  0  0
  7 20  1  0  0  0  0
  8  9  2  0  0  0  0
  8 25  1  0  0  0  0
  9 26  1  0  0  0  0
 10 27  1  0  0  0  0
 11 27  2  0  0  0  0
 12 28  1  0  0  0  0
 13 14  2  0  0  0  0
 13 29  1  0  0  0  0
 14 30  1  0  0  0  0
 15 22  1  0  0  0  0
 15 28  2  0  0  0  0
 16 30  2  0  0  0  0
 16 31  1  0  0  0  0
 17 32  1  0  0  0  0
 18 32  1  0  0  0  0
 18 33  2  0  0  0  0
 18 36  1  0  0  0  0
 19 21  2  0  0  0  0
 19 41  1  0  0  0  0
 20 22  2  0  0  0  0
 20 42  1  0  0  0  0
 21 53  1  0  0  0  0
 22 43  1  0  0  0  0
 23 24  1  0  0  0  0
 23 25  2  0  0  0  0
 23 57  1  0  0  0  0
 24 26  2  0  0  0  0
 24 58  1  0  0  0  0
 25 69  1  0  0  0  0
 26 74  1  0  0  0  0
 27 83  1  0  0  0  0
 28 84  1  0  0  0  0
 29 31  2  0  0  0  0
 29 83  1  0  0  0  0
 30 85  1  0  0  0  0
 31 86  1  0  0  0  0
 32 67  2  0  0  0  0
 33 68  1  0  0  0  0
 33 72  1  0  0  0  0
 34 35  2  0  0  0  0
 34 44  1  0  0  0  0
 34 69  1  0  0  0  0
 36 73  1  0  0  0  0
 36 78  2  0  0  0  0
 37 54  1  0  0  0  0
 37 75  1  0  0  0  0
 37 79  2  0  0  0  0
 38 64  1  0  0  0  0
 38 70  1  0  0  0  0
 38 80  2  0  0  0  0
 39 65  1  0  0  0  0
 39 76  1  0  0  0  0
 39 81  2  0  0  0  0
 40 71  1  0  0  0  0
 40 74  1  0  0  0  0
 40 82  2  0  0  0  0
 41 45  1  0  0  0  0
 42 54  1  0  0  0  0
 43 70  1  0  0  0  0
 44 46  1  0  0  0  0
 45 48  1  0  0  0  0
 46 56  1  0  0  0  0
 47 49  1  0  0  0  0
 47 50  1  0  0  0  0
 48 53  1  0  0  0  0
 49 55  1  0  0  0  0
 50 71  1  0  0  0  0
 51 55  1  0  0  0  0
 51 71  1  0  0  0  0
 52 56  1  0  0  0  0
 52 69  1  0  0  0  0
 53 75  1  0  0  0  0
 54 70  1  0  0  0  0
 55 68  1  0  0  0  0
 56 84  1  0  0  0  0
 59 65  1  0  0  0  0
 60 66  1  0  0  0  0
 61 66  1  0  0  0  0
 62 66  1  0  0  0  0
 63 77  1  0  0  0  0
 64 66  1  0  0  0  0
 64 76  1  0  0  0  0
 65 77  1  0  0  0  0
 67 68  1  0  0  0  0
M  CHG  1  77   1
M  ISO  4  40 100  56 101  74 100  84 101
M  END
> <Batch ID>
0043

> <Smiles>
C=C1CC[101CH:1]([101O:1]c2ccc3c(c2)CN(C(=O)C(NC(=O)C(C)NC)C(C)(C)C)C(C(=O)NC2CCCc4ccccc42)C3)CN1c1ccc([100NH:0][100C:0](=O)N2CCCC(n3nc(-c4ccc(Oc5ccc(F)cc5F)cc4)c(C(N)=O)c3N)C2)c(C)c1C

> <Shape>
0.356

> <Color>
0.069

> <Negative vol penalty>
0.000

$$$$

  -OEChem-04042322153D

 88 96  0     1  0  0  0  0  0999 V2000
  -17.5993  -26.0769   23.1434 C   0  0  0  0  0  0  0  0  0  0  0  0
  -18.8601  -25.6893   22.7009 C   0  0  0  0  0  0  0  0  0  0  0  0
  -23.6637  -12.4258   19.4655 C   0  0  0  0  0  0  0  0  0  0  0  0
  -24.8825  -13.3113   17.5767 C   0  0  0  0  0  0  0  0  0  0  0  0
  -17.2124  -27.4136   23.0582 C   0  0  0  0  0  0  0  0  0  0  0  0
  -19.7343  -26.6382   22.1720 C   0  0  0  0  0  0  0  0  0  0  0  0
  -25.8343  -26.7274   22.7085 C   0  0  0  0  0  0  0  0  0  0  0  0
  -27.3302  -23.3628   18.2000 C   0  0  0  0  0  0  0  0  0  0  0  0
  -27.1213  -22.3800   19.1674 C   0  0  0  0  0  0  0  0  0  0  0  0
  -22.7683  -11.8032   18.5959 C   0  0  0  0  0  0  0  0  0  0  0  0
  -23.9871  -12.6887   16.7071 C   0  0  0  0  0  0  0  0  0  0  0  0
  -26.8571  -26.3183   21.8540 C   0  0  0  0  0  0  0  0  0  0  0  0
  -22.2327  -11.0353   13.9856 C   0  0  0  0  0  0  0  0  0  0  0  0
  -22.7603  -10.3538   12.8889 C   0  0  0  0  0  0  0  0  0  0  0  0
  -28.1771  -20.7457   17.7350 C   0  0  0  0  0  0  0  0  0  0  0  0
  -27.0771  -28.5800   21.0444 C   0  0  0  0  0  0  0  0  0  0  0  0
  -23.9861   -8.9017   14.3809 C   0  0  0  0  0  0  0  0  0  0  0  0
  -24.7208  -13.1799   18.9559 C   0  0  0  0  0  0  0  0  0  0  0  0
  -28.3860  -21.7286   16.7676 C   0  0  0  0  0  0  0  0  0  0  0  0
  -26.8396  -13.2876   20.3725 C   0  0  0  0  0  0  0  0  0  0  0  0
  -18.0860  -28.3810   22.5369 C   0  0  0  0  0  0  0  0  0  0  0  0
  -25.4171  -28.0660   22.7295 C   0  0  0  0  0  0  0  0  0  0  0  0
  -19.3582  -27.9889   22.0785 C   0  0  0  0  0  0  0  0  0  0  0  0
  -26.0505  -29.0040   21.9019 C   0  0  0  0  0  0  0  0  0  0  0  0
  -27.9625  -23.0371   17.0000 C   0  0  0  0  0  0  0  0  0  0  0  0
  -27.5448  -21.0714   18.9350 C   0  0  0  0  0  0  0  0  0  0  0  0
  -22.9300  -11.9347   17.2167 C   0  0  0  0  0  0  0  0  0  0  0  0
  -27.4768  -27.2440   21.0196 C   0  0  0  0  0  0  0  0  0  0  0  0
  -22.5819  -10.6500   15.2800 C   0  0  0  0  0  0  0  0  0  0  0  0
  -23.6370   -9.2870   13.0865 C   0  0  0  0  0  0  0  0  0  0  0  0
  -23.4585   -9.5832   15.4776 C   0  0  0  0  0  0  0  0  0  0  0  0
  -25.6458  -13.8237   19.8538 C   0  0  0  0  0  0  0  0  0  0  0  0
  -27.3475  -14.2861   21.1673 C   0  0  0  0  0  0  0  0  0  0  0  0
  -29.0493  -21.3618   15.5236 C   0  0  0  0  0  0  0  0  0  0  0  0
  -27.4362  -12.0021   20.1554 C   0  0  0  0  0  0  0  0  0  0  0  0
  -22.6944  -29.5772   22.0917 C   0  0  0  0  0  0  0  0  0  0  0  0
  -24.3183  -32.1557   23.2037 C   0  0  0  0  0  0  0  0  0  0  0  0
  -30.1437  -25.4461   16.7489 C   0  0  0  0  0  0  0  0  0  0  0  0
  -27.3293  -33.6518   23.7887 C   0  0  0  0  0  0  0  0  0  0  0  0
  -26.7171  -20.2281   21.1598 C   0  0  0  0  0  0  0  0  0  0  0  0
  -17.6055  -29.8060   22.4213 C   0  0  0  0  0  0  0  0  0  0  0  0
  -24.3305  -28.4965   23.6763 C   0  0  0  0  0  0  0  0  0  0  0  0
  -25.6535  -30.4569   21.9011 C   0  0  0  0  0  0  0  0  0  0  0  0
  -18.7312  -30.8118   22.1941 C   0  0  0  0  0  0  0  0  0  0  0  0
  -25.9666  -18.0105   23.8424 C   0  0  0  0  0  0  0  0  0  0  0  0
  -19.6816  -30.3134   21.1101 C   0  0  0  0  0  0  0  0  0  0  0  0
  -25.9138  -16.6356   23.1722 C   0  0  0  0  0  0  0  0  0  0  0  0
  -25.3972  -19.1036   22.9398 C   0  0  0  0  0  0  0  0  0  0  0  0
  -25.9301  -17.7907   20.9245 C   0  0  0  0  0  0  0  0  0  0  0  0
  -20.3440  -28.9930   21.5215 C   0  0  1  0  0  0  0  0  0  0  0  0
  -23.6366  -29.7844   23.2436 C   0  0  1  0  0  0  0  0  0  0  0  0
  -26.5524  -16.6674   21.7698 C   0  0  2  0  0  0  0  0  0  0  0  0
  -30.4397  -20.8071   15.6194 C   0  0  0  0  0  0  0  0  0  0  0  0
  -32.4064  -24.8159   17.5443 C   0  0  0  0  0  0  0  0  0  0  0  0
  -28.3359  -35.7746   24.6708 C   0  0  0  0  0  0  0  0  0  0  0  0
  -23.5924  -33.5775   20.6035 C   0  0  0  0  0  0  0  0  0  0  0  0
  -25.3684  -35.2670   21.1129 C   0  0  0  0  0  0  0  0  0  0  0  0
  -23.4241  -35.0009   22.6529 C   0  0  0  0  0  0  0  0  0  0  0  0
  -28.7298  -32.2193   25.9671 C   0  0  0  0  0  0  0  0  0  0  0  0
  -28.1745  -24.1129   15.9775 C   0  0  0  0  0  0  0  0  0  0  0  0
  -31.6009  -25.7317   16.6367 C   0  0  0  0  0  0  0  0  0  0  0  0
  -30.1193  -27.2095   18.4742 C   0  0  0  0  0  0  0  0  0  0  0  0
  -29.0658  -27.8485   19.3567 C   0  0  0  0  0  0  0  0  0  1  0  0
  -25.2059  -33.2085   22.5850 C   0  0  1  0  0  0  0  0  0  0  0  0
  -27.8795  -34.3644   25.0110 C   0  0  2  0  0  0  0  0  0  0  0  0
  -24.4041  -34.2358   21.7369 C   0  0  0  0  0  0  0  0  0  0  0  0
  -25.4092  -15.0662   20.2830 N   0  0  0  0  0  0  0  0  0  0  0  0
  -26.4613  -15.3191   21.0799 N   0  0  0  0  0  0  0  0  0  0  0  0
  -24.5817  -30.8275   22.8400 N   0  0  0  0  0  0  0  0  0  0  0  0
  -26.0524  -19.0759   21.6303 N   0  0  0  0  0  0  0  0  0  0  0  0
  -28.4612  -14.3723   21.9254 N   0  0  0  0  0  0  0  0  0  0  0  0
  -26.7820  -11.0962   19.3094 N   0  0  0  0  0  0  0  0  0  0  0  0
  -27.3305  -20.0729   19.9172 N   0  0  0  0  0  0  0  0  0  0  0  0
  -21.4098  -29.2362   22.4699 N   0  0  0  0  0  0  0  0  0  0  0  0
  -29.4830  -26.1880   17.6456 N   0  0  0  0  0  0  0  0  0  0  0  0
  -25.9627  -33.8009   23.6826 N   0  0  0  0  0  0  0  0  0  0  0  0
  -29.5872  -24.5048   15.9809 N   0  3  0  0  0  0  0  0  0  0  0  0
  -29.0416  -33.6158   25.5677 N   0  3  0  0  0  0  0  0  0  0  0  0
  -28.5554  -21.4778   14.4015 O   0  0  0  0  0  0  0  0  0  0  0  0
  -28.5091  -11.6606   20.7084 O   0  0  0  0  0  0  0  0  0  0  0  0
  -23.1022  -29.7179   20.9447 O   0  0  0  0  0  0  0  0  0  0  0  0
  -23.4289  -32.4985   23.9866 O   0  0  0  0  0  0  0  0  0  0  0  0
  -28.0413  -33.0287   23.0042 O   0  0  0  0  0  0  0  0  0  0  0  0
  -26.7637  -21.2669   21.8236 O   0  0  0  0  0  0  0  0  0  0  0  0
  -22.0566  -11.3271   16.3678 O   0  0  0  0  0  0  0  0  0  0  0  0
  -28.4749  -26.8473   20.1841 O   0  0  0  0  0  0  0  0  0  1  0  0
  -24.1424   -8.6317   12.0332 F   0  0  0  0  0  0  0  0  0  0  0  0
  -23.7967   -9.2078   16.7188 F   0  0  0  0  0  0  0  0  0  0  0  0
  1  2  1  0  0  0  0
  1  5  2  0  0  0  0
  2  6  2  0  0  0  0
  3 10  2  0  0  0  0
  3 18  1  0  0  0  0
  4 11  1  0  0  0  0
  4 18  2  0  0  0  0
  5 21  1  0  0  0  0
  6 23  1  0  0  0  0
  7 12  2  0  0  0  0
  7 22  1  0  0  0  0
  8  9  2  0  0  0  0
  8 25  1  0  0  0  0
  9 26  1  0  0  0  0
 10 27  1  0  0  0  0
 11 27  2  0  0  0  0
 12 28  1  0  0  0  0
 13 14  2  0  0  0  0
 13 29  1  0  0  0  0
 14 30  1  0  0  0  0
 15 19  1  0  0  0  0
 15 26  2  0  0  0  0
 16 24  1  0  0  0  0
 16 28  2  0  0  0  0
 17 30  2  0  0  0  0
 17 31  1  0  0  0  0
 18 32  1  0  0  0  0
 19 25  2  0  0  0  0
 19 34  1  0  0  0  0
 20 32  1  0  0  0  0
 20 33  2  0  0  0  0
 20 35  1  0  0  0  0
 21 23  2  0  0  0  0
 21 41  1  0  0  0  0
 22 24  2  0  0  0  0
 22 42  1  0  0  0  0
 23 50  1  0  0  0  0
 24 43  1  0  0  0  0
 25 60  1  0  0  0  0
 26 73  1  0  0  0  0
 27 85  1  0  0  0  0
 28 86  1  0  0  0  0
 29 31  2  0  0  0  0
 29 85  1  0  0  0  0
 30 87  1  0  0  0  0
 31 88  1  0  0  0  0
 32 67  2  0  0  0  0
 33 68  1  0  0  0  0
 33 71  1  0  0  0  0
 34 53  1  0  0  0  0
 34 79  2  0  0  0  0
 35 72  1  0  0  0  0
 35 80  2  0  0  0  0
 36 51  1  0  0  0  0
 36 74  1  0  0  0  0
 36 81  2  0  0  0  0
 37 64  1  0  0  0  0
 37 69  1  0  0  0  0
 37 82  2  0  0  0  0
 38 61  1  0  0  0  0
 38 75  1  0  0  0  0
 38 77  2  0  0  0  0
 39 65  1  0  0  0  0
 39 76  1  0  0  0  0
 39 83  2  0  0  0  0
 40 70  1  0  0  0  0
 40 73  1  0  0  0  0
 40 84  2  0  0  0  0
 41 44  1  0  0  0  0
 42 51  1  0  0  0  0
 43 69  1  0  0  0  0
 44 46  1  0  0  0  0
 45 47  1  0  0  0  0
 45 48  1  0  0  0  0
 46 50  1  0  0  0  0
 47 52  1  0  0  0  0
 48 70  1  0  0  0  0
 49 52  1  0  0  0  0
 49 70  1  0  0  0  0
 50 74  1  0  0  0  0
 51 69  1  0  0  0  0
 52 68  1  0  0  0  0
 54 61  1  0  0  0  0
 55 65  1  0  0  0  0
 56 66  1  0  0  0  0
 57 66  1  0  0  0  0
 58 66  1  0  0  0  0
 59 78  1  0  0  0  0
 60 77  1  0  0  0  0
 62 63  1  0  0  0  0
 62 75  1  0  0  0  0
 63 86  1  0  0  0  0
 64 66  1  0  0  0  0
 64 76  1  0  0  0  0
 65 78  1  0  0  0  0
 67 68  1  0  0  0  0
M  CHG  2  77   1  78   1
M  ISO  4  40 100  63 101  73 100  86 101
M  END
> <Batch ID>
0043

> <Smiles>
CCC(=NC[101CH2:1][101O:1]c1ccc2c(c1)CN(C(=O)C(NC(=O)C(C)NC)C(C)(C)C)C(C(=O)NC1CCCc3ccccc31)C2)NCc1ccc([100NH:0][100C:0](=O)N2CCCC(n3nc(-c4ccc(Oc5ccc(F)cc5F)cc4)c(C(N)=O)c3N)C2)cc1C(C)=O

> <Shape>
0.226

> <Color>
0.089

> <Negative vol penalty>
0.000

$$$$

  -OEChem-04042322153D

 87 96  0     1  0  0  0  0  0999 V2000
  -16.6818  -29.7923   23.9907 C   0  0  0  0  0  0  0  0  0  0  0  0
  -17.7910  -30.4947   24.4508 C   0  0  0  0  0  0  0  0  0  0  0  0
  -28.8978  -17.1070   20.8734 C   0  0  0  0  0  0  0  0  0  0  0  0
  -26.7514  -17.5438   19.8541 C   0  0  0  0  0  0  0  0  0  0  0  0
  -16.8561  -28.6292   23.2418 C   0  0  0  0  0  0  0  0  0  0  0  0
  -19.0753  -30.0337   24.1634 C   0  0  0  0  0  0  0  0  0  0  0  0
  -25.6988  -32.4216   22.8430 C   0  0  0  0  0  0  0  0  0  0  0  0
  -29.0690  -16.0021   20.0395 C   0  0  0  0  0  0  0  0  0  0  0  0
  -26.9226  -16.4389   19.0201 C   0  0  0  0  0  0  0  0  0  0  0  0
  -27.0128  -32.2467   23.2748 C   0  0  0  0  0  0  0  0  0  0  0  0
  -27.9865  -12.8036   19.8895 C   0  0  0  0  0  0  0  0  0  0  0  0
  -28.4547  -11.6233   20.4667 C   0  0  0  0  0  0  0  0  0  0  0  0
  -27.1930  -30.2689   21.9054 C   0  0  0  0  0  0  0  0  0  0  0  0
  -31.0426  -27.1319   20.6161 C   0  0  0  0  0  0  0  0  0  0  0  0
  -32.3119  -25.1014   20.9369 C   0  0  0  0  0  0  0  0  0  0  0  0
  -30.3780  -11.6716   19.0053 C   0  0  0  0  0  0  0  0  0  0  0  0
  -27.7389  -17.8778   20.7808 C   0  0  0  0  0  0  0  0  0  0  0  0
  -27.5249  -19.0241   23.0496 C   0  0  0  0  0  0  0  0  0  0  0  0
  -18.1432  -28.1590   22.9368 C   0  0  0  0  0  0  0  0  0  0  0  0
  -25.1174  -31.5139   21.9460 C   0  0  0  0  0  0  0  0  0  0  0  0
  -19.2669  -28.8624   23.4109 C   0  0  0  0  0  0  0  0  0  0  0  0
  -25.8723  -30.4361   21.4618 C   0  0  0  0  0  0  0  0  0  0  0  0
  -32.2241  -27.8731   20.6321 C   0  0  0  0  0  0  0  0  0  0  0  0
  -33.4496  -27.2284   20.8005 C   0  0  0  0  0  0  0  0  0  0  0  0
  -31.0864  -25.7461   20.7686 C   0  0  0  0  0  0  0  0  0  0  0  0
  -28.0814  -15.6681   19.1128 C   0  0  0  0  0  0  0  0  0  0  0  0
  -27.7592  -31.1686   22.8082 C   0  0  0  0  0  0  0  0  0  0  0  0
  -28.7140  -13.4179   18.8702 C   0  0  0  0  0  0  0  0  0  0  0  0
  -29.6505  -11.0573   20.0247 C   0  0  0  0  0  0  0  0  0  0  0  0
  -29.9097  -12.8519   18.4281 C   0  0  0  0  0  0  0  0  0  0  0  0
  -33.4935  -25.8425   20.9529 C   0  0  0  0  0  0  0  0  0  0  0  0
  -27.5613  -19.0190   21.6424 C   0  0  0  0  0  0  0  0  0  0  0  0
  -27.3364  -20.3431   23.3834 C   0  0  0  0  0  0  0  0  0  0  0  0
  -32.7787  -31.4676   21.4899 C   0  0  0  0  0  0  0  0  0  0  0  0
  -34.0739  -31.7733   21.6602 C   0  0  0  0  0  0  0  0  0  0  0  0
  -27.6502  -17.9342   23.9727 C   0  0  0  0  0  0  0  0  0  0  0  0
  -22.6408  -29.5245   22.0576 C   0  0  0  0  0  0  0  0  0  0  0  0
  -23.3505  -29.0855   18.9230 C   0  0  0  0  0  0  0  0  0  0  0  0
  -26.3310  -28.6973   16.9271 C   0  0  0  0  0  0  0  0  0  0  0  0
  -28.5875  -25.4782   20.5958 C   0  0  0  0  0  0  0  0  0  0  0  0
  -18.2813  -26.8711   22.1643 C   0  0  0  0  0  0  0  0  0  0  0  0
  -23.7076  -31.7317   21.4693 C   0  0  0  0  0  0  0  0  0  0  0  0
  -25.3013  -29.4447   20.4822 C   0  0  0  0  0  0  0  0  0  0  0  0
  -31.7447  -32.4792   21.0762 C   0  0  0  0  0  0  0  0  0  0  0  0
  -19.6770  -26.6550   21.5851 C   0  0  0  0  0  0  0  0  0  0  0  0
  -30.5511  -32.4349   22.0226 C   0  0  0  0  0  0  0  0  0  0  0  0
  -25.3882  -24.3868   21.7141 C   0  0  0  0  0  0  0  0  0  0  0  0
  -20.7426  -26.9470   22.6368 C   0  0  0  0  0  0  0  0  0  0  0  0
  -25.5807  -22.8880   21.9565 C   0  0  0  0  0  0  0  0  0  0  0  0
  -26.1797  -24.8713   20.5006 C   0  0  0  0  0  0  0  0  0  0  0  0
  -27.8012  -23.0347   20.7585 C   0  0  0  0  0  0  0  0  0  0  0  0
  -31.1888  -30.0882   22.6946 C   0  0  0  0  0  0  0  0  0  0  0  0
  -20.6761  -28.4078   23.0986 C   0  0  1  0  0  0  0  0  0  0  0  0
  -23.0481  -30.4570   20.9521 C   0  0  1  0  0  0  0  0  0  0  0  0
  -27.0748  -22.5130   22.0091 C   0  0  2  0  0  0  0  0  0  0  0  0
  -30.0583  -31.0028   22.2298 C   0  0  1  0  0  0  0  0  0  1  0  0
  -34.7084  -28.0387   20.8166 C   0  0  0  0  0  0  0  0  0  0  0  0
  -26.7584  -29.2303   14.5125 C   0  0  0  0  0  0  0  0  0  0  0  0
  -22.6199  -26.1614   18.4483 C   0  0  0  0  0  0  0  0  0  0  0  0
  -24.4180  -26.0669   16.7087 C   0  0  0  0  0  0  0  0  0  0  0  0
  -22.4829  -27.6139   16.4170 C   0  0  0  0  0  0  0  0  0  0  0  0
  -28.6469  -30.4144   17.5959 C   0  0  0  0  0  0  0  0  0  0  0  0
  -32.1480  -29.3623   20.4670 C   0  0  0  0  0  0  0  0  0  0  0  0
  -24.2446  -28.1458   18.1507 C   0  0  1  0  0  0  0  0  0  0  0  0
  -26.9077  -29.7053   15.9494 C   0  0  2  0  0  0  0  0  0  0  0  0
  -23.4474  -27.0047   17.4579 C   0  0  0  0  0  0  0  0  0  0  0  0
  -27.4081  -20.2379   21.1181 N   0  0  0  0  0  0  0  0  0  0  0  0
  -27.2735  -21.0213   22.2018 N   0  0  0  0  0  0  0  0  0  0  0  0
  -23.9165  -29.6970   20.0507 N   0  0  0  0  0  0  0  0  0  0  0  0
  -27.5868  -24.4839   20.6220 N   0  0  0  0  0  0  0  0  0  0  0  0
  -27.2200  -20.9772   24.5694 N   0  0  0  0  0  0  0  0  0  0  0  0
  -26.4883  -17.2597   24.3718 N   0  0  0  0  0  0  0  0  0  0  0  0
  -29.8858  -24.9939   20.7526 N   0  0  0  0  0  0  0  0  0  0  0  0
  -21.2824  -29.2774   22.1134 N   0  0  0  0  0  0  0  0  0  0  0  0
  -25.0162  -28.9777   17.2337 N   0  0  0  0  0  0  0  0  0  0  0  0
  -32.3681  -30.1097   21.7531 N   0  3  1  0  0  0  0  0  0  0  0  0
  -28.3560  -29.9234   16.2243 N   0  3  0  0  0  0  0  0  0  0  0  0
  -28.7580  -17.5797   24.4426 O   0  0  0  0  0  0  0  0  0  0  0  0
  -23.4959  -29.0622   22.8038 O   0  0  0  0  0  0  0  0  0  0  0  0
  -22.1949  -29.2757   18.5358 O   0  0  0  0  0  0  0  0  0  0  0  0
  -26.9807  -27.7534   17.3714 O   0  0  0  0  0  0  0  0  0  0  0  0
  -28.3109  -26.6742   20.4728 O   0  0  0  0  0  0  0  0  0  0  0  0
  -28.2482  -14.5901   18.2987 O   0  0  0  0  0  0  0  0  0  0  0  0
  -29.0418  -30.9950   23.2285 O   0  0  0  0  0  0  0  0  0  1  0  0
  -30.1008   -9.9246   20.5801 F   0  0  0  0  0  0  0  0  0  0  0  0
  -30.6136  -13.4381   17.4499 F   0  0  0  0  0  0  0  0  0  0  0  0
  -34.9899  -25.0066   21.1612 Cl  0  0  0  0  0  0  0  0  0  0  0  0
  1  2  1  0  0  0  0
  1  5  2  0  0  0  0
  2  6  2  0  0  0  0
  3  8  2  0  0  0  0
  3 17  1  0  0  0  0
  4  9  1  0  0  0  0
  4 17  2  0  0  0  0
  5 19  1  0  0  0  0
  6 21  1  0  0  0  0
  7 10  2  0  0  0  0
  7 20  1  0  0  0  0
  8 26  1  0  0  0  0
  9 26  2  0  0  0  0
 10 27  1  0  0  0  0
 11 12  2  0  0  0  0
 11 28  1  0  0  0  0
 12 29  1  0  0  0  0
 13 22  1  0  0  0  0
 13 27  2  0  0  0  0
 14 23  1  0  0  0  0
 14 25  2  0  0  0  0
 15 25  1  0  0  0  0
 15 31  2  0  0  0  0
 16 29  2  0  0  0  0
 16 30  1  0  0  0  0
 17 32  1  0  0  0  0
 18 32  1  0  0  0  0
 18 33  2  0  0  0  0
 18 36  1  0  0  0  0
 19 21  2  0  0  0  0
 19 41  1  0  0  0  0
 20 22  2  0  0  0  0
 20 42  1  0  0  0  0
 21 53  1  0  0  0  0
 22 43  1  0  0  0  0
 23 24  2  0  0  0  0
 23 63  1  0  0  0  0
 24 31  1  0  0  0  0
 24 57  1  0  0  0  0
 25 73  1  0  0  0  0
 26 83  1  0  0  0  0
 27 84  1  0  0  0  0
 28 30  2  0  0  0  0
 28 83  1  0  0  0  0
 29 85  1  0  0  0  0
 30 86  1  0  0  0  0
 31 87  1  0  0  0  0
 32 67  2  0  0  0  0
 33 68  1  0  0  0  0
 33 71  1  0  0  0  0
 34 35  2  0  0  0  0
 34 44  1  0  0  0  0
 34 76  1  0  0  0  0
 36 72  1  0  0  0  0
 36 78  2  0  0  0  0
 37 54  1  0  0  0  0
 37 74  1  0  0  0  0
 37 79  2  0  0  0  0
 38 64  1  0  0  0  0
 38 69  1  0  0  0  0
 38 80  2  0  0  0  0
 39 65  1  0  0  0  0
 39 75  1  0  0  0  0
 39 81  2  0  0  0  0
 40 70  1  0  0  0  0
 40 73  1  0  0  0  0
 40 82  2  0  0  0  0
 41 45  1  0  0  0  0
 42 54  1  0  0  0  0
 43 69  1  0  0  0  0
 44 46  1  0  0  0  0
 45 48  1  0  0  0  0
 46 56  1  0  0  0  0
 47 49  1  0  0  0  0
 47 50  1  0  0  0  0
 48 53  1  0  0  0  0
 49 55  1  0  0  0  0
 50 70  1  0  0  0  0
 51 55  1  0  0  0  0
 51 70  1  0  0  0  0
 52 56  1  0  0  0  0
 52 76  1  0  0  0  0
 53 74  1  0  0  0  0
 54 69  1  0  0  0  0
 55 68  1  0  0  0  0
 56 84  1  0  0  0  0
 58 65  1  0  0  0  0
 59 66  1  0  0  0  0
 60 66  1  0  0  0  0
 61 66  1  0  0  0  0
 62 77  1  0  0  0  0
 63 76  1  0  0  0  0
 64 66  1  0  0  0  0
 64 75  1  0  0  0  0
 65 77  1  0  0  0  0
 67 68  1  0  0  0  0
M  CHG  2  76   1  77   1
M  ISO  4  40 100  56 101  73 100  84 101
M  END
> <Batch ID>
0043

> <Smiles>
C=C1CC[101CH:1]([101O:1]c2ccc3c(c2)CN(C(=O)C(NC(=O)C(C)NC)C(C)(C)C)C(C(=O)NC2CCCc4ccccc42)C3)CN1Cc1cc([100NH:0][100C:0](=O)N2CCCC(n3nc(-c4ccc(Oc5ccc(F)cc5F)cc4)c(C(N)=O)c3N)C2)cc(Cl)c1C

> <Shape>
0.243

> <Color>
0.115

> <Negative vol penalty>
0.000

$$$$

  -OEChem-04042322153D

 90 99  0     1  0  0  0  0  0999 V2000
  -22.7528  -34.2718   27.3638 C   0  0  0  0  0  0  0  0  0  0  0  0
  -23.7234  -33.2860   27.2167 C   0  0  0  0  0  0  0  0  0  0  0  0
  -23.0150  -11.4554   23.0833 C   0  0  0  0  0  0  0  0  0  0  0  0
  -23.2583   -9.9932   21.1755 C   0  0  0  0  0  0  0  0  0  0  0  0
  -21.5230  -34.1391   26.7204 C   0  0  0  0  0  0  0  0  0  0  0  0
  -23.4643  -32.1663   26.4270 C   0  0  0  0  0  0  0  0  0  0  0  0
  -27.4717  -29.1048   22.9524 C   0  0  0  0  0  0  0  0  0  0  0  0
  -22.1645  -10.5282   23.6855 C   0  0  0  0  0  0  0  0  0  0  0  0
  -22.4078   -9.0660   21.7776 C   0  0  0  0  0  0  0  0  0  0  0  0
  -28.1939  -27.9315   23.1659 C   0  0  0  0  0  0  0  0  0  0  0  0
  -22.6077   -6.6991   24.1814 C   0  0  0  0  0  0  0  0  0  0  0  0
  -22.9891   -5.3577   24.1522 C   0  0  0  0  0  0  0  0  0  0  0  0
  -26.4976  -26.6809   21.9921 C   0  0  0  0  0  0  0  0  0  0  0  0
  -32.2674  -19.0207   22.4466 C   0  0  0  0  0  0  0  0  0  0  0  0
  -32.3218  -16.7945   21.5096 C   0  0  0  0  0  0  0  0  0  0  0  0
  -20.9711   -4.8104   22.9416 C   0  0  0  0  0  0  0  0  0  0  0  0
  -23.5618  -11.1879   21.8283 C   0  0  0  0  0  0  0  0  0  0  0  0
  -24.1375  -13.4756   20.8574 C   0  0  0  0  0  0  0  0  0  0  0  0
  -21.2523  -33.0220   25.9146 C   0  0  0  0  0  0  0  0  0  0  0  0
  -26.2496  -29.0733   22.2654 C   0  0  0  0  0  0  0  0  0  0  0  0
  -22.2292  -32.0179   25.7733 C   0  0  0  0  0  0  0  0  0  0  0  0
  -25.7631  -27.8556   21.7689 C   0  0  0  0  0  0  0  0  0  0  0  0
  -32.9848  -17.8835   22.0755 C   0  0  0  0  0  0  0  0  0  0  0  0
  -30.8871  -19.0690   22.2518 C   0  0  0  0  0  0  0  0  0  0  0  0
  -30.9414  -16.8428   21.3148 C   0  0  0  0  0  0  0  0  0  0  0  0
  -21.8609   -9.3335   23.0326 C   0  0  0  0  0  0  0  0  0  0  0  0
  -27.7054  -26.7189   22.6882 C   0  0  0  0  0  0  0  0  0  0  0  0
  -21.4080   -7.0962   23.5908 C   0  0  0  0  0  0  0  0  0  0  0  0
  -22.1708   -4.4134   23.5323 C   0  0  0  0  0  0  0  0  0  0  0  0
  -20.5898   -6.1518   22.9709 C   0  0  0  0  0  0  0  0  0  0  0  0
  -30.2241  -17.9801   21.6859 C   0  0  0  0  0  0  0  0  0  0  0  0
  -24.4400  -12.1456   21.2055 C   0  0  0  0  0  0  0  0  0  0  0  0
  -25.2971  -13.9571   20.3006 C   0  0  0  0  0  0  0  0  0  0  0  0
  -28.5725  -21.9689   21.8296 C   0  0  0  0  0  0  0  0  0  0  0  0
  -22.9173  -14.2103   21.0225 C   0  0  0  0  0  0  0  0  0  0  0  0
  -27.3838  -21.5932   21.3262 C   0  0  0  0  0  0  0  0  0  0  0  0
  -23.2426  -29.7926   23.0032 C   0  0  0  0  0  0  0  0  0  0  0  0
  -22.7392  -29.2028   19.8534 C   0  0  0  0  0  0  0  0  0  0  0  0
  -23.7627  -27.6363   16.9994 C   0  0  0  0  0  0  0  0  0  0  0  0
  -30.8353  -14.5321   20.3168 C   0  0  0  0  0  0  0  0  0  0  0  0
  -19.8909  -32.8995   25.2772 C   0  0  0  0  0  0  0  0  0  0  0  0
  -25.4958  -30.3516   22.0201 C   0  0  0  0  0  0  0  0  0  0  0  0
  -24.4662  -27.7709   21.0077 C   0  0  0  0  0  0  0  0  0  0  0  0
  -19.8340  -31.8645   24.1565 C   0  0  0  0  0  0  0  0  0  0  0  0
  -29.5189  -11.5495   18.8859 C   0  0  0  0  0  0  0  0  0  0  0  0
  -30.8286  -23.4188   21.2235 C   0  0  0  0  0  0  0  0  0  0  0  0
  -20.5118  -30.5690   24.5913 C   0  0  0  0  0  0  0  0  0  0  0  0
  -30.2549  -23.6772   22.6082 C   0  0  0  0  0  0  0  0  0  0  0  0
  -28.0553  -11.5481   19.3331 C   0  0  0  0  0  0  0  0  0  0  0  0
  -30.4425  -12.1032   19.9694 C   0  0  0  0  0  0  0  0  0  0  0  0
  -28.6011  -13.4207   20.9401 C   0  0  0  0  0  0  0  0  0  0  0  0
  -30.8241  -21.9381   20.8511 C   0  0  0  0  0  0  0  0  0  0  0  0
  -21.9949  -30.8008   24.9051 C   0  0  1  0  0  0  0  0  0  0  0  0
  -28.7936  -23.1975   22.7018 C   0  0  1  0  0  0  0  0  0  0  0  0
  -24.0101  -30.1278   21.7557 C   0  0  1  0  0  0  0  0  0  0  0  0
  -27.6250  -12.9321   19.8575 C   0  0  2  0  0  0  0  0  0  0  0  0
  -34.4606  -17.8320   22.2839 C   0  0  0  0  0  0  0  0  0  0  0  0
  -27.2376  -20.3698   20.4732 C   0  0  0  0  0  0  0  0  0  0  0  0
  -26.1323  -22.3754   21.5869 C   0  0  0  0  0  0  0  0  0  0  0  0
  -23.1266  -27.3121   14.5937 C   0  0  0  0  0  0  0  0  0  0  0  0
  -20.5548  -27.2467   20.6971 C   0  0  0  0  0  0  0  0  0  0  0  0
  -20.6245  -26.2812   18.3882 C   0  0  0  0  0  0  0  0  0  0  0  0
  -19.9769  -28.6670   18.7215 C   0  0  0  0  0  0  0  0  0  0  0  0
  -26.2758  -28.8761   16.0472 C   0  0  0  0  0  0  0  0  0  0  0  0
  -30.1188  -20.2939   22.6522 C   0  0  0  0  0  0  0  0  0  0  0  0
  -27.8488  -24.3652   22.3790 C   0  0  0  0  0  0  0  0  0  1  0  0
  -22.3901  -27.9821   19.0367 C   0  0  1  0  0  0  0  0  0  0  0  0
  -23.9346  -28.1426   15.5786 C   0  0  2  0  0  0  0  0  0  0  0  0
  -20.9101  -27.5452   19.2269 C   0  0  0  0  0  0  0  0  0  0  0  0
  -25.6935  -11.8038   20.8957 N   0  0  0  0  0  0  0  0  0  0  0  0
  -26.1889  -12.9262   20.3470 N   0  0  0  0  0  0  0  0  0  0  0  0
  -23.7627  -29.0473   20.7989 N   0  0  0  0  0  0  0  0  0  0  0  0
  -29.9753  -13.4179   20.4144 N   0  0  0  0  0  0  0  0  0  0  0  0
  -25.6307  -15.1574   19.7807 N   0  0  0  0  0  0  0  0  0  0  0  0
  -21.9717  -14.1761   19.9887 N   0  0  0  0  0  0  0  0  0  0  0  0
  -30.2707  -15.7351   20.7397 N   0  0  0  0  0  0  0  0  0  0  0  0
  -22.7615  -30.8962   23.6814 N   0  0  0  0  0  0  0  0  0  0  0  0
  -22.7476  -28.2975   17.6579 N   0  0  0  0  0  0  0  0  0  0  0  0
  -29.7027  -21.1399   21.4774 N   0  3  1  0  0  0  0  0  0  0  0  0
  -25.3687  -28.0836   15.1776 N   0  3  0  0  0  0  0  0  0  0  0  0
  -22.6800  -14.8906   22.0494 O   0  0  0  0  0  0  0  0  0  0  0  0
  -23.0964  -28.6194   23.3257 O   0  0  0  0  0  0  0  0  0  0  0  0
  -22.1311  -30.2575   19.6546 O   0  0  0  0  0  0  0  0  0  0  0  0
  -24.4569  -26.7411   17.4761 O   0  0  0  0  0  0  0  0  0  0  0  0
  -31.9786  -14.4318   19.8642 O   0  0  0  0  0  0  0  0  0  0  0  0
  -21.0312   -8.4284   23.6200 O   0  0  0  0  0  0  0  0  0  0  0  0
  -28.4080  -25.5721   22.8958 O   0  0  0  0  0  0  0  0  0  1  0  0
  -22.5379   -3.1255   23.5029 F   0  0  0  0  0  0  0  0  0  0  0  0
  -19.4366   -6.5275   22.4008 F   0  0  0  0  0  0  0  0  0  0  0  0
  -28.8963  -18.0284   21.4993 F   0  0  0  0  0  0  0  0  0  0  0  0
  1  2  1  0  0  0  0
  1  5  2  0  0  0  0
  2  6  2  0  0  0  0
  3  8  2  0  0  0  0
  3 17  1  0  0  0  0
  4  9  1  0  0  0  0
  4 17  2  0  0  0  0
  5 19  1  0  0  0  0
  6 21  1  0  0  0  0
  7 10  2  0  0  0  0
  7 20  1  0  0  0  0
  8 26  1  0  0  0  0
  9 26  2  0  0  0  0
 10 27  1  0  0  0  0
 11 12  2  0  0  0  0
 11 28  1  0  0  0  0
 12 29  1  0  0  0  0
 13 22  1  0  0  0  0
 13 27  2  0  0  0  0
 14 23  2  0  0  0  0
 14 24  1  0  0  0  0
 15 23  1  0  0  0  0
 15 25  2  0  0  0  0
 16 29  2  0  0  0  0
 16 30  1  0  0  0  0
 17 32  1  0  0  0  0
 18 32  1  0  0  0  0
 18 33  2  0  0  0  0
 18 35  1  0  0  0  0
 19 21  2  0  0  0  0
 19 41  1  0  0  0  0
 20 22  2  0  0  0  0
 20 42  1  0  0  0  0
 21 53  1  0  0  0  0
 22 43  1  0  0  0  0
 23 57  1  0  0  0  0
 24 31  2  0  0  0  0
 24 65  1  0  0  0  0
 25 31  1  0  0  0  0
 25 76  1  0  0  0  0
 26 86  1  0  0  0  0
 27 87  1  0  0  0  0
 28 30  2  0  0  0  0
 28 86  1  0  0  0  0
 29 88  1  0  0  0  0
 30 89  1  0  0  0  0
 31 90  1  0  0  0  0
 32 70  2  0  0  0  0
 33 71  1  0  0  0  0
 33 74  1  0  0  0  0
 34 36  2  0  0  0  0
 34 54  1  0  0  0  0
 34 79  1  0  0  0  0
 35 75  1  0  0  0  0
 35 81  2  0  0  0  0
 36 58  1  0  0  0  0
 36 59  1  0  0  0  0
 37 55  1  0  0  0  0
 37 77  1  0  0  0  0
 37 82  2  0  0  0  0
 38 67  1  0  0  0  0
 38 72  1  0  0  0  0
 38 83  2  0  0  0  0
 39 68  1  0  0  0  0
 39 78  1  0  0  0  0
 39 84  2  0  0  0  0
 40 73  1  0  0  0  0
 40 76  1  0  0  0  0
 40 85  2  0  0  0  0
 41 44  1  0  0  0  0
 42 55  1  0  0  0  0
 43 72  1  0  0  0  0
 44 47  1  0  0  0  0
 45 49  1  0  0  0  0
 45 50  1  0  0  0  0
 46 48  1  0  0  0  0
 46 52  1  0  0  0  0
 47 53  1  0  0  0  0
 48 54  1  0  0  0  0
 49 56  1  0  0  0  0
 50 73  1  0  0  0  0
 51 56  1  0  0  0  0
 51 73  1  0  0  0  0
 52 79  1  0  0  0  0
 53 77  1  0  0  0  0
 54 66  1  0  0  0  0
 55 72  1  0  0  0  0
 56 71  1  0  0  0  0
 60 68  1  0  0  0  0
 61 69  1  0  0  0  0
 62 69  1  0  0  0  0
 63 69  1  0  0  0  0
 64 80  1  0  0  0  0
 65 79  1  0  0  0  0
 66 87  1  0  0  0  0
 67 69  1  0  0  0  0
 67 78  1  0  0  0  0
 68 80  1  0  0  0  0
 70 71  1  0  0  0  0
M  CHG  2  79   1  80   1
M  ISO  4  40 100  66 101  76 100  87 101
M  END
> <Batch ID>
0043

> <Smiles>
CNC(C)C(=O)NC(C(=O)N1Cc2cc([101O:1][101CH2:1]C3CCCN(Cc4cc(C)cc([100NH:0][100C:0](=O)N5CCCC(n6nc(-c7ccc(Oc8ccc(F)cc8F)cc7)c(C(N)=O)c6N)C5)c4F)C3=C(C)C)ccc2CC1C(=O)NC1CCCc2ccccc21)C(C)(C)C

> <Shape>
0.263

> <Color>
0.132

> <Negative vol penalty>
0.000

$$$$

  -OEChem-04042322153D

 89 98  0     1  0  0  0  0  0999 V2000
  -23.5988  -30.9701   20.4912 C   0  0  0  0  0  0  0  0  0  0  0  0
  -24.7378  -31.0624   19.6993 C   0  0  0  0  0  0  0  0  0  0  0  0
  -22.6810  -10.1424   20.1742 C   0  0  0  0  0  0  0  0  0  0  0  0
  -24.3347   -9.3888   21.7662 C   0  0  0  0  0  0  0  0  0  0  0  0
  -23.6730  -30.3656   21.7444 C   0  0  0  0  0  0  0  0  0  0  0  0
  -25.9485  -30.5398   20.1551 C   0  0  0  0  0  0  0  0  0  0  0  0
  -33.4658  -27.0587   21.0352 C   0  0  0  0  0  0  0  0  0  0  0  0
  -30.3117  -18.8006   23.4504 C   0  0  0  0  0  0  0  0  0  0  0  0
  -29.8164  -17.6000   22.9416 C   0  0  0  0  0  0  0  0  0  0  0  0
  -21.9546   -8.9683   20.3729 C   0  0  0  0  0  0  0  0  0  0  0  0
  -23.6083   -8.2147   21.9649 C   0  0  0  0  0  0  0  0  0  0  0  0
  -34.0470  -26.2030   21.9700 C   0  0  0  0  0  0  0  0  0  0  0  0
  -20.8633   -7.2463   23.6818 C   0  0  0  0  0  0  0  0  0  0  0  0
  -20.6782   -6.8151   24.9953 C   0  0  0  0  0  0  0  0  0  0  0  0
  -31.9893  -24.9500   22.0933 C   0  0  0  0  0  0  0  0  0  0  0  0
  -31.8546  -17.2933   21.6811 C   0  0  0  0  0  0  0  0  0  0  0  0
  -21.8184   -4.7489   24.4777 C   0  0  0  0  0  0  0  0  0  0  0  0
  -23.8710  -10.3526   20.8708 C   0  0  0  0  0  0  0  0  0  0  0  0
  -24.1856  -12.8841   20.8922 C   0  0  0  0  0  0  0  0  0  0  0  0
  -24.8884  -29.8467   22.2202 C   0  0  0  0  0  0  0  0  0  0  0  0
  -32.1363  -26.8726   20.6299 C   0  0  0  0  0  0  0  0  0  0  0  0
  -26.0385  -29.9046   21.4069 C   0  0  0  0  0  0  0  0  0  0  0  0
  -31.3944  -25.8031   21.1513 C   0  0  0  0  0  0  0  0  0  0  0  0
  -31.5784  -19.2476   23.0745 C   0  0  0  0  0  0  0  0  0  0  0  0
  -30.5878  -16.8464   22.0570 C   0  0  0  0  0  0  0  0  0  0  0  0
  -22.4183   -8.0044   21.2683 C   0  0  0  0  0  0  0  0  0  0  0  0
  -33.3078  -25.1502   22.5014 C   0  0  0  0  0  0  0  0  0  0  0  0
  -21.5260   -6.4288   22.7661 C   0  0  0  0  0  0  0  0  0  0  0  0
  -21.1557   -5.5664   25.3933 C   0  0  0  0  0  0  0  0  0  0  0  0
  -22.0036   -5.1802   23.1641 C   0  0  0  0  0  0  0  0  0  0  0  0
  -32.3498  -18.4939   22.1899 C   0  0  0  0  0  0  0  0  0  0  0  0
  -24.6221  -11.5650   20.6656 C   0  0  0  0  0  0  0  0  0  0  0  0
  -25.2612  -13.6656   20.5478 C   0  0  0  0  0  0  0  0  0  0  0  0
  -34.3416  -20.9129   24.5268 C   0  0  0  0  0  0  0  0  0  0  0  0
  -32.7148  -19.5276   25.7806 C   0  0  0  0  0  0  0  0  0  0  0  0
  -34.5194  -22.0769   23.8754 C   0  0  0  0  0  0  0  0  0  0  0  0
  -22.9210  -13.3603   21.3714 C   0  0  0  0  0  0  0  0  0  0  0  0
  -29.4740  -28.6000   20.8087 C   0  0  0  0  0  0  0  0  0  0  0  0
  -28.2577  -26.1986   18.9988 C   0  0  0  0  0  0  0  0  0  0  0  0
  -28.4818  -22.5988   18.9051 C   0  0  0  0  0  0  0  0  0  0  0  0
  -30.7198  -14.7593   20.6523 C   0  0  0  0  0  0  0  0  0  0  0  0
  -24.9104  -29.1959   23.5808 C   0  0  0  0  0  0  0  0  0  0  0  0
  -31.5325  -27.7882   19.6006 C   0  0  0  0  0  0  0  0  0  0  0  0
  -29.9699  -25.5480   20.7339 C   0  0  0  0  0  0  0  0  0  0  0  0
  -35.5550  -20.0958   24.9185 C   0  0  0  0  0  0  0  0  0  0  0  0
  -33.4425  -19.7817   27.0899 C   0  0  0  0  0  0  0  0  0  0  0  0
  -26.3166  -29.0729   24.1584 C   0  0  0  0  0  0  0  0  0  0  0  0
  -35.8501  -20.0259   26.4089 C   0  0  0  0  0  0  0  0  0  0  0  0
  -34.8306  -19.1806   27.1562 C   0  0  0  0  0  0  0  0  0  0  0  0
  -29.5704  -12.4771   18.1729 C   0  0  0  0  0  0  0  0  0  0  0  0
  -27.2514  -28.4624   23.1249 C   0  0  0  0  0  0  0  0  0  0  0  0
  -28.1447  -12.1448   18.6190 C   0  0  0  0  0  0  0  0  0  0  0  0
  -30.5127  -12.6447   19.3636 C   0  0  0  0  0  0  0  0  0  0  0  0
  -28.6336  -13.2655   20.8308 C   0  0  0  0  0  0  0  0  0  0  0  0
  -27.3731  -29.3705   21.8947 C   0  0  1  0  0  0  0  0  0  0  0  0
  -30.0078  -27.8140   19.6447 C   0  0  1  0  0  0  0  0  0  0  0  0
  -27.6337  -13.1512   19.6686 C   0  0  2  0  0  0  0  0  0  0  0  0
  -28.2108  -20.9965   16.9928 C   0  0  0  0  0  0  0  0  0  0  0  0
  -25.3601  -26.0201   19.9380 C   0  0  0  0  0  0  0  0  0  0  0  0
  -25.4122  -23.5737   19.4082 C   0  0  0  0  0  0  0  0  0  0  0  0
  -25.7452  -25.2491   17.5903 C   0  0  0  0  0  0  0  0  0  0  0  0
  -31.1396  -21.3901   19.3893 C   0  0  0  0  0  0  0  0  0  0  0  0
  -32.0748  -20.5447   23.6447 C   0  0  0  0  0  0  0  0  0  0  0  0
  -33.4031  -22.9666   23.4388 C   0  0  0  0  0  0  0  0  0  1  0  0
  -27.5829  -24.8792   19.2868 C   0  0  1  0  0  0  0  0  0  0  0  0
  -29.1979  -21.7597   17.8622 C   0  0  2  0  0  0  0  0  0  0  0  0
  -26.0440  -24.9418   19.0738 C   0  0  0  0  0  0  0  0  0  0  0  0
  -25.8771  -11.5079   20.2120 N   0  0  0  0  0  0  0  0  0  0  0  0
  -26.2384  -12.8009   20.1508 N   0  0  0  0  0  0  0  0  0  0  0  0
  -33.0785  -20.3348   24.6939 N   0  0  0  0  0  0  0  0  0  0  0  0
  -29.4221  -26.4746   19.7295 N   0  0  0  0  0  0  0  0  0  0  0  0
  -29.9657  -13.6159   20.3137 N   0  0  0  0  0  0  0  0  0  0  0  0
  -25.4570  -15.0013   20.5486 N   0  0  0  0  0  0  0  0  0  0  0  0
  -21.9265  -12.4217   21.6786 N   0  0  0  0  0  0  0  0  0  0  0  0
  -30.0840  -15.6273   21.5394 N   0  0  0  0  0  0  0  0  0  0  0  0
  -28.0947  -28.6664   20.8577 N   0  0  0  0  0  0  0  0  0  0  0  0
  -28.2604  -23.8854   18.4613 N   0  0  0  0  0  0  0  0  0  0  0  0
  -30.1025  -20.7756   18.5211 N   0  3  0  0  0  0  0  0  0  0  0  0
  -31.7756  -18.7266   25.7640 O   0  0  0  0  0  0  0  0  0  0  0  0
  -22.6744  -14.5827   21.5071 O   0  0  0  0  0  0  0  0  0  0  0  0
  -30.2558  -29.1075   21.6044 O   0  0  0  0  0  0  0  0  0  0  0  0
  -27.7738  -26.9531   18.1515 O   0  0  0  0  0  0  0  0  0  0  0  0
  -28.1487  -22.1561   20.0021 O   0  0  0  0  0  0  0  0  0  0  0  0
  -31.8354  -14.9677   20.1685 O   0  0  0  0  0  0  0  0  0  0  0  0
  -21.7097   -6.8587   21.4626 O   0  0  0  0  0  0  0  0  0  0  0  0
  -33.8724  -24.3140   23.4145 O   0  0  0  0  0  0  0  0  0  1  0  0
  -20.9792   -5.1531   26.6551 F   0  0  0  0  0  0  0  0  0  0  0  0
  -22.6420   -4.3909   22.2893 F   0  0  0  0  0  0  0  0  0  0  0  0
  -33.9213  -19.0157   21.7019 Cl  0  0  0  0  0  0  0  0  0  0  0  0
  1  2  1  0  0  0  0
  1  5  2  0  0  0  0
  2  6  2  0  0  0  0
  3 10  2  0  0  0  0
  3 18  1  0  0  0  0
  4 11  1  0  0  0  0
  4 18  2  0  0  0  0
  5 20  1  0  0  0  0
  6 22  1  0  0  0  0
  7 12  2  0  0  0  0
  7 21  1  0  0  0  0
  8  9  2  0  0  0  0
  8 24  1  0  0  0  0
  9 25  1  0  0  0  0
 10 26  1  0  0  0  0
 11 26  2  0  0  0  0
 12 27  1  0  0  0  0
 13 14  2  0  0  0  0
 13 28  1  0  0  0  0
 14 29  1  0  0  0  0
 15 23  1  0  0  0  0
 15 27  2  0  0  0  0
 16 25  2  0  0  0  0
 16 31  1  0  0  0  0
 17 29  2  0  0  0  0
 17 30  1  0  0  0  0
 18 32  1  0  0  0  0
 19 32  1  0  0  0  0
 19 33  2  0  0  0  0
 19 37  1  0  0  0  0
 20 22  2  0  0  0  0
 20 42  1  0  0  0  0
 21 23  2  0  0  0  0
 21 43  1  0  0  0  0
 22 55  1  0  0  0  0
 23 44  1  0  0  0  0
 24 31  2  0  0  0  0
 24 63  1  0  0  0  0
 25 75  1  0  0  0  0
 26 85  1  0  0  0  0
 27 86  1  0  0  0  0
 28 30  2  0  0  0  0
 28 85  1  0  0  0  0
 29 87  1  0  0  0  0
 30 88  1  0  0  0  0
 31 89  1  0  0  0  0
 32 68  2  0  0  0  0
 33 69  1  0  0  0  0
 33 73  1  0  0  0  0
 34 36  2  0  0  0  0
 34 45  1  0  0  0  0
 34 70  1  0  0  0  0
 35 46  1  0  0  0  0
 35 70  1  0  0  0  0
 35 79  2  0  0  0  0
 36 64  1  0  0  0  0
 37 74  1  0  0  0  0
 37 80  2  0  0  0  0
 38 56  1  0  0  0  0
 38 76  1  0  0  0  0
 38 81  2  0  0  0  0
 39 65  1  0  0  0  0
 39 71  1  0  0  0  0
 39 82  2  0  0  0  0
 40 66  1  0  0  0  0
 40 77  1  0  0  0  0
 40 83  2  0  0  0  0
 41 72  1  0  0  0  0
 41 75  1  0  0  0  0
 41 84  2  0  0  0  0
 42 47  1  0  0  0  0
 43 56  1  0  0  0  0
 44 71  1  0  0  0  0
 45 48  1  0  0  0  0
 46 49  1  0  0  0  0
 47 51  1  0  0  0  0
 48 49  1  0  0  0  0
 50 52  1  0  0  0  0
 50 53  1  0  0  0  0
 51 55  1  0  0  0  0
 52 57  1  0  0  0  0
 53 72  1  0  0  0  0
 54 57  1  0  0  0  0
 54 72  1  0  0  0  0
 55 76  1  0  0  0  0
 56 71  1  0  0  0  0
 57 69  1  0  0  0  0
 58 66  1  0  0  0  0
 59 67  1  0  0  0  0
 60 67  1  0  0  0  0
 61 67  1  0  0  0  0
 62 78  1  0  0  0  0
 63 70  1  0  0  0  0
 64 86  1  0  0  0  0
 65 67  1  0  0  0  0
 65 77  1  0  0  0  0
 66 78  1  0  0  0  0
 68 69  1  0  0  0  0
M  CHG  1  78   1
M  ISO  4  41 100  64 101  75 100  86 101
M  END
> <Batch ID>
0043

> <Smiles>
CNC(C)C(=O)NC(C(=O)N1Cc2cc([101O:1][101CH2:1]C=C3CCCCC(=O)N3Cc3ccc([100NH:0][100C:0](=O)N4CCCC(n5nc(-c6ccc(Oc7ccc(F)cc7F)cc6)c(C(N)=O)c5N)C4)cc3Cl)ccc2CC1C(=O)NC1CCCc2ccccc21)C(C)(C)C

> <Shape>
0.324

> <Color>
0.221

> <Negative vol penalty>
0.000

$$$$

  -OEChem-04042322153D

 88 97  0     1  0  0  0  0  0999 V2000
  -21.1078  -37.4070   19.9158 C   0  0  0  0  0  0  0  0  0  0  0  0
  -21.3071  -36.3579   19.0241 C   0  0  0  0  0  0  0  0  0  0  0  0
  -22.7319  -10.4360   20.3232 C   0  0  0  0  0  0  0  0  0  0  0  0
  -24.5721   -8.9405   20.7857 C   0  0  0  0  0  0  0  0  0  0  0  0
  -21.9956  -37.5998   20.9734 C   0  0  0  0  0  0  0  0  0  0  0  0
  -22.3952  -35.5015   19.1890 C   0  0  0  0  0  0  0  0  0  0  0  0
  -24.3202  -28.6701   18.2180 C   0  0  0  0  0  0  0  0  0  0  0  0
  -21.8344   -9.4769   20.7924 C   0  0  0  0  0  0  0  0  0  0  0  0
  -23.6746   -7.9813   21.2550 C   0  0  0  0  0  0  0  0  0  0  0  0
  -25.3223  -27.9083   17.6188 C   0  0  0  0  0  0  0  0  0  0  0  0
  -21.9053   -7.3960   24.0741 C   0  0  0  0  0  0  0  0  0  0  0  0
  -22.2215   -6.7427   25.2652 C   0  0  0  0  0  0  0  0  0  0  0  0
  -26.7459  -28.2899   19.5285 C   0  0  0  0  0  0  0  0  0  0  0  0
  -28.6396  -19.5104   20.7591 C   0  0  0  0  0  0  0  0  0  0  0  0
  -22.2140   -4.6236   24.1048 C   0  0  0  0  0  0  0  0  0  0  0  0
  -24.1008  -10.1678   20.3198 C   0  0  0  0  0  0  0  0  0  0  0  0
  -25.0738  -11.7206   18.5451 C   0  0  0  0  0  0  0  0  0  0  0  0
  -23.0896  -36.7395   21.1569 C   0  0  0  0  0  0  0  0  0  0  0  0
  -24.5277  -29.2577   19.4742 C   0  0  0  0  0  0  0  0  0  0  0  0
  -23.2993  -35.6837   20.2493 C   0  0  0  0  0  0  0  0  0  0  0  0
  -25.7439  -29.0566   20.1426 C   0  0  0  0  0  0  0  0  0  0  0  0
  -28.4494  -20.8759   20.5476 C   0  0  0  0  0  0  0  0  0  0  0  0
  -27.1052  -20.3871   18.6004 C   0  0  0  0  0  0  0  0  0  0  0  0
  -27.6822  -21.3143   19.4683 C   0  0  0  0  0  0  0  0  0  0  0  0
  -27.2956  -19.0215   18.8119 C   0  0  0  0  0  0  0  0  0  0  0  0
  -28.0628  -18.5832   19.8912 C   0  0  0  0  0  0  0  0  0  0  0  0
  -22.3058   -8.2495   21.2583 C   0  0  0  0  0  0  0  0  0  0  0  0
  -26.5365  -27.7204   18.2727 C   0  0  0  0  0  0  0  0  0  0  0  0
  -21.7434   -6.6632   22.8983 C   0  0  0  0  0  0  0  0  0  0  0  0
  -22.3759   -5.3565   25.2806 C   0  0  0  0  0  0  0  0  0  0  0  0
  -21.8978   -5.2770   22.9137 C   0  0  0  0  0  0  0  0  0  0  0  0
  -25.0283  -11.1580   19.8348 C   0  0  0  0  0  0  0  0  0  0  0  0
  -26.1263  -12.6019   18.5919 C   0  0  0  0  0  0  0  0  0  0  0  0
  -27.7290  -24.5554   17.6008 C   0  0  0  0  0  0  0  0  0  0  0  0
  -27.0509  -24.4843   16.4434 C   0  0  0  0  0  0  0  0  0  0  0  0
  -24.2393  -11.4691   17.4067 C   0  0  0  0  0  0  0  0  0  0  0  0
  -24.5992  -32.2400   20.5715 C   0  0  0  0  0  0  0  0  0  0  0  0
  -24.8519  -30.7618   23.4479 C   0  0  0  0  0  0  0  0  0  0  0  0
  -26.6261  -27.9289   24.8059 C   0  0  0  0  0  0  0  0  0  0  0  0
  -29.0051  -16.6191   21.1564 C   0  0  0  0  0  0  0  0  0  0  0  0
  -24.0490  -37.0161   22.2873 C   0  0  0  0  0  0  0  0  0  0  0  0
  -23.4269  -30.0544   20.1189 C   0  0  0  0  0  0  0  0  0  0  0  0
  -26.0092  -29.6490   21.5017 C   0  0  0  0  0  0  0  0  0  0  0  0
  -24.9654  -35.8387   22.6104 C   0  0  0  0  0  0  0  0  0  0  0  0
  -29.7181  -13.2600   22.0972 C   0  0  0  0  0  0  0  0  0  0  0  0
  -30.0239  -24.7011   19.3130 C   0  0  0  0  0  0  0  0  0  0  0  0
  -25.5559  -35.2551   21.3307 C   0  0  0  0  0  0  0  0  0  0  0  0
  -29.4445  -25.9795   18.7177 C   0  0  0  0  0  0  0  0  0  0  0  0
  -28.5653  -12.4600   21.4864 C   0  0  0  0  0  0  0  0  0  0  0  0
  -29.2534  -14.6209   22.6127 C   0  0  0  0  0  0  0  0  0  0  0  0
  -27.3698  -14.6382   21.0250 C   0  0  0  0  0  0  0  0  0  0  0  0
  -29.7657  -23.4993   18.4101 C   0  0  0  0  0  0  0  0  0  0  0  0
  -24.4538  -34.7186   20.4092 C   0  0  1  0  0  0  0  0  0  0  0  0
  -27.9596  -25.8221   18.3940 C   0  0  1  0  0  0  0  0  0  1  0  0
  -23.9360  -31.0332   21.1726 C   0  0  1  0  0  0  0  0  0  0  0  0
  -27.8015  -13.2865   20.4333 C   0  0  2  0  0  0  0  0  0  0  0  0
  -29.0811  -21.8482   21.4894 C   0  0  0  0  0  0  0  0  0  0  0  0
  -26.2825  -20.8580   17.4427 C   0  0  0  0  0  0  0  0  0  0  0  0
  -26.6768  -18.0285   17.8782 C   0  0  0  0  0  0  0  0  0  0  0  0
  -26.0699  -26.4299   26.7400 C   0  0  0  0  0  0  0  0  0  0  0  0
  -26.6103  -32.6675   25.0561 C   0  0  0  0  0  0  0  0  0  0  0  0
  -27.4832  -30.6879   26.3159 C   0  0  0  0  0  0  0  0  0  0  0  0
  -25.0597  -31.2677   26.4310 C   0  0  0  0  0  0  0  0  0  0  0  0
  -26.7988  -25.5004   23.1232 C   0  0  0  0  0  0  0  0  0  0  0  0
  -27.4806  -22.7838   19.2431 C   0  0  0  0  0  0  0  0  0  0  0  0
  -25.9970  -30.2753   24.3029 C   0  0  1  0  0  0  0  0  0  0  0  0
  -26.0276  -26.5997   25.2293 C   0  0  2  0  0  0  0  0  0  0  0  0
  -26.2896  -31.2258   25.4981 C   0  0  0  0  0  0  0  0  0  0  0  0
  -25.9765  -11.6412   20.6419 N   0  0  0  0  0  0  0  0  0  0  0  0
  -26.6279  -12.5166   19.8573 N   0  0  0  0  0  0  0  0  0  0  0  0
  -24.9041  -30.4254   22.0878 N   0  0  0  0  0  0  0  0  0  0  0  0
  -28.5419  -15.3489   21.5598 N   0  0  0  0  0  0  0  0  0  0  0  0
  -26.6624  -13.4335   17.6736 N   0  0  0  0  0  0  0  0  0  0  0  0
  -24.6156  -10.4573   16.5129 N   0  0  0  0  0  0  0  0  0  0  0  0
  -28.2683  -17.2009   20.1253 N   0  0  0  0  0  0  0  0  0  0  0  0
  -23.9798  -33.4356   20.8820 N   0  0  0  0  0  0  0  0  0  0  0  0
  -25.6635  -28.9097   24.6932 N   0  0  0  0  0  0  0  0  0  0  0  0
  -28.2970  -23.3223   18.1005 N   0  3  1  0  0  0  0  0  0  0  0  0
  -26.7787  -25.4722   24.6084 N   0  3  0  0  0  0  0  0  0  0  0  0
  -23.1997  -12.1334   17.1797 O   0  0  0  0  0  0  0  0  0  0  0  0
  -25.5998  -32.0972   19.8786 O   0  0  0  0  0  0  0  0  0  0  0  0
  -23.9410  -31.4102   23.9690 O   0  0  0  0  0  0  0  0  0  0  0  0
  -27.8279  -28.0828   24.5996 O   0  0  0  0  0  0  0  0  0  0  0  0
  -29.9997  -17.1396   21.6680 O   0  0  0  0  0  0  0  0  0  0  0  0
  -21.4303   -7.3134   21.7164 O   0  0  0  0  0  0  0  0  0  0  0  0
  -27.5166  -26.9778   17.6898 O   0  0  0  0  0  0  0  0  0  1  0  0
  -22.6810   -4.7293   26.4241 F   0  0  0  0  0  0  0  0  0  0  0  0
  -21.7447   -4.5677   21.7870 F   0  0  0  0  0  0  0  0  0  0  0  0
  1  2  1  0  0  0  0
  1  5  2  0  0  0  0
  2  6  2  0  0  0  0
  3  8  2  0  0  0  0
  3 16  1  0  0  0  0
  4  9  1  0  0  0  0
  4 16  2  0  0  0  0
  5 18  1  0  0  0  0
  6 20  1  0  0  0  0
  7 10  2  0  0  0  0
  7 19  1  0  0  0  0
  8 27  1  0  0  0  0
  9 27  2  0  0  0  0
 10 28  1  0  0  0  0
 11 12  2  0  0  0  0
 11 29  1  0  0  0  0
 12 30  1  0  0  0  0
 13 21  1  0  0  0  0
 13 28  2  0  0  0  0
 14 22  2  0  0  0  0
 14 26  1  0  0  0  0
 15 30  2  0  0  0  0
 15 31  1  0  0  0  0
 16 32  1  0  0  0  0
 17 32  1  0  0  0  0
 17 33  2  0  0  0  0
 17 36  1  0  0  0  0
 18 20  2  0  0  0  0
 18 41  1  0  0  0  0
 19 21  2  0  0  0  0
 19 42  1  0  0  0  0
 20 53  1  0  0  0  0
 21 43  1  0  0  0  0
 22 24  1  0  0  0  0
 22 57  1  0  0  0  0
 23 24  2  0  0  0  0
 23 25  1  0  0  0  0
 23 58  1  0  0  0  0
 24 65  1  0  0  0  0
 25 26  2  0  0  0  0
 25 59  1  0  0  0  0
 26 75  1  0  0  0  0
 27 85  1  0  0  0  0
 28 86  1  0  0  0  0
 29 31  2  0  0  0  0
 29 85  1  0  0  0  0
 30 87  1  0  0  0  0
 31 88  1  0  0  0  0
 32 69  2  0  0  0  0
 33 70  1  0  0  0  0
 33 73  1  0  0  0  0
 34 35  2  0  0  0  0
 34 54  1  0  0  0  0
 34 78  1  0  0  0  0
 36 74  1  0  0  0  0
 36 80  2  0  0  0  0
 37 55  1  0  0  0  0
 37 76  1  0  0  0  0
 37 81  2  0  0  0  0
 38 66  1  0  0  0  0
 38 71  1  0  0  0  0
 38 82  2  0  0  0  0
 39 67  1  0  0  0  0
 39 77  1  0  0  0  0
 39 83  2  0  0  0  0
 40 72  1  0  0  0  0
 40 75  1  0  0  0  0
 40 84  2  0  0  0  0
 41 44  1  0  0  0  0
 42 55  1  0  0  0  0
 43 71  1  0  0  0  0
 44 47  1  0  0  0  0
 45 49  1  0  0  0  0
 45 50  1  0  0  0  0
 46 48  1  0  0  0  0
 46 52  1  0  0  0  0
 47 53  1  0  0  0  0
 48 54  1  0  0  0  0
 49 56  1  0  0  0  0
 50 72  1  0  0  0  0
 51 56  1  0  0  0  0
 51 72  1  0  0  0  0
 52 78  1  0  0  0  0
 53 76  1  0  0  0  0
 54 86  1  0  0  0  0
 55 71  1  0  0  0  0
 56 70  1  0  0  0  0
 60 67  1  0  0  0  0
 61 68  1  0  0  0  0
 62 68  1  0  0  0  0
 63 68  1  0  0  0  0
 64 79  1  0  0  0  0
 65 78  1  0  0  0  0
 66 68  1  0  0  0  0
 66 77  1  0  0  0  0
 67 79  1  0  0  0  0
 69 70  1  0  0  0  0
M  CHG  2  78   1  79   1
M  ISO  4  40 100  54 101  75 100  86 101
M  END
> <Batch ID>
0043

> <Smiles>
C=C1N(Cc2c(C)cc([100NH:0][100C:0](=O)N3CCCC(n4nc(-c5ccc(Oc6ccc(F)cc6F)cc5)c(C(N)=O)c4N)C3)c(C)c2C)CCC[101CH:1]1[101O:1]c1ccc2c(c1)CN(C(=O)C(NC(=O)C(C)NC)C(C)(C)C)C(C(=O)NC1CCCc3ccccc31)C2

> <Shape>
0.312

> <Color>
0.105

> <Negative vol penalty>
0.000

$$$$

  -OEChem-04042322153D

 84 92  0     1  0  0  0  0  0999 V2000
  -25.1065  -21.4305   38.3924 C   0  0  0  0  0  0  0  0  0  0  0  0
  -25.7486  -21.3879   37.1590 C   0  0  0  0  0  0  0  0  0  0  0  0
  -23.0757   -9.8686   19.9403 C   0  0  0  0  0  0  0  0  0  0  0  0
  -23.8355   -9.8746   22.2337 C   0  0  0  0  0  0  0  0  0  0  0  0
  -25.2938  -20.3981   39.3106 C   0  0  0  0  0  0  0  0  0  0  0  0
  -26.5794  -20.3133   36.8435 C   0  0  0  0  0  0  0  0  0  0  0  0
  -25.7986  -18.5652   32.1553 C   0  0  0  0  0  0  0  0  0  0  0  0
  -32.6751  -17.4652   23.4349 C   0  0  0  0  0  0  0  0  0  0  0  0
  -32.0665  -16.5898   22.5355 C   0  0  0  0  0  0  0  0  0  0  0  0
  -22.3314   -8.7156   20.1899 C   0  0  0  0  0  0  0  0  0  0  0  0
  -23.0913   -8.7216   22.4833 C   0  0  0  0  0  0  0  0  0  0  0  0
  -26.3531  -19.2934   31.1036 C   0  0  0  0  0  0  0  0  0  0  0  0
  -21.1055   -5.9846   23.8189 C   0  0  0  0  0  0  0  0  0  0  0  0
  -20.3492   -5.9408   24.9901 C   0  0  0  0  0  0  0  0  0  0  0  0
  -28.1801  -17.7224   30.9872 C   0  0  0  0  0  0  0  0  0  0  0  0
  -19.1052   -7.8787   24.2592 C   0  0  0  0  0  0  0  0  0  0  0  0
  -23.8277  -10.4481   20.9622 C   0  0  0  0  0  0  0  0  0  0  0  0
  -24.1703  -12.9732   20.8430 C   0  0  0  0  0  0  0  0  0  0  0  0
  -26.1197  -19.3056   39.0024 C   0  0  0  0  0  0  0  0  0  0  0  0
  -26.4374  -17.4143   32.6388 C   0  0  0  0  0  0  0  0  0  0  0  0
  -26.7790  -19.2660   37.7589 C   0  0  0  0  0  0  0  0  0  0  0  0
  -27.6302  -16.9799   32.0433 C   0  0  0  0  0  0  0  0  0  0  0  0
  -31.8960  -18.3399   24.1924 C   0  0  0  0  0  0  0  0  0  0  0  0
  -30.5084  -18.3392   24.0503 C   0  0  0  0  0  0  0  0  0  0  0  0
  -29.8998  -17.4638   23.1508 C   0  0  0  0  0  0  0  0  0  0  0  0
  -30.6789  -16.5891   22.3934 C   0  0  0  0  0  0  0  0  0  0  0  0
  -22.3392   -8.1421   21.4613 C   0  0  0  0  0  0  0  0  0  0  0  0
  -27.5456  -18.8737   30.5213 C   0  0  0  0  0  0  0  0  0  0  0  0
  -20.8617   -6.9755   22.8679 C   0  0  0  0  0  0  0  0  0  0  0  0
  -19.3491   -6.8879   25.2102 C   0  0  0  0  0  0  0  0  0  0  0  0
  -19.8616   -7.9225   23.0880 C   0  0  0  0  0  0  0  0  0  0  0  0
  -24.5972  -11.6388   20.7049 C   0  0  0  0  0  0  0  0  0  0  0  0
  -25.2627  -13.7225   20.4800 C   0  0  0  0  0  0  0  0  0  0  0  0
  -22.9000  -13.4892   21.2621 C   0  0  0  0  0  0  0  0  0  0  0  0
  -27.7000  -16.5529   35.4258 C   0  0  0  0  0  0  0  0  0  0  0  0
  -28.0355  -13.6863   33.9450 C   0  0  0  0  0  0  0  0  0  0  0  0
  -28.8003  -19.5290   27.1830 C   0  0  0  0  0  0  0  0  0  0  0  0
  -28.3130  -11.9518   31.0191 C   0  0  0  0  0  0  0  0  0  0  0  0
  -30.7292  -14.7664   20.6552 C   0  0  0  0  0  0  0  0  0  0  0  0
  -26.3289  -18.2367   40.0456 C   0  0  0  0  0  0  0  0  0  0  0  0
  -25.8123  -16.6249   33.7562 C   0  0  0  0  0  0  0  0  0  0  0  0
  -28.3448  -15.7398   32.5121 C   0  0  0  0  0  0  0  0  0  0  0  0
  -26.9295  -16.9493   39.4867 C   0  0  0  0  0  0  0  0  0  0  0  0
  -29.6141  -12.3537   18.2861 C   0  0  0  0  0  0  0  0  0  0  0  0
  -28.1103  -17.2636   38.5736 C   0  0  0  0  0  0  0  0  0  0  0  0
  -28.1744  -12.0624   18.7155 C   0  0  0  0  0  0  0  0  0  0  0  0
  -30.5293  -12.5818   19.4878 C   0  0  0  0  0  0  0  0  0  0  0  0
  -28.6225  -13.3064   20.8693 C   0  0  0  0  0  0  0  0  0  0  0  0
  -27.6685  -18.1050   37.3702 C   0  0  1  0  0  0  0  0  0  0  0  0
  -26.8160  -15.7564   34.5083 C   0  0  1  0  0  0  0  0  0  0  0  0
  -27.6496  -13.1338   19.6914 C   0  0  2  0  0  0  0  0  0  0  0  0
  -32.5729  -19.2668   25.1482 C   0  0  0  0  0  0  0  0  0  0  0  0
  -28.4105  -17.4648   23.0000 C   0  0  0  0  0  0  0  0  0  0  0  0
  -28.6134   -9.6246   30.1295 C   0  0  0  0  0  0  0  0  0  0  0  0
  -30.9876  -13.7772   34.7109 C   0  0  0  0  0  0  0  0  0  0  0  0
  -31.4083  -11.9728   33.0271 C   0  0  0  0  0  0  0  0  0  0  0  0
  -29.9104  -11.5356   34.9733 C   0  0  0  0  0  0  0  0  0  0  0  0
  -25.7319  -12.0462   29.5741 C   0  0  0  0  0  0  0  0  0  0  0  0
  -29.6725  -19.2817   24.8671 C   0  0  0  0  0  0  0  0  0  0  0  0
  -28.8567  -18.8550   28.5372 C   0  0  0  0  0  0  0  0  0  1  0  0
  -29.1075  -13.0365   33.1039 C   0  0  1  0  0  0  0  0  0  0  0  0
  -27.6125  -10.7013   30.5191 C   0  0  2  0  0  0  0  0  0  0  0  0
  -30.3413  -12.6050   33.9460 C   0  0  0  0  0  0  0  0  0  0  0  0
  -25.8620  -11.5428   20.2866 N   0  0  0  0  0  0  0  0  0  0  0  0
  -26.2393  -12.8263   20.1587 N   0  0  0  0  0  0  0  0  0  0  0  0
  -27.6973  -15.0056   33.6117 N   0  0  0  0  0  0  0  0  0  0  0  0
  -29.9706  -13.6125   20.3655 N   0  0  0  0  0  0  0  0  0  0  0  0
  -25.4735  -15.0539   20.4075 N   0  0  0  0  0  0  0  0  0  0  0  0
  -21.8878  -12.5802   21.5991 N   0  0  0  0  0  0  0  0  0  0  0  0
  -30.0821  -15.6914   21.4739 N   0  0  0  0  0  0  0  0  0  0  0  0
  -27.0128  -17.2724   36.3847 N   0  0  0  0  0  0  0  0  0  0  0  0
  -29.5548  -18.8486   26.2402 N   0  0  0  0  0  0  0  0  0  0  0  0
  -28.4588  -11.9419   32.3901 N   0  0  0  0  0  0  0  0  0  0  0  0
  -26.7753  -11.0178   29.3276 N   0  3  0  0  0  0  0  0  0  0  0  0
  -22.6641  -14.7199   21.3199 O   0  0  0  0  0  0  0  0  0  0  0  0
  -28.9157  -16.5161   35.2758 O   0  0  0  0  0  0  0  0  0  0  0  0
  -27.5123  -13.0446   34.8593 O   0  0  0  0  0  0  0  0  0  0  0  0
  -28.1562  -20.5542   26.9774 O   0  0  0  0  0  0  0  0  0  0  0  0
  -28.6961  -12.8461   30.2680 O   0  0  0  0  0  0  0  0  0  0  0  0
  -31.8583  -14.9349   20.1876 O   0  0  0  0  0  0  0  0  0  0  0  0
  -21.6129   -7.0171   21.7053 O   0  0  0  0  0  0  0  0  0  0  0  0
  -28.0893  -19.5830   29.4951 O   0  0  0  0  0  0  0  0  0  1  0  0
  -18.6218   -6.8448   26.3343 F   0  0  0  0  0  0  0  0  0  0  0  0
  -19.6220   -8.8761   22.1775 F   0  0  0  0  0  0  0  0  0  0  0  0
  1  2  1  0  0  0  0
  1  5  2  0  0  0  0
  2  6  2  0  0  0  0
  3 10  2  0  0  0  0
  3 17  1  0  0  0  0
  4 11  1  0  0  0  0
  4 17  2  0  0  0  0
  5 19  1  0  0  0  0
  6 21  1  0  0  0  0
  7 12  2  0  0  0  0
  7 20  1  0  0  0  0
  8  9  1  0  0  0  0
  8 23  2  0  0  0  0
  9 26  2  0  0  0  0
 10 27  1  0  0  0  0
 11 27  2  0  0  0  0
 12 28  1  0  0  0  0
 13 14  2  0  0  0  0
 13 29  1  0  0  0  0
 14 30  1  0  0  0  0
 15 22  1  0  0  0  0
 15 28  2  0  0  0  0
 16 30  2  0  0  0  0
 16 31  1  0  0  0  0
 17 32  1  0  0  0  0
 18 32  1  0  0  0  0
 18 33  2  0  0  0  0
 18 34  1  0  0  0  0
 19 21  2  0  0  0  0
 19 40  1  0  0  0  0
 20 22  2  0  0  0  0
 20 41  1  0  0  0  0
 21 49  1  0  0  0  0
 22 42  1  0  0  0  0
 23 24  1  0  0  0  0
 23 52  1  0  0  0  0
 24 25  2  0  0  0  0
 24 59  1  0  0  0  0
 25 26  1  0  0  0  0
 25 53  1  0  0  0  0
 26 70  1  0  0  0  0
 27 81  1  0  0  0  0
 28 82  1  0  0  0  0
 29 31  2  0  0  0  0
 29 81  1  0  0  0  0
 30 83  1  0  0  0  0
 31 84  1  0  0  0  0
 32 64  2  0  0  0  0
 33 65  1  0  0  0  0
 33 68  1  0  0  0  0
 34 69  1  0  0  0  0
 34 75  2  0  0  0  0
 35 50  1  0  0  0  0
 35 71  1  0  0  0  0
 35 76  2  0  0  0  0
 36 61  1  0  0  0  0
 36 66  1  0  0  0  0
 36 77  2  0  0  0  0
 37 60  1  0  0  0  0
 37 72  1  0  0  0  0
 37 78  2  0  0  0  0
 38 62  1  0  0  0  0
 38 73  1  0  0  0  0
 38 79  2  0  0  0  0
 39 67  1  0  0  0  0
 39 70  1  0  0  0  0
 39 80  2  0  0  0  0
 40 43  1  0  0  0  0
 41 50  1  0  0  0  0
 42 66  1  0  0  0  0
 43 45  1  0  0  0  0
 44 46  1  0  0  0  0
 44 47  1  0  0  0  0
 45 49  1  0  0  0  0
 46 51  1  0  0  0  0
 47 67  1  0  0  0  0
 48 51  1  0  0  0  0
 48 67  1  0  0  0  0
 49 71  1  0  0  0  0
 50 66  1  0  0  0  0
 51 65  1  0  0  0  0
 54 62  1  0  0  0  0
 55 63  1  0  0  0  0
 56 63  1  0  0  0  0
 57 63  1  0  0  0  0
 58 74  1  0  0  0  0
 59 72  1  0  0  0  0
 60 82  1  0  0  0  0
 61 63  1  0  0  0  0
 61 73  1  0  0  0  0
 62 74  1  0  0  0  0
 64 65  1  0  0  0  0
M  CHG  1  74   1
M  ISO  4  39 100  60 101  70 100  82 101
M  END
> <Batch ID>
0043

> <Smiles>
CNC(C)C(=O)NC(C(=O)N1Cc2cc([101O:1][101CH2:1]C(=O)NCc3c(C)ccc([100NH:0][100C:0](=O)N4CCCC(n5nc(-c6ccc(Oc7ccc(F)cc7F)cc6)c(C(N)=O)c5N)C4)c3C)ccc2CC1C(=O)NC1CCCc2ccccc21)C(C)(C)C

> <Shape>
0.162

> <Color>
0.192

> <Negative vol penalty>
0.000

$$$$

  -OEChem-04042322153D

 90 99  0     1  0  0  0  0  0999 V2000
  -31.4845  -18.2886   22.4258 C   0  0  0  0  0  0  0  0  0  0  0  0
  -30.1729  -18.5294   22.8191 C   0  0  0  0  0  0  0  0  0  0  0  0
  -28.2987  -25.3411   17.3811 C   0  0  0  0  0  0  0  0  0  0  0  0
  -29.4440  -26.3797   19.2376 C   0  0  0  0  0  0  0  0  0  0  0  0
  -31.7619  -17.2553   21.5332 C   0  0  0  0  0  0  0  0  0  0  0  0
  -29.1398  -17.7295   22.3294 C   0  0  0  0  0  0  0  0  0  0  0  0
  -24.6676  -18.4269   24.2570 C   0  0  0  0  0  0  0  0  0  0  0  0
  -29.1417  -24.2343   17.4801 C   0  0  0  0  0  0  0  0  0  0  0  0
  -30.2870  -25.2728   19.3367 C   0  0  0  0  0  0  0  0  0  0  0  0
  -23.8963  -19.5555   23.9829 C   0  0  0  0  0  0  0  0  0  0  0  0
  -29.4240  -21.4844   19.4273 C   0  0  0  0  0  0  0  0  0  0  0  0
  -28.8424  -20.2185   19.3598 C   0  0  0  0  0  0  0  0  0  0  0  0
  -22.5326  -18.2511   22.4801 C   0  0  0  0  0  0  0  0  0  0  0  0
  -17.4199  -28.4411   23.6093 C   0  0  0  0  0  0  0  0  0  0  0  0
  -19.6625  -27.8149   22.9647 C   0  0  0  0  0  0  0  0  0  0  0  0
  -30.1757  -19.7099   17.4102 C   0  0  0  0  0  0  0  0  0  0  0  0
  -28.4498  -26.4138   18.2598 C   0  0  0  0  0  0  0  0  0  0  0  0
  -27.4227  -28.4101   17.0482 C   0  0  0  0  0  0  0  0  0  0  0  0
  -30.7297  -16.4508   21.0232 C   0  0  0  0  0  0  0  0  0  0  0  0
  -24.3835  -17.2025   23.6354 C   0  0  0  0  0  0  0  0  0  0  0  0
  -29.4024  -16.6666   21.4463 C   0  0  0  0  0  0  0  0  0  0  0  0
  -23.3003  -17.1079   22.7501 C   0  0  0  0  0  0  0  0  0  0  0  0
  -18.3745  -27.4549   23.3611 C   0  0  0  0  0  0  0  0  0  0  0  0
  -17.7532  -29.7875   23.4610 C   0  0  0  0  0  0  0  0  0  0  0  0
  -19.0412  -30.1475   23.0647 C   0  0  0  0  0  0  0  0  0  0  0  0
  -19.9959  -29.1613   22.8165 C   0  0  0  0  0  0  0  0  0  0  0  0
  -30.1359  -24.2001   18.4579 C   0  0  0  0  0  0  0  0  0  0  0  0
  -22.8304  -19.4684   23.0921 C   0  0  0  0  0  0  0  0  0  0  0  0
  -30.3814  -21.8632   18.4862 C   0  0  0  0  0  0  0  0  0  0  0  0
  -29.2182  -19.3312   18.3512 C   0  0  0  0  0  0  0  0  0  0  0  0
  -30.7573  -20.9759   17.4777 C   0  0  0  0  0  0  0  0  0  0  0  0
  -27.5796  -27.5577   18.1576 C   0  0  0  0  0  0  0  0  0  0  0  0
  -26.4891  -29.3324   17.4532 C   0  0  0  0  0  0  0  0  0  0  0  0
  -20.2080  -23.2150   24.5228 C   0  0  0  0  0  0  0  0  0  0  0  0
  -18.9109  -23.8634   24.3494 C   0  0  0  0  0  0  0  0  0  0  0  0
  -17.7791  -23.1649   24.1420 C   0  0  0  0  0  0  0  0  0  0  0  0
  -20.6311  -22.2261   23.7163 C   0  0  0  0  0  0  0  0  0  0  0  0
  -28.0636  -28.3715   15.7662 C   0  0  0  0  0  0  0  0  0  0  0  0
  -25.9587  -15.2681   21.6656 C   0  0  0  0  0  0  0  0  0  0  0  0
  -23.4009  -13.3322   22.1477 C   0  0  0  0  0  0  0  0  0  0  0  0
  -20.8196  -11.0998   22.1353 C   0  0  0  0  0  0  0  0  0  0  0  0
  -22.1785  -28.7647   21.6069 C   0  0  0  0  0  0  0  0  0  0  0  0
  -31.0873  -15.3412   20.0660 C   0  0  0  0  0  0  0  0  0  0  0  0
  -25.2085  -15.9880   23.9623 C   0  0  0  0  0  0  0  0  0  0  0  0
  -22.9412  -15.8118   22.0720 C   0  0  0  0  0  0  0  0  0  0  0  0
  -21.0807  -23.7020   25.6598 C   0  0  0  0  0  0  0  0  0  0  0  0
  -29.8909  -14.8392   19.2642 C   0  0  0  0  0  0  0  0  0  0  0  0
  -20.3256  -24.0704   26.9455 C   0  0  0  0  0  0  0  0  0  0  0  0
  -25.3078  -30.9722   21.8498 C   0  0  0  0  0  0  0  0  0  0  0  0
  -19.6797  -25.4597   26.9103 C   0  0  0  0  0  0  0  0  0  0  0  0
  -28.7247  -14.5493   20.1971 C   0  0  0  0  0  0  0  0  0  0  0  0
  -25.8157  -30.8507   20.4150 C   0  0  0  0  0  0  0  0  0  0  0  0
  -23.8152  -30.6875   21.9601 C   0  0  0  0  0  0  0  0  0  0  0  0
  -24.4387  -28.7036   20.5703 C   0  0  0  0  0  0  0  0  0  0  0  0
  -18.4850  -25.6264   25.9718 C   0  0  0  0  0  0  0  0  0  0  0  0
  -28.2588  -15.8290   20.9030 C   0  0  1  0  0  0  0  0  0  0  0  0
  -25.1470  -14.9149   22.8797 C   0  0  1  0  0  0  0  0  0  0  0  0
  -25.1625  -29.6894   19.6398 C   0  0  2  0  0  0  0  0  0  0  0  0
  -16.7117  -30.8235   23.7313 C   0  0  0  0  0  0  0  0  0  0  0  0
  -19.3934  -31.5935   22.9062 C   0  0  0  0  0  0  0  0  0  0  0  0
  -19.8327   -9.2371   20.7739 C   0  0  0  0  0  0  0  0  0  0  0  0
  -22.2570  -15.3731   20.1890 C   0  0  0  0  0  0  0  0  0  0  0  0
  -20.5830  -13.6514   19.4807 C   0  0  0  0  0  0  0  0  0  0  0  0
  -23.0188  -13.2342   19.1406 C   0  0  0  0  0  0  0  0  0  0  0  0
  -21.2054   -9.1421   24.3211 C   0  0  0  0  0  0  0  0  0  0  0  0
  -18.0156  -26.0067   23.5192 C   0  0  0  0  0  0  0  0  0  0  0  0
  -21.9485  -21.5391   23.8606 C   0  0  0  0  0  0  0  0  0  1  0  0
  -22.0606  -13.1450   21.4785 C   0  0  1  0  0  0  0  0  0  0  0  0
  -20.7859   -9.6002   21.9018 C   0  0  2  0  0  0  0  0  0  0  0  0
  -21.9819  -13.8588   20.0995 C   0  0  0  0  0  0  0  0  0  0  0  0
  -26.8076  -27.9076   19.1899 N   0  0  0  0  0  0  0  0  0  0  0  0
  -26.1567  -28.9900   18.7309 N   0  0  0  0  0  0  0  0  0  0  0  0
  -23.7816  -14.6540   22.4193 N   0  0  0  0  0  0  0  0  0  0  0  0
  -23.4315  -29.3883   21.3890 N   0  0  0  0  0  0  0  0  0  0  0  0
  -25.9282  -30.3948   16.8375 N   0  0  0  0  0  0  0  0  0  0  0  0
  -28.9976  -27.3567   15.5164 N   0  0  0  0  0  0  0  0  0  0  0  0
  -21.3107  -29.5050   22.4140 N   0  0  0  0  0  0  0  0  0  0  0  0
  -27.2988  -15.4805   21.9271 N   0  0  0  0  0  0  0  0  0  0  0  0
  -21.8311  -11.7054   21.4202 N   0  0  0  0  0  0  0  0  0  0  0  0
  -18.8586  -25.2986   24.5466 N   0  3  2  0  0  0  0  0  0  0  0  0
  -20.3434   -8.8935   23.1370 N   0  3  0  0  0  0  0  0  0  0  0  0
  -27.8276  -29.2216   14.8746 O   0  0  0  0  0  0  0  0  0  0  0  0
  -25.4101  -15.3409   20.5722 O   0  0  0  0  0  0  0  0  0  0  0  0
  -24.0816  -12.3418   22.4257 O   0  0  0  0  0  0  0  0  0  0  0  0
  -20.0255  -11.6768   22.8750 O   0  0  0  0  0  0  0  0  0  0  0  0
  -21.9025  -27.6728   21.1055 O   0  0  0  0  0  0  0  0  0  0  0  0
  -30.9585  -23.1201   18.5551 O   0  0  0  0  0  0  0  0  0  0  0  0
  -22.0764  -20.5686   22.8222 O   0  0  0  0  0  0  0  0  0  1  0  0
  -28.6607  -18.1149   18.2874 F   0  0  0  0  0  0  0  0  0  0  0  0
  -31.6774  -21.3337   16.5715 F   0  0  0  0  0  0  0  0  0  0  0  0
  1  2  1  0  0  0  0
  1  5  2  0  0  0  0
  2  6  2  0  0  0  0
  3  8  2  0  0  0  0
  3 17  1  0  0  0  0
  4  9  1  0  0  0  0
  4 17  2  0  0  0  0
  5 19  1  0  0  0  0
  6 21  1  0  0  0  0
  7 10  2  0  0  0  0
  7 20  1  0  0  0  0
  8 27  1  0  0  0  0
  9 27  2  0  0  0  0
 10 28  1  0  0  0  0
 11 12  2  0  0  0  0
 11 29  1  0  0  0  0
 12 30  1  0  0  0  0
 13 22  1  0  0  0  0
 13 28  2  0  0  0  0
 14 23  1  0  0  0  0
 14 24  2  0  0  0  0
 15 23  2  0  0  0  0
 15 26  1  0  0  0  0
 16 30  2  0  0  0  0
 16 31  1  0  0  0  0
 17 32  1  0  0  0  0
 18 32  1  0  0  0  0
 18 33  2  0  0  0  0
 18 38  1  0  0  0  0
 19 21  2  0  0  0  0
 19 43  1  0  0  0  0
 20 22  2  0  0  0  0
 20 44  1  0  0  0  0
 21 56  1  0  0  0  0
 22 45  1  0  0  0  0
 23 66  1  0  0  0  0
 24 25  1  0  0  0  0
 24 59  1  0  0  0  0
 25 26  2  0  0  0  0
 25 60  1  0  0  0  0
 26 77  1  0  0  0  0
 27 87  1  0  0  0  0
 28 88  1  0  0  0  0
 29 31  2  0  0  0  0
 29 87  1  0  0  0  0
 30 89  1  0  0  0  0
 31 90  1  0  0  0  0
 32 71  2  0  0  0  0
 33 72  1  0  0  0  0
 33 75  1  0  0  0  0
 34 35  1  0  0  0  0
 34 37  2  0  0  0  0
 34 46  1  0  0  0  0
 35 36  2  0  0  0  0
 35 80  1  0  0  0  0
 37 67  1  0  0  0  0
 38 76  1  0  0  0  0
 38 82  2  0  0  0  0
 39 57  1  0  0  0  0
 39 78  1  0  0  0  0
 39 83  2  0  0  0  0
 40 68  1  0  0  0  0
 40 73  1  0  0  0  0
 40 84  2  0  0  0  0
 41 69  1  0  0  0  0
 41 79  1  0  0  0  0
 41 85  2  0  0  0  0
 42 74  1  0  0  0  0
 42 77  1  0  0  0  0
 42 86  2  0  0  0  0
 43 47  1  0  0  0  0
 44 57  1  0  0  0  0
 45 73  1  0  0  0  0
 46 48  1  0  0  0  0
 47 51  1  0  0  0  0
 48 50  1  0  0  0  0
 49 52  1  0  0  0  0
 49 53  1  0  0  0  0
 50 55  1  0  0  0  0
 51 56  1  0  0  0  0
 52 58  1  0  0  0  0
 53 74  1  0  0  0  0
 54 58  1  0  0  0  0
 54 74  1  0  0  0  0
 55 80  1  0  0  0  0
 56 78  1  0  0  0  0
 57 73  1  0  0  0  0
 58 72  1  0  0  0  0
 61 69  1  0  0  0  0
 62 70  1  0  0  0  0
 63 70  1  0  0  0  0
 64 70  1  0  0  0  0
 65 81  1  0  0  0  0
 66 80  1  0  0  0  0
 67 88  1  0  0  0  0
 68 70  1  0  0  0  0
 68 79  1  0  0  0  0
 69 81  1  0  0  0  0
 71 72  1  0  0  0  0
M  CHG  2  80   1  81   1
M  ISO  4  42 100  67 101  77 100  88 101
M  END
> <Batch ID>
0043

> <Smiles>
C=C1C(=C[101CH2:1][101O:1]c2ccc3c(c2)CN(C(=O)C(NC(=O)C(C)NC)C(C)(C)C)C(C(=O)NC2CCCc4ccccc42)C3)CCCCN1Cc1cc(C)c(C)c([100NH:0][100C:0](=O)N2CCCC(n3nc(-c4ccc(Oc5ccc(F)cc5F)cc4)c(C(N)=O)c3N)C2)c1

> <Shape>
0.236

> <Color>
0.067

> <Negative vol penalty>
0.000

$$$$

  -OEChem-04042322153D

 88 97  0     1  0  0  0  0  0999 V2000
  -28.5312  -37.7393   20.7227 C   0  0  0  0  0  0  0  0  0  0  0  0
  -28.9040  -36.4383   20.4007 C   0  0  0  0  0  0  0  0  0  0  0  0
  -23.6233   -9.0521   19.7563 C   0  0  0  0  0  0  0  0  0  0  0  0
  -24.0872   -9.1860   22.1236 C   0  0  0  0  0  0  0  0  0  0  0  0
  -27.6231  -37.9676   21.7558 C   0  0  0  0  0  0  0  0  0  0  0  0
  -28.3698  -35.3647   21.1124 C   0  0  0  0  0  0  0  0  0  0  0  0
  -26.9998  -29.8123   18.9217 C   0  0  0  0  0  0  0  0  0  0  0  0
  -22.2769   -8.8158   20.0335 C   0  0  0  0  0  0  0  0  0  0  0  0
  -22.7408   -8.9497   22.4008 C   0  0  0  0  0  0  0  0  0  0  0  0
  -27.6841  -28.5979   18.9495 C   0  0  0  0  0  0  0  0  0  0  0  0
  -20.6468   -6.2973   22.5048 C   0  0  0  0  0  0  0  0  0  0  0  0
  -20.3434   -5.3752   23.5064 C   0  0  0  0  0  0  0  0  0  0  0  0
  -26.4246  -27.9398   20.8988 C   0  0  0  0  0  0  0  0  0  0  0  0
  -28.6419  -18.1547   20.0153 C   0  0  0  0  0  0  0  0  0  0  0  0
  -30.7917  -19.8078   20.6701 C   0  0  0  0  0  0  0  0  0  0  0  0
  -19.1874   -7.0990   24.7431 C   0  0  0  0  0  0  0  0  0  0  0  0
  -24.5285   -9.2371   20.8014 C   0  0  0  0  0  0  0  0  0  0  0  0
  -26.8046   -8.6370   19.8179 C   0  0  0  0  0  0  0  0  0  0  0  0
  -27.0701  -36.8958   22.4741 C   0  0  0  0  0  0  0  0  0  0  0  0
  -26.0289  -30.1045   19.8903 C   0  0  0  0  0  0  0  0  0  0  0  0
  -27.4545  -35.5789   22.1570 C   0  0  0  0  0  0  0  0  0  0  0  0
  -25.7276  -29.1575   20.8796 C   0  0  0  0  0  0  0  0  0  0  0  0
  -28.5071  -19.5405   19.9309 C   0  0  0  0  0  0  0  0  0  0  0  0
  -29.5820  -20.3670   20.2582 C   0  0  0  0  0  0  0  0  0  0  0  0
  -29.8516  -17.5955   20.4272 C   0  0  0  0  0  0  0  0  0  0  0  0
  -21.8356   -8.7646   21.3557 C   0  0  0  0  0  0  0  0  0  0  0  0
  -27.3986  -27.6626   19.9399 C   0  0  0  0  0  0  0  0  0  0  0  0
  -20.2205   -7.6203   22.6223 C   0  0  0  0  0  0  0  0  0  0  0  0
  -19.6138   -5.7761   24.6256 C   0  0  0  0  0  0  0  0  0  0  0  0
  -19.4908   -8.0211   23.7414 C   0  0  0  0  0  0  0  0  0  0  0  0
  -30.9265  -18.4220   20.7545 C   0  0  0  0  0  0  0  0  0  0  0  0
  -25.9196   -9.4807   20.5157 C   0  0  0  0  0  0  0  0  0  0  0  0
  -27.9978   -9.3171   19.8162 C   0  0  0  0  0  0  0  0  0  0  0  0
  -28.8833  -23.6895   18.6803 C   0  0  0  0  0  0  0  0  0  0  0  0
  -27.6504  -23.7423   18.1484 C   0  0  0  0  0  0  0  0  0  0  0  0
  -26.5690   -7.3533   19.2244 C   0  0  0  0  0  0  0  0  0  0  0  0
  -25.7026  -32.3257   22.1405 C   0  0  0  0  0  0  0  0  0  0  0  0
  -22.7786  -30.9698   22.5066 C   0  0  0  0  0  0  0  0  0  0  0  0
  -20.7917  -28.2211   22.1276 C   0  0  0  0  0  0  0  0  0  0  0  0
  -28.9674  -15.2381   20.2145 C   0  0  0  0  0  0  0  0  0  0  0  0
  -26.1285  -37.1946   23.6137 C   0  0  0  0  0  0  0  0  0  0  0  0
  -25.2807  -31.4080   19.8306 C   0  0  0  0  0  0  0  0  0  0  0  0
  -24.6797  -29.4144   21.9304 C   0  0  0  0  0  0  0  0  0  0  0  0
  -25.3225  -35.9819   24.0719 C   0  0  0  0  0  0  0  0  0  0  0  0
  -29.8144  -12.6013   22.8705 C   0  0  0  0  0  0  0  0  0  0  0  0
  -31.7423  -23.4913   18.6675 C   0  0  0  0  0  0  0  0  0  0  0  0
  -26.2297  -34.7654   24.2267 C   0  0  0  0  0  0  0  0  0  0  0  0
  -31.0790  -24.8585   18.5214 C   0  0  0  0  0  0  0  0  0  0  0  0
  -29.5577  -11.3332   22.0597 C   0  0  0  0  0  0  0  0  0  0  0  0
  -30.1132  -13.8034   21.9835 C   0  0  0  0  0  0  0  0  0  0  0  0
  -28.0889  -12.9779   20.7682 C   0  0  0  0  0  0  0  0  0  0  0  0
  -30.8558  -22.3783   18.1228 C   0  0  0  0  0  0  0  0  0  0  0  0
  -26.8780  -34.3869   22.8896 C   0  0  1  0  0  0  0  0  0  0  0  0
  -29.6877  -24.8827   19.1722 C   0  0  1  0  0  0  0  0  0  0  0  0
  -24.6757  -31.8116   21.1717 C   0  0  1  0  0  0  0  0  0  0  0  0
  -28.7574  -11.5943   20.7683 C   0  0  2  0  0  0  0  0  0  0  0  0
  -27.2011  -20.1161   19.4908 C   0  0  0  0  0  0  0  0  0  0  0  0
  -18.4577  -27.4037   22.5538 C   0  0  0  0  0  0  0  0  0  0  0  0
  -23.4294  -30.6652   25.4720 C   0  0  0  0  0  0  0  0  0  0  0  0
  -21.5375  -29.0349   25.6483 C   0  0  0  0  0  0  0  0  0  0  0  0
  -21.0878  -31.3980   24.9878 C   0  0  0  0  0  0  0  0  0  0  0  0
  -20.3056  -27.7519   19.2462 C   0  0  0  0  0  0  0  0  0  0  0  0
  -29.4604  -21.8601   20.1753 C   0  0  0  0  0  0  0  0  0  0  0  0
  -29.0451  -26.2568   18.9556 C   0  0  0  0  0  0  0  0  0  1  0  0
  -22.2189  -29.8453   23.3440 C   0  0  1  0  0  0  0  0  0  0  0  0
  -19.3964  -28.0584   21.5523 C   0  0  2  0  0  0  0  0  0  0  0  0
  -22.0896  -30.2315   24.8445 C   0  0  0  0  0  0  0  0  0  0  0  0
  -26.5011  -10.6105   20.9274 N   0  0  0  0  0  0  0  0  0  0  0  0
  -27.7643  -10.4814   20.4871 N   0  0  0  0  0  0  0  0  0  0  0  0
  -23.9800  -30.7061   21.8335 N   0  0  0  0  0  0  0  0  0  0  0  0
  -29.0764  -14.0446   20.9695 N   0  0  0  0  0  0  0  0  0  0  0  0
  -29.2136   -9.0269   19.3063 N   0  0  0  0  0  0  0  0  0  0  0  0
  -26.7724   -6.2081   20.0064 N   0  0  0  0  0  0  0  0  0  0  0  0
  -29.9539  -16.1840   20.5056 N   0  0  0  0  0  0  0  0  0  0  0  0
  -25.9310  -33.6855   22.0494 N   0  0  0  0  0  0  0  0  0  0  0  0
  -20.9605  -29.4564   22.7165 N   0  0  0  0  0  0  0  0  0  0  0  0
  -29.4887  -22.3761   18.7630 N   0  3  1  0  0  0  0  0  0  0  0  0
  -19.4373  -27.2141   20.3250 N   0  3  0  0  0  0  0  0  0  0  0  0
  -26.2052   -7.2249   18.0308 O   0  0  0  0  0  0  0  0  0  0  0  0
  -26.2464  -31.5467   22.9145 O   0  0  0  0  0  0  0  0  0  0  0  0
  -22.1686  -32.0403   22.4461 O   0  0  0  0  0  0  0  0  0  0  0  0
  -21.6452  -27.3391   22.0645 O   0  0  0  0  0  0  0  0  0  0  0  0
  -28.0791  -15.3940   19.3740 O   0  0  0  0  0  0  0  0  0  0  0  0
  -20.5218   -8.5343   21.6266 O   0  0  0  0  0  0  0  0  0  0  0  0
  -28.0655  -26.4768   19.9697 O   0  0  0  0  0  0  0  0  0  1  0  0
  -19.3212   -4.8901   25.5867 F   0  0  0  0  0  0  0  0  0  0  0  0
  -19.0775   -9.2904   23.8594 F   0  0  0  0  0  0  0  0  0  0  0  0
  -32.4424  -17.7713   21.2686 Cl  0  0  0  0  0  0  0  0  0  0  0  0
  1  2  1  0  0  0  0
  1  5  2  0  0  0  0
  2  6  2  0  0  0  0
  3  8  2  0  0  0  0
  3 17  1  0  0  0  0
  4  9  1  0  0  0  0
  4 17  2  0  0  0  0
  5 19  1  0  0  0  0
  6 21  1  0  0  0  0
  7 10  2  0  0  0  0
  7 20  1  0  0  0  0
  8 26  1  0  0  0  0
  9 26  2  0  0  0  0
 10 27  1  0  0  0  0
 11 12  2  0  0  0  0
 11 28  1  0  0  0  0
 12 29  1  0  0  0  0
 13 22  1  0  0  0  0
 13 27  2  0  0  0  0
 14 23  1  0  0  0  0
 14 25  2  0  0  0  0
 15 24  1  0  0  0  0
 15 31  2  0  0  0  0
 16 29  2  0  0  0  0
 16 30  1  0  0  0  0
 17 32  1  0  0  0  0
 18 32  1  0  0  0  0
 18 33  2  0  0  0  0
 18 36  1  0  0  0  0
 19 21  2  0  0  0  0
 19 41  1  0  0  0  0
 20 22  2  0  0  0  0
 20 42  1  0  0  0  0
 21 53  1  0  0  0  0
 22 43  1  0  0  0  0
 23 24  2  0  0  0  0
 23 57  1  0  0  0  0
 24 63  1  0  0  0  0
 25 31  1  0  0  0  0
 25 74  1  0  0  0  0
 26 84  1  0  0  0  0
 27 85  1  0  0  0  0
 28 30  2  0  0  0  0
 28 84  1  0  0  0  0
 29 86  1  0  0  0  0
 30 87  1  0  0  0  0
 31 88  1  0  0  0  0
 32 68  2  0  0  0  0
 33 69  1  0  0  0  0
 33 72  1  0  0  0  0
 34 35  2  0  0  0  0
 34 54  1  0  0  0  0
 34 77  1  0  0  0  0
 36 73  1  0  0  0  0
 36 79  2  0  0  0  0
 37 55  1  0  0  0  0
 37 75  1  0  0  0  0
 37 80  2  0  0  0  0
 38 65  1  0  0  0  0
 38 70  1  0  0  0  0
 38 81  2  0  0  0  0
 39 66  1  0  0  0  0
 39 76  1  0  0  0  0
 39 82  2  0  0  0  0
 40 71  1  0  0  0  0
 40 74  1  0  0  0  0
 40 83  2  0  0  0  0
 41 44  1  0  0  0  0
 42 55  1  0  0  0  0
 43 70  1  0  0  0  0
 44 47  1  0  0  0  0
 45 49  1  0  0  0  0
 45 50  1  0  0  0  0
 46 48  1  0  0  0  0
 46 52  1  0  0  0  0
 47 53  1  0  0  0  0
 48 54  1  0  0  0  0
 49 56  1  0  0  0  0
 50 71  1  0  0  0  0
 51 56  1  0  0  0  0
 51 71  1  0  0  0  0
 52 77  1  0  0  0  0
 53 75  1  0  0  0  0
 54 64  1  0  0  0  0
 55 70  1  0  0  0  0
 56 69  1  0  0  0  0
 58 66  1  0  0  0  0
 59 67  1  0  0  0  0
 60 67  1  0  0  0  0
 61 67  1  0  0  0  0
 62 78  1  0  0  0  0
 63 77  1  0  0  0  0
 64 85  1  0  0  0  0
 65 67  1  0  0  0  0
 65 76  1  0  0  0  0
 66 78  1  0  0  0  0
 68 69  1  0  0  0  0
M  CHG  2  77   1  78   1
M  ISO  4  40 100  64 101  74 100  85 101
M  END
> <Batch ID>
0043

> <Smiles>
C=C1C([101CH2:1][101O:1]c2ccc3c(c2)CN(C(=O)C(NC(=O)C(C)NC)C(C)(C)C)C(C(=O)NC2CCCc4ccccc42)C3)CCCN1Cc1cc(Cl)c([100NH:0][100C:0](=O)N2CCCC(n3nc(-c4ccc(Oc5ccc(F)cc5F)cc4)c(C(N)=O)c3N)C2)cc1C

> <Shape>
0.311

> <Color>
0.075

> <Negative vol penalty>
0.000

$$$$

  -OEChem-04042322153D

 85 93  0     1  0  0  0  0  0999 V2000
  -16.9980  -25.3581   23.3326 C   0  0  0  0  0  0  0  0  0  0  0  0
  -17.9586  -25.3653   22.3264 C   0  0  0  0  0  0  0  0  0  0  0  0
  -23.5788  -10.1415   22.2614 C   0  0  0  0  0  0  0  0  0  0  0  0
  -22.5016  -10.3389   20.1079 C   0  0  0  0  0  0  0  0  0  0  0  0
  -16.7003  -26.5345   24.0192 C   0  0  0  0  0  0  0  0  0  0  0  0
  -18.6215  -26.5494   22.0054 C   0  0  0  0  0  0  0  0  0  0  0  0
  -23.6109  -25.8913   21.4416 C   0  0  0  0  0  0  0  0  0  0  0  0
  -23.2090   -8.7980   22.3232 C   0  0  0  0  0  0  0  0  0  0  0  0
  -22.1318   -8.9954   20.1697 C   0  0  0  0  0  0  0  0  0  0  0  0
  -24.0476  -25.3302   20.2424 C   0  0  0  0  0  0  0  0  0  0  0  0
  -20.4335   -7.0098   23.0466 C   0  0  0  0  0  0  0  0  0  0  0  0
  -19.9035   -6.5389   24.2478 C   0  0  0  0  0  0  0  0  0  0  0  0
  -24.6196  -27.5281   19.4292 C   0  0  0  0  0  0  0  0  0  0  0  0
  -23.4814  -20.5252   16.2297 C   0  0  0  0  0  0  0  0  0  0  0  0
  -21.6023  -20.7634   18.2778 C   0  0  0  0  0  0  0  0  0  0  0  0
  -21.7053   -4.9380   24.4152 C   0  0  0  0  0  0  0  0  0  0  0  0
  -23.2251  -10.9120   21.1537 C   0  0  0  0  0  0  0  0  0  0  0  0
  -24.7908  -12.8320   20.5456 C   0  0  0  0  0  0  0  0  0  0  0  0
  -17.3667  -27.7315   23.7130 C   0  0  0  0  0  0  0  0  0  0  0  0
  -23.6651  -27.2785   21.6398 C   0  0  0  0  0  0  0  0  0  0  0  0
  -18.3315  -27.7432   22.6875 C   0  0  0  0  0  0  0  0  0  0  0  0
  -24.1853  -28.1041   20.6328 C   0  0  0  0  0  0  0  0  0  0  0  0
  -22.5122  -21.5267   16.1739 C   0  0  0  0  0  0  0  0  0  0  0  0
  -22.5715  -19.7618   18.3336 C   0  0  0  0  0  0  0  0  0  0  0  0
  -22.4855   -8.2249   21.2774 C   0  0  0  0  0  0  0  0  0  0  0  0
  -24.5494  -26.1488   19.2349 C   0  0  0  0  0  0  0  0  0  0  0  0
  -21.5993   -6.4448   22.5296 C   0  0  0  0  0  0  0  0  0  0  0  0
  -20.5395   -5.5030   24.9321 C   0  0  0  0  0  0  0  0  0  0  0  0
  -21.5727  -21.6459   17.1980 C   0  0  0  0  0  0  0  0  0  0  0  0
  -22.2353   -5.4089   23.2139 C   0  0  0  0  0  0  0  0  0  0  0  0
  -23.5111  -19.6427   17.3095 C   0  0  0  0  0  0  0  0  0  0  0  0
  -23.6063  -12.3000   21.0895 C   0  0  0  0  0  0  0  0  0  0  0  0
  -24.6734  -14.1883   20.7278 C   0  0  0  0  0  0  0  0  0  0  0  0
  -25.8981  -12.1602   19.9306 C   0  0  0  0  0  0  0  0  0  0  0  0
  -21.5110  -29.5541   22.1737 C   0  0  0  0  0  0  0  0  0  0  0  0
  -24.1420  -31.4143   22.5483 C   0  0  0  0  0  0  0  0  0  0  0  0
  -23.3894  -24.6714   15.7617 C   0  0  0  0  0  0  0  0  0  0  0  0
  -27.4468  -31.9289   21.8702 C   0  0  0  0  0  0  0  0  0  0  0  0
  -21.6972  -18.8899   20.5294 C   0  0  0  0  0  0  0  0  0  0  0  0
  -16.9773  -28.9882   24.4502 C   0  0  0  0  0  0  0  0  0  0  0  0
  -23.2150  -27.8656   22.9494 C   0  0  0  0  0  0  0  0  0  0  0  0
  -24.2837  -29.5973   20.8037 C   0  0  0  0  0  0  0  0  0  0  0  0
  -17.9922  -30.1192   24.3045 C   0  0  0  0  0  0  0  0  0  0  0  0
  -21.3486  -16.8717   23.4419 C   0  0  0  0  0  0  0  0  0  0  0  0
  -18.4112  -30.2759   22.8462 C   0  0  0  0  0  0  0  0  0  0  0  0
  -22.0023  -15.5461   23.0448 C   0  0  0  0  0  0  0  0  0  0  0  0
  -20.5950  -17.5049   22.2735 C   0  0  0  0  0  0  0  0  0  0  0  0
  -22.0344  -16.3427   20.6466 C   0  0  0  0  0  0  0  0  0  0  0  0
  -19.0897  -29.0024   22.3272 C   0  0  1  0  0  0  0  0  0  0  0  0
  -22.8382  -29.3403   22.8450 C   0  0  1  0  0  0  0  0  0  0  0  0
  -22.8595  -15.6992   21.7730 C   0  0  2  0  0  0  0  0  0  0  0  0
  -29.3122  -33.5561   22.2822 C   0  0  0  0  0  0  0  0  0  0  0  0
  -22.9442  -33.3080   20.4773 C   0  0  0  0  0  0  0  0  0  0  0  0
  -25.2037  -34.3584   20.2332 C   0  0  0  0  0  0  0  0  0  0  0  0
  -24.0217  -34.4424   22.4283 C   0  0  0  0  0  0  0  0  0  0  0  0
  -29.0664  -29.8932   23.2816 C   0  0  0  0  0  0  0  0  0  0  0  0
  -22.4830  -22.4751   15.0103 C   0  0  0  0  0  0  0  0  0  0  0  0
  -24.6566  -25.5081   15.6800 C   0  0  0  0  0  0  0  0  0  0  0  0
  -24.8536  -26.4076   16.8904 C   0  0  0  0  0  0  0  0  0  1  0  0
  -24.9989  -32.2516   21.6298 C   0  0  1  0  0  0  0  0  0  0  0  0
  -28.6142  -32.2956   22.7686 C   0  0  2  0  0  0  0  0  0  0  0  0
  -24.2886  -33.5622   21.1879 C   0  0  0  0  0  0  0  0  0  0  0  0
  -22.7962  -13.2415   21.5806 N   0  0  0  0  0  0  0  0  0  0  0  0
  -23.4727  -14.3788   21.3460 N   0  0  0  0  0  0  0  0  0  0  0  0
  -23.8250  -30.1243   22.0996 N   0  0  0  0  0  0  0  0  0  0  0  0
  -21.4710  -17.6220   21.1057 N   0  0  0  0  0  0  0  0  0  0  0  0
  -25.4812  -15.2245   20.4179 N   0  0  0  0  0  0  0  0  0  0  0  0
  -25.8566  -10.7633   19.8241 N   0  0  0  0  0  0  0  0  0  0  0  0
  -22.5732  -18.8821   19.4444 N   0  0  0  0  0  0  0  0  0  0  0  0
  -20.4539  -28.9262   22.8043 N   0  0  0  0  0  0  0  0  0  0  0  0
  -23.5333  -23.4645   15.0926 N   0  0  0  0  0  0  0  0  0  0  0  0
  -26.2615  -32.4629   22.3295 N   0  0  0  0  0  0  0  0  0  0  0  0
  -29.6115  -31.1885   22.7998 N   0  3  0  0  0  0  0  0  0  0  0  0
  -26.9022  -12.7789   19.5034 O   0  0  0  0  0  0  0  0  0  0  0  0
  -21.4504  -30.2394   21.1596 O   0  0  0  0  0  0  0  0  0  0  0  0
  -23.7735  -31.8848   23.6274 O   0  0  0  0  0  0  0  0  0  0  0  0
  -22.3769  -25.0383   16.3519 O   0  0  0  0  0  0  0  0  0  0  0  0
  -27.5743  -31.2409   20.8598 O   0  0  0  0  0  0  0  0  0  0  0  0
  -21.1752  -19.9115   20.9832 O   0  0  0  0  0  0  0  0  0  0  0  0
  -22.1247   -6.9139   21.3373 O   0  0  0  0  0  0  0  0  0  0  0  0
  -24.9757  -25.6037   18.0631 O   0  0  0  0  0  0  0  0  0  1  0  0
  -20.0313   -5.0519   26.0865 F   0  0  0  0  0  0  0  0  0  0  0  0
  -20.6375  -22.6051   17.1529 F   0  0  0  0  0  0  0  0  0  0  0  0
  -23.3562   -4.8630   22.7227 F   0  0  0  0  0  0  0  0  0  0  0  0
  -24.7280  -18.4166   17.3387 Cl  0  0  0  0  0  0  0  0  0  0  0  0
  1  2  1  0  0  0  0
  1  5  2  0  0  0  0
  2  6  2  0  0  0  0
  3  8  2  0  0  0  0
  3 17  1  0  0  0  0
  4  9  1  0  0  0  0
  4 17  2  0  0  0  0
  5 19  1  0  0  0  0
  6 21  1  0  0  0  0
  7 10  2  0  0  0  0
  7 20  1  0  0  0  0
  8 25  1  0  0  0  0
  9 25  2  0  0  0  0
 10 26  1  0  0  0  0
 11 12  2  0  0  0  0
 11 27  1  0  0  0  0
 12 28  1  0  0  0  0
 13 22  1  0  0  0  0
 13 26  2  0  0  0  0
 14 23  1  0  0  0  0
 14 31  2  0  0  0  0
 15 24  2  0  0  0  0
 15 29  1  0  0  0  0
 16 28  2  0  0  0  0
 16 30  1  0  0  0  0
 17 32  1  0  0  0  0
 18 32  1  0  0  0  0
 18 33  2  0  0  0  0
 18 34  1  0  0  0  0
 19 21  2  0  0  0  0
 19 40  1  0  0  0  0
 20 22  2  0  0  0  0
 20 41  1  0  0  0  0
 21 49  1  0  0  0  0
 22 42  1  0  0  0  0
 23 29  2  0  0  0  0
 23 57  1  0  0  0  0
 24 31  1  0  0  0  0
 24 69  1  0  0  0  0
 25 80  1  0  0  0  0
 26 81  1  0  0  0  0
 27 30  2  0  0  0  0
 27 80  1  0  0  0  0
 28 82  1  0  0  0  0
 29 83  1  0  0  0  0
 30 84  1  0  0  0  0
 31 85  1  0  0  0  0
 32 63  2  0  0  0  0
 33 64  1  0  0  0  0
 33 67  1  0  0  0  0
 34 68  1  0  0  0  0
 34 74  2  0  0  0  0
 35 50  1  0  0  0  0
 35 70  1  0  0  0  0
 35 75  2  0  0  0  0
 36 60  1  0  0  0  0
 36 65  1  0  0  0  0
 36 76  2  0  0  0  0
 37 58  1  0  0  0  0
 37 71  1  0  0  0  0
 37 77  2  0  0  0  0
 38 61  1  0  0  0  0
 38 72  1  0  0  0  0
 38 78  2  0  0  0  0
 39 66  1  0  0  0  0
 39 69  1  0  0  0  0
 39 79  2  0  0  0  0
 40 43  1  0  0  0  0
 41 50  1  0  0  0  0
 42 65  1  0  0  0  0
 43 45  1  0  0  0  0
 44 46  1  0  0  0  0
 44 47  1  0  0  0  0
 45 49  1  0  0  0  0
 46 51  1  0  0  0  0
 47 66  1  0  0  0  0
 48 51  1  0  0  0  0
 48 66  1  0  0  0  0
 49 70  1  0  0  0  0
 50 65  1  0  0  0  0
 51 64  1  0  0  0  0
 52 61  1  0  0  0  0
 53 62  1  0  0  0  0
 54 62  1  0  0  0  0
 55 62  1  0  0  0  0
 56 73  1  0  0  0  0
 57 71  1  0  0  0  0
 58 59  1  0  0  0  0
 59 81  1  0  0  0  0
 60 62  1  0  0  0  0
 60 72  1  0  0  0  0
 61 73  1  0  0  0  0
 63 64  1  0  0  0  0
M  CHG  1  73   1
M  ISO  4  39 100  59 101  69 100  81 101
M  END
> <Batch ID>
0043

> <Smiles>
CNC(C)C(=O)NC(C(=O)N1Cc2cc([101O:1][101CH2:1]CC(=O)NCc3cc(Cl)c([100NH:0][100C:0](=O)N4CCCC(n5nc(-c6ccc(Oc7ccc(F)cc7F)cc6)c(C(N)=O)c5N)C4)cc3F)ccc2CC1C(=O)NC1CCCc2ccccc21)C(C)(C)C

> <Shape>
0.243

> <Color>
0.123

> <Negative vol penalty>
0.000

$$$$

  -OEChem-04042322153D

 91100  0     1  0  0  0  0  0999 V2000
  -25.5598  -38.0761   24.0647 C   0  0  0  0  0  0  0  0  0  0  0  0
  -26.3096  -37.3619   23.1357 C   0  0  0  0  0  0  0  0  0  0  0  0
  -23.8448   -9.6089   20.0167 C   0  0  0  0  0  0  0  0  0  0  0  0
  -23.4791  -10.1402   22.3450 C   0  0  0  0  0  0  0  0  0  0  0  0
  -24.9421  -37.4086   25.1215 C   0  0  0  0  0  0  0  0  0  0  0  0
  -26.4431  -35.9798   23.2635 C   0  0  0  0  0  0  0  0  0  0  0  0
  -27.1132  -30.0459   19.3068 C   0  0  0  0  0  0  0  0  0  0  0  0
  -23.2462   -8.3635   20.2068 C   0  0  0  0  0  0  0  0  0  0  0  0
  -22.8805   -8.8948   22.5352 C   0  0  0  0  0  0  0  0  0  0  0  0
  -27.9301  -28.9234   19.1785 C   0  0  0  0  0  0  0  0  0  0  0  0
  -19.8834   -7.4552   21.9304 C   0  0  0  0  0  0  0  0  0  0  0  0
  -18.6950   -7.4136   22.6594 C   0  0  0  0  0  0  0  0  0  0  0  0
  -26.7531  -27.8662   20.9996 C   0  0  0  0  0  0  0  0  0  0  0  0
  -29.5221  -19.1157   22.0380 C   0  0  0  0  0  0  0  0  0  0  0  0
  -19.7402   -5.9585   24.2804 C   0  0  0  0  0  0  0  0  0  0  0  0
  -23.9613  -10.4973   21.0858 C   0  0  0  0  0  0  0  0  0  0  0  0
  -23.9461  -12.9840   20.5168 C   0  0  0  0  0  0  0  0  0  0  0  0
  -25.0601  -36.0163   25.2570 C   0  0  0  0  0  0  0  0  0  0  0  0
  -26.1155  -30.0914   20.2912 C   0  0  0  0  0  0  0  0  0  0  0  0
  -25.8276  -35.2932   24.3239 C   0  0  0  0  0  0  0  0  0  0  0  0
  -25.9231  -28.9894   21.1366 C   0  0  0  0  0  0  0  0  0  0  0  0
  -29.4854  -20.4850   21.7753 C   0  0  0  0  0  0  0  0  0  0  0  0
  -28.3351  -21.2197   22.0631 C   0  0  0  0  0  0  0  0  0  0  0  0
  -27.2216  -20.5850   22.6135 C   0  0  0  0  0  0  0  0  0  0  0  0
  -27.2584  -19.2156   22.8762 C   0  0  0  0  0  0  0  0  0  0  0  0
  -28.4086  -18.4809   22.5884 C   0  0  0  0  0  0  0  0  0  0  0  0
  -22.7640   -8.0064   21.4660 C   0  0  0  0  0  0  0  0  0  0  0  0
  -27.7520  -27.8345   20.0269 C   0  0  0  0  0  0  0  0  0  0  0  0
  -21.0002   -6.7484   22.3764 C   0  0  0  0  0  0  0  0  0  0  0  0
  -18.6233   -6.6653   23.8344 C   0  0  0  0  0  0  0  0  0  0  0  0
  -20.9286   -6.0001   23.5513 C   0  0  0  0  0  0  0  0  0  0  0  0
  -24.5801  -11.7837   20.8901 C   0  0  0  0  0  0  0  0  0  0  0  0
  -24.9617  -13.9074   20.4665 C   0  0  0  0  0  0  0  0  0  0  0  0
  -27.3062  -22.7938   19.5687 C   0  0  0  0  0  0  0  0  0  0  0  0
  -27.2398  -21.6908   18.8080 C   0  0  0  0  0  0  0  0  0  0  0  0
  -22.5630  -13.2412   20.2404 C   0  0  0  0  0  0  0  0  0  0  0  0
  -25.5410  -31.9306   22.8192 C   0  0  0  0  0  0  0  0  0  0  0  0
  -22.7887  -30.2191   22.9508 C   0  0  0  0  0  0  0  0  0  0  0  0
  -21.1245  -27.3442   22.1681 C   0  0  0  0  0  0  0  0  0  0  0  0
  -29.5427  -16.2316   22.6149 C   0  0  0  0  0  0  0  0  0  0  0  0
  -24.4135  -35.3449   26.4426 C   0  0  0  0  0  0  0  0  0  0  0  0
  -25.2251  -31.2988   20.3991 C   0  0  0  0  0  0  0  0  0  0  0  0
  -24.8530  -28.9802   22.1964 C   0  0  0  0  0  0  0  0  0  0  0  0
  -26.2009  -23.8125   19.6347 C   0  0  0  0  0  0  0  0  0  0  0  0
  -24.2943  -33.8302   26.2946 C   0  0  0  0  0  0  0  0  0  0  0  0
  -26.7546  -25.2119   19.3953 C   0  0  0  0  0  0  0  0  0  0  0  0
  -29.9829  -13.2948   20.6505 C   0  0  0  0  0  0  0  0  0  0  0  0
  -25.6088  -33.2373   25.7975 C   0  0  0  0  0  0  0  0  0  0  0  0
  -28.5644  -12.7386   20.5070 C   0  0  0  0  0  0  0  0  0  0  0  0
  -30.2134  -13.9117   22.0289 C   0  0  0  0  0  0  0  0  0  0  0  0
  -27.8055  -14.3632   22.2880 C   0  0  0  0  0  0  0  0  0  0  0  0
  -29.0475  -24.4055   20.0712 C   0  0  0  0  0  0  0  0  0  0  0  0
  -25.9752  -33.7898   24.4147 C   0  0  1  0  0  0  0  0  0  0  0  0
  -24.5785  -31.4435   21.7732 C   0  0  1  0  0  0  0  0  0  0  0  0
  -27.5052  -13.7895   20.8936 C   0  0  2  0  0  0  0  0  0  0  0  0
  -27.9820  -25.4812   20.2657 C   0  0  1  0  0  0  0  0  0  1  0  0
  -30.6899  -21.1399   21.1823 C   0  0  0  0  0  0  0  0  0  0  0  0
  -26.0616  -18.5365   23.4653 C   0  0  0  0  0  0  0  0  0  0  0  0
  -18.8976  -26.2203   22.4421 C   0  0  0  0  0  0  0  0  0  0  0  0
  -23.4699  -29.5831   25.8562 C   0  0  0  0  0  0  0  0  0  0  0  0
  -21.7740  -27.7430   25.7782 C   0  0  0  0  0  0  0  0  0  0  0  0
  -21.0606  -30.1094   25.4408 C   0  0  0  0  0  0  0  0  0  0  0  0
  -20.6941  -27.2254   19.2424 C   0  0  0  0  0  0  0  0  0  0  0  0
  -24.8764  -23.0201   24.4238 C   0  0  0  0  0  0  0  0  0  0  0  0
  -26.5595  -21.4327   25.3447 C   0  0  0  0  0  0  0  0  0  0  0  0
  -28.2986  -22.6923   21.7780 C   0  0  0  0  0  0  0  0  0  0  0  0
  -25.9880  -21.3738   22.9217 C   0  0  0  0  0  0  0  0  0  0  0  0
  -22.3594  -28.9344   23.6174 C   0  0  1  0  0  0  0  0  0  0  0  0
  -19.7563  -27.1076   21.5544 C   0  0  2  0  0  0  0  0  0  0  0  0
  -22.1875  -29.0931   25.1545 C   0  0  0  0  0  0  0  0  0  0  0  0
  -25.8964  -11.9284   21.0644 N   0  0  0  0  0  0  0  0  0  0  0  0
  -26.0979  -13.2304   20.7993 N   0  0  0  0  0  0  0  0  0  0  0  0
  -24.0120  -30.1866   22.2665 N   0  0  0  0  0  0  0  0  0  0  0  0
  -29.1746  -14.9007   22.3249 N   0  0  0  0  0  0  0  0  0  0  0  0
  -24.9846  -15.2243   20.1703 N   0  0  0  0  0  0  0  0  0  0  0  0
  -21.6533  -12.1796   20.3390 N   0  0  0  0  0  0  0  0  0  0  0  0
  -28.4681  -17.0892   22.8480 N   0  0  0  0  0  0  0  0  0  0  0  0
  -25.1901  -33.1407   23.3868 N   0  0  0  0  0  0  0  0  0  0  0  0
  -21.1529  -28.4976   22.9232 N   0  0  0  0  0  0  0  0  0  0  0  0
  -28.5141  -23.0168   20.3257 N   0  3  1  0  0  0  0  0  0  0  0  0
  -19.8921  -26.4504   20.2238 N   0  3  0  0  0  0  0  0  0  0  0  0
  -26.1225  -22.2214   24.1362 N   0  3  0  0  0  0  0  0  0  0  0  0
  -22.1487  -14.3751   19.8996 O   0  0  0  0  0  0  0  0  0  0  0  0
  -26.5281  -31.2577   23.0921 O   0  0  0  0  0  0  0  0  0  0  0  0
  -22.0618  -31.2127   23.0280 O   0  0  0  0  0  0  0  0  0  0  0  0
  -22.0720  -26.5803   21.9979 O   0  0  0  0  0  0  0  0  0  0  0  0
  -30.7229  -16.5906   22.6267 O   0  0  0  0  0  0  0  0  0  0  0  0
  -22.1797   -6.7913   21.6519 O   0  0  0  0  0  0  0  0  0  0  0  0
  -28.5484  -26.7378   19.9043 O   0  0  0  0  0  0  0  0  0  1  0  0
  -17.4824   -6.6267   24.5352 F   0  0  0  0  0  0  0  0  0  0  0  0
  -21.9986   -5.3200   23.9854 F   0  0  0  0  0  0  0  0  0  0  0  0
  1  2  1  0  0  0  0
  1  5  2  0  0  0  0
  2  6  2  0  0  0  0
  3  8  2  0  0  0  0
  3 16  1  0  0  0  0
  4  9  1  0  0  0  0
  4 16  2  0  0  0  0
  5 18  1  0  0  0  0
  6 20  1  0  0  0  0
  7 10  2  0  0  0  0
  7 19  1  0  0  0  0
  8 27  1  0  0  0  0
  9 27  2  0  0  0  0
 10 28  1  0  0  0  0
 11 12  2  0  0  0  0
 11 29  1  0  0  0  0
 12 30  1  0  0  0  0
 13 21  1  0  0  0  0
 13 28  2  0  0  0  0
 14 22  2  0  0  0  0
 14 26  1  0  0  0  0
 15 30  2  0  0  0  0
 15 31  1  0  0  0  0
 16 32  1  0  0  0  0
 17 32  1  0  0  0  0
 17 33  2  0  0  0  0
 17 36  1  0  0  0  0
 18 20  2  0  0  0  0
 18 41  1  0  0  0  0
 19 21  2  0  0  0  0
 19 42  1  0  0  0  0
 20 53  1  0  0  0  0
 21 43  1  0  0  0  0
 22 23  1  0  0  0  0
 22 57  1  0  0  0  0
 23 24  2  0  0  0  0
 23 66  1  0  0  0  0
 24 25  1  0  0  0  0
 24 67  1  0  0  0  0
 25 26  2  0  0  0  0
 25 58  1  0  0  0  0
 26 77  1  0  0  0  0
 27 88  1  0  0  0  0
 28 89  1  0  0  0  0
 29 31  2  0  0  0  0
 29 88  1  0  0  0  0
 30 90  1  0  0  0  0
 31 91  1  0  0  0  0
 32 71  2  0  0  0  0
 33 72  1  0  0  0  0
 33 75  1  0  0  0  0
 34 35  2  0  0  0  0
 34 44  1  0  0  0  0
 34 80  1  0  0  0  0
 36 76  1  0  0  0  0
 36 83  2  0  0  0  0
 37 54  1  0  0  0  0
 37 78  1  0  0  0  0
 37 84  2  0  0  0  0
 38 68  1  0  0  0  0
 38 73  1  0  0  0  0
 38 85  2  0  0  0  0
 39 69  1  0  0  0  0
 39 79  1  0  0  0  0
 39 86  2  0  0  0  0
 40 74  1  0  0  0  0
 40 77  1  0  0  0  0
 40 87  2  0  0  0  0
 41 45  1  0  0  0  0
 42 54  1  0  0  0  0
 43 73  1  0  0  0  0
 44 46  1  0  0  0  0
 45 48  1  0  0  0  0
 46 56  1  0  0  0  0
 47 49  1  0  0  0  0
 47 50  1  0  0  0  0
 48 53  1  0  0  0  0
 49 55  1  0  0  0  0
 50 74  1  0  0  0  0
 51 55  1  0  0  0  0
 51 74  1  0  0  0  0
 52 56  1  0  0  0  0
 52 80  1  0  0  0  0
 53 78  1  0  0  0  0
 54 73  1  0  0  0  0
 55 72  1  0  0  0  0
 56 89  1  0  0  0  0
 59 69  1  0  0  0  0
 60 70  1  0  0  0  0
 61 70  1  0  0  0  0
 62 70  1  0  0  0  0
 63 81  1  0  0  0  0
 64 82  1  0  0  0  0
 65 82  1  0  0  0  0
 66 80  1  0  0  0  0
 67 82  1  0  0  0  0
 68 70  1  0  0  0  0
 68 79  1  0  0  0  0
 69 81  1  0  0  0  0
 71 72  1  0  0  0  0
M  CHG  3  80   1  81   1  82   1
M  ISO  4  40 100  56 101  77 100  89 101
M  END
> <Batch ID>
0043

> <Smiles>
C=C1CC[101CH:1]([101O:1]c2ccc3c(c2)CN(C(=O)C(NC(=O)C(C)NC)C(C)(C)C)C(C(=O)NC2CCCc4ccccc42)C3)CN1Cc1c(C)cc([100NH:0][100C:0](=O)N2CCCC(n3nc(-c4ccc(Oc5ccc(F)cc5F)cc4)c(C(N)=O)c3N)C2)c(C)c1CN(C)C

> <Shape>
0.349

> <Color>
0.160

> <Negative vol penalty>
0.000

$$$$

  -OEChem-04042322153D

 87 96  0     1  0  0  0  0  0999 V2000
  -16.7046  -28.3210   23.6492 C   0  0  0  0  0  0  0  0  0  0  0  0
  -17.6159  -27.6247   22.8617 C   0  0  0  0  0  0  0  0  0  0  0  0
  -22.4186  -11.1696   22.2563 C   0  0  0  0  0  0  0  0  0  0  0  0
  -23.7251   -9.5397   21.0424 C   0  0  0  0  0  0  0  0  0  0  0  0
  -16.9563  -29.6475   23.9970 C   0  0  0  0  0  0  0  0  0  0  0  0
  -18.7789  -28.2548   22.4206 C   0  0  0  0  0  0  0  0  0  0  0  0
  -22.8872  -25.3416   22.9498 C   0  0  0  0  0  0  0  0  0  0  0  0
  -31.1345  -19.3475   20.6431 C   0  0  0  0  0  0  0  0  0  0  0  0
  -30.8378  -18.1153   21.2253 C   0  0  0  0  0  0  0  0  0  0  0  0
  -21.5230  -10.1697   22.6351 C   0  0  0  0  0  0  0  0  0  0  0  0
  -22.8294   -8.5397   21.4212 C   0  0  0  0  0  0  0  0  0  0  0  0
  -23.0813  -24.3366   22.0032 C   0  0  0  0  0  0  0  0  0  0  0  0
  -22.2085   -6.6618   24.1614 C   0  0  0  0  0  0  0  0  0  0  0  0
  -22.7408   -5.4554   24.6161 C   0  0  0  0  0  0  0  0  0  0  0  0
  -24.6755  -25.7355   20.8538 C   0  0  0  0  0  0  0  0  0  0  0  0
  -28.5778  -18.8584   21.6464 C   0  0  0  0  0  0  0  0  0  0  0  0
  -21.6202   -4.2854   22.8239 C   0  0  0  0  0  0  0  0  0  0  0  0
  -23.5197  -10.8546   21.4598 C   0  0  0  0  0  0  0  0  0  0  0  0
  -24.1593  -13.0456   20.3205 C   0  0  0  0  0  0  0  0  0  0  0  0
  -18.1277  -30.2913   23.5680 C   0  0  0  0  0  0  0  0  0  0  0  0
  -23.5788  -26.5573   22.8492 C   0  0  0  0  0  0  0  0  0  0  0  0
  -19.0459  -29.5916   22.7619 C   0  0  0  0  0  0  0  0  0  0  0  0
  -24.4903  -26.7533   21.8018 C   0  0  0  0  0  0  0  0  0  0  0  0
  -30.1530  -20.3354   20.5626 C   0  0  0  0  0  0  0  0  0  0  0  0
  -28.8746  -20.0908   21.0642 C   0  0  0  0  0  0  0  0  0  0  0  0
  -29.5594  -17.8707   21.7269 C   0  0  0  0  0  0  0  0  0  0  0  0
  -21.7284   -8.8547   22.2176 C   0  0  0  0  0  0  0  0  0  0  0  0
  -23.9734  -24.5345   20.9533 C   0  0  0  0  0  0  0  0  0  0  0  0
  -21.3819   -6.6800   23.0379 C   0  0  0  0  0  0  0  0  0  0  0  0
  -22.4467   -4.2672   23.9474 C   0  0  0  0  0  0  0  0  0  0  0  0
  -21.0878   -5.4918   22.3692 C   0  0  0  0  0  0  0  0  0  0  0  0
  -24.4449  -11.8872   21.0677 C   0  0  0  0  0  0  0  0  0  0  0  0
  -25.3653  -13.6949   20.2191 C   0  0  0  0  0  0  0  0  0  0  0  0
  -25.5439  -21.5585   20.1999 C   0  0  0  0  0  0  0  0  0  0  0  0
  -24.5262  -20.8320   20.6905 C   0  0  0  0  0  0  0  0  0  0  0  0
  -22.9149  -13.4946   19.7675 C   0  0  0  0  0  0  0  0  0  0  0  0
  -22.7291  -29.5965   22.4676 C   0  0  0  0  0  0  0  0  0  0  0  0
  -25.8974  -30.1320   22.9123 C   0  0  0  0  0  0  0  0  0  0  0  0
  -28.9976  -28.6181   21.8565 C   0  0  0  0  0  0  0  0  0  0  0  0
  -30.1141  -15.5297   22.4742 C   0  0  0  0  0  0  0  0  0  0  0  0
  -18.3336  -31.7409   23.9299 C   0  0  0  0  0  0  0  0  0  0  0  0
  -23.3782  -27.6211   23.8934 C   0  0  0  0  0  0  0  0  0  0  0  0
  -25.2725  -28.0326   21.6603 C   0  0  0  0  0  0  0  0  0  0  0  0
  -19.7698  -32.2196   23.7337 C   0  0  0  0  0  0  0  0  0  0  0  0
  -30.0463  -12.1468   21.3655 C   0  0  0  0  0  0  0  0  0  0  0  0
  -27.3137  -22.6185   18.2090 C   0  0  0  0  0  0  0  0  0  0  0  0
  -20.3044  -31.7633   22.3799 C   0  0  0  0  0  0  0  0  0  0  0  0
  -25.9778  -23.3041   18.4726 C   0  0  0  0  0  0  0  0  0  0  0  0
  -28.5594  -11.8730   21.1278 C   0  0  0  0  0  0  0  0  0  0  0  0
  -30.2698  -13.0517   22.5759 C   0  0  0  0  0  0  0  0  0  0  0  0
  -28.0258  -14.0360   22.3211 C   0  0  0  0  0  0  0  0  0  0  0  0
  -27.2436  -21.1258   18.5140 C   0  0  0  0  0  0  0  0  0  0  0  0
  -20.3308  -30.2330   22.2846 C   0  0  1  0  0  0  0  0  0  0  0  0
  -25.4843  -23.0383   19.8940 C   0  0  1  0  0  0  0  0  0  1  0  0
  -23.7516  -29.0170   23.4039 C   0  0  1  0  0  0  0  0  0  0  0  0
  -27.7470  -13.1817   21.0736 C   0  0  2  0  0  0  0  0  0  0  0  0
  -30.4945  -21.6472   19.9356 C   0  0  0  0  0  0  0  0  0  0  0  0
  -24.6130  -19.3749   20.9825 C   0  0  0  0  0  0  0  0  0  0  0  0
  -31.2587  -28.6011   22.9449 C   0  0  0  0  0  0  0  0  0  0  0  0
  -26.4474  -32.5556   21.1421 C   0  0  0  0  0  0  0  0  0  0  0  0
  -28.7759  -31.6976   20.8105 C   0  0  0  0  0  0  0  0  0  0  0  0
  -27.9910  -32.3186   23.0955 C   0  0  0  0  0  0  0  0  0  0  0  0
  -29.1218  -25.6614   21.8186 C   0  0  0  0  0  0  0  0  0  0  0  0
  -27.8024  -21.1373   20.9868 C   0  0  0  0  0  0  0  0  0  0  0  0
  -27.1047  -30.2144   22.0098 C   0  0  1  0  0  0  0  0  0  0  0  0
  -29.9659  -27.8319   22.7217 C   0  0  2  0  0  0  0  0  0  0  0  0
  -27.5573  -31.6804   21.7578 C   0  0  0  0  0  0  0  0  0  0  0  0
  -25.7315  -11.8027   21.4162 N   0  0  0  0  0  0  0  0  0  0  0  0
  -26.2651  -12.9161   20.8855 N   0  0  0  0  0  0  0  0  0  0  0  0
  -25.0369  -29.0450   22.7029 N   0  0  0  0  0  0  0  0  0  0  0  0
  -29.4718  -14.2736   22.4532 N   0  0  0  0  0  0  0  0  0  0  0  0
  -25.7334  -14.8502   19.6257 N   0  0  0  0  0  0  0  0  0  0  0  0
  -22.5770  -13.0916   18.4683 N   0  0  0  0  0  0  0  0  0  0  0  0
  -29.2570  -16.6183   22.3166 N   0  0  0  0  0  0  0  0  0  0  0  0
  -21.4632  -29.7007   23.0117 N   0  0  0  0  0  0  0  0  0  0  0  0
  -28.1271  -29.3695   22.6174 N   0  0  0  0  0  0  0  0  0  0  0  0
  -26.7762  -20.8523   19.9249 N   0  3  1  0  0  0  0  0  0  0  0  0
  -30.2988  -26.5308   22.0756 N   0  3  0  0  0  0  0  0  0  0  0  0
  -22.1337  -14.2447   20.4003 O   0  0  0  0  0  0  0  0  0  0  0  0
  -23.0643  -29.9260   21.3359 O   0  0  0  0  0  0  0  0  0  0  0  0
  -25.7280  -30.9961   23.7761 O   0  0  0  0  0  0  0  0  0  0  0  0
  -29.0143  -28.5734   20.6284 O   0  0  0  0  0  0  0  0  0  0  0  0
  -31.3378  -15.6309   22.5938 O   0  0  0  0  0  0  0  0  0  0  0  0
  -20.8548   -7.8786   22.5873 O   0  0  0  0  0  0  0  0  0  0  0  0
  -24.1643  -23.5555   20.0276 O   0  0  0  0  0  0  0  0  0  1  0  0
  -22.9593   -3.1090   24.3832 F   0  0  0  0  0  0  0  0  0  0  0  0
  -20.2953   -5.5031   21.2886 F   0  0  0  0  0  0  0  0  0  0  0  0
  1  2  1  0  0  0  0
  1  5  2  0  0  0  0
  2  6  2  0  0  0  0
  3 10  2  0  0  0  0
  3 18  1  0  0  0  0
  4 11  1  0  0  0  0
  4 18  2  0  0  0  0
  5 20  1  0  0  0  0
  6 22  1  0  0  0  0
  7 12  2  0  0  0  0
  7 21  1  0  0  0  0
  8  9  2  0  0  0  0
  8 24  1  0  0  0  0
  9 26  1  0  0  0  0
 10 27  1  0  0  0  0
 11 27  2  0  0  0  0
 12 28  1  0  0  0  0
 13 14  2  0  0  0  0
 13 29  1  0  0  0  0
 14 30  1  0  0  0  0
 15 23  1  0  0  0  0
 15 28  2  0  0  0  0
 16 25  1  0  0  0  0
 16 26  2  0  0  0  0
 17 30  2  0  0  0  0
 17 31  1  0  0  0  0
 18 32  1  0  0  0  0
 19 32  1  0  0  0  0
 19 33  2  0  0  0  0
 19 36  1  0  0  0  0
 20 22  2  0  0  0  0
 20 41  1  0  0  0  0
 21 23  2  0  0  0  0
 21 42  1  0  0  0  0
 22 53  1  0  0  0  0
 23 43  1  0  0  0  0
 24 25  2  0  0  0  0
 24 57  1  0  0  0  0
 25 64  1  0  0  0  0
 26 74  1  0  0  0  0
 27 84  1  0  0  0  0
 28 85  1  0  0  0  0
 29 31  2  0  0  0  0
 29 84  1  0  0  0  0
 30 86  1  0  0  0  0
 31 87  1  0  0  0  0
 32 68  2  0  0  0  0
 33 69  1  0  0  0  0
 33 72  1  0  0  0  0
 34 35  2  0  0  0  0
 34 54  1  0  0  0  0
 34 77  1  0  0  0  0
 35 58  1  0  0  0  0
 36 73  1  0  0  0  0
 36 79  2  0  0  0  0
 37 55  1  0  0  0  0
 37 75  1  0  0  0  0
 37 80  2  0  0  0  0
 38 65  1  0  0  0  0
 38 70  1  0  0  0  0
 38 81  2  0  0  0  0
 39 66  1  0  0  0  0
 39 76  1  0  0  0  0
 39 82  2  0  0  0  0
 40 71  1  0  0  0  0
 40 74  1  0  0  0  0
 40 83  2  0  0  0  0
 41 44  1  0  0  0  0
 42 55  1  0  0  0  0
 43 70  1  0  0  0  0
 44 47  1  0  0  0  0
 45 49  1  0  0  0  0
 45 50  1  0  0  0  0
 46 48  1  0  0  0  0
 46 52  1  0  0  0  0
 47 53  1  0  0  0  0
 48 54  1  0  0  0  0
 49 56  1  0  0  0  0
 50 71  1  0  0  0  0
 51 56  1  0  0  0  0
 51 71  1  0  0  0  0
 52 77  1  0  0  0  0
 53 75  1  0  0  0  0
 54 85  1  0  0  0  0
 55 70  1  0  0  0  0
 56 69  1  0  0  0  0
 59 66  1  0  0  0  0
 60 67  1  0  0  0  0
 61 67  1  0  0  0  0
 62 67  1  0  0  0  0
 63 78  1  0  0  0  0
 64 77  1  0  0  0  0
 65 67  1  0  0  0  0
 65 76  1  0  0  0  0
 66 78  1  0  0  0  0
 68 69  1  0  0  0  0
M  CHG  2  77   1  78   1
M  ISO  4  40 100  54 101  74 100  85 101
M  END
> <Batch ID>
0043

> <Smiles>
CC=C1N(Cc2cc([100NH:0][100C:0](=O)N3CCCC(n4nc(-c5ccc(Oc6ccc(F)cc6F)cc5)c(C(N)=O)c4N)C3)ccc2C)CCC[101CH:1]1[101O:1]c1ccc2c(c1)CN(C(=O)C(NC(=O)C(C)NC)C(C)(C)C)C(C(=O)NC1CCCc3ccccc31)C2

> <Shape>
0.296

> <Color>
0.110

> <Negative vol penalty>
0.000

$$$$

  -OEChem-04042322153D

 88 97  0     1  0  0  0  0  0999 V2000
  -16.6082  -30.1526   23.3820 C   0  0  0  0  0  0  0  0  0  0  0  0
  -17.3854  -29.7597   22.2971 C   0  0  0  0  0  0  0  0  0  0  0  0
  -22.7691   -9.9787   20.0647 C   0  0  0  0  0  0  0  0  0  0  0  0
  -24.3433   -9.3664   21.7921 C   0  0  0  0  0  0  0  0  0  0  0  0
  -17.1454  -30.1278   24.6683 C   0  0  0  0  0  0  0  0  0  0  0  0
  -18.7008  -29.3427   22.4979 C   0  0  0  0  0  0  0  0  0  0  0  0
  -20.8581  -22.7737   20.4766 C   0  0  0  0  0  0  0  0  0  0  0  0
  -22.0760   -8.7865   20.2736 C   0  0  0  0  0  0  0  0  0  0  0  0
  -23.6501   -8.1741   22.0011 C   0  0  0  0  0  0  0  0  0  0  0  0
  -21.4007  -21.6118   19.9274 C   0  0  0  0  0  0  0  0  0  0  0  0
  -20.8378   -7.1749   23.5863 C   0  0  0  0  0  0  0  0  0  0  0  0
  -20.5842   -6.7971   24.9049 C   0  0  0  0  0  0  0  0  0  0  0  0
  -23.5538  -22.1505   20.8875 C   0  0  0  0  0  0  0  0  0  0  0  0
  -28.6496  -18.5052   21.2886 C   0  0  0  0  0  0  0  0  0  0  0  0
  -29.3593  -18.6890   23.5906 C   0  0  0  0  0  0  0  0  0  0  0  0
  -21.8323   -4.7573   24.5604 C   0  0  0  0  0  0  0  0  0  0  0  0
  -23.9029  -10.2687   20.8239 C   0  0  0  0  0  0  0  0  0  0  0  0
  -24.1203  -12.8091   20.7429 C   0  0  0  0  0  0  0  0  0  0  0  0
  -18.4649  -29.7011   24.8861 C   0  0  0  0  0  0  0  0  0  0  0  0
  -21.6585  -23.6216   21.2472 C   0  0  0  0  0  0  0  0  0  0  0  0
  -19.2566  -29.3134   23.7883 C   0  0  0  0  0  0  0  0  0  0  0  0
  -23.0128  -23.3094   21.4506 C   0  0  0  0  0  0  0  0  0  0  0  0
  -29.4840  -18.1025   22.3312 C   0  0  0  0  0  0  0  0  0  0  0  0
  -27.5658  -20.0812   22.7647 C   0  0  0  0  0  0  0  0  0  0  0  0
  -27.6905  -19.4946   21.5053 C   0  0  0  0  0  0  0  0  0  0  0  0
  -22.5164   -7.8842   21.2419 C   0  0  0  0  0  0  0  0  0  0  0  0
  -22.7452  -21.3011   20.1321 C   0  0  0  0  0  0  0  0  0  0  0  0
  -21.5886   -6.3439   22.7548 C   0  0  0  0  0  0  0  0  0  0  0  0
  -21.0814   -5.5883   25.3919 C   0  0  0  0  0  0  0  0  0  0  0  0
  -22.0858   -5.1352   23.2418 C   0  0  0  0  0  0  0  0  0  0  0  0
  -28.4002  -19.6784   23.8073 C   0  0  0  0  0  0  0  0  0  0  0  0
  -24.6196  -11.4998   20.6080 C   0  0  0  0  0  0  0  0  0  0  0  0
  -25.1859  -13.6170   20.4295 C   0  0  0  0  0  0  0  0  0  0  0  0
  -25.4373  -19.7616   20.4910 C   0  0  0  0  0  0  0  0  0  0  0  0
  -22.8103  -13.2551   21.1179 C   0  0  0  0  0  0  0  0  0  0  0  0
  -21.8815  -26.7612   23.2890 C   0  0  0  0  0  0  0  0  0  0  0  0
  -23.5276  -24.6269   24.7538 C   0  0  0  0  0  0  0  0  0  0  0  0
  -24.2877  -21.9812   26.2787 C   0  0  0  0  0  0  0  0  0  0  0  0
  -30.5997  -14.9086   20.8388 C   0  0  0  0  0  0  0  0  0  0  0  0
  -19.0170  -29.7363   26.2892 C   0  0  0  0  0  0  0  0  0  0  0  0
  -21.1319  -24.9152   21.8068 C   0  0  0  0  0  0  0  0  0  0  0  0
  -23.8445  -24.2686   22.2575 C   0  0  0  0  0  0  0  0  0  0  0  0
  -20.2987  -28.9250   26.4600 C   0  0  0  0  0  0  0  0  0  0  0  0
  -26.1131  -19.5240   17.2527 C   0  0  0  0  0  0  0  0  0  0  0  0
  -27.4257  -19.4473   18.0258 C   0  0  0  0  0  0  0  0  0  0  0  0
  -29.6759  -12.4990   18.3859 C   0  0  0  0  0  0  0  0  0  0  0  0
  -21.2746  -29.2236   25.3263 C   0  0  0  0  0  0  0  0  0  0  0  0
  -24.8685  -19.2225   18.0810 C   0  0  0  0  0  0  0  0  0  0  0  0
  -28.2399  -12.1280   18.7602 C   0  0  0  0  0  0  0  0  0  0  0  0
  -27.4887  -20.4232   19.1964 C   0  0  0  0  0  0  0  0  0  0  0  0
  -30.5345  -12.7511   19.6233 C   0  0  0  0  0  0  0  0  0  0  0  0
  -28.5470  -13.3686   20.9432 C   0  0  0  0  0  0  0  0  0  0  0  0
  -20.6797  -28.8312   23.9685 C   0  0  1  0  0  0  0  0  0  0  0  0
  -24.6513  -20.1853   19.2487 C   0  0  1  0  0  0  0  0  0  1  0  0
  -21.7386  -25.2719   23.1757 C   0  0  1  0  0  0  0  0  0  0  0  0
  -27.6282  -13.1595   19.7273 C   0  0  2  0  0  0  0  0  0  0  0  0
  -26.5321  -21.1427   22.9853 C   0  0  0  0  0  0  0  0  0  0  0  0
  -25.5808  -20.6399   27.9598 C   0  0  0  0  0  0  0  0  0  0  0  0
  -26.0807  -25.8399   23.6072 C   0  0  0  0  0  0  0  0  0  0  0  0
  -27.3901  -24.3503   25.1353 C   0  0  0  0  0  0  0  0  0  0  0  0
  -25.8429  -26.0600   26.0870 C   0  0  0  0  0  0  0  0  0  0  0  0
  -21.8227  -21.1761   27.7050 C   0  0  0  0  0  0  0  0  0  0  0  0
  -30.5094  -17.0446   22.0993 C   0  0  0  0  0  0  0  0  0  0  0  0
  -24.8833  -24.0040   24.9717 C   0  0  1  0  0  0  0  0  0  0  0  0
  -24.3077  -21.4275   27.6920 C   0  0  2  0  0  0  0  0  0  0  0  0
  -26.0306  -25.0526   24.9319 C   0  0  0  0  0  0  0  0  0  0  0  0
  -25.9027  -11.4729   20.2377 N   0  0  0  0  0  0  0  0  0  0  0  0
  -26.2185  -12.7753   20.1371 N   0  0  0  0  0  0  0  0  0  0  0  0
  -26.8370  -19.8957   20.4091 N   0  0  0  0  0  0  0  0  0  0  0  0
  -23.0842  -24.7297   23.4296 N   0  0  0  0  0  0  0  0  0  0  0  0
  -29.8993  -13.7398   20.4979 N   0  0  0  0  0  0  0  0  0  0  0  0
  -25.3310  -14.9582   20.3783 N   0  0  0  0  0  0  0  0  0  0  0  0
  -22.5416  -13.4714   22.4763 N   0  0  0  0  0  0  0  0  0  0  0  0
  -20.7571  -27.3987   23.7778 N   0  0  0  0  0  0  0  0  0  0  0  0
  -24.7949  -23.2623   26.2249 N   0  0  0  0  0  0  0  0  0  0  0  0
  -29.9227  -15.7958   21.6667 N   0  0  0  0  0  0  0  0  0  0  0  0
  -23.1420  -20.5252   27.9113 N   0  3  0  0  0  0  0  0  0  0  0  0
  -24.8258  -19.2892   21.4532 O   0  0  0  0  0  0  0  0  0  0  0  0
  -21.8999  -13.4401   20.2750 O   0  0  0  0  0  0  0  0  0  0  0  0
  -22.9346  -27.2940   22.9590 O   0  0  0  0  0  0  0  0  0  0  0  0
  -22.8797  -25.0179   25.7288 O   0  0  0  0  0  0  0  0  0  0  0  0
  -23.8678  -21.3401   25.3179 O   0  0  0  0  0  0  0  0  0  0  0  0
  -31.7417  -15.1466   20.4310 O   0  0  0  0  0  0  0  0  0  0  0  0
  -21.8401   -6.7208   21.4462 O   0  0  0  0  0  0  0  0  0  0  0  0
  -23.2673  -20.1629   19.5968 O   0  0  0  0  0  0  0  0  0  1  0  0
  -20.8391   -5.2264   26.6586 F   0  0  0  0  0  0  0  0  0  0  0  0
  -22.8088   -4.3332   22.4481 F   0  0  0  0  0  0  0  0  0  0  0  0
  -28.2783  -20.3789   25.3808 Cl  0  0  0  0  0  0  0  0  0  0  0  0
  1  2  1  0  0  0  0
  1  5  2  0  0  0  0
  2  6  2  0  0  0  0
  3  8  2  0  0  0  0
  3 17  1  0  0  0  0
  4  9  1  0  0  0  0
  4 17  2  0  0  0  0
  5 19  1  0  0  0  0
  6 21  1  0  0  0  0
  7 10  2  0  0  0  0
  7 20  1  0  0  0  0
  8 26  1  0  0  0  0
  9 26  2  0  0  0  0
 10 27  1  0  0  0  0
 11 12  2  0  0  0  0
 11 28  1  0  0  0  0
 12 29  1  0  0  0  0
 13 22  1  0  0  0  0
 13 27  2  0  0  0  0
 14 23  2  0  0  0  0
 14 25  1  0  0  0  0
 15 23  1  0  0  0  0
 15 31  2  0  0  0  0
 16 29  2  0  0  0  0
 16 30  1  0  0  0  0
 17 32  1  0  0  0  0
 18 32  1  0  0  0  0
 18 33  2  0  0  0  0
 18 35  1  0  0  0  0
 19 21  2  0  0  0  0
 19 40  1  0  0  0  0
 20 22  2  0  0  0  0
 20 41  1  0  0  0  0
 21 53  1  0  0  0  0
 22 42  1  0  0  0  0
 23 63  1  0  0  0  0
 24 25  2  0  0  0  0
 24 31  1  0  0  0  0
 24 57  1  0  0  0  0
 25 69  1  0  0  0  0
 26 84  1  0  0  0  0
 27 85  1  0  0  0  0
 28 30  2  0  0  0  0
 28 84  1  0  0  0  0
 29 86  1  0  0  0  0
 30 87  1  0  0  0  0
 31 88  1  0  0  0  0
 32 67  2  0  0  0  0
 33 68  1  0  0  0  0
 33 72  1  0  0  0  0
 34 54  1  0  0  0  0
 34 69  1  0  0  0  0
 34 78  2  0  0  0  0
 35 73  1  0  0  0  0
 35 79  2  0  0  0  0
 36 55  1  0  0  0  0
 36 74  1  0  0  0  0
 36 80  2  0  0  0  0
 37 64  1  0  0  0  0
 37 70  1  0  0  0  0
 37 81  2  0  0  0  0
 38 65  1  0  0  0  0
 38 75  1  0  0  0  0
 38 82  2  0  0  0  0
 39 71  1  0  0  0  0
 39 76  1  0  0  0  0
 39 83  2  0  0  0  0
 40 43  1  0  0  0  0
 41 55  1  0  0  0  0
 42 70  1  0  0  0  0
 43 47  1  0  0  0  0
 44 45  1  0  0  0  0
 44 48  1  0  0  0  0
 45 50  1  0  0  0  0
 46 49  1  0  0  0  0
 46 51  1  0  0  0  0
 47 53  1  0  0  0  0
 48 54  1  0  0  0  0
 49 56  1  0  0  0  0
 50 69  1  0  0  0  0
 51 71  1  0  0  0  0
 52 56  1  0  0  0  0
 52 71  1  0  0  0  0
 53 74  1  0  0  0  0
 54 85  1  0  0  0  0
 55 70  1  0  0  0  0
 56 68  1  0  0  0  0
 58 65  1  0  0  0  0
 59 66  1  0  0  0  0
 60 66  1  0  0  0  0
 61 66  1  0  0  0  0
 62 77  1  0  0  0  0
 63 76  1  0  0  0  0
 64 66  1  0  0  0  0
 64 75  1  0  0  0  0
 65 77  1  0  0  0  0
 67 68  1  0  0  0  0
M  CHG  1  77   1
M  ISO  4  39 100  54 101  76 100  85 101
M  END
> <Batch ID>
0043

> <Smiles>
CNC(C)C(=O)NC(C(=O)N1Cc2cc([101O:1][101CH:1]3CCCCN(c4cc(C[100NH:0][100C:0](=O)N5CCCC(n6nc(-c7ccc(Oc8ccc(F)cc8F)cc7)c(C(N)=O)c6N)C5)cc(Cl)c4C)C3=O)ccc2CC1C(=O)NC1CCCc2ccccc21)C(C)(C)C

> <Shape>
0.254

> <Color>
0.195

> <Negative vol penalty>
0.000

$$$$

  -OEChem-04042322153D

 87 96  0     1  0  0  0  0  0999 V2000
  -27.4061  -27.5250   26.7036 C   0  0  0  0  0  0  0  0  0  0  0  0
  -27.2047  -26.4408   25.8554 C   0  0  0  0  0  0  0  0  0  0  0  0
  -22.6318  -24.5580   20.5786 C   0  0  0  0  0  0  0  0  0  0  0  0
  -22.9940  -23.2294   22.5637 C   0  0  0  0  0  0  0  0  0  0  0  0
  -27.7810  -28.7603   26.1771 C   0  0  0  0  0  0  0  0  0  0  0  0
  -27.3770  -26.5918   24.4799 C   0  0  0  0  0  0  0  0  0  0  0  0
  -29.9945  -22.7773   22.4199 C   0  0  0  0  0  0  0  0  0  0  0  0
  -22.1279  -25.5945   21.3643 C   0  0  0  0  0  0  0  0  0  0  0  0
  -22.4901  -24.2659   23.3494 C   0  0  0  0  0  0  0  0  0  0  0  0
  -29.3102  -21.5834   22.1958 C   0  0  0  0  0  0  0  0  0  0  0  0
  -19.2324  -26.3450   22.9383 C   0  0  0  0  0  0  0  0  0  0  0  0
  -18.0630  -26.9726   22.5094 C   0  0  0  0  0  0  0  0  0  0  0  0
  -29.0537  -22.1738   19.8710 C   0  0  0  0  0  0  0  0  0  0  0  0
  -26.8043  -15.1710   22.2631 C   0  0  0  0  0  0  0  0  0  0  0  0
  -28.0398  -13.4926   21.0412 C   0  0  0  0  0  0  0  0  0  0  0  0
  -25.6754  -13.1992   21.4417 C   0  0  0  0  0  0  0  0  0  0  0  0
  -19.2389  -29.0796   22.3865 C   0  0  0  0  0  0  0  0  0  0  0  0
  -23.0648  -23.3754   21.1783 C   0  0  0  0  0  0  0  0  0  0  0  0
  -24.7022  -22.3507   19.5120 C   0  0  0  0  0  0  0  0  0  0  0  0
  -27.9674  -28.9240   24.7954 C   0  0  0  0  0  0  0  0  0  0  0  0
  -30.2043  -23.6849   21.3717 C   0  0  0  0  0  0  0  0  0  0  0  0
  -27.7535  -27.8308   23.9342 C   0  0  0  0  0  0  0  0  0  0  0  0
  -29.7431  -23.3773   20.0838 C   0  0  0  0  0  0  0  0  0  0  0  0
  -28.0042  -14.7093   21.7224 C   0  0  0  0  0  0  0  0  0  0  0  0
  -25.6398  -14.4159   22.1229 C   0  0  0  0  0  0  0  0  0  0  0  0
  -22.0570  -25.4485   22.7497 C   0  0  0  0  0  0  0  0  0  0  0  0
  -28.8372  -21.2828   20.9219 C   0  0  0  0  0  0  0  0  0  0  0  0
  -20.4051  -27.0846   23.0914 C   0  0  0  0  0  0  0  0  0  0  0  0
  -18.0662  -28.3399   22.2334 C   0  0  0  0  0  0  0  0  0  0  0  0
  -20.4084  -28.4519   22.8155 C   0  0  0  0  0  0  0  0  0  0  0  0
  -26.8754  -12.7375   20.9009 C   0  0  0  0  0  0  0  0  0  0  0  0
  -23.5850  -22.3041   20.3672 C   0  0  0  0  0  0  0  0  0  0  0  0
  -24.7775  -21.0882   18.9764 C   0  0  0  0  0  0  0  0  0  0  0  0
  -28.7844  -17.9140   21.3906 C   0  0  0  0  0  0  0  0  0  0  0  0
  -25.5924  -23.4380   19.2273 C   0  0  0  0  0  0  0  0  0  0  0  0
  -29.3323  -26.6868   20.7955 C   0  0  0  0  0  0  0  0  0  0  0  0
  -31.2741  -26.3454   18.2197 C   0  0  0  0  0  0  0  0  0  0  0  0
  -31.9620  -23.7972   15.7598 C   0  0  0  0  0  0  0  0  0  0  0  0
  -22.8882  -15.7336   20.8763 C   0  0  0  0  0  0  0  0  0  0  0  0
  -28.3270  -30.2906   24.2682 C   0  0  0  0  0  0  0  0  0  0  0  0
  -30.9677  -24.9562   21.6240 C   0  0  0  0  0  0  0  0  0  0  0  0
  -29.9602  -24.3087   18.9202 C   0  0  0  0  0  0  0  0  0  0  0  0
  -28.8535  -30.2716   22.8355 C   0  0  0  0  0  0  0  0  0  0  0  0
  -29.2104  -17.1975   18.5576 C   0  0  0  0  0  0  0  0  0  0  0  0
  -22.0353  -17.3429   17.8170 C   0  0  0  0  0  0  0  0  0  0  0  0
  -27.9646  -29.4025   21.9516 C   0  0  0  0  0  0  0  0  0  0  0  0
  -28.4629  -18.4603   18.9818 C   0  0  0  0  0  0  0  0  0  0  0  0
  -22.4366  -18.8011   18.0465 C   0  0  0  0  0  0  0  0  0  0  0  0
  -29.9658  -16.5328   19.7050 C   0  0  0  0  0  0  0  0  0  0  0  0
  -21.4769  -16.7047   19.0870 C   0  0  0  0  0  0  0  0  0  0  0  0
  -22.7521  -18.2705   20.4996 C   0  0  0  0  0  0  0  0  0  0  0  0
  -27.9547  -27.9486   22.4390 C   0  0  1  0  0  0  0  0  0  0  0  0
  -28.9414  -18.9920   20.3267 C   0  0  1  0  0  0  0  0  0  1  0  0
  -30.6750  -26.0432   20.5944 C   0  0  1  0  0  0  0  0  0  0  0  0
  -23.3730  -18.9404   19.2618 C   0  0  2  0  0  0  0  0  0  0  0  0
  -34.0314  -23.3446   14.4144 C   0  0  0  0  0  0  0  0  0  0  0  0
  -29.9199  -28.0674   16.0958 C   0  0  0  0  0  0  0  0  0  0  0  0
  -30.8255  -26.5110   14.3563 C   0  0  0  0  0  0  0  0  0  0  0  0
  -32.3900  -27.8043   15.8062 C   0  0  0  0  0  0  0  0  0  0  0  0
  -32.1063  -20.9974   16.7080 C   0  0  0  0  0  0  0  0  0  0  0  0
  -29.2569  -15.5233   21.8724 C   0  0  0  0  0  0  0  0  0  0  0  0
  -24.3569  -14.9115   22.7001 C   0  0  0  0  0  0  0  0  0  0  0  0
  -31.0901  -25.8753   16.7969 C   0  0  1  0  0  0  0  0  0  0  0  0
  -33.2244  -22.9619   15.6452 C   0  0  2  0  0  0  0  0  0  0  0  0
  -31.0401  -27.0547   15.7850 C   0  0  0  0  0  0  0  0  0  0  0  0
  -22.9930  -21.1068   20.3773 N   0  0  0  0  0  0  0  0  0  0  0  0
  -23.7410  -20.3895   19.5218 N   0  0  0  0  0  0  0  0  0  0  0  0
  -29.2706  -16.6699   20.9796 N   0  0  0  0  0  0  0  0  0  0  0  0
  -30.7066  -25.5421   19.2189 N   0  0  0  0  0  0  0  0  0  0  0  0
  -22.4136  -16.8702   20.2011 N   0  0  0  0  0  0  0  0  0  0  0  0
  -25.6285  -20.5187   18.0967 N   0  0  0  0  0  0  0  0  0  0  0  0
  -25.3714  -24.6668   19.8641 N   0  0  0  0  0  0  0  0  0  0  0  0
  -29.1693  -27.2724   22.0365 N   0  0  0  0  0  0  0  0  0  0  0  0
  -32.1586  -24.9149   16.5430 N   0  0  0  0  0  0  0  0  0  0  0  0
  -23.7772  -15.9789   21.9156 N   0  0  0  0  0  0  0  0  0  0  0  0
  -32.8811  -21.5147   15.5508 N   0  3  0  0  0  0  0  0  0  0  0  0
  -28.2883  -18.1504   22.4907 O   0  0  0  0  0  0  0  0  0  0  0  0
  -26.5455  -23.3280   18.4192 O   0  0  0  0  0  0  0  0  0  0  0  0
  -28.5059  -26.6558   19.8912 O   0  0  0  0  0  0  0  0  0  0  0  0
  -31.9045  -27.3832   18.4369 O   0  0  0  0  0  0  0  0  0  0  0  0
  -30.9081  -23.4909   15.2066 O   0  0  0  0  0  0  0  0  0  0  0  0
  -22.5491  -14.5850   20.5719 O   0  0  0  0  0  0  0  0  0  0  0  0
  -21.5655  -26.4598   23.5166 O   0  0  0  0  0  0  0  0  0  0  0  0
  -28.1684  -20.1185   20.7006 O   0  0  0  0  0  0  0  0  0  1  0  0
  -16.9435  -28.9423   21.8200 F   0  0  0  0  0  0  0  0  0  0  0  0
  -21.5322  -29.1674   22.9596 F   0  0  0  0  0  0  0  0  0  0  0  0
  -26.9195  -11.2356   20.0616 Cl  0  0  0  0  0  0  0  0  0  0  0  0
  1  2  1  0  0  0  0
  1  5  2  0  0  0  0
  2  6  2  0  0  0  0
  3  8  2  0  0  0  0
  3 18  1  0  0  0  0
  4  9  1  0  0  0  0
  4 18  2  0  0  0  0
  5 20  1  0  0  0  0
  6 22  1  0  0  0  0
  7 10  2  0  0  0  0
  7 21  1  0  0  0  0
  8 26  1  0  0  0  0
  9 26  2  0  0  0  0
 10 27  1  0  0  0  0
 11 12  2  0  0  0  0
 11 28  1  0  0  0  0
 12 29  1  0  0  0  0
 13 23  1  0  0  0  0
 13 27  2  0  0  0  0
 14 24  2  0  0  0  0
 14 25  1  0  0  0  0
 15 24  1  0  0  0  0
 15 31  2  0  0  0  0
 16 25  2  0  0  0  0
 16 31  1  0  0  0  0
 17 29  2  0  0  0  0
 17 30  1  0  0  0  0
 18 32  1  0  0  0  0
 19 32  1  0  0  0  0
 19 33  2  0  0  0  0
 19 35  1  0  0  0  0
 20 22  2  0  0  0  0
 20 40  1  0  0  0  0
 21 23  2  0  0  0  0
 21 41  1  0  0  0  0
 22 52  1  0  0  0  0
 23 42  1  0  0  0  0
 24 61  1  0  0  0  0
 25 62  1  0  0  0  0
 26 83  1  0  0  0  0
 27 84  1  0  0  0  0
 28 30  2  0  0  0  0
 28 83  1  0  0  0  0
 29 85  1  0  0  0  0
 30 86  1  0  0  0  0
 31 87  1  0  0  0  0
 32 66  2  0  0  0  0
 33 67  1  0  0  0  0
 33 71  1  0  0  0  0
 34 53  1  0  0  0  0
 34 68  1  0  0  0  0
 34 77  2  0  0  0  0
 35 72  1  0  0  0  0
 35 78  2  0  0  0  0
 36 54  1  0  0  0  0
 36 73  1  0  0  0  0
 36 79  2  0  0  0  0
 37 63  1  0  0  0  0
 37 69  1  0  0  0  0
 37 80  2  0  0  0  0
 38 64  1  0  0  0  0
 38 74  1  0  0  0  0
 38 81  2  0  0  0  0
 39 70  1  0  0  0  0
 39 75  1  0  0  0  0
 39 82  2  0  0  0  0
 40 43  1  0  0  0  0
 41 54  1  0  0  0  0
 42 69  1  0  0  0  0
 43 46  1  0  0  0  0
 44 47  1  0  0  0  0
 44 49  1  0  0  0  0
 45 48  1  0  0  0  0
 45 50  1  0  0  0  0
 46 52  1  0  0  0  0
 47 53  1  0  0  0  0
 48 55  1  0  0  0  0
 49 68  1  0  0  0  0
 50 70  1  0  0  0  0
 51 55  1  0  0  0  0
 51 70  1  0  0  0  0
 52 73  1  0  0  0  0
 53 84  1  0  0  0  0
 54 69  1  0  0  0  0
 55 67  1  0  0  0  0
 56 64  1  0  0  0  0
 57 65  1  0  0  0  0
 58 65  1  0  0  0  0
 59 65  1  0  0  0  0
 60 76  1  0  0  0  0
 61 68  1  0  0  0  0
 62 75  1  0  0  0  0
 63 65  1  0  0  0  0
 63 74  1  0  0  0  0
 64 76  1  0  0  0  0
 66 67  1  0  0  0  0
M  CHG  1  76   1
M  ISO  4  39 100  53 101  75 100  84 101
M  END
> <Batch ID>
0043

> <Smiles>
CNC(C)C(=O)NC(C(=O)N1Cc2cc([101O:1][101CH:1]3CCCN(Cc4cc(Cl)cc(C[100NH:0][100C:0](=O)N5CCCC(n6nc(-c7ccc(Oc8ccc(F)cc8F)cc7)c(C(N)=O)c6N)C5)c4)C3=O)ccc2CC1C(=O)NC1CCCc2ccccc21)C(C)(C)C

> <Shape>
0.212

> <Color>
0.058

> <Negative vol penalty>
0.000

$$$$

  -OEChem-04042322153D

 84 92  0     1  0  0  0  0  0999 V2000
  -20.1582  -22.2724   12.2843 C   0  0  0  0  0  0  0  0  0  0  0  0
  -20.4388  -21.0913   12.9636 C   0  0  0  0  0  0  0  0  0  0  0  0
  -28.5740  -26.3354   17.7052 C   0  0  0  0  0  0  0  0  0  0  0  0
  -28.5814  -26.0676   20.1063 C   0  0  0  0  0  0  0  0  0  0  0  0
  -20.7535  -23.4664   12.6891 C   0  0  0  0  0  0  0  0  0  0  0  0
  -21.3158  -21.1033   14.0477 C   0  0  0  0  0  0  0  0  0  0  0  0
  -20.9836  -17.6441   19.0904 C   0  0  0  0  0  0  0  0  0  0  0  0
  -29.9170  -12.9845   18.9861 C   0  0  0  0  0  0  0  0  0  0  0  0
  -29.2573  -11.7979   18.6663 C   0  0  0  0  0  0  0  0  0  0  0  0
  -27.9133  -27.5561   17.8434 C   0  0  0  0  0  0  0  0  0  0  0  0
  -27.9207  -27.2882   20.2445 C   0  0  0  0  0  0  0  0  0  0  0  0
  -21.6297  -16.4666   19.4644 C   0  0  0  0  0  0  0  0  0  0  0  0
  -24.7652  -28.4621   19.9353 C   0  0  0  0  0  0  0  0  0  0  0  0
  -23.6907  -28.5206   20.8227 C   0  0  0  0  0  0  0  0  0  0  0  0
  -28.0217  -13.6809   20.3126 C   0  0  0  0  0  0  0  0  0  0  0  0
  -23.2669  -17.7576   20.6778 C   0  0  0  0  0  0  0  0  0  0  0  0
  -24.8385  -30.2195   22.1007 C   0  0  0  0  0  0  0  0  0  0  0  0
  -28.9080  -25.5911   18.8366 C   0  0  0  0  0  0  0  0  0  0  0  0
  -27.3619  -12.4943   19.9929 C   0  0  0  0  0  0  0  0  0  0  0  0
  -30.9809  -24.1140   18.6663 C   0  0  0  0  0  0  0  0  0  0  0  0
  -21.6308  -23.4948   13.7846 C   0  0  0  0  0  0  0  0  0  0  0  0
  -21.4814  -18.8898   19.4989 C   0  0  0  0  0  0  0  0  0  0  0  0
  -21.9245  -22.2986   14.4667 C   0  0  0  0  0  0  0  0  0  0  0  0
  -22.6238  -18.9492   20.3098 C   0  0  0  0  0  0  0  0  0  0  0  0
  -29.2993  -13.9260   19.8092 C   0  0  0  0  0  0  0  0  0  0  0  0
  -27.9797  -11.5528   19.1697 C   0  0  0  0  0  0  0  0  0  0  0  0
  -27.5867  -28.0325   19.1130 C   0  0  0  0  0  0  0  0  0  0  0  0
  -22.7732  -16.5234   20.2558 C   0  0  0  0  0  0  0  0  0  0  0  0
  -25.8765  -29.2823   20.1306 C   0  0  0  0  0  0  0  0  0  0  0  0
  -23.7273  -29.3993   21.9054 C   0  0  0  0  0  0  0  0  0  0  0  0
  -25.9131  -30.1610   21.2133 C   0  0  0  0  0  0  0  0  0  0  0  0
  -29.5900  -24.3299   18.6945 C   0  0  0  0  0  0  0  0  0  0  0  0
  -31.1144  -22.7554   18.5152 C   0  0  0  0  0  0  0  0  0  0  0  0
  -26.0095  -12.2551   20.5353 C   0  0  0  0  0  0  0  0  0  0  0  0
  -32.0559  -25.0571   18.7678 C   0  0  0  0  0  0  0  0  0  0  0  0
  -22.6051  -21.4575   17.9997 C   0  0  0  0  0  0  0  0  0  0  0  0
  -22.6289  -22.7128   20.9907 C   0  0  0  0  0  0  0  0  0  0  0  0
  -22.7409  -22.1728   24.3586 C   0  0  0  0  0  0  0  0  0  0  0  0
  -29.7427  -17.6531   19.9408 C   0  0  0  0  0  0  0  0  0  0  0  0
  -22.2868  -24.8012   14.1557 C   0  0  0  0  0  0  0  0  0  0  0  0
  -20.7575  -20.1494   19.1092 C   0  0  0  0  0  0  0  0  0  0  0  0
  -23.1869  -20.2604   20.7916 C   0  0  0  0  0  0  0  0  0  0  0  0
  -22.9139  -24.7941   15.5475 C   0  0  0  0  0  0  0  0  0  0  0  0
  -27.6798  -19.2102   17.4076 C   0  0  0  0  0  0  0  0  0  0  0  0
  -23.7345  -23.5254   15.7569 C   0  0  0  0  0  0  0  0  0  0  0  0
  -28.1141  -20.6729   17.5184 C   0  0  0  0  0  0  0  0  0  0  0  0
  -27.6328  -18.5421   18.7786 C   0  0  0  0  0  0  0  0  0  0  0  0
  -29.3431  -20.0828   19.6588 C   0  0  0  0  0  0  0  0  0  0  0  0
  -22.8513  -22.2754   15.6628 C   0  0  1  0  0  0  0  0  0  0  0  0
  -21.6468  -21.3881   19.1549 C   0  0  1  0  0  0  0  0  0  0  0  0
  -29.4321  -20.8080   18.3038 C   0  0  2  0  0  0  0  0  0  0  0  0
  -27.2934  -10.2751   18.8125 C   0  0  0  0  0  0  0  0  0  0  0  0
  -22.7844  -23.3958   26.5494 C   0  0  0  0  0  0  0  0  0  0  0  0
  -25.5630  -23.4163   20.5370 C   0  0  0  0  0  0  0  0  0  0  0  0
  -25.7948  -23.7425   23.0084 C   0  0  0  0  0  0  0  0  0  0  0  0
  -24.2343  -25.1855   21.7027 C   0  0  0  0  0  0  0  0  0  0  0  0
  -20.2043  -20.9265   25.2371 C   0  0  0  0  0  0  0  0  0  0  0  0
  -30.0048  -15.1946   20.1509 C   0  0  0  0  0  0  0  0  0  0  0  0
  -23.6584  -12.9909   20.7013 C   0  0  0  0  0  0  0  0  0  0  0  0
  -22.8442  -14.1482   20.1594 C   0  0  0  0  0  0  0  0  0  1  0  0
  -23.6296  -22.7663   22.1198 C   0  0  1  0  0  0  0  0  0  0  0  0
  -21.9083  -22.7342   25.4970 C   0  0  2  0  0  0  0  0  0  0  0  0
  -24.7962  -23.7529   21.8314 C   0  0  0  0  0  0  0  0  0  0  0  0
  -28.8901  -23.1990   18.5710 N   0  0  0  0  0  0  0  0  0  0  0  0
  -29.8449  -22.2595   18.4637 N   0  0  0  0  0  0  0  0  0  0  0  0
  -22.4471  -21.4645   20.3788 N   0  0  0  0  0  0  0  0  0  0  0  0
  -28.9235  -18.6907   19.4658 N   0  0  0  0  0  0  0  0  0  0  0  0
  -32.1927  -21.9485   18.4225 N   0  0  0  0  0  0  0  0  0  0  0  0
  -25.8235  -11.1866   21.3103 N   0  0  0  0  0  0  0  0  0  0  0  0
  -31.7418  -26.4146   18.9194 N   0  0  0  0  0  0  0  0  0  0  0  0
  -22.0969  -22.0964   16.8848 N   0  0  0  0  0  0  0  0  0  0  0  0
  -22.8687  -23.0767   23.3252 N   0  0  0  0  0  0  0  0  0  0  0  0
  -29.2699  -16.3646   19.7243 N   0  0  0  0  0  0  0  0  0  0  0  0
  -25.0367  -13.1193   20.2219 N   0  3  0  0  0  0  0  0  0  0  0  0
  -21.1264  -21.6476   26.1519 N   0  3  0  0  0  0  0  0  0  0  0  0
  -33.2594  -24.7084   18.7087 O   0  0  0  0  0  0  0  0  0  0  0  0
  -23.7233  -20.9691   18.1121 O   0  0  0  0  0  0  0  0  0  0  0  0
  -22.0253  -23.7392   20.6684 O   0  0  0  0  0  0  0  0  0  0  0  0
  -23.2321  -21.0465   24.3851 O   0  0  0  0  0  0  0  0  0  0  0  0
  -30.8193  -17.8595   20.5113 O   0  0  0  0  0  0  0  0  0  0  0  0
  -26.9422  -29.2237   19.2483 O   0  0  0  0  0  0  0  0  0  0  0  0
  -23.4062  -15.3756   20.6217 O   0  0  0  0  0  0  0  0  0  1  0  0
  -22.6947  -29.4564   22.7566 F   0  0  0  0  0  0  0  0  0  0  0  0
  -26.9774  -30.9523   21.4054 F   0  0  0  0  0  0  0  0  0  0  0  0
  1  2  1  0  0  0  0
  1  5  2  0  0  0  0
  2  6  2  0  0  0  0
  3 10  2  0  0  0  0
  3 18  1  0  0  0  0
  4 11  1  0  0  0  0
  4 18  2  0  0  0  0
  5 21  1  0  0  0  0
  6 23  1  0  0  0  0
  7 12  2  0  0  0  0
  7 22  1  0  0  0  0
  8  9  2  0  0  0  0
  8 25  1  0  0  0  0
  9 26  1  0  0  0  0
 10 27  1  0  0  0  0
 11 27  2  0  0  0  0
 12 28  1  0  0  0  0
 13 14  2  0  0  0  0
 13 29  1  0  0  0  0
 14 30  1  0  0  0  0
 15 19  1  0  0  0  0
 15 25  2  0  0  0  0
 16 24  1  0  0  0  0
 16 28  2  0  0  0  0
 17 30  2  0  0  0  0
 17 31  1  0  0  0  0
 18 32  1  0  0  0  0
 19 26  2  0  0  0  0
 19 34  1  0  0  0  0
 20 32  1  0  0  0  0
 20 33  2  0  0  0  0
 20 35  1  0  0  0  0
 21 23  2  0  0  0  0
 21 40  1  0  0  0  0
 22 24  2  0  0  0  0
 22 41  1  0  0  0  0
 23 49  1  0  0  0  0
 24 42  1  0  0  0  0
 25 58  1  0  0  0  0
 26 52  1  0  0  0  0
 27 81  1  0  0  0  0
 28 82  1  0  0  0  0
 29 31  2  0  0  0  0
 29 81  1  0  0  0  0
 30 83  1  0  0  0  0
 31 84  1  0  0  0  0
 32 64  2  0  0  0  0
 33 65  1  0  0  0  0
 33 68  1  0  0  0  0
 34 69  1  0  0  0  0
 34 74  2  0  0  0  0
 35 70  1  0  0  0  0
 35 76  2  0  0  0  0
 36 50  1  0  0  0  0
 36 71  1  0  0  0  0
 36 77  2  0  0  0  0
 37 61  1  0  0  0  0
 37 66  1  0  0  0  0
 37 78  2  0  0  0  0
 38 62  1  0  0  0  0
 38 72  1  0  0  0  0
 38 79  2  0  0  0  0
 39 67  1  0  0  0  0
 39 73  1  0  0  0  0
 39 80  2  0  0  0  0
 40 43  1  0  0  0  0
 41 50  1  0  0  0  0
 42 66  1  0  0  0  0
 43 45  1  0  0  0  0
 44 46  1  0  0  0  0
 44 47  1  0  0  0  0
 45 49  1  0  0  0  0
 46 51  1  0  0  0  0
 47 67  1  0  0  0  0
 48 51  1  0  0  0  0
 48 67  1  0  0  0  0
 49 71  1  0  0  0  0
 50 66  1  0  0  0  0
 51 65  1  0  0  0  0
 53 62  1  0  0  0  0
 54 63  1  0  0  0  0
 55 63  1  0  0  0  0
 56 63  1  0  0  0  0
 57 75  1  0  0  0  0
 58 73  1  0  0  0  0
 59 60  1  0  0  0  0
 59 74  1  0  0  0  0
 60 82  1  0  0  0  0
 61 63  1  0  0  0  0
 61 72  1  0  0  0  0
 62 75  1  0  0  0  0
 64 65  1  0  0  0  0
M  CHG  2  74   1  75   1
M  ISO  4  39 100  60 101  73 100  82 101
M  END
> <Batch ID>
0043

> <Smiles>
CNC(C)C(=O)NC(C(=O)N1Cc2cc([101O:1][101CH2:1]CNC(=N)c3cc(C[100NH:0][100C:0](=O)N4CCCC(n5nc(-c6ccc(Oc7ccc(F)cc7F)cc6)c(C(N)=O)c5N)C4)ccc3C)ccc2CC1C(=O)NC1CCCc2ccccc21)C(C)(C)C

> <Shape>
0.203

> <Color>
0.057

> <Negative vol penalty>
0.000

$$$$

  -OEChem-04042322153D

 88 97  0     1  0  0  0  0  0999 V2000
  -18.2326  -28.5253   22.9516 C   0  0  0  0  0  0  0  0  0  0  0  0
  -17.7126  -27.2469   23.1202 C   0  0  0  0  0  0  0  0  0  0  0  0
  -27.5790  -23.7198   21.1262 C   0  0  0  0  0  0  0  0  0  0  0  0
  -29.0188  -23.4022   19.2123 C   0  0  0  0  0  0  0  0  0  0  0  0
  -19.5516  -28.6874   22.5332 C   0  0  0  0  0  0  0  0  0  0  0  0
  -18.5149  -26.1305   22.8820 C   0  0  0  0  0  0  0  0  0  0  0  0
  -20.4259  -18.4340   22.3039 C   0  0  0  0  0  0  0  0  0  0  0  0
  -27.6863  -25.1025   20.9775 C   0  0  0  0  0  0  0  0  0  0  0  0
  -29.1261  -24.7849   19.0636 C   0  0  0  0  0  0  0  0  0  0  0  0
  -21.3483  -17.5562   21.7360 C   0  0  0  0  0  0  0  0  0  0  0  0
  -26.3528  -27.5071   19.0096 C   0  0  0  0  0  0  0  0  0  0  0  0
  -25.1838  -28.2621   19.1055 C   0  0  0  0  0  0  0  0  0  0  0  0
  -23.1461  -18.7786   22.7814 C   0  0  0  0  0  0  0  0  0  0  0  0
  -27.5007  -11.2269   21.2624 C   0  0  0  0  0  0  0  0  0  0  0  0
  -29.5009  -11.8081   20.0384 C   0  0  0  0  0  0  0  0  0  0  0  0
  -26.1181  -29.4712   20.9769 C   0  0  0  0  0  0  0  0  0  0  0  0
  -28.2453  -22.8696   20.2437 C   0  0  0  0  0  0  0  0  0  0  0  0
  -26.9592  -20.6690   20.3485 C   0  0  0  0  0  0  0  0  0  0  0  0
  -20.3660  -27.5719   22.2780 C   0  0  0  0  0  0  0  0  0  0  0  0
  -20.8582  -19.4989   23.1074 C   0  0  0  0  0  0  0  0  0  0  0  0
  -19.8559  -26.2736   22.4822 C   0  0  0  0  0  0  0  0  0  0  0  0
  -22.2271  -19.6669   23.3604 C   0  0  0  0  0  0  0  0  0  0  0  0
  -26.7917  -12.2084   20.5700 C   0  0  0  0  0  0  0  0  0  0  0  0
  -28.7920  -12.7897   19.3459 C   0  0  0  0  0  0  0  0  0  0  0  0
  -28.4599  -25.6351   19.9462 C   0  0  0  0  0  0  0  0  0  0  0  0
  -22.7088  -17.7302   21.9723 C   0  0  0  0  0  0  0  0  0  0  0  0
  -27.4044  -27.7341   19.8975 C   0  0  0  0  0  0  0  0  0  0  0  0
  -25.0665  -29.2441   20.0891 C   0  0  0  0  0  0  0  0  0  0  0  0
  -27.2871  -28.7162   20.8811 C   0  0  0  0  0  0  0  0  0  0  0  0
  -28.8554  -11.0267   20.9966 C   0  0  0  0  0  0  0  0  0  0  0  0
  -27.4373  -12.9899   19.6118 C   0  0  0  0  0  0  0  0  0  0  0  0
  -28.1353  -21.4412   20.3972 C   0  0  0  0  0  0  0  0  0  0  0  0
  -27.3867  -19.3792   20.5490 C   0  0  0  0  0  0  0  0  0  0  0  0
  -24.2345  -14.5673   21.2224 C   0  0  0  0  0  0  0  0  0  0  0  0
  -25.6017  -21.0808   20.1405 C   0  0  0  0  0  0  0  0  0  0  0  0
  -20.6638  -22.6665   22.9285 C   0  0  0  0  0  0  0  0  0  0  0  0
  -21.9797  -22.5249   25.8900 C   0  0  0  0  0  0  0  0  0  0  0  0
  -24.5648  -20.6197   27.5346 C   0  0  0  0  0  0  0  0  0  0  0  0
  -30.9702  -15.2252   19.5254 C   0  0  0  0  0  0  0  0  0  0  0  0
  -21.7888  -27.8051   21.8347 C   0  0  0  0  0  0  0  0  0  0  0  0
  -19.8488  -20.4210   23.7345 C   0  0  0  0  0  0  0  0  0  0  0  0
  -22.7413  -20.7823   24.2322 C   0  0  0  0  0  0  0  0  0  0  0  0
  -22.4176  -26.5773   21.1839 C   0  0  0  0  0  0  0  0  0  0  0  0
  -25.5598  -14.8312   23.8226 C   0  0  0  0  0  0  0  0  0  0  0  0
  -31.8838  -17.5929   22.0226 C   0  0  0  0  0  0  0  0  0  0  0  0
  -22.1966  -25.3537   22.0606 C   0  0  0  0  0  0  0  0  0  0  0  0
  -25.1329  -16.0716   23.0659 C   0  0  0  0  0  0  0  0  0  0  0  0
  -30.8974  -18.7434   21.8141 C   0  0  0  0  0  0  0  0  0  0  0  0
  -25.9919  -13.7574   22.8402 C   0  0  0  0  0  0  0  0  0  0  0  0
  -32.2979  -16.9574   20.6972 C   0  0  0  0  0  0  0  0  0  0  0  0
  -30.1913  -17.6702   19.6350 C   0  0  0  0  0  0  0  0  0  0  0  0
  -20.7006  -25.0444   22.1996 C   0  0  1  0  0  0  0  0  0  0  0  0
  -23.9579  -15.7254   22.1726 C   0  0  1  0  0  0  0  0  0  1  0  0
  -20.4347  -21.7766   24.1173 C   0  0  1  0  0  0  0  0  0  0  0  0
  -29.7014  -18.3064   20.9471 C   0  0  2  0  0  0  0  0  0  0  0  0
  -24.8615  -20.0206   29.9534 C   0  0  0  0  0  0  0  0  0  0  0  0
  -23.7201  -25.0288   25.9973 C   0  0  0  0  0  0  0  0  0  0  0  0
  -25.2671  -23.8030   27.5374 C   0  0  0  0  0  0  0  0  0  0  0  0
  -22.9064  -24.2279   28.2223 C   0  0  0  0  0  0  0  0  0  0  0  0
  -24.7218  -17.7291   26.9193 C   0  0  0  0  0  0  0  0  0  0  0  0
  -25.3355  -12.3882   20.8881 C   0  0  0  0  0  0  0  0  0  0  0  0
  -29.5243  -13.6027   18.3270 C   0  0  0  0  0  0  0  0  0  0  0  0
  -23.3875  -22.5061   26.4346 C   0  0  1  0  0  0  0  0  0  0  0  0
  -24.3706  -19.5493   28.5934 C   0  0  2  0  0  0  0  0  0  0  0  0
  -23.8141  -23.8809   27.0222 C   0  0  0  0  0  0  0  0  0  0  0  0
  -29.2279  -20.7035   20.6119 N   0  0  0  0  0  0  0  0  0  0  0  0
  -28.7401  -19.4544   20.7001 N   0  0  0  0  0  0  0  0  0  0  0  0
  -25.0967  -13.5766   21.6962 N   0  0  0  0  0  0  0  0  0  0  0  0
  -21.7156  -21.6614   24.8175 N   0  0  0  0  0  0  0  0  0  0  0  0
  -31.1176  -16.5641   19.9238 N   0  0  0  0  0  0  0  0  0  0  0  0
  -26.7331  -18.1996   20.6092 N   0  0  0  0  0  0  0  0  0  0  0  0
  -25.3387  -22.4443   19.9507 N   0  0  0  0  0  0  0  0  0  0  0  0
  -20.5224  -24.0142   23.1990 N   0  0  0  0  0  0  0  0  0  0  0  0
  -23.4408  -21.4053   27.3905 N   0  0  0  0  0  0  0  0  0  0  0  0
  -29.8199  -14.9362   18.8015 N   0  0  0  0  0  0  0  0  0  0  0  0
  -25.1199  -18.3147   28.2252 N   0  3  0  0  0  0  0  0  0  0  0  0
  -23.6564  -14.5141   20.1337 O   0  0  0  0  0  0  0  0  0  0  0  0
  -24.6481  -20.2658   20.1399 O   0  0  0  0  0  0  0  0  0  0  0  0
  -20.9492  -22.1675   21.8463 O   0  0  0  0  0  0  0  0  0  0  0  0
  -21.1431  -23.2730   26.4022 O   0  0  0  0  0  0  0  0  0  0  0  0
  -25.6103  -20.7486   26.9016 O   0  0  0  0  0  0  0  0  0  0  0  0
  -31.7995  -14.3511   19.7993 O   0  0  0  0  0  0  0  0  0  0  0  0
  -28.5646  -26.9843   19.8006 O   0  0  0  0  0  0  0  0  0  0  0  0
  -23.6113  -16.8753   21.4186 O   0  0  0  0  0  0  0  0  0  1  0  0
  -23.9445  -29.9701   20.1800 F   0  0  0  0  0  0  0  0  0  0  0  0
  -28.2944  -28.9396   21.7362 F   0  0  0  0  0  0  0  0  0  0  0  0
  -29.7307   -9.8161   21.8512 Cl  0  0  0  0  0  0  0  0  0  0  0  0
  -26.5574  -14.2096   18.7534 Cl  0  0  0  0  0  0  0  0  0  0  0  0
  1  2  1  0  0  0  0
  1  5  2  0  0  0  0
  2  6  2  0  0  0  0
  3  8  2  0  0  0  0
  3 17  1  0  0  0  0
  4  9  1  0  0  0  0
  4 17  2  0  0  0  0
  5 19  1  0  0  0  0
  6 21  1  0  0  0  0
  7 10  2  0  0  0  0
  7 20  1  0  0  0  0
  8 25  1  0  0  0  0
  9 25  2  0  0  0  0
 10 26  1  0  0  0  0
 11 12  2  0  0  0  0
 11 27  1  0  0  0  0
 12 28  1  0  0  0  0
 13 22  1  0  0  0  0
 13 26  2  0  0  0  0
 14 23  1  0  0  0  0
 14 30  2  0  0  0  0
 15 24  2  0  0  0  0
 15 30  1  0  0  0  0
 16 28  2  0  0  0  0
 16 29  1  0  0  0  0
 17 32  1  0  0  0  0
 18 32  1  0  0  0  0
 18 33  2  0  0  0  0
 18 35  1  0  0  0  0
 19 21  2  0  0  0  0
 19 40  1  0  0  0  0
 20 22  2  0  0  0  0
 20 41  1  0  0  0  0
 21 52  1  0  0  0  0
 22 42  1  0  0  0  0
 23 31  2  0  0  0  0
 23 61  1  0  0  0  0
 24 31  1  0  0  0  0
 24 62  1  0  0  0  0
 25 83  1  0  0  0  0
 26 84  1  0  0  0  0
 27 29  2  0  0  0  0
 27 83  1  0  0  0  0
 28 85  1  0  0  0  0
 29 86  1  0  0  0  0
 30 87  1  0  0  0  0
 31 88  1  0  0  0  0
 32 66  2  0  0  0  0
 33 67  1  0  0  0  0
 33 71  1  0  0  0  0
 34 53  1  0  0  0  0
 34 68  1  0  0  0  0
 34 77  2  0  0  0  0
 35 72  1  0  0  0  0
 35 78  2  0  0  0  0
 36 54  1  0  0  0  0
 36 73  1  0  0  0  0
 36 79  2  0  0  0  0
 37 63  1  0  0  0  0
 37 69  1  0  0  0  0
 37 80  2  0  0  0  0
 38 64  1  0  0  0  0
 38 74  1  0  0  0  0
 38 81  2  0  0  0  0
 39 70  1  0  0  0  0
 39 75  1  0  0  0  0
 39 82  2  0  0  0  0
 40 43  1  0  0  0  0
 41 54  1  0  0  0  0
 42 69  1  0  0  0  0
 43 46  1  0  0  0  0
 44 47  1  0  0  0  0
 44 49  1  0  0  0  0
 45 48  1  0  0  0  0
 45 50  1  0  0  0  0
 46 52  1  0  0  0  0
 47 53  1  0  0  0  0
 48 55  1  0  0  0  0
 49 68  1  0  0  0  0
 50 70  1  0  0  0  0
 51 55  1  0  0  0  0
 51 70  1  0  0  0  0
 52 73  1  0  0  0  0
 53 84  1  0  0  0  0
 54 69  1  0  0  0  0
 55 67  1  0  0  0  0
 56 64  1  0  0  0  0
 57 65  1  0  0  0  0
 58 65  1  0  0  0  0
 59 65  1  0  0  0  0
 60 76  1  0  0  0  0
 61 68  1  0  0  0  0
 62 75  1  0  0  0  0
 63 65  1  0  0  0  0
 63 74  1  0  0  0  0
 64 76  1  0  0  0  0
 66 67  1  0  0  0  0
M  CHG  1  76   1
M  ISO  4  39 100  53 101  75 100  84 101
M  END
> <Batch ID>
0043

> <Smiles>
CNC(C)C(=O)NC(C(=O)N1Cc2cc([101O:1][101CH:1]3CCCN(Cc4cc(Cl)cc(C[100NH:0][100C:0](=O)N5CCCC(n6nc(-c7ccc(Oc8ccc(F)cc8F)cc7)c(C(N)=O)c6N)C5)c4Cl)C3=O)ccc2CC1C(=O)NC1CCCc2ccccc21)C(C)(C)C

> <Shape>
0.232

> <Color>
0.085

> <Negative vol penalty>
0.000

$$$$

  -OEChem-04042322153D

 85 93  0     1  0  0  0  0  0999 V2000
  -22.0484  -12.4690   18.7513 C   0  0  0  0  0  0  0  0  0  0  0  0
  -21.9921  -13.7948   19.1692 C   0  0  0  0  0  0  0  0  0  0  0  0
  -29.4277  -27.3419   22.0963 C   0  0  0  0  0  0  0  0  0  0  0  0
  -27.4664  -27.2984   20.6862 C   0  0  0  0  0  0  0  0  0  0  0  0
  -23.1570  -11.6856   19.0694 C   0  0  0  0  0  0  0  0  0  0  0  0
  -23.0439  -14.3376   19.9064 C   0  0  0  0  0  0  0  0  0  0  0  0
  -24.3787  -18.9453   18.2839 C   0  0  0  0  0  0  0  0  0  0  0  0
  -30.0597  -26.4353   21.2453 C   0  0  0  0  0  0  0  0  0  0  0  0
  -28.0983  -26.3917   19.8352 C   0  0  0  0  0  0  0  0  0  0  0  0
  -23.5690  -20.0141   18.6658 C   0  0  0  0  0  0  0  0  0  0  0  0
  -30.4137  -26.4849   17.3753 C   0  0  0  0  0  0  0  0  0  0  0  0
  -30.3198  -26.7133   16.0025 C   0  0  0  0  0  0  0  0  0  0  0  0
  -25.1421  -20.5761   20.4062 C   0  0  0  0  0  0  0  0  0  0  0  0
  -19.8636  -26.8493   23.1942 C   0  0  0  0  0  0  0  0  0  0  0  0
  -18.9167  -28.0542   21.3265 C   0  0  0  0  0  0  0  0  0  0  0  0
  -19.2343  -29.1682   23.4466 C   0  0  0  0  0  0  0  0  0  0  0  0
  -29.2349  -24.5731   15.7206 C   0  0  0  0  0  0  0  0  0  0  0  0
  -28.1310  -27.7735   21.8168 C   0  0  0  0  0  0  0  0  0  0  0  0
  -27.5052  -30.1147   22.6134 C   0  0  0  0  0  0  0  0  0  0  0  0
  -24.2273  -12.2219   19.8026 C   0  0  0  0  0  0  0  0  0  0  0  0
  -25.5727  -18.6769   18.9684 C   0  0  0  0  0  0  0  0  0  0  0  0
  -24.1672  -13.5602   20.2357 C   0  0  0  0  0  0  0  0  0  0  0  0
  -25.9664  -19.5049   20.0293 C   0  0  0  0  0  0  0  0  0  0  0  0
  -19.4421  -26.8796   21.8649 C   0  0  0  0  0  0  0  0  0  0  0  0
  -19.7597  -27.9936   23.9851 C   0  0  0  0  0  0  0  0  0  0  0  0
  -29.3950  -25.9602   20.1148 C   0  0  0  0  0  0  0  0  0  0  0  0
  -23.9492  -20.8280   19.7289 C   0  0  0  0  0  0  0  0  0  0  0  0
  -29.9182  -25.3006   17.9208 C   0  0  0  0  0  0  0  0  0  0  0  0
  -29.7304  -25.7575   15.1752 C   0  0  0  0  0  0  0  0  0  0  0  0
  -29.3288  -24.3447   17.0934 C   0  0  0  0  0  0  0  0  0  0  0  0
  -18.8128  -29.1985   22.1173 C   0  0  0  0  0  0  0  0  0  0  0  0
  -27.4775  -28.7096   22.6957 C   0  0  0  0  0  0  0  0  0  0  0  0
  -26.7353  -30.5358   23.6700 C   0  0  0  0  0  0  0  0  0  0  0  0
  -28.1676  -30.9633   21.6665 C   0  0  0  0  0  0  0  0  0  0  0  0
  -26.6807  -16.2332   20.6727 C   0  0  0  0  0  0  0  0  0  0  0  0
  -29.4138  -17.9802   20.6768 C   0  0  0  0  0  0  0  0  0  0  0  0
  -21.6108  -24.2420   20.9173 C   0  0  0  0  0  0  0  0  0  0  0  0
  -30.8955  -21.0422   20.4016 C   0  0  0  0  0  0  0  0  0  0  0  0
  -22.2939  -27.9680   26.7573 C   0  0  0  0  0  0  0  0  0  0  0  0
  -25.3831  -11.3225   20.1629 C   0  0  0  0  0  0  0  0  0  0  0  0
  -26.4483  -17.5363   18.5270 C   0  0  0  0  0  0  0  0  0  0  0  0
  -27.2489  -19.2714   20.7837 C   0  0  0  0  0  0  0  0  0  0  0  0
  -26.6240  -12.0815   20.6261 C   0  0  0  0  0  0  0  0  0  0  0  0
  -25.3612  -29.2211   28.0603 C   0  0  0  0  0  0  0  0  0  0  0  0
  -26.2447  -13.1576   21.6385 C   0  0  0  0  0  0  0  0  0  0  0  0
  -26.2539  -29.3589   26.8257 C   0  0  0  0  0  0  0  0  0  0  0  0
  -24.4551  -27.9954   27.9676 C   0  0  0  0  0  0  0  0  0  0  0  0
  -24.5346  -28.0557   25.5051 C   0  0  0  0  0  0  0  0  0  0  0  0
  -25.2995  -14.1922   21.0159 C   0  0  1  0  0  0  0  0  0  0  0  0
  -27.3875  -17.0447   19.6241 C   0  0  1  0  0  0  0  0  0  0  0  0
  -25.4266  -29.3087   25.5271 C   0  0  2  0  0  0  0  0  0  0  0  0
  -32.7493  -22.7255   20.2363 C   0  0  0  0  0  0  0  0  0  0  0  0
  -29.4173  -17.7361   23.7183 C   0  0  0  0  0  0  0  0  0  0  0  0
  -31.0758  -19.6100   23.7972 C   0  0  0  0  0  0  0  0  0  0  0  0
  -31.6625  -17.4750   22.6482 C   0  0  0  0  0  0  0  0  0  0  0  0
  -31.0312  -20.7760   17.4572 C   0  0  0  0  0  0  0  0  0  0  0  0
  -19.5556  -25.6480   21.0138 C   0  0  0  0  0  0  0  0  0  0  0  0
  -20.2123  -27.9604   25.4059 C   0  0  0  0  0  0  0  0  0  0  0  0
  -23.0203  -24.2614   20.3469 C   0  0  0  0  0  0  0  0  0  0  0  0
  -23.8116  -23.0050   20.6763 C   0  0  0  0  0  0  0  0  0  1  0  0
  -30.0001  -19.0459   21.5710 C   0  0  1  0  0  0  0  0  0  0  0  0
  -32.0920  -21.5134   19.5949 C   0  0  2  0  0  0  0  0  0  0  0  0
  -30.5137  -18.4703   22.9209 C   0  0  0  0  0  0  0  0  0  0  0  0
  -26.7479  -28.2676   23.7235 N   0  0  0  0  0  0  0  0  0  0  0  0
  -26.3100  -29.4015   24.2967 N   0  0  0  0  0  0  0  0  0  0  0  0
  -28.0678  -18.1399   20.3184 N   0  0  0  0  0  0  0  0  0  0  0  0
  -23.6972  -28.0091   26.7140 N   0  0  0  0  0  0  0  0  0  0  0  0
  -26.3873  -31.7620   24.1148 N   0  0  0  0  0  0  0  0  0  0  0  0
  -28.9171  -30.3660   20.6438 N   0  0  0  0  0  0  0  0  0  0  0  0
  -26.0388  -15.1133   20.1794 N   0  0  0  0  0  0  0  0  0  0  0  0
  -20.9178  -25.4011   20.5988 N   0  0  0  0  0  0  0  0  0  0  0  0
  -31.0235  -19.7231   20.7821 N   0  0  0  0  0  0  0  0  0  0  0  0
  -21.6531  -27.9909   25.5246 N   0  0  0  0  0  0  0  0  0  0  0  0
  -31.6723  -21.8824   18.2133 N   0  3  0  0  0  0  0  0  0  0  0  0
  -28.1105  -32.2145   21.7352 O   0  0  0  0  0  0  0  0  0  0  0  0
  -26.7164  -16.5953   21.8428 O   0  0  0  0  0  0  0  0  0  0  0  0
  -30.1260  -17.0445   20.3041 O   0  0  0  0  0  0  0  0  0  0  0  0
  -21.1630  -23.3066   21.5748 O   0  0  0  0  0  0  0  0  0  0  0  0
  -29.9443  -21.7725   20.6707 O   0  0  0  0  0  0  0  0  0  0  0  0
  -21.6588  -27.9202   27.8163 O   0  0  0  0  0  0  0  0  0  0  0  0
  -30.0115  -25.0756   19.2840 O   0  0  0  0  0  0  0  0  0  0  0  0
  -23.1604  -21.8715   20.1042 O   0  0  0  0  0  0  0  0  0  1  0  0
  -29.6389  -25.9776   13.8571 F   0  0  0  0  0  0  0  0  0  0  0  0
  -28.8499  -23.2055   17.6118 F   0  0  0  0  0  0  0  0  0  0  0  0
  -18.1634  -30.6475   21.4533 Cl  0  0  0  0  0  0  0  0  0  0  0  0
  1  2  1  0  0  0  0
  1  5  2  0  0  0  0
  2  6  2  0  0  0  0
  3  8  2  0  0  0  0
  3 18  1  0  0  0  0
  4  9  1  0  0  0  0
  4 18  2  0  0  0  0
  5 20  1  0  0  0  0
  6 22  1  0  0  0  0
  7 10  2  0  0  0  0
  7 21  1  0  0  0  0
  8 26  1  0  0  0  0
  9 26  2  0  0  0  0
 10 27  1  0  0  0  0
 11 12  2  0  0  0  0
 11 28  1  0  0  0  0
 12 29  1  0  0  0  0
 13 23  1  0  0  0  0
 13 27  2  0  0  0  0
 14 24  2  0  0  0  0
 14 25  1  0  0  0  0
 15 24  1  0  0  0  0
 15 31  2  0  0  0  0
 16 25  2  0  0  0  0
 16 31  1  0  0  0  0
 17 29  2  0  0  0  0
 17 30  1  0  0  0  0
 18 32  1  0  0  0  0
 19 32  1  0  0  0  0
 19 33  2  0  0  0  0
 19 34  1  0  0  0  0
 20 22  2  0  0  0  0
 20 40  1  0  0  0  0
 21 23  2  0  0  0  0
 21 41  1  0  0  0  0
 22 49  1  0  0  0  0
 23 42  1  0  0  0  0
 24 57  1  0  0  0  0
 25 58  1  0  0  0  0
 26 81  1  0  0  0  0
 27 82  1  0  0  0  0
 28 30  2  0  0  0  0
 28 81  1  0  0  0  0
 29 83  1  0  0  0  0
 30 84  1  0  0  0  0
 31 85  1  0  0  0  0
 32 64  2  0  0  0  0
 33 65  1  0  0  0  0
 33 68  1  0  0  0  0
 34 69  1  0  0  0  0
 34 75  2  0  0  0  0
 35 50  1  0  0  0  0
 35 70  1  0  0  0  0
 35 76  2  0  0  0  0
 36 61  1  0  0  0  0
 36 66  1  0  0  0  0
 36 77  2  0  0  0  0
 37 59  1  0  0  0  0
 37 71  1  0  0  0  0
 37 78  2  0  0  0  0
 38 62  1  0  0  0  0
 38 72  1  0  0  0  0
 38 79  2  0  0  0  0
 39 67  1  0  0  0  0
 39 73  1  0  0  0  0
 39 80  2  0  0  0  0
 40 43  1  0  0  0  0
 41 50  1  0  0  0  0
 42 66  1  0  0  0  0
 43 45  1  0  0  0  0
 44 46  1  0  0  0  0
 44 47  1  0  0  0  0
 45 49  1  0  0  0  0
 46 51  1  0  0  0  0
 47 67  1  0  0  0  0
 48 51  1  0  0  0  0
 48 67  1  0  0  0  0
 49 70  1  0  0  0  0
 50 66  1  0  0  0  0
 51 65  1  0  0  0  0
 52 62  1  0  0  0  0
 53 63  1  0  0  0  0
 54 63  1  0  0  0  0
 55 63  1  0  0  0  0
 56 74  1  0  0  0  0
 57 71  1  0  0  0  0
 58 73  1  0  0  0  0
 59 60  1  0  0  0  0
 60 82  1  0  0  0  0
 61 63  1  0  0  0  0
 61 72  1  0  0  0  0
 62 74  1  0  0  0  0
 64 65  1  0  0  0  0
M  CHG  1  74   1
M  ISO  4  39 100  60 101  73 100  82 101
M  END
> <Batch ID>
0043

> <Smiles>
CNC(C)C(=O)NC(C(=O)N1Cc2cc([101O:1][101CH2:1]CC(=O)NCc3cc(Cl)cc(C[100NH:0][100C:0](=O)N4CCCC(n5nc(-c6ccc(Oc7ccc(F)cc7F)cc6)c(C(N)=O)c5N)C4)c3)ccc2CC1C(=O)NC1CCCc2ccccc21)C(C)(C)C

> <Shape>
0.218

> <Color>
0.069

> <Negative vol penalty>
0.000

$$$$

  -OEChem-04042322153D

 83 91  0     1  0  0  0  0  0999 V2000
  -38.3274  -32.0434   16.5285 C   0  0  0  0  0  0  0  0  0  0  0  0
  -38.3324  -30.8219   17.1944 C   0  0  0  0  0  0  0  0  0  0  0  0
  -23.0237   -9.8599   20.0212 C   0  0  0  0  0  0  0  0  0  0  0  0
  -23.7053  -10.0152   22.3339 C   0  0  0  0  0  0  0  0  0  0  0  0
  -37.3204  -32.9726   16.7866 C   0  0  0  0  0  0  0  0  0  0  0  0
  -37.3309  -30.5293   18.1195 C   0  0  0  0  0  0  0  0  0  0  0  0
  -34.8301  -25.0501   19.2284 C   0  0  0  0  0  0  0  0  0  0  0  0
  -32.5768  -17.5976   23.3187 C   0  0  0  0  0  0  0  0  0  0  0  0
  -31.9809  -16.6730   22.4610 C   0  0  0  0  0  0  0  0  0  0  0  0
  -22.2614   -8.7311   20.3217 C   0  0  0  0  0  0  0  0  0  0  0  0
  -22.9429   -8.8864   22.6344 C   0  0  0  0  0  0  0  0  0  0  0  0
  -35.0650  -24.0943   20.2158 C   0  0  0  0  0  0  0  0  0  0  0  0
  -23.2225   -5.5327   22.3101 C   0  0  0  0  0  0  0  0  0  0  0  0
  -23.8040   -4.5536   23.1156 C   0  0  0  0  0  0  0  0  0  0  0  0
  -33.2350  -24.9887   21.5084 C   0  0  0  0  0  0  0  0  0  0  0  0
  -30.4068  -18.5380   23.8126 C   0  0  0  0  0  0  0  0  0  0  0  0
  -22.0472   -4.8525   24.7470 C   0  0  0  0  0  0  0  0  0  0  0  0
  -23.7458  -10.5019   21.0273 C   0  0  0  0  0  0  0  0  0  0  0  0
  -24.1143  -13.0110   20.7511 C   0  0  0  0  0  0  0  0  0  0  0  0
  -36.3007  -32.6873   17.7082 C   0  0  0  0  0  0  0  0  0  0  0  0
  -33.8011  -25.9908   19.3788 C   0  0  0  0  0  0  0  0  0  0  0  0
  -36.3101  -31.4561   18.3912 C   0  0  0  0  0  0  0  0  0  0  0  0
  -32.9875  -25.9537   20.5202 C   0  0  0  0  0  0  0  0  0  0  0  0
  -31.7897  -18.5301   23.9945 C   0  0  0  0  0  0  0  0  0  0  0  0
  -30.5979  -16.6809   22.2791 C   0  0  0  0  0  0  0  0  0  0  0  0
  -22.2210   -8.2444   21.6282 C   0  0  0  0  0  0  0  0  0  0  0  0
  -34.2693  -24.0653   21.3574 C   0  0  0  0  0  0  0  0  0  0  0  0
  -22.0535   -6.1718   22.7231 C   0  0  0  0  0  0  0  0  0  0  0  0
  -23.2163   -4.2135   24.3341 C   0  0  0  0  0  0  0  0  0  0  0  0
  -21.4658   -5.8317   23.9415 C   0  0  0  0  0  0  0  0  0  0  0  0
  -29.8109  -17.6134   22.9549 C   0  0  0  0  0  0  0  0  0  0  0  0
  -24.5339  -11.6676   20.7175 C   0  0  0  0  0  0  0  0  0  0  0  0
  -25.2249  -13.7271   20.3766 C   0  0  0  0  0  0  0  0  0  0  0  0
  -22.8350  -13.5623   21.0906 C   0  0  0  0  0  0  0  0  0  0  0  0
  -33.6717  -29.1603   19.5830 C   0  0  0  0  0  0  0  0  0  0  0  0
  -30.4701  -28.6456   19.4981 C   0  0  0  0  0  0  0  0  0  0  0  0
  -33.5695  -21.2803   23.5714 C   0  0  0  0  0  0  0  0  0  0  0  0
  -27.8629  -26.5129   20.0468 C   0  0  0  0  0  0  0  0  0  0  0  0
  -30.6912  -14.7451   20.6697 C   0  0  0  0  0  0  0  0  0  0  0  0
  -35.2599  -33.7422   17.9889 C   0  0  0  0  0  0  0  0  0  0  0  0
  -33.5435  -26.9985   18.2922 C   0  0  0  0  0  0  0  0  0  0  0  0
  -31.8570  -26.9286   20.7203 C   0  0  0  0  0  0  0  0  0  0  0  0
  -34.0253  -33.2038   18.7073 C   0  0  0  0  0  0  0  0  0  0  0  0
  -29.6362  -12.1857   18.4306 C   0  0  0  0  0  0  0  0  0  0  0  0
  -34.4339  -32.3093   19.8735 C   0  0  0  0  0  0  0  0  0  0  0  0
  -28.1802  -11.9333   18.8287 C   0  0  0  0  0  0  0  0  0  0  0  0
  -30.5119  -12.4883   19.6452 C   0  0  0  0  0  0  0  0  0  0  0  0
  -28.5658  -13.3164   20.9084 C   0  0  0  0  0  0  0  0  0  0  0  0
  -35.2272  -31.0919   19.3835 C   0  0  1  0  0  0  0  0  0  0  0  0
  -32.7969  -28.2334   18.7872 C   0  0  1  0  0  0  0  0  0  0  0  0
  -27.6320  -13.0713   19.7119 C   0  0  2  0  0  0  0  0  0  0  0  0
  -25.3597  -26.3887   19.9220 C   0  0  0  0  0  0  0  0  0  0  0  0
  -30.2630  -30.2972   22.0553 C   0  0  0  0  0  0  0  0  0  0  0  0
  -27.9664  -29.3591   22.3924 C   0  0  0  0  0  0  0  0  0  0  0  0
  -28.4631  -30.7427   20.3771 C   0  0  0  0  0  0  0  0  0  0  0  0
  -27.9548  -24.3200   18.0614 C   0  0  0  0  0  0  0  0  0  0  0  0
  -32.4319  -19.5253   24.9173 C   0  0  0  0  0  0  0  0  0  0  0  0
  -33.3711  -22.7000   23.0851 C   0  0  0  0  0  0  0  0  0  1  0  0
  -29.3990  -28.3992   20.5331 C   0  0  1  0  0  0  0  0  0  0  0  0
  -26.6681  -26.1406   19.1876 C   0  0  2  0  0  0  0  0  0  0  0  0
  -29.0453  -29.6823   21.3369 C   0  0  0  0  0  0  0  0  0  0  0  0
  -25.8113  -11.5355   20.3504 N   0  0  0  0  0  0  0  0  0  0  0  0
  -26.2040  -12.8050   20.1499 N   0  0  0  0  0  0  0  0  0  0  0  0
  -31.6490  -27.8987   19.6326 N   0  0  0  0  0  0  0  0  0  0  0  0
  -29.9328  -13.5793   20.4321 N   0  0  0  0  0  0  0  0  0  0  0  0
  -25.4497  -15.0492   20.2223 N   0  0  0  0  0  0  0  0  0  0  0  0
  -21.8040  -12.6846   21.4526 N   0  0  0  0  0  0  0  0  0  0  0  0
  -30.0248  -15.7272   21.4018 N   0  0  0  0  0  0  0  0  0  0  0  0
  -34.3355  -30.1013   18.8194 N   0  0  0  0  0  0  0  0  0  0  0  0
  -32.4951  -20.8440   24.3307 N   0  0  0  0  0  0  0  0  0  0  0  0
  -28.2704  -27.8105   19.8203 N   0  0  0  0  0  0  0  0  0  0  0  0
  -26.7297  -24.7001   18.8108 N   0  3  0  0  0  0  0  0  0  0  0  0
  -22.6081  -14.7955   21.0576 O   0  0  0  0  0  0  0  0  0  0  0  0
  -33.7382  -29.0321   20.7999 O   0  0  0  0  0  0  0  0  0  0  0  0
  -30.2653  -29.4652   18.5992 O   0  0  0  0  0  0  0  0  0  0  0  0
  -34.5725  -20.6222   23.3090 O   0  0  0  0  0  0  0  0  0  0  0  0
  -28.3806  -25.7319   20.8422 O   0  0  0  0  0  0  0  0  0  0  0  0
  -31.8370  -14.8745   20.2312 O   0  0  0  0  0  0  0  0  0  0  0  0
  -21.4770   -7.1431   21.9218 O   0  0  0  0  0  0  0  0  0  0  0  0
  -34.4968  -23.1338   22.3230 O   0  0  0  0  0  0  0  0  0  1  0  0
  -23.7739   -3.2722   25.1068 F   0  0  0  0  0  0  0  0  0  0  0  0
  -20.3420   -6.4413   24.3430 F   0  0  0  0  0  0  0  0  0  0  0  0
  -28.0950  -17.6584   22.7583 Cl  0  0  0  0  0  0  0  0  0  0  0  0
  1  2  1  0  0  0  0
  1  5  2  0  0  0  0
  2  6  2  0  0  0  0
  3 10  2  0  0  0  0
  3 18  1  0  0  0  0
  4 11  1  0  0  0  0
  4 18  2  0  0  0  0
  5 20  1  0  0  0  0
  6 22  1  0  0  0  0
  7 12  2  0  0  0  0
  7 21  1  0  0  0  0
  8  9  2  0  0  0  0
  8 24  1  0  0  0  0
  9 25  1  0  0  0  0
 10 26  1  0  0  0  0
 11 26  2  0  0  0  0
 12 27  1  0  0  0  0
 13 14  2  0  0  0  0
 13 28  1  0  0  0  0
 14 29  1  0  0  0  0
 15 23  1  0  0  0  0
 15 27  2  0  0  0  0
 16 24  2  0  0  0  0
 16 31  1  0  0  0  0
 17 29  2  0  0  0  0
 17 30  1  0  0  0  0
 18 32  1  0  0  0  0
 19 32  1  0  0  0  0
 19 33  2  0  0  0  0
 19 34  1  0  0  0  0
 20 22  2  0  0  0  0
 20 40  1  0  0  0  0
 21 23  2  0  0  0  0
 21 41  1  0  0  0  0
 22 49  1  0  0  0  0
 23 42  1  0  0  0  0
 24 57  1  0  0  0  0
 25 31  2  0  0  0  0
 25 68  1  0  0  0  0
 26 79  1  0  0  0  0
 27 80  1  0  0  0  0
 28 30  2  0  0  0  0
 28 79  1  0  0  0  0
 29 81  1  0  0  0  0
 30 82  1  0  0  0  0
 31 83  1  0  0  0  0
 32 62  2  0  0  0  0
 33 63  1  0  0  0  0
 33 66  1  0  0  0  0
 34 67  1  0  0  0  0
 34 73  2  0  0  0  0
 35 50  1  0  0  0  0
 35 69  1  0  0  0  0
 35 74  2  0  0  0  0
 36 59  1  0  0  0  0
 36 64  1  0  0  0  0
 36 75  2  0  0  0  0
 37 58  1  0  0  0  0
 37 70  1  0  0  0  0
 37 76  2  0  0  0  0
 38 60  1  0  0  0  0
 38 71  1  0  0  0  0
 38 77  2  0  0  0  0
 39 65  1  0  0  0  0
 39 68  1  0  0  0  0
 39 78  2  0  0  0  0
 40 43  1  0  0  0  0
 41 50  1  0  0  0  0
 42 64  1  0  0  0  0
 43 45  1  0  0  0  0
 44 46  1  0  0  0  0
 44 47  1  0  0  0  0
 45 49  1  0  0  0  0
 46 51  1  0  0  0  0
 47 65  1  0  0  0  0
 48 51  1  0  0  0  0
 48 65  1  0  0  0  0
 49 69  1  0  0  0  0
 50 64  1  0  0  0  0
 51 63  1  0  0  0  0
 52 60  1  0  0  0  0
 53 61  1  0  0  0  0
 54 61  1  0  0  0  0
 55 61  1  0  0  0  0
 56 72  1  0  0  0  0
 57 70  1  0  0  0  0
 58 80  1  0  0  0  0
 59 61  1  0  0  0  0
 59 71  1  0  0  0  0
 60 72  1  0  0  0  0
 62 63  1  0  0  0  0
M  CHG  1  72   1
M  ISO  4  39 100  58 101  68 100  80 101
M  END
> <Batch ID>
0043

> <Smiles>
CNC(C)C(=O)NC(C(=O)N1Cc2cc([101O:1][101CH2:1]C(=O)NCc3ccc([100NH:0][100C:0](=O)N4CCCC(n5nc(-c6ccc(Oc7ccc(F)cc7F)cc6)c(C(N)=O)c5N)C4)c(Cl)c3)ccc2CC1C(=O)NC1CCCc2ccccc21)C(C)(C)C

> <Shape>
0.229

> <Color>
0.200

> <Negative vol penalty>
0.000

$$$$

  -OEChem-04042322153D

 83 91  0     1  0  0  0  0  0999 V2000
  -21.7461  -12.2544   21.9638 C   0  0  0  0  0  0  0  0  0  0  0  0
  -21.7261  -13.6432   22.0424 C   0  0  0  0  0  0  0  0  0  0  0  0
  -18.2365  -28.3751   21.8215 C   0  0  0  0  0  0  0  0  0  0  0  0
  -29.9955  -26.5788   22.2146 C   0  0  0  0  0  0  0  0  0  0  0  0
  -28.3601  -25.0468   23.1176 C   0  0  0  0  0  0  0  0  0  0  0  0
  -22.9338  -11.5917   21.6566 C   0  0  0  0  0  0  0  0  0  0  0  0
  -22.8941  -14.3702   21.8149 C   0  0  0  0  0  0  0  0  0  0  0  0
  -23.3492  -19.8687   19.1569 C   0  0  0  0  0  0  0  0  0  0  0  0
  -19.5054  -28.9391   21.9531 C   0  0  0  0  0  0  0  0  0  0  0  0
  -30.9456  -26.0945   23.1136 C   0  0  0  0  0  0  0  0  0  0  0  0
  -29.3102  -24.5625   24.0166 C   0  0  0  0  0  0  0  0  0  0  0  0
  -23.4699  -21.1558   19.6789 C   0  0  0  0  0  0  0  0  0  0  0  0
  -31.4066  -22.6706   26.3067 C   0  0  0  0  0  0  0  0  0  0  0  0
  -31.5006  -21.2886   26.4701 C   0  0  0  0  0  0  0  0  0  0  0  0
  -17.9950  -27.0839   22.2907 C   0  0  0  0  0  0  0  0  0  0  0  0
  -25.8645  -21.0317   19.4148 C   0  0  0  0  0  0  0  0  0  0  0  0
  -32.0275  -21.0471   24.1246 C   0  0  0  0  0  0  0  0  0  0  0  0
  -28.7027  -26.0550   22.2166 C   0  0  0  0  0  0  0  0  0  0  0  0
  -27.4540  -26.0755   19.9922 C   0  0  0  0  0  0  0  0  0  0  0  0
  -24.1147  -12.3114   21.4157 C   0  0  0  0  0  0  0  0  0  0  0  0
  -24.4880  -19.1480   18.7693 C   0  0  0  0  0  0  0  0  0  0  0  0
  -24.0990  -13.7164   21.5055 C   0  0  0  0  0  0  0  0  0  0  0  0
  -25.7553  -19.7366   18.8857 C   0  0  0  0  0  0  0  0  0  0  0  0
  -20.2915  -26.9206   23.0230 C   0  0  0  0  0  0  0  0  0  0  0  0
  -20.5329  -28.2119   22.5539 C   0  0  0  0  0  0  0  0  0  0  0  0
  -30.6030  -25.0863   24.0146 C   0  0  0  0  0  0  0  0  0  0  0  0
  -24.7280  -21.7364   19.8107 C   0  0  0  0  0  0  0  0  0  0  0  0
  -31.6229  -23.2409   25.0523 C   0  0  0  0  0  0  0  0  0  0  0  0
  -31.8111  -20.4768   25.3791 C   0  0  0  0  0  0  0  0  0  0  0  0
  -31.9334  -22.4292   23.9613 C   0  0  0  0  0  0  0  0  0  0  0  0
  -19.0226  -26.3566   22.8914 C   0  0  0  0  0  0  0  0  0  0  0  0
  -27.7206  -26.5553   21.2886 C   0  0  0  0  0  0  0  0  0  0  0  0
  -26.4424  -26.8811   19.5292 C   0  0  0  0  0  0  0  0  0  0  0  0
  -28.0659  -24.9979   19.2711 C   0  0  0  0  0  0  0  0  0  0  0  0
  -25.8418  -16.4250   19.6947 C   0  0  0  0  0  0  0  0  0  0  0  0
  -27.8020  -16.9962   17.1740 C   0  0  0  0  0  0  0  0  0  0  0  0
  -29.1749  -19.2668   15.0278 C   0  0  0  0  0  0  0  0  0  0  0  0
  -22.1974  -30.0798   22.2592 C   0  0  0  0  0  0  0  0  0  0  0  0
  -25.3849  -11.5487   21.1335 C   0  0  0  0  0  0  0  0  0  0  0  0
  -24.3386  -17.7709   18.1831 C   0  0  0  0  0  0  0  0  0  0  0  0
  -27.0074  -19.0128   18.4654 C   0  0  0  0  0  0  0  0  0  0  0  0
  -26.4941  -12.4119   20.5378 C   0  0  0  0  0  0  0  0  0  0  0  0
  -24.6631  -31.3022   20.0002 C   0  0  0  0  0  0  0  0  0  0  0  0
  -26.6307  -13.7171   21.3154 C   0  0  0  0  0  0  0  0  0  0  0  0
  -25.6997  -30.1774   19.9515 C   0  0  0  0  0  0  0  0  0  0  0  0
  -24.0706  -31.4674   21.3986 C   0  0  0  0  0  0  0  0  0  0  0  0
  -24.5603  -29.1148   21.9414 C   0  0  0  0  0  0  0  0  0  0  0  0
  -25.3398  -14.5414   21.2409 C   0  0  1  0  0  0  0  0  0  0  0  0
  -25.6069  -16.9311   18.2996 C   0  0  1  0  0  0  0  0  0  0  0  0
  -25.1379  -28.8675   20.5382 C   0  0  2  0  0  0  0  0  0  0  0  0
  -30.7702  -19.4393   13.0984 C   0  0  0  0  0  0  0  0  0  0  0  0
  -30.1536  -16.6940   19.0946 C   0  0  0  0  0  0  0  0  0  0  0  0
  -31.6076  -17.7906   17.3766 C   0  0  0  0  0  0  0  0  0  0  0  0
  -30.4875  -15.6224   16.8598 C   0  0  0  0  0  0  0  0  0  0  0  0
  -27.0701  -20.3153   13.2308 C   0  0  0  0  0  0  0  0  0  0  0  0
  -21.4051  -26.1488   23.6675 C   0  0  0  0  0  0  0  0  0  0  0  0
  -24.4963  -24.4131   22.2206 C   0  0  0  0  0  0  0  0  0  0  0  0
  -23.5461  -24.9170   23.2965 C   0  0  0  0  0  0  0  0  0  0  0  0
  -23.8644  -23.4064   21.2671 C   0  0  0  0  0  0  0  0  0  1  0  0
  -29.1037  -17.7351   16.9780 C   0  0  1  0  0  0  0  0  0  0  0  0
  -29.3184  -19.2656   13.5166 C   0  0  2  0  0  0  0  0  0  0  0  0
  -30.3149  -16.9737   17.5871 C   0  0  0  0  0  0  0  0  0  0  0  0
  -26.9414  -27.5860   21.6273 N   0  0  0  0  0  0  0  0  0  0  0  0
  -26.1753  -27.7604   20.5370 N   0  0  0  0  0  0  0  0  0  0  0  0
  -26.8099  -17.6663   17.9038 N   0  0  0  0  0  0  0  0  0  0  0  0
  -23.5543  -30.1872   21.8878 N   0  0  0  0  0  0  0  0  0  0  0  0
  -25.7644  -26.9160   18.3624 N   0  0  0  0  0  0  0  0  0  0  0  0
  -29.0904  -24.2731   19.8951 N   0  0  0  0  0  0  0  0  0  0  0  0
  -21.8132  -28.8063   22.6778 N   0  0  0  0  0  0  0  0  0  0  0  0
  -25.2402  -15.2099   19.9612 N   0  0  0  0  0  0  0  0  0  0  0  0
  -29.2169  -17.9897   15.5459 N   0  0  0  0  0  0  0  0  0  0  0  0
  -28.5215  -20.3744   12.9196 N   0  3  0  0  0  0  0  0  0  0  0  0
  -22.3990  -25.6302   22.6873 N   0  3  0  0  0  0  0  0  0  0  0  0
  -27.7257  -24.6975   18.1017 O   0  0  0  0  0  0  0  0  0  0  0  0
  -26.5200  -17.0872   20.4714 O   0  0  0  0  0  0  0  0  0  0  0  0
  -27.6677  -15.8691   16.6911 O   0  0  0  0  0  0  0  0  0  0  0  0
  -29.0427  -20.2979   15.6835 O   0  0  0  0  0  0  0  0  0  0  0  0
  -21.4260  -31.0396   22.1837 O   0  0  0  0  0  0  0  0  0  0  0  0
  -31.5300  -24.6133   24.8918 O   0  0  0  0  0  0  0  0  0  0  0  0
  -24.8488  -22.9923   20.3206 O   0  0  0  0  0  0  0  0  0  1  0  0
  -31.9028  -19.1498   25.5365 F   0  0  0  0  0  0  0  0  0  0  0  0
  -32.1436  -22.9715   22.7539 F   0  0  0  0  0  0  0  0  0  0  0  0
  -18.6810  -24.7616   23.4582 Cl  0  0  0  0  0  0  0  0  0  0  0  0
  1  2  1  0  0  0  0
  1  6  2  0  0  0  0
  2  7  2  0  0  0  0
  3  9  2  0  0  0  0
  3 15  1  0  0  0  0
  4 10  2  0  0  0  0
  4 18  1  0  0  0  0
  5 11  1  0  0  0  0
  5 18  2  0  0  0  0
  6 20  1  0  0  0  0
  7 22  1  0  0  0  0
  8 12  2  0  0  0  0
  8 21  1  0  0  0  0
  9 25  1  0  0  0  0
 10 26  1  0  0  0  0
 11 26  2  0  0  0  0
 12 27  1  0  0  0  0
 13 14  2  0  0  0  0
 13 28  1  0  0  0  0
 14 29  1  0  0  0  0
 15 31  2  0  0  0  0
 16 23  1  0  0  0  0
 16 27  2  0  0  0  0
 17 29  2  0  0  0  0
 17 30  1  0  0  0  0
 18 32  1  0  0  0  0
 19 32  1  0  0  0  0
 19 33  2  0  0  0  0
 19 34  1  0  0  0  0
 20 22  2  0  0  0  0
 20 39  1  0  0  0  0
 21 23  2  0  0  0  0
 21 40  1  0  0  0  0
 22 48  1  0  0  0  0
 23 41  1  0  0  0  0
 24 25  2  0  0  0  0
 24 31  1  0  0  0  0
 24 56  1  0  0  0  0
 25 69  1  0  0  0  0
 26 79  1  0  0  0  0
 27 80  1  0  0  0  0
 28 30  2  0  0  0  0
 28 79  1  0  0  0  0
 29 81  1  0  0  0  0
 30 82  1  0  0  0  0
 31 83  1  0  0  0  0
 32 63  2  0  0  0  0
 33 64  1  0  0  0  0
 33 67  1  0  0  0  0
 34 68  1  0  0  0  0
 34 74  2  0  0  0  0
 35 49  1  0  0  0  0
 35 70  1  0  0  0  0
 35 75  2  0  0  0  0
 36 60  1  0  0  0  0
 36 65  1  0  0  0  0
 36 76  2  0  0  0  0
 37 61  1  0  0  0  0
 37 71  1  0  0  0  0
 37 77  2  0  0  0  0
 38 66  1  0  0  0  0
 38 69  1  0  0  0  0
 38 78  2  0  0  0  0
 39 42  1  0  0  0  0
 40 49  1  0  0  0  0
 41 65  1  0  0  0  0
 42 44  1  0  0  0  0
 43 45  1  0  0  0  0
 43 46  1  0  0  0  0
 44 48  1  0  0  0  0
 45 50  1  0  0  0  0
 46 66  1  0  0  0  0
 47 50  1  0  0  0  0
 47 66  1  0  0  0  0
 48 70  1  0  0  0  0
 49 65  1  0  0  0  0
 50 64  1  0  0  0  0
 51 61  1  0  0  0  0
 52 62  1  0  0  0  0
 53 62  1  0  0  0  0
 54 62  1  0  0  0  0
 55 72  1  0  0  0  0
 56 73  1  0  0  0  0
 57 58  1  0  0  0  0
 57 59  1  0  0  0  0
 58 73  1  0  0  0  0
 59 80  1  0  0  0  0
 60 62  1  0  0  0  0
 60 71  1  0  0  0  0
 61 72  1  0  0  0  0
 63 64  1  0  0  0  0
M  CHG  2  72   1  73   1
M  ISO  4  38 100  59 101  69 100  80 101
M  END
> <Batch ID>
0043

> <Smiles>
CNC(C)C(=O)NC(C(=O)N1Cc2cc([101O:1][101CH2:1]CCNCc3c(Cl)cccc3[100NH:0][100C:0](=O)N3CCCC(n4nc(-c5ccc(Oc6ccc(F)cc6F)cc5)c(C(N)=O)c4N)C3)ccc2CC1C(=O)NC1CCCc2ccccc21)C(C)(C)C

> <Shape>
0.186

> <Color>
0.078

> <Negative vol penalty>
0.000

$$$$

  -OEChem-04042322153D

 84 92  0     1  0  0  0  0  0999 V2000
  -22.0574  -11.6721   19.2102 C   0  0  0  0  0  0  0  0  0  0  0  0
  -21.8029  -12.9983   19.5445 C   0  0  0  0  0  0  0  0  0  0  0  0
  -30.8454  -29.4769   23.5912 C   0  0  0  0  0  0  0  0  0  0  0  0
  -29.8043  -27.6161   24.7272 C   0  0  0  0  0  0  0  0  0  0  0  0
  -23.2952  -11.1043   19.5090 C   0  0  0  0  0  0  0  0  0  0  0  0
  -22.7858  -13.7572   20.1789 C   0  0  0  0  0  0  0  0  0  0  0  0
  -23.2540  -18.3881   18.1838 C   0  0  0  0  0  0  0  0  0  0  0  0
  -18.2185  -27.9270   23.0178 C   0  0  0  0  0  0  0  0  0  0  0  0
  -19.3456  -28.7371   23.1553 C   0  0  0  0  0  0  0  0  0  0  0  0
  -32.0360  -29.2274   24.2735 C   0  0  0  0  0  0  0  0  0  0  0  0
  -30.9950  -27.3665   25.4095 C   0  0  0  0  0  0  0  0  0  0  0  0
  -22.2984  -19.3368   18.5453 C   0  0  0  0  0  0  0  0  0  0  0  0
  -33.8670  -26.0161   27.1833 C   0  0  0  0  0  0  0  0  0  0  0  0
  -34.2999  -24.6931   27.2711 C   0  0  0  0  0  0  0  0  0  0  0  0
  -23.8419  -20.2730   20.1455 C   0  0  0  0  0  0  0  0  0  0  0  0
  -34.4026  -24.5666   24.8606 C   0  0  0  0  0  0  0  0  0  0  0  0
  -29.7295  -28.6713   23.8180 C   0  0  0  0  0  0  0  0  0  0  0  0
  -19.4390  -26.4841   21.5127 C   0  0  0  0  0  0  0  0  0  0  0  0
  -28.1012  -28.3942   21.8739 C   0  0  0  0  0  0  0  0  0  0  0  0
  -24.2971  -11.8594   20.1387 C   0  0  0  0  0  0  0  0  0  0  0  0
  -24.5090  -18.3679   18.8092 C   0  0  0  0  0  0  0  0  0  0  0  0
  -24.0377  -13.1986   20.4877 C   0  0  0  0  0  0  0  0  0  0  0  0
  -24.8126  -19.3247   19.7883 C   0  0  0  0  0  0  0  0  0  0  0  0
  -18.2652  -26.8005   22.1965 C   0  0  0  0  0  0  0  0  0  0  0  0
  -20.5195  -28.4207   22.4715 C   0  0  0  0  0  0  0  0  0  0  0  0
  -32.1109  -28.1722   25.1827 C   0  0  0  0  0  0  0  0  0  0  0  0
  -22.5912  -20.2776   19.5283 C   0  0  0  0  0  0  0  0  0  0  0  0
  -33.7018  -26.6144   25.9341 C   0  0  0  0  0  0  0  0  0  0  0  0
  -34.5678  -23.9683   26.1098 C   0  0  0  0  0  0  0  0  0  0  0  0
  -33.9696  -25.8897   24.7728 C   0  0  0  0  0  0  0  0  0  0  0  0
  -20.5662  -27.2942   21.6502 C   0  0  0  0  0  0  0  0  0  0  0  0
  -28.4991  -28.9289   23.1139 C   0  0  0  0  0  0  0  0  0  0  0  0
  -26.8641  -28.9447   21.6436 C   0  0  0  0  0  0  0  0  0  0  0  0
  -20.5287  -24.2559   20.9880 C   0  0  0  0  0  0  0  0  0  0  0  0
  -21.1148  -23.5109   20.0412 C   0  0  0  0  0  0  0  0  0  0  0  0
  -19.5115  -25.2858   20.6310 C   0  0  0  0  0  0  0  0  0  0  0  0
  -28.7885  -27.4815   21.0077 C   0  0  0  0  0  0  0  0  0  0  0  0
  -26.0914  -16.2683   20.5957 C   0  0  0  0  0  0  0  0  0  0  0  0
  -28.4933  -18.4308   20.3188 C   0  0  0  0  0  0  0  0  0  0  0  0
  -29.4305  -21.6637   19.7560 C   0  0  0  0  0  0  0  0  0  0  0  0
  -21.7801  -30.4011   23.3855 C   0  0  0  0  0  0  0  0  0  0  0  0
  -25.6029  -11.1883   20.4843 C   0  0  0  0  0  0  0  0  0  0  0  0
  -25.5384  -17.3549   18.3890 C   0  0  0  0  0  0  0  0  0  0  0  0
  -26.1523  -19.3584   20.4756 C   0  0  0  0  0  0  0  0  0  0  0  0
  -26.7223  -12.1704   20.8202 C   0  0  0  0  0  0  0  0  0  0  0  0
  -24.4308  -32.6908   24.0241 C   0  0  0  0  0  0  0  0  0  0  0  0
  -26.2210  -13.2424   21.7826 C   0  0  0  0  0  0  0  0  0  0  0  0
  -25.6928  -31.8723   23.7422 C   0  0  0  0  0  0  0  0  0  0  0  0
  -23.3390  -31.8437   24.6754 C   0  0  0  0  0  0  0  0  0  0  0  0
  -24.2618  -29.7903   23.6748 C   0  0  0  0  0  0  0  0  0  0  0  0
  -25.0871  -14.0614   21.1542 C   0  0  1  0  0  0  0  0  0  0  0  0
  -26.6001  -17.1042   19.4554 C   0  0  1  0  0  0  0  0  0  0  0  0
  -25.3665  -30.5851   22.9596 C   0  0  2  0  0  0  0  0  0  0  0  0
  -17.0428  -25.9508   22.0682 C   0  0  0  0  0  0  0  0  0  0  0  0
  -31.4613  -23.1326   19.6303 C   0  0  0  0  0  0  0  0  0  0  0  0
  -28.6901  -18.4152   23.3636 C   0  0  0  0  0  0  0  0  0  0  0  0
  -30.0165  -20.5337   23.2192 C   0  0  0  0  0  0  0  0  0  0  0  0
  -30.8909  -18.4433   22.1761 C   0  0  0  0  0  0  0  0  0  0  0  0
  -28.8924  -22.3635   16.9312 C   0  0  0  0  0  0  0  0  0  0  0  0
  -22.1421  -22.4673   20.3402 C   0  0  0  0  0  0  0  0  0  1  0  0
  -28.9388  -19.6403   21.1046 C   0  0  1  0  0  0  0  0  0  0  0  0
  -30.4902  -22.2618   18.8483 C   0  0  2  0  0  0  0  0  0  0  0  0
  -29.6081  -19.2565   22.4545 C   0  0  0  0  0  0  0  0  0  0  0  0
  -27.5885  -29.7557   23.6348 N   0  0  0  0  0  0  0  0  0  0  0  0
  -18.6750  -25.1638   19.6499 N   0  0  0  0  0  0  0  0  0  0  0  0
  -26.6063  -29.7447   22.7177 N   0  0  0  0  0  0  0  0  0  0  0  0
  -27.1232  -18.3433   20.0345 N   0  0  0  0  0  0  0  0  0  0  0  0
  -23.0804  -30.6438   23.8765 N   0  0  0  0  0  0  0  0  0  0  0  0
  -25.9826  -28.8176   20.6291 N   0  0  0  0  0  0  0  0  0  0  0  0
  -30.0511  -27.0135   21.3966 N   0  0  0  0  0  0  0  0  0  0  0  0
  -21.6620  -29.2470   22.6118 N   0  0  0  0  0  0  0  0  0  0  0  0
  -25.6203  -15.0260   20.2162 N   0  0  0  0  0  0  0  0  0  0  0  0
  -29.7947  -20.4144   20.2121 N   0  0  0  0  0  0  0  0  0  0  0  0
  -29.8546  -23.0988   17.7917 N   0  3  0  0  0  0  0  0  0  0  0  0
  -28.3047  -27.1052   19.9132 O   0  0  0  0  0  0  0  0  0  0  0  0
  -26.1252  -16.7167   21.7357 O   0  0  0  0  0  0  0  0  0  0  0  0
  -29.3313  -17.5980   19.9639 O   0  0  0  0  0  0  0  0  0  0  0  0
  -28.3861  -22.2479   20.0357 O   0  0  0  0  0  0  0  0  0  0  0  0
  -20.8464  -31.1754   23.6106 O   0  0  0  0  0  0  0  0  0  0  0  0
  -33.2726  -27.9283   25.8485 O   0  0  0  0  0  0  0  0  0  0  0  0
  -21.6601  -21.2042   19.8835 O   0  0  0  0  0  0  0  0  0  1  0  0
  -34.9850  -22.6983   26.1944 F   0  0  0  0  0  0  0  0  0  0  0  0
  -33.8139  -26.4594   23.5699 F   0  0  0  0  0  0  0  0  0  0  0  0
  -21.6960  -26.9914   20.9922 F   0  0  0  0  0  0  0  0  0  0  0  0
  1  2  1  0  0  0  0
  1  5  2  0  0  0  0
  2  6  2  0  0  0  0
  3 10  2  0  0  0  0
  3 17  1  0  0  0  0
  4 11  1  0  0  0  0
  4 17  2  0  0  0  0
  5 20  1  0  0  0  0
  6 22  1  0  0  0  0
  7 12  2  0  0  0  0
  7 21  1  0  0  0  0
  8  9  1  0  0  0  0
  8 24  2  0  0  0  0
  9 25  2  0  0  0  0
 10 26  1  0  0  0  0
 11 26  2  0  0  0  0
 12 27  1  0  0  0  0
 13 14  2  0  0  0  0
 13 28  1  0  0  0  0
 14 29  1  0  0  0  0
 15 23  1  0  0  0  0
 15 27  2  0  0  0  0
 16 29  2  0  0  0  0
 16 30  1  0  0  0  0
 17 32  1  0  0  0  0
 18 24  1  0  0  0  0
 18 31  2  0  0  0  0
 18 36  1  0  0  0  0
 19 32  1  0  0  0  0
 19 33  2  0  0  0  0
 19 37  1  0  0  0  0
 20 22  2  0  0  0  0
 20 42  1  0  0  0  0
 21 23  2  0  0  0  0
 21 43  1  0  0  0  0
 22 51  1  0  0  0  0
 23 44  1  0  0  0  0
 24 54  1  0  0  0  0
 25 31  1  0  0  0  0
 25 71  1  0  0  0  0
 26 80  1  0  0  0  0
 27 81  1  0  0  0  0
 28 30  2  0  0  0  0
 28 80  1  0  0  0  0
 29 82  1  0  0  0  0
 30 83  1  0  0  0  0
 31 84  1  0  0  0  0
 32 64  2  0  0  0  0
 33 66  1  0  0  0  0
 33 69  1  0  0  0  0
 34 35  2  0  0  0  0
 34 36  1  0  0  0  0
 35 60  1  0  0  0  0
 36 65  2  0  0  0  0
 37 70  1  0  0  0  0
 37 75  2  0  0  0  0
 38 52  1  0  0  0  0
 38 72  1  0  0  0  0
 38 76  2  0  0  0  0
 39 61  1  0  0  0  0
 39 67  1  0  0  0  0
 39 77  2  0  0  0  0
 40 62  1  0  0  0  0
 40 73  1  0  0  0  0
 40 78  2  0  0  0  0
 41 68  1  0  0  0  0
 41 71  1  0  0  0  0
 41 79  2  0  0  0  0
 42 45  1  0  0  0  0
 43 52  1  0  0  0  0
 44 67  1  0  0  0  0
 45 47  1  0  0  0  0
 46 48  1  0  0  0  0
 46 49  1  0  0  0  0
 47 51  1  0  0  0  0
 48 53  1  0  0  0  0
 49 68  1  0  0  0  0
 50 53  1  0  0  0  0
 50 68  1  0  0  0  0
 51 72  1  0  0  0  0
 52 67  1  0  0  0  0
 53 66  1  0  0  0  0
 55 62  1  0  0  0  0
 56 63  1  0  0  0  0
 57 63  1  0  0  0  0
 58 63  1  0  0  0  0
 59 74  1  0  0  0  0
 60 81  1  0  0  0  0
 61 63  1  0  0  0  0
 61 73  1  0  0  0  0
 62 74  1  0  0  0  0
 64 66  1  0  0  0  0
M  CHG  1  74   1
M  ISO  4  41 100  60 101  71 100  81 101
M  END
> <Batch ID>
0043

> <Smiles>
CNC(C)C(=O)NC(C(=O)N1Cc2cc([101O:1][101CH2:1]C=CC(=N)c3c(C)ccc([100NH:0][100C:0](=O)N4CCCC(n5nc(-c6ccc(Oc7ccc(F)cc7F)cc6)c(C(N)=O)c5N)C4)c3F)ccc2CC1C(=O)NC1CCCc2ccccc21)C(C)(C)C

> <Shape>
0.240

> <Color>
0.099

> <Negative vol penalty>
0.000

$$$$

  -OEChem-04042322153D

 85 93  0     1  0  0  0  0  0999 V2000
  -28.0361  -23.7090   17.9630 C   0  0  0  0  0  0  0  0  0  0  0  0
  -26.9349  -24.5391   18.1400 C   0  0  0  0  0  0  0  0  0  0  0  0
  -25.9019  -12.5371   19.5740 C   0  0  0  0  0  0  0  0  0  0  0  0
  -24.2671  -13.1703   21.2365 C   0  0  0  0  0  0  0  0  0  0  0  0
  -29.1023  -23.7718   18.8577 C   0  0  0  0  0  0  0  0  0  0  0  0
  -26.9048  -25.4406   19.2045 C   0  0  0  0  0  0  0  0  0  0  0  0
  -23.1606  -28.6295   19.3276 C   0  0  0  0  0  0  0  0  0  0  0  0
  -26.1100  -11.3287   20.2389 C   0  0  0  0  0  0  0  0  0  0  0  0
  -24.4753  -11.9618   21.9014 C   0  0  0  0  0  0  0  0  0  0  0  0
  -21.8562  -28.2488   19.6397 C   0  0  0  0  0  0  0  0  0  0  0  0
  -23.5318   -8.7354   21.5547 C   0  0  0  0  0  0  0  0  0  0  0  0
  -22.4067   -8.0322   21.9853 C   0  0  0  0  0  0  0  0  0  0  0  0
  -21.9902  -22.0376   23.4749 C   0  0  0  0  0  0  0  0  0  0  0  0
  -22.1166  -29.1881   21.8463 C   0  0  0  0  0  0  0  0  0  0  0  0
  -24.1182  -22.8908   21.8854 C   0  0  0  0  0  0  0  0  0  0  0  0
  -23.1848   -8.1849   24.2675 C   0  0  0  0  0  0  0  0  0  0  0  0
  -24.9804  -13.4579   20.0728 C   0  0  0  0  0  0  0  0  0  0  0  0
  -22.0600  -23.3667   23.0577 C   0  0  0  0  0  0  0  0  0  0  0  0
  -23.8295  -14.9665   18.3678 C   0  0  0  0  0  0  0  0  0  0  0  0
  -29.0789  -24.6660   19.9407 C   0  0  0  0  0  0  0  0  0  0  0  0
  -23.9578  -29.2838   20.2777 C   0  0  0  0  0  0  0  0  0  0  0  0
  -27.9817  -25.5358   20.1045 C   0  0  0  0  0  0  0  0  0  0  0  0
  -23.4299  -29.5784   21.5429 C   0  0  0  0  0  0  0  0  0  0  0  0
  -22.9845  -21.1350   23.0974 C   0  0  0  0  0  0  0  0  0  0  0  0
  -23.1239  -23.7933   22.2629 C   0  0  0  0  0  0  0  0  0  0  0  0
  -24.0484  -21.5616   22.3026 C   0  0  0  0  0  0  0  0  0  0  0  0
  -25.3967  -11.0411   21.4025 C   0  0  0  0  0  0  0  0  0  0  0  0
  -21.3350  -28.5255   20.9002 C   0  0  0  0  0  0  0  0  0  0  0  0
  -24.4834   -9.1632   22.4805 C   0  0  0  0  0  0  0  0  0  0  0  0
  -22.2333   -7.7570   23.3417 C   0  0  0  0  0  0  0  0  0  0  0  0
  -24.3099   -8.8881   23.8369 C   0  0  0  0  0  0  0  0  0  0  0  0
  -24.7654  -14.7066   19.3868 C   0  0  0  0  0  0  0  0  0  0  0  0
  -24.0219  -16.2898   18.0542 C   0  0  0  0  0  0  0  0  0  0  0  0
  -20.9971  -24.3059   23.4686 C   0  0  0  0  0  0  0  0  0  0  0  0
  -22.8718  -14.0901   17.7592 C   0  0  0  0  0  0  0  0  0  0  0  0
  -26.6954  -28.6183   21.7496 C   0  0  0  0  0  0  0  0  0  0  0  0
  -26.3562  -31.6307   22.9040 C   0  0  0  0  0  0  0  0  0  0  0  0
  -24.2726  -34.2243   23.6650 C   0  0  0  0  0  0  0  0  0  0  0  0
  -26.1849  -20.9391   21.1218 C   0  0  0  0  0  0  0  0  0  0  0  0
  -30.2634  -24.6979   20.8741 C   0  0  0  0  0  0  0  0  0  0  0  0
  -25.3538  -29.7117   19.9164 C   0  0  0  0  0  0  0  0  0  0  0  0
  -24.2377  -30.2967   22.5917 C   0  0  0  0  0  0  0  0  0  0  0  0
  -29.9486  -25.3600   22.2116 C   0  0  0  0  0  0  0  0  0  0  0  0
  -27.4068  -19.6774   18.0247 C   0  0  0  0  0  0  0  0  0  0  0  0
  -29.2603  -26.6970   21.9804 C   0  0  0  0  0  0  0  0  0  0  0  0
  -26.7780  -18.2855   17.9269 C   0  0  0  0  0  0  0  0  0  0  0  0
  -27.7922  -20.0259   19.4612 C   0  0  0  0  0  0  0  0  0  0  0  0
  -26.0844  -18.4881   20.3486 C   0  0  0  0  0  0  0  0  0  0  0  0
  -27.9134  -26.5026   21.2727 C   0  0  1  0  0  0  0  0  0  0  0  0
  -26.2505  -29.9147   21.1338 C   0  0  1  0  0  0  0  0  0  0  0  0
  -25.6201  -18.1184   18.9303 C   0  0  2  0  0  0  0  0  0  0  0  0
  -22.8844  -19.7172   23.5588 C   0  0  0  0  0  0  0  0  0  0  0  0
  -23.2203  -25.2115   21.8038 C   0  0  0  0  0  0  0  0  0  0  0  0
  -24.2819  -36.5406   24.6304 C   0  0  0  0  0  0  0  0  0  0  0  0
  -26.6795  -30.4601   25.7032 C   0  0  0  0  0  0  0  0  0  0  0  0
  -25.7489  -32.5930   26.6269 C   0  0  0  0  0  0  0  0  0  0  0  0
  -27.8805  -32.6220   25.3314 C   0  0  0  0  0  0  0  0  0  0  0  0
  -23.2114  -35.3965   21.1632 C   0  0  0  0  0  0  0  0  0  0  0  0
  -18.5611  -26.3040   21.4913 C   0  0  0  0  0  0  0  0  0  0  0  0
  -19.1997  -25.8598   22.7967 C   0  0  0  0  0  0  0  0  0  0  0  0
  -19.5501  -26.9915   20.5584 C   0  0  0  0  0  0  0  0  0  1  0  0
  -25.6963  -32.2432   24.1157 C   0  0  1  0  0  0  0  0  0  0  0  0
  -24.3591  -35.7088   23.3596 C   0  0  2  0  0  0  0  0  0  0  0  0
  -26.4865  -31.9643   25.4254 C   0  0  0  0  0  0  0  0  0  0  0  0
  -25.4980  -15.7787   19.6996 N   0  0  0  0  0  0  0  0  0  0  0  0
  -25.0226  -16.7250   18.8723 N   0  0  0  0  0  0  0  0  0  0  0  0
  -25.5994  -30.6890   22.1925 N   0  0  0  0  0  0  0  0  0  0  0  0
  -26.6451  -19.8484   20.3541 N   0  0  0  0  0  0  0  0  0  0  0  0
  -23.4311  -17.1119   17.1612 N   0  0  0  0  0  0  0  0  0  0  0  0
  -20.8063  -24.5072   24.7724 N   0  0  0  0  0  0  0  0  0  0  0  0
  -22.8070  -12.7614   18.2004 N   0  0  0  0  0  0  0  0  0  0  0  0
  -25.0680  -20.6599   21.9087 N   0  0  0  0  0  0  0  0  0  0  0  0
  -27.3925  -27.7953   20.8858 N   0  0  0  0  0  0  0  0  0  0  0  0
  -25.5219  -33.6597   23.8133 N   0  0  0  0  0  0  0  0  0  0  0  0
  -20.2748  -24.9083   22.5149 N   0  3  0  0  0  0  0  0  0  0  0  0
  -23.2430  -36.1186   22.4611 N   0  3  0  0  0  0  0  0  0  0  0  0
  -22.1077  -14.4695   16.8396 O   0  0  0  0  0  0  0  0  0  0  0  0
  -26.4275  -28.3829   22.9219 O   0  0  0  0  0  0  0  0  0  0  0  0
  -27.4983  -31.9804   22.5959 O   0  0  0  0  0  0  0  0  0  0  0  0
  -23.2037  -33.6261   23.7658 O   0  0  0  0  0  0  0  0  0  0  0  0
  -26.7240  -22.0472   21.0633 O   0  0  0  0  0  0  0  0  0  0  0  0
  -25.5994   -9.8619   22.0515 O   0  0  0  0  0  0  0  0  0  0  0  0
  -20.0624  -28.1544   21.2077 O   0  0  0  0  0  0  0  0  0  1  0  0
  -21.1521   -7.0831   23.7553 F   0  0  0  0  0  0  0  0  0  0  0  0
  -25.2201   -9.2976   24.7311 F   0  0  0  0  0  0  0  0  0  0  0  0
  1  2  1  0  0  0  0
  1  5  2  0  0  0  0
  2  6  2  0  0  0  0
  3  8  2  0  0  0  0
  3 17  1  0  0  0  0
  4  9  1  0  0  0  0
  4 17  2  0  0  0  0
  5 20  1  0  0  0  0
  6 22  1  0  0  0  0
  7 10  2  0  0  0  0
  7 21  1  0  0  0  0
  8 27  1  0  0  0  0
  9 27  2  0  0  0  0
 10 28  1  0  0  0  0
 11 12  2  0  0  0  0
 11 29  1  0  0  0  0
 12 30  1  0  0  0  0
 13 18  1  0  0  0  0
 13 24  2  0  0  0  0
 14 23  1  0  0  0  0
 14 28  2  0  0  0  0
 15 25  1  0  0  0  0
 15 26  2  0  0  0  0
 16 30  2  0  0  0  0
 16 31  1  0  0  0  0
 17 32  1  0  0  0  0
 18 25  2  0  0  0  0
 18 34  1  0  0  0  0
 19 32  1  0  0  0  0
 19 33  2  0  0  0  0
 19 35  1  0  0  0  0
 20 22  2  0  0  0  0
 20 40  1  0  0  0  0
 21 23  2  0  0  0  0
 21 41  1  0  0  0  0
 22 49  1  0  0  0  0
 23 42  1  0  0  0  0
 24 26  1  0  0  0  0
 24 52  1  0  0  0  0
 25 53  1  0  0  0  0
 26 72  1  0  0  0  0
 27 82  1  0  0  0  0
 28 83  1  0  0  0  0
 29 31  2  0  0  0  0
 29 82  1  0  0  0  0
 30 84  1  0  0  0  0
 31 85  1  0  0  0  0
 32 65  2  0  0  0  0
 33 66  1  0  0  0  0
 33 69  1  0  0  0  0
 34 70  1  0  0  0  0
 34 75  2  0  0  0  0
 35 71  1  0  0  0  0
 35 77  2  0  0  0  0
 36 50  1  0  0  0  0
 36 73  1  0  0  0  0
 36 78  2  0  0  0  0
 37 62  1  0  0  0  0
 37 67  1  0  0  0  0
 37 79  2  0  0  0  0
 38 63  1  0  0  0  0
 38 74  1  0  0  0  0
 38 80  2  0  0  0  0
 39 68  1  0  0  0  0
 39 72  1  0  0  0  0
 39 81  2  0  0  0  0
 40 43  1  0  0  0  0
 41 50  1  0  0  0  0
 42 67  1  0  0  0  0
 43 45  1  0  0  0  0
 44 46  1  0  0  0  0
 44 47  1  0  0  0  0
 45 49  1  0  0  0  0
 46 51  1  0  0  0  0
 47 68  1  0  0  0  0
 48 51  1  0  0  0  0
 48 68  1  0  0  0  0
 49 73  1  0  0  0  0
 50 67  1  0  0  0  0
 51 66  1  0  0  0  0
 54 63  1  0  0  0  0
 55 64  1  0  0  0  0
 56 64  1  0  0  0  0
 57 64  1  0  0  0  0
 58 76  1  0  0  0  0
 59 60  1  0  0  0  0
 59 61  1  0  0  0  0
 60 75  1  0  0  0  0
 61 83  1  0  0  0  0
 62 64  1  0  0  0  0
 62 74  1  0  0  0  0
 63 76  1  0  0  0  0
 65 66  1  0  0  0  0
M  CHG  2  75   1  76   1
M  ISO  4  39 100  61 101  72 100  83 101
M  END
> <Batch ID>
0043

> <Smiles>
CNC(C)C(=O)NC(C(=O)N1Cc2cc([101O:1][101CH2:1]CCNC(=N)c3cc(C)c([100NH:0][100C:0](=O)N4CCCC(n5nc(-c6ccc(Oc7ccc(F)cc7F)cc6)c(C(N)=O)c5N)C4)cc3C)ccc2CC1C(=O)NC1CCCc2ccccc21)C(C)(C)C

> <Shape>
0.273

> <Color>
0.071

> <Negative vol penalty>
0.000

$$$$

  -OEChem-04042322153D

 88 97  0     1  0  0  0  0  0999 V2000
  -32.1444  -13.3384   22.1208 C   0  0  0  0  0  0  0  0  0  0  0  0
  -31.8665  -14.6627   21.7974 C   0  0  0  0  0  0  0  0  0  0  0  0
  -25.7651  -29.6361   20.2720 C   0  0  0  0  0  0  0  0  0  0  0  0
  -24.6169  -27.5576   20.7176 C   0  0  0  0  0  0  0  0  0  0  0  0
  -31.3106  -12.3200   21.6608 C   0  0  0  0  0  0  0  0  0  0  0  0
  -30.7551  -14.9692   21.0130 C   0  0  0  0  0  0  0  0  0  0  0  0
  -24.7538  -19.7468   22.4915 C   0  0  0  0  0  0  0  0  0  0  0  0
  -26.9114  -28.9264   19.9146 C   0  0  0  0  0  0  0  0  0  0  0  0
  -25.7632  -26.8478   20.3601 C   0  0  0  0  0  0  0  0  0  0  0  0
  -23.5627  -20.4411   22.7045 C   0  0  0  0  0  0  0  0  0  0  0  0
  -29.4502  -27.3416   21.4854 C   0  0  0  0  0  0  0  0  0  0  0  0
  -30.6718  -27.7892   21.9882 C   0  0  0  0  0  0  0  0  0  0  0  0
  -22.4130  -18.9580   21.1791 C   0  0  0  0  0  0  0  0  0  0  0  0
  -20.5458  -27.4969   23.4767 C   0  0  0  0  0  0  0  0  0  0  0  0
  -18.4654  -28.2231   22.4858 C   0  0  0  0  0  0  0  0  0  0  0  0
  -31.4780  -28.1201   19.7348 C   0  0  0  0  0  0  0  0  0  0  0  0
  -24.6178  -28.9518   20.6736 C   0  0  0  0  0  0  0  0  0  0  0  0
  -23.3070  -30.6281   22.0804 C   0  0  0  0  0  0  0  0  0  0  0  0
  -30.1830  -12.6150   20.8784 C   0  0  0  0  0  0  0  0  0  0  0  0
  -24.7756  -18.6446   21.6323 C   0  0  0  0  0  0  0  0  0  0  0  0
  -29.9062  -13.9537   20.5410 C   0  0  0  0  0  0  0  0  0  0  0  0
  -23.6004  -18.2510   20.9715 C   0  0  0  0  0  0  0  0  0  0  0  0
  -20.6388  -26.4747   22.5323 C   0  0  0  0  0  0  0  0  0  0  0  0
  -19.6452  -26.3267   21.5645 C   0  0  0  0  0  0  0  0  0  0  0  0
  -18.5585  -27.2009   21.5413 C   0  0  0  0  0  0  0  0  0  0  0  0
  -26.9105  -27.5322   19.9586 C   0  0  0  0  0  0  0  0  0  0  0  0
  -22.3953  -20.0478   22.0497 C   0  0  0  0  0  0  0  0  0  0  0  0
  -29.2424  -27.2831   20.1073 C   0  0  0  0  0  0  0  0  0  0  0  0
  -31.6857  -28.1785   21.1130 C   0  0  0  0  0  0  0  0  0  0  0  0
  -30.2563  -27.6724   19.2320 C   0  0  0  0  0  0  0  0  0  0  0  0
  -19.4590  -28.3711   23.4535 C   0  0  0  0  0  0  0  0  0  0  0  0
  -23.4336  -29.6844   21.0434 C   0  0  0  0  0  0  0  0  0  0  0  0
  -21.9954  -31.0314   22.0194 C   0  0  0  0  0  0  0  0  0  0  0  0
  -21.6677  -23.0750   22.3919 C   0  0  0  0  0  0  0  0  0  0  0  0
  -24.2873  -31.0982   23.0151 C   0  0  0  0  0  0  0  0  0  0  0  0
  -26.7966  -15.8941   20.0745 C   0  0  0  0  0  0  0  0  0  0  0  0
  -24.0705  -14.6924   20.8059 C   0  0  0  0  0  0  0  0  0  0  0  0
  -21.1100  -13.6540   22.1455 C   0  0  0  0  0  0  0  0  0  0  0  0
  -17.1962  -28.0788   19.6270 C   0  0  0  0  0  0  0  0  0  0  0  0
  -29.3377  -11.4765   20.3648 C   0  0  0  0  0  0  0  0  0  0  0  0
  -26.0495  -17.9050   21.3256 C   0  0  0  0  0  0  0  0  0  0  0  0
  -23.6788  -17.0808   20.0295 C   0  0  0  0  0  0  0  0  0  0  0  0
  -27.9693  -11.9171   19.8515 C   0  0  0  0  0  0  0  0  0  0  0  0
  -19.8964  -23.2266   24.7500 C   0  0  0  0  0  0  0  0  0  0  0  0
  -18.3457  -31.5350   18.9741 C   0  0  0  0  0  0  0  0  0  0  0  0
  -28.1061  -13.1380   18.9473 C   0  0  0  0  0  0  0  0  0  0  0  0
  -19.9257  -22.0139   23.8215 C   0  0  0  0  0  0  0  0  0  0  0  0
  -19.7989  -31.5036   19.4437 C   0  0  0  0  0  0  0  0  0  0  0  0
  -21.0644  -24.1829   24.5258 C   0  0  0  0  0  0  0  0  0  0  0  0
  -17.8779  -30.1665   18.4882 C   0  0  0  0  0  0  0  0  0  0  0  0
  -19.5211  -29.0482   19.9682 C   0  0  0  0  0  0  0  0  0  0  0  0
  -28.6961  -14.3283   19.7131 C   0  0  1  0  0  0  0  0  0  0  0  0
  -21.2867  -21.8199   23.1654 C   0  0  1  0  0  0  0  0  0  1  0  0
  -25.8344  -16.3961   21.1107 C   0  0  1  0  0  0  0  0  0  0  0  0
  -20.0039  -30.4057   20.5005 C   0  0  1  0  0  0  0  0  0  0  0  0
  -19.7494  -25.2285   20.5531 C   0  0  0  0  0  0  0  0  0  0  0  0
  -19.6685  -11.6151   22.3953 C   0  0  0  0  0  0  0  0  0  0  0  0
  -23.1966  -14.9582   17.8957 C   0  0  0  0  0  0  0  0  0  0  0  0
  -21.1647  -13.6073   18.4565 C   0  0  0  0  0  0  0  0  0  0  0  0
  -23.4348  -12.6031   18.7028 C   0  0  0  0  0  0  0  0  0  0  0  0
  -16.5961  -25.9403   20.6750 C   0  0  0  0  0  0  0  0  0  0  0  0
  -21.2799  -13.7535   25.0985 C   0  0  0  0  0  0  0  0  0  0  0  0
  -21.8188  -25.5475   22.5794 C   0  0  0  0  0  0  0  0  0  0  0  0
  -22.6714  -14.3609   20.3520 C   0  0  1  0  0  0  0  0  0  0  0  0
  -20.7631  -12.4644   23.0224 C   0  0  2  0  0  0  0  0  0  0  0  0
  -22.6226  -13.9064   18.8659 C   0  0  0  0  0  0  0  0  0  0  0  0
  -22.2934  -29.4991   20.3729 N   0  0  0  0  0  0  0  0  0  0  0  0
  -21.4378  -30.3318   20.9900 N   0  0  0  0  0  0  0  0  0  0  0  0
  -21.4673  -24.2474   23.1256 N   0  0  0  0  0  0  0  0  0  0  0  0
  -24.4989  -16.0127   20.6223 N   0  0  0  0  0  0  0  0  0  0  0  0
  -18.1341  -29.1214   19.4805 N   0  0  0  0  0  0  0  0  0  0  0  0
  -21.2763  -31.9126   22.7465 N   0  0  0  0  0  0  0  0  0  0  0  0
  -25.5869  -30.5793   22.9379 N   0  0  0  0  0  0  0  0  0  0  0  0
  -27.6851  -14.9458   20.5443 N   0  0  0  0  0  0  0  0  0  0  0  0
  -22.1592  -13.3735   21.2959 N   0  0  0  0  0  0  0  0  0  0  0  0
  -17.5195  -27.0658   20.5498 N   0  0  0  0  0  0  0  0  0  0  0  0
  -20.2923  -12.9259   24.3589 N   0  3  0  0  0  0  0  0  0  0  0  0
  -22.1137  -23.0256   21.2470 O   0  0  0  0  0  0  0  0  0  0  0  0
  -24.0145  -31.9409   23.9033 O   0  0  0  0  0  0  0  0  0  0  0  0
  -26.7373  -16.3331   18.9319 O   0  0  0  0  0  0  0  0  0  0  0  0
  -24.7688  -13.8054   21.3048 O   0  0  0  0  0  0  0  0  0  0  0  0
  -20.5079  -14.7237   22.2053 O   0  0  0  0  0  0  0  0  0  0  0  0
  -16.1670  -28.0235   18.9427 O   0  0  0  0  0  0  0  0  0  0  0  0
  -28.0288  -26.8392   19.6097 O   0  0  0  0  0  0  0  0  0  0  0  0
  -21.2349  -20.7272   22.2656 O   0  0  0  0  0  0  0  0  0  1  0  0
  -32.8582  -28.6098   21.5960 F   0  0  0  0  0  0  0  0  0  0  0  0
  -30.0622  -27.6196   17.9071 F   0  0  0  0  0  0  0  0  0  0  0  0
  -19.3439  -29.6315   24.6196 Cl  0  0  0  0  0  0  0  0  0  0  0  0
  1  2  1  0  0  0  0
  1  5  2  0  0  0  0
  2  6  2  0  0  0  0
  3  8  2  0  0  0  0
  3 17  1  0  0  0  0
  4  9  1  0  0  0  0
  4 17  2  0  0  0  0
  5 19  1  0  0  0  0
  6 21  1  0  0  0  0
  7 10  2  0  0  0  0
  7 20  1  0  0  0  0
  8 26  1  0  0  0  0
  9 26  2  0  0  0  0
 10 27  1  0  0  0  0
 11 12  2  0  0  0  0
 11 28  1  0  0  0  0
 12 29  1  0  0  0  0
 13 22  1  0  0  0  0
 13 27  2  0  0  0  0
 14 23  1  0  0  0  0
 14 31  2  0  0  0  0
 15 25  2  0  0  0  0
 15 31  1  0  0  0  0
 16 29  2  0  0  0  0
 16 30  1  0  0  0  0
 17 32  1  0  0  0  0
 18 32  1  0  0  0  0
 18 33  2  0  0  0  0
 18 35  1  0  0  0  0
 19 21  2  0  0  0  0
 19 40  1  0  0  0  0
 20 22  2  0  0  0  0
 20 41  1  0  0  0  0
 21 52  1  0  0  0  0
 22 42  1  0  0  0  0
 23 24  2  0  0  0  0
 23 63  1  0  0  0  0
 24 25  1  0  0  0  0
 24 56  1  0  0  0  0
 25 76  1  0  0  0  0
 26 84  1  0  0  0  0
 27 85  1  0  0  0  0
 28 30  2  0  0  0  0
 28 84  1  0  0  0  0
 29 86  1  0  0  0  0
 30 87  1  0  0  0  0
 31 88  1  0  0  0  0
 32 67  2  0  0  0  0
 33 68  1  0  0  0  0
 33 72  1  0  0  0  0
 34 53  1  0  0  0  0
 34 69  1  0  0  0  0
 34 78  2  0  0  0  0
 35 73  1  0  0  0  0
 35 79  2  0  0  0  0
 36 54  1  0  0  0  0
 36 74  1  0  0  0  0
 36 80  2  0  0  0  0
 37 64  1  0  0  0  0
 37 70  1  0  0  0  0
 37 81  2  0  0  0  0
 38 65  1  0  0  0  0
 38 75  1  0  0  0  0
 38 82  2  0  0  0  0
 39 71  1  0  0  0  0
 39 76  1  0  0  0  0
 39 83  2  0  0  0  0
 40 43  1  0  0  0  0
 41 54  1  0  0  0  0
 42 70  1  0  0  0  0
 43 46  1  0  0  0  0
 44 47  1  0  0  0  0
 44 49  1  0  0  0  0
 45 48  1  0  0  0  0
 45 50  1  0  0  0  0
 46 52  1  0  0  0  0
 47 53  1  0  0  0  0
 48 55  1  0  0  0  0
 49 69  1  0  0  0  0
 50 71  1  0  0  0  0
 51 55  1  0  0  0  0
 51 71  1  0  0  0  0
 52 74  1  0  0  0  0
 53 85  1  0  0  0  0
 54 70  1  0  0  0  0
 55 68  1  0  0  0  0
 57 65  1  0  0  0  0
 58 66  1  0  0  0  0
 59 66  1  0  0  0  0
 60 66  1  0  0  0  0
 61 76  1  0  0  0  0
 62 77  1  0  0  0  0
 63 69  1  0  0  0  0
 64 66  1  0  0  0  0
 64 75  1  0  0  0  0
 65 77  1  0  0  0  0
 67 68  1  0  0  0  0
M  CHG  1  77   1
M  ISO  4  39 100  53 101  76 100  85 101
M  END
> <Batch ID>
0043

> <Smiles>
CNC(C)C(=O)NC(C(=O)N1Cc2cc([101O:1][101CH:1]3CCCN(Cc4cc(Cl)cc([100N:0](C)[100C:0](=O)N5CCCC(n6nc(-c7ccc(Oc8ccc(F)cc8F)cc7)c(C(N)=O)c6N)C5)c4C)C3=O)ccc2CC1C(=O)NC1CCCc2ccccc21)C(C)(C)C

> <Shape>
0.242

> <Color>
0.091

> <Negative vol penalty>
0.000

$$$$

  -OEChem-04042322153D

 83 91  0     1  0  0  0  0  0999 V2000
  -25.4467  -12.4282   16.6588 C   0  0  0  0  0  0  0  0  0  0  0  0
  -25.1959  -13.7913   16.7790 C   0  0  0  0  0  0  0  0  0  0  0  0
  -29.6617  -26.6684   20.0824 C   0  0  0  0  0  0  0  0  0  0  0  0
  -27.9311  -24.9833   20.1311 C   0  0  0  0  0  0  0  0  0  0  0  0
  -25.4555  -11.6194   17.7944 C   0  0  0  0  0  0  0  0  0  0  0  0
  -24.9526  -14.3463   18.0349 C   0  0  0  0  0  0  0  0  0  0  0  0
  -26.5900  -19.9186   19.9774 C   0  0  0  0  0  0  0  0  0  0  0  0
  -18.7801  -26.4441   22.3108 C   0  0  0  0  0  0  0  0  0  0  0  0
  -30.5928  -25.7249   20.5165 C   0  0  0  0  0  0  0  0  0  0  0  0
  -28.8622  -24.0397   20.5651 C   0  0  0  0  0  0  0  0  0  0  0  0
  -25.8914  -21.1213   20.0734 C   0  0  0  0  0  0  0  0  0  0  0  0
  -30.8571  -21.1006   21.3400 C   0  0  0  0  0  0  0  0  0  0  0  0
  -30.8420  -19.8459   20.7311 C   0  0  0  0  0  0  0  0  0  0  0  0
  -17.8239  -27.2691   22.9029 C   0  0  0  0  0  0  0  0  0  0  0  0
  -25.4148  -20.6525   22.3912 C   0  0  0  0  0  0  0  0  0  0  0  0
  -19.4449  -29.0560   23.0306 C   0  0  0  0  0  0  0  0  0  0  0  0
  -31.2844  -20.8785   18.5921 C   0  0  0  0  0  0  0  0  0  0  0  0
  -28.3309  -26.2977   19.8897 C   0  0  0  0  0  0  0  0  0  0  0  0
  -27.0289  -27.5821   18.1114 C   0  0  0  0  0  0  0  0  0  0  0  0
  -25.2217  -12.1664   19.0660 C   0  0  0  0  0  0  0  0  0  0  0  0
  -26.6972  -19.0673   21.0865 C   0  0  0  0  0  0  0  0  0  0  0  0
  -24.9569  -13.5438   19.1884 C   0  0  0  0  0  0  0  0  0  0  0  0
  -26.1175  -19.4408   22.3073 C   0  0  0  0  0  0  0  0  0  0  0  0
  -20.0687  -26.9250   22.0786 C   0  0  0  0  0  0  0  0  0  0  0  0
  -20.4011  -28.2309   22.4385 C   0  0  0  0  0  0  0  0  0  0  0  0
  -30.1930  -24.4105   20.7578 C   0  0  0  0  0  0  0  0  0  0  0  0
  -25.3012  -21.4871   21.2796 C   0  0  0  0  0  0  0  0  0  0  0  0
  -31.0858  -22.2444   20.5750 C   0  0  0  0  0  0  0  0  0  0  0  0
  -31.0556  -19.7348   19.3572 C   0  0  0  0  0  0  0  0  0  0  0  0
  -31.2994  -22.1333   19.2011 C   0  0  0  0  0  0  0  0  0  0  0  0
  -18.1563  -28.5751   23.2628 C   0  0  0  0  0  0  0  0  0  0  0  0
  -27.3685  -27.2721   19.4419 C   0  0  0  0  0  0  0  0  0  0  0  0
  -26.0747  -28.5640   18.2205 C   0  0  0  0  0  0  0  0  0  0  0  0
  -23.1618  -25.0970   21.7339 C   0  0  0  0  0  0  0  0  0  0  0  0
  -27.5310  -27.0317   16.8863 C   0  0  0  0  0  0  0  0  0  0  0  0
  -25.7653  -16.0979   21.7332 C   0  0  0  0  0  0  0  0  0  0  0  0
  -27.4564  -16.5766   24.4596 C   0  0  0  0  0  0  0  0  0  0  0  0
  -28.7529  -18.7860   26.7145 C   0  0  0  0  0  0  0  0  0  0  0  0
  -22.1805  -30.0126   22.5149 C   0  0  0  0  0  0  0  0  0  0  0  0
  -25.1945  -11.2442   20.2591 C   0  0  0  0  0  0  0  0  0  0  0  0
  -27.4769  -17.7860   20.9738 C   0  0  0  0  0  0  0  0  0  0  0  0
  -26.2208  -18.5717   23.5331 C   0  0  0  0  0  0  0  0  0  0  0  0
  -25.2981  -11.9743   21.5957 C   0  0  0  0  0  0  0  0  0  0  0  0
  -24.6766  -32.1232   21.1035 C   0  0  0  0  0  0  0  0  0  0  0  0
  -24.3516  -13.1701   21.6256 C   0  0  0  0  0  0  0  0  0  0  0  0
  -25.6159  -31.1474   20.3910 C   0  0  0  0  0  0  0  0  0  0  0  0
  -24.1373  -31.5406   22.4086 C   0  0  0  0  0  0  0  0  0  0  0  0
  -24.4471  -29.2438   21.5730 C   0  0  0  0  0  0  0  0  0  0  0  0
  -24.7131  -14.1871   20.5363 C   0  0  1  0  0  0  0  0  0  0  0  0
  -27.0851  -16.7536   22.0264 C   0  0  1  0  0  0  0  0  0  0  0  0
  -24.9647  -29.7609   20.2208 C   0  0  2  0  0  0  0  0  0  0  0  0
  -30.0529  -18.8771   28.8591 C   0  0  0  0  0  0  0  0  0  0  0  0
  -24.9594  -15.7492   26.0055 C   0  0  0  0  0  0  0  0  0  0  0  0
  -25.9823  -16.7534   28.0582 C   0  0  0  0  0  0  0  0  0  0  0  0
  -27.1016  -14.8373   26.9187 C   0  0  0  0  0  0  0  0  0  0  0  0
  -30.9589  -20.2990   25.4483 C   0  0  0  0  0  0  0  0  0  0  0  0
  -21.0784  -26.0134   21.4391 C   0  0  0  0  0  0  0  0  0  0  0  0
  -24.4496  -24.8013   22.4554 C   0  0  0  0  0  0  0  0  0  0  0  0
  -24.6072  -23.3027   22.6499 C   0  0  0  0  0  0  0  0  0  1  0  0
  -27.1405  -17.1199   25.8322 C   0  0  1  0  0  0  0  0  0  0  0  0
  -30.1317  -18.8939   27.3405 C   0  0  2  0  0  0  0  0  0  0  0  0
  -26.2921  -16.1306   26.6802 C   0  0  0  0  0  0  0  0  0  0  0  0
  -26.6858  -27.9982   20.3310 N   0  0  0  0  0  0  0  0  0  0  0  0
  -22.2594  -25.8361   22.2789 N   0  0  0  0  0  0  0  0  0  0  0  0
  -25.9076  -28.7744   19.5576 N   0  0  0  0  0  0  0  0  0  0  0  0
  -26.9882  -17.3258   23.3708 N   0  0  0  0  0  0  0  0  0  0  0  0
  -23.5312  -30.2290   22.1693 N   0  0  0  0  0  0  0  0  0  0  0  0
  -25.3708  -29.2594   17.3021 N   0  0  0  0  0  0  0  0  0  0  0  0
  -28.5091  -26.0303   16.9551 N   0  0  0  0  0  0  0  0  0  0  0  0
  -21.7047  -28.7376   22.2108 N   0  0  0  0  0  0  0  0  0  0  0  0
  -25.8608  -14.9717   20.9382 N   0  0  0  0  0  0  0  0  0  0  0  0
  -28.4204  -17.4775   26.4342 N   0  0  0  0  0  0  0  0  0  0  0  0
  -30.7945  -20.1602   26.9182 N   0  3  0  0  0  0  0  0  0  0  0  0
  -27.1361  -27.4282   15.7636 O   0  0  0  0  0  0  0  0  0  0  0  0
  -24.7366  -16.5774   22.1953 O   0  0  0  0  0  0  0  0  0  0  0  0
  -28.1013  -15.5300   24.3571 O   0  0  0  0  0  0  0  0  0  0  0  0
  -28.0406  -19.7641   26.4994 O   0  0  0  0  0  0  0  0  0  0  0  0
  -21.4885  -30.9022   23.0168 O   0  0  0  0  0  0  0  0  0  0  0  0
  -31.1013  -23.4894   21.1812 O   0  0  0  0  0  0  0  0  0  0  0  0
  -24.6181  -22.6601   21.3758 O   0  0  0  0  0  0  0  0  0  1  0  0
  -31.0426  -18.5296   18.7728 F   0  0  0  0  0  0  0  0  0  0  0  0
  -31.5208  -23.2285   18.4612 F   0  0  0  0  0  0  0  0  0  0  0  0
  -16.9760  -29.5924   23.9933 Cl  0  0  0  0  0  0  0  0  0  0  0  0
  1  2  1  0  0  0  0
  1  5  2  0  0  0  0
  2  6  2  0  0  0  0
  3  9  2  0  0  0  0
  3 18  1  0  0  0  0
  4 10  1  0  0  0  0
  4 18  2  0  0  0  0
  5 20  1  0  0  0  0
  6 22  1  0  0  0  0
  7 11  2  0  0  0  0
  7 21  1  0  0  0  0
  8 14  2  0  0  0  0
  8 24  1  0  0  0  0
  9 26  1  0  0  0  0
 10 26  2  0  0  0  0
 11 27  1  0  0  0  0
 12 13  2  0  0  0  0
 12 28  1  0  0  0  0
 13 29  1  0  0  0  0
 14 31  1  0  0  0  0
 15 23  1  0  0  0  0
 15 27  2  0  0  0  0
 16 25  1  0  0  0  0
 16 31  2  0  0  0  0
 17 29  2  0  0  0  0
 17 30  1  0  0  0  0
 18 32  1  0  0  0  0
 19 32  1  0  0  0  0
 19 33  2  0  0  0  0
 19 35  1  0  0  0  0
 20 22  2  0  0  0  0
 20 40  1  0  0  0  0
 21 23  2  0  0  0  0
 21 41  1  0  0  0  0
 22 49  1  0  0  0  0
 23 42  1  0  0  0  0
 24 25  2  0  0  0  0
 24 57  1  0  0  0  0
 25 70  1  0  0  0  0
 26 79  1  0  0  0  0
 27 80  1  0  0  0  0
 28 30  2  0  0  0  0
 28 79  1  0  0  0  0
 29 81  1  0  0  0  0
 30 82  1  0  0  0  0
 31 83  1  0  0  0  0
 32 63  2  0  0  0  0
 33 65  1  0  0  0  0
 33 68  1  0  0  0  0
 34 58  1  0  0  0  0
 34 64  2  0  0  0  0
 35 69  1  0  0  0  0
 35 74  2  0  0  0  0
 36 50  1  0  0  0  0
 36 71  1  0  0  0  0
 36 75  2  0  0  0  0
 37 60  1  0  0  0  0
 37 66  1  0  0  0  0
 37 76  2  0  0  0  0
 38 61  1  0  0  0  0
 38 72  1  0  0  0  0
 38 77  2  0  0  0  0
 39 67  1  0  0  0  0
 39 70  1  0  0  0  0
 39 78  2  0  0  0  0
 40 43  1  0  0  0  0
 41 50  1  0  0  0  0
 42 66  1  0  0  0  0
 43 45  1  0  0  0  0
 44 46  1  0  0  0  0
 44 47  1  0  0  0  0
 45 49  1  0  0  0  0
 46 51  1  0  0  0  0
 47 67  1  0  0  0  0
 48 51  1  0  0  0  0
 48 67  1  0  0  0  0
 49 71  1  0  0  0  0
 50 66  1  0  0  0  0
 51 65  1  0  0  0  0
 52 61  1  0  0  0  0
 53 62  1  0  0  0  0
 54 62  1  0  0  0  0
 55 62  1  0  0  0  0
 56 73  1  0  0  0  0
 57 64  1  0  0  0  0
 58 59  1  0  0  0  0
 59 80  1  0  0  0  0
 60 62  1  0  0  0  0
 60 72  1  0  0  0  0
 61 73  1  0  0  0  0
 63 65  1  0  0  0  0
M  CHG  1  73   1
M  ISO  4  39 100  59 101  70 100  80 101
M  END
> <Batch ID>
0043

> <Smiles>
CNC(C)C(=O)NC(C(=O)N1Cc2cc([101O:1][101CH2:1]CC=NCc3ccc(Cl)cc3[100NH:0][100C:0](=O)N3CCCC(n4nc(-c5ccc(Oc6ccc(F)cc6F)cc5)c(C(N)=O)c4N)C3)ccc2CC1C(=O)NC1CCCc2ccccc21)C(C)(C)C

> <Shape>
0.199

> <Color>
0.076

> <Negative vol penalty>
0.000

$$$$

  -OEChem-04042322153D

 84 92  0     1  0  0  0  0  0999 V2000
  -24.3036  -35.1188   23.6110 C   0  0  0  0  0  0  0  0  0  0  0  0
  -25.1277  -34.0602   23.2426 C   0  0  0  0  0  0  0  0  0  0  0  0
  -24.7637  -13.0190   21.9630 C   0  0  0  0  0  0  0  0  0  0  0  0
  -25.7895  -13.2444   19.7872 C   0  0  0  0  0  0  0  0  0  0  0  0
  -23.0670  -34.8647   24.2029 C   0  0  0  0  0  0  0  0  0  0  0  0
  -24.7162  -32.7469   23.4670 C   0  0  0  0  0  0  0  0  0  0  0  0
  -25.5684  -29.7367   19.4849 C   0  0  0  0  0  0  0  0  0  0  0  0
  -33.1702  -21.2728   19.8511 C   0  0  0  0  0  0  0  0  0  0  0  0
  -32.0378  -20.6868   20.4167 C   0  0  0  0  0  0  0  0  0  0  0  0
  -23.9799  -11.9690   21.4847 C   0  0  0  0  0  0  0  0  0  0  0  0
  -25.0057  -12.1943   19.3089 C   0  0  0  0  0  0  0  0  0  0  0  0
  -26.8744  -29.2873   19.2944 C   0  0  0  0  0  0  0  0  0  0  0  0
  -24.3623   -8.6746   20.8261 C   0  0  0  0  0  0  0  0  0  0  0  0
  -24.2490   -7.5352   21.6227 C   0  0  0  0  0  0  0  0  0  0  0  0
  -30.7476  -22.6560   19.8738 C   0  0  0  0  0  0  0  0  0  0  0  0
  -26.2871  -27.1738   20.2979 C   0  0  0  0  0  0  0  0  0  0  0  0
  -21.8559   -7.8492   21.7315 C   0  0  0  0  0  0  0  0  0  0  0  0
  -25.6684  -13.6568   21.1142 C   0  0  0  0  0  0  0  0  0  0  0  0
  -31.8800  -23.2420   19.3082 C   0  0  0  0  0  0  0  0  0  0  0  0
  -27.7523  -14.6512   22.1988 C   0  0  0  0  0  0  0  0  0  0  0  0
  -22.6360  -33.5475   24.4259 C   0  0  0  0  0  0  0  0  0  0  0  0
  -24.6132  -28.9105   20.0943 C   0  0  0  0  0  0  0  0  0  0  0  0
  -23.4734  -32.4751   24.0638 C   0  0  0  0  0  0  0  0  0  0  0  0
  -24.9690  -27.6141   20.4927 C   0  0  0  0  0  0  0  0  0  0  0  0
  -33.0913  -22.5504   19.2969 C   0  0  0  0  0  0  0  0  0  0  0  0
  -30.8265  -21.3784   20.4280 C   0  0  0  0  0  0  0  0  0  0  0  0
  -24.1010  -11.5566   20.1577 C   0  0  0  0  0  0  0  0  0  0  0  0
  -27.2346  -28.0068   19.7035 C   0  0  0  0  0  0  0  0  0  0  0  0
  -23.2224   -9.4014   20.4823 C   0  0  0  0  0  0  0  0  0  0  0  0
  -22.9958   -7.1225   22.0754 C   0  0  0  0  0  0  0  0  0  0  0  0
  -21.9693   -8.9887   20.9349 C   0  0  0  0  0  0  0  0  0  0  0  0
  -26.4779  -14.7419   21.6075 C   0  0  0  0  0  0  0  0  0  0  0  0
  -28.0885  -15.9505   22.4909 C   0  0  0  0  0  0  0  0  0  0  0  0
  -31.2584  -26.7978   19.1516 C   0  0  0  0  0  0  0  0  0  0  0  0
  -31.7673  -24.6089   18.7219 C   0  0  0  0  0  0  0  0  0  0  0  0
  -28.5600  -13.4958   22.4604 C   0  0  0  0  0  0  0  0  0  0  0  0
  -22.8687  -29.0763   22.7463 C   0  0  0  0  0  0  0  0  0  0  0  0
  -21.5053  -26.3860   21.5522 C   0  0  0  0  0  0  0  0  0  0  0  0
  -21.7766  -23.6563   19.5219 C   0  0  0  0  0  0  0  0  0  0  0  0
  -28.3985  -21.3326   21.0982 C   0  0  0  0  0  0  0  0  0  0  0  0
  -21.3117  -33.3233   25.1119 C   0  0  0  0  0  0  0  0  0  0  0  0
  -23.2018  -29.4005   20.2684 C   0  0  0  0  0  0  0  0  0  0  0  0
  -23.9757  -26.6806   21.1333 C   0  0  0  0  0  0  0  0  0  0  0  0
  -20.7877  -31.8963   24.9731 C   0  0  0  0  0  0  0  0  0  0  0  0
  -25.2981  -20.1729   22.4095 C   0  0  0  0  0  0  0  0  0  0  0  0
  -21.8959  -30.8898   25.2656 C   0  0  0  0  0  0  0  0  0  0  0  0
  -25.4335  -18.6491   22.3664 C   0  0  0  0  0  0  0  0  0  0  0  0
  -25.9661  -20.8359   21.2062 C   0  0  0  0  0  0  0  0  0  0  0  0
  -27.5010  -18.9274   20.9399 C   0  0  0  0  0  0  0  0  0  0  0  0
  -23.0515  -31.0362   24.2682 C   0  0  1  0  0  0  0  0  0  0  0  0
  -22.4436  -28.6607   21.3663 C   0  0  1  0  0  0  0  0  0  0  0  0
  -26.8998  -18.2191   22.1648 C   0  0  2  0  0  0  0  0  0  0  0  0
  -34.3193  -23.1546   18.6976 C   0  0  0  0  0  0  0  0  0  0  0  0
  -20.5135  -21.6179   18.7826 C   0  0  0  0  0  0  0  0  0  0  0  0
  -22.1192  -25.0406   24.2211 C   0  0  0  0  0  0  0  0  0  0  0  0
  -21.7253  -22.8283   23.1171 C   0  0  0  0  0  0  0  0  0  0  0  0
  -19.8728  -24.4920   23.2686 C   0  0  0  0  0  0  0  0  0  0  0  0
  -21.7861  -24.5333   16.6953 C   0  0  0  0  0  0  0  0  0  0  0  0
  -30.8239  -27.9139   20.0646 C   0  0  0  0  0  0  0  0  0  0  0  0
  -29.5451  -28.5466   19.5423 C   0  0  0  0  0  0  0  0  0  1  0  0
  -21.7827  -24.9064   21.6648 C   0  0  1  0  0  0  0  0  0  0  0  0
  -20.8330  -23.0746   18.4848 C   0  0  2  0  0  0  0  0  0  0  0  0
  -21.3945  -24.3349   23.0576 C   0  0  0  0  0  0  0  0  0  0  0  0
  -26.0346  -15.9993   21.5282 N   0  0  0  0  0  0  0  0  0  0  0  0
  -31.3734  -25.5934   19.6027 N   0  0  0  0  0  0  0  0  0  0  0  0
  -27.0359  -16.7107   22.0735 N   0  0  0  0  0  0  0  0  0  0  0  0
  -22.6099  -27.2080   21.2877 N   0  0  0  0  0  0  0  0  0  0  0  0
  -27.3537  -20.3845   21.0808 N   0  0  0  0  0  0  0  0  0  0  0  0
  -29.1788  -16.5054   23.0617 N   0  0  0  0  0  0  0  0  0  0  0  0
  -28.0631  -12.2369   22.0965 N   0  0  0  0  0  0  0  0  0  0  0  0
  -29.6769  -20.7835   21.0045 N   0  0  0  0  0  0  0  0  0  0  0  0
  -22.7072  -30.4245   23.0026 N   0  0  0  0  0  0  0  0  0  0  0  0
  -21.0912  -24.2751   20.5460 N   0  0  0  0  0  0  0  0  0  0  0  0
  -21.4427  -23.1540   17.1273 N   0  3  0  0  0  0  0  0  0  0  0  0
  -32.0274  -24.7644   17.5319 O   0  0  0  0  0  0  0  0  0  0  0  0
  -29.6819  -13.5759   23.0157 O   0  0  0  0  0  0  0  0  0  0  0  0
  -23.3091  -28.2357   23.5216 O   0  0  0  0  0  0  0  0  0  0  0  0
  -20.3498  -26.7966   21.6867 O   0  0  0  0  0  0  0  0  0  0  0  0
  -22.9993  -23.5673   19.4344 O   0  0  0  0  0  0  0  0  0  0  0  0
  -28.1769  -22.5404   21.2169 O   0  0  0  0  0  0  0  0  0  0  0  0
  -23.3365  -10.5319   19.6907 O   0  0  0  0  0  0  0  0  0  0  0  0
  -28.5088  -27.5659   19.5193 O   0  0  0  0  0  0  0  0  0  1  0  0
  -22.8870   -6.0275   22.8391 F   0  0  0  0  0  0  0  0  0  0  0  0
  -20.8705   -9.6821   20.6068 F   0  0  0  0  0  0  0  0  0  0  0  0
  1  2  1  0  0  0  0
  1  5  2  0  0  0  0
  2  6  2  0  0  0  0
  3 10  2  0  0  0  0
  3 18  1  0  0  0  0
  4 11  1  0  0  0  0
  4 18  2  0  0  0  0
  5 21  1  0  0  0  0
  6 23  1  0  0  0  0
  7 12  2  0  0  0  0
  7 22  1  0  0  0  0
  8  9  2  0  0  0  0
  8 25  1  0  0  0  0
  9 26  1  0  0  0  0
 10 27  1  0  0  0  0
 11 27  2  0  0  0  0
 12 28  1  0  0  0  0
 13 14  2  0  0  0  0
 13 29  1  0  0  0  0
 14 30  1  0  0  0  0
 15 19  1  0  0  0  0
 15 26  2  0  0  0  0
 16 24  1  0  0  0  0
 16 28  2  0  0  0  0
 17 30  2  0  0  0  0
 17 31  1  0  0  0  0
 18 32  1  0  0  0  0
 19 25  2  0  0  0  0
 19 35  1  0  0  0  0
 20 32  1  0  0  0  0
 20 33  2  0  0  0  0
 20 36  1  0  0  0  0
 21 23  2  0  0  0  0
 21 41  1  0  0  0  0
 22 24  2  0  0  0  0
 22 42  1  0  0  0  0
 23 50  1  0  0  0  0
 24 43  1  0  0  0  0
 25 53  1  0  0  0  0
 26 71  1  0  0  0  0
 27 81  1  0  0  0  0
 28 82  1  0  0  0  0
 29 31  2  0  0  0  0
 29 81  1  0  0  0  0
 30 83  1  0  0  0  0
 31 84  1  0  0  0  0
 32 64  2  0  0  0  0
 33 66  1  0  0  0  0
 33 69  1  0  0  0  0
 34 59  1  0  0  0  0
 34 65  2  0  0  0  0
 35 65  1  0  0  0  0
 35 75  2  0  0  0  0
 36 70  1  0  0  0  0
 36 76  2  0  0  0  0
 37 51  1  0  0  0  0
 37 72  1  0  0  0  0
 37 77  2  0  0  0  0
 38 61  1  0  0  0  0
 38 67  1  0  0  0  0
 38 78  2  0  0  0  0
 39 62  1  0  0  0  0
 39 73  1  0  0  0  0
 39 79  2  0  0  0  0
 40 68  1  0  0  0  0
 40 71  1  0  0  0  0
 40 80  2  0  0  0  0
 41 44  1  0  0  0  0
 42 51  1  0  0  0  0
 43 67  1  0  0  0  0
 44 46  1  0  0  0  0
 45 47  1  0  0  0  0
 45 48  1  0  0  0  0
 46 50  1  0  0  0  0
 47 52  1  0  0  0  0
 48 68  1  0  0  0  0
 49 52  1  0  0  0  0
 49 68  1  0  0  0  0
 50 72  1  0  0  0  0
 51 67  1  0  0  0  0
 52 66  1  0  0  0  0
 54 62  1  0  0  0  0
 55 63  1  0  0  0  0
 56 63  1  0  0  0  0
 57 63  1  0  0  0  0
 58 74  1  0  0  0  0
 59 60  1  0  0  0  0
 60 82  1  0  0  0  0
 61 63  1  0  0  0  0
 61 73  1  0  0  0  0
 62 74  1  0  0  0  0
 64 66  1  0  0  0  0
M  CHG  1  74   1
M  ISO  4  40 100  60 101  71 100  82 101
M  END
> <Batch ID>
0043

> <Smiles>
CNC(C)C(=O)NC(C(=O)N1Cc2cc([101O:1][101CH2:1]C=CNC(=O)c3cc([100NH:0][100C:0](=O)N4CCCC(n5nc(-c6ccc(Oc7ccc(F)cc7F)cc6)c(C(N)=O)c5N)C4)ccc3C)ccc2CC1C(=O)NC1CCCc2ccccc21)C(C)(C)C

> <Shape>
0.241

> <Color>
0.075

> <Negative vol penalty>
0.000

$$$$

  -OEChem-04042322153D

 87 96  0     1  0  0  0  0  0999 V2000
  -26.4883  -37.3421   22.8997 C   0  0  0  0  0  0  0  0  0  0  0  0
  -27.1176  -36.2403   22.3294 C   0  0  0  0  0  0  0  0  0  0  0  0
  -23.7483  -14.9344   21.3083 C   0  0  0  0  0  0  0  0  0  0  0  0
  -25.1754  -16.0644   19.7198 C   0  0  0  0  0  0  0  0  0  0  0  0
  -25.5373  -37.1585   23.9026 C   0  0  0  0  0  0  0  0  0  0  0  0
  -26.7971  -34.9541   22.7624 C   0  0  0  0  0  0  0  0  0  0  0  0
  -26.5938  -29.8673   19.3582 C   0  0  0  0  0  0  0  0  0  0  0  0
  -24.4360  -13.7429   21.0786 C   0  0  0  0  0  0  0  0  0  0  0  0
  -25.8632  -14.8729   19.4901 C   0  0  0  0  0  0  0  0  0  0  0  0
  -27.5057  -28.8304   19.1658 C   0  0  0  0  0  0  0  0  0  0  0  0
  -28.2592  -13.0468   21.0215 C   0  0  0  0  0  0  0  0  0  0  0  0
  -29.6525  -13.1014   20.9839 C   0  0  0  0  0  0  0  0  0  0  0  0
  -26.3728  -27.5292   20.8518 C   0  0  0  0  0  0  0  0  0  0  0  0
  -23.3588  -23.5509   14.7730 C   0  0  0  0  0  0  0  0  0  0  0  0
  -25.2037  -23.2178   16.2971 C   0  0  0  0  0  0  0  0  0  0  0  0
  -29.6239  -12.2675   18.7165 C   0  0  0  0  0  0  0  0  0  0  0  0
  -24.1179  -16.0952   20.6289 C   0  0  0  0  0  0  0  0  0  0  0  0
  -23.2771  -18.0111   22.0883 C   0  0  0  0  0  0  0  0  0  0  0  0
  -25.1979  -35.8690   24.3414 C   0  0  0  0  0  0  0  0  0  0  0  0
  -25.5694  -29.7471   20.3082 C   0  0  0  0  0  0  0  0  0  0  0  0
  -25.8416  -34.7532   23.7730 C   0  0  0  0  0  0  0  0  0  0  0  0
  -25.4476  -28.5650   21.0526 C   0  0  0  0  0  0  0  0  0  0  0  0
  -24.2162  -24.1845   13.8736 C   0  0  0  0  0  0  0  0  0  0  0  0
  -26.0611  -23.8514   15.3976 C   0  0  0  0  0  0  0  0  0  0  0  0
  -25.5674  -24.3348   14.1859 C   0  0  0  0  0  0  0  0  0  0  0  0
  -23.8525  -23.0675   15.9848 C   0  0  0  0  0  0  0  0  0  0  0  0
  -25.4935  -13.7121   20.1696 C   0  0  0  0  0  0  0  0  0  0  0  0
  -27.3970  -27.6623   19.9147 C   0  0  0  0  0  0  0  0  0  0  0  0
  -27.5483  -12.6025   19.9067 C   0  0  0  0  0  0  0  0  0  0  0  0
  -30.3348  -12.7118   19.8314 C   0  0  0  0  0  0  0  0  0  0  0  0
  -28.2306  -12.2129   18.7542 C   0  0  0  0  0  0  0  0  0  0  0  0
  -23.4075  -17.3263   20.8653 C   0  0  0  0  0  0  0  0  0  0  0  0
  -22.5161  -19.1136   21.7851 C   0  0  0  0  0  0  0  0  0  0  0  0
  -27.6526  -25.3750   17.7980 C   0  0  0  0  0  0  0  0  0  0  0  0
  -23.7974  -17.6804   23.3827 C   0  0  0  0  0  0  0  0  0  0  0  0
  -24.7730  -31.3112   22.9584 C   0  0  0  0  0  0  0  0  0  0  0  0
  -22.1723  -29.3753   22.8537 C   0  0  0  0  0  0  0  0  0  0  0  0
  -21.4986  -25.9076   22.1199 C   0  0  0  0  0  0  0  0  0  0  0  0
  -21.6157  -22.1909   16.7428 C   0  0  0  0  0  0  0  0  0  0  0  0
  -24.1982  -35.7228   25.4612 C   0  0  0  0  0  0  0  0  0  0  0  0
  -24.5777  -30.8641   20.4849 C   0  0  0  0  0  0  0  0  0  0  0  0
  -24.3536  -28.3782   22.0707 C   0  0  0  0  0  0  0  0  0  0  0  0
  -23.6430  -34.3078   25.6013 C   0  0  0  0  0  0  0  0  0  0  0  0
  -28.1350  -22.9594   19.3852 C   0  0  0  0  0  0  0  0  0  0  0  0
  -19.1324  -20.6064   18.7426 C   0  0  0  0  0  0  0  0  0  0  0  0
  -24.7718  -33.2834   25.5453 C   0  0  0  0  0  0  0  0  0  0  0  0
  -28.6419  -24.2982   19.8790 C   0  0  0  0  0  0  0  0  0  0  0  0
  -19.9356  -19.6521   19.6295 C   0  0  0  0  0  0  0  0  0  0  0  0
  -28.2042  -22.9148   17.8692 C   0  0  0  0  0  0  0  0  0  0  0  0
  -19.7177  -20.7001   17.3347 C   0  0  0  0  0  0  0  0  0  0  0  0
  -21.9512  -20.0737   18.1643 C   0  0  0  0  0  0  0  0  0  0  0  0
  -25.5028  -33.3410   24.1986 C   0  0  1  0  0  0  0  0  0  0  0  0
  -27.7617  -25.3974   19.3174 C   0  0  1  0  0  0  0  0  0  1  0  0
  -23.8839  -30.8379   21.8434 C   0  0  1  0  0  0  0  0  0  0  0  0
  -21.4379  -19.9961   19.6115 C   0  0  2  0  0  0  0  0  0  0  0  0
  -23.6625  -24.6938   12.5832 C   0  0  0  0  0  0  0  0  0  0  0  0
  -26.4868  -25.0138   13.2211 C   0  0  0  0  0  0  0  0  0  0  0  0
  -19.4229  -24.7974   21.2502 C   0  0  0  0  0  0  0  0  0  0  0  0
  -21.5396  -28.9020   25.8008 C   0  0  0  0  0  0  0  0  0  0  0  0
  -20.6355  -26.6531   25.1737 C   0  0  0  0  0  0  0  0  0  0  0  0
  -19.5712  -28.7198   24.2689 C   0  0  0  0  0  0  0  0  0  0  0  0
  -22.9600  -24.6901   19.8526 C   0  0  0  0  0  0  0  0  0  0  0  0
  -27.5110  -24.0002   15.7579 C   0  0  0  0  0  0  0  0  0  0  0  0
  -21.8349  -28.0078   23.3968 C   0  0  1  0  0  0  0  0  0  0  0  0
  -20.7906  -25.3589   20.8942 C   0  0  2  0  0  0  0  0  0  0  0  0
  -20.9220  -28.0779   24.6535 C   0  0  0  0  0  0  0  0  0  0  0  0
  -22.7795  -17.9420   19.8600 N   0  0  0  0  0  0  0  0  0  0  0  0
  -22.2471  -19.0253   20.4509 N   0  0  0  0  0  0  0  0  0  0  0  0
  -27.7060  -24.1160   17.1970 N   0  0  0  0  0  0  0  0  0  0  0  0
  -23.4122  -29.5014   22.2114 N   0  0  0  0  0  0  0  0  0  0  0  0
  -21.1425  -21.0333   17.3962 N   0  0  0  0  0  0  0  0  0  0  0  0
  -22.0574  -20.1401   22.5322 N   0  0  0  0  0  0  0  0  0  0  0  0
  -24.5591  -16.5117   23.5180 N   0  0  0  0  0  0  0  0  0  0  0  0
  -22.9820  -22.4228   16.8982 N   0  0  0  0  0  0  0  0  0  0  0  0
  -24.7274  -32.6754   23.1738 N   0  0  0  0  0  0  0  0  0  0  0  0
  -21.2637  -27.2563   22.2844 N   0  0  0  0  0  0  0  0  0  0  0  0
  -21.5982  -24.2712   20.2731 N   0  3  0  0  0  0  0  0  0  0  0  0
  -27.4616  -26.4256   17.1801 O   0  0  0  0  0  0  0  0  0  0  0  0
  -23.5792  -18.3913   24.3929 O   0  0  0  0  0  0  0  0  0  0  0  0
  -25.4491  -30.4987   23.5784 O   0  0  0  0  0  0  0  0  0  0  0  0
  -21.3623  -30.2959   22.9878 O   0  0  0  0  0  0  0  0  0  0  0  0
  -22.1878  -25.2088   22.8596 O   0  0  0  0  0  0  0  0  0  0  0  0
  -20.8594  -22.9372   16.1159 O   0  0  0  0  0  0  0  0  0  0  0  0
  -26.1650  -12.5496   19.9453 O   0  0  0  0  0  0  0  0  0  0  0  0
  -28.2862  -26.6489   19.7293 O   0  0  0  0  0  0  0  0  0  1  0  0
  -31.6727  -12.7658   19.7949 F   0  0  0  0  0  0  0  0  0  0  0  0
  -27.5530  -11.7863   17.6796 F   0  0  0  0  0  0  0  0  0  0  0  0
  1  2  1  0  0  0  0
  1  5  2  0  0  0  0
  2  6  2  0  0  0  0
  3  8  2  0  0  0  0
  3 17  1  0  0  0  0
  4  9  1  0  0  0  0
  4 17  2  0  0  0  0
  5 19  1  0  0  0  0
  6 21  1  0  0  0  0
  7 10  2  0  0  0  0
  7 20  1  0  0  0  0
  8 27  1  0  0  0  0
  9 27  2  0  0  0  0
 10 28  1  0  0  0  0
 11 12  2  0  0  0  0
 11 29  1  0  0  0  0
 12 30  1  0  0  0  0
 13 22  1  0  0  0  0
 13 28  2  0  0  0  0
 14 23  2  0  0  0  0
 14 26  1  0  0  0  0
 15 24  1  0  0  0  0
 15 26  2  0  0  0  0
 16 30  2  0  0  0  0
 16 31  1  0  0  0  0
 17 32  1  0  0  0  0
 18 32  1  0  0  0  0
 18 33  2  0  0  0  0
 18 35  1  0  0  0  0
 19 21  2  0  0  0  0
 19 40  1  0  0  0  0
 20 22  2  0  0  0  0
 20 41  1  0  0  0  0
 21 52  1  0  0  0  0
 22 42  1  0  0  0  0
 23 25  1  0  0  0  0
 23 56  1  0  0  0  0
 24 25  2  0  0  0  0
 24 63  1  0  0  0  0
 25 57  1  0  0  0  0
 26 74  1  0  0  0  0
 27 84  1  0  0  0  0
 28 85  1  0  0  0  0
 29 31  2  0  0  0  0
 29 84  1  0  0  0  0
 30 86  1  0  0  0  0
 31 87  1  0  0  0  0
 32 67  2  0  0  0  0
 33 68  1  0  0  0  0
 33 72  1  0  0  0  0
 34 53  1  0  0  0  0
 34 69  1  0  0  0  0
 34 78  2  0  0  0  0
 35 73  1  0  0  0  0
 35 79  2  0  0  0  0
 36 54  1  0  0  0  0
 36 75  1  0  0  0  0
 36 80  2  0  0  0  0
 37 64  1  0  0  0  0
 37 70  1  0  0  0  0
 37 81  2  0  0  0  0
 38 65  1  0  0  0  0
 38 76  1  0  0  0  0
 38 82  2  0  0  0  0
 39 71  1  0  0  0  0
 39 74  1  0  0  0  0
 39 83  2  0  0  0  0
 40 43  1  0  0  0  0
 41 54  1  0  0  0  0
 42 70  1  0  0  0  0
 43 46  1  0  0  0  0
 44 47  1  0  0  0  0
 44 49  1  0  0  0  0
 45 48  1  0  0  0  0
 45 50  1  0  0  0  0
 46 52  1  0  0  0  0
 47 53  1  0  0  0  0
 48 55  1  0  0  0  0
 49 69  1  0  0  0  0
 50 71  1  0  0  0  0
 51 55  1  0  0  0  0
 51 71  1  0  0  0  0
 52 75  1  0  0  0  0
 53 85  1  0  0  0  0
 54 70  1  0  0  0  0
 55 68  1  0  0  0  0
 58 65  1  0  0  0  0
 59 66  1  0  0  0  0
 60 66  1  0  0  0  0
 61 66  1  0  0  0  0
 62 77  1  0  0  0  0
 63 69  1  0  0  0  0
 64 66  1  0  0  0  0
 64 76  1  0  0  0  0
 65 77  1  0  0  0  0
 67 68  1  0  0  0  0
M  CHG  1  77   1
M  ISO  4  39 100  53 101  74 100  85 101
M  END
> <Batch ID>
0043

> <Smiles>
CNC(C)C(=O)NC(C(=O)N1Cc2cc([101O:1][101CH:1]3CCCN(Cc4cc([100NH:0][100C:0](=O)N5CCCC(n6nc(-c7ccc(Oc8ccc(F)cc8F)cc7)c(C(N)=O)c6N)C5)cc(C)c4C)C3=O)ccc2CC1C(=O)NC1CCCc2ccccc21)C(C)(C)C

> <Shape>
0.248

> <Color>
0.067

> <Negative vol penalty>
0.000

$$$$

  -OEChem-04042322153D

 85 93  0     1  0  0  0  0  0999 V2000
  -20.1276   -8.4580   19.1847 C   0  0  0  0  0  0  0  0  0  0  0  0
  -19.9246   -9.8262   19.3343 C   0  0  0  0  0  0  0  0  0  0  0  0
  -17.9580  -28.1765   22.3960 C   0  0  0  0  0  0  0  0  0  0  0  0
  -29.9721  -27.6957   21.3098 C   0  0  0  0  0  0  0  0  0  0  0  0
  -28.5136  -25.7953   21.6234 C   0  0  0  0  0  0  0  0  0  0  0  0
  -21.2538   -7.8562   19.7444 C   0  0  0  0  0  0  0  0  0  0  0  0
  -20.8474  -10.5931   20.0448 C   0  0  0  0  0  0  0  0  0  0  0  0
  -22.4807  -16.3831   18.8984 C   0  0  0  0  0  0  0  0  0  0  0  0
  -17.9229  -26.8929   22.9405 C   0  0  0  0  0  0  0  0  0  0  0  0
  -19.1827  -28.8048   22.1695 C   0  0  0  0  0  0  0  0  0  0  0  0
  -30.9747  -27.0450   22.0287 C   0  0  0  0  0  0  0  0  0  0  0  0
  -29.5163  -25.1445   22.3423 C   0  0  0  0  0  0  0  0  0  0  0  0
  -22.0814  -17.5979   19.4539 C   0  0  0  0  0  0  0  0  0  0  0  0
  -32.3476  -23.4270   21.6684 C   0  0  0  0  0  0  0  0  0  0  0  0
  -32.5868  -22.0847   21.3741 C   0  0  0  0  0  0  0  0  0  0  0  0
  -23.9893  -17.5434   20.9292 C   0  0  0  0  0  0  0  0  0  0  0  0
  -32.0564  -21.4903   23.6550 C   0  0  0  0  0  0  0  0  0  0  0  0
  -28.7415  -27.0709   21.1072 C   0  0  0  0  0  0  0  0  0  0  0  0
  -27.4805  -27.6859   18.9766 C   0  0  0  0  0  0  0  0  0  0  0  0
  -22.1958   -8.6178   20.4538 C   0  0  0  0  0  0  0  0  0  0  0  0
  -23.6333  -15.7328   19.3623 C   0  0  0  0  0  0  0  0  0  0  0  0
  -21.9866  -10.0007   20.6156 C   0  0  0  0  0  0  0  0  0  0  0  0
  -24.4025  -16.3217   20.3761 C   0  0  0  0  0  0  0  0  0  0  0  0
  -19.1124  -26.2375   23.2588 C   0  0  0  0  0  0  0  0  0  0  0  0
  -20.3370  -26.8658   23.0324 C   0  0  0  0  0  0  0  0  0  0  0  0
  -20.3721  -28.1495   22.4878 C   0  0  0  0  0  0  0  0  0  0  0  0
  -30.7468  -25.7694   22.5449 C   0  0  0  0  0  0  0  0  0  0  0  0
  -22.8341  -18.1768   20.4715 C   0  0  0  0  0  0  0  0  0  0  0  0
  -31.9629  -23.8010   22.9559 C   0  0  0  0  0  0  0  0  0  0  0  0
  -32.4412  -21.1163   22.3674 C   0  0  0  0  0  0  0  0  0  0  0  0
  -31.8173  -22.8326   23.9492 C   0  0  0  0  0  0  0  0  0  0  0  0
  -27.7052  -27.7429   20.3651 C   0  0  0  0  0  0  0  0  0  0  0  0
  -26.3864  -28.4907   18.7724 C   0  0  0  0  0  0  0  0  0  0  0  0
  -20.2153  -21.7693   22.0380 C   0  0  0  0  0  0  0  0  0  0  0  0
  -20.7535  -20.5508   22.1836 C   0  0  0  0  0  0  0  0  0  0  0  0
  -28.1967  -26.9694   17.9620 C   0  0  0  0  0  0  0  0  0  0  0  0
  -19.9547  -22.6238   23.2291 C   0  0  0  0  0  0  0  0  0  0  0  0
  -24.2246  -12.9375   20.7551 C   0  0  0  0  0  0  0  0  0  0  0  0
  -27.3160  -13.8439   20.3756 C   0  0  0  0  0  0  0  0  0  0  0  0
  -29.5639  -16.3817   19.9842 C   0  0  0  0  0  0  0  0  0  0  0  0
  -21.8498  -30.1787   22.2759 C   0  0  0  0  0  0  0  0  0  0  0  0
  -23.3735   -7.9149   21.0812 C   0  0  0  0  0  0  0  0  0  0  0  0
  -24.0652  -14.4362   18.7342 C   0  0  0  0  0  0  0  0  0  0  0  0
  -25.6591  -15.6741   20.8956 C   0  0  0  0  0  0  0  0  0  0  0  0
  -24.4958   -8.8614   21.4993 C   0  0  0  0  0  0  0  0  0  0  0  0
  -24.1560  -32.3133   20.6020 C   0  0  0  0  0  0  0  0  0  0  0  0
  -23.9292  -10.0629   22.2490 C   0  0  0  0  0  0  0  0  0  0  0  0
  -25.3047  -31.3771   20.2196 C   0  0  0  0  0  0  0  0  0  0  0  0
  -23.5602  -31.9538   21.9620 C   0  0  0  0  0  0  0  0  0  0  0  0
  -24.2985  -29.6153   21.7265 C   0  0  0  0  0  0  0  0  0  0  0  0
  -22.9776  -10.8706   21.3581 C   0  0  1  0  0  0  0  0  0  0  0  0
  -24.9731  -13.6077   19.6379 C   0  0  1  0  0  0  0  0  0  0  0  0
  -24.8881  -29.8977   20.3350 C   0  0  2  0  0  0  0  0  0  0  0  0
  -21.6106  -26.1585   23.3754 C   0  0  0  0  0  0  0  0  0  0  0  0
  -32.0237  -16.8143   19.7395 C   0  0  0  0  0  0  0  0  0  0  0  0
  -27.6985  -13.3433   23.3611 C   0  0  0  0  0  0  0  0  0  0  0  0
  -29.8216  -14.6647   23.2398 C   0  0  0  0  0  0  0  0  0  0  0  0
  -29.5875  -12.5599   21.9216 C   0  0  0  0  0  0  0  0  0  0  0  0
  -29.2004  -17.6114   17.3168 C   0  0  0  0  0  0  0  0  0  0  0  0
  -19.0459  -24.8564   23.8438 C   0  0  0  0  0  0  0  0  0  0  0  0
  -21.0471  -19.6417   21.0338 C   0  0  0  0  0  0  0  0  0  1  0  0
  -28.3116  -14.6208   21.2029 C   0  0  1  0  0  0  0  0  0  0  0  0
  -30.7125  -16.5685   19.0093 C   0  0  2  0  0  0  0  0  0  0  0  0
  -28.8301  -13.8087   22.4231 C   0  0  0  0  0  0  0  0  0  0  0  0
  -26.8247  -28.5225   20.9983 N   0  0  0  0  0  0  0  0  0  0  0  0
  -26.0361  -28.9628   20.0031 N   0  0  0  0  0  0  0  0  0  0  0  0
  -26.0365  -14.4040   20.2537 N   0  0  0  0  0  0  0  0  0  0  0  0
  -23.1851  -30.5386   21.9961 N   0  0  0  0  0  0  0  0  0  0  0  0
  -25.6995  -28.8337   17.6620 N   0  0  0  0  0  0  0  0  0  0  0  0
  -29.2965  -26.1895   18.3449 N   0  0  0  0  0  0  0  0  0  0  0  0
  -21.6048  -28.8062   22.2489 N   0  0  0  0  0  0  0  0  0  0  0  0
  -19.3982  -23.8415   22.8762 N   0  0  0  0  0  0  0  0  0  0  0  0
  -23.7273  -11.6899   20.4302 N   0  0  0  0  0  0  0  0  0  0  0  0
  -29.3589  -15.0513   20.2830 N   0  0  0  0  0  0  0  0  0  0  0  0
  -30.4483  -17.7302   18.1140 N   0  3  0  0  0  0  0  0  0  0  0  0
  -27.8811  -27.0322   16.7496 O   0  0  0  0  0  0  0  0  0  0  0  0
  -20.2132  -22.2587   24.3713 O   0  0  0  0  0  0  0  0  0  0  0  0
  -24.1083  -13.5093   21.8327 O   0  0  0  0  0  0  0  0  0  0  0  0
  -27.6631  -12.7828   19.8509 O   0  0  0  0  0  0  0  0  0  0  0  0
  -28.9160  -17.3222   20.4382 O   0  0  0  0  0  0  0  0  0  0  0  0
  -20.9813  -31.0272   22.4947 O   0  0  0  0  0  0  0  0  0  0  0  0
  -31.7250  -25.1340   23.2463 O   0  0  0  0  0  0  0  0  0  0  0  0
  -22.4463  -19.3621   21.0160 O   0  0  0  0  0  0  0  0  0  1  0  0
  -32.6694  -19.8272   22.0843 F   0  0  0  0  0  0  0  0  0  0  0  0
  -31.4467  -23.1857   25.1877 F   0  0  0  0  0  0  0  0  0  0  0  0
  1  2  1  0  0  0  0
  1  6  2  0  0  0  0
  2  7  2  0  0  0  0
  3  9  2  0  0  0  0
  3 10  1  0  0  0  0
  4 11  2  0  0  0  0
  4 18  1  0  0  0  0
  5 12  1  0  0  0  0
  5 18  2  0  0  0  0
  6 20  1  0  0  0  0
  7 22  1  0  0  0  0
  8 13  2  0  0  0  0
  8 21  1  0  0  0  0
  9 24  1  0  0  0  0
 10 26  2  0  0  0  0
 11 27  1  0  0  0  0
 12 27  2  0  0  0  0
 13 28  1  0  0  0  0
 14 15  2  0  0  0  0
 14 29  1  0  0  0  0
 15 30  1  0  0  0  0
 16 23  1  0  0  0  0
 16 28  2  0  0  0  0
 17 30  2  0  0  0  0
 17 31  1  0  0  0  0
 18 32  1  0  0  0  0
 19 32  1  0  0  0  0
 19 33  2  0  0  0  0
 19 36  1  0  0  0  0
 20 22  2  0  0  0  0
 20 42  1  0  0  0  0
 21 23  2  0  0  0  0
 21 43  1  0  0  0  0
 22 51  1  0  0  0  0
 23 44  1  0  0  0  0
 24 25  2  0  0  0  0
 24 60  1  0  0  0  0
 25 26  1  0  0  0  0
 25 54  1  0  0  0  0
 26 71  1  0  0  0  0
 27 82  1  0  0  0  0
 28 83  1  0  0  0  0
 29 31  2  0  0  0  0
 29 82  1  0  0  0  0
 30 84  1  0  0  0  0
 31 85  1  0  0  0  0
 32 65  2  0  0  0  0
 33 66  1  0  0  0  0
 33 69  1  0  0  0  0
 34 35  2  0  0  0  0
 34 37  1  0  0  0  0
 35 61  1  0  0  0  0
 36 70  1  0  0  0  0
 36 76  2  0  0  0  0
 37 72  1  0  0  0  0
 37 77  2  0  0  0  0
 38 52  1  0  0  0  0
 38 73  1  0  0  0  0
 38 78  2  0  0  0  0
 39 62  1  0  0  0  0
 39 67  1  0  0  0  0
 39 79  2  0  0  0  0
 40 63  1  0  0  0  0
 40 74  1  0  0  0  0
 40 80  2  0  0  0  0
 41 68  1  0  0  0  0
 41 71  1  0  0  0  0
 41 81  2  0  0  0  0
 42 45  1  0  0  0  0
 43 52  1  0  0  0  0
 44 67  1  0  0  0  0
 45 47  1  0  0  0  0
 46 48  1  0  0  0  0
 46 49  1  0  0  0  0
 47 51  1  0  0  0  0
 48 53  1  0  0  0  0
 49 68  1  0  0  0  0
 50 53  1  0  0  0  0
 50 68  1  0  0  0  0
 51 73  1  0  0  0  0
 52 67  1  0  0  0  0
 53 66  1  0  0  0  0
 55 63  1  0  0  0  0
 56 64  1  0  0  0  0
 57 64  1  0  0  0  0
 58 64  1  0  0  0  0
 59 75  1  0  0  0  0
 60 72  1  0  0  0  0
 61 83  1  0  0  0  0
 62 64  1  0  0  0  0
 62 74  1  0  0  0  0
 63 75  1  0  0  0  0
 65 66  1  0  0  0  0
M  CHG  1  75   1
M  ISO  4  41 100  61 101  71 100  83 101
M  END
> <Batch ID>
0043

> <Smiles>
CNC(C)C(=O)NC(C(=O)N1Cc2cc([101O:1][101CH2:1]C=CC(=O)NCc3cccc([100NH:0][100C:0](=O)N4CCCC(n5nc(-c6ccc(Oc7ccc(F)cc7F)cc6)c(C(N)=O)c5N)C4)c3C)ccc2CC1C(=O)NC1CCCc2ccccc21)C(C)(C)C

> <Shape>
0.253

> <Color>
0.068

> <Negative vol penalty>
0.000

$$$$

  -OEChem-04042322153D

 84 92  0     1  0  0  0  0  0999 V2000
  -30.2050  -18.6457   17.1299 C   0  0  0  0  0  0  0  0  0  0  0  0
  -30.2658  -17.6962   18.1436 C   0  0  0  0  0  0  0  0  0  0  0  0
  -24.0755  -28.7437   19.5933 C   0  0  0  0  0  0  0  0  0  0  0  0
  -24.2223  -28.0315   21.8973 C   0  0  0  0  0  0  0  0  0  0  0  0
  -28.1340  -20.3728   25.0330 C   0  0  0  0  0  0  0  0  0  0  0  0
  -28.9812  -18.9501   16.5376 C   0  0  0  0  0  0  0  0  0  0  0  0
  -29.1048  -17.0421   18.5571 C   0  0  0  0  0  0  0  0  0  0  0  0
  -29.6396  -13.3614   21.7774 C   0  0  0  0  0  0  0  0  0  0  0  0
  -28.3102  -21.3329   24.0366 C   0  0  0  0  0  0  0  0  0  0  0  0
  -22.7622  -29.1626   19.8065 C   0  0  0  0  0  0  0  0  0  0  0  0
  -22.9090  -28.4504   22.1105 C   0  0  0  0  0  0  0  0  0  0  0  0
  -29.9726  -13.5723   23.1147 C   0  0  0  0  0  0  0  0  0  0  0  0
  -19.7933  -27.2970   21.4836 C   0  0  0  0  0  0  0  0  0  0  0  0
  -18.9463  -26.4412   22.1876 C   0  0  0  0  0  0  0  0  0  0  0  0
  -27.6794  -13.1666   23.7436 C   0  0  0  0  0  0  0  0  0  0  0  0
  -28.4833  -19.5825   22.3804 C   0  0  0  0  0  0  0  0  0  0  0  0
  -18.6265  -28.1433   23.8721 C   0  0  0  0  0  0  0  0  0  0  0  0
  -24.8055  -28.1781   20.6388 C   0  0  0  0  0  0  0  0  0  0  0  0
  -28.1325  -19.0175   24.7031 C   0  0  0  0  0  0  0  0  0  0  0  0
  -27.3346  -28.5068   20.5801 C   0  0  0  0  0  0  0  0  0  0  0  0
  -27.8031  -18.3079   16.9533 C   0  0  0  0  0  0  0  0  0  0  0  0
  -28.3195  -13.0617   21.4114 C   0  0  0  0  0  0  0  0  0  0  0  0
  -27.8637  -17.3180   17.9553 C   0  0  0  0  0  0  0  0  0  0  0  0
  -27.3327  -12.9498   22.4012 C   0  0  0  0  0  0  0  0  0  0  0  0
  -28.3071  -18.6223   23.3768 C   0  0  0  0  0  0  0  0  0  0  0  0
  -28.4849  -20.9378   22.7104 C   0  0  0  0  0  0  0  0  0  0  0  0
  -22.1790  -29.0160   21.0650 C   0  0  0  0  0  0  0  0  0  0  0  0
  -28.9919  -13.4778   24.0977 C   0  0  0  0  0  0  0  0  0  0  0  0
  -20.0570  -28.5760   21.9739 C   0  0  0  0  0  0  0  0  0  0  0  0
  -18.3628  -26.8643   23.3818 C   0  0  0  0  0  0  0  0  0  0  0  0
  -19.4736  -28.9991   23.1681 C   0  0  0  0  0  0  0  0  0  0  0  0
  -26.1620  -27.7447   20.4191 C   0  0  0  0  0  0  0  0  0  0  0  0
  -28.3521  -27.6454   20.2499 C   0  0  0  0  0  0  0  0  0  0  0  0
  -27.9435  -18.0176   25.7731 C   0  0  0  0  0  0  0  0  0  0  0  0
  -27.4902  -29.8715   20.9916 C   0  0  0  0  0  0  0  0  0  0  0  0
  -26.1193  -14.4695   19.6001 C   0  0  0  0  0  0  0  0  0  0  0  0
  -24.4555  -11.7473   20.1866 C   0  0  0  0  0  0  0  0  0  0  0  0
  -23.9303   -9.0527   22.2140 C   0  0  0  0  0  0  0  0  0  0  0  0
  -28.8488  -21.6913   20.3342 C   0  0  0  0  0  0  0  0  0  0  0  0
  -26.5067  -18.6700   16.2727 C   0  0  0  0  0  0  0  0  0  0  0  0
  -27.9818  -12.8106   19.9673 C   0  0  0  0  0  0  0  0  0  0  0  0
  -25.9048  -12.6105   22.0627 C   0  0  0  0  0  0  0  0  0  0  0  0
  -25.2778  -18.2548   17.0749 C   0  0  0  0  0  0  0  0  0  0  0  0
  -29.2855  -23.8248   17.5174 C   0  0  0  0  0  0  0  0  0  0  0  0
  -25.4066  -16.8023   17.5087 C   0  0  0  0  0  0  0  0  0  0  0  0
  -28.6462  -25.1434   17.9588 C   0  0  0  0  0  0  0  0  0  0  0  0
  -28.5190  -22.6162   18.0515 C   0  0  0  0  0  0  0  0  0  0  0  0
  -27.6531  -23.9348   19.9437 C   0  0  0  0  0  0  0  0  0  0  0  0
  -26.6092  -16.6159   18.4426 C   0  0  1  0  0  0  0  0  0  0  0  0
  -26.5031  -13.0178   19.6547 C   0  0  1  0  0  0  0  0  0  0  0  0
  -28.4274  -25.1809   19.4840 C   0  0  2  0  0  0  0  0  0  0  0  0
  -28.3065  -17.1774   22.9984 C   0  0  0  0  0  0  0  0  0  0  0  0
  -22.4767   -7.0212   22.4533 C   0  0  0  0  0  0  0  0  0  0  0  0
  -22.1583  -13.5079   21.1524 C   0  0  0  0  0  0  0  0  0  0  0  0
  -21.1567  -11.4858   22.2368 C   0  0  0  0  0  0  0  0  0  0  0  0
  -21.4591  -11.5505   19.7616 C   0  0  0  0  0  0  0  0  0  0  0  0
  -26.2534   -7.2272   22.0408 C   0  0  0  0  0  0  0  0  0  0  0  0
  -30.1285  -15.2721   27.0076 C   0  0  0  0  0  0  0  0  0  0  0  0
  -28.8400  -16.0776   27.0098 C   0  0  0  0  0  0  0  0  0  0  0  0
  -30.3881  -14.5840   25.6734 C   0  0  0  0  0  0  0  0  0  1  0  0
  -23.4856  -11.2956   21.2516 C   0  0  1  0  0  0  0  0  0  0  0  0
  -23.7835   -7.5736   21.9056 C   0  0  2  0  0  0  0  0  0  0  0  0
  -22.0913  -11.9683   21.1071 C   0  0  0  0  0  0  0  0  0  0  0  0
  -26.4102  -26.4952   20.0176 N   0  0  0  0  0  0  0  0  0  0  0  0
  -27.7505  -26.4657   19.9235 N   0  0  0  0  0  0  0  0  0  0  0  0
  -25.6231  -12.3801   20.6362 N   0  0  0  0  0  0  0  0  0  0  0  0
  -28.3535  -22.7183   19.5030 N   0  0  0  0  0  0  0  0  0  0  0  0
  -29.6937  -27.7895   20.2097 N   0  0  0  0  0  0  0  0  0  0  0  0
  -26.8146  -18.0605   26.4807 N   0  0  0  0  0  0  0  0  0  0  0  0
  -26.3402  -30.6136   21.2934 N   0  0  0  0  0  0  0  0  0  0  0  0
  -28.6627  -21.9134   21.6982 N   0  0  0  0  0  0  0  0  0  0  0  0
  -26.8215  -15.2022   18.6623 N   0  0  0  0  0  0  0  0  0  0  0  0
  -23.4558   -9.8385   21.1851 N   0  0  0  0  0  0  0  0  0  0  0  0
  -28.9133  -17.1181   25.9838 N   0  3  0  0  0  0  0  0  0  0  0  0
  -24.9084   -6.8045   22.5090 N   0  3  0  0  0  0  0  0  0  0  0  0
  -28.6146  -30.4215   21.0728 O   0  0  0  0  0  0  0  0  0  0  0  0
  -25.2493  -14.8931   20.3520 O   0  0  0  0  0  0  0  0  0  0  0  0
  -24.1905  -11.5397   18.9999 O   0  0  0  0  0  0  0  0  0  0  0  0
  -24.4139   -9.4694   23.2642 O   0  0  0  0  0  0  0  0  0  0  0  0
  -29.4218  -20.7015   19.8715 O   0  0  0  0  0  0  0  0  0  0  0  0
  -20.8976  -29.4248   21.2734 O   0  0  0  0  0  0  0  0  0  0  0  0
  -29.3142  -13.6839   25.4037 O   0  0  0  0  0  0  0  0  0  1  0  0
  -17.5482  -26.0429   24.0569 F   0  0  0  0  0  0  0  0  0  0  0  0
  -19.7222  -30.2271   23.6436 F   0  0  0  0  0  0  0  0  0  0  0  0
  1  2  1  0  0  0  0
  1  6  2  0  0  0  0
  2  7  2  0  0  0  0
  3 10  2  0  0  0  0
  3 18  1  0  0  0  0
  4 11  1  0  0  0  0
  4 18  2  0  0  0  0
  5  9  2  0  0  0  0
  5 19  1  0  0  0  0
  6 21  1  0  0  0  0
  7 23  1  0  0  0  0
  8 12  2  0  0  0  0
  8 22  1  0  0  0  0
  9 26  1  0  0  0  0
 10 27  1  0  0  0  0
 11 27  2  0  0  0  0
 12 28  1  0  0  0  0
 13 14  2  0  0  0  0
 13 29  1  0  0  0  0
 14 30  1  0  0  0  0
 15 24  1  0  0  0  0
 15 28  2  0  0  0  0
 16 25  1  0  0  0  0
 16 26  2  0  0  0  0
 17 30  2  0  0  0  0
 17 31  1  0  0  0  0
 18 32  1  0  0  0  0
 19 25  2  0  0  0  0
 19 34  1  0  0  0  0
 20 32  1  0  0  0  0
 20 33  2  0  0  0  0
 20 35  1  0  0  0  0
 21 23  2  0  0  0  0
 21 40  1  0  0  0  0
 22 24  2  0  0  0  0
 22 41  1  0  0  0  0
 23 49  1  0  0  0  0
 24 42  1  0  0  0  0
 25 52  1  0  0  0  0
 26 71  1  0  0  0  0
 27 81  1  0  0  0  0
 28 82  1  0  0  0  0
 29 31  2  0  0  0  0
 29 81  1  0  0  0  0
 30 83  1  0  0  0  0
 31 84  1  0  0  0  0
 32 64  2  0  0  0  0
 33 65  1  0  0  0  0
 33 68  1  0  0  0  0
 34 69  1  0  0  0  0
 34 74  2  0  0  0  0
 35 70  1  0  0  0  0
 35 76  2  0  0  0  0
 36 50  1  0  0  0  0
 36 72  1  0  0  0  0
 36 77  2  0  0  0  0
 37 61  1  0  0  0  0
 37 66  1  0  0  0  0
 37 78  2  0  0  0  0
 38 62  1  0  0  0  0
 38 73  1  0  0  0  0
 38 79  2  0  0  0  0
 39 67  1  0  0  0  0
 39 71  1  0  0  0  0
 39 80  2  0  0  0  0
 40 43  1  0  0  0  0
 41 50  1  0  0  0  0
 42 66  1  0  0  0  0
 43 45  1  0  0  0  0
 44 46  1  0  0  0  0
 44 47  1  0  0  0  0
 45 49  1  0  0  0  0
 46 51  1  0  0  0  0
 47 67  1  0  0  0  0
 48 51  1  0  0  0  0
 48 67  1  0  0  0  0
 49 72  1  0  0  0  0
 50 66  1  0  0  0  0
 51 65  1  0  0  0  0
 53 62  1  0  0  0  0
 54 63  1  0  0  0  0
 55 63  1  0  0  0  0
 56 63  1  0  0  0  0
 57 75  1  0  0  0  0
 58 59  1  0  0  0  0
 58 60  1  0  0  0  0
 59 74  1  0  0  0  0
 60 82  1  0  0  0  0
 61 63  1  0  0  0  0
 61 73  1  0  0  0  0
 62 75  1  0  0  0  0
 64 65  1  0  0  0  0
M  CHG  2  74   1  75   1
M  ISO  4  39 100  60 101  71 100  82 101
M  END
> <Batch ID>
0043

> <Smiles>
CNC(C)C(=O)NC(C(=O)N1Cc2cc([101O:1][101CH2:1]CCNC(=N)c3ccc([100NH:0][100C:0](=O)N4CCCC(n5nc(-c6ccc(Oc7ccc(F)cc7F)cc6)c(C(N)=O)c5N)C4)cc3C)ccc2CC1C(=O)NC1CCCc2ccccc21)C(C)(C)C

> <Shape>
0.285

> <Color>
0.057

> <Negative vol penalty>
0.000

$$$$

  -OEChem-04042322153D

 86 95  0     1  0  0  0  0  0999 V2000
  -16.5633  -29.4958   24.0742 C   0  0  0  0  0  0  0  0  0  0  0  0
  -16.9582  -28.6760   23.0218 C   0  0  0  0  0  0  0  0  0  0  0  0
  -27.1889  -12.9975   20.3367 C   0  0  0  0  0  0  0  0  0  0  0  0
  -27.5165  -13.6055   22.6519 C   0  0  0  0  0  0  0  0  0  0  0  0
  -17.3960  -30.5289   24.5019 C   0  0  0  0  0  0  0  0  0  0  0  0
  -18.1857  -28.8897   22.3957 C   0  0  0  0  0  0  0  0  0  0  0  0
  -23.4968  -25.3340   19.1608 C   0  0  0  0  0  0  0  0  0  0  0  0
  -30.5685  -22.7453   17.0111 C   0  0  0  0  0  0  0  0  0  0  0  0
  -31.0560  -21.8256   17.9395 C   0  0  0  0  0  0  0  0  0  0  0  0
  -25.8748  -12.6257   20.6203 C   0  0  0  0  0  0  0  0  0  0  0  0
  -26.2023  -13.2337   22.9355 C   0  0  0  0  0  0  0  0  0  0  0  0
  -24.2307  -25.3387   17.9755 C   0  0  0  0  0  0  0  0  0  0  0  0
  -24.2763   -9.9890   22.0048 C   0  0  0  0  0  0  0  0  0  0  0  0
  -23.8162   -8.7832   21.4756 C   0  0  0  0  0  0  0  0  0  0  0  0
  -25.6220  -27.1042   18.8511 C   0  0  0  0  0  0  0  0  0  0  0  0
  -30.2719  -20.0096   16.5524 C   0  0  0  0  0  0  0  0  0  0  0  0
  -22.0849   -9.9693   20.2786 C   0  0  0  0  0  0  0  0  0  0  0  0
  -28.0098  -13.4874   21.3525 C   0  0  0  0  0  0  0  0  0  0  0  0
  -30.3904  -13.0522   20.5458 C   0  0  0  0  0  0  0  0  0  0  0  0
  -18.6386  -30.7494   23.8871 C   0  0  0  0  0  0  0  0  0  0  0  0
  -23.8136  -26.2232   20.1977 C   0  0  0  0  0  0  0  0  0  0  0  0
  -19.0352  -29.9277   22.8147 C   0  0  0  0  0  0  0  0  0  0  0  0
  -24.8922  -27.1069   20.0496 C   0  0  0  0  0  0  0  0  0  0  0  0
  -29.9326  -22.2972   15.8533 C   0  0  0  0  0  0  0  0  0  0  0  0
  -29.7843  -20.9293   15.6239 C   0  0  0  0  0  0  0  0  0  0  0  0
  -30.9078  -20.4578   17.7102 C   0  0  0  0  0  0  0  0  0  0  0  0
  -25.3815  -12.7438   21.9196 C   0  0  0  0  0  0  0  0  0  0  0  0
  -25.2917  -26.2259   17.8193 C   0  0  0  0  0  0  0  0  0  0  0  0
  -23.6407  -11.1849   21.6710 C   0  0  0  0  0  0  0  0  0  0  0  0
  -22.7205   -8.7734   20.6124 C   0  0  0  0  0  0  0  0  0  0  0  0
  -22.5450  -11.1751   20.8078 C   0  0  0  0  0  0  0  0  0  0  0  0
  -29.3675  -13.8711   21.0604 C   0  0  0  0  0  0  0  0  0  0  0  0
  -31.4800  -13.8829   20.4501 C   0  0  0  0  0  0  0  0  0  0  0  0
  -27.7071  -24.6722   16.0037 C   0  0  0  0  0  0  0  0  0  0  0  0
  -30.3585  -11.6645   20.1864 C   0  0  0  0  0  0  0  0  0  0  0  0
  -22.2832  -28.5879   21.6709 C   0  0  0  0  0  0  0  0  0  0  0  0
  -24.9032  -28.5702   23.5833 C   0  0  0  0  0  0  0  0  0  0  0  0
  -28.4722  -28.2561   23.1576 C   0  0  0  0  0  0  0  0  0  0  0  0
  -32.0619  -19.7996   19.8505 C   0  0  0  0  0  0  0  0  0  0  0  0
  -19.4837  -31.9084   24.3531 C   0  0  0  0  0  0  0  0  0  0  0  0
  -23.0290  -26.1871   21.4805 C   0  0  0  0  0  0  0  0  0  0  0  0
  -25.2857  -28.0678   21.1406 C   0  0  0  0  0  0  0  0  0  0  0  0
  -20.9340  -31.8328   23.8826 C   0  0  0  0  0  0  0  0  0  0  0  0
  -29.6472  -26.8496   16.2899 C   0  0  0  0  0  0  0  0  0  0  0  0
  -33.4046  -17.7813   22.4584 C   0  0  0  0  0  0  0  0  0  0  0  0
  -20.9963  -31.4855   22.3986 C   0  0  0  0  0  0  0  0  0  0  0  0
  -28.1656  -27.1610   16.2577 C   0  0  0  0  0  0  0  0  0  0  0  0
  -32.6190  -16.4728   22.3451 C   0  0  0  0  0  0  0  0  0  0  0  0
  -29.9403  -25.6673   15.3836 C   0  0  0  0  0  0  0  0  0  0  0  0
  -32.5295  -18.9962   22.1551 C   0  0  0  0  0  0  0  0  0  0  0  0
  -31.0238  -17.6305   20.7633 C   0  0  0  0  0  0  0  0  0  0  0  0
  -20.3703  -30.1124   22.1265 C   0  0  1  0  0  0  0  0  0  0  0  0
  -27.3965  -25.9561   16.7627 C   0  0  1  0  0  0  0  0  0  1  0  0
  -23.1150  -27.4895   22.2704 C   0  0  1  0  0  0  0  0  0  0  0  0
  -31.8793  -16.3745   20.9965 C   0  0  2  0  0  0  0  0  0  0  0  0
  -29.1089  -20.4263   14.3905 C   0  0  0  0  0  0  0  0  0  0  0  0
  -30.2343  -27.4072   24.7297 C   0  0  0  0  0  0  0  0  0  0  0  0
  -25.2261  -31.5068   24.3463 C   0  0  0  0  0  0  0  0  0  0  0  0
  -27.6954  -31.1232   24.5002 C   0  0  0  0  0  0  0  0  0  0  0  0
  -26.1463  -29.8879   26.0158 C   0  0  0  0  0  0  0  0  0  0  0  0
  -29.4356  -26.2676   21.1886 C   0  0  0  0  0  0  0  0  0  0  0  0
  -29.4154  -23.3061   14.8690 C   0  0  0  0  0  0  0  0  0  0  0  0
  -26.2433  -29.2652   23.5673 C   0  0  1  0  0  0  0  0  0  0  0  0
  -29.3335  -27.0698   23.5518 C   0  0  2  0  0  0  0  0  0  0  0  0
  -26.3137  -30.4400   24.5833 C   0  0  0  0  0  0  0  0  0  0  0  0
  -29.7712  -15.1258   21.2766 N   0  0  0  0  0  0  0  0  0  0  0  0
  -31.0599  -15.1015   20.8961 N   0  0  0  0  0  0  0  0  0  0  0  0
  -29.0105  -24.5449   15.5200 N   0  0  0  0  0  0  0  0  0  0  0  0
  -24.4841  -27.9986   22.3736 N   0  0  0  0  0  0  0  0  0  0  0  0
  -31.8639  -18.8345   20.8606 N   0  0  0  0  0  0  0  0  0  0  0  0
  -32.7468  -13.6827   20.0289 N   0  0  0  0  0  0  0  0  0  0  0  0
  -29.1577  -10.9600   20.3478 N   0  0  0  0  0  0  0  0  0  0  0  0
  -31.4047  -19.5231   18.6521 N   0  0  0  0  0  0  0  0  0  0  0  0
  -21.2850  -29.0562   22.5038 N   0  0  0  0  0  0  0  0  0  0  0  0
  -27.2444  -28.2265   23.7845 N   0  0  0  0  0  0  0  0  0  0  0  0
  -30.1923  -26.6505   22.4083 N   0  3  0  0  0  0  0  0  0  0  0  0
  -26.8467  -23.7937   15.9041 O   0  0  0  0  0  0  0  0  0  0  0  0
  -31.3695  -11.0630   19.7509 O   0  0  0  0  0  0  0  0  0  0  0  0
  -22.5298  -28.9823   20.5371 O   0  0  0  0  0  0  0  0  0  0  0  0
  -24.2556  -28.5295   24.6324 O   0  0  0  0  0  0  0  0  0  0  0  0
  -28.8520  -29.1242   22.3748 O   0  0  0  0  0  0  0  0  0  0  0  0
  -32.7848  -20.7838   20.0261 O   0  0  0  0  0  0  0  0  0  0  0  0
  -24.0991  -12.3812   22.1966 O   0  0  0  0  0  0  0  0  0  0  0  0
  -26.0093  -26.2331   16.6631 O   0  0  0  0  0  0  0  0  0  1  0  0
  -22.2797   -7.6156   20.1031 F   0  0  0  0  0  0  0  0  0  0  0  0
  -21.9310  -12.3209   20.4825 F   0  0  0  0  0  0  0  0  0  0  0  0
  1  2  1  0  0  0  0
  1  5  2  0  0  0  0
  2  6  2  0  0  0  0
  3 10  2  0  0  0  0
  3 18  1  0  0  0  0
  4 11  1  0  0  0  0
  4 18  2  0  0  0  0
  5 20  1  0  0  0  0
  6 22  1  0  0  0  0
  7 12  2  0  0  0  0
  7 21  1  0  0  0  0
  8  9  2  0  0  0  0
  8 24  1  0  0  0  0
  9 26  1  0  0  0  0
 10 27  1  0  0  0  0
 11 27  2  0  0  0  0
 12 28  1  0  0  0  0
 13 14  2  0  0  0  0
 13 29  1  0  0  0  0
 14 30  1  0  0  0  0
 15 23  1  0  0  0  0
 15 28  2  0  0  0  0
 16 25  1  0  0  0  0
 16 26  2  0  0  0  0
 17 30  2  0  0  0  0
 17 31  1  0  0  0  0
 18 32  1  0  0  0  0
 19 32  1  0  0  0  0
 19 33  2  0  0  0  0
 19 35  1  0  0  0  0
 20 22  2  0  0  0  0
 20 40  1  0  0  0  0
 21 23  2  0  0  0  0
 21 41  1  0  0  0  0
 22 52  1  0  0  0  0
 23 42  1  0  0  0  0
 24 25  2  0  0  0  0
 24 62  1  0  0  0  0
 25 56  1  0  0  0  0
 26 73  1  0  0  0  0
 27 83  1  0  0  0  0
 28 84  1  0  0  0  0
 29 31  2  0  0  0  0
 29 83  1  0  0  0  0
 30 85  1  0  0  0  0
 31 86  1  0  0  0  0
 32 66  2  0  0  0  0
 33 67  1  0  0  0  0
 33 71  1  0  0  0  0
 34 53  1  0  0  0  0
 34 68  1  0  0  0  0
 34 77  2  0  0  0  0
 35 72  1  0  0  0  0
 35 78  2  0  0  0  0
 36 54  1  0  0  0  0
 36 74  1  0  0  0  0
 36 79  2  0  0  0  0
 37 63  1  0  0  0  0
 37 69  1  0  0  0  0
 37 80  2  0  0  0  0
 38 64  1  0  0  0  0
 38 75  1  0  0  0  0
 38 81  2  0  0  0  0
 39 70  1  0  0  0  0
 39 73  1  0  0  0  0
 39 82  2  0  0  0  0
 40 43  1  0  0  0  0
 41 54  1  0  0  0  0
 42 69  1  0  0  0  0
 43 46  1  0  0  0  0
 44 47  1  0  0  0  0
 44 49  1  0  0  0  0
 45 48  1  0  0  0  0
 45 50  1  0  0  0  0
 46 52  1  0  0  0  0
 47 53  1  0  0  0  0
 48 55  1  0  0  0  0
 49 68  1  0  0  0  0
 50 70  1  0  0  0  0
 51 55  1  0  0  0  0
 51 70  1  0  0  0  0
 52 74  1  0  0  0  0
 53 84  1  0  0  0  0
 54 69  1  0  0  0  0
 55 67  1  0  0  0  0
 57 64  1  0  0  0  0
 58 65  1  0  0  0  0
 59 65  1  0  0  0  0
 60 65  1  0  0  0  0
 61 76  1  0  0  0  0
 62 68  1  0  0  0  0
 63 65  1  0  0  0  0
 63 75  1  0  0  0  0
 64 76  1  0  0  0  0
 66 67  1  0  0  0  0
M  CHG  1  76   1
M  ISO  4  39 100  53 101  73 100  84 101
M  END
> <Batch ID>
0043

> <Smiles>
CNC(C)C(=O)NC(C(=O)N1Cc2cc([101O:1][101CH:1]3CCCN(Cc4ccc([100NH:0][100C:0](=O)N5CCCC(n6nc(-c7ccc(Oc8ccc(F)cc8F)cc7)c(C(N)=O)c6N)C5)cc4C)C3=O)ccc2CC1C(=O)NC1CCCc2ccccc21)C(C)(C)C

> <Shape>
0.250

> <Color>
0.058

> <Negative vol penalty>
0.000

$$$$

  -OEChem-04042322153D

 84 92  0     1  0  0  0  0  0999 V2000
  -32.5587  -26.1889   17.4526 C   0  0  0  0  0  0  0  0  0  0  0  0
  -31.2560  -25.9176   17.8586 C   0  0  0  0  0  0  0  0  0  0  0  0
  -24.6041   -9.2776   22.0285 C   0  0  0  0  0  0  0  0  0  0  0  0
  -23.0011  -10.4132   20.6221 C   0  0  0  0  0  0  0  0  0  0  0  0
  -33.3758  -27.0042   18.2347 C   0  0  0  0  0  0  0  0  0  0  0  0
  -30.7701  -26.4605   19.0475 C   0  0  0  0  0  0  0  0  0  0  0  0
  -26.1058  -28.3685   18.5483 C   0  0  0  0  0  0  0  0  0  0  0  0
  -23.9601  -20.7260   20.2415 C   0  0  0  0  0  0  0  0  0  0  0  0
  -24.8773  -19.6997   20.4670 C   0  0  0  0  0  0  0  0  0  0  0  0
  -23.5754   -8.5221   22.5911 C   0  0  0  0  0  0  0  0  0  0  0  0
  -21.9723   -9.6576   21.1846 C   0  0  0  0  0  0  0  0  0  0  0  0
  -25.0455  -27.4633   18.5367 C   0  0  0  0  0  0  0  0  0  0  0  0
  -21.7229   -5.8208   21.7519 C   0  0  0  0  0  0  0  0  0  0  0  0
  -21.9333   -4.4503   21.9031 C   0  0  0  0  0  0  0  0  0  0  0  0
  -24.6017  -27.9627   20.8546 C   0  0  0  0  0  0  0  0  0  0  0  0
  -23.7288  -18.3182   18.8516 C   0  0  0  0  0  0  0  0  0  0  0  0
  -21.6275   -4.6668   24.2899 C   0  0  0  0  0  0  0  0  0  0  0  0
  -24.3170  -10.2232   21.0440 C   0  0  0  0  0  0  0  0  0  0  0  0
  -26.1474  -10.6834   19.3278 C   0  0  0  0  0  0  0  0  0  0  0  0
  -32.8965  -27.5652   19.4289 C   0  0  0  0  0  0  0  0  0  0  0  0
  -26.4294  -29.0707   19.7182 C   0  0  0  0  0  0  0  0  0  0  0  0
  -31.5820  -27.2829   19.8470 C   0  0  0  0  0  0  0  0  0  0  0  0
  -25.6650  -28.8781   20.8778 C   0  0  0  0  0  0  0  0  0  0  0  0
  -22.9271  -20.5485   19.3211 C   0  0  0  0  0  0  0  0  0  0  0  0
  -24.7617  -18.4958   19.7721 C   0  0  0  0  0  0  0  0  0  0  0  0
  -22.2595   -8.7121   22.1691 C   0  0  0  0  0  0  0  0  0  0  0  0
  -24.2950  -27.2581   19.6907 C   0  0  0  0  0  0  0  0  0  0  0  0
  -21.4649   -6.6144   22.8696 C   0  0  0  0  0  0  0  0  0  0  0  0
  -21.8856   -3.8732   23.1722 C   0  0  0  0  0  0  0  0  0  0  0  0
  -21.4171   -6.0374   24.1386 C   0  0  0  0  0  0  0  0  0  0  0  0
  -22.8115  -19.3446   18.6262 C   0  0  0  0  0  0  0  0  0  0  0  0
  -25.3791  -11.0044   20.4629 C   0  0  0  0  0  0  0  0  0  0  0  0
  -27.0147  -11.7394   19.1903 C   0  0  0  0  0  0  0  0  0  0  0  0
  -26.0827   -9.5334   18.4738 C   0  0  0  0  0  0  0  0  0  0  0  0
  -28.9773  -29.2192   21.6130 C   0  0  0  0  0  0  0  0  0  0  0  0
  -27.2778  -31.5715   23.0625 C   0  0  0  0  0  0  0  0  0  0  0  0
  -22.6236  -24.0762   19.3780 C   0  0  0  0  0  0  0  0  0  0  0  0
  -24.2302  -32.9590   23.7213 C   0  0  0  0  0  0  0  0  0  0  0  0
  -26.7752  -17.4655   20.8815 C   0  0  0  0  0  0  0  0  0  0  0  0
  -33.8324  -28.4020   20.2647 C   0  0  0  0  0  0  0  0  0  0  0  0
  -27.5594  -30.0633   19.7069 C   0  0  0  0  0  0  0  0  0  0  0  0
  -25.9587  -29.6221   22.1540 C   0  0  0  0  0  0  0  0  0  0  0  0
  -33.1192  -29.2421   21.3211 C   0  0  0  0  0  0  0  0  0  0  0  0
  -29.2751  -15.0880   21.7618 C   0  0  0  0  0  0  0  0  0  0  0  0
  -32.0919  -28.3989   22.0696 C   0  0  0  0  0  0  0  0  0  0  0  0
  -28.6319  -13.7421   21.4196 C   0  0  0  0  0  0  0  0  0  0  0  0
  -28.2545  -16.0791   22.3183 C   0  0  0  0  0  0  0  0  0  0  0  0
  -26.4195  -14.9314   21.1416 C   0  0  0  0  0  0  0  0  0  0  0  0
  -31.0106  -27.8734   21.1177 C   0  0  1  0  0  0  0  0  0  0  0  0
  -28.1234  -30.3426   21.0967 C   0  0  1  0  0  0  0  0  0  0  0  0
  -27.3958  -13.9216   20.5166 C   0  0  2  0  0  0  0  0  0  0  0  0
  -23.1567  -34.8552   24.9660 C   0  0  0  0  0  0  0  0  0  0  0  0
  -27.6817  -30.0727   25.6894 C   0  0  0  0  0  0  0  0  0  0  0  0
  -25.8419  -31.4527   26.6789 C   0  0  0  0  0  0  0  0  0  0  0  0
  -27.9228  -32.5563   25.8575 C   0  0  0  0  0  0  0  0  0  0  0  0
  -23.3082  -22.7706   17.3584 C   0  0  0  0  0  0  0  0  0  0  0  0
  -23.1211  -34.1168   21.2338 C   0  0  0  0  0  0  0  0  0  0  0  0
  -21.9610  -21.6777   19.1073 C   0  0  0  0  0  0  0  0  0  0  0  0
  -23.3630  -25.2620   18.7949 C   0  0  0  0  0  0  0  0  0  1  0  0
  -26.2704  -31.6260   24.1854 C   0  0  1  0  0  0  0  0  0  0  0  0
  -23.7369  -34.3922   23.6387 C   0  0  2  0  0  0  0  0  0  0  0  0
  -26.9246  -31.4113   25.5795 C   0  0  0  0  0  0  0  0  0  0  0  0
  -25.7279  -12.1729   21.0079 N   0  0  0  0  0  0  0  0  0  0  0  0
  -26.7248  -12.5953   20.2119 N   0  0  0  0  0  0  0  0  0  0  0  0
  -27.0775  -30.5772   22.0944 N   0  0  0  0  0  0  0  0  0  0  0  0
  -27.1136  -16.2010   21.4081 N   0  0  0  0  0  0  0  0  0  0  0  0
  -27.9896  -12.0101   18.2965 N   0  0  0  0  0  0  0  0  0  0  0  0
  -25.1328   -8.5428   18.7580 N   0  0  0  0  0  0  0  0  0  0  0  0
  -25.6930  -17.4529   20.0021 N   0  0  0  0  0  0  0  0  0  0  0  0
  -30.0590  -28.9187   20.8074 N   0  0  0  0  0  0  0  0  0  0  0  0
  -25.5695  -32.8976   24.0437 N   0  0  0  0  0  0  0  0  0  0  0  0
  -22.6311  -22.8899   18.6437 N   0  0  0  0  0  0  0  0  0  0  0  0
  -22.6805  -34.5170   22.5949 N   0  3  0  0  0  0  0  0  0  0  0  0
  -26.8556   -9.3809   17.4977 O   0  0  0  0  0  0  0  0  0  0  0  0
  -28.6778  -28.6670   22.6652 O   0  0  0  0  0  0  0  0  0  0  0  0
  -28.2041  -32.3858   23.0410 O   0  0  0  0  0  0  0  0  0  0  0  0
  -22.0591  -24.2070   20.4685 O   0  0  0  0  0  0  0  0  0  0  0  0
  -23.4997  -31.9906   23.5236 O   0  0  0  0  0  0  0  0  0  0  0  0
  -27.4164  -18.4801   21.1668 O   0  0  0  0  0  0  0  0  0  0  0  0
  -21.2555   -7.9748   22.7177 O   0  0  0  0  0  0  0  0  0  0  0  0
  -23.2600  -26.3747   19.6823 O   0  0  0  0  0  0  0  0  0  1  0  0
  -22.0861   -2.5568   23.3171 F   0  0  0  0  0  0  0  0  0  0  0  0
  -21.1685   -6.7944   25.2160 F   0  0  0  0  0  0  0  0  0  0  0  0
  -21.5461  -19.0887   17.4803 Cl  0  0  0  0  0  0  0  0  0  0  0  0
  1  2  1  0  0  0  0
  1  5  2  0  0  0  0
  2  6  2  0  0  0  0
  3 10  2  0  0  0  0
  3 18  1  0  0  0  0
  4 11  1  0  0  0  0
  4 18  2  0  0  0  0
  5 20  1  0  0  0  0
  6 22  1  0  0  0  0
  7 12  2  0  0  0  0
  7 21  1  0  0  0  0
  8  9  2  0  0  0  0
  8 24  1  0  0  0  0
  9 25  1  0  0  0  0
 10 26  1  0  0  0  0
 11 26  2  0  0  0  0
 12 27  1  0  0  0  0
 13 14  2  0  0  0  0
 13 28  1  0  0  0  0
 14 29  1  0  0  0  0
 15 23  1  0  0  0  0
 15 27  2  0  0  0  0
 16 25  2  0  0  0  0
 16 31  1  0  0  0  0
 17 29  2  0  0  0  0
 17 30  1  0  0  0  0
 18 32  1  0  0  0  0
 19 32  1  0  0  0  0
 19 33  2  0  0  0  0
 19 34  1  0  0  0  0
 20 22  2  0  0  0  0
 20 40  1  0  0  0  0
 21 23  2  0  0  0  0
 21 41  1  0  0  0  0
 22 49  1  0  0  0  0
 23 42  1  0  0  0  0
 24 31  2  0  0  0  0
 24 58  1  0  0  0  0
 25 69  1  0  0  0  0
 26 80  1  0  0  0  0
 27 81  1  0  0  0  0
 28 30  2  0  0  0  0
 28 80  1  0  0  0  0
 29 82  1  0  0  0  0
 30 83  1  0  0  0  0
 31 84  1  0  0  0  0
 32 63  2  0  0  0  0
 33 64  1  0  0  0  0
 33 67  1  0  0  0  0
 34 68  1  0  0  0  0
 34 74  2  0  0  0  0
 35 50  1  0  0  0  0
 35 70  1  0  0  0  0
 35 75  2  0  0  0  0
 36 60  1  0  0  0  0
 36 65  1  0  0  0  0
 36 76  2  0  0  0  0
 37 59  1  0  0  0  0
 37 72  1  0  0  0  0
 37 77  2  0  0  0  0
 38 61  1  0  0  0  0
 38 71  1  0  0  0  0
 38 78  2  0  0  0  0
 39 66  1  0  0  0  0
 39 69  1  0  0  0  0
 39 79  2  0  0  0  0
 40 43  1  0  0  0  0
 41 50  1  0  0  0  0
 42 65  1  0  0  0  0
 43 45  1  0  0  0  0
 44 46  1  0  0  0  0
 44 47  1  0  0  0  0
 45 49  1  0  0  0  0
 46 51  1  0  0  0  0
 47 66  1  0  0  0  0
 48 51  1  0  0  0  0
 48 66  1  0  0  0  0
 49 70  1  0  0  0  0
 50 65  1  0  0  0  0
 51 64  1  0  0  0  0
 52 61  1  0  0  0  0
 53 62  1  0  0  0  0
 54 62  1  0  0  0  0
 55 62  1  0  0  0  0
 56 72  1  0  0  0  0
 57 73  1  0  0  0  0
 58 72  1  0  0  0  0
 59 81  1  0  0  0  0
 60 62  1  0  0  0  0
 60 71  1  0  0  0  0
 61 73  1  0  0  0  0
 63 64  1  0  0  0  0
M  CHG  1  73   1
M  ISO  4  39 100  59 101  69 100  81 101
M  END
> <Batch ID>
0043

> <Smiles>
CNC(C)C(=O)NC(C(=O)N1Cc2cc([101O:1][101CH2:1]C(=O)N(C)Cc3ccc([100NH:0][100C:0](=O)N4CCCC(n5nc(-c6ccc(Oc7ccc(F)cc7F)cc6)c(C(N)=O)c5N)C4)cc3Cl)ccc2CC1C(=O)NC1CCCc2ccccc21)C(C)(C)C

> <Shape>
0.267

> <Color>
0.093

> <Negative vol penalty>
0.000

$$$$

  -OEChem-04042322153D

 90 99  0     1  0  0  0  0  0999 V2000
  -28.4826  -13.7816   17.0264 C   0  0  0  0  0  0  0  0  0  0  0  0
  -27.2205  -14.2713   16.7058 C   0  0  0  0  0  0  0  0  0  0  0  0
  -28.9980  -24.2937   19.1096 C   0  0  0  0  0  0  0  0  0  0  0  0
  -26.8581  -23.5043   19.9064 C   0  0  0  0  0  0  0  0  0  0  0  0
  -28.7039  -13.1881   18.2685 C   0  0  0  0  0  0  0  0  0  0  0  0
  -26.1787  -14.1667   17.6267 C   0  0  0  0  0  0  0  0  0  0  0  0
  -22.7353  -20.0271   20.0122 C   0  0  0  0  0  0  0  0  0  0  0  0
  -29.5281  -23.0128   19.2642 C   0  0  0  0  0  0  0  0  0  0  0  0
  -27.3882  -22.2233   20.0609 C   0  0  0  0  0  0  0  0  0  0  0  0
  -21.8891  -21.0815   20.3560 C   0  0  0  0  0  0  0  0  0  0  0  0
  -29.3287  -20.5826   22.2910 C   0  0  0  0  0  0  0  0  0  0  0  0
  -29.0357  -19.8980   23.4704 C   0  0  0  0  0  0  0  0  0  0  0  0
  -20.6194  -19.6081   21.7929 C   0  0  0  0  0  0  0  0  0  0  0  0
  -19.8799  -27.2994   21.6481 C   0  0  0  0  0  0  0  0  0  0  0  0
  -19.8457  -29.1813   23.1627 C   0  0  0  0  0  0  0  0  0  0  0  0
  -27.9811  -18.1421   22.1891 C   0  0  0  0  0  0  0  0  0  0  0  0
  -27.6630  -24.5395   19.4307 C   0  0  0  0  0  0  0  0  0  0  0  0
  -27.0294  -26.6099   18.0819 C   0  0  0  0  0  0  0  0  0  0  0  0
  -27.6667  -13.0848   19.2088 C   0  0  0  0  0  0  0  0  0  0  0  0
  -22.5358  -18.7612   20.5701 C   0  0  0  0  0  0  0  0  0  0  0  0
  -26.3860  -13.5699   18.8820 C   0  0  0  0  0  0  0  0  0  0  0  0
  -21.4713  -18.5511   21.4620 C   0  0  0  0  0  0  0  0  0  0  0  0
  -18.4888  -27.2220   21.7127 C   0  0  0  0  0  0  0  0  0  0  0  0
  -18.4545  -29.1040   23.2273 C   0  0  0  0  0  0  0  0  0  0  0  0
  -17.7760  -28.1244   22.5022 C   0  0  0  0  0  0  0  0  0  0  0  0
  -20.5585  -28.2790   22.3731 C   0  0  0  0  0  0  0  0  0  0  0  0
  -28.7232  -21.9776   19.7398 C   0  0  0  0  0  0  0  0  0  0  0  0
  -20.8336  -20.8724   21.2439 C   0  0  0  0  0  0  0  0  0  0  0  0
  -28.9478  -20.0470   21.0607 C   0  0  0  0  0  0  0  0  0  0  0  0
  -28.3619  -18.6777   23.4195 C   0  0  0  0  0  0  0  0  0  0  0  0
  -28.2741  -18.8267   21.0097 C   0  0  0  0  0  0  0  0  0  0  0  0
  -27.1149  -25.8625   19.2718 C   0  0  0  0  0  0  0  0  0  0  0  0
  -26.4350  -27.7893   18.4592 C   0  0  0  0  0  0  0  0  0  0  0  0
  -18.9220  -23.9884   21.2215 C   0  0  0  0  0  0  0  0  0  0  0  0
  -27.4495  -26.2686   16.7542 C   0  0  0  0  0  0  0  0  0  0  0  0
  -23.6878  -15.1988   20.8106 C   0  0  0  0  0  0  0  0  0  0  0  0
  -22.8874  -16.0694   23.6411 C   0  0  0  0  0  0  0  0  0  0  0  0
  -22.8249  -17.6432   26.3654 C   0  0  0  0  0  0  0  0  0  0  0  0
  -22.7982  -29.2696   22.9634 C   0  0  0  0  0  0  0  0  0  0  0  0
  -27.9420  -12.3925   20.5201 C   0  0  0  0  0  0  0  0  0  0  0  0
  -23.3852  -17.5818   20.1810 C   0  0  0  0  0  0  0  0  0  0  0  0
  -21.2739  -17.1644   22.0106 C   0  0  0  0  0  0  0  0  0  0  0  0
  -26.8795  -12.6577   21.5837 C   0  0  0  0  0  0  0  0  0  0  0  0
  -19.4353  -23.0800   18.0738 C   0  0  0  0  0  0  0  0  0  0  0  0
  -18.8242  -24.4775   18.0599 C   0  0  0  0  0  0  0  0  0  0  0  0
  -25.9691  -30.7109   22.2250 C   0  0  0  0  0  0  0  0  0  0  0  0
  -25.4820  -12.4916   20.9952 C   0  0  0  0  0  0  0  0  0  0  0  0
  -19.1959  -22.2909   19.3573 C   0  0  0  0  0  0  0  0  0  0  0  0
  -26.6126  -29.7021   21.2708 C   0  0  0  0  0  0  0  0  0  0  0  0
  -19.3543  -25.3823   19.1658 C   0  0  0  0  0  0  0  0  0  0  0  0
  -25.1421  -30.0198   23.3076 C   0  0  0  0  0  0  0  0  0  0  0  0
  -24.7811  -28.0620   21.8564 C   0  0  0  0  0  0  0  0  0  0  0  0
  -25.2367  -13.4972   19.8638 C   0  0  1  0  0  0  0  0  0  0  0  0
  -19.8224  -22.9256   20.5987 C   0  0  2  0  0  0  0  0  0  1  0  0
  -23.6233  -16.6003   21.3425 C   0  0  1  0  0  0  0  0  0  0  0  0
  -25.5714  -28.7137   20.7099 C   0  0  2  0  0  0  0  0  0  0  0  0
  -16.2842  -28.0417   22.5710 C   0  0  0  0  0  0  0  0  0  0  0  0
  -22.5040  -17.8446   28.8461 C   0  0  0  0  0  0  0  0  0  0  0  0
  -20.2263  -14.6152   23.3128 C   0  0  0  0  0  0  0  0  0  0  0  0
  -19.7984  -14.9963   25.7499 C   0  0  0  0  0  0  0  0  0  0  0  0
  -21.7525  -13.6241   25.0282 C   0  0  0  0  0  0  0  0  0  0  0  0
  -25.5933  -18.6115   26.7620 C   0  0  0  0  0  0  0  0  0  0  0  0
  -17.7825  -26.1580   20.9232 C   0  0  0  0  0  0  0  0  0  0  0  0
  -17.7151  -30.0823   24.0802 C   0  0  0  0  0  0  0  0  0  0  0  0
  -21.8032  -16.1287   24.6872 C   0  0  1  0  0  0  0  0  0  0  0  0
  -23.5060  -17.6318   27.7221 C   0  0  2  0  0  0  0  0  0  0  0  0
  -20.9002  -14.8630   24.6771 C   0  0  0  0  0  0  0  0  0  0  0  0
  -26.6151  -26.5126   20.3261 N   0  0  0  0  0  0  0  0  0  0  0  0
  -26.2098  -27.6809   19.8000 N   0  0  0  0  0  0  0  0  0  0  0  0
  -18.7007  -25.1295   20.4508 N   0  0  0  0  0  0  0  0  0  0  0  0
  -22.5734  -16.5786   22.3751 N   0  0  0  0  0  0  0  0  0  0  0  0
  -24.1746  -29.1022   22.7020 N   0  0  0  0  0  0  0  0  0  0  0  0
  -26.0884  -28.8981   17.7716 N   0  0  0  0  0  0  0  0  0  0  0  0
  -28.0421  -25.0163   16.5422 N   0  0  0  0  0  0  0  0  0  0  0  0
  -21.9716  -28.3584   22.3069 N   0  0  0  0  0  0  0  0  0  0  0  0
  -24.9500  -14.8080   20.4060 N   0  0  0  0  0  0  0  0  0  0  0  0
  -22.4756  -16.3729   25.9586 N   0  0  0  0  0  0  0  0  0  0  0  0
  -24.5313  -18.7108   27.7960 N   0  3  0  0  0  0  0  0  0  0  0  0
  -18.4315  -23.8152   22.3403 O   0  0  0  0  0  0  0  0  0  0  0  0
  -27.3187  -27.0575   15.7878 O   0  0  0  0  0  0  0  0  0  0  0  0
  -22.6682  -14.5201   20.7709 O   0  0  0  0  0  0  0  0  0  0  0  0
  -23.9821  -15.5804   23.9340 O   0  0  0  0  0  0  0  0  0  0  0  0
  -22.6198  -18.6761   25.7318 O   0  0  0  0  0  0  0  0  0  0  0  0
  -22.3814  -30.1731   23.6927 O   0  0  0  0  0  0  0  0  0  0  0  0
  -29.2401  -20.7276   19.8906 O   0  0  0  0  0  0  0  0  0  0  0  0
  -20.0140  -21.9073   21.5787 O   0  0  0  0  0  0  0  0  0  1  0  0
  -28.0820  -18.0196   24.5521 F   0  0  0  0  0  0  0  0  0  0  0  0
  -27.9067  -18.3066   19.8306 F   0  0  0  0  0  0  0  0  0  0  0  0
  -18.5780  -30.9236   24.7064 F   0  0  0  0  0  0  0  0  0  0  0  0
  -17.0224  -29.4412   25.0568 F   0  0  0  0  0  0  0  0  0  0  0  0
  1  2  1  0  0  0  0
  1  5  2  0  0  0  0
  2  6  2  0  0  0  0
  3  8  2  0  0  0  0
  3 17  1  0  0  0  0
  4  9  1  0  0  0  0
  4 17  2  0  0  0  0
  5 19  1  0  0  0  0
  6 21  1  0  0  0  0
  7 10  2  0  0  0  0
  7 20  1  0  0  0  0
  8 27  1  0  0  0  0
  9 27  2  0  0  0  0
 10 28  1  0  0  0  0
 11 12  2  0  0  0  0
 11 29  1  0  0  0  0
 12 30  1  0  0  0  0
 13 22  1  0  0  0  0
 13 28  2  0  0  0  0
 14 23  1  0  0  0  0
 14 26  2  0  0  0  0
 15 24  2  0  0  0  0
 15 26  1  0  0  0  0
 16 30  2  0  0  0  0
 16 31  1  0  0  0  0
 17 32  1  0  0  0  0
 18 32  1  0  0  0  0
 18 33  2  0  0  0  0
 18 35  1  0  0  0  0
 19 21  2  0  0  0  0
 19 40  1  0  0  0  0
 20 22  2  0  0  0  0
 20 41  1  0  0  0  0
 21 53  1  0  0  0  0
 22 42  1  0  0  0  0
 23 25  2  0  0  0  0
 23 63  1  0  0  0  0
 24 25  1  0  0  0  0
 24 64  1  0  0  0  0
 25 57  1  0  0  0  0
 26 75  1  0  0  0  0
 27 85  1  0  0  0  0
 28 86  1  0  0  0  0
 29 31  2  0  0  0  0
 29 85  1  0  0  0  0
 30 87  1  0  0  0  0
 31 88  1  0  0  0  0
 32 68  2  0  0  0  0
 33 69  1  0  0  0  0
 33 73  1  0  0  0  0
 34 54  1  0  0  0  0
 34 70  1  0  0  0  0
 34 79  2  0  0  0  0
 35 74  1  0  0  0  0
 35 80  2  0  0  0  0
 36 55  1  0  0  0  0
 36 76  1  0  0  0  0
 36 81  2  0  0  0  0
 37 65  1  0  0  0  0
 37 71  1  0  0  0  0
 37 82  2  0  0  0  0
 38 66  1  0  0  0  0
 38 77  1  0  0  0  0
 38 83  2  0  0  0  0
 39 72  1  0  0  0  0
 39 75  1  0  0  0  0
 39 84  2  0  0  0  0
 40 43  1  0  0  0  0
 41 55  1  0  0  0  0
 42 71  1  0  0  0  0
 43 47  1  0  0  0  0
 44 45  1  0  0  0  0
 44 48  1  0  0  0  0
 45 50  1  0  0  0  0
 46 49  1  0  0  0  0
 46 51  1  0  0  0  0
 47 53  1  0  0  0  0
 48 54  1  0  0  0  0
 49 56  1  0  0  0  0
 50 70  1  0  0  0  0
 51 72  1  0  0  0  0
 52 56  1  0  0  0  0
 52 72  1  0  0  0  0
 53 76  1  0  0  0  0
 54 86  1  0  0  0  0
 55 71  1  0  0  0  0
 56 69  1  0  0  0  0
 58 66  1  0  0  0  0
 59 67  1  0  0  0  0
 60 67  1  0  0  0  0
 61 67  1  0  0  0  0
 62 78  1  0  0  0  0
 63 70  1  0  0  0  0
 64 89  1  0  0  0  0
 64 90  1  0  0  0  0
 65 67  1  0  0  0  0
 65 77  1  0  0  0  0
 66 78  1  0  0  0  0
 68 69  1  0  0  0  0
M  CHG  1  78   1
M  ISO  4  39 100  54 101  75 100  86 101
M  END
> <Batch ID>
0043

> <Smiles>
CNC(C)C(=O)NC(C(=O)N1Cc2cc([101O:1][101CH:1]3CCCCN(Cc4cc([100NH:0][100C:0](=O)N5CCCC(n6nc(-c7ccc(Oc8ccc(F)cc8F)cc7)c(C(N)=O)c6N)C5)cc(C(F)F)c4C)C3=O)ccc2CC1C(=O)NC1CCCc2ccccc21)C(C)(C)C

> <Shape>
0.222

> <Color>
0.075

> <Negative vol penalty>
0.000

$$$$

  -OEChem-04042322153D

 88 96  0     1  0  0  0  0  0999 V2000
  -28.0623  -24.5165   17.0097 C   0  0  0  0  0  0  0  0  0  0  0  0
  -26.8825  -24.7392   17.7125 C   0  0  0  0  0  0  0  0  0  0  0  0
  -27.8879  -21.4234   25.2622 C   0  0  0  0  0  0  0  0  0  0  0  0
  -28.4380  -12.9796   18.2891 C   0  0  0  0  0  0  0  0  0  0  0  0
  -28.8417  -13.2935   20.6504 C   0  0  0  0  0  0  0  0  0  0  0  0
  -29.2636  -25.0439   17.4815 C   0  0  0  0  0  0  0  0  0  0  0  0
  -26.9036  -25.4887   18.8882 C   0  0  0  0  0  0  0  0  0  0  0  0
  -23.1328  -28.8617   19.1095 C   0  0  0  0  0  0  0  0  0  0  0  0
  -27.3330  -22.7025   25.2221 C   0  0  0  0  0  0  0  0  0  0  0  0
  -28.2565  -20.7856   24.0777 C   0  0  0  0  0  0  0  0  0  0  0  0
  -29.3215  -11.9003   18.2815 C   0  0  0  0  0  0  0  0  0  0  0  0
  -29.7252  -12.2142   20.6428 C   0  0  0  0  0  0  0  0  0  0  0  0
  -21.8680  -28.3816   19.4467 C   0  0  0  0  0  0  0  0  0  0  0  0
  -31.1952   -8.8366   17.7175 C   0  0  0  0  0  0  0  0  0  0  0  0
  -30.8010   -7.6805   17.0440 C   0  0  0  0  0  0  0  0  0  0  0  0
  -22.1890  -29.1449   21.7124 C   0  0  0  0  0  0  0  0  0  0  0  0
  -27.5153  -22.7060   22.8129 C   0  0  0  0  0  0  0  0  0  0  0  0
  -28.8860   -7.4831   18.5038 C   0  0  0  0  0  0  0  0  0  0  0  0
  -28.1981  -13.6762   19.4735 C   0  0  0  0  0  0  0  0  0  0  0  0
  -25.8996  -14.7542   19.7241 C   0  0  0  0  0  0  0  0  0  0  0  0
  -29.2978  -25.8084   18.6584 C   0  0  0  0  0  0  0  0  0  0  0  0
  -23.9409  -29.4783   20.0755 C   0  0  0  0  0  0  0  0  0  0  0  0
  -28.1066  -26.0257   19.3769 C   0  0  0  0  0  0  0  0  0  0  0  0
  -23.4626  -29.6342   21.3843 C   0  0  0  0  0  0  0  0  0  0  0  0
  -27.1467  -23.3438   23.9975 C   0  0  0  0  0  0  0  0  0  0  0  0
  -28.0702  -21.4269   22.8531 C   0  0  0  0  0  0  0  0  0  0  0  0
  -29.9651  -11.5176   19.4583 C   0  0  0  0  0  0  0  0  0  0  0  0
  -21.3971  -28.5206   20.7490 C   0  0  0  0  0  0  0  0  0  0  0  0
  -30.4349   -9.3160   18.7842 C   0  0  0  0  0  0  0  0  0  0  0  0
  -29.6464   -7.0038   17.4371 C   0  0  0  0  0  0  0  0  0  0  0  0
  -29.2803   -8.6392   19.1773 C   0  0  0  0  0  0  0  0  0  0  0  0
  -27.2859  -14.7916   19.4819 C   0  0  0  0  0  0  0  0  0  0  0  0
  -25.4974  -16.0634   19.6196 C   0  0  0  0  0  0  0  0  0  0  0  0
  -22.9983  -24.6345   22.7132 C   0  0  0  0  0  0  0  0  0  0  0  0
  -21.7176  -24.4527   23.0632 C   0  0  0  0  0  0  0  0  0  0  0  0
  -25.0513  -13.6361   20.0173 C   0  0  0  0  0  0  0  0  0  0  0  0
  -24.0779  -24.5398   23.7342 C   0  0  0  0  0  0  0  0  0  0  0  0
  -26.7810  -28.8496   21.3571 C   0  0  0  0  0  0  0  0  0  0  0  0
  -26.3402  -31.7294   22.7836 C   0  0  0  0  0  0  0  0  0  0  0  0
  -24.1622  -34.1254   23.8618 C   0  0  0  0  0  0  0  0  0  0  0  0
  -28.3284  -21.2744   20.3518 C   0  0  0  0  0  0  0  0  0  0  0  0
  -30.6278  -26.3181   19.1545 C   0  0  0  0  0  0  0  0  0  0  0  0
  -25.2920  -30.0147   19.6893 C   0  0  0  0  0  0  0  0  0  0  0  0
  -24.2828  -30.3068   22.4536 C   0  0  0  0  0  0  0  0  0  0  0  0
  -30.5047  -27.4165   20.2075 C   0  0  0  0  0  0  0  0  0  0  0  0
  -26.6318  -20.1656   17.4244 C   0  0  0  0  0  0  0  0  0  0  0  0
  -29.4756  -27.0295   21.2648 C   0  0  0  0  0  0  0  0  0  0  0  0
  -26.4754  -18.6592   17.6447 C   0  0  0  0  0  0  0  0  0  0  0  0
  -27.9633  -20.6828   17.9661 C   0  0  0  0  0  0  0  0  0  0  0  0
  -28.0839  -18.8310   19.5864 C   0  0  0  0  0  0  0  0  0  0  0  0
  -28.0848  -26.8544   20.6430 C   0  0  1  0  0  0  0  0  0  0  0  0
  -26.2369  -30.1655   20.8775 C   0  0  1  0  0  0  0  0  0  0  0  0
  -26.7299  -18.2753   19.1155 C   0  0  2  0  0  0  0  0  0  0  0  0
  -24.0966  -36.3487   25.0236 C   0  0  0  0  0  0  0  0  0  0  0  0
  -26.8664  -30.3475   25.4526 C   0  0  0  0  0  0  0  0  0  0  0  0
  -25.8712  -32.3378   26.5999 C   0  0  0  0  0  0  0  0  0  0  0  0
  -27.9300  -32.5985   25.2158 C   0  0  0  0  0  0  0  0  0  0  0  0
  -22.9150  -35.4414   21.5227 C   0  0  0  0  0  0  0  0  0  0  0  0
  -18.7352  -25.2407   23.6071 C   0  0  0  0  0  0  0  0  0  0  0  0
  -26.5495  -24.7207   23.9549 C   0  0  0  0  0  0  0  0  0  0  0  0
  -20.5832  -24.5386   22.0930 C   0  0  0  0  0  0  0  0  0  0  0  0
  -18.8079  -26.0741   21.2615 C   0  0  0  0  0  0  0  0  0  0  0  0
  -19.6816  -26.9208   20.3570 C   0  0  0  0  0  0  0  0  0  1  0  0
  -25.7105  -32.1986   24.0729 C   0  0  1  0  0  0  0  0  0  0  0  0
  -24.1538  -35.6329   23.6831 C   0  0  2  0  0  0  0  0  0  0  0  0
  -26.5796  -31.8562   25.3158 C   0  0  0  0  0  0  0  0  0  0  0  0
  -27.7343  -16.0266   19.2416 N   0  0  0  0  0  0  0  0  0  0  0  0
  -26.6233  -16.7774   19.3321 N   0  0  0  0  0  0  0  0  0  0  0  0
  -25.5998  -30.8091   22.0282 N   0  0  0  0  0  0  0  0  0  0  0  0
  -28.1336  -20.2847   19.3651 N   0  0  0  0  0  0  0  0  0  0  0  0
  -24.2940  -16.6618   19.7465 N   0  0  0  0  0  0  0  0  0  0  0  0
  -25.6277  -12.3605   20.0876 N   0  0  0  0  0  0  0  0  0  0  0  0
  -28.4454  -20.7790   21.6501 N   0  0  0  0  0  0  0  0  0  0  0  0
  -25.3285  -24.7571   23.1814 N   0  0  0  0  0  0  0  0  0  0  0  0
  -27.4765  -28.1438   20.3941 N   0  0  0  0  0  0  0  0  0  0  0  0
  -25.4457  -33.6232   23.9031 N   0  0  0  0  0  0  0  0  0  0  0  0
  -22.9735  -36.0522   22.8756 N   0  3  0  0  0  0  0  0  0  0  0  0
  -19.6017  -25.6320   22.4357 N   0  3  1  0  0  0  0  0  0  0  0  0
  -23.8160  -13.7623   20.1950 O   0  0  0  0  0  0  0  0  0  0  0  0
  -23.8491  -24.2957   24.9144 O   0  0  0  0  0  0  0  0  0  0  0  0
  -26.5855  -28.5012   22.5156 O   0  0  0  0  0  0  0  0  0  0  0  0
  -27.4450  -32.1689   22.4551 O   0  0  0  0  0  0  0  0  0  0  0  0
  -23.1332  -33.4604   23.9590 O   0  0  0  0  0  0  0  0  0  0  0  0
  -28.3600  -22.4749   20.0695 O   0  0  0  0  0  0  0  0  0  0  0  0
  -30.8272  -10.4643   19.4514 O   0  0  0  0  0  0  0  0  0  0  0  0
  -20.1632  -28.0523   21.0809 O   0  0  0  0  0  0  0  0  0  1  0  0
  -29.2672   -5.8945   16.7892 F   0  0  0  0  0  0  0  0  0  0  0  0
  -28.5451   -9.0955   20.2006 F   0  0  0  0  0  0  0  0  0  0  0  0
  1  2  1  0  0  0  0
  1  6  2  0  0  0  0
  2  7  2  0  0  0  0
  3  9  2  0  0  0  0
  3 10  1  0  0  0  0
  4 11  2  0  0  0  0
  4 19  1  0  0  0  0
  5 12  1  0  0  0  0
  5 19  2  0  0  0  0
  6 21  1  0  0  0  0
  7 23  1  0  0  0  0
  8 13  2  0  0  0  0
  8 22  1  0  0  0  0
  9 25  1  0  0  0  0
 10 26  2  0  0  0  0
 11 27  1  0  0  0  0
 12 27  2  0  0  0  0
 13 28  1  0  0  0  0
 14 15  2  0  0  0  0
 14 29  1  0  0  0  0
 15 30  1  0  0  0  0
 16 24  1  0  0  0  0
 16 28  2  0  0  0  0
 17 25  2  0  0  0  0
 17 26  1  0  0  0  0
 18 30  2  0  0  0  0
 18 31  1  0  0  0  0
 19 32  1  0  0  0  0
 20 32  1  0  0  0  0
 20 33  2  0  0  0  0
 20 36  1  0  0  0  0
 21 23  2  0  0  0  0
 21 42  1  0  0  0  0
 22 24  2  0  0  0  0
 22 43  1  0  0  0  0
 23 51  1  0  0  0  0
 24 44  1  0  0  0  0
 25 60  1  0  0  0  0
 26 73  1  0  0  0  0
 27 85  1  0  0  0  0
 28 86  1  0  0  0  0
 29 31  2  0  0  0  0
 29 85  1  0  0  0  0
 30 87  1  0  0  0  0
 31 88  1  0  0  0  0
 32 67  2  0  0  0  0
 33 68  1  0  0  0  0
 33 71  1  0  0  0  0
 34 35  2  0  0  0  0
 34 37  1  0  0  0  0
 35 61  1  0  0  0  0
 36 72  1  0  0  0  0
 36 79  2  0  0  0  0
 37 74  1  0  0  0  0
 37 80  2  0  0  0  0
 38 52  1  0  0  0  0
 38 75  1  0  0  0  0
 38 81  2  0  0  0  0
 39 64  1  0  0  0  0
 39 69  1  0  0  0  0
 39 82  2  0  0  0  0
 40 65  1  0  0  0  0
 40 76  1  0  0  0  0
 40 83  2  0  0  0  0
 41 70  1  0  0  0  0
 41 73  1  0  0  0  0
 41 84  2  0  0  0  0
 42 45  1  0  0  0  0
 43 52  1  0  0  0  0
 44 69  1  0  0  0  0
 45 47  1  0  0  0  0
 46 48  1  0  0  0  0
 46 49  1  0  0  0  0
 47 51  1  0  0  0  0
 48 53  1  0  0  0  0
 49 70  1  0  0  0  0
 50 53  1  0  0  0  0
 50 70  1  0  0  0  0
 51 75  1  0  0  0  0
 52 69  1  0  0  0  0
 53 68  1  0  0  0  0
 54 65  1  0  0  0  0
 55 66  1  0  0  0  0
 56 66  1  0  0  0  0
 57 66  1  0  0  0  0
 58 77  1  0  0  0  0
 59 78  1  0  0  0  0
 60 74  1  0  0  0  0
 61 78  1  0  0  0  0
 62 63  1  0  0  0  0
 62 78  1  0  0  0  0
 63 86  1  0  0  0  0
 64 66  1  0  0  0  0
 64 76  1  0  0  0  0
 65 77  1  0  0  0  0
 67 68  1  0  0  0  0
M  CHG  2  77   1  78   1
M  ISO  4  41 100  63 101  73 100  86 101
M  END
> <Batch ID>
0043

> <Smiles>
CNC(C)C(=O)NC(C(=O)N1Cc2cc([101O:1][101CH2:1]CN(C)CC=CC(=O)NCc3cccc([100NH:0][100C:0](=O)N4CCCC(n5nc(-c6ccc(Oc7ccc(F)cc7F)cc6)c(C(N)=O)c5N)C4)c3)ccc2CC1C(=O)NC1CCCc2ccccc21)C(C)(C)C

> <Shape>
0.319

> <Color>
0.073

> <Negative vol penalty>
0.000

$$$$

  -OEChem-04042322153D

 84 92  0     1  0  0  0  0  0999 V2000
  -18.8724  -20.6474   27.5758 C   0  0  0  0  0  0  0  0  0  0  0  0
  -20.2438  -20.7801   27.3829 C   0  0  0  0  0  0  0  0  0  0  0  0
  -23.0700   -9.8725   19.9430 C   0  0  0  0  0  0  0  0  0  0  0  0
  -23.8303   -9.8784   22.2362 C   0  0  0  0  0  0  0  0  0  0  0  0
  -17.9922  -20.9321   26.5327 C   0  0  0  0  0  0  0  0  0  0  0  0
  -20.7357  -21.1966   26.1464 C   0  0  0  0  0  0  0  0  0  0  0  0
  -25.6648  -24.6865   25.1311 C   0  0  0  0  0  0  0  0  0  0  0  0
  -22.3245   -8.7205   20.1931 C   0  0  0  0  0  0  0  0  0  0  0  0
  -23.0847   -8.7264   22.4864 C   0  0  0  0  0  0  0  0  0  0  0  0
  -26.9762  -24.3763   24.7736 C   0  0  0  0  0  0  0  0  0  0  0  0
  -19.3753   -7.9283   21.6449 C   0  0  0  0  0  0  0  0  0  0  0  0
  -18.0683   -7.8840   21.1599 C   0  0  0  0  0  0  0  0  0  0  0  0
  -26.4353  -24.7846   22.4585 C   0  0  0  0  0  0  0  0  0  0  0  0
  -31.2100  -18.3747   23.7641 C   0  0  0  0  0  0  0  0  0  0  0  0
  -31.4610  -19.1388   21.4859 C   0  0  0  0  0  0  0  0  0  0  0  0
  -18.6248   -5.9401   19.8377 C   0  0  0  0  0  0  0  0  0  0  0  0
  -23.8230  -10.4515   20.9645 C   0  0  0  0  0  0  0  0  0  0  0  0
  -24.1685  -12.9761   20.8443 C   0  0  0  0  0  0  0  0  0  0  0  0
  -18.4730  -21.3615   25.2857 C   0  0  0  0  0  0  0  0  0  0  0  0
  -24.7244  -25.0381   24.1521 C   0  0  0  0  0  0  0  0  0  0  0  0
  -19.8611  -21.4860   25.0852 C   0  0  0  0  0  0  0  0  0  0  0  0
  -25.1132  -25.1013   22.8064 C   0  0  0  0  0  0  0  0  0  0  0  0
  -31.5840  -19.3659   22.8567 C   0  0  0  0  0  0  0  0  0  0  0  0
  -30.7132  -17.1564   23.3007 C   0  0  0  0  0  0  0  0  0  0  0  0
  -30.5902  -16.9294   21.9300 C   0  0  0  0  0  0  0  0  0  0  0  0
  -22.3318   -8.1474   21.4648 C   0  0  0  0  0  0  0  0  0  0  0  0
  -27.3609  -24.4225   23.4368 C   0  0  0  0  0  0  0  0  0  0  0  0
  -20.3072   -6.9786   21.2263 C   0  0  0  0  0  0  0  0  0  0  0  0
  -17.6930   -6.8899   20.2563 C   0  0  0  0  0  0  0  0  0  0  0  0
  -19.9319   -5.9844   20.3227 C   0  0  0  0  0  0  0  0  0  0  0  0
  -30.9641  -17.9206   21.0225 C   0  0  0  0  0  0  0  0  0  0  0  0
  -24.5938  -11.6412   20.7066 C   0  0  0  0  0  0  0  0  0  0  0  0
  -25.2617  -13.7240   20.4808 C   0  0  0  0  0  0  0  0  0  0  0  0
  -22.8989  -13.4938   21.2635 C   0  0  0  0  0  0  0  0  0  0  0  0
  -21.9764  -23.8052   23.1360 C   0  0  0  0  0  0  0  0  0  0  0  0
  -21.8691  -26.5139   21.3544 C   0  0  0  0  0  0  0  0  0  0  0  0
  -30.3703  -22.4283   23.0982 C   0  0  0  0  0  0  0  0  0  0  0  0
  -23.5686  -29.0713   19.8652 C   0  0  0  0  0  0  0  0  0  0  0  0
  -30.7295  -14.7614   20.6545 C   0  0  0  0  0  0  0  0  0  0  0  0
  -17.4853  -21.6120   24.1739 C   0  0  0  0  0  0  0  0  0  0  0  0
  -23.3206  -25.3958   24.5569 C   0  0  0  0  0  0  0  0  0  0  0  0
  -24.1471  -25.4927   21.7193 C   0  0  0  0  0  0  0  0  0  0  0  0
  -18.0683  -22.4080   23.0091 C   0  0  0  0  0  0  0  0  0  0  0  0
  -29.6111  -12.3492   18.2865 C   0  0  0  0  0  0  0  0  0  0  0  0
  -19.4305  -21.8498   22.6098 C   0  0  0  0  0  0  0  0  0  0  0  0
  -28.1711  -12.0598   18.7163 C   0  0  0  0  0  0  0  0  0  0  0  0
  -30.5267  -12.5767   19.4880 C   0  0  0  0  0  0  0  0  0  0  0  0
  -28.6211  -13.3040   20.8695 C   0  0  0  0  0  0  0  0  0  0  0  0
  -20.4319  -21.9590   23.7659 C   0  0  1  0  0  0  0  0  0  0  0  0
  -22.3135  -25.2414   23.4215 C   0  0  1  0  0  0  0  0  0  0  0  0
  -27.6478  -13.1322   19.6919 C   0  0  2  0  0  0  0  0  0  0  0  0
  -30.3214  -16.1156   24.2992 C   0  0  0  0  0  0  0  0  0  0  0  0
  -23.2125  -31.1109   18.4471 C   0  0  0  0  0  0  0  0  0  0  0  0
  -21.4663  -24.7382   18.9060 C   0  0  0  0  0  0  0  0  0  0  0  0
  -22.0654  -26.7003   17.4710 C   0  0  0  0  0  0  0  0  0  0  0  0
  -20.0534  -26.8015   18.9421 C   0  0  0  0  0  0  0  0  0  0  0  0
  -24.6785  -30.8561   21.9489 C   0  0  0  0  0  0  0  0  0  0  0  0
  -32.1179  -20.6775   23.3554 C   0  0  0  0  0  0  0  0  0  0  0  0
  -29.3343  -23.1809   23.9056 C   0  0  0  0  0  0  0  0  0  1  0  0
  -22.3556  -26.9104   19.9815 C   0  0  1  0  0  0  0  0  0  0  0  0
  -23.3332  -30.5710   19.8637 C   0  0  2  0  0  0  0  0  0  0  0  0
  -21.5031  -26.2783   18.8452 C   0  0  0  0  0  0  0  0  0  0  0  0
  -25.8584  -11.5435   20.2881 N   0  0  0  0  0  0  0  0  0  0  0  0
  -26.2372  -12.8265   20.1596 N   0  0  0  0  0  0  0  0  0  0  0  0
  -22.7844  -25.8273   22.1648 N   0  0  0  0  0  0  0  0  0  0  0  0
  -29.9695  -13.6084   20.3654 N   0  0  0  0  0  0  0  0  0  0  0  0
  -25.4741  -15.0551   20.4077 N   0  0  0  0  0  0  0  0  0  0  0  0
  -21.8857  -12.5862   21.6010 N   0  0  0  0  0  0  0  0  0  0  0  0
  -30.0837  -15.6875   21.4730 N   0  0  0  0  0  0  0  0  0  0  0  0
  -20.9224  -23.3155   23.8834 N   0  0  0  0  0  0  0  0  0  0  0  0
  -31.0707  -21.5231   23.8800 N   0  0  0  0  0  0  0  0  0  0  0  0
  -22.3862  -28.3689   19.9647 N   0  0  0  0  0  0  0  0  0  0  0  0
  -24.4608  -31.2729   20.5397 N   0  3  0  0  0  0  0  0  0  0  0  0
  -22.6645  -14.7248   21.3208 O   0  0  0  0  0  0  0  0  0  0  0  0
  -22.6236  -23.1876   22.2985 O   0  0  0  0  0  0  0  0  0  0  0  0
  -20.7216  -26.8089   21.6979 O   0  0  0  0  0  0  0  0  0  0  0  0
  -30.5453  -22.6205   21.8980 O   0  0  0  0  0  0  0  0  0  0  0  0
  -24.6889  -28.5728   19.7823 O   0  0  0  0  0  0  0  0  0  0  0  0
  -31.8588  -14.9285   20.1866 O   0  0  0  0  0  0  0  0  0  0  0  0
  -21.6042   -7.0234   21.7093 O   0  0  0  0  0  0  0  0  0  0  0  0
  -28.6401  -24.1196   23.0851 O   0  0  0  0  0  0  0  0  0  1  0  0
  -16.4374   -6.8465   19.7918 F   0  0  0  0  0  0  0  0  0  0  0  0
  -20.8224   -5.0685   19.9177 F   0  0  0  0  0  0  0  0  0  0  0  0
  -30.8292  -17.6842   19.3157 Cl  0  0  0  0  0  0  0  0  0  0  0  0
  1  2  1  0  0  0  0
  1  5  2  0  0  0  0
  2  6  2  0  0  0  0
  3  8  2  0  0  0  0
  3 17  1  0  0  0  0
  4  9  1  0  0  0  0
  4 17  2  0  0  0  0
  5 19  1  0  0  0  0
  6 21  1  0  0  0  0
  7 10  2  0  0  0  0
  7 20  1  0  0  0  0
  8 26  1  0  0  0  0
  9 26  2  0  0  0  0
 10 27  1  0  0  0  0
 11 12  2  0  0  0  0
 11 28  1  0  0  0  0
 12 29  1  0  0  0  0
 13 22  1  0  0  0  0
 13 27  2  0  0  0  0
 14 23  1  0  0  0  0
 14 24  2  0  0  0  0
 15 23  2  0  0  0  0
 15 31  1  0  0  0  0
 16 29  2  0  0  0  0
 16 30  1  0  0  0  0
 17 32  1  0  0  0  0
 18 32  1  0  0  0  0
 18 33  2  0  0  0  0
 18 34  1  0  0  0  0
 19 21  2  0  0  0  0
 19 40  1  0  0  0  0
 20 22  2  0  0  0  0
 20 41  1  0  0  0  0
 21 49  1  0  0  0  0
 22 42  1  0  0  0  0
 23 58  1  0  0  0  0
 24 25  1  0  0  0  0
 24 52  1  0  0  0  0
 25 31  2  0  0  0  0
 25 69  1  0  0  0  0
 26 80  1  0  0  0  0
 27 81  1  0  0  0  0
 28 30  2  0  0  0  0
 28 80  1  0  0  0  0
 29 82  1  0  0  0  0
 30 83  1  0  0  0  0
 31 84  1  0  0  0  0
 32 63  2  0  0  0  0
 33 64  1  0  0  0  0
 33 67  1  0  0  0  0
 34 68  1  0  0  0  0
 34 74  2  0  0  0  0
 35 50  1  0  0  0  0
 35 70  1  0  0  0  0
 35 75  2  0  0  0  0
 36 60  1  0  0  0  0
 36 65  1  0  0  0  0
 36 76  2  0  0  0  0
 37 59  1  0  0  0  0
 37 71  1  0  0  0  0
 37 77  2  0  0  0  0
 38 61  1  0  0  0  0
 38 72  1  0  0  0  0
 38 78  2  0  0  0  0
 39 66  1  0  0  0  0
 39 69  1  0  0  0  0
 39 79  2  0  0  0  0
 40 43  1  0  0  0  0
 41 50  1  0  0  0  0
 42 65  1  0  0  0  0
 43 45  1  0  0  0  0
 44 46  1  0  0  0  0
 44 47  1  0  0  0  0
 45 49  1  0  0  0  0
 46 51  1  0  0  0  0
 47 66  1  0  0  0  0
 48 51  1  0  0  0  0
 48 66  1  0  0  0  0
 49 70  1  0  0  0  0
 50 65  1  0  0  0  0
 51 64  1  0  0  0  0
 53 61  1  0  0  0  0
 54 62  1  0  0  0  0
 55 62  1  0  0  0  0
 56 62  1  0  0  0  0
 57 73  1  0  0  0  0
 58 71  1  0  0  0  0
 59 81  1  0  0  0  0
 60 62  1  0  0  0  0
 60 72  1  0  0  0  0
 61 73  1  0  0  0  0
 63 64  1  0  0  0  0
M  CHG  1  73   1
M  ISO  4  39 100  59 101  69 100  81 101
M  END
> <Batch ID>
0043

> <Smiles>
CNC(C)C(=O)NC(C(=O)N1Cc2cc([101O:1][101CH2:1]C(=O)NCc3cc(C)c([100NH:0][100C:0](=O)N4CCCC(n5nc(-c6ccc(Oc7ccc(F)cc7F)cc6)c(C(N)=O)c5N)C4)c(Cl)c3)ccc2CC1C(=O)NC1CCCc2ccccc21)C(C)(C)C

> <Shape>
0.212

> <Color>
0.191

> <Negative vol penalty>
0.000

$$$$

  -OEChem-04042322153D

 84 92  0     1  0  0  0  0  0999 V2000
  -30.7429  -29.4502   27.4589 C   0  0  0  0  0  0  0  0  0  0  0  0
  -30.5337  -28.8227   26.2350 C   0  0  0  0  0  0  0  0  0  0  0  0
  -26.7760  -10.8682   21.0880 C   0  0  0  0  0  0  0  0  0  0  0  0
  -25.5006  -12.3580   19.6771 C   0  0  0  0  0  0  0  0  0  0  0  0
  -29.6533  -29.8617   28.2253 C   0  0  0  0  0  0  0  0  0  0  0  0
  -29.2345  -28.6054   25.7773 C   0  0  0  0  0  0  0  0  0  0  0  0
  -27.3044  -28.7587   19.9672 C   0  0  0  0  0  0  0  0  0  0  0  0
  -25.6136  -10.1587   21.3896 C   0  0  0  0  0  0  0  0  0  0  0  0
  -24.3382  -11.6485   19.9786 C   0  0  0  0  0  0  0  0  0  0  0  0
  -27.0648  -27.7533   19.0316 C   0  0  0  0  0  0  0  0  0  0  0  0
  -22.1310  -11.4521   22.5322 C   0  0  0  0  0  0  0  0  0  0  0  0
  -20.9873  -12.1858   22.8474 C   0  0  0  0  0  0  0  0  0  0  0  0
  -24.7251  -27.7729   19.6184 C   0  0  0  0  0  0  0  0  0  0  0  0
  -19.8299  -11.1844   20.9779 C   0  0  0  0  0  0  0  0  0  0  0  0
  -30.0897  -21.6612   18.1257 C   0  0  0  0  0  0  0  0  0  0  0  0
  -26.7195  -11.9679   20.2317 C   0  0  0  0  0  0  0  0  0  0  0  0
  -28.8122  -12.4604   18.8585 C   0  0  0  0  0  0  0  0  0  0  0  0
  -28.3403  -29.6580   27.7722 C   0  0  0  0  0  0  0  0  0  0  0  0
  -26.2562  -29.2721   20.7445 C   0  0  0  0  0  0  0  0  0  0  0  0
  -28.1263  -29.0134   26.5389 C   0  0  0  0  0  0  0  0  0  0  0  0
  -24.9535  -28.7867   20.5614 C   0  0  0  0  0  0  0  0  0  0  0  0
  -27.6745  -20.6035   19.0371 C   0  0  0  0  0  0  0  0  0  0  0  0
  -27.6744  -21.6227   18.0847 C   0  0  0  0  0  0  0  0  0  0  0  0
  -28.8822  -20.1132   19.5338 C   0  0  0  0  0  0  0  0  0  0  0  0
  -24.3947  -10.5488   20.8349 C   0  0  0  0  0  0  0  0  0  0  0  0
  -25.7756  -27.2582   18.8591 C   0  0  0  0  0  0  0  0  0  0  0  0
  -22.1243  -10.5847   21.4399 C   0  0  0  0  0  0  0  0  0  0  0  0
  -19.8368  -12.0519   22.0702 C   0  0  0  0  0  0  0  0  0  0  0  0
  -20.9737  -10.4508   20.6627 C   0  0  0  0  0  0  0  0  0  0  0  0
  -28.8821  -22.1515   17.6290 C   0  0  0  0  0  0  0  0  0  0  0  0
  -30.0898  -20.6420   19.0781 C   0  0  0  0  0  0  0  0  0  0  0  0
  -27.9198  -12.7016   19.9203 C   0  0  0  0  0  0  0  0  0  0  0  0
  -29.7810  -13.4239   18.9986 C   0  0  0  0  0  0  0  0  0  0  0  0
  -28.7692  -11.4554   17.8369 C   0  0  0  0  0  0  0  0  0  0  0  0
  -25.6118  -29.3731   23.8555 C   0  0  0  0  0  0  0  0  0  0  0  0
  -23.1232  -31.2127   22.8836 C   0  0  0  0  0  0  0  0  0  0  0  0
  -20.9761  -32.0951   20.3819 C   0  0  0  0  0  0  0  0  0  0  0  0
  -29.8113  -18.8484   21.5044 C   0  0  0  0  0  0  0  0  0  0  0  0
  -27.1937  -30.0777   28.6575 C   0  0  0  0  0  0  0  0  0  0  0  0
  -26.5265  -30.3752   21.7306 C   0  0  0  0  0  0  0  0  0  0  0  0
  -23.7901  -29.3183   21.3566 C   0  0  0  0  0  0  0  0  0  0  0  0
  -25.8546  -30.1468   27.9279 C   0  0  0  0  0  0  0  0  0  0  0  0
  -31.9359  -16.1117   22.3253 C   0  0  0  0  0  0  0  0  0  0  0  0
  -25.6470  -28.9001   27.0738 C   0  0  0  0  0  0  0  0  0  0  0  0
  -31.2314  -14.9056   21.6999 C   0  0  0  0  0  0  0  0  0  0  0  0
  -30.9381  -17.1209   22.8906 C   0  0  0  0  0  0  0  0  0  0  0  0
  -29.1972  -16.3573   21.3236 C   0  0  0  0  0  0  0  0  0  0  0  0
  -26.7324  -28.7822   25.9970 C   0  0  1  0  0  0  0  0  0  0  0  0
  -25.4739  -30.4639   22.8313 C   0  0  1  0  0  0  0  0  0  0  0  0
  -30.1596  -15.3439   20.6827 C   0  0  2  0  0  0  0  0  0  0  0  0
  -26.3755  -20.0387   19.5237 C   0  0  0  0  0  0  0  0  0  0  0  0
  -19.0261  -33.5989   19.8986 C   0  0  0  0  0  0  0  0  0  0  0  0
  -21.2877  -29.3237   24.4239 C   0  0  0  0  0  0  0  0  0  0  0  0
  -19.3534  -30.2799   23.1541 C   0  0  0  0  0  0  0  0  0  0  0  0
  -20.7125  -31.7475   24.6446 C   0  0  0  0  0  0  0  0  0  0  0  0
  -22.4668  -33.5440   18.2754 C   0  0  0  0  0  0  0  0  0  0  0  0
  -26.3683  -22.1405   17.5586 C   0  0  0  0  0  0  0  0  0  0  0  0
  -24.7451  -24.0389   17.5649 C   0  0  0  0  0  0  0  0  0  0  0  0
  -24.4686  -25.3749   18.2259 C   0  0  0  0  0  0  0  0  0  1  0  0
  -21.6991  -30.9469   22.4588 C   0  0  1  0  0  0  0  0  0  0  0  0
  -20.5394  -33.4526   19.8614 C   0  0  2  0  0  0  0  0  0  0  0  0
  -20.7852  -30.5629   23.6566 C   0  0  0  0  0  0  0  0  0  0  0  0
  -28.2890  -13.7370   20.6790 N   0  0  0  0  0  0  0  0  0  0  0  0
  -29.4241  -14.1549   20.0934 N   0  0  0  0  0  0  0  0  0  0  0  0
  -24.1064  -30.3922   22.3128 N   0  0  0  0  0  0  0  0  0  0  0  0
  -29.9561  -17.4933   21.8698 N   0  0  0  0  0  0  0  0  0  0  0  0
  -30.8949  -13.7085   18.2911 N   0  0  0  0  0  0  0  0  0  0  0  0
  -27.7037  -10.5448   17.8399 N   0  0  0  0  0  0  0  0  0  0  0  0
  -28.8706  -19.0776   20.5008 N   0  0  0  0  0  0  0  0  0  0  0  0
  -26.4582  -29.6874   24.9016 N   0  0  0  0  0  0  0  0  0  0  0  0
  -21.2624  -32.1330   21.7302 N   0  0  0  0  0  0  0  0  0  0  0  0
  -20.9952  -33.6392   18.4549 N   0  3  0  0  0  0  0  0  0  0  0  0
  -26.0037  -23.4726   18.1121 N   0  3  0  0  0  0  0  0  0  0  0  0
  -29.6583  -11.3572   16.9574 O   0  0  0  0  0  0  0  0  0  0  0  0
  -24.9949  -28.3246   23.7083 O   0  0  0  0  0  0  0  0  0  0  0  0
  -23.3554  -32.1198   23.6867 O   0  0  0  0  0  0  0  0  0  0  0  0
  -21.0519  -31.0997   19.6650 O   0  0  0  0  0  0  0  0  0  0  0  0
  -30.4925  -19.7367   22.0230 O   0  0  0  0  0  0  0  0  0  0  0  0
  -23.2603   -9.8565   21.1288 O   0  0  0  0  0  0  0  0  0  0  0  0
  -25.5391  -26.2764   17.9470 O   0  0  0  0  0  0  0  0  0  1  0  0
  -18.7381  -12.7553   22.3739 F   0  0  0  0  0  0  0  0  0  0  0  0
  -20.9608   -9.6182   19.6128 F   0  0  0  0  0  0  0  0  0  0  0  0
  -28.9248  -23.4146   16.4523 Cl  0  0  0  0  0  0  0  0  0  0  0  0
  -31.6105  -20.0668   19.6645 Cl  0  0  0  0  0  0  0  0  0  0  0  0
  1  2  1  0  0  0  0
  1  5  2  0  0  0  0
  2  6  2  0  0  0  0
  3  8  2  0  0  0  0
  3 16  1  0  0  0  0
  4  9  1  0  0  0  0
  4 16  2  0  0  0  0
  5 18  1  0  0  0  0
  6 20  1  0  0  0  0
  7 10  2  0  0  0  0
  7 19  1  0  0  0  0
  8 25  1  0  0  0  0
  9 25  2  0  0  0  0
 10 26  1  0  0  0  0
 11 12  2  0  0  0  0
 11 27  1  0  0  0  0
 12 28  1  0  0  0  0
 13 21  1  0  0  0  0
 13 26  2  0  0  0  0
 14 28  2  0  0  0  0
 14 29  1  0  0  0  0
 15 30  2  0  0  0  0
 15 31  1  0  0  0  0
 16 32  1  0  0  0  0
 17 32  1  0  0  0  0
 17 33  2  0  0  0  0
 17 34  1  0  0  0  0
 18 20  2  0  0  0  0
 18 39  1  0  0  0  0
 19 21  2  0  0  0  0
 19 40  1  0  0  0  0
 20 48  1  0  0  0  0
 21 41  1  0  0  0  0
 22 23  2  0  0  0  0
 22 24  1  0  0  0  0
 22 51  1  0  0  0  0
 23 30  1  0  0  0  0
 23 57  1  0  0  0  0
 24 31  2  0  0  0  0
 24 69  1  0  0  0  0
 25 79  1  0  0  0  0
 26 80  1  0  0  0  0
 27 29  2  0  0  0  0
 27 79  1  0  0  0  0
 28 81  1  0  0  0  0
 29 82  1  0  0  0  0
 30 83  1  0  0  0  0
 31 84  1  0  0  0  0
 32 63  2  0  0  0  0
 33 64  1  0  0  0  0
 33 67  1  0  0  0  0
 34 68  1  0  0  0  0
 34 74  2  0  0  0  0
 35 49  1  0  0  0  0
 35 70  1  0  0  0  0
 35 75  2  0  0  0  0
 36 60  1  0  0  0  0
 36 65  1  0  0  0  0
 36 76  2  0  0  0  0
 37 61  1  0  0  0  0
 37 71  1  0  0  0  0
 37 77  2  0  0  0  0
 38 66  1  0  0  0  0
 38 69  1  0  0  0  0
 38 78  2  0  0  0  0
 39 42  1  0  0  0  0
 40 49  1  0  0  0  0
 41 65  1  0  0  0  0
 42 44  1  0  0  0  0
 43 45  1  0  0  0  0
 43 46  1  0  0  0  0
 44 48  1  0  0  0  0
 45 50  1  0  0  0  0
 46 66  1  0  0  0  0
 47 50  1  0  0  0  0
 47 66  1  0  0  0  0
 48 70  1  0  0  0  0
 49 65  1  0  0  0  0
 50 64  1  0  0  0  0
 52 61  1  0  0  0  0
 53 62  1  0  0  0  0
 54 62  1  0  0  0  0
 55 62  1  0  0  0  0
 56 72  1  0  0  0  0
 57 73  1  0  0  0  0
 58 59  1  0  0  0  0
 58 73  1  0  0  0  0
 59 80  1  0  0  0  0
 60 62  1  0  0  0  0
 60 71  1  0  0  0  0
 61 72  1  0  0  0  0
 63 64  1  0  0  0  0
M  CHG  2  72   1  73   1
M  ISO  4  38 100  59 101  69 100  80 101
M  END
> <Batch ID>
0043

> <Smiles>
CNC(C)C(=O)NC(C(=O)N1Cc2cc([101O:1][101CH2:1]CNCc3c(Cl)cc(Cl)c([100NH:0][100C:0](=O)N4CCCC(n5nc(-c6ccc(Oc7ccc(F)cc7F)cc6)c(C(N)=O)c5N)C4)c3C)ccc2CC1C(=O)NC1CCCc2ccccc21)C(C)(C)C

> <Shape>
0.263

> <Color>
0.062

> <Negative vol penalty>
0.000

$$$$

  -OEChem-04042322153D

 89 98  0     1  0  0  0  0  0999 V2000
  -20.7146  -33.1769   24.8472 C   0  0  0  0  0  0  0  0  0  0  0  0
  -21.9535  -32.7332   24.3959 C   0  0  0  0  0  0  0  0  0  0  0  0
  -24.2262   -9.8908   20.5202 C   0  0  0  0  0  0  0  0  0  0  0  0
  -22.5254  -10.5110   22.1201 C   0  0  0  0  0  0  0  0  0  0  0  0
  -19.6776  -32.2654   25.0419 C   0  0  0  0  0  0  0  0  0  0  0  0
  -22.1565  -31.3775   24.1401 C   0  0  0  0  0  0  0  0  0  0  0  0
  -25.6774  -28.9444   19.7596 C   0  0  0  0  0  0  0  0  0  0  0  0
  -27.6203  -21.4318   19.6638 C   0  0  0  0  0  0  0  0  0  0  0  0
  -26.5615  -20.5488   19.4520 C   0  0  0  0  0  0  0  0  0  0  0  0
  -23.6896   -8.6053   20.4480 C   0  0  0  0  0  0  0  0  0  0  0  0
  -21.9888   -9.2255   22.0479 C   0  0  0  0  0  0  0  0  0  0  0  0
  -26.9726  -28.4287   19.7758 C   0  0  0  0  0  0  0  0  0  0  0  0
  -22.6832   -6.1621   23.2984 C   0  0  0  0  0  0  0  0  0  0  0  0
  -22.3420   -5.5340   24.4962 C   0  0  0  0  0  0  0  0  0  0  0  0
  -26.0771  -26.2042   20.0383 C   0  0  0  0  0  0  0  0  0  0  0  0
  -28.1312  -18.8053   18.8745 C   0  0  0  0  0  0  0  0  0  0  0  0
  -20.0472   -5.3728   23.7580 C   0  0  0  0  0  0  0  0  0  0  0  0
  -23.6442  -10.8436   21.3563 C   0  0  0  0  0  0  0  0  0  0  0  0
  -25.5004  -12.5278   21.8313 C   0  0  0  0  0  0  0  0  0  0  0  0
  -19.8651  -30.8993   24.7792 C   0  0  0  0  0  0  0  0  0  0  0  0
  -24.5708  -28.0937   19.8939 C   0  0  0  0  0  0  0  0  0  0  0  0
  -21.1214  -30.4468   24.3328 C   0  0  0  0  0  0  0  0  0  0  0  0
  -24.7688  -26.7114   20.0209 C   0  0  0  0  0  0  0  0  0  0  0  0
  -28.9345  -21.0016   19.4808 C   0  0  0  0  0  0  0  0  0  0  0  0
  -29.1900  -19.6884   19.0862 C   0  0  0  0  0  0  0  0  0  0  0  0
  -26.8170  -19.2355   19.0574 C   0  0  0  0  0  0  0  0  0  0  0  0
  -22.5709   -8.2727   21.2118 C   0  0  0  0  0  0  0  0  0  0  0  0
  -27.1727  -27.0587   19.9180 C   0  0  0  0  0  0  0  0  0  0  0  0
  -21.7063   -6.3956   22.3304 C   0  0  0  0  0  0  0  0  0  0  0  0
  -21.0240   -5.1394   24.7260 C   0  0  0  0  0  0  0  0  0  0  0  0
  -20.3883   -6.0009   22.5602 C   0  0  0  0  0  0  0  0  0  0  0  0
  -24.1984  -12.1715   21.4317 C   0  0  0  0  0  0  0  0  0  0  0  0
  -25.5280  -13.8973   21.7300 C   0  0  0  0  0  0  0  0  0  0  0  0
  -29.1070  -24.2654   19.7526 C   0  0  0  0  0  0  0  0  0  0  0  0
  -26.5877  -11.6953   22.2560 C   0  0  0  0  0  0  0  0  0  0  0  0
  -22.2173  -27.7913   22.0089 C   0  0  0  0  0  0  0  0  0  0  0  0
  -21.1091  -25.6088   19.8803 C   0  0  0  0  0  0  0  0  0  0  0  0
  -21.7920  -23.4287   17.3451 C   0  0  0  0  0  0  0  0  0  0  0  0
  -24.3798  -18.6023   18.9829 C   0  0  0  0  0  0  0  0  0  0  0  0
  -18.7287  -29.9453   25.0498 C   0  0  0  0  0  0  0  0  0  0  0  0
  -23.1793  -28.6628   19.8476 C   0  0  0  0  0  0  0  0  0  0  0  0
  -23.6137  -25.7532   20.1481 C   0  0  0  0  0  0  0  0  0  0  0  0
  -18.9132  -28.5775   24.3977 C   0  0  0  0  0  0  0  0  0  0  0  0
  -30.0414  -24.3660   22.5522 C   0  0  0  0  0  0  0  0  0  0  0  0
  -21.7832  -17.2215   20.9899 C   0  0  0  0  0  0  0  0  0  0  0  0
  -20.3256  -28.0558   24.6421 C   0  0  0  0  0  0  0  0  0  0  0  0
  -29.7134  -25.6241   21.7503 C   0  0  0  0  0  0  0  0  0  0  0  0
  -22.2872  -15.8139   21.3167 C   0  0  0  0  0  0  0  0  0  0  0  0
  -29.5485  -23.0841   21.8867 C   0  0  0  0  0  0  0  0  0  0  0  0
  -22.1636  -17.6453   19.5724 C   0  0  0  0  0  0  0  0  0  0  0  0
  -24.0950  -16.1160   19.5767 C   0  0  0  0  0  0  0  0  0  0  0  0
  -21.3731  -28.9875   24.0207 C   0  0  1  0  0  0  0  0  0  0  0  0
  -28.6481  -25.3737   20.6906 C   0  0  1  0  0  0  0  0  0  1  0  0
  -22.1422  -27.7600   20.5086 C   0  0  1  0  0  0  0  0  0  0  0  0
  -23.7922  -15.6704   21.0166 C   0  0  2  0  0  0  0  0  0  0  0  0
  -20.6879  -21.7579   15.8328 C   0  0  0  0  0  0  0  0  0  0  0  0
  -31.1795  -18.6259   20.1687 C   0  0  0  0  0  0  0  0  0  0  0  0
  -20.9788  -23.6130   22.1845 C   0  0  0  0  0  0  0  0  0  0  0  0
  -20.8015  -21.7766   20.4920 C   0  0  0  0  0  0  0  0  0  0  0  0
  -19.0300  -23.5282   20.6195 C   0  0  0  0  0  0  0  0  0  0  0  0
  -22.5488  -24.9489   14.9212 C   0  0  0  0  0  0  0  0  0  0  0  0
  -30.0574  -21.9706   19.7141 C   0  0  0  0  0  0  0  0  0  0  0  0
  -21.2975  -24.1253   19.6742 C   0  0  1  0  0  0  0  0  0  0  0  0
  -21.1228  -23.2055   16.0009 C   0  0  2  0  0  0  0  0  0  0  0  0
  -30.5889  -19.2050   18.8862 C   0  0  0  0  0  0  0  0  0  0  0  0
  -20.5490  -23.2788   20.7421 C   0  0  0  0  0  0  0  0  0  0  0  0
  -23.4528  -13.2293   21.1014 N   0  0  0  0  0  0  0  0  0  0  0  0
  -24.2890  -14.2637   21.2933 N   0  0  0  0  0  0  0  0  0  0  0  0
  -29.6143  -23.1542   20.4315 N   0  0  0  0  0  0  0  0  0  0  0  0
  -22.2725  -26.3588   20.1037 N   0  0  0  0  0  0  0  0  0  0  0  0
  -23.6042  -17.4864   19.3622 N   0  0  0  0  0  0  0  0  0  0  0  0
  -26.4909  -14.8117   21.9729 N   0  0  0  0  0  0  0  0  0  0  0  0
  -26.7106  -11.4013   23.6208 N   0  0  0  0  0  0  0  0  0  0  0  0
  -25.7418  -18.3375   18.8441 N   0  0  0  0  0  0  0  0  0  0  0  0
  -21.4480  -28.7811   22.5902 N   0  0  0  0  0  0  0  0  0  0  0  0
  -20.8911  -23.8492   18.3005 N   0  0  0  0  0  0  0  0  0  0  0  0
  -22.0594  -23.5465   14.8930 N   0  3  0  0  0  0  0  0  0  0  0  0
  -29.0154  -24.3654   18.5304 O   0  0  0  0  0  0  0  0  0  0  0  0
  -27.4350  -11.2394   21.4511 O   0  0  0  0  0  0  0  0  0  0  0  0
  -22.9201  -26.9768   22.5958 O   0  0  0  0  0  0  0  0  0  0  0  0
  -19.9724  -26.0858   19.8374 O   0  0  0  0  0  0  0  0  0  0  0  0
  -22.9930  -23.2446   17.5300 O   0  0  0  0  0  0  0  0  0  0  0  0
  -23.8771  -19.7174   18.8216 O   0  0  0  0  0  0  0  0  0  0  0  0
  -22.0468   -7.0185   21.1414 O   0  0  0  0  0  0  0  0  0  0  0  0
  -28.4359  -26.5527   19.9348 O   0  0  0  0  0  0  0  0  0  1  0  0
  -20.6968   -4.5348   25.8757 F   0  0  0  0  0  0  0  0  0  0  0  0
  -19.4458   -6.2215   21.6336 F   0  0  0  0  0  0  0  0  0  0  0  0
  -31.4397  -20.1924   18.4611 F   0  0  0  0  0  0  0  0  0  0  0  0
  -30.6860  -18.2337   17.9236 F   0  0  0  0  0  0  0  0  0  0  0  0
  1  2  1  0  0  0  0
  1  5  2  0  0  0  0
  2  6  2  0  0  0  0
  3 10  2  0  0  0  0
  3 18  1  0  0  0  0
  4 11  1  0  0  0  0
  4 18  2  0  0  0  0
  5 20  1  0  0  0  0
  6 22  1  0  0  0  0
  7 12  2  0  0  0  0
  7 21  1  0  0  0  0
  8  9  2  0  0  0  0
  8 24  1  0  0  0  0
  9 26  1  0  0  0  0
 10 27  1  0  0  0  0
 11 27  2  0  0  0  0
 12 28  1  0  0  0  0
 13 14  2  0  0  0  0
 13 29  1  0  0  0  0
 14 30  1  0  0  0  0
 15 23  1  0  0  0  0
 15 28  2  0  0  0  0
 16 25  1  0  0  0  0
 16 26  2  0  0  0  0
 17 30  2  0  0  0  0
 17 31  1  0  0  0  0
 18 32  1  0  0  0  0
 19 32  1  0  0  0  0
 19 33  2  0  0  0  0
 19 35  1  0  0  0  0
 20 22  2  0  0  0  0
 20 40  1  0  0  0  0
 21 23  2  0  0  0  0
 21 41  1  0  0  0  0
 22 52  1  0  0  0  0
 23 42  1  0  0  0  0
 24 25  2  0  0  0  0
 24 62  1  0  0  0  0
 25 65  1  0  0  0  0
 26 74  1  0  0  0  0
 27 84  1  0  0  0  0
 28 85  1  0  0  0  0
 29 31  2  0  0  0  0
 29 84  1  0  0  0  0
 30 86  1  0  0  0  0
 31 87  1  0  0  0  0
 32 67  2  0  0  0  0
 33 68  1  0  0  0  0
 33 72  1  0  0  0  0
 34 53  1  0  0  0  0
 34 69  1  0  0  0  0
 34 78  2  0  0  0  0
 35 73  1  0  0  0  0
 35 79  2  0  0  0  0
 36 54  1  0  0  0  0
 36 75  1  0  0  0  0
 36 80  2  0  0  0  0
 37 63  1  0  0  0  0
 37 70  1  0  0  0  0
 37 81  2  0  0  0  0
 38 64  1  0  0  0  0
 38 76  1  0  0  0  0
 38 82  2  0  0  0  0
 39 71  1  0  0  0  0
 39 74  1  0  0  0  0
 39 83  2  0  0  0  0
 40 43  1  0  0  0  0
 41 54  1  0  0  0  0
 42 70  1  0  0  0  0
 43 46  1  0  0  0  0
 44 47  1  0  0  0  0
 44 49  1  0  0  0  0
 45 48  1  0  0  0  0
 45 50  1  0  0  0  0
 46 52  1  0  0  0  0
 47 53  1  0  0  0  0
 48 55  1  0  0  0  0
 49 69  1  0  0  0  0
 50 71  1  0  0  0  0
 51 55  1  0  0  0  0
 51 71  1  0  0  0  0
 52 75  1  0  0  0  0
 53 85  1  0  0  0  0
 54 70  1  0  0  0  0
 55 68  1  0  0  0  0
 56 64  1  0  0  0  0
 57 65  1  0  0  0  0
 58 66  1  0  0  0  0
 59 66  1  0  0  0  0
 60 66  1  0  0  0  0
 61 77  1  0  0  0  0
 62 69  1  0  0  0  0
 63 66  1  0  0  0  0
 63 76  1  0  0  0  0
 64 77  1  0  0  0  0
 65 88  1  0  0  0  0
 65 89  1  0  0  0  0
 67 68  1  0  0  0  0
M  CHG  1  77   1
M  ISO  4  39 100  53 101  74 100  85 101
M  END
> <Batch ID>
0043

> <Smiles>
CNC(C)C(=O)NC(C(=O)N1Cc2cc([101O:1][101CH:1]3CCCN(Cc4ccc([100NH:0][100C:0](=O)N5CCCC(n6nc(-c7ccc(Oc8ccc(F)cc8F)cc7)c(C(N)=O)c6N)C5)cc4C(C)(F)F)C3=O)ccc2CC1C(=O)NC1CCCc2ccccc21)C(C)(C)C

> <Shape>
0.235

> <Color>
0.100

> <Negative vol penalty>
0.000

$$$$

  -OEChem-04042322153D

 87 95  0     1  0  0  0  0  0999 V2000
  -30.7544  -26.4579   16.7642 C   0  0  0  0  0  0  0  0  0  0  0  0
  -29.3754  -26.3181   16.8843 C   0  0  0  0  0  0  0  0  0  0  0  0
  -27.9983  -16.3670   19.8837 C   0  0  0  0  0  0  0  0  0  0  0  0
  -25.7161  -16.7970   20.5498 C   0  0  0  0  0  0  0  0  0  0  0  0
  -31.5039  -26.9194   17.8454 C   0  0  0  0  0  0  0  0  0  0  0  0
  -28.7454  -26.6386   18.0863 C   0  0  0  0  0  0  0  0  0  0  0  0
  -23.1775  -29.0913   18.7846 C   0  0  0  0  0  0  0  0  0  0  0  0
  -24.4185  -24.7907   27.0173 C   0  0  0  0  0  0  0  0  0  0  0  0
  -25.3744  -24.5117   26.0407 C   0  0  0  0  0  0  0  0  0  0  0  0
  -27.8162  -15.0075   20.1372 C   0  0  0  0  0  0  0  0  0  0  0  0
  -25.5340  -15.4375   20.8033 C   0  0  0  0  0  0  0  0  0  0  0  0
  -21.9358  -28.5305   19.0803 C   0  0  0  0  0  0  0  0  0  0  0  0
  -27.8426  -11.3746   20.2649 C   0  0  0  0  0  0  0  0  0  0  0  0
  -28.3212  -10.4686   19.3185 C   0  0  0  0  0  0  0  0  0  0  0  0
  -23.6664  -23.5127   24.6543 C   0  0  0  0  0  0  0  0  0  0  0  0
  -22.2605  -29.0559   21.4122 C   0  0  0  0  0  0  0  0  0  0  0  0
  -26.8741  -11.4473   17.6496 C   0  0  0  0  0  0  0  0  0  0  0  0
  -26.9483  -17.2617   20.0900 C   0  0  0  0  0  0  0  0  0  0  0  0
  -22.7105  -23.7917   25.6311 C   0  0  0  0  0  0  0  0  0  0  0  0
  -26.9092  -19.3431   18.6155 C   0  0  0  0  0  0  0  0  0  0  0  0
  -30.8815  -27.2549   19.0582 C   0  0  0  0  0  0  0  0  0  0  0  0
  -23.9761  -29.6298   19.8038 C   0  0  0  0  0  0  0  0  0  0  0  0
  -29.4875  -27.1037   19.1852 C   0  0  0  0  0  0  0  0  0  0  0  0
  -23.5108  -29.6253   21.1265 C   0  0  0  0  0  0  0  0  0  0  0  0
  -23.0865  -24.4307   26.8126 C   0  0  0  0  0  0  0  0  0  0  0  0
  -24.9984  -23.8727   24.8592 C   0  0  0  0  0  0  0  0  0  0  0  0
  -26.5841  -14.5428   20.5970 C   0  0  0  0  0  0  0  0  0  0  0  0
  -21.4784  -28.5101   20.3946 C   0  0  0  0  0  0  0  0  0  0  0  0
  -26.8796  -12.3169   19.9037 C   0  0  0  0  0  0  0  0  0  0  0  0
  -27.8370  -10.5050   18.0109 C   0  0  0  0  0  0  0  0  0  0  0  0
  -26.3954  -12.3533   18.5961 C   0  0  0  0  0  0  0  0  0  0  0  0
  -27.1360  -18.6663   19.8289 C   0  0  0  0  0  0  0  0  0  0  0  0
  -27.2334  -20.6501   18.8856 C   0  0  0  0  0  0  0  0  0  0  0  0
  -21.3040  -23.3994   25.3877 C   0  0  0  0  0  0  0  0  0  0  0  0
  -26.4467  -18.8356   17.3568 C   0  0  0  0  0  0  0  0  0  0  0  0
  -26.8547  -28.9734   20.9812 C   0  0  0  0  0  0  0  0  0  0  0  0
  -26.3298  -31.6636   22.7161 C   0  0  0  0  0  0  0  0  0  0  0  0
  -24.0817  -33.8455   24.0695 C   0  0  0  0  0  0  0  0  0  0  0  0
  -27.3339  -23.8756   23.9146 C   0  0  0  0  0  0  0  0  0  0  0  0
  -19.3558  -23.7997   23.7858 C   0  0  0  0  0  0  0  0  0  0  0  0
  -31.7394  -27.7046   20.2143 C   0  0  0  0  0  0  0  0  0  0  0  0
  -25.3013  -30.2552   19.4646 C   0  0  0  0  0  0  0  0  0  0  0  0
  -24.3210  -30.2088   22.2541 C   0  0  0  0  0  0  0  0  0  0  0  0
  -30.9491  -28.3786   21.3330 C   0  0  0  0  0  0  0  0  0  0  0  0
  -30.0602  -23.3030   21.6973 C   0  0  0  0  0  0  0  0  0  0  0  0
  -29.7044  -27.5649   21.6724 C   0  0  0  0  0  0  0  0  0  0  0  0
  -29.5965  -22.1144   20.8520 C   0  0  0  0  0  0  0  0  0  0  0  0
  -29.5939  -23.1840   23.1472 C   0  0  0  0  0  0  0  0  0  0  0  0
  -27.6888  -21.7744   22.4744 C   0  0  0  0  0  0  0  0  0  0  0  0
  -28.7646  -27.4646   20.4648 C   0  0  1  0  0  0  0  0  0  0  0  0
  -26.2567  -30.3121   20.6527 C   0  0  1  0  0  0  0  0  0  0  0  0
  -28.0793  -21.8817   20.9912 C   0  0  2  0  0  0  0  0  0  0  0  0
  -22.0831  -24.7414   27.8749 C   0  0  0  0  0  0  0  0  0  0  0  0
  -23.9518  -35.9263   25.4664 C   0  0  0  0  0  0  0  0  0  0  0  0
  -26.9430  -30.0221   25.2139 C   0  0  0  0  0  0  0  0  0  0  0  0
  -25.8925  -31.8379   26.5804 C   0  0  0  0  0  0  0  0  0  0  0  0
  -27.9209  -32.3239   25.2122 C   0  0  0  0  0  0  0  0  0  0  0  0
  -22.7550  -35.3589   21.8996 C   0  0  0  0  0  0  0  0  0  0  0  0
  -18.9585  -25.9515   20.6773 C   0  0  0  0  0  0  0  0  0  0  0  0
  -19.7250  -25.3347   21.8390 C   0  0  0  0  0  0  0  0  0  0  0  0
  -19.8167  -26.8987   19.8485 C   0  0  0  0  0  0  0  0  0  1  0  0
  -25.7017  -31.9667   24.0549 C   0  0  1  0  0  0  0  0  0  0  0  0
  -24.0161  -35.3621   24.0556 C   0  0  2  0  0  0  0  0  0  0  0  0
  -26.5999  -31.5248   25.2446 C   0  0  0  0  0  0  0  0  0  0  0  0
  -27.5709  -19.4764   20.7977 N   0  0  0  0  0  0  0  0  0  0  0  0
  -27.6200  -20.6757   20.1933 N   0  0  0  0  0  0  0  0  0  0  0  0
  -25.6128  -30.8031   21.8727 N   0  0  0  0  0  0  0  0  0  0  0  0
  -28.1462  -22.9692   23.2010 N   0  0  0  0  0  0  0  0  0  0  0  0
  -27.2227  -21.7686   18.1297 N   0  0  0  0  0  0  0  0  0  0  0  0
  -26.1594  -17.4678   17.2528 N   0  0  0  0  0  0  0  0  0  0  0  0
  -18.5253  -22.9550   24.5231 N   0  0  0  0  0  0  0  0  0  0  0  0
  -25.9702  -23.5876   23.8682 N   0  0  0  0  0  0  0  0  0  0  0  0
  -20.6764  -23.9881   24.2287 N   0  0  0  0  0  0  0  0  0  0  0  0
  -28.0232  -28.6962   20.2977 N   0  0  0  0  0  0  0  0  0  0  0  0
  -25.3830  -33.3904   24.0434 N   0  0  0  0  0  0  0  0  0  0  0  0
  -18.8852  -24.4436   22.6362 N   0  3  0  0  0  0  0  0  0  0  0  0
  -22.8102  -35.8216   23.3102 N   0  3  0  0  0  0  0  0  0  0  0  0
  -20.7285  -22.6341   26.1504 O   0  0  0  0  0  0  0  0  0  0  0  0
  -26.3084  -19.5704   16.3496 O   0  0  0  0  0  0  0  0  0  0  0  0
  -26.2981  -28.2465   21.7957 O   0  0  0  0  0  0  0  0  0  0  0  0
  -27.4133  -32.1772   22.4262 O   0  0  0  0  0  0  0  0  0  0  0  0
  -23.0790  -33.1357   24.1043 O   0  0  0  0  0  0  0  0  0  0  0  0
  -27.8099  -24.8519   24.4996 O   0  0  0  0  0  0  0  0  0  0  0  0
  -26.4059  -13.2162   20.8442 O   0  0  0  0  0  0  0  0  0  0  0  0
  -20.2671  -27.9627   20.6861 O   0  0  0  0  0  0  0  0  0  1  0  0
  -28.2979   -9.6359   17.1018 F   0  0  0  0  0  0  0  0  0  0  0  0
  -25.4711  -13.2571   18.2428 F   0  0  0  0  0  0  0  0  0  0  0  0
  1  2  1  0  0  0  0
  1  5  2  0  0  0  0
  2  6  2  0  0  0  0
  3 10  2  0  0  0  0
  3 18  1  0  0  0  0
  4 11  1  0  0  0  0
  4 18  2  0  0  0  0
  5 21  1  0  0  0  0
  6 23  1  0  0  0  0
  7 12  2  0  0  0  0
  7 22  1  0  0  0  0
  8  9  2  0  0  0  0
  8 25  1  0  0  0  0
  9 26  1  0  0  0  0
 10 27  1  0  0  0  0
 11 27  2  0  0  0  0
 12 28  1  0  0  0  0
 13 14  2  0  0  0  0
 13 29  1  0  0  0  0
 14 30  1  0  0  0  0
 15 19  1  0  0  0  0
 15 26  2  0  0  0  0
 16 24  1  0  0  0  0
 16 28  2  0  0  0  0
 17 30  2  0  0  0  0
 17 31  1  0  0  0  0
 18 32  1  0  0  0  0
 19 25  2  0  0  0  0
 19 34  1  0  0  0  0
 20 32  1  0  0  0  0
 20 33  2  0  0  0  0
 20 35  1  0  0  0  0
 21 23  2  0  0  0  0
 21 41  1  0  0  0  0
 22 24  2  0  0  0  0
 22 42  1  0  0  0  0
 23 50  1  0  0  0  0
 24 43  1  0  0  0  0
 25 53  1  0  0  0  0
 26 72  1  0  0  0  0
 27 84  1  0  0  0  0
 28 85  1  0  0  0  0
 29 31  2  0  0  0  0
 29 84  1  0  0  0  0
 30 86  1  0  0  0  0
 31 87  1  0  0  0  0
 32 65  2  0  0  0  0
 33 66  1  0  0  0  0
 33 69  1  0  0  0  0
 34 73  1  0  0  0  0
 34 78  2  0  0  0  0
 35 70  1  0  0  0  0
 35 79  2  0  0  0  0
 36 51  1  0  0  0  0
 36 74  1  0  0  0  0
 36 80  2  0  0  0  0
 37 62  1  0  0  0  0
 37 67  1  0  0  0  0
 37 81  2  0  0  0  0
 38 63  1  0  0  0  0
 38 75  1  0  0  0  0
 38 82  2  0  0  0  0
 39 68  1  0  0  0  0
 39 72  1  0  0  0  0
 39 83  2  0  0  0  0
 40 71  1  0  0  0  0
 40 73  1  0  0  0  0
 40 76  2  0  0  0  0
 41 44  1  0  0  0  0
 42 51  1  0  0  0  0
 43 67  1  0  0  0  0
 44 46  1  0  0  0  0
 45 47  1  0  0  0  0
 45 48  1  0  0  0  0
 46 50  1  0  0  0  0
 47 52  1  0  0  0  0
 48 68  1  0  0  0  0
 49 52  1  0  0  0  0
 49 68  1  0  0  0  0
 50 74  1  0  0  0  0
 51 67  1  0  0  0  0
 52 66  1  0  0  0  0
 54 63  1  0  0  0  0
 55 64  1  0  0  0  0
 56 64  1  0  0  0  0
 57 64  1  0  0  0  0
 58 77  1  0  0  0  0
 59 60  1  0  0  0  0
 59 61  1  0  0  0  0
 60 76  1  0  0  0  0
 61 85  1  0  0  0  0
 62 64  1  0  0  0  0
 62 75  1  0  0  0  0
 63 77  1  0  0  0  0
 65 66  1  0  0  0  0
M  CHG  2  76   1  77   1
M  ISO  4  39 100  61 101  72 100  85 101
M  END
> <Batch ID>
0043

> <Smiles>
CNC(C)C(=O)NC(C(=O)N1Cc2cc([101O:1][101CH2:1]CCNC(N)=NC(=O)c3cc([100NH:0][100C:0](=O)N4CCCC(n5nc(-c6ccc(Oc7ccc(F)cc7F)cc6)c(C(N)=O)c5N)C4)ccc3C)ccc2CC1C(=O)NC1CCCc2ccccc21)C(C)(C)C

> <Shape>
0.264

> <Color>
0.054

> <Negative vol penalty>
0.000

$$$$

  -OEChem-04042322153D

 85 93  0     1  0  0  0  0  0999 V2000
  -26.3021  -30.5491   24.4305 C   0  0  0  0  0  0  0  0  0  0  0  0
  -27.2096  -29.5294   24.1618 C   0  0  0  0  0  0  0  0  0  0  0  0
  -23.1447   -9.8313   19.8746 C   0  0  0  0  0  0  0  0  0  0  0  0
  -23.9219   -9.7724   22.1614 C   0  0  0  0  0  0  0  0  0  0  0  0
  -25.4139  -30.9687   23.4411 C   0  0  0  0  0  0  0  0  0  0  0  0
  -27.2287  -28.9281   22.9039 C   0  0  0  0  0  0  0  0  0  0  0  0
  -31.9254  -28.3292   21.1076 C   0  0  0  0  0  0  0  0  0  0  0  0
  -32.4250  -17.6905   23.6521 C   0  0  0  0  0  0  0  0  0  0  0  0
  -31.8673  -16.8227   22.7132 C   0  0  0  0  0  0  0  0  0  0  0  0
  -22.4509   -8.6388   20.0796 C   0  0  0  0  0  0  0  0  0  0  0  0
  -23.2280   -8.5799   22.3665 C   0  0  0  0  0  0  0  0  0  0  0  0
  -32.6719  -27.2682   21.6182 C   0  0  0  0  0  0  0  0  0  0  0  0
  -20.0403   -7.6241   22.9544 C   0  0  0  0  0  0  0  0  0  0  0  0
  -19.2950   -7.5032   24.1272 C   0  0  0  0  0  0  0  0  0  0  0  0
  -32.1524  -25.9660   19.6551 C   0  0  0  0  0  0  0  0  0  0  0  0
  -29.6548  -17.5533   23.3523 C   0  0  0  0  0  0  0  0  0  0  0  0
  -20.6209   -5.5893   24.7724 C   0  0  0  0  0  0  0  0  0  0  0  0
  -23.8802  -10.3982   20.9155 C   0  0  0  0  0  0  0  0  0  0  0  0
  -24.1169  -12.9381   20.9014 C   0  0  0  0  0  0  0  0  0  0  0  0
  -25.4285  -30.3788   22.1674 C   0  0  0  0  0  0  0  0  0  0  0  0
  -31.2767  -28.2125   19.8699 C   0  0  0  0  0  0  0  0  0  0  0  0
  -26.3388  -29.3393   21.8970 C   0  0  0  0  0  0  0  0  0  0  0  0
  -31.4004  -27.0279   19.1299 C   0  0  0  0  0  0  0  0  0  0  0  0
  -31.5977  -18.4896   24.4411 C   0  0  0  0  0  0  0  0  0  0  0  0
  -30.4822  -16.7541   22.5633 C   0  0  0  0  0  0  0  0  0  0  0  0
  -22.4925   -8.0131   21.3256 C   0  0  0  0  0  0  0  0  0  0  0  0
  -32.7831  -26.0853   20.8933 C   0  0  0  0  0  0  0  0  0  0  0  0
  -21.0759   -6.7276   22.6905 C   0  0  0  0  0  0  0  0  0  0  0  0
  -19.5853   -6.4858   25.0362 C   0  0  0  0  0  0  0  0  0  0  0  0
  -21.3662   -5.7103   23.5996 C   0  0  0  0  0  0  0  0  0  0  0  0
  -30.2126  -18.4210   24.2912 C   0  0  0  0  0  0  0  0  0  0  0  0
  -24.5976  -11.6298   20.7041 C   0  0  0  0  0  0  0  0  0  0  0  0
  -25.1744  -13.7470   20.5637 C   0  0  0  0  0  0  0  0  0  0  0  0
  -32.9326  -22.7750   23.9052 C   0  0  0  0  0  0  0  0  0  0  0  0
  -33.7879  -23.4831   23.1550 C   0  0  0  0  0  0  0  0  0  0  0  0
  -22.8297  -13.3826   21.3498 C   0  0  0  0  0  0  0  0  0  0  0  0
  -33.2090  -21.3450   24.2142 C   0  0  0  0  0  0  0  0  0  0  0  0
  -28.2495  -28.3124   18.9057 C   0  0  0  0  0  0  0  0  0  0  0  0
  -29.5916  -28.1617   15.9564 C   0  0  0  0  0  0  0  0  0  0  0  0
  -32.2597  -27.2574   14.0302 C   0  0  0  0  0  0  0  0  0  0  0  0
  -30.5941  -15.0099   20.7490 C   0  0  0  0  0  0  0  0  0  0  0  0
  -24.4172  -30.8336   21.1451 C   0  0  0  0  0  0  0  0  0  0  0  0
  -30.4974  -29.3759   19.3207 C   0  0  0  0  0  0  0  0  0  0  0  0
  -30.7401  -26.8594   17.7868 C   0  0  0  0  0  0  0  0  0  0  0  0
  -24.7545  -30.4010   19.7205 C   0  0  0  0  0  0  0  0  0  0  0  0
  -29.5612  -12.6546   18.2867 C   0  0  0  0  0  0  0  0  0  0  0  0
  -25.1532  -28.9290   19.6898 C   0  0  0  0  0  0  0  0  0  0  0  0
  -28.1382  -12.2857   18.7124 C   0  0  0  0  0  0  0  0  0  0  0  0
  -30.4756  -12.8700   19.4914 C   0  0  0  0  0  0  0  0  0  0  0  0
  -28.5515  -13.4555   20.9141 C   0  0  0  0  0  0  0  0  0  0  0  0
  -26.4068  -28.6793   20.5369 C   0  0  1  0  0  0  0  0  0  0  0  0
  -29.4548  -28.9619   18.2867 C   0  0  1  0  0  0  0  0  0  0  0  0
  -27.5773  -13.2922   19.7360 C   0  0  2  0  0  0  0  0  0  0  0  0
  -33.0487  -27.2248   11.6482 C   0  0  0  0  0  0  0  0  0  0  0  0
  -27.7819  -25.7708   15.3921 C   0  0  0  0  0  0  0  0  0  0  0  0
  -29.2464  -25.2115   13.4401 C   0  0  0  0  0  0  0  0  0  0  0  0
  -28.0107  -27.3779   13.4897 C   0  0  0  0  0  0  0  0  0  0  0  0
  -34.5558  -29.0206   14.6449 C   0  0  0  0  0  0  0  0  0  0  0  0
  -32.2376  -19.4103   25.4396 C   0  0  0  0  0  0  0  0  0  0  0  0
  -33.5776  -24.9222   22.8095 C   0  0  0  0  0  0  0  0  0  1  0  0
  -29.9951  -27.0475   15.0211 C   0  0  1  0  0  0  0  0  0  0  0  0
  -33.0241  -28.0056   12.9531 C   0  0  2  0  0  0  0  0  0  0  0  0
  -28.7695  -26.3541   14.3619 C   0  0  0  0  0  0  0  0  0  0  0  0
  -25.8619  -11.6043   20.2743 N   0  0  0  0  0  0  0  0  0  0  0  0
  -26.1847  -12.9066   20.1986 N   0  0  0  0  0  0  0  0  0  0  0  0
  -29.9839  -28.0230   17.2953 N   0  0  0  0  0  0  0  0  0  0  0  0
  -29.8817  -13.8386   20.4154 N   0  0  0  0  0  0  0  0  0  0  0  0
  -25.3292  -15.0879   20.5464 N   0  0  0  0  0  0  0  0  0  0  0  0
  -21.8587  -12.4188   21.6542 N   0  0  0  0  0  0  0  0  0  0  0  0
  -29.9158  -15.8717   21.6102 N   0  0  0  0  0  0  0  0  0  0  0  0
  -32.2139  -20.7871   24.9988 N   0  0  0  0  0  0  0  0  0  0  0  0
  -27.5916  -29.1075   19.8247 N   0  0  0  0  0  0  0  0  0  0  0  0
  -30.9336  -27.6329   14.0698 N   0  0  0  0  0  0  0  0  0  0  0  0
  -34.4304  -28.2425   13.3856 N   0  3  0  0  0  0  0  0  0  0  0  0
  -22.5434  -14.5988   21.4612 O   0  0  0  0  0  0  0  0  0  0  0  0
  -34.2080  -20.7633   23.8040 O   0  0  0  0  0  0  0  0  0  0  0  0
  -27.9385  -27.1747   18.5730 O   0  0  0  0  0  0  0  0  0  0  0  0
  -28.9581  -29.1232   15.5138 O   0  0  0  0  0  0  0  0  0  0  0  0
  -32.7855  -26.4205   14.7608 O   0  0  0  0  0  0  0  0  0  0  0  0
  -31.7116  -15.2449   20.2821 O   0  0  0  0  0  0  0  0  0  0  0  0
  -21.8155   -6.8495   21.5261 O   0  0  0  0  0  0  0  0  0  0  0  0
  -33.5106  -25.0479   21.3896 O   0  0  0  0  0  0  0  0  0  1  0  0
  -18.8705   -6.3707   26.1631 F   0  0  0  0  0  0  0  0  0  0  0  0
  -22.3607   -4.8467   23.3521 F   0  0  0  0  0  0  0  0  0  0  0  0
  -29.1577  -19.3942   25.2503 Cl  0  0  0  0  0  0  0  0  0  0  0  0
  1  2  1  0  0  0  0
  1  5  2  0  0  0  0
  2  6  2  0  0  0  0
  3 10  2  0  0  0  0
  3 18  1  0  0  0  0
  4 11  1  0  0  0  0
  4 18  2  0  0  0  0
  5 20  1  0  0  0  0
  6 22  1  0  0  0  0
  7 12  2  0  0  0  0
  7 21  1  0  0  0  0
  8  9  2  0  0  0  0
  8 24  1  0  0  0  0
  9 25  1  0  0  0  0
 10 26  1  0  0  0  0
 11 26  2  0  0  0  0
 12 27  1  0  0  0  0
 13 14  2  0  0  0  0
 13 28  1  0  0  0  0
 14 29  1  0  0  0  0
 15 23  1  0  0  0  0
 15 27  2  0  0  0  0
 16 25  2  0  0  0  0
 16 31  1  0  0  0  0
 17 29  2  0  0  0  0
 17 30  1  0  0  0  0
 18 32  1  0  0  0  0
 19 32  1  0  0  0  0
 19 33  2  0  0  0  0
 19 36  1  0  0  0  0
 20 22  2  0  0  0  0
 20 42  1  0  0  0  0
 21 23  2  0  0  0  0
 21 43  1  0  0  0  0
 22 51  1  0  0  0  0
 23 44  1  0  0  0  0
 24 31  2  0  0  0  0
 24 59  1  0  0  0  0
 25 70  1  0  0  0  0
 26 81  1  0  0  0  0
 27 82  1  0  0  0  0
 28 30  2  0  0  0  0
 28 81  1  0  0  0  0
 29 83  1  0  0  0  0
 30 84  1  0  0  0  0
 31 85  1  0  0  0  0
 32 64  2  0  0  0  0
 33 65  1  0  0  0  0
 33 68  1  0  0  0  0
 34 35  2  0  0  0  0
 34 37  1  0  0  0  0
 35 60  1  0  0  0  0
 36 69  1  0  0  0  0
 36 75  2  0  0  0  0
 37 71  1  0  0  0  0
 37 76  2  0  0  0  0
 38 52  1  0  0  0  0
 38 72  1  0  0  0  0
 38 77  2  0  0  0  0
 39 61  1  0  0  0  0
 39 66  1  0  0  0  0
 39 78  2  0  0  0  0
 40 62  1  0  0  0  0
 40 73  1  0  0  0  0
 40 79  2  0  0  0  0
 41 67  1  0  0  0  0
 41 70  1  0  0  0  0
 41 80  2  0  0  0  0
 42 45  1  0  0  0  0
 43 52  1  0  0  0  0
 44 66  1  0  0  0  0
 45 47  1  0  0  0  0
 46 48  1  0  0  0  0
 46 49  1  0  0  0  0
 47 51  1  0  0  0  0
 48 53  1  0  0  0  0
 49 67  1  0  0  0  0
 50 53  1  0  0  0  0
 50 67  1  0  0  0  0
 51 72  1  0  0  0  0
 52 66  1  0  0  0  0
 53 65  1  0  0  0  0
 54 62  1  0  0  0  0
 55 63  1  0  0  0  0
 56 63  1  0  0  0  0
 57 63  1  0  0  0  0
 58 74  1  0  0  0  0
 59 71  1  0  0  0  0
 60 82  1  0  0  0  0
 61 63  1  0  0  0  0
 61 73  1  0  0  0  0
 62 74  1  0  0  0  0
 64 65  1  0  0  0  0
M  CHG  1  74   1
M  ISO  4  41 100  60 101  70 100  82 101
M  END
> <Batch ID>
0043

> <Smiles>
CNC(C)C(=O)NC(C(=O)N1Cc2cc([101O:1][101CH2:1]C=CC(=O)NCc3ccc([100NH:0][100C:0](=O)N4CCCC(n5nc(-c6ccc(Oc7ccc(F)cc7F)cc6)c(C(N)=O)c5N)C4)cc3Cl)ccc2CC1C(=O)NC1CCCc2ccccc21)C(C)(C)C

> <Shape>
0.263

> <Color>
0.199

> <Negative vol penalty>
0.000

$$$$

  -OEChem-04042322153D

 85 93  0     1  0  0  0  0  0999 V2000
  -24.8422  -18.4988   20.1986 C   0  0  0  0  0  0  0  0  0  0  0  0
  -25.5834  -19.6745   20.1377 C   0  0  0  0  0  0  0  0  0  0  0  0
  -26.5991  -12.7223   21.5157 C   0  0  0  0  0  0  0  0  0  0  0  0
  -26.2551  -13.5488   19.2717 C   0  0  0  0  0  0  0  0  0  0  0  0
  -23.4661  -18.5314   19.9768 C   0  0  0  0  0  0  0  0  0  0  0  0
  -24.9491  -20.8834   19.8537 C   0  0  0  0  0  0  0  0  0  0  0  0
  -26.4708  -24.6369   22.8936 C   0  0  0  0  0  0  0  0  0  0  0  0
  -28.8795  -21.6675   15.9530 C   0  0  0  0  0  0  0  0  0  0  0  0
  -29.3131  -20.6830   16.8408 C   0  0  0  0  0  0  0  0  0  0  0  0
  -25.3077  -12.1953   21.5196 C   0  0  0  0  0  0  0  0  0  0  0  0
  -24.9637  -13.0217   19.2755 C   0  0  0  0  0  0  0  0  0  0  0  0
  -27.7028  -25.2253   22.6110 C   0  0  0  0  0  0  0  0  0  0  0  0
  -23.7224   -9.4783   20.2795 C   0  0  0  0  0  0  0  0  0  0  0  0
  -23.5525   -8.1825   20.7669 C   0  0  0  0  0  0  0  0  0  0  0  0
  -29.6518  -22.3656   18.5412 C   0  0  0  0  0  0  0  0  0  0  0  0
  -26.5713  -27.0592   21.5267 C   0  0  0  0  0  0  0  0  0  0  0  0
  -22.0594   -9.0195   22.4719 C   0  0  0  0  0  0  0  0  0  0  0  0
  -27.0728  -13.3991   20.3917 C   0  0  0  0  0  0  0  0  0  0  0  0
  -29.2182  -23.3501   17.6532 C   0  0  0  0  0  0  0  0  0  0  0  0
  -29.5867  -13.3006   19.9692 C   0  0  0  0  0  0  0  0  0  0  0  0
  -22.8131  -19.7427   19.6996 C   0  0  0  0  0  0  0  0  0  0  0  0
  -25.2783  -25.2508   22.4846 C   0  0  0  0  0  0  0  0  0  0  0  0
  -23.5631  -20.9320   19.6267 C   0  0  0  0  0  0  0  0  0  0  0  0
  -25.3255  -26.4779   21.8076 C   0  0  0  0  0  0  0  0  0  0  0  0
  -28.8321  -23.0011   16.3591 C   0  0  0  0  0  0  0  0  0  0  0  0
  -29.6992  -21.0320   18.1349 C   0  0  0  0  0  0  0  0  0  0  0  0
  -24.4900  -12.3450   20.3995 C   0  0  0  0  0  0  0  0  0  0  0  0
  -27.7533  -26.4352   21.9250 C   0  0  0  0  0  0  0  0  0  0  0  0
  -23.0608  -10.5448   20.8884 C   0  0  0  0  0  0  0  0  0  0  0  0
  -22.7210   -7.9531   21.8631 C   0  0  0  0  0  0  0  0  0  0  0  0
  -22.2293  -10.3153   21.9845 C   0  0  0  0  0  0  0  0  0  0  0  0
  -28.4066  -13.9443   20.3874 C   0  0  0  0  0  0  0  0  0  0  0  0
  -30.5743  -14.2356   20.1613 C   0  0  0  0  0  0  0  0  0  0  0  0
  -29.1769  -24.7625   18.1121 C   0  0  0  0  0  0  0  0  0  0  0  0
  -29.7734  -11.9760   19.4532 C   0  0  0  0  0  0  0  0  0  0  0  0
  -22.8951  -24.4495   20.5399 C   0  0  0  0  0  0  0  0  0  0  0  0
  -21.5691  -27.1847   21.6723 C   0  0  0  0  0  0  0  0  0  0  0  0
  -22.0260  -30.2542   23.0922 C   0  0  0  0  0  0  0  0  0  0  0  0
  -30.5600  -20.2078   20.3544 C   0  0  0  0  0  0  0  0  0  0  0  0
  -21.3311  -19.7211   19.4201 C   0  0  0  0  0  0  0  0  0  0  0  0
  -23.9564  -24.6166   22.8205 C   0  0  0  0  0  0  0  0  0  0  0  0
  -24.0732  -27.1878   21.3645 C   0  0  0  0  0  0  0  0  0  0  0  0
  -20.6770  -21.0983   19.4951 C   0  0  0  0  0  0  0  0  0  0  0  0
  -31.6867  -17.9974   22.9082 C   0  0  0  0  0  0  0  0  0  0  0  0
  -21.5082  -22.1262   18.7340 C   0  0  0  0  0  0  0  0  0  0  0  0
  -31.0858  -16.6473   22.5102 C   0  0  0  0  0  0  0  0  0  0  0  0
  -30.7381  -19.1540   22.5978 C   0  0  0  0  0  0  0  0  0  0  0  0
  -29.6449  -17.8490   20.8171 C   0  0  0  0  0  0  0  0  0  0  0  0
  -22.9073  -22.2666   19.3458 C   0  0  1  0  0  0  0  0  0  0  0  0
  -22.8247  -25.0732   21.9050 C   0  0  1  0  0  0  0  0  0  0  0  0
  -30.5902  -16.6593   21.0508 C   0  0  2  0  0  0  0  0  0  0  0  0
  -28.3637  -24.0354   15.3881 C   0  0  0  0  0  0  0  0  0  0  0  0
  -20.7561  -32.2764   23.8641 C   0  0  0  0  0  0  0  0  0  0  0  0
  -32.4386  -26.1266   20.5752 C   0  0  0  0  0  0  0  0  0  0  0  0
  -21.2125  -28.0646   18.7726 C   0  0  0  0  0  0  0  0  0  0  0  0
  -20.8470  -30.3995   19.5990 C   0  0  0  0  0  0  0  0  0  0  0  0
  -19.2740  -28.5818   20.2655 C   0  0  0  0  0  0  0  0  0  0  0  0
  -22.9547  -29.9162   25.8819 C   0  0  0  0  0  0  0  0  0  0  0  0
  -30.5057  -26.6541   19.0133 C   0  0  0  0  0  0  0  0  0  0  0  0
  -30.0664  -26.1369   21.4597 C   0  0  0  0  0  0  0  0  0  1  0  0
  -21.5975  -28.6369   21.2606 C   0  0  1  0  0  0  0  0  0  0  0  0
  -21.3436  -30.9326   24.2664 C   0  0  2  0  0  0  0  0  0  0  0  0
  -31.0433  -26.7475   20.4478 C   0  0  1  0  0  0  0  0  0  0  0  0
  -20.7566  -28.9066   19.9809 C   0  0  0  0  0  0  0  0  0  0  0  0
  -28.6227  -15.1917   20.8131 N   0  0  0  0  0  0  0  0  0  0  0  0
  -29.9501  -15.3393   20.6636 N   0  0  0  0  0  0  0  0  0  0  0  0
  -22.8053  -26.5244   21.7110 N   0  0  0  0  0  0  0  0  0  0  0  0
  -30.3138  -19.1032   21.1970 N   0  0  0  0  0  0  0  0  0  0  0  0
  -31.9071  -14.2130   19.9479 N   0  0  0  0  0  0  0  0  0  0  0  0
  -28.6516  -11.1464   19.3204 N   0  0  0  0  0  0  0  0  0  0  0  0
  -30.1415  -20.0318   19.0359 N   0  0  0  0  0  0  0  0  0  0  0  0
  -30.3879  -25.3085   18.5205 N   0  0  0  0  0  0  0  0  0  0  0  0
  -22.8544  -23.0683   20.5496 N   0  0  0  0  0  0  0  0  0  0  0  0
  -21.1708  -29.4006   22.4281 N   0  0  0  0  0  0  0  0  0  0  0  0
  -22.3172  -31.1574   25.3721 N   0  3  0  0  0  0  0  0  0  0  0  0
  -28.1022  -25.3570   18.1280 O   0  0  0  0  0  0  0  0  0  0  0  0
  -30.9040  -11.5353   19.1352 O   0  0  0  0  0  0  0  0  0  0  0  0
  -22.9785  -25.1682   19.5508 O   0  0  0  0  0  0  0  0  0  0  0  0
  -20.4905  -26.6577   21.9563 O   0  0  0  0  0  0  0  0  0  0  0  0
  -23.1992  -30.4637   22.7919 O   0  0  0  0  0  0  0  0  0  0  0  0
  -31.1267  -21.2237   20.7652 O   0  0  0  0  0  0  0  0  0  0  0  0
  -23.2298  -11.8306   20.4028 O   0  0  0  0  0  0  0  0  0  0  0  0
  -28.9545  -27.0114   21.6473 O   0  0  0  0  0  0  0  0  0  1  0  0
  -22.5568   -6.7084   22.3300 F   0  0  0  0  0  0  0  0  0  0  0  0
  -21.5901  -11.3357   22.5728 F   0  0  0  0  0  0  0  0  0  0  0  0
  1  2  1  0  0  0  0
  1  5  2  0  0  0  0
  2  6  2  0  0  0  0
  3 10  2  0  0  0  0
  3 18  1  0  0  0  0
  4 11  1  0  0  0  0
  4 18  2  0  0  0  0
  5 21  1  0  0  0  0
  6 23  1  0  0  0  0
  7 12  2  0  0  0  0
  7 22  1  0  0  0  0
  8  9  2  0  0  0  0
  8 25  1  0  0  0  0
  9 26  1  0  0  0  0
 10 27  1  0  0  0  0
 11 27  2  0  0  0  0
 12 28  1  0  0  0  0
 13 14  2  0  0  0  0
 13 29  1  0  0  0  0
 14 30  1  0  0  0  0
 15 19  1  0  0  0  0
 15 26  2  0  0  0  0
 16 24  1  0  0  0  0
 16 28  2  0  0  0  0
 17 30  2  0  0  0  0
 17 31  1  0  0  0  0
 18 32  1  0  0  0  0
 19 25  2  0  0  0  0
 19 34  1  0  0  0  0
 20 32  1  0  0  0  0
 20 33  2  0  0  0  0
 20 35  1  0  0  0  0
 21 23  2  0  0  0  0
 21 40  1  0  0  0  0
 22 24  2  0  0  0  0
 22 41  1  0  0  0  0
 23 49  1  0  0  0  0
 24 42  1  0  0  0  0
 25 52  1  0  0  0  0
 26 71  1  0  0  0  0
 27 82  1  0  0  0  0
 28 83  1  0  0  0  0
 29 31  2  0  0  0  0
 29 82  1  0  0  0  0
 30 84  1  0  0  0  0
 31 85  1  0  0  0  0
 32 65  2  0  0  0  0
 33 66  1  0  0  0  0
 33 69  1  0  0  0  0
 34 72  1  0  0  0  0
 34 76  2  0  0  0  0
 35 70  1  0  0  0  0
 35 77  2  0  0  0  0
 36 50  1  0  0  0  0
 36 73  1  0  0  0  0
 36 78  2  0  0  0  0
 37 61  1  0  0  0  0
 37 67  1  0  0  0  0
 37 79  2  0  0  0  0
 38 62  1  0  0  0  0
 38 74  1  0  0  0  0
 38 80  2  0  0  0  0
 39 68  1  0  0  0  0
 39 71  1  0  0  0  0
 39 81  2  0  0  0  0
 40 43  1  0  0  0  0
 41 50  1  0  0  0  0
 42 67  1  0  0  0  0
 43 45  1  0  0  0  0
 44 46  1  0  0  0  0
 44 47  1  0  0  0  0
 45 49  1  0  0  0  0
 46 51  1  0  0  0  0
 47 68  1  0  0  0  0
 48 51  1  0  0  0  0
 48 68  1  0  0  0  0
 49 73  1  0  0  0  0
 50 67  1  0  0  0  0
 51 66  1  0  0  0  0
 53 62  1  0  0  0  0
 54 63  1  0  0  0  0
 55 64  1  0  0  0  0
 56 64  1  0  0  0  0
 57 64  1  0  0  0  0
 58 75  1  0  0  0  0
 59 63  1  0  0  0  0
 59 72  1  0  0  0  0
 60 63  1  0  0  0  0
 60 83  1  0  0  0  0
 61 64  1  0  0  0  0
 61 74  1  0  0  0  0
 62 75  1  0  0  0  0
 65 66  1  0  0  0  0
M  CHG  1  75   1
M  ISO  4  39 100  60 101  71 100  83 101
M  END
> <Batch ID>
0043

> <Smiles>
CNC(C)C(=O)NC(C(=O)N1Cc2cc([101O:1][101CH2:1]C(C)CNC(=O)c3cc([100NH:0][100C:0](=O)N4CCCC(n5nc(-c6ccc(Oc7ccc(F)cc7F)cc6)c(C(N)=O)c5N)C4)ccc3C)ccc2CC1C(=O)NC1CCCc2ccccc21)C(C)(C)C

> <Shape>
0.246

> <Color>
0.064

> <Negative vol penalty>
0.000

$$$$

  -OEChem-04042322153D

 90 99  0     1  0  0  0  0  0999 V2000
  -27.4084  -38.1971   19.8823 C   0  0  0  0  0  0  0  0  0  0  0  0
  -27.4243  -37.0715   19.0648 C   0  0  0  0  0  0  0  0  0  0  0  0
  -24.3270   -9.2435   21.9035 C   0  0  0  0  0  0  0  0  0  0  0  0
  -23.0447   -9.7010   19.9076 C   0  0  0  0  0  0  0  0  0  0  0  0
  -27.5074  -38.0540   21.2656 C   0  0  0  0  0  0  0  0  0  0  0  0
  -27.5405  -35.8021   19.6302 C   0  0  0  0  0  0  0  0  0  0  0  0
  -25.4416  -29.0277   18.6212 C   0  0  0  0  0  0  0  0  0  0  0  0
  -23.7331   -7.9849   21.9965 C   0  0  0  0  0  0  0  0  0  0  0  0
  -22.4509   -8.4423   20.0006 C   0  0  0  0  0  0  0  0  0  0  0  0
  -25.9671  -27.7397   18.5293 C   0  0  0  0  0  0  0  0  0  0  0  0
  -20.7934   -6.6899   23.0478 C   0  0  0  0  0  0  0  0  0  0  0  0
  -20.3403   -6.2789   24.3013 C   0  0  0  0  0  0  0  0  0  0  0  0
  -26.0518  -27.6089   20.9366 C   0  0  0  0  0  0  0  0  0  0  0  0
  -28.5436  -19.3301   15.3141 C   0  0  0  0  0  0  0  0  0  0  0  0
  -28.0588  -19.1330   17.6727 C   0  0  0  0  0  0  0  0  0  0  0  0
  -21.8330   -4.3810   24.2187 C   0  0  0  0  0  0  0  0  0  0  0  0
  -23.9828  -10.1016   20.8590 C   0  0  0  0  0  0  0  0  0  0  0  0
  -24.5424  -12.4394   21.7130 C   0  0  0  0  0  0  0  0  0  0  0  0
  -27.6151  -36.7817   21.8489 C   0  0  0  0  0  0  0  0  0  0  0  0
  -25.2270  -29.6212   19.8735 C   0  0  0  0  0  0  0  0  0  0  0  0
  -27.6424  -35.6420   21.0226 C   0  0  0  0  0  0  0  0  0  0  0  0
  -25.5210  -28.9036   21.0417 C   0  0  0  0  0  0  0  0  0  0  0  0
  -28.9722  -20.6427   15.5118 C   0  0  0  0  0  0  0  0  0  0  0  0
  -28.9441  -21.2004   16.7900 C   0  0  0  0  0  0  0  0  0  0  0  0
  -28.0869  -18.5753   16.3945 C   0  0  0  0  0  0  0  0  0  0  0  0
  -22.7951   -7.5842   21.0451 C   0  0  0  0  0  0  0  0  0  0  0  0
  -26.2750  -27.0311   19.6870 C   0  0  0  0  0  0  0  0  0  0  0  0
  -21.7662   -5.9463   22.3796 C   0  0  0  0  0  0  0  0  0  0  0  0
  -20.8601   -5.1245   24.8868 C   0  0  0  0  0  0  0  0  0  0  0  0
  -22.2860   -4.7919   22.9651 C   0  0  0  0  0  0  0  0  0  0  0  0
  -28.4874  -20.4455   17.8705 C   0  0  0  0  0  0  0  0  0  0  0  0
  -24.5955  -11.4022   20.7626 C   0  0  0  0  0  0  0  0  0  0  0  0
  -25.2770  -13.4559   21.1531 C   0  0  0  0  0  0  0  0  0  0  0  0
  -28.1911  -24.3169   18.3252 C   0  0  0  0  0  0  0  0  0  0  0  0
  -23.8876  -12.4803   22.9878 C   0  0  0  0  0  0  0  0  0  0  0  0
  -26.3558  -32.1946   21.3591 C   0  0  0  0  0  0  0  0  0  0  0  0
  -24.1403  -31.3986   23.5907 C   0  0  0  0  0  0  0  0  0  0  0  0
  -22.1995  -28.9776   25.0116 C   0  0  0  0  0  0  0  0  0  0  0  0
  -26.6469  -16.6405   17.0063 C   0  0  0  0  0  0  0  0  0  0  0  0
  -27.7672  -36.6799   23.3460 C   0  0  0  0  0  0  0  0  0  0  0  0
  -24.6344  -31.0012   19.9560 C   0  0  0  0  0  0  0  0  0  0  0  0
  -25.2903  -29.4881   22.4106 C   0  0  0  0  0  0  0  0  0  0  0  0
  -27.5101  -35.2771   23.8904 C   0  0  0  0  0  0  0  0  0  0  0  0
  -25.9264  -23.8135   16.4980 C   0  0  0  0  0  0  0  0  0  0  0  0
  -28.3122  -13.5008   17.1170 C   0  0  0  0  0  0  0  0  0  0  0  0
  -28.2420  -34.2358   23.0497 C   0  0  0  0  0  0  0  0  0  0  0  0
  -25.7480  -24.4713   17.8650 C   0  0  0  0  0  0  0  0  0  0  0  0
  -27.4763  -12.7504   18.1533 C   0  0  0  0  0  0  0  0  0  0  0  0
  -27.3845  -23.7369   16.0541 C   0  0  0  0  0  0  0  0  0  0  0  0
  -27.4456  -14.3615   16.1971 C   0  0  0  0  0  0  0  0  0  0  0  0
  -25.7116  -14.5440   17.9534 C   0  0  0  0  0  0  0  0  0  0  0  0
  -27.7421  -34.2467   21.6000 C   0  0  1  0  0  0  0  0  0  0  0  0
  -26.9851  -25.2462   18.3004 C   0  0  1  0  0  0  0  0  0  1  0  0
  -24.9381  -31.7040   21.2756 C   0  0  1  0  0  0  0  0  0  0  0  0
  -26.5619  -13.7151   18.9288 C   0  0  1  0  0  0  0  0  0  0  0  0
  -29.4555  -21.4289   14.3371 C   0  0  0  0  0  0  0  0  0  0  0  0
  -29.9987  -15.4732   13.7062 C   0  0  0  0  0  0  0  0  0  0  0  0
  -20.5191  -28.6215   26.8411 C   0  0  0  0  0  0  0  0  0  0  0  0
  -26.3817  -31.4684   25.6598 C   0  0  0  0  0  0  0  0  0  0  0  0
  -24.8841  -30.2101   27.2224 C   0  0  0  0  0  0  0  0  0  0  0  0
  -24.2255  -32.4795   26.4231 C   0  0  0  0  0  0  0  0  0  0  0  0
  -20.1109  -28.1407   23.0890 C   0  0  0  0  0  0  0  0  0  0  0  0
  -29.4077  -22.6150   16.9856 C   0  0  0  0  0  0  0  0  0  0  0  0
  -29.5475  -16.1732   14.9805 C   0  0  0  0  0  0  0  0  0  0  0  0
  -28.0636  -16.5202   14.9682 C   0  0  0  0  0  0  0  0  0  0  0  0
  -24.1291  -30.5252   24.8220 C   0  0  1  0  0  0  0  0  0  0  0  0
  -20.7248  -28.9506   25.3707 C   0  0  2  0  0  0  0  0  0  0  0  0
  -24.9114  -31.1603   26.0062 C   0  0  0  0  0  0  0  0  0  0  0  0
  -25.3074  -11.7297   19.6811 N   0  0  0  0  0  0  0  0  0  0  0  0
  -25.7084  -12.9843   19.9483 N   0  0  0  0  0  0  0  0  0  0  0  0
  -28.2951  -23.5307   17.1745 N   0  0  0  0  0  0  0  0  0  0  0  0
  -24.7150  -30.8430   22.4389 N   0  0  0  0  0  0  0  0  0  0  0  0
  -26.5619  -15.2356   16.9814 N   0  0  0  0  0  0  0  0  0  0  0  0
  -25.5896  -14.6983   21.5788 N   0  0  0  0  0  0  0  0  0  0  0  0
  -22.5645  -12.9392   23.0450 N   0  0  0  0  0  0  0  0  0  0  0  0
  -26.4696  -33.5646   21.4991 N   0  0  0  0  0  0  0  0  0  0  0  0
  -22.7266  -30.2476   25.1128 N   0  0  0  0  0  0  0  0  0  0  0  0
  -27.6430  -17.2166   16.1889 N   0  0  0  0  0  0  0  0  0  0  0  0
  -20.0119  -27.9265   24.5557 N   0  3  0  0  0  0  0  0  0  0  0  0
  -28.9784  -24.2946   19.2696 O   0  0  0  0  0  0  0  0  0  0  0  0
  -24.4643  -12.1361   24.0473 O   0  0  0  0  0  0  0  0  0  0  0  0
  -27.2780  -31.3897   21.3023 O   0  0  0  0  0  0  0  0  0  0  0  0
  -23.6505  -32.5293   23.6468 O   0  0  0  0  0  0  0  0  0  0  0  0
  -22.8225  -27.9718   24.6785 O   0  0  0  0  0  0  0  0  0  0  0  0
  -25.8756  -17.3285   17.6858 O   0  0  0  0  0  0  0  0  0  0  0  0
  -22.2155   -6.3560   21.1355 O   0  0  0  0  0  0  0  0  0  0  0  0
  -26.7887  -25.7740   19.6001 O   0  0  0  0  0  0  0  0  0  1  0  0
  -20.4260   -4.7309   26.0913 F   0  0  0  0  0  0  0  0  0  0  0  0
  -23.2217   -4.0741   22.3286 F   0  0  0  0  0  0  0  0  0  0  0  0
  -28.4392  -21.0981   19.4684 Cl  0  0  0  0  0  0  0  0  0  0  0  0
  1  2  1  0  0  0  0
  1  5  2  0  0  0  0
  2  6  2  0  0  0  0
  3  8  2  0  0  0  0
  3 17  1  0  0  0  0
  4  9  1  0  0  0  0
  4 17  2  0  0  0  0
  5 19  1  0  0  0  0
  6 21  1  0  0  0  0
  7 10  2  0  0  0  0
  7 20  1  0  0  0  0
  8 26  1  0  0  0  0
  9 26  2  0  0  0  0
 10 27  1  0  0  0  0
 11 12  2  0  0  0  0
 11 28  1  0  0  0  0
 12 29  1  0  0  0  0
 13 22  1  0  0  0  0
 13 27  2  0  0  0  0
 14 23  2  0  0  0  0
 14 25  1  0  0  0  0
 15 25  2  0  0  0  0
 15 31  1  0  0  0  0
 16 29  2  0  0  0  0
 16 30  1  0  0  0  0
 17 32  1  0  0  0  0
 18 32  1  0  0  0  0
 18 33  2  0  0  0  0
 18 35  1  0  0  0  0
 19 21  2  0  0  0  0
 19 40  1  0  0  0  0
 20 22  2  0  0  0  0
 20 41  1  0  0  0  0
 21 52  1  0  0  0  0
 22 42  1  0  0  0  0
 23 24  1  0  0  0  0
 23 56  1  0  0  0  0
 24 31  2  0  0  0  0
 24 63  1  0  0  0  0
 25 78  1  0  0  0  0
 26 86  1  0  0  0  0
 27 87  1  0  0  0  0
 28 30  2  0  0  0  0
 28 86  1  0  0  0  0
 29 88  1  0  0  0  0
 30 89  1  0  0  0  0
 31 90  1  0  0  0  0
 32 69  2  0  0  0  0
 33 70  1  0  0  0  0
 33 74  1  0  0  0  0
 34 53  1  0  0  0  0
 34 71  1  0  0  0  0
 34 80  2  0  0  0  0
 35 75  1  0  0  0  0
 35 81  2  0  0  0  0
 36 54  1  0  0  0  0
 36 76  1  0  0  0  0
 36 82  2  0  0  0  0
 37 66  1  0  0  0  0
 37 72  1  0  0  0  0
 37 83  2  0  0  0  0
 38 67  1  0  0  0  0
 38 77  1  0  0  0  0
 38 84  2  0  0  0  0
 39 73  1  0  0  0  0
 39 78  1  0  0  0  0
 39 85  2  0  0  0  0
 40 43  1  0  0  0  0
 41 54  1  0  0  0  0
 42 72  1  0  0  0  0
 43 46  1  0  0  0  0
 44 47  1  0  0  0  0
 44 49  1  0  0  0  0
 45 48  1  0  0  0  0
 45 50  1  0  0  0  0
 46 52  1  0  0  0  0
 47 53  1  0  0  0  0
 48 55  1  0  0  0  0
 49 71  1  0  0  0  0
 50 73  1  0  0  0  0
 51 55  1  0  0  0  0
 51 73  1  0  0  0  0
 52 76  1  0  0  0  0
 53 87  1  0  0  0  0
 54 72  1  0  0  0  0
 55 70  1  0  0  0  0
 57 64  1  0  0  0  0
 58 67  1  0  0  0  0
 59 68  1  0  0  0  0
 60 68  1  0  0  0  0
 61 68  1  0  0  0  0
 62 79  1  0  0  0  0
 63 71  1  0  0  0  0
 64 65  1  0  0  0  0
 65 78  1  0  0  0  0
 66 68  1  0  0  0  0
 66 77  1  0  0  0  0
 67 79  1  0  0  0  0
 69 70  1  0  0  0  0
M  CHG  1  79   1
M  ISO  4  39 100  53 101  78 100  87 101
M  END
> <Batch ID>
0043

> <Smiles>
CCC[100N:0](c1cc(C)c(CN2CCC[101CH:1]([101O:1]c3ccc4c(c3)CN(C(=O)C(NC(=O)C(C)NC)C(C)(C)C)C(C(=O)NC3CCCc5ccccc53)C4)C2=O)c(Cl)c1)[100C:0](=O)N1CCCC(n2nc(-c3ccc(Oc4ccc(F)cc4F)cc3)c(C(N)=O)c2N)C1

> <Shape>
0.260

> <Color>
0.137

> <Negative vol penalty>
0.000

$$$$

  -OEChem-04042322153D

 84 92  0     1  0  0  0  0  0999 V2000
  -32.5587  -26.1889   17.4526 C   0  0  0  0  0  0  0  0  0  0  0  0
  -31.2560  -25.9176   17.8586 C   0  0  0  0  0  0  0  0  0  0  0  0
  -24.6041   -9.2776   22.0285 C   0  0  0  0  0  0  0  0  0  0  0  0
  -23.0011  -10.4132   20.6221 C   0  0  0  0  0  0  0  0  0  0  0  0
  -33.3758  -27.0042   18.2347 C   0  0  0  0  0  0  0  0  0  0  0  0
  -30.7701  -26.4605   19.0475 C   0  0  0  0  0  0  0  0  0  0  0  0
  -26.1058  -28.3685   18.5483 C   0  0  0  0  0  0  0  0  0  0  0  0
  -23.9601  -20.7260   20.2415 C   0  0  0  0  0  0  0  0  0  0  0  0
  -24.8773  -19.6997   20.4670 C   0  0  0  0  0  0  0  0  0  0  0  0
  -23.5754   -8.5221   22.5911 C   0  0  0  0  0  0  0  0  0  0  0  0
  -21.9723   -9.6576   21.1846 C   0  0  0  0  0  0  0  0  0  0  0  0
  -25.0455  -27.4633   18.5367 C   0  0  0  0  0  0  0  0  0  0  0  0
  -21.7229   -5.8208   21.7519 C   0  0  0  0  0  0  0  0  0  0  0  0
  -21.9333   -4.4503   21.9031 C   0  0  0  0  0  0  0  0  0  0  0  0
  -24.6017  -27.9627   20.8546 C   0  0  0  0  0  0  0  0  0  0  0  0
  -23.7288  -18.3182   18.8516 C   0  0  0  0  0  0  0  0  0  0  0  0
  -21.6275   -4.6668   24.2899 C   0  0  0  0  0  0  0  0  0  0  0  0
  -24.3170  -10.2232   21.0440 C   0  0  0  0  0  0  0  0  0  0  0  0
  -26.1474  -10.6834   19.3278 C   0  0  0  0  0  0  0  0  0  0  0  0
  -32.8965  -27.5652   19.4289 C   0  0  0  0  0  0  0  0  0  0  0  0
  -26.4294  -29.0707   19.7182 C   0  0  0  0  0  0  0  0  0  0  0  0
  -31.5820  -27.2829   19.8470 C   0  0  0  0  0  0  0  0  0  0  0  0
  -25.6650  -28.8781   20.8778 C   0  0  0  0  0  0  0  0  0  0  0  0
  -22.9271  -20.5485   19.3211 C   0  0  0  0  0  0  0  0  0  0  0  0
  -24.7617  -18.4958   19.7721 C   0  0  0  0  0  0  0  0  0  0  0  0
  -22.2595   -8.7121   22.1691 C   0  0  0  0  0  0  0  0  0  0  0  0
  -24.2950  -27.2581   19.6907 C   0  0  0  0  0  0  0  0  0  0  0  0
  -21.4649   -6.6144   22.8696 C   0  0  0  0  0  0  0  0  0  0  0  0
  -21.8856   -3.8732   23.1722 C   0  0  0  0  0  0  0  0  0  0  0  0
  -21.4171   -6.0374   24.1386 C   0  0  0  0  0  0  0  0  0  0  0  0
  -22.8115  -19.3446   18.6262 C   0  0  0  0  0  0  0  0  0  0  0  0
  -25.3791  -11.0044   20.4629 C   0  0  0  0  0  0  0  0  0  0  0  0
  -27.0147  -11.7394   19.1903 C   0  0  0  0  0  0  0  0  0  0  0  0
  -26.0827   -9.5334   18.4738 C   0  0  0  0  0  0  0  0  0  0  0  0
  -28.9773  -29.2192   21.6130 C   0  0  0  0  0  0  0  0  0  0  0  0
  -27.2778  -31.5715   23.0625 C   0  0  0  0  0  0  0  0  0  0  0  0
  -22.6236  -24.0762   19.3780 C   0  0  0  0  0  0  0  0  0  0  0  0
  -24.2302  -32.9590   23.7213 C   0  0  0  0  0  0  0  0  0  0  0  0
  -26.7752  -17.4655   20.8815 C   0  0  0  0  0  0  0  0  0  0  0  0
  -33.8324  -28.4020   20.2647 C   0  0  0  0  0  0  0  0  0  0  0  0
  -27.5594  -30.0633   19.7069 C   0  0  0  0  0  0  0  0  0  0  0  0
  -25.9587  -29.6221   22.1540 C   0  0  0  0  0  0  0  0  0  0  0  0
  -33.1192  -29.2421   21.3211 C   0  0  0  0  0  0  0  0  0  0  0  0
  -29.2751  -15.0880   21.7618 C   0  0  0  0  0  0  0  0  0  0  0  0
  -32.0919  -28.3989   22.0696 C   0  0  0  0  0  0  0  0  0  0  0  0
  -28.6319  -13.7421   21.4196 C   0  0  0  0  0  0  0  0  0  0  0  0
  -28.2545  -16.0791   22.3183 C   0  0  0  0  0  0  0  0  0  0  0  0
  -26.4195  -14.9314   21.1416 C   0  0  0  0  0  0  0  0  0  0  0  0
  -31.0106  -27.8734   21.1177 C   0  0  1  0  0  0  0  0  0  0  0  0
  -28.1234  -30.3426   21.0967 C   0  0  1  0  0  0  0  0  0  0  0  0
  -27.3958  -13.9216   20.5166 C   0  0  2  0  0  0  0  0  0  0  0  0
  -23.1567  -34.8552   24.9660 C   0  0  0  0  0  0  0  0  0  0  0  0
  -27.6817  -30.0727   25.6894 C   0  0  0  0  0  0  0  0  0  0  0  0
  -25.8419  -31.4527   26.6789 C   0  0  0  0  0  0  0  0  0  0  0  0
  -27.9228  -32.5563   25.8575 C   0  0  0  0  0  0  0  0  0  0  0  0
  -23.3082  -22.7706   17.3584 C   0  0  0  0  0  0  0  0  0  0  0  0
  -23.1211  -34.1168   21.2338 C   0  0  0  0  0  0  0  0  0  0  0  0
  -21.9610  -21.6777   19.1073 C   0  0  0  0  0  0  0  0  0  0  0  0
  -23.3630  -25.2620   18.7949 C   0  0  0  0  0  0  0  0  0  1  0  0
  -26.2704  -31.6260   24.1854 C   0  0  1  0  0  0  0  0  0  0  0  0
  -23.7369  -34.3922   23.6387 C   0  0  2  0  0  0  0  0  0  0  0  0
  -26.9246  -31.4113   25.5795 C   0  0  0  0  0  0  0  0  0  0  0  0
  -25.7279  -12.1729   21.0079 N   0  0  0  0  0  0  0  0  0  0  0  0
  -26.7248  -12.5953   20.2119 N   0  0  0  0  0  0  0  0  0  0  0  0
  -27.0775  -30.5772   22.0944 N   0  0  0  0  0  0  0  0  0  0  0  0
  -27.1136  -16.2010   21.4081 N   0  0  0  0  0  0  0  0  0  0  0  0
  -27.9896  -12.0101   18.2965 N   0  0  0  0  0  0  0  0  0  0  0  0
  -25.1328   -8.5428   18.7580 N   0  0  0  0  0  0  0  0  0  0  0  0
  -25.6930  -17.4529   20.0021 N   0  0  0  0  0  0  0  0  0  0  0  0
  -30.0590  -28.9187   20.8074 N   0  0  0  0  0  0  0  0  0  0  0  0
  -25.5695  -32.8976   24.0437 N   0  0  0  0  0  0  0  0  0  0  0  0
  -22.6311  -22.8899   18.6437 N   0  0  0  0  0  0  0  0  0  0  0  0
  -22.6805  -34.5170   22.5949 N   0  3  0  0  0  0  0  0  0  0  0  0
  -26.8556   -9.3809   17.4977 O   0  0  0  0  0  0  0  0  0  0  0  0
  -28.6778  -28.6670   22.6652 O   0  0  0  0  0  0  0  0  0  0  0  0
  -28.2041  -32.3858   23.0410 O   0  0  0  0  0  0  0  0  0  0  0  0
  -22.0591  -24.2070   20.4685 O   0  0  0  0  0  0  0  0  0  0  0  0
  -23.4997  -31.9906   23.5236 O   0  0  0  0  0  0  0  0  0  0  0  0
  -27.4164  -18.4801   21.1668 O   0  0  0  0  0  0  0  0  0  0  0  0
  -21.2555   -7.9748   22.7177 O   0  0  0  0  0  0  0  0  0  0  0  0
  -23.2600  -26.3747   19.6823 O   0  0  0  0  0  0  0  0  0  1  0  0
  -22.0861   -2.5568   23.3171 F   0  0  0  0  0  0  0  0  0  0  0  0
  -21.1685   -6.7944   25.2160 F   0  0  0  0  0  0  0  0  0  0  0  0
  -21.5461  -19.0887   17.4803 Cl  0  0  0  0  0  0  0  0  0  0  0  0
  1  2  1  0  0  0  0
  1  5  2  0  0  0  0
  2  6  2  0  0  0  0
  3 10  2  0  0  0  0
  3 18  1  0  0  0  0
  4 11  1  0  0  0  0
  4 18  2  0  0  0  0
  5 20  1  0  0  0  0
  6 22  1  0  0  0  0
  7 12  2  0  0  0  0
  7 21  1  0  0  0  0
  8  9  2  0  0  0  0
  8 24  1  0  0  0  0
  9 25  1  0  0  0  0
 10 26  1  0  0  0  0
 11 26  2  0  0  0  0
 12 27  1  0  0  0  0
 13 14  2  0  0  0  0
 13 28  1  0  0  0  0
 14 29  1  0  0  0  0
 15 23  1  0  0  0  0
 15 27  2  0  0  0  0
 16 25  2  0  0  0  0
 16 31  1  0  0  0  0
 17 29  2  0  0  0  0
 17 30  1  0  0  0  0
 18 32  1  0  0  0  0
 19 32  1  0  0  0  0
 19 33  2  0  0  0  0
 19 34  1  0  0  0  0
 20 22  2  0  0  0  0
 20 40  1  0  0  0  0
 21 23  2  0  0  0  0
 21 41  1  0  0  0  0
 22 49  1  0  0  0  0
 23 42  1  0  0  0  0
 24 31  2  0  0  0  0
 24 58  1  0  0  0  0
 25 69  1  0  0  0  0
 26 80  1  0  0  0  0
 27 81  1  0  0  0  0
 28 30  2  0  0  0  0
 28 80  1  0  0  0  0
 29 82  1  0  0  0  0
 30 83  1  0  0  0  0
 31 84  1  0  0  0  0
 32 63  2  0  0  0  0
 33 64  1  0  0  0  0
 33 67  1  0  0  0  0
 34 68  1  0  0  0  0
 34 74  2  0  0  0  0
 35 50  1  0  0  0  0
 35 70  1  0  0  0  0
 35 75  2  0  0  0  0
 36 60  1  0  0  0  0
 36 65  1  0  0  0  0
 36 76  2  0  0  0  0
 37 59  1  0  0  0  0
 37 72  1  0  0  0  0
 37 77  2  0  0  0  0
 38 61  1  0  0  0  0
 38 71  1  0  0  0  0
 38 78  2  0  0  0  0
 39 66  1  0  0  0  0
 39 69  1  0  0  0  0
 39 79  2  0  0  0  0
 40 43  1  0  0  0  0
 41 50  1  0  0  0  0
 42 65  1  0  0  0  0
 43 45  1  0  0  0  0
 44 46  1  0  0  0  0
 44 47  1  0  0  0  0
 45 49  1  0  0  0  0
 46 51  1  0  0  0  0
 47 66  1  0  0  0  0
 48 51  1  0  0  0  0
 48 66  1  0  0  0  0
 49 70  1  0  0  0  0
 50 65  1  0  0  0  0
 51 64  1  0  0  0  0
 52 61  1  0  0  0  0
 53 62  1  0  0  0  0
 54 62  1  0  0  0  0
 55 62  1  0  0  0  0
 56 72  1  0  0  0  0
 57 73  1  0  0  0  0
 58 72  1  0  0  0  0
 59 81  1  0  0  0  0
 60 62  1  0  0  0  0
 60 71  1  0  0  0  0
 61 73  1  0  0  0  0
 63 64  1  0  0  0  0
M  CHG  1  73   1
M  ISO  4  39 100  59 101  69 100  81 101
M  END
> <Batch ID>
0043

> <Smiles>
CNC(C)C(=O)NC(C(=O)N1Cc2cc([101O:1][101CH2:1]C(=O)N(C)Cc3ccc([100NH:0][100C:0](=O)N4CCCC(n5nc(-c6ccc(Oc7ccc(F)cc7F)cc6)c(C(N)=O)c5N)C4)cc3Cl)ccc2CC1C(=O)NC1CCCc2ccccc21)C(C)(C)C

> <Shape>
0.267

> <Color>
0.093

> <Negative vol penalty>
0.000

$$$$

  -OEChem-04042322153D

 85 94  0     1  0  0  0  0  0999 V2000
  -23.6505   -8.0891   21.7265 C   0  0  0  0  0  0  0  0  0  0  0  0
  -24.7577   -8.8978   21.4904 C   0  0  0  0  0  0  0  0  0  0  0  0
  -25.1939  -33.2975   23.0021 C   0  0  0  0  0  0  0  0  0  0  0  0
  -26.9551  -32.9634   21.3823 C   0  0  0  0  0  0  0  0  0  0  0  0
  -22.3687   -8.5692   21.4610 C   0  0  0  0  0  0  0  0  0  0  0  0
  -24.5837  -10.1867   20.9877 C   0  0  0  0  0  0  0  0  0  0  0  0
  -27.9500  -15.1332   22.2939 C   0  0  0  0  0  0  0  0  0  0  0  0
  -25.8416  -34.4406   23.4707 C   0  0  0  0  0  0  0  0  0  0  0  0
  -27.6028  -34.1065   21.8508 C   0  0  0  0  0  0  0  0  0  0  0  0
  -29.0011  -15.7565   21.6226 C   0  0  0  0  0  0  0  0  0  0  0  0
  -26.1973  -37.6669   22.5236 C   0  0  0  0  0  0  0  0  0  0  0  0
  -25.4228  -38.8053   22.7470 C   0  0  0  0  0  0  0  0  0  0  0  0
  -27.4406  -17.3049   20.6294 C   0  0  0  0  0  0  0  0  0  0  0  0
  -28.9555  -22.3506   18.5292 C   0  0  0  0  0  0  0  0  0  0  0  0
  -30.5153  -22.3456   16.6843 C   0  0  0  0  0  0  0  0  0  0  0  0
  -29.5996  -24.4326   17.4864 C   0  0  0  0  0  0  0  0  0  0  0  0
  -26.0722  -38.7903   25.0741 C   0  0  0  0  0  0  0  0  0  0  0  0
  -25.7506  -32.5589   21.9580 C   0  0  0  0  0  0  0  0  0  0  0  0
  -23.7899  -31.2984   20.9216 C   0  0  0  0  0  0  0  0  0  0  0  0
  -22.1784   -9.8682   20.9639 C   0  0  0  0  0  0  0  0  0  0  0  0
  -26.6327  -15.5850   22.1291 C   0  0  0  0  0  0  0  0  0  0  0  0
  -23.2983  -10.6842   20.7141 C   0  0  0  0  0  0  0  0  0  0  0  0
  -26.3749  -16.6873   21.3017 C   0  0  0  0  0  0  0  0  0  0  0  0
  -29.7806  -21.6533   17.6468 C   0  0  0  0  0  0  0  0  0  0  0  0
  -28.8649  -23.7402   18.4489 C   0  0  0  0  0  0  0  0  0  0  0  0
  -27.0460  -34.8451   22.8950 C   0  0  0  0  0  0  0  0  0  0  0  0
  -28.7461  -16.8407   20.7880 C   0  0  0  0  0  0  0  0  0  0  0  0
  -26.9092  -37.0902   23.5754 C   0  0  0  0  0  0  0  0  0  0  0  0
  -25.3602  -39.3670   24.0223 C   0  0  0  0  0  0  0  0  0  0  0  0
  -26.8466  -37.6519   24.8506 C   0  0  0  0  0  0  0  0  0  0  0  0
  -30.4248  -23.7353   16.6040 C   0  0  0  0  0  0  0  0  0  0  0  0
  -25.0823  -31.3778   21.4739 C   0  0  0  0  0  0  0  0  0  0  0  0
  -23.6258  -29.9682   20.6215 C   0  0  0  0  0  0  0  0  0  0  0  0
  -29.7058  -19.5513   18.9631 C   0  0  0  0  0  0  0  0  0  0  0  0
  -22.8240  -32.3345   20.6995 C   0  0  0  0  0  0  0  0  0  0  0  0
  -23.9487  -14.3102   21.0003 C   0  0  0  0  0  0  0  0  0  0  0  0
  -22.6462  -17.0883   22.0530 C   0  0  0  0  0  0  0  0  0  0  0  0
  -23.0940  -20.3712   22.8708 C   0  0  0  0  0  0  0  0  0  0  0  0
  -27.8149  -25.8286   19.4085 C   0  0  0  0  0  0  0  0  0  0  0  0
  -20.7767  -10.3263   20.6477 C   0  0  0  0  0  0  0  0  0  0  0  0
  -25.5134  -14.9187   22.8811 C   0  0  0  0  0  0  0  0  0  0  0  0
  -24.9811  -17.2238   21.1068 C   0  0  0  0  0  0  0  0  0  0  0  0
  -20.6554  -11.8375   20.4696 C   0  0  0  0  0  0  0  0  0  0  0  0
  -30.0169  -18.0194   16.4837 C   0  0  0  0  0  0  0  0  0  0  0  0
  -25.6002  -25.9878   22.5380 C   0  0  0  0  0  0  0  0  0  0  0  0
  -21.7718  -12.3605   19.5713 C   0  0  0  0  0  0  0  0  0  0  0  0
  -30.3056  -17.3672   17.8164 C   0  0  0  0  0  0  0  0  0  0  0  0
  -24.6281  -27.0828   22.1052 C   0  0  0  0  0  0  0  0  0  0  0  0
  -30.3761  -19.4956   16.5435 C   0  0  0  0  0  0  0  0  0  0  0  0
  -26.2519  -25.2915   21.3500 C   0  0  0  0  0  0  0  0  0  0  0  0
  -26.6168  -27.6509   20.6043 C   0  0  0  0  0  0  0  0  0  0  0  0
  -23.1488  -12.0969   20.1925 C   0  0  1  0  0  0  0  0  0  0  0  0
  -29.4702  -18.0468   18.8798 C   0  0  1  0  0  0  0  0  0  1  0  0
  -24.1476  -15.1386   22.2380 C   0  0  1  0  0  0  0  0  0  0  0  0
  -25.1230  -27.8803   20.8823 C   0  0  2  0  0  0  0  0  0  0  0  0
  -21.8362  -22.3935   23.6619 C   0  0  0  0  0  0  0  0  0  0  0  0
  -21.4912  -17.4620   19.2537 C   0  0  0  0  0  0  0  0  0  0  0  0
  -21.0828  -19.8666   19.8189 C   0  0  0  0  0  0  0  0  0  0  0  0
  -19.9347  -18.0703   21.1143 C   0  0  0  0  0  0  0  0  0  0  0  0
  -24.7125  -20.5547   25.3417 C   0  0  0  0  0  0  0  0  0  0  0  0
  -22.4106  -18.4534   21.4532 C   0  0  1  0  0  0  0  0  0  0  0  0
  -22.6505  -21.1782   24.0776 C   0  0  2  0  0  0  0  0  0  0  0  0
  -21.2559  -18.4520   20.4120 C   0  0  0  0  0  0  0  0  0  0  0  0
  -25.6957  -30.1923   21.5233 N   0  0  0  0  0  0  0  0  0  0  0  0
  -24.7846  -29.3554   20.9981 N   0  0  0  0  0  0  0  0  0  0  0  0
  -29.8750  -20.2115   17.7306 N   0  0  0  0  0  0  0  0  0  0  0  0
  -23.9196  -16.5344   21.8587 N   0  0  0  0  0  0  0  0  0  0  0  0
  -26.9104  -26.2245   20.4240 N   0  0  0  0  0  0  0  0  0  0  0  0
  -22.6047  -29.2745   20.0751 N   0  0  0  0  0  0  0  0  0  0  0  0
  -22.8419  -33.0128   19.4731 N   0  0  0  0  0  0  0  0  0  0  0  0
  -28.0259  -24.4487   19.3450 N   0  0  0  0  0  0  0  0  0  0  0  0
  -23.4219  -13.0557   21.2416 N   0  0  0  0  0  0  0  0  0  0  0  0
  -22.2021  -19.3620   22.5755 N   0  0  0  0  0  0  0  0  0  0  0  0
  -23.8350  -21.6481   24.8503 N   0  3  0  0  0  0  0  0  0  0  0  0
  -29.6903  -20.1013   20.0674 O   0  0  0  0  0  0  0  0  0  0  0  0
  -21.9810  -32.6607   21.5692 O   0  0  0  0  0  0  0  0  0  0  0  0
  -24.2494  -14.7753   19.9072 O   0  0  0  0  0  0  0  0  0  0  0  0
  -21.7364  -16.5368   22.6773 O   0  0  0  0  0  0  0  0  0  0  0  0
  -24.1263  -20.6143   22.2497 O   0  0  0  0  0  0  0  0  0  0  0  0
  -28.3427  -26.6493   18.6551 O   0  0  0  0  0  0  0  0  0  0  0  0
  -27.6782  -35.9605   23.3518 O   0  0  0  0  0  0  0  0  0  0  0  0
  -29.7701  -17.4504   20.1311 O   0  0  0  0  0  0  0  0  0  1  0  0
  -24.6177  -40.4610   24.2364 F   0  0  0  0  0  0  0  0  0  0  0  0
  -27.5293  -37.1030   25.8648 F   0  0  0  0  0  0  0  0  0  0  0  0
  -31.3313  -24.5896   15.4163 Cl  0  0  0  0  0  0  0  0  0  0  0  0
  1  2  1  0  0  0  0
  1  5  2  0  0  0  0
  2  6  2  0  0  0  0
  3  8  2  0  0  0  0
  3 18  1  0  0  0  0
  4  9  1  0  0  0  0
  4 18  2  0  0  0  0
  5 20  1  0  0  0  0
  6 22  1  0  0  0  0
  7 10  2  0  0  0  0
  7 21  1  0  0  0  0
  8 26  1  0  0  0  0
  9 26  2  0  0  0  0
 10 27  1  0  0  0  0
 11 12  2  0  0  0  0
 11 28  1  0  0  0  0
 12 29  1  0  0  0  0
 13 23  1  0  0  0  0
 13 27  2  0  0  0  0
 14 24  2  0  0  0  0
 14 25  1  0  0  0  0
 15 24  1  0  0  0  0
 15 31  2  0  0  0  0
 16 25  2  0  0  0  0
 16 31  1  0  0  0  0
 17 29  2  0  0  0  0
 17 30  1  0  0  0  0
 18 32  1  0  0  0  0
 19 32  1  0  0  0  0
 19 33  2  0  0  0  0
 19 35  1  0  0  0  0
 20 22  2  0  0  0  0
 20 40  1  0  0  0  0
 21 23  2  0  0  0  0
 21 41  1  0  0  0  0
 22 52  1  0  0  0  0
 23 42  1  0  0  0  0
 24 66  1  0  0  0  0
 25 71  1  0  0  0  0
 26 81  1  0  0  0  0
 27 82  1  0  0  0  0
 28 30  2  0  0  0  0
 28 81  1  0  0  0  0
 29 83  1  0  0  0  0
 30 84  1  0  0  0  0
 31 85  1  0  0  0  0
 32 64  2  0  0  0  0
 33 65  1  0  0  0  0
 33 69  1  0  0  0  0
 34 53  1  0  0  0  0
 34 66  1  0  0  0  0
 34 75  2  0  0  0  0
 35 70  1  0  0  0  0
 35 76  2  0  0  0  0
 36 54  1  0  0  0  0
 36 72  1  0  0  0  0
 36 77  2  0  0  0  0
 37 61  1  0  0  0  0
 37 67  1  0  0  0  0
 37 78  2  0  0  0  0
 38 62  1  0  0  0  0
 38 73  1  0  0  0  0
 38 79  2  0  0  0  0
 39 68  1  0  0  0  0
 39 71  1  0  0  0  0
 39 80  2  0  0  0  0
 40 43  1  0  0  0  0
 41 54  1  0  0  0  0
 42 67  1  0  0  0  0
 43 46  1  0  0  0  0
 44 47  1  0  0  0  0
 44 49  1  0  0  0  0
 45 48  1  0  0  0  0
 45 50  1  0  0  0  0
 46 52  1  0  0  0  0
 47 53  1  0  0  0  0
 48 55  1  0  0  0  0
 49 66  1  0  0  0  0
 50 68  1  0  0  0  0
 51 55  1  0  0  0  0
 51 68  1  0  0  0  0
 52 72  1  0  0  0  0
 53 82  1  0  0  0  0
 54 67  1  0  0  0  0
 55 65  1  0  0  0  0
 56 62  1  0  0  0  0
 57 63  1  0  0  0  0
 58 63  1  0  0  0  0
 59 63  1  0  0  0  0
 60 74  1  0  0  0  0
 61 63  1  0  0  0  0
 61 73  1  0  0  0  0
 62 74  1  0  0  0  0
 64 65  1  0  0  0  0
M  CHG  1  74   1
M  ISO  4  39 100  53 101  71 100  82 101
M  END
> <Batch ID>
0043

> <Smiles>
CNC(C)C(=O)NC(C(=O)N1Cc2cc([101O:1][101CH:1]3CCCN(c4cc(Cl)cc([100NH:0][100C:0](=O)N5CCCC(n6nc(-c7ccc(Oc8ccc(F)cc8F)cc7)c(C(N)=O)c6N)C5)c4)C3=O)ccc2CC1C(=O)NC1CCCc2ccccc21)C(C)(C)C

> <Shape>
0.234

> <Color>
0.071

> <Negative vol penalty>
0.000

$$$$

  -OEChem-04042322153D

 88 96  0     1  0  0  0  0  0999 V2000
  -27.2711   -9.4889   20.2874 C   0  0  0  0  0  0  0  0  0  0  0  0
  -27.9553  -10.6597   19.9764 C   0  0  0  0  0  0  0  0  0  0  0  0
  -20.0039  -27.7668   23.9102 C   0  0  0  0  0  0  0  0  0  0  0  0
  -20.7799  -27.1683   21.7019 C   0  0  0  0  0  0  0  0  0  0  0  0
  -25.9113   -9.5374   20.5914 C   0  0  0  0  0  0  0  0  0  0  0  0
  -27.2797  -11.8795   19.9682 C   0  0  0  0  0  0  0  0  0  0  0  0
  -29.5207  -17.3401   21.6006 C   0  0  0  0  0  0  0  0  0  0  0  0
  -31.5514  -26.2075   23.3351 C   0  0  0  0  0  0  0  0  0  0  0  0
  -31.2167  -27.5609   23.3770 C   0  0  0  0  0  0  0  0  0  0  0  0
  -18.6856  -27.5641   23.5019 C   0  0  0  0  0  0  0  0  0  0  0  0
  -19.4617  -26.9655   21.2936 C   0  0  0  0  0  0  0  0  0  0  0  0
  -30.0324  -18.4039   20.8587 C   0  0  0  0  0  0  0  0  0  0  0  0
  -16.3227  -25.9413   19.7717 C   0  0  0  0  0  0  0  0  0  0  0  0
  -16.0424  -24.7951   19.0279 C   0  0  0  0  0  0  0  0  0  0  0  0
  -27.8722  -19.4760   20.9174 C   0  0  0  0  0  0  0  0  0  0  0  0
  -16.8190  -23.4191   20.8556 C   0  0  0  0  0  0  0  0  0  0  0  0
  -21.0510  -27.5690   23.0102 C   0  0  0  0  0  0  0  0  0  0  0  0
  -23.2846  -26.8279   23.9950 C   0  0  0  0  0  0  0  0  0  0  0  0
  -25.2208  -10.7596   20.5964 C   0  0  0  0  0  0  0  0  0  0  0  0
  -28.1759  -17.3312   21.9978 C   0  0  0  0  0  0  0  0  0  0  0  0
  -25.9090  -11.9441   20.2713 C   0  0  0  0  0  0  0  0  0  0  0  0
  -27.3466  -18.4122   21.6665 C   0  0  0  0  0  0  0  0  0  0  0  0
  -31.3690  -25.4800   22.1590 C   0  0  0  0  0  0  0  0  0  0  0  0
  -30.6997  -28.1869   22.2427 C   0  0  0  0  0  0  0  0  0  0  0  0
  -30.5173  -27.4594   21.0666 C   0  0  0  0  0  0  0  0  0  0  0  0
  -30.8520  -26.1059   21.0248 C   0  0  0  0  0  0  0  0  0  0  0  0
  -18.4145  -27.1634   22.1937 C   0  0  0  0  0  0  0  0  0  0  0  0
  -29.2074  -19.4707   20.5145 C   0  0  0  0  0  0  0  0  0  0  0  0
  -16.8513  -25.8264   21.0575 C   0  0  0  0  0  0  0  0  0  0  0  0
  -16.2905  -23.5340   19.5698 C   0  0  0  0  0  0  0  0  0  0  0  0
  -17.0994  -24.5653   21.5994 C   0  0  0  0  0  0  0  0  0  0  0  0
  -22.4130  -27.7788   23.4312 C   0  0  0  0  0  0  0  0  0  0  0  0
  -24.4504  -27.5194   24.2164 C   0  0  0  0  0  0  0  0  0  0  0  0
  -26.9420  -25.8874   18.7986 C   0  0  0  0  0  0  0  0  0  0  0  0
  -27.5687  -24.7469   19.1088 C   0  0  0  0  0  0  0  0  0  0  0  0
  -23.0604  -25.4432   24.2920 C   0  0  0  0  0  0  0  0  0  0  0  0
  -25.6809  -15.4464   21.4269 C   0  0  0  0  0  0  0  0  0  0  0  0
  -24.2363  -17.3485   23.6217 C   0  0  0  0  0  0  0  0  0  0  0  0
  -30.1507  -22.8723   19.7694 C   0  0  0  0  0  0  0  0  0  0  0  0
  -24.1225  -20.3643   25.2150 C   0  0  0  0  0  0  0  0  0  0  0  0
  -28.3687  -31.1188   22.5320 C   0  0  0  0  0  0  0  0  0  0  0  0
  -23.7405  -10.7560   20.8852 C   0  0  0  0  0  0  0  0  0  0  0  0
  -27.6461  -16.1889   22.8206 C   0  0  0  0  0  0  0  0  0  0  0  0
  -25.9009  -18.4603   22.0859 C   0  0  0  0  0  0  0  0  0  0  0  0
  -23.1820  -12.1365   21.2205 C   0  0  0  0  0  0  0  0  0  0  0  0
  -25.4274  -32.4781   24.0077 C   0  0  0  0  0  0  0  0  0  0  0  0
  -23.6884  -13.1739   20.2234 C   0  0  0  0  0  0  0  0  0  0  0  0
  -24.4514  -31.3004   24.0299 C   0  0  0  0  0  0  0  0  0  0  0  0
  -26.3005  -32.4640   22.7549 C   0  0  0  0  0  0  0  0  0  0  0  0
  -26.0462  -30.0221   22.5394 C   0  0  0  0  0  0  0  0  0  0  0  0
  -25.2166  -13.2897   20.2761 C   0  0  1  0  0  0  0  0  0  0  0  0
  -26.1303  -16.0410   22.7315 C   0  0  1  0  0  0  0  0  0  0  0  0
  -25.1825  -29.9621   23.8109 C   0  0  2  0  0  0  0  0  0  0  0  0
  -31.7359  -24.0320   22.1410 C   0  0  0  0  0  0  0  0  0  0  0  0
  -29.9611  -28.1321   19.8516 C   0  0  0  0  0  0  0  0  0  0  0  0
  -22.8064  -21.6372   26.9312 C   0  0  0  0  0  0  0  0  0  0  0  0
  -22.0277  -17.8248   21.5711 C   0  0  0  0  0  0  0  0  0  0  0  0
  -21.2791  -19.7855   22.9361 C   0  0  0  0  0  0  0  0  0  0  0  0
  -21.2210  -17.4918   23.9148 C   0  0  0  0  0  0  0  0  0  0  0  0
  -26.4729  -20.6227   26.9949 C   0  0  0  0  0  0  0  0  0  0  0  0
  -30.3476  -29.6369   22.3150 C   0  0  0  0  0  0  0  0  0  0  0  0
  -30.6580  -25.3207   19.7599 C   0  0  0  0  0  0  0  0  0  0  0  0
  -28.3897  -24.5564   20.3419 C   0  0  0  0  0  0  0  0  0  0  0  0
  -29.1163  -21.7921   20.0062 C   0  0  0  0  0  0  0  0  0  1  0  0
  -23.4490  -18.6355   23.5683 C   0  0  1  0  0  0  0  0  0  0  0  0
  -23.9965  -20.7230   26.6847 C   0  0  2  0  0  0  0  0  0  0  0  0
  -22.0209  -18.4329   22.9879 C   0  0  0  0  0  0  0  0  0  0  0  0
  -22.9769  -28.9827   23.3025 N   0  0  0  0  0  0  0  0  0  0  0  0
  -24.2153  -28.7930   23.7887 N   0  0  0  0  0  0  0  0  0  0  0  0
  -25.4280  -17.3168   22.8837 N   0  0  0  0  0  0  0  0  0  0  0  0
  -26.9669  -31.1679   22.6064 N   0  0  0  0  0  0  0  0  0  0  0  0
  -25.6435  -27.1563   24.7333 N   0  0  0  0  0  0  0  0  0  0  0  0
  -21.8050  -24.8922   24.0009 N   0  0  0  0  0  0  0  0  0  0  0  0
  -25.6253  -14.0656   21.4273 N   0  0  0  0  0  0  0  0  0  0  0  0
  -23.4724  -19.1848   24.9196 N   0  0  0  0  0  0  0  0  0  0  0  0
  -28.9199  -29.8503   22.3982 N   0  0  0  0  0  0  0  0  0  0  0  0
  -29.7498  -24.1965   19.9496 N   0  0  0  0  0  0  0  0  0  0  0  0
  -25.2280  -21.4174   27.1559 N   0  3  0  0  0  0  0  0  0  0  0  0
  -23.9417  -24.7203   24.8155 O   0  0  0  0  0  0  0  0  0  0  0  0
  -25.4035  -16.1856   20.4897 O   0  0  0  0  0  0  0  0  0  0  0  0
  -23.8133  -16.4085   24.2993 O   0  0  0  0  0  0  0  0  0  0  0  0
  -31.2924  -22.5379   19.4383 O   0  0  0  0  0  0  0  0  0  0  0  0
  -24.7332  -21.0628   24.4089 O   0  0  0  0  0  0  0  0  0  0  0  0
  -29.0768  -32.1300   22.5864 O   0  0  0  0  0  0  0  0  0  0  0  0
  -17.1283  -26.9653   21.7950 O   0  0  0  0  0  0  0  0  0  0  0  0
  -29.7042  -20.5099   19.7899 O   0  0  0  0  0  0  0  0  0  1  0  0
  -16.0198  -22.4334   18.8560 F   0  0  0  0  0  0  0  0  0  0  0  0
  -17.6059  -24.4486   22.8346 F   0  0  0  0  0  0  0  0  0  0  0  0
  1  2  1  0  0  0  0
  1  5  2  0  0  0  0
  2  6  2  0  0  0  0
  3 10  2  0  0  0  0
  3 17  1  0  0  0  0
  4 11  1  0  0  0  0
  4 17  2  0  0  0  0
  5 19  1  0  0  0  0
  6 21  1  0  0  0  0
  7 12  2  0  0  0  0
  7 20  1  0  0  0  0
  8  9  1  0  0  0  0
  8 23  2  0  0  0  0
  9 24  2  0  0  0  0
 10 27  1  0  0  0  0
 11 27  2  0  0  0  0
 12 28  1  0  0  0  0
 13 14  2  0  0  0  0
 13 29  1  0  0  0  0
 14 30  1  0  0  0  0
 15 22  1  0  0  0  0
 15 28  2  0  0  0  0
 16 30  2  0  0  0  0
 16 31  1  0  0  0  0
 17 32  1  0  0  0  0
 18 32  1  0  0  0  0
 18 33  2  0  0  0  0
 18 36  1  0  0  0  0
 19 21  2  0  0  0  0
 19 42  1  0  0  0  0
 20 22  2  0  0  0  0
 20 43  1  0  0  0  0
 21 51  1  0  0  0  0
 22 44  1  0  0  0  0
 23 26  1  0  0  0  0
 23 54  1  0  0  0  0
 24 25  1  0  0  0  0
 24 61  1  0  0  0  0
 25 26  2  0  0  0  0
 25 55  1  0  0  0  0
 26 62  1  0  0  0  0
 27 85  1  0  0  0  0
 28 86  1  0  0  0  0
 29 31  2  0  0  0  0
 29 85  1  0  0  0  0
 30 87  1  0  0  0  0
 31 88  1  0  0  0  0
 32 68  2  0  0  0  0
 33 69  1  0  0  0  0
 33 72  1  0  0  0  0
 34 35  2  0  0  0  0
 35 63  1  0  0  0  0
 36 73  1  0  0  0  0
 36 79  2  0  0  0  0
 37 52  1  0  0  0  0
 37 74  1  0  0  0  0
 37 80  2  0  0  0  0
 38 65  1  0  0  0  0
 38 70  1  0  0  0  0
 38 81  2  0  0  0  0
 39 64  1  0  0  0  0
 39 77  1  0  0  0  0
 39 82  2  0  0  0  0
 40 66  1  0  0  0  0
 40 75  1  0  0  0  0
 40 83  2  0  0  0  0
 41 71  1  0  0  0  0
 41 76  1  0  0  0  0
 41 84  2  0  0  0  0
 42 45  1  0  0  0  0
 43 52  1  0  0  0  0
 44 70  1  0  0  0  0
 45 47  1  0  0  0  0
 46 48  1  0  0  0  0
 46 49  1  0  0  0  0
 47 51  1  0  0  0  0
 48 53  1  0  0  0  0
 49 71  1  0  0  0  0
 50 53  1  0  0  0  0
 50 71  1  0  0  0  0
 51 74  1  0  0  0  0
 52 70  1  0  0  0  0
 53 69  1  0  0  0  0
 56 66  1  0  0  0  0
 57 67  1  0  0  0  0
 58 67  1  0  0  0  0
 59 67  1  0  0  0  0
 60 78  1  0  0  0  0
 61 76  1  0  0  0  0
 62 77  1  0  0  0  0
 63 77  1  0  0  0  0
 64 86  1  0  0  0  0
 65 67  1  0  0  0  0
 65 75  1  0  0  0  0
 66 78  1  0  0  0  0
 68 69  1  0  0  0  0
M  CHG  1  78   1
M  ISO  4  41 100  64 101  76 100  86 101
M  END
> <Batch ID>
0043

> <Smiles>
C=CCN(Cc1c(C)ccc(C[100NH:0][100C:0](=O)N2CCCC(n3nc(-c4ccc(Oc5ccc(F)cc5F)cc4)c(C(N)=O)c3N)C2)c1C)C(=O)[101CH2:1][101O:1]c1ccc2c(c1)CN(C(=O)C(NC(=O)C(C)NC)C(C)(C)C)C(C(=O)NC1CCCc3ccccc31)C2

> <Shape>
0.224

> <Color>
0.063

> <Negative vol penalty>
0.000

$$$$

  -OEChem-04042322153D

 90 99  0     1  0  0  0  0  0999 V2000
  -17.1575  -27.6203   24.4223 C   0  0  0  0  0  0  0  0  0  0  0  0
  -17.9327  -26.7306   23.6855 C   0  0  0  0  0  0  0  0  0  0  0  0
  -23.4257  -10.0800   22.2722 C   0  0  0  0  0  0  0  0  0  0  0  0
  -23.4251   -9.7774   19.8752 C   0  0  0  0  0  0  0  0  0  0  0  0
  -17.3249  -28.9942   24.2535 C   0  0  0  0  0  0  0  0  0  0  0  0
  -18.8751  -27.2143   22.7786 C   0  0  0  0  0  0  0  0  0  0  0  0
  -23.3082  -24.7881   23.1039 C   0  0  0  0  0  0  0  0  0  0  0  0
  -22.6553   -8.9265   22.4181 C   0  0  0  0  0  0  0  0  0  0  0  0
  -22.6546   -8.6238   20.0211 C   0  0  0  0  0  0  0  0  0  0  0  0
  -23.3909  -23.5304   22.5080 C   0  0  0  0  0  0  0  0  0  0  0  0
  -19.4113   -8.0392   22.0808 C   0  0  0  0  0  0  0  0  0  0  0  0
  -18.3251   -8.0924   22.9543 C   0  0  0  0  0  0  0  0  0  0  0  0
  -24.4901  -24.5138   20.5991 C   0  0  0  0  0  0  0  0  0  0  0  0
  -29.6634  -18.4220   21.7113 C   0  0  0  0  0  0  0  0  0  0  0  0
  -31.7440  -18.2712   20.4927 C   0  0  0  0  0  0  0  0  0  0  0  0
  -30.2535  -20.1342   20.1123 C   0  0  0  0  0  0  0  0  0  0  0  0
  -19.2964   -6.3144   24.2705 C   0  0  0  0  0  0  0  0  0  0  0  0
  -23.8106  -10.5056   21.0008 C   0  0  0  0  0  0  0  0  0  0  0  0
  -24.2652  -13.0034   21.2496 C   0  0  0  0  0  0  0  0  0  0  0  0
  -18.2765  -29.4950   23.3511 C   0  0  0  0  0  0  0  0  0  0  0  0
  -23.8068  -25.9216   22.4459 C   0  0  0  0  0  0  0  0  0  0  0  0
  -19.0544  -28.5961   22.5966 C   0  0  0  0  0  0  0  0  0  0  0  0
  -24.4147  -25.7843   21.1899 C   0  0  0  0  0  0  0  0  0  0  0  0
  -30.8537  -17.7507   21.4319 C   0  0  0  0  0  0  0  0  0  0  0  0
  -29.3632  -19.6137   21.0515 C   0  0  0  0  0  0  0  0  0  0  0  0
  -22.2698   -8.1983   21.2925 C   0  0  0  0  0  0  0  0  0  0  0  0
  -23.9793  -23.3935   21.2542 C   0  0  0  0  0  0  0  0  0  0  0  0
  -20.4401   -7.1235   22.3021 C   0  0  0  0  0  0  0  0  0  0  0  0
  -18.2677   -7.2300   24.0491 C   0  0  0  0  0  0  0  0  0  0  0  0
  -20.3826   -6.2612   23.3970 C   0  0  0  0  0  0  0  0  0  0  0  0
  -31.4439  -19.4630   19.8329 C   0  0  0  0  0  0  0  0  0  0  0  0
  -24.6060  -11.6974   20.8494 C   0  0  0  0  0  0  0  0  0  0  0  0
  -25.3470  -13.7673   20.8856 C   0  0  0  0  0  0  0  0  0  0  0  0
  -25.6693  -20.3918   21.0966 C   0  0  0  0  0  0  0  0  0  0  0  0
  -24.8903  -19.8389   22.0410 C   0  0  0  0  0  0  0  0  0  0  0  0
  -25.2202  -18.6079   22.7140 C   0  0  0  0  0  0  0  0  0  0  0  0
  -24.4392  -18.0597   23.6563 C   0  0  0  0  0  0  0  0  0  0  0  0
  -23.0769  -13.4830   21.8928 C   0  0  0  0  0  0  0  0  0  0  0  0
  -22.5360  -28.6251   21.3596 C   0  0  0  0  0  0  0  0  0  0  0  0
  -25.6328  -29.3848   20.7636 C   0  0  0  0  0  0  0  0  0  0  0  0
  -28.5525  -27.7088   19.4660 C   0  0  0  0  0  0  0  0  0  0  0  0
  -30.8625  -14.5648   20.5884 C   0  0  0  0  0  0  0  0  0  0  0  0
  -18.3883  -30.9879   23.1683 C   0  0  0  0  0  0  0  0  0  0  0  0
  -23.7339  -27.2673   23.1139 C   0  0  0  0  0  0  0  0  0  0  0  0
  -24.9836  -26.9669   20.4507 C   0  0  0  0  0  0  0  0  0  0  0  0
  -19.6700  -31.4206   22.4609 C   0  0  0  0  0  0  0  0  0  0  0  0
  -29.3472  -12.6468   17.9996 C   0  0  0  0  0  0  0  0  0  0  0  0
  -26.7790  -20.7790   18.4816 C   0  0  0  0  0  0  0  0  0  0  0  0
  -19.9195  -30.5537   21.2309 C   0  0  0  0  0  0  0  0  0  0  0  0
  -25.4716  -21.4682   18.8558 C   0  0  0  0  0  0  0  0  0  0  0  0
  -27.9536  -12.3316   18.5458 C   0  0  0  0  0  0  0  0  0  0  0  0
  -30.4020  -12.6359   19.1039 C   0  0  0  0  0  0  0  0  0  0  0  0
  -28.7055  -13.1875   20.8043 C   0  0  0  0  0  0  0  0  0  0  0  0
  -26.9609  -19.4744   19.2504 C   0  0  0  0  0  0  0  0  0  0  0  0
  -20.1043  -29.0823   21.6212 C   0  0  1  0  0  0  0  0  0  0  0  0
  -25.3636  -21.6796   20.3652 C   0  0  1  0  0  0  0  0  0  1  0  0
  -23.8123  -28.4288   22.1279 C   0  0  1  0  0  0  0  0  0  0  0  0
  -27.5991  -13.2419   19.7370 C   0  0  2  0  0  0  0  0  0  0  0  0
  -24.7647  -16.7852   24.3638 C   0  0  0  0  0  0  0  0  0  0  0  0
  -30.9924  -28.1345   19.8697 C   0  0  0  0  0  0  0  0  0  0  0  0
  -25.4564  -31.0888   18.2387 C   0  0  0  0  0  0  0  0  0  0  0  0
  -27.7254  -30.2478   17.5964 C   0  0  0  0  0  0  0  0  0  0  0  0
  -27.4351  -31.5745   19.6889 C   0  0  0  0  0  0  0  0  0  0  0  0
  -29.0148  -24.9175   20.3343 C   0  0  0  0  0  0  0  0  0  0  0  0
  -31.1747  -16.4772   22.1390 C   0  0  0  0  0  0  0  0  0  0  0  0
  -28.0834  -20.3357   21.3541 C   0  0  0  0  0  0  0  0  0  0  0  0
  -26.5738  -29.1993   19.5977 C   0  0  1  0  0  0  0  0  0  0  0  0
  -29.7844  -27.2922   20.2492 C   0  0  2  0  0  0  0  0  0  0  0  0
  -26.7764  -30.5094   18.7854 C   0  0  0  0  0  0  0  0  0  0  0  0
  -25.8101  -11.6318   20.2751 N   0  0  0  0  0  0  0  0  0  0  0  0
  -26.2353  -12.9061   20.3117 N   0  0  0  0  0  0  0  0  0  0  0  0
  -24.8826  -28.2625   21.1425 N   0  0  0  0  0  0  0  0  0  0  0  0
  -30.0062  -13.5204   20.2025 N   0  0  0  0  0  0  0  0  0  0  0  0
  -25.6156  -15.0850   21.0037 N   0  0  0  0  0  0  0  0  0  0  0  0
  -22.0092  -13.9098   21.0914 N   0  0  0  0  0  0  0  0  0  0  0  0
  -21.4316  -28.8638   22.1550 N   0  0  0  0  0  0  0  0  0  0  0  0
  -27.8038  -28.6427   20.1505 N   0  0  0  0  0  0  0  0  0  0  0  0
  -30.4086  -15.3598   21.6336 N   0  0  0  0  0  0  0  0  0  0  0  0
  -26.8765  -19.6759   20.7458 N   0  3  1  0  0  0  0  0  0  0  0  0
  -30.1072  -25.8616   19.9845 N   0  3  0  0  0  0  0  0  0  0  0  0
  -22.9715  -13.5471   23.1411 O   0  0  0  0  0  0  0  0  0  0  0  0
  -22.5524  -28.5659   20.1357 O   0  0  0  0  0  0  0  0  0  0  0  0
  -25.5711  -30.4829   21.3221 O   0  0  0  0  0  0  0  0  0  0  0  0
  -28.2835  -27.2542   18.3563 O   0  0  0  0  0  0  0  0  0  0  0  0
  -31.9486  -14.7766   20.0383 O   0  0  0  0  0  0  0  0  0  0  0  0
  -21.5182   -7.0725   21.4345 O   0  0  0  0  0  0  0  0  0  0  0  0
  -24.0608  -22.1671   20.6700 O   0  0  0  0  0  0  0  0  0  1  0  0
  -17.2253   -7.2822   24.8886 F   0  0  0  0  0  0  0  0  0  0  0  0
  -21.3685   -5.3802   23.6154 F   0  0  0  0  0  0  0  0  0  0  0  0
  -32.5419  -20.1045   18.6731 Cl  0  0  0  0  0  0  0  0  0  0  0  0
  1  2  1  0  0  0  0
  1  5  2  0  0  0  0
  2  6  2  0  0  0  0
  3  8  2  0  0  0  0
  3 18  1  0  0  0  0
  4  9  1  0  0  0  0
  4 18  2  0  0  0  0
  5 20  1  0  0  0  0
  6 22  1  0  0  0  0
  7 10  2  0  0  0  0
  7 21  1  0  0  0  0
  8 26  1  0  0  0  0
  9 26  2  0  0  0  0
 10 27  1  0  0  0  0
 11 12  2  0  0  0  0
 11 28  1  0  0  0  0
 12 29  1  0  0  0  0
 13 23  1  0  0  0  0
 13 27  2  0  0  0  0
 14 24  1  0  0  0  0
 14 25  2  0  0  0  0
 15 24  2  0  0  0  0
 15 31  1  0  0  0  0
 16 25  1  0  0  0  0
 16 31  2  0  0  0  0
 17 29  2  0  0  0  0
 17 30  1  0  0  0  0
 18 32  1  0  0  0  0
 19 32  1  0  0  0  0
 19 33  2  0  0  0  0
 19 38  1  0  0  0  0
 20 22  2  0  0  0  0
 20 43  1  0  0  0  0
 21 23  2  0  0  0  0
 21 44  1  0  0  0  0
 22 55  1  0  0  0  0
 23 45  1  0  0  0  0
 24 65  1  0  0  0  0
 25 66  1  0  0  0  0
 26 86  1  0  0  0  0
 27 87  1  0  0  0  0
 28 30  2  0  0  0  0
 28 86  1  0  0  0  0
 29 88  1  0  0  0  0
 30 89  1  0  0  0  0
 31 90  1  0  0  0  0
 32 70  2  0  0  0  0
 33 71  1  0  0  0  0
 33 74  1  0  0  0  0
 34 35  2  0  0  0  0
 34 56  1  0  0  0  0
 34 79  1  0  0  0  0
 35 36  1  0  0  0  0
 36 37  2  0  0  0  0
 37 59  1  0  0  0  0
 38 75  1  0  0  0  0
 38 81  2  0  0  0  0
 39 57  1  0  0  0  0
 39 76  1  0  0  0  0
 39 82  2  0  0  0  0
 40 67  1  0  0  0  0
 40 72  1  0  0  0  0
 40 83  2  0  0  0  0
 41 68  1  0  0  0  0
 41 77  1  0  0  0  0
 41 84  2  0  0  0  0
 42 73  1  0  0  0  0
 42 78  1  0  0  0  0
 42 85  2  0  0  0  0
 43 46  1  0  0  0  0
 44 57  1  0  0  0  0
 45 72  1  0  0  0  0
 46 49  1  0  0  0  0
 47 51  1  0  0  0  0
 47 52  1  0  0  0  0
 48 50  1  0  0  0  0
 48 54  1  0  0  0  0
 49 55  1  0  0  0  0
 50 56  1  0  0  0  0
 51 58  1  0  0  0  0
 52 73  1  0  0  0  0
 53 58  1  0  0  0  0
 53 73  1  0  0  0  0
 54 79  1  0  0  0  0
 55 76  1  0  0  0  0
 56 87  1  0  0  0  0
 57 72  1  0  0  0  0
 58 71  1  0  0  0  0
 60 68  1  0  0  0  0
 61 69  1  0  0  0  0
 62 69  1  0  0  0  0
 63 69  1  0  0  0  0
 64 80  1  0  0  0  0
 65 78  1  0  0  0  0
 66 79  1  0  0  0  0
 67 69  1  0  0  0  0
 67 77  1  0  0  0  0
 68 80  1  0  0  0  0
 70 71  1  0  0  0  0
M  CHG  2  79   1  80   1
M  ISO  4  42 100  56 101  78 100  87 101
M  END
> <Batch ID>
0043

> <Smiles>
CC=CC=C1N(Cc2cc(Cl)cc(C[100NH:0][100C:0](=O)N3CCCC(n4nc(-c5ccc(Oc6ccc(F)cc6F)cc5)c(C(N)=O)c4N)C3)c2)CCC[101CH:1]1[101O:1]c1ccc2c(c1)CN(C(=O)C(NC(=O)C(C)NC)C(C)(C)C)C(C(=O)NC1CCCc3ccccc31)C2

> <Shape>
0.314

> <Color>
0.166

> <Negative vol penalty>
0.000

$$$$

  -OEChem-04042322153D

 88 97  0     1  0  0  0  0  0999 V2000
  -24.1428  -14.7041   31.7762 C   0  0  0  0  0  0  0  0  0  0  0  0
  -24.5840  -14.1749   30.5676 C   0  0  0  0  0  0  0  0  0  0  0  0
  -26.4331  -27.5054   21.2303 C   0  0  0  0  0  0  0  0  0  0  0  0
  -26.1241  -28.0516   18.8972 C   0  0  0  0  0  0  0  0  0  0  0  0
  -23.1670  -15.6999   31.7851 C   0  0  0  0  0  0  0  0  0  0  0  0
  -24.0488  -14.6407   29.3671 C   0  0  0  0  0  0  0  0  0  0  0  0
  -26.9799  -15.2642   24.0261 C   0  0  0  0  0  0  0  0  0  0  0  0
  -25.3391  -28.3044   21.5622 C   0  0  0  0  0  0  0  0  0  0  0  0
  -25.0300  -28.8506   19.2292 C   0  0  0  0  0  0  0  0  0  0  0  0
  -27.0394  -14.4593   22.8893 C   0  0  0  0  0  0  0  0  0  0  0  0
  -21.9670  -28.0659   21.4891 C   0  0  0  0  0  0  0  0  0  0  0  0
  -21.0391  -27.5509   22.3942 C   0  0  0  0  0  0  0  0  0  0  0  0
  -25.2893  -15.7733   21.8746 C   0  0  0  0  0  0  0  0  0  0  0  0
  -29.9699  -18.9553   21.8959 C   0  0  0  0  0  0  0  0  0  0  0  0
  -30.3139  -17.5918   19.9313 C   0  0  0  0  0  0  0  0  0  0  0  0
  -21.4756  -29.3960   23.8917 C   0  0  0  0  0  0  0  0  0  0  0  0
  -26.8257  -27.3791   19.8977 C   0  0  0  0  0  0  0  0  0  0  0  0
  -29.2846  -26.7067   19.9943 C   0  0  0  0  0  0  0  0  0  0  0  0
  -22.6266  -16.1849   30.5837 C   0  0  0  0  0  0  0  0  0  0  0  0
  -26.0655  -16.3248   24.1002 C   0  0  0  0  0  0  0  0  0  0  0  0
  -23.0640  -15.6430   29.3600 C   0  0  0  0  0  0  0  0  0  0  0  0
  -25.2219  -16.5918   23.0124 C   0  0  0  0  0  0  0  0  0  0  0  0
  -30.2374  -17.8531   22.7078 C   0  0  0  0  0  0  0  0  0  0  0  0
  -30.5815  -16.4895   20.7432 C   0  0  0  0  0  0  0  0  0  0  0  0
  -30.5432  -16.6203   22.1315 C   0  0  0  0  0  0  0  0  0  0  0  0
  -30.0081  -18.8246   20.5076 C   0  0  0  0  0  0  0  0  0  0  0  0
  -24.6375  -28.9770   20.5617 C   0  0  0  0  0  0  0  0  0  0  0  0
  -26.1921  -14.7120   21.8145 C   0  0  0  0  0  0  0  0  0  0  0  0
  -22.6493  -29.2460   21.7853 C   0  0  0  0  0  0  0  0  0  0  0  0
  -20.7934  -28.2159   23.5955 C   0  0  0  0  0  0  0  0  0  0  0  0
  -22.4036  -29.9110   22.9865 C   0  0  0  0  0  0  0  0  0  0  0  0
  -27.9562  -26.5543   19.5542 C   0  0  0  0  0  0  0  0  0  0  0  0
  -29.9668  -25.6798   19.3890 C   0  0  0  0  0  0  0  0  0  0  0  0
  -30.3461  -12.8377   19.8528 C   0  0  0  0  0  0  0  0  0  0  0  0
  -31.2494  -12.0997   20.5212 C   0  0  0  0  0  0  0  0  0  0  0  0
  -29.8513  -27.6888   20.8719 C   0  0  0  0  0  0  0  0  0  0  0  0
  -23.6040  -17.0371   25.9810 C   0  0  0  0  0  0  0  0  0  0  0  0
  -23.6377  -19.8202   24.3149 C   0  0  0  0  0  0  0  0  0  0  0  0
  -24.4964  -21.4756   21.4568 C   0  0  0  0  0  0  0  0  0  0  0  0
  -29.7313  -19.9947   18.2863 C   0  0  0  0  0  0  0  0  0  0  0  0
  -21.5399  -17.2289   30.6458 C   0  0  0  0  0  0  0  0  0  0  0  0
  -26.0322  -17.2002   25.3228 C   0  0  0  0  0  0  0  0  0  0  0  0
  -24.2366  -17.7307   23.0339 C   0  0  0  0  0  0  0  0  0  0  0  0
  -29.7885  -12.3865   18.5306 C   0  0  0  0  0  0  0  0  0  0  0  0
  -21.2941  -17.9322   29.3134 C   0  0  0  0  0  0  0  0  0  0  0  0
  -28.4778  -11.6223   18.7075 C   0  0  0  0  0  0  0  0  0  0  0  0
  -28.2437  -22.3908   15.8979 C   0  0  0  0  0  0  0  0  0  0  0  0
  -21.2101  -16.9146   28.1801 C   0  0  0  0  0  0  0  0  0  0  0  0
  -28.3581  -23.7683   16.5528 C   0  0  0  0  0  0  0  0  0  0  0  0
  -27.2932  -12.4853   19.1327 C   0  0  0  0  0  0  0  0  0  0  0  0
  -29.3663  -21.4464   16.3051 C   0  0  0  0  0  0  0  0  0  0  0  0
  -29.1660  -22.4660   18.5835 C   0  0  0  0  0  0  0  0  0  0  0  0
  -28.5138  -14.4767   20.1566 C   0  0  0  0  0  0  0  0  0  0  0  0
  -22.5255  -16.1397   28.0358 C   0  0  1  0  0  0  0  0  0  0  0  0
  -24.7065  -17.9352   25.4956 C   0  0  1  0  0  0  0  0  0  0  0  0
  -29.2758  -23.7755   17.7868 C   0  0  2  0  0  0  0  0  0  0  0  0
  -27.5143  -13.3409   20.3829 C   0  0  1  0  0  0  0  0  0  1  0  0
  -30.1893  -18.0193   24.1914 C   0  0  0  0  0  0  0  0  0  0  0  0
  -30.8306  -15.4385   23.0022 C   0  0  0  0  0  0  0  0  0  0  0  0
  -24.8148  -23.4135   19.8946 C   0  0  0  0  0  0  0  0  0  0  0  0
  -20.6857  -19.3462   23.7061 C   0  0  0  0  0  0  0  0  0  0  0  0
  -20.8558  -21.0634   21.8921 C   0  0  0  0  0  0  0  0  0  0  0  0
  -21.2687  -21.7131   24.2649 C   0  0  0  0  0  0  0  0  0  0  0  0
  -27.1949  -22.0469   22.5297 C   0  0  0  0  0  0  0  0  0  0  0  0
  -30.9078  -15.1748   20.0982 C   0  0  0  0  0  0  0  0  0  0  0  0
  -22.9863  -20.3145   23.0460 C   0  0  1  0  0  0  0  0  0  0  0  0
  -25.1980  -22.8032   21.2337 C   0  0  2  0  0  0  0  0  0  0  0  0
  -21.4662  -20.5865   23.2273 C   0  0  0  0  0  0  0  0  0  0  0  0
  -27.8015  -25.5127   18.7326 N   0  0  0  0  0  0  0  0  0  0  0  0
  -29.0416  -25.0013   18.6516 N   0  0  0  0  0  0  0  0  0  0  0  0
  -24.2376  -18.5543   24.2542 N   0  0  0  0  0  0  0  0  0  0  0  0
  -29.4207  -21.2721   17.7595 N   0  0  0  0  0  0  0  0  0  0  0  0
  -31.2619  -25.3000   19.4209 N   0  0  0  0  0  0  0  0  0  0  0  0
  -30.3521  -28.8733   20.3146 N   0  0  0  0  0  0  0  0  0  0  0  0
  -29.7374  -19.9445   19.6825 N   0  0  0  0  0  0  0  0  0  0  0  0
  -23.5161  -16.9475   27.3571 N   0  0  0  0  0  0  0  0  0  0  0  0
  -23.7549  -21.4787   22.6193 N   0  0  0  0  0  0  0  0  0  0  0  0
  -29.9372  -14.0789   20.4654 N   0  3  2  0  0  0  0  0  0  0  0  0
  -26.6766  -22.6186   21.2602 N   0  3  0  0  0  0  0  0  0  0  0  0
  -29.9267  -27.5138   22.1117 O   0  0  0  0  0  0  0  0  0  0  0  0
  -22.8853  -16.4687   25.1673 O   0  0  0  0  0  0  0  0  0  0  0  0
  -23.6214  -20.5340   25.3208 O   0  0  0  0  0  0  0  0  0  0  0  0
  -24.5933  -20.5315   20.6758 O   0  0  0  0  0  0  0  0  0  0  0  0
  -29.9563  -19.0292   17.5533 O   0  0  0  0  0  0  0  0  0  0  0  0
  -23.5697  -29.7565   20.8853 O   0  0  0  0  0  0  0  0  0  0  0  0
  -26.2477  -13.9275   20.7039 O   0  0  0  0  0  0  0  0  0  1  0  0
  -19.9011  -27.7220   24.4639 F   0  0  0  0  0  0  0  0  0  0  0  0
  -23.0551  -31.0457   23.2760 F   0  0  0  0  0  0  0  0  0  0  0  0
  1  2  1  0  0  0  0
  1  5  2  0  0  0  0
  2  6  2  0  0  0  0
  3  8  2  0  0  0  0
  3 17  1  0  0  0  0
  4  9  1  0  0  0  0
  4 17  2  0  0  0  0
  5 19  1  0  0  0  0
  6 21  1  0  0  0  0
  7 10  2  0  0  0  0
  7 20  1  0  0  0  0
  8 27  1  0  0  0  0
  9 27  2  0  0  0  0
 10 28  1  0  0  0  0
 11 12  2  0  0  0  0
 11 29  1  0  0  0  0
 12 30  1  0  0  0  0
 13 22  1  0  0  0  0
 13 28  2  0  0  0  0
 14 23  2  0  0  0  0
 14 26  1  0  0  0  0
 15 24  1  0  0  0  0
 15 26  2  0  0  0  0
 16 30  2  0  0  0  0
 16 31  1  0  0  0  0
 17 32  1  0  0  0  0
 18 32  1  0  0  0  0
 18 33  2  0  0  0  0
 18 36  1  0  0  0  0
 19 21  2  0  0  0  0
 19 41  1  0  0  0  0
 20 22  2  0  0  0  0
 20 42  1  0  0  0  0
 21 54  1  0  0  0  0
 22 43  1  0  0  0  0
 23 25  1  0  0  0  0
 23 58  1  0  0  0  0
 24 25  2  0  0  0  0
 24 65  1  0  0  0  0
 25 59  1  0  0  0  0
 26 75  1  0  0  0  0
 27 85  1  0  0  0  0
 28 86  1  0  0  0  0
 29 31  2  0  0  0  0
 29 85  1  0  0  0  0
 30 87  1  0  0  0  0
 31 88  1  0  0  0  0
 32 69  2  0  0  0  0
 33 70  1  0  0  0  0
 33 73  1  0  0  0  0
 34 35  2  0  0  0  0
 34 44  1  0  0  0  0
 34 78  1  0  0  0  0
 36 74  1  0  0  0  0
 36 80  2  0  0  0  0
 37 55  1  0  0  0  0
 37 76  1  0  0  0  0
 37 81  2  0  0  0  0
 38 66  1  0  0  0  0
 38 71  1  0  0  0  0
 38 82  2  0  0  0  0
 39 67  1  0  0  0  0
 39 77  1  0  0  0  0
 39 83  2  0  0  0  0
 40 72  1  0  0  0  0
 40 75  1  0  0  0  0
 40 84  2  0  0  0  0
 41 45  1  0  0  0  0
 42 55  1  0  0  0  0
 43 71  1  0  0  0  0
 44 46  1  0  0  0  0
 45 48  1  0  0  0  0
 46 50  1  0  0  0  0
 47 49  1  0  0  0  0
 47 51  1  0  0  0  0
 48 54  1  0  0  0  0
 49 56  1  0  0  0  0
 50 57  1  0  0  0  0
 51 72  1  0  0  0  0
 52 56  1  0  0  0  0
 52 72  1  0  0  0  0
 53 57  1  0  0  0  0
 53 78  1  0  0  0  0
 54 76  1  0  0  0  0
 55 71  1  0  0  0  0
 56 70  1  0  0  0  0
 57 86  1  0  0  0  0
 60 67  1  0  0  0  0
 61 68  1  0  0  0  0
 62 68  1  0  0  0  0
 63 68  1  0  0  0  0
 64 79  1  0  0  0  0
 65 78  1  0  0  0  0
 66 68  1  0  0  0  0
 66 77  1  0  0  0  0
 67 79  1  0  0  0  0
 69 70  1  0  0  0  0
M  CHG  2  78   1  79   1
M  ISO  4  40 100  57 101  75 100  86 101
M  END
> <Batch ID>
0043

> <Smiles>
C=C1CCC[101CH:1]([101O:1]c2ccc3c(c2)CN(C(=O)C(NC(=O)C(C)NC)C(C)(C)C)C(C(=O)NC2CCCc4ccccc42)C3)CN1Cc1cc([100NH:0][100C:0](=O)N2CCCC(n3nc(-c4ccc(Oc5ccc(F)cc5F)cc4)c(C(N)=O)c3N)C2)cc(C)c1C

> <Shape>
0.233

> <Color>
0.050

> <Negative vol penalty>
0.000

$$$$

  -OEChem-04042322153D

 89 98  0     1  0  0  0  0  0999 V2000
  -42.8395  -22.7323   33.3732 C   0  0  0  0  0  0  0  0  0  0  0  0
  -41.5457  -22.2714   33.1518 C   0  0  0  0  0  0  0  0  0  0  0  0
  -22.6721  -10.1807   20.1919 C   0  0  0  0  0  0  0  0  0  0  0  0
  -24.3042   -9.4570   21.8197 C   0  0  0  0  0  0  0  0  0  0  0  0
  -43.3750  -23.7241   32.5526 C   0  0  0  0  0  0  0  0  0  0  0  0
  -40.7862  -22.8030   32.1101 C   0  0  0  0  0  0  0  0  0  0  0  0
  -35.7541  -20.9504   27.3602 C   0  0  0  0  0  0  0  0  0  0  0  0
  -32.3789  -18.5108   22.1023 C   0  0  0  0  0  0  0  0  0  0  0  0
  -31.8636  -17.3050   21.6267 C   0  0  0  0  0  0  0  0  0  0  0  0
  -21.9382   -9.0147   20.4093 C   0  0  0  0  0  0  0  0  0  0  0  0
  -23.5703   -8.2909   22.0371 C   0  0  0  0  0  0  0  0  0  0  0  0
  -34.5017  -21.3587   26.9034 C   0  0  0  0  0  0  0  0  0  0  0  0
  -20.8015   -7.3743   23.7441 C   0  0  0  0  0  0  0  0  0  0  0  0
  -20.5994   -6.9743   25.0650 C   0  0  0  0  0  0  0  0  0  0  0  0
  -35.5591  -23.0120   25.5006 C   0  0  0  0  0  0  0  0  0  0  0  0
  -21.7361   -4.8919   24.6083 C   0  0  0  0  0  0  0  0  0  0  0  0
  -23.8552  -10.4019   20.8971 C   0  0  0  0  0  0  0  0  0  0  0  0
  -24.1810  -12.9318   20.8638 C   0  0  0  0  0  0  0  0  0  0  0  0
  -42.6252  -24.2613   31.4944 C   0  0  0  0  0  0  0  0  0  0  0  0
  -36.9197  -21.5782   26.8981 C   0  0  0  0  0  0  0  0  0  0  0  0
  -41.3117  -23.8040   31.2754 C   0  0  0  0  0  0  0  0  0  0  0  0
  -36.8252  -22.6081   25.9512 C   0  0  0  0  0  0  0  0  0  0  0  0
  -31.6183  -19.3038   22.9616 C   0  0  0  0  0  0  0  0  0  0  0  0
  -30.3424  -18.8910   23.3452 C   0  0  0  0  0  0  0  0  0  0  0  0
  -29.8270  -17.6853   22.8696 C   0  0  0  0  0  0  0  0  0  0  0  0
  -30.5876  -16.8923   22.0103 C   0  0  0  0  0  0  0  0  0  0  0  0
  -22.3873   -8.0698   21.3319 C   0  0  0  0  0  0  0  0  0  0  0  0
  -34.4039  -22.3915   25.9756 C   0  0  0  0  0  0  0  0  0  0  0  0
  -21.4707   -6.5330   22.8553 C   0  0  0  0  0  0  0  0  0  0  0  0
  -21.0667   -5.7331   25.4971 C   0  0  0  0  0  0  0  0  0  0  0  0
  -21.9381   -5.2919   23.2874 C   0  0  0  0  0  0  0  0  0  0  0  0
  -24.6140  -11.6060   20.6726 C   0  0  0  0  0  0  0  0  0  0  0  0
  -25.2641  -13.7005   20.5137 C   0  0  0  0  0  0  0  0  0  0  0  0
  -30.7397  -23.8421   23.7113 C   0  0  0  0  0  0  0  0  0  0  0  0
  -31.7808  -22.9953   23.5904 C   0  0  0  0  0  0  0  0  0  0  0  0
  -22.9132  -13.4244   21.3173 C   0  0  0  0  0  0  0  0  0  0  0  0
  -39.2532  -23.2556   28.2564 C   0  0  0  0  0  0  0  0  0  0  0  0
  -40.5599  -23.1030   25.2913 C   0  0  0  0  0  0  0  0  0  0  0  0
  -39.4040  -23.3955   21.8860 C   0  0  0  0  0  0  0  0  0  0  0  0
  -30.7260  -14.7728   20.6557 C   0  0  0  0  0  0  0  0  0  0  0  0
  -43.2296  -25.3654   30.6636 C   0  0  0  0  0  0  0  0  0  0  0  0
  -38.2646  -21.1082   27.3806 C   0  0  0  0  0  0  0  0  0  0  0  0
  -38.0474  -23.3010   25.4085 C   0  0  0  0  0  0  0  0  0  0  0  0
  -29.3657  -23.6821   23.1244 C   0  0  0  0  0  0  0  0  0  0  0  0
  -42.4943  -25.6103   29.3485 C   0  0  0  0  0  0  0  0  0  0  0  0
  -29.2671  -24.1108   21.6594 C   0  0  0  0  0  0  0  0  0  0  0  0
  -29.9174  -23.1604   20.6439 C   0  0  0  0  0  0  0  0  0  0  0  0
  -29.5945  -12.4389   18.2165 C   0  0  0  0  0  0  0  0  0  0  0  0
  -31.4502  -23.1665   20.6440 C   0  0  0  0  0  0  0  0  0  0  0  0
  -40.9879  -25.6673   29.5817 C   0  0  0  0  0  0  0  0  0  0  0  0
  -28.1623  -12.1232   18.6538 C   0  0  0  0  0  0  0  0  0  0  0  0
  -30.5239  -12.6300   19.4138 C   0  0  0  0  0  0  0  0  0  0  0  0
  -28.6311  -13.2925   20.8447 C   0  0  0  0  0  0  0  0  0  0  0  0
  -32.1140  -22.0010   21.3843 C   0  0  0  0  0  0  0  0  0  0  0  0
  -40.4654  -24.3382   30.1403 C   0  0  1  0  0  0  0  0  0  0  0  0
  -39.3559  -22.1634   27.2296 C   0  0  1  0  0  0  0  0  0  0  0  0
  -27.6440  -13.1558   19.6740 C   0  0  2  0  0  0  0  0  0  0  0  0
  -29.5291  -19.7437   24.2670 C   0  0  0  0  0  0  0  0  0  0  0  0
  -28.4574  -17.2443   23.2827 C   0  0  0  0  0  0  0  0  0  0  0  0
  -40.3184  -22.4186   19.7631 C   0  0  0  0  0  0  0  0  0  0  0  0
  -42.0377  -25.7612   25.0458 C   0  0  0  0  0  0  0  0  0  0  0  0
  -41.6139  -25.6894   22.5793 C   0  0  0  0  0  0  0  0  0  0  0  0
  -42.9863  -23.9083   23.6597 C   0  0  0  0  0  0  0  0  0  0  0  0
  -36.8144  -22.1285   21.2169 C   0  0  0  0  0  0  0  0  0  0  0  0
  -32.1966  -20.5959   23.4585 C   0  0  0  0  0  0  0  0  0  0  0  0
  -33.1165  -23.3176   24.2033 C   0  0  0  0  0  0  0  0  0  1  0  0
  -40.4882  -23.9539   24.0463 C   0  0  1  0  0  0  0  0  0  0  0  0
  -39.2832  -22.2759   20.8680 C   0  0  2  0  0  0  0  0  0  0  0  0
  -41.7599  -24.8270   23.8512 C   0  0  0  0  0  0  0  0  0  0  0  0
  -25.8738  -11.5330   20.2349 N   0  0  0  0  0  0  0  0  0  0  0  0
  -26.2417  -12.8227   20.1481 N   0  0  0  0  0  0  0  0  0  0  0  0
  -39.3393  -22.8097   25.9157 N   0  0  0  0  0  0  0  0  0  0  0  0
  -29.9706  -13.6251   20.3349 N   0  0  0  0  0  0  0  0  0  0  0  0
  -25.4659  -15.0350   20.4861 N   0  0  0  0  0  0  0  0  0  0  0  0
  -21.9110  -12.4974   21.6346 N   0  0  0  0  0  0  0  0  0  0  0  0
  -30.0842  -15.6638   21.5152 N   0  0  0  0  0  0  0  0  0  0  0  0
  -40.3550  -23.3547   29.0844 N   0  0  0  0  0  0  0  0  0  0  0  0
  -40.2158  -23.0399   22.9423 N   0  0  0  0  0  0  0  0  0  0  0  0
  -31.6008  -21.8054   22.7879 N   0  3  1  0  0  0  0  0  0  0  0  0
  -37.9286  -22.2845   20.2468 N   0  3  0  0  0  0  0  0  0  0  0  0
  -22.6707  -14.6506   21.4220 O   0  0  0  0  0  0  0  0  0  0  0  0
  -38.2494  -23.9574   28.2936 O   0  0  0  0  0  0  0  0  0  0  0  0
  -41.6577  -22.7071   25.6908 O   0  0  0  0  0  0  0  0  0  0  0  0
  -38.8380  -24.4786   21.7553 O   0  0  0  0  0  0  0  0  0  0  0  0
  -31.8479  -14.9652   20.1800 O   0  0  0  0  0  0  0  0  0  0  0  0
  -21.6712   -6.9319   21.5444 O   0  0  0  0  0  0  0  0  0  0  0  0
  -33.1827  -22.7924   25.5285 O   0  0  0  0  0  0  0  0  0  1  0  0
  -20.8740   -5.3498   26.7660 F   0  0  0  0  0  0  0  0  0  0  0  0
  -22.5828   -4.4799   22.4384 F   0  0  0  0  0  0  0  0  0  0  0  0
  1  2  1  0  0  0  0
  1  5  2  0  0  0  0
  2  6  2  0  0  0  0
  3 10  2  0  0  0  0
  3 17  1  0  0  0  0
  4 11  1  0  0  0  0
  4 17  2  0  0  0  0
  5 19  1  0  0  0  0
  6 21  1  0  0  0  0
  7 12  2  0  0  0  0
  7 20  1  0  0  0  0
  8  9  2  0  0  0  0
  8 23  1  0  0  0  0
  9 26  1  0  0  0  0
 10 27  1  0  0  0  0
 11 27  2  0  0  0  0
 12 28  1  0  0  0  0
 13 14  2  0  0  0  0
 13 29  1  0  0  0  0
 14 30  1  0  0  0  0
 15 22  1  0  0  0  0
 15 28  2  0  0  0  0
 16 30  2  0  0  0  0
 16 31  1  0  0  0  0
 17 32  1  0  0  0  0
 18 32  1  0  0  0  0
 18 33  2  0  0  0  0
 18 36  1  0  0  0  0
 19 21  2  0  0  0  0
 19 41  1  0  0  0  0
 20 22  2  0  0  0  0
 20 42  1  0  0  0  0
 21 55  1  0  0  0  0
 22 43  1  0  0  0  0
 23 24  2  0  0  0  0
 23 65  1  0  0  0  0
 24 25  1  0  0  0  0
 24 58  1  0  0  0  0
 25 26  2  0  0  0  0
 25 59  1  0  0  0  0
 26 76  1  0  0  0  0
 27 86  1  0  0  0  0
 28 87  1  0  0  0  0
 29 31  2  0  0  0  0
 29 86  1  0  0  0  0
 30 88  1  0  0  0  0
 31 89  1  0  0  0  0
 32 70  2  0  0  0  0
 33 71  1  0  0  0  0
 33 74  1  0  0  0  0
 34 35  2  0  0  0  0
 34 44  1  0  0  0  0
 35 66  1  0  0  0  0
 35 79  1  0  0  0  0
 36 75  1  0  0  0  0
 36 81  2  0  0  0  0
 37 56  1  0  0  0  0
 37 77  1  0  0  0  0
 37 82  2  0  0  0  0
 38 67  1  0  0  0  0
 38 72  1  0  0  0  0
 38 83  2  0  0  0  0
 39 68  1  0  0  0  0
 39 78  1  0  0  0  0
 39 84  2  0  0  0  0
 40 73  1  0  0  0  0
 40 76  1  0  0  0  0
 40 85  2  0  0  0  0
 41 45  1  0  0  0  0
 42 56  1  0  0  0  0
 43 72  1  0  0  0  0
 44 46  1  0  0  0  0
 45 50  1  0  0  0  0
 46 47  1  0  0  0  0
 47 49  1  0  0  0  0
 48 51  1  0  0  0  0
 48 52  1  0  0  0  0
 49 54  1  0  0  0  0
 50 55  1  0  0  0  0
 51 57  1  0  0  0  0
 52 73  1  0  0  0  0
 53 57  1  0  0  0  0
 53 73  1  0  0  0  0
 54 79  1  0  0  0  0
 55 77  1  0  0  0  0
 56 72  1  0  0  0  0
 57 71  1  0  0  0  0
 60 68  1  0  0  0  0
 61 69  1  0  0  0  0
 62 69  1  0  0  0  0
 63 69  1  0  0  0  0
 64 80  1  0  0  0  0
 65 79  1  0  0  0  0
 66 87  1  0  0  0  0
 67 69  1  0  0  0  0
 67 78  1  0  0  0  0
 68 80  1  0  0  0  0
 70 71  1  0  0  0  0
M  CHG  2  79   1  80   1
M  ISO  4  40 100  66 101  76 100  87 101
M  END
> <Batch ID>
0043

> <Smiles>
CNC(C)C(=O)NC(C(=O)N1Cc2cc([101O:1][101CH2:1]C3=CCCCCCN3Cc3ccc([100NH:0][100C:0](=O)N4CCCC(n5nc(-c6ccc(Oc7ccc(F)cc7F)cc6)c(C(N)=O)c5N)C4)c(C)c3C)ccc2CC1C(=O)NC1CCCc2ccccc21)C(C)(C)C

> <Shape>
0.196

> <Color>
0.196

> <Negative vol penalty>
0.000

$$$$

  -OEChem-04042322153D

 87 96  0     1  0  0  0  0  0999 V2000
  -25.2185  -33.9738   20.2309 C   0  0  0  0  0  0  0  0  0  0  0  0
  -25.7590  -33.0922   19.3017 C   0  0  0  0  0  0  0  0  0  0  0  0
  -23.3085  -10.2146   22.2377 C   0  0  0  0  0  0  0  0  0  0  0  0
  -23.6032   -9.5275   19.9403 C   0  0  0  0  0  0  0  0  0  0  0  0
  -25.6232  -33.9115   21.5626 C   0  0  0  0  0  0  0  0  0  0  0  0
  -26.6955  -32.1402   19.7061 C   0  0  0  0  0  0  0  0  0  0  0  0
  -31.4794  -25.4024   20.7639 C   0  0  0  0  0  0  0  0  0  0  0  0
  -22.5642   -9.0616   22.4871 C   0  0  0  0  0  0  0  0  0  0  0  0
  -22.8589   -8.3744   20.1897 C   0  0  0  0  0  0  0  0  0  0  0  0
  -32.0194  -24.7468   21.8695 C   0  0  0  0  0  0  0  0  0  0  0  0
  -19.4141   -7.9643   21.9416 C   0  0  0  0  0  0  0  0  0  0  0  0
  -18.2305   -8.1021   22.6666 C   0  0  0  0  0  0  0  0  0  0  0  0
  -29.9654  -25.1108   23.0809 C   0  0  0  0  0  0  0  0  0  0  0  0
  -32.0590  -16.5925   22.5290 C   0  0  0  0  0  0  0  0  0  0  0  0
  -30.5169  -18.3561   24.0437 C   0  0  0  0  0  0  0  0  0  0  0  0
  -19.0957   -6.6140   24.3619 C   0  0  0  0  0  0  0  0  0  0  0  0
  -23.8279  -10.4476   20.9642 C   0  0  0  0  0  0  0  0  0  0  0  0
  -24.1679  -12.9729   20.8413 C   0  0  0  0  0  0  0  0  0  0  0  0
  -26.5744  -32.9662   21.9803 C   0  0  0  0  0  0  0  0  0  0  0  0
  -30.1801  -25.9276   20.8123 C   0  0  0  0  0  0  0  0  0  0  0  0
  -27.0990  -32.0457   21.0503 C   0  0  0  0  0  0  0  0  0  0  0  0
  -29.4103  -25.7704   21.9737 C   0  0  0  0  0  0  0  0  0  0  0  0
  -32.6762  -17.4684   23.4220 C   0  0  0  0  0  0  0  0  0  0  0  0
  -31.9052  -18.3502   24.1794 C   0  0  0  0  0  0  0  0  0  0  0  0
  -30.6708  -16.5985   22.3932 C   0  0  0  0  0  0  0  0  0  0  0  0
  -22.3394   -8.1415   21.4631 C   0  0  0  0  0  0  0  0  0  0  0  0
  -31.2634  -24.6035   23.0292 C   0  0  0  0  0  0  0  0  0  0  0  0
  -20.4386   -7.1513   22.4267 C   0  0  0  0  0  0  0  0  0  0  0  0
  -18.0713   -7.4270   23.8767 C   0  0  0  0  0  0  0  0  0  0  0  0
  -20.2793   -6.4762   23.6369 C   0  0  0  0  0  0  0  0  0  0  0  0
  -29.8997  -17.4803   23.1506 C   0  0  0  0  0  0  0  0  0  0  0  0
  -24.5964  -11.6387   20.7058 C   0  0  0  0  0  0  0  0  0  0  0  0
  -25.2599  -13.7227   20.4783 C   0  0  0  0  0  0  0  0  0  0  0  0
  -32.0237  -21.5975   24.4187 C   0  0  0  0  0  0  0  0  0  0  0  0
  -22.8965  -13.4882   21.2580 C   0  0  0  0  0  0  0  0  0  0  0  0
  -28.9264  -28.8381   20.5655 C   0  0  0  0  0  0  0  0  0  0  0  0
  -26.1203  -27.2135   20.6614 C   0  0  0  0  0  0  0  0  0  0  0  0
  -24.7495  -24.4322   22.5061 C   0  0  0  0  0  0  0  0  0  0  0  0
  -30.7250  -14.7729   20.6581 C   0  0  0  0  0  0  0  0  0  0  0  0
  -26.9708  -32.9376   23.4354 C   0  0  0  0  0  0  0  0  0  0  0  0
  -29.6024  -26.6086   19.6020 C   0  0  0  0  0  0  0  0  0  0  0  0
  -28.0029  -26.2983   22.0698 C   0  0  0  0  0  0  0  0  0  0  0  0
  -28.2832  -32.1998   23.6797 C   0  0  0  0  0  0  0  0  0  0  0  0
  -29.9894  -21.7931   26.5189 C   0  0  0  0  0  0  0  0  0  0  0  0
  -29.6154  -12.3550   18.2917 C   0  0  0  0  0  0  0  0  0  0  0  0
  -28.2577  -30.8487   22.9809 C   0  0  0  0  0  0  0  0  0  0  0  0
  -30.6514  -23.0494   25.9927 C   0  0  0  0  0  0  0  0  0  0  0  0
  -28.1754  -12.0629   18.7200 C   0  0  0  0  0  0  0  0  0  0  0  0
  -30.9879  -20.6495   26.5140 C   0  0  0  0  0  0  0  0  0  0  0  0
  -30.5289  -12.5862   19.4942 C   0  0  0  0  0  0  0  0  0  0  0  0
  -28.6197  -13.3110   20.8722 C   0  0  0  0  0  0  0  0  0  0  0  0
  -28.1418  -31.0219   21.4612 C   0  0  1  0  0  0  0  0  0  0  0  0
  -31.1094  -22.8069   24.5680 C   0  0  1  0  0  0  0  0  0  1  0  0
  -28.4552  -27.5558   19.9399 C   0  0  1  0  0  0  0  0  0  0  0  0
  -27.6484  -13.1354   19.6934 C   0  0  2  0  0  0  0  0  0  0  0  0
  -34.1643  -17.4461   23.5475 C   0  0  0  0  0  0  0  0  0  0  0  0
  -22.9584  -22.7876   21.8863 C   0  0  0  0  0  0  0  0  0  0  0  0
  -24.2543  -29.1359   22.1218 C   0  0  0  0  0  0  0  0  0  0  0  0
  -23.0224  -27.1491   23.0180 C   0  0  0  0  0  0  0  0  0  0  0  0
  -23.1086  -27.5556   20.5583 C   0  0  0  0  0  0  0  0  0  0  0  0
  -26.5328  -22.1243   23.0084 C   0  0  0  0  0  0  0  0  0  0  0  0
  -32.5472  -19.3022   25.1467 C   0  0  0  0  0  0  0  0  0  0  0  0
  -25.1867  -26.7562   21.7560 C   0  0  1  0  0  0  0  0  0  0  0  0
  -24.4552  -23.0428   21.9699 C   0  0  2  0  0  0  0  0  0  0  0  0
  -23.9209  -27.6522   21.8681 C   0  0  0  0  0  0  0  0  0  0  0  0
  -25.8618  -11.5434   20.2892 N   0  0  0  0  0  0  0  0  0  0  0  0
  -26.2378  -12.8271   20.1596 N   0  0  0  0  0  0  0  0  0  0  0  0
  -31.7814  -20.5333   25.2894 N   0  0  0  0  0  0  0  0  0  0  0  0
  -27.4850  -26.9621   20.8621 N   0  0  0  0  0  0  0  0  0  0  0  0
  -29.9680  -13.6177   20.3695 N   0  0  0  0  0  0  0  0  0  0  0  0
  -25.4693  -15.0543   20.4038 N   0  0  0  0  0  0  0  0  0  0  0  0
  -21.8849  -12.5787   21.5953 N   0  0  0  0  0  0  0  0  0  0  0  0
  -30.0760  -15.6985   21.4745 N   0  0  0  0  0  0  0  0  0  0  0  0
  -27.9108  -29.7293   20.8549 N   0  0  0  0  0  0  0  0  0  0  0  0
  -24.9020  -25.3505   21.4888 N   0  0  0  0  0  0  0  0  0  0  0  0
  -25.0598  -22.0073   22.8548 N   0  3  0  0  0  0  0  0  0  0  0  0
  -32.8717  -21.5751   23.5229 O   0  0  0  0  0  0  0  0  0  0  0  0
  -22.6592  -14.7187   21.3134 O   0  0  0  0  0  0  0  0  0  0  0  0
  -30.1226  -29.0059   20.7717 O   0  0  0  0  0  0  0  0  0  0  0  0
  -25.6552  -27.7669   19.6619 O   0  0  0  0  0  0  0  0  0  0  0  0
  -24.8320  -24.6790   23.7072 O   0  0  0  0  0  0  0  0  0  0  0  0
  -31.8546  -14.9419   20.1916 O   0  0  0  0  0  0  0  0  0  0  0  0
  -21.6134   -7.0162   21.7062 O   0  0  0  0  0  0  0  0  0  0  0  0
  -31.7883  -23.9646   24.1100 O   0  0  0  0  0  0  0  0  0  1  0  0
  -16.9352   -7.5606   24.5736 F   0  0  0  0  0  0  0  0  0  0  0  0
  -21.2604   -5.6947   24.1086 F   0  0  0  0  0  0  0  0  0  0  0  0
  -28.1777  -17.5204   23.0141 Cl  0  0  0  0  0  0  0  0  0  0  0  0
  1  2  1  0  0  0  0
  1  5  2  0  0  0  0
  2  6  2  0  0  0  0
  3  8  2  0  0  0  0
  3 17  1  0  0  0  0
  4  9  1  0  0  0  0
  4 17  2  0  0  0  0
  5 19  1  0  0  0  0
  6 21  1  0  0  0  0
  7 10  2  0  0  0  0
  7 20  1  0  0  0  0
  8 26  1  0  0  0  0
  9 26  2  0  0  0  0
 10 27  1  0  0  0  0
 11 12  2  0  0  0  0
 11 28  1  0  0  0  0
 12 29  1  0  0  0  0
 13 22  1  0  0  0  0
 13 27  2  0  0  0  0
 14 23  1  0  0  0  0
 14 25  2  0  0  0  0
 15 24  1  0  0  0  0
 15 31  2  0  0  0  0
 16 29  2  0  0  0  0
 16 30  1  0  0  0  0
 17 32  1  0  0  0  0
 18 32  1  0  0  0  0
 18 33  2  0  0  0  0
 18 35  1  0  0  0  0
 19 21  2  0  0  0  0
 19 40  1  0  0  0  0
 20 22  2  0  0  0  0
 20 41  1  0  0  0  0
 21 52  1  0  0  0  0
 22 42  1  0  0  0  0
 23 24  2  0  0  0  0
 23 56  1  0  0  0  0
 24 62  1  0  0  0  0
 25 31  1  0  0  0  0
 25 73  1  0  0  0  0
 26 83  1  0  0  0  0
 27 84  1  0  0  0  0
 28 30  2  0  0  0  0
 28 83  1  0  0  0  0
 29 85  1  0  0  0  0
 30 86  1  0  0  0  0
 31 87  1  0  0  0  0
 32 66  2  0  0  0  0
 33 67  1  0  0  0  0
 33 71  1  0  0  0  0
 34 53  1  0  0  0  0
 34 68  1  0  0  0  0
 34 77  2  0  0  0  0
 35 72  1  0  0  0  0
 35 78  2  0  0  0  0
 36 54  1  0  0  0  0
 36 74  1  0  0  0  0
 36 79  2  0  0  0  0
 37 63  1  0  0  0  0
 37 69  1  0  0  0  0
 37 80  2  0  0  0  0
 38 64  1  0  0  0  0
 38 75  1  0  0  0  0
 38 81  2  0  0  0  0
 39 70  1  0  0  0  0
 39 73  1  0  0  0  0
 39 82  2  0  0  0  0
 40 43  1  0  0  0  0
 41 54  1  0  0  0  0
 42 69  1  0  0  0  0
 43 46  1  0  0  0  0
 44 47  1  0  0  0  0
 44 49  1  0  0  0  0
 45 48  1  0  0  0  0
 45 50  1  0  0  0  0
 46 52  1  0  0  0  0
 47 53  1  0  0  0  0
 48 55  1  0  0  0  0
 49 68  1  0  0  0  0
 50 70  1  0  0  0  0
 51 55  1  0  0  0  0
 51 70  1  0  0  0  0
 52 74  1  0  0  0  0
 53 84  1  0  0  0  0
 54 69  1  0  0  0  0
 55 67  1  0  0  0  0
 57 64  1  0  0  0  0
 58 65  1  0  0  0  0
 59 65  1  0  0  0  0
 60 65  1  0  0  0  0
 61 76  1  0  0  0  0
 62 68  1  0  0  0  0
 63 65  1  0  0  0  0
 63 75  1  0  0  0  0
 64 76  1  0  0  0  0
 66 67  1  0  0  0  0
M  CHG  1  76   1
M  ISO  4  39 100  53 101  73 100  84 101
M  END
> <Batch ID>
0043

> <Smiles>
CNC(C)C(=O)NC(C(=O)N1Cc2cc([101O:1][101CH:1]3CCCN(Cc4cc(Cl)c([100NH:0][100C:0](=O)N5CCCC(n6nc(-c7ccc(Oc8ccc(F)cc8F)cc7)c(C(N)=O)c6N)C5)cc4C)C3=O)ccc2CC1C(=O)NC1CCCc2ccccc21)C(C)(C)C

> <Shape>
0.247

> <Color>
0.191

> <Negative vol penalty>
0.000

$$$$

  -OEChem-04042322153D

 87 96  0     1  0  0  0  0  0999 V2000
  -20.0783  -28.5204   15.5908 C   0  0  0  0  0  0  0  0  0  0  0  0
  -21.4131  -28.2963   15.9127 C   0  0  0  0  0  0  0  0  0  0  0  0
  -23.4279  -13.4432   24.3218 C   0  0  0  0  0  0  0  0  0  0  0  0
  -24.0878  -15.7403   23.9686 C   0  0  0  0  0  0  0  0  0  0  0  0
  -19.4239  -29.6491   16.0825 C   0  0  0  0  0  0  0  0  0  0  0  0
  -22.0945  -29.2013   16.7257 C   0  0  0  0  0  0  0  0  0  0  0  0
  -24.8611  -26.9069   20.2931 C   0  0  0  0  0  0  0  0  0  0  0  0
  -22.7066  -13.8243   25.4532 C   0  0  0  0  0  0  0  0  0  0  0  0
  -23.3664  -16.1215   25.0999 C   0  0  0  0  0  0  0  0  0  0  0  0
  -26.0793  -26.3559   19.8978 C   0  0  0  0  0  0  0  0  0  0  0  0
  -19.7221  -15.2583   26.1383 C   0  0  0  0  0  0  0  0  0  0  0  0
  -18.4391  -14.7342   26.2961 C   0  0  0  0  0  0  0  0  0  0  0  0
  -27.2297  -28.2879   20.7713 C   0  0  0  0  0  0  0  0  0  0  0  0
  -31.5019  -18.9197   19.6396 C   0  0  0  0  0  0  0  0  0  0  0  0
  -29.1923  -19.4370   19.1547 C   0  0  0  0  0  0  0  0  0  0  0  0
  -19.1095  -13.7220   28.3849 C   0  0  0  0  0  0  0  0  0  0  0  0
  -24.1185  -14.4011   23.5795 C   0  0  0  0  0  0  0  0  0  0  0  0
  -24.3632  -13.3839   21.2529 C   0  0  0  0  0  0  0  0  0  0  0  0
  -20.0948  -30.5634   16.9098 C   0  0  0  0  0  0  0  0  0  0  0  0
  -24.8171  -28.1596   20.9217 C   0  0  0  0  0  0  0  0  0  0  0  0
  -21.4488  -30.3440   17.2279 C   0  0  0  0  0  0  0  0  0  0  0  0
  -26.0099  -28.8514   21.1759 C   0  0  0  0  0  0  0  0  0  0  0  0
  -31.8431  -20.2577   19.4419 C   0  0  0  0  0  0  0  0  0  0  0  0
  -30.8589  -21.1853   19.1006 C   0  0  0  0  0  0  0  0  0  0  0  0
  -30.1765  -18.5094   19.4960 C   0  0  0  0  0  0  0  0  0  0  0  0
  -22.6758  -15.1635   25.8423 C   0  0  0  0  0  0  0  0  0  0  0  0
  -27.2636  -27.0477   20.1343 C   0  0  0  0  0  0  0  0  0  0  0  0
  -20.6988  -15.0142   27.1038 C   0  0  0  0  0  0  0  0  0  0  0  0
  -18.1328  -13.9661   27.4194 C   0  0  0  0  0  0  0  0  0  0  0  0
  -29.5334  -20.7750   18.9570 C   0  0  0  0  0  0  0  0  0  0  0  0
  -20.3925  -14.2460   28.2271 C   0  0  0  0  0  0  0  0  0  0  0  0
  -24.8643  -14.0079   22.4111 C   0  0  0  0  0  0  0  0  0  0  0  0
  -25.4631  -13.2231   20.4462 C   0  0  0  0  0  0  0  0  0  0  0  0
  -29.6013  -24.4576   19.2854 C   0  0  0  0  0  0  0  0  0  0  0  0
  -23.0232  -12.9854   20.9347 C   0  0  0  0  0  0  0  0  0  0  0  0
  -23.5179  -30.9753   20.2234 C   0  0  0  0  0  0  0  0  0  0  0  0
  -24.5520  -31.7519   23.1982 C   0  0  0  0  0  0  0  0  0  0  0  0
  -27.5047  -31.1825   25.1919 C   0  0  0  0  0  0  0  0  0  0  0  0
  -30.6833  -16.1023   20.0397 C   0  0  0  0  0  0  0  0  0  0  0  0
  -19.3591  -31.7936   17.3787 C   0  0  0  0  0  0  0  0  0  0  0  0
  -23.4973  -28.7281   21.3660 C   0  0  0  0  0  0  0  0  0  0  0  0
  -26.0186  -30.1904   21.8656 C   0  0  0  0  0  0  0  0  0  0  0  0
  -20.0454  -32.5082   18.5399 C   0  0  0  0  0  0  0  0  0  0  0  0
  -30.0179  -24.1818   22.1729 C   0  0  0  0  0  0  0  0  0  0  0  0
  -30.2102  -12.6286   20.6616 C   0  0  0  0  0  0  0  0  0  0  0  0
  -21.5385  -32.6589   18.2665 C   0  0  0  0  0  0  0  0  0  0  0  0
  -29.5671  -25.5095   21.6008 C   0  0  0  0  0  0  0  0  0  0  0  0
  -28.7384  -12.5305   21.0695 C   0  0  0  0  0  0  0  0  0  0  0  0
  -30.9439  -23.4898   21.1888 C   0  0  0  0  0  0  0  0  0  0  0  0
  -30.8609  -13.9062   21.1889 C   0  0  0  0  0  0  0  0  0  0  0  0
  -28.6800  -15.0497   21.2622 C   0  0  0  0  0  0  0  0  0  0  0  0
  -22.2148  -31.2897   18.1272 C   0  0  1  0  0  0  0  0  0  0  0  0
  -28.8107  -25.2603   20.3108 C   0  0  1  0  0  0  0  0  0  1  0  0
  -23.5264  -30.2439   21.5359 C   0  0  1  0  0  0  0  0  0  0  0  0
  -27.9644  -13.8109   20.6992 C   0  0  2  0  0  0  0  0  0  0  0  0
  -33.2685  -20.6738   19.6017 C   0  0  0  0  0  0  0  0  0  0  0  0
  -27.7984  -31.0875   27.6823 C   0  0  0  0  0  0  0  0  0  0  0  0
  -25.2669  -34.7066   22.9358 C   0  0  0  0  0  0  0  0  0  0  0  0
  -27.0194  -34.3668   24.6912 C   0  0  0  0  0  0  0  0  0  0  0  0
  -24.6156  -33.9918   25.2421 C   0  0  0  0  0  0  0  0  0  0  0  0
  -28.7346  -28.4938   25.0608 C   0  0  0  0  0  0  0  0  0  0  0  0
  -31.2051  -22.6302   18.8847 C   0  0  0  0  0  0  0  0  0  0  0  0
  -25.8242  -32.3281   23.7713 C   0  0  1  0  0  0  0  0  0  0  0  0
  -27.6209  -30.2792   26.4064 C   0  0  2  0  0  0  0  0  0  0  0  0
  -25.6817  -33.8327   24.1363 C   0  0  0  0  0  0  0  0  0  0  0  0
  -26.1802  -14.2283   22.3496 N   0  0  0  0  0  0  0  0  0  0  0  0
  -26.5153  -13.7401   21.1432 N   0  0  0  0  0  0  0  0  0  0  0  0
  -30.4844  -23.5060   19.7990 N   0  0  0  0  0  0  0  0  0  0  0  0
  -24.7023  -30.7073   22.2753 N   0  0  0  0  0  0  0  0  0  0  0  0
  -30.0752  -15.0780   20.7959 N   0  0  0  0  0  0  0  0  0  0  0  0
  -25.6232  -12.6913   19.2158 N   0  0  0  0  0  0  0  0  0  0  0  0
  -22.0133  -13.2251   21.8766 N   0  0  0  0  0  0  0  0  0  0  0  0
  -29.8295  -17.1503   19.6970 N   0  0  0  0  0  0  0  0  0  0  0  0
  -22.4224  -30.6937   19.4296 N   0  0  0  0  0  0  0  0  0  0  0  0
  -26.1898  -31.4726   24.8951 N   0  0  0  0  0  0  0  0  0  0  0  0
  -28.7894  -29.3655   26.2625 N   0  3  0  0  0  0  0  0  0  0  0  0
  -29.3926  -24.6244   18.0810 O   0  0  0  0  0  0  0  0  0  0  0  0
  -22.7328  -12.4182   19.8542 O   0  0  0  0  0  0  0  0  0  0  0  0
  -24.4364  -31.7396   19.9517 O   0  0  0  0  0  0  0  0  0  0  0  0
  -23.4646  -32.2071   23.5617 O   0  0  0  0  0  0  0  0  0  0  0  0
  -28.4827  -31.5928   24.5709 O   0  0  0  0  0  0  0  0  0  0  0  0
  -31.8666  -16.0404   19.6965 O   0  0  0  0  0  0  0  0  0  0  0  0
  -21.9719  -15.5358   26.9460 O   0  0  0  0  0  0  0  0  0  0  0  0
  -28.4539  -26.5125   19.7489 O   0  0  0  0  0  0  0  0  0  1  0  0
  -16.9003  -13.4641   27.5716 F   0  0  0  0  0  0  0  0  0  0  0  0
  -28.5796  -21.6590   18.6319 F   0  0  0  0  0  0  0  0  0  0  0  0
  -21.3264  -14.0091   29.1585 F   0  0  0  0  0  0  0  0  0  0  0  0
  1  2  1  0  0  0  0
  1  5  2  0  0  0  0
  2  6  2  0  0  0  0
  3  8  2  0  0  0  0
  3 17  1  0  0  0  0
  4  9  1  0  0  0  0
  4 17  2  0  0  0  0
  5 19  1  0  0  0  0
  6 21  1  0  0  0  0
  7 10  2  0  0  0  0
  7 20  1  0  0  0  0
  8 26  1  0  0  0  0
  9 26  2  0  0  0  0
 10 27  1  0  0  0  0
 11 12  2  0  0  0  0
 11 28  1  0  0  0  0
 12 29  1  0  0  0  0
 13 22  1  0  0  0  0
 13 27  2  0  0  0  0
 14 23  2  0  0  0  0
 14 25  1  0  0  0  0
 15 25  2  0  0  0  0
 15 30  1  0  0  0  0
 16 29  2  0  0  0  0
 16 31  1  0  0  0  0
 17 32  1  0  0  0  0
 18 32  1  0  0  0  0
 18 33  2  0  0  0  0
 18 35  1  0  0  0  0
 19 21  2  0  0  0  0
 19 40  1  0  0  0  0
 20 22  2  0  0  0  0
 20 41  1  0  0  0  0
 21 52  1  0  0  0  0
 22 42  1  0  0  0  0
 23 24  1  0  0  0  0
 23 56  1  0  0  0  0
 24 30  2  0  0  0  0
 24 62  1  0  0  0  0
 25 73  1  0  0  0  0
 26 83  1  0  0  0  0
 27 84  1  0  0  0  0
 28 31  2  0  0  0  0
 28 83  1  0  0  0  0
 29 85  1  0  0  0  0
 30 86  1  0  0  0  0
 31 87  1  0  0  0  0
 32 66  2  0  0  0  0
 33 67  1  0  0  0  0
 33 71  1  0  0  0  0
 34 53  1  0  0  0  0
 34 68  1  0  0  0  0
 34 77  2  0  0  0  0
 35 72  1  0  0  0  0
 35 78  2  0  0  0  0
 36 54  1  0  0  0  0
 36 74  1  0  0  0  0
 36 79  2  0  0  0  0
 37 63  1  0  0  0  0
 37 69  1  0  0  0  0
 37 80  2  0  0  0  0
 38 64  1  0  0  0  0
 38 75  1  0  0  0  0
 38 81  2  0  0  0  0
 39 70  1  0  0  0  0
 39 73  1  0  0  0  0
 39 82  2  0  0  0  0
 40 43  1  0  0  0  0
 41 54  1  0  0  0  0
 42 69  1  0  0  0  0
 43 46  1  0  0  0  0
 44 47  1  0  0  0  0
 44 49  1  0  0  0  0
 45 48  1  0  0  0  0
 45 50  1  0  0  0  0
 46 52  1  0  0  0  0
 47 53  1  0  0  0  0
 48 55  1  0  0  0  0
 49 68  1  0  0  0  0
 50 70  1  0  0  0  0
 51 55  1  0  0  0  0
 51 70  1  0  0  0  0
 52 74  1  0  0  0  0
 53 84  1  0  0  0  0
 54 69  1  0  0  0  0
 55 67  1  0  0  0  0
 57 64  1  0  0  0  0
 58 65  1  0  0  0  0
 59 65  1  0  0  0  0
 60 65  1  0  0  0  0
 61 76  1  0  0  0  0
 62 68  1  0  0  0  0
 63 65  1  0  0  0  0
 63 75  1  0  0  0  0
 64 76  1  0  0  0  0
 66 67  1  0  0  0  0
M  CHG  1  76   1
M  ISO  4  39 100  53 101  73 100  84 101
M  END
> <Batch ID>
0043

> <Smiles>
CNC(C)C(=O)NC(C(=O)N1Cc2cc([101O:1][101CH:1]3CCCN(Cc4c(C)cc([100NH:0][100C:0](=O)N5CCCC(n6nc(-c7ccc(Oc8ccc(F)cc8F)cc7)c(C(N)=O)c6N)C5)cc4F)C3=O)ccc2CC1C(=O)NC1CCCc2ccccc21)C(C)(C)C

> <Shape>
0.261

> <Color>
0.080

> <Negative vol penalty>
0.000

$$$$

  -OEChem-04042322153D

 84 92  0     1  0  0  0  0  0999 V2000
  -36.6626  -33.4839   20.8610 C   0  0  0  0  0  0  0  0  0  0  0  0
  -37.1072  -32.1702   20.7516 C   0  0  0  0  0  0  0  0  0  0  0  0
  -23.0739   -9.8688   19.9426 C   0  0  0  0  0  0  0  0  0  0  0  0
  -23.8314   -9.8788   22.2368 C   0  0  0  0  0  0  0  0  0  0  0  0
  -35.7801  -33.8374   21.8809 C   0  0  0  0  0  0  0  0  0  0  0  0
  -36.6704  -31.2094   21.6629 C   0  0  0  0  0  0  0  0  0  0  0  0
  -35.5849  -25.2889   20.5335 C   0  0  0  0  0  0  0  0  0  0  0  0
  -22.3290   -8.7165   20.1935 C   0  0  0  0  0  0  0  0  0  0  0  0
  -23.0864   -8.7265   22.4877 C   0  0  0  0  0  0  0  0  0  0  0  0
  -36.3473  -24.1398   20.7385 C   0  0  0  0  0  0  0  0  0  0  0  0
  -19.3787   -7.9243   21.6429 C   0  0  0  0  0  0  0  0  0  0  0  0
  -18.0723   -7.8782   21.1564 C   0  0  0  0  0  0  0  0  0  0  0  0
  -35.2056  -23.7628   22.8299 C   0  0  0  0  0  0  0  0  0  0  0  0
  -30.5010  -18.3445   24.0434 C   0  0  0  0  0  0  0  0  0  0  0  0
  -32.0647  -16.5933   22.5365 C   0  0  0  0  0  0  0  0  0  0  0  0
  -18.6320   -5.9327   19.8377 C   0  0  0  0  0  0  0  0  0  0  0  0
  -23.8252  -10.4499   20.9642 C   0  0  0  0  0  0  0  0  0  0  0  0
  -24.1689  -12.9746   20.8406 C   0  0  0  0  0  0  0  0  0  0  0  0
  -35.3247  -32.8783   22.7993 C   0  0  0  0  0  0  0  0  0  0  0  0
  -34.6332  -25.6903   21.4820 C   0  0  0  0  0  0  0  0  0  0  0  0
  -35.7821  -31.5506   22.6969 C   0  0  0  0  0  0  0  0  0  0  0  0
  -34.4307  -24.9160   22.6333 C   0  0  0  0  0  0  0  0  0  0  0  0
  -31.8882  -18.3470   24.1889 C   0  0  0  0  0  0  0  0  0  0  0  0
  -29.8956  -17.4664   23.1445 C   0  0  0  0  0  0  0  0  0  0  0  0
  -32.6701  -17.4714   23.4355 C   0  0  0  0  0  0  0  0  0  0  0  0
  -30.6774  -16.5908   22.3910 C   0  0  0  0  0  0  0  0  0  0  0  0
  -22.3352   -8.1454   21.4661 C   0  0  0  0  0  0  0  0  0  0  0  0
  -36.1597  -23.3781   21.8882 C   0  0  0  0  0  0  0  0  0  0  0  0
  -20.3118   -6.9746   21.2268 C   0  0  0  0  0  0  0  0  0  0  0  0
  -17.6989   -6.8824   20.2538 C   0  0  0  0  0  0  0  0  0  0  0  0
  -19.9384   -5.9788   20.3243 C   0  0  0  0  0  0  0  0  0  0  0  0
  -24.5954  -11.6398   20.7054 C   0  0  0  0  0  0  0  0  0  0  0  0
  -25.2620  -13.7227   20.4774 C   0  0  0  0  0  0  0  0  0  0  0  0
  -22.8984  -13.4920   21.2574 C   0  0  0  0  0  0  0  0  0  0  0  0
  -34.2460  -28.2496   23.3268 C   0  0  0  0  0  0  0  0  0  0  0  0
  -31.4317  -26.8129   24.0604 C   0  0  0  0  0  0  0  0  0  0  0  0
  -29.6152  -23.9305   24.2575 C   0  0  0  0  0  0  0  0  0  0  0  0
  -30.7288  -14.7648   20.6563 C   0  0  0  0  0  0  0  0  0  0  0  0
  -34.4081  -33.3179   23.9134 C   0  0  0  0  0  0  0  0  0  0  0  0
  -33.8002  -26.9177   21.2332 C   0  0  0  0  0  0  0  0  0  0  0  0
  -33.4075  -25.2926   23.6724 C   0  0  0  0  0  0  0  0  0  0  0  0
  -33.7000  -32.1601   24.6122 C   0  0  0  0  0  0  0  0  0  0  0  0
  -29.6152  -12.3481   18.2905 C   0  0  0  0  0  0  0  0  0  0  0  0
  -34.6895  -31.0441   24.9320 C   0  0  0  0  0  0  0  0  0  0  0  0
  -28.1749  -12.0582   18.7190 C   0  0  0  0  0  0  0  0  0  0  0  0
  -30.5292  -12.5781   19.4928 C   0  0  0  0  0  0  0  0  0  0  0  0
  -28.6212  -13.3060   20.8709 C   0  0  0  0  0  0  0  0  0  0  0  0
  -35.3115  -30.4746   23.6512 C   0  0  1  0  0  0  0  0  0  0  0  0
  -33.2198  -27.5151   22.5114 C   0  0  1  0  0  0  0  0  0  0  0  0
  -27.6496  -13.1316   19.6923 C   0  0  2  0  0  0  0  0  0  0  0  0
  -32.5140  -19.2957   25.1578 C   0  0  0  0  0  0  0  0  0  0  0  0
  -28.4075  -17.4855   23.0090 C   0  0  0  0  0  0  0  0  0  0  0  0
  -27.3565  -23.0676   24.9290 C   0  0  0  0  0  0  0  0  0  0  0  0
  -32.2093  -27.0718   26.9995 C   0  0  0  0  0  0  0  0  0  0  0  0
  -30.4352  -25.3916   27.5448 C   0  0  0  0  0  0  0  0  0  0  0  0
  -29.8089  -27.5720   26.5075 C   0  0  0  0  0  0  0  0  0  0  0  0
  -29.0553  -22.9353   21.5271 C   0  0  0  0  0  0  0  0  0  0  0  0
  -34.1638  -17.4559   23.5752 C   0  0  0  0  0  0  0  0  0  0  0  0
  -36.8783  -19.8747   22.3743 C   0  0  0  0  0  0  0  0  0  0  0  0
  -36.2942  -18.6664   23.0907 C   0  0  0  0  0  0  0  0  0  0  0  0
  -36.2990  -21.2041   22.8422 C   0  0  0  0  0  0  0  0  0  1  0  0
  -30.9774  -25.8226   25.1053 C   0  0  1  0  0  0  0  0  0  0  0  0
  -28.2132  -23.5892   23.7859 C   0  0  2  0  0  0  0  0  0  0  0  0
  -30.8784  -26.4582   26.5208 C   0  0  0  0  0  0  0  0  0  0  0  0
  -25.8606  -11.5424   20.2886 N   0  0  0  0  0  0  0  0  0  0  0  0
  -26.2386  -12.8255   20.1587 N   0  0  0  0  0  0  0  0  0  0  0  0
  -32.6222  -26.5047   23.3868 N   0  0  0  0  0  0  0  0  0  0  0  0
  -29.9700  -13.6107   20.3680 N   0  0  0  0  0  0  0  0  0  0  0  0
  -25.4734  -15.0540   20.4025 N   0  0  0  0  0  0  0  0  0  0  0  0
  -21.8855  -12.5840   21.5950 N   0  0  0  0  0  0  0  0  0  0  0  0
  -30.0812  -15.6915   21.4726 N   0  0  0  0  0  0  0  0  0  0  0  0
  -34.3820  -29.5832   22.9911 N   0  0  0  0  0  0  0  0  0  0  0  0
  -29.7249  -25.2577   24.6150 N   0  0  0  0  0  0  0  0  0  0  0  0
  -28.2639  -22.5462   22.7227 N   0  3  0  0  0  0  0  0  0  0  0  0
  -34.8235  -18.6175   22.9173 N   0  3  0  0  0  0  0  0  0  0  0  0
  -22.6629  -14.7228   21.3126 O   0  0  0  0  0  0  0  0  0  0  0  0
  -34.8673  -27.6513   24.1973 O   0  0  0  0  0  0  0  0  0  0  0  0
  -30.7516  -27.8191   23.8446 O   0  0  0  0  0  0  0  0  0  0  0  0
  -30.5214  -23.1018   24.3075 O   0  0  0  0  0  0  0  0  0  0  0  0
  -31.8585  -14.9320   20.1896 O   0  0  0  0  0  0  0  0  0  0  0  0
  -21.6082   -7.0212   21.7114 O   0  0  0  0  0  0  0  0  0  0  0  0
  -36.9030  -22.2564   22.0911 O   0  0  0  0  0  0  0  0  0  1  0  0
  -16.4439   -6.8374   19.7878 F   0  0  0  0  0  0  0  0  0  0  0  0
  -20.8302   -5.0630   19.9218 F   0  0  0  0  0  0  0  0  0  0  0  0
  1  2  1  0  0  0  0
  1  5  2  0  0  0  0
  2  6  2  0  0  0  0
  3  8  2  0  0  0  0
  3 17  1  0  0  0  0
  4  9  1  0  0  0  0
  4 17  2  0  0  0  0
  5 19  1  0  0  0  0
  6 21  1  0  0  0  0
  7 10  2  0  0  0  0
  7 20  1  0  0  0  0
  8 27  1  0  0  0  0
  9 27  2  0  0  0  0
 10 28  1  0  0  0  0
 11 12  2  0  0  0  0
 11 29  1  0  0  0  0
 12 30  1  0  0  0  0
 13 22  1  0  0  0  0
 13 28  2  0  0  0  0
 14 23  1  0  0  0  0
 14 24  2  0  0  0  0
 15 25  1  0  0  0  0
 15 26  2  0  0  0  0
 16 30  2  0  0  0  0
 16 31  1  0  0  0  0
 17 32  1  0  0  0  0
 18 32  1  0  0  0  0
 18 33  2  0  0  0  0
 18 34  1  0  0  0  0
 19 21  2  0  0  0  0
 19 39  1  0  0  0  0
 20 22  2  0  0  0  0
 20 40  1  0  0  0  0
 21 48  1  0  0  0  0
 22 41  1  0  0  0  0
 23 25  2  0  0  0  0
 23 51  1  0  0  0  0
 24 26  1  0  0  0  0
 24 52  1  0  0  0  0
 25 58  1  0  0  0  0
 26 71  1  0  0  0  0
 27 81  1  0  0  0  0
 28 82  1  0  0  0  0
 29 31  2  0  0  0  0
 29 81  1  0  0  0  0
 30 83  1  0  0  0  0
 31 84  1  0  0  0  0
 32 65  2  0  0  0  0
 33 66  1  0  0  0  0
 33 69  1  0  0  0  0
 34 70  1  0  0  0  0
 34 76  2  0  0  0  0
 35 49  1  0  0  0  0
 35 72  1  0  0  0  0
 35 77  2  0  0  0  0
 36 62  1  0  0  0  0
 36 67  1  0  0  0  0
 36 78  2  0  0  0  0
 37 63  1  0  0  0  0
 37 73  1  0  0  0  0
 37 79  2  0  0  0  0
 38 68  1  0  0  0  0
 38 71  1  0  0  0  0
 38 80  2  0  0  0  0
 39 42  1  0  0  0  0
 40 49  1  0  0  0  0
 41 67  1  0  0  0  0
 42 44  1  0  0  0  0
 43 45  1  0  0  0  0
 43 46  1  0  0  0  0
 44 48  1  0  0  0  0
 45 50  1  0  0  0  0
 46 68  1  0  0  0  0
 47 50  1  0  0  0  0
 47 68  1  0  0  0  0
 48 72  1  0  0  0  0
 49 67  1  0  0  0  0
 50 66  1  0  0  0  0
 53 63  1  0  0  0  0
 54 64  1  0  0  0  0
 55 64  1  0  0  0  0
 56 64  1  0  0  0  0
 57 74  1  0  0  0  0
 58 75  1  0  0  0  0
 59 60  1  0  0  0  0
 59 61  1  0  0  0  0
 60 75  1  0  0  0  0
 61 82  1  0  0  0  0
 62 64  1  0  0  0  0
 62 73  1  0  0  0  0
 63 74  1  0  0  0  0
 65 66  1  0  0  0  0
M  CHG  2  74   1  75   1
M  ISO  4  38 100  61 101  71 100  82 101
M  END
> <Batch ID>
0043

> <Smiles>
CNC(C)C(=O)NC(C(=O)N1Cc2cc([101O:1][101CH2:1]CCNCc3cc([100NH:0][100C:0](=O)N4CCCC(n5nc(-c6ccc(Oc7ccc(F)cc7F)cc6)c(C(N)=O)c5N)C4)c(C)cc3C)ccc2CC1C(=O)NC1CCCc2ccccc21)C(C)(C)C

> <Shape>
0.155

> <Color>
0.191

> <Negative vol penalty>
0.000

$$$$

  -OEChem-04042322153D

 84 92  0     1  0  0  0  0  0999 V2000
  -18.0130  -10.1841   23.8150 C   0  0  0  0  0  0  0  0  0  0  0  0
  -18.0318  -11.5013   23.3677 C   0  0  0  0  0  0  0  0  0  0  0  0
  -28.4668  -26.1602   18.5970 C   0  0  0  0  0  0  0  0  0  0  0  0
  -26.3915  -24.9233   18.6150 C   0  0  0  0  0  0  0  0  0  0  0  0
  -19.1949   -9.5743   24.2336 C   0  0  0  0  0  0  0  0  0  0  0  0
  -19.2325  -12.2098   23.3398 C   0  0  0  0  0  0  0  0  0  0  0  0
  -20.9269  -16.4219   19.2297 C   0  0  0  0  0  0  0  0  0  0  0  0
  -18.5936  -28.2052   21.3248 C   0  0  0  0  0  0  0  0  0  0  0  0
  -17.9531  -27.0863   20.7923 C   0  0  0  0  0  0  0  0  0  0  0  0
  -29.1801  -24.9647   18.6841 C   0  0  0  0  0  0  0  0  0  0  0  0
  -27.1048  -23.7278   18.7021 C   0  0  0  0  0  0  0  0  0  0  0  0
  -20.9027  -17.8158   19.2505 C   0  0  0  0  0  0  0  0  0  0  0  0
  -28.7056  -21.9503   21.0915 C   0  0  0  0  0  0  0  0  0  0  0  0
  -28.2655  -20.9986   22.0113 C   0  0  0  0  0  0  0  0  0  0  0  0
  -23.2095  -17.8393   19.9557 C   0  0  0  0  0  0  0  0  0  0  0  0
  -19.8292  -26.7796   22.8341 C   0  0  0  0  0  0  0  0  0  0  0  0
  -27.9282  -19.4184   20.2151 C   0  0  0  0  0  0  0  0  0  0  0  0
  -27.0725  -26.1395   18.5625 C   0  0  0  0  0  0  0  0  0  0  0  0
  -25.9287  -28.0385   17.3004 C   0  0  0  0  0  0  0  0  0  0  0  0
  -20.4122  -10.2726   24.2017 C   0  0  0  0  0  0  0  0  0  0  0  0
  -22.0913  -15.7249   19.5828 C   0  0  0  0  0  0  0  0  0  0  0  0
  -20.4316  -11.6092   23.7597 C   0  0  0  0  0  0  0  0  0  0  0  0
  -23.2466  -16.4367   19.9360 C   0  0  0  0  0  0  0  0  0  0  0  0
  -19.5317  -28.0518   22.3457 C   0  0  0  0  0  0  0  0  0  0  0  0
  -18.2507  -25.8141   21.2807 C   0  0  0  0  0  0  0  0  0  0  0  0
  -19.1887  -25.6607   22.3016 C   0  0  0  0  0  0  0  0  0  0  0  0
  -28.4992  -23.7485   18.7367 C   0  0  0  0  0  0  0  0  0  0  0  0
  -22.0432  -18.5246   19.6163 C   0  0  0  0  0  0  0  0  0  0  0  0
  -28.7570  -21.6361   19.7334 C   0  0  0  0  0  0  0  0  0  0  0  0
  -27.8768  -19.7327   21.5732 C   0  0  0  0  0  0  0  0  0  0  0  0
  -28.3683  -20.3701   19.2952 C   0  0  0  0  0  0  0  0  0  0  0  0
  -26.3351  -27.3741   18.4731 C   0  0  0  0  0  0  0  0  0  0  0  0
  -25.2664  -29.1546   17.7501 C   0  0  0  0  0  0  0  0  0  0  0  0
  -20.9932  -21.8243   20.5968 C   0  0  0  0  0  0  0  0  0  0  0  0
  -21.1289  -20.5015   20.4687 C   0  0  0  0  0  0  0  0  0  1  0  0
  -20.4403  -23.5531   21.9113 C   0  0  0  0  0  0  0  0  0  0  0  0
  -26.1316  -27.6789   15.9273 C   0  0  0  0  0  0  0  0  0  0  0  0
  -22.8597  -13.6536   21.8682 C   0  0  0  0  0  0  0  0  0  0  0  0
  -25.6546  -13.4798   20.2309 C   0  0  0  0  0  0  0  0  0  0  0  0
  -27.8469  -14.9618   18.0760 C   0  0  0  0  0  0  0  0  0  0  0  0
  -22.4044  -30.4171   22.8556 C   0  0  0  0  0  0  0  0  0  0  0  0
  -21.6561   -9.5867   24.7088 C   0  0  0  0  0  0  0  0  0  0  0  0
  -22.1091  -14.2219   19.5295 C   0  0  0  0  0  0  0  0  0  0  0  0
  -24.5281  -15.7361   20.3042 C   0  0  0  0  0  0  0  0  0  0  0  0
  -22.9486  -10.2854   24.2949 C   0  0  0  0  0  0  0  0  0  0  0  0
  -25.1390  -32.2017   21.4365 C   0  0  0  0  0  0  0  0  0  0  0  0
  -22.8430  -11.7884   24.5333 C   0  0  0  0  0  0  0  0  0  0  0  0
  -25.7189  -31.2268   20.4103 C   0  0  0  0  0  0  0  0  0  0  0  0
  -24.6370  -31.4764   22.6831 C   0  0  0  0  0  0  0  0  0  0  0  0
  -24.2612  -29.4092   21.3951 C   0  0  0  0  0  0  0  0  0  0  0  0
  -21.7183  -12.4028   23.6912 C   0  0  1  0  0  0  0  0  0  0  0  0
  -23.1962  -13.6057   20.4046 C   0  0  1  0  0  0  0  0  0  0  0  0
  -24.7295  -30.0884   20.0968 C   0  0  2  0  0  0  0  0  0  0  0  0
  -17.5513  -24.6312   20.6957 C   0  0  0  0  0  0  0  0  0  0  0  0
  -30.0612  -14.5918   16.9546 C   0  0  0  0  0  0  0  0  0  0  0  0
  -27.0844  -14.1096   22.8518 C   0  0  0  0  0  0  0  0  0  0  0  0
  -29.1325  -14.6601   21.5212 C   0  0  0  0  0  0  0  0  0  0  0  0
  -28.1888  -12.3519   21.4571 C   0  0  0  0  0  0  0  0  0  0  0  0
  -26.6343  -15.0937   15.3795 C   0  0  0  0  0  0  0  0  0  0  0  0
  -19.5255  -24.2987   22.8445 C   0  0  0  0  0  0  0  0  0  0  0  0
  -20.2160  -29.2482   22.9152 C   0  0  0  0  0  0  0  0  0  0  0  0
  -26.9675  -14.2235   20.2751 C   0  0  1  0  0  0  0  0  0  0  0  0
  -28.5527  -14.4378   16.8384 C   0  0  2  0  0  0  0  0  0  0  0  0
  -27.8188  -13.8497   21.5213 C   0  0  0  0  0  0  0  0  0  0  0  0
  -25.9623  -28.0148   19.5842 N   0  0  0  0  0  0  0  0  0  0  0  0
  -20.0902  -22.4041   21.4371 N   0  0  0  0  0  0  0  0  0  0  0  0
  -25.3148  -29.0935   19.1117 N   0  0  0  0  0  0  0  0  0  0  0  0
  -24.4934  -14.2655   20.2430 N   0  0  0  0  0  0  0  0  0  0  0  0
  -23.7016  -30.4103   22.3167 N   0  0  0  0  0  0  0  0  0  0  0  0
  -24.6532  -30.1726   17.1096 N   0  0  0  0  0  0  0  0  0  0  0  0
  -26.8329  -26.4995   15.6422 N   0  0  0  0  0  0  0  0  0  0  0  0
  -22.1440  -12.5601   22.3170 N   0  0  0  0  0  0  0  0  0  0  0  0
  -27.6275  -13.9626   19.0004 N   0  0  0  0  0  0  0  0  0  0  0  0
  -21.5798  -29.3742   22.4517 N   0  0  0  0  0  0  0  0  0  0  0  0
  -28.0963  -15.1792   15.6288 N   0  3  0  0  0  0  0  0  0  0  0  0
  -25.7178  -28.3912   14.9813 O   0  0  0  0  0  0  0  0  0  0  0  0
  -23.2237  -14.6111   22.5408 O   0  0  0  0  0  0  0  0  0  0  0  0
  -25.6591  -12.2473   20.1802 O   0  0  0  0  0  0  0  0  0  0  0  0
  -27.5260  -16.1405   18.2109 O   0  0  0  0  0  0  0  0  0  0  0  0
  -22.0087  -31.2910   23.6345 O   0  0  0  0  0  0  0  0  0  0  0  0
  -29.1949  -22.5818   18.8215 O   0  0  0  0  0  0  0  0  0  0  0  0
  -22.0221  -19.8851   19.6381 O   0  0  0  0  0  0  0  0  0  1  0  0
  -27.4557  -18.8183   22.4568 F   0  0  0  0  0  0  0  0  0  0  0  0
  -28.4166  -20.0621   17.9919 F   0  0  0  0  0  0  0  0  0  0  0  0
  1  2  1  0  0  0  0
  1  5  2  0  0  0  0
  2  6  2  0  0  0  0
  3 10  2  0  0  0  0
  3 18  1  0  0  0  0
  4 11  1  0  0  0  0
  4 18  2  0  0  0  0
  5 20  1  0  0  0  0
  6 22  1  0  0  0  0
  7 12  2  0  0  0  0
  7 21  1  0  0  0  0
  8  9  2  0  0  0  0
  8 24  1  0  0  0  0
  9 25  1  0  0  0  0
 10 27  1  0  0  0  0
 11 27  2  0  0  0  0
 12 28  1  0  0  0  0
 13 14  2  0  0  0  0
 13 29  1  0  0  0  0
 14 30  1  0  0  0  0
 15 23  1  0  0  0  0
 15 28  2  0  0  0  0
 16 24  2  0  0  0  0
 16 26  1  0  0  0  0
 17 30  2  0  0  0  0
 17 31  1  0  0  0  0
 18 32  1  0  0  0  0
 19 32  1  0  0  0  0
 19 33  2  0  0  0  0
 19 37  1  0  0  0  0
 20 22  2  0  0  0  0
 20 42  1  0  0  0  0
 21 23  2  0  0  0  0
 21 43  1  0  0  0  0
 22 51  1  0  0  0  0
 23 44  1  0  0  0  0
 24 61  1  0  0  0  0
 25 26  2  0  0  0  0
 25 54  1  0  0  0  0
 26 60  1  0  0  0  0
 27 81  1  0  0  0  0
 28 82  1  0  0  0  0
 29 31  2  0  0  0  0
 29 81  1  0  0  0  0
 30 83  1  0  0  0  0
 31 84  1  0  0  0  0
 32 65  2  0  0  0  0
 33 67  1  0  0  0  0
 33 70  1  0  0  0  0
 34 35  2  0  0  0  0
 34 66  1  0  0  0  0
 35 82  1  0  0  0  0
 36 60  1  0  0  0  0
 36 66  2  0  0  0  0
 37 71  1  0  0  0  0
 37 76  2  0  0  0  0
 38 52  1  0  0  0  0
 38 72  1  0  0  0  0
 38 77  2  0  0  0  0
 39 62  1  0  0  0  0
 39 68  1  0  0  0  0
 39 78  2  0  0  0  0
 40 63  1  0  0  0  0
 40 73  1  0  0  0  0
 40 79  2  0  0  0  0
 41 69  1  0  0  0  0
 41 74  1  0  0  0  0
 41 80  2  0  0  0  0
 42 45  1  0  0  0  0
 43 52  1  0  0  0  0
 44 68  1  0  0  0  0
 45 47  1  0  0  0  0
 46 48  1  0  0  0  0
 46 49  1  0  0  0  0
 47 51  1  0  0  0  0
 48 53  1  0  0  0  0
 49 69  1  0  0  0  0
 50 53  1  0  0  0  0
 50 69  1  0  0  0  0
 51 72  1  0  0  0  0
 52 68  1  0  0  0  0
 53 67  1  0  0  0  0
 55 63  1  0  0  0  0
 56 64  1  0  0  0  0
 57 64  1  0  0  0  0
 58 64  1  0  0  0  0
 59 75  1  0  0  0  0
 61 74  1  0  0  0  0
 62 64  1  0  0  0  0
 62 73  1  0  0  0  0
 63 75  1  0  0  0  0
 65 67  1  0  0  0  0
M  CHG  1  75   1
M  ISO  4  35 101  41 100  74 100  82 101
M  END
> <Batch ID>
0043

> <Smiles>
CNC(C)C(=O)NC(C(=O)N1Cc2cc([101O:1][101CH2:1]C=NC=Cc3cc(C[100NH:0][100C:0](=O)N4CCCC(n5nc(-c6ccc(Oc7ccc(F)cc7F)cc6)c(C(N)=O)c5N)C4)ccc3C)ccc2CC1C(=O)NC1CCCc2ccccc21)C(C)(C)C

> <Shape>
0.228

> <Color>
0.081

> <Negative vol penalty>
0.000

$$$$

  -OEChem-04042322153D

 84 92  0     1  0  0  0  0  0999 V2000
  -20.1582  -22.2724   12.2843 C   0  0  0  0  0  0  0  0  0  0  0  0
  -20.4388  -21.0913   12.9636 C   0  0  0  0  0  0  0  0  0  0  0  0
  -28.5740  -26.3354   17.7052 C   0  0  0  0  0  0  0  0  0  0  0  0
  -28.5814  -26.0676   20.1063 C   0  0  0  0  0  0  0  0  0  0  0  0
  -20.7535  -23.4664   12.6891 C   0  0  0  0  0  0  0  0  0  0  0  0
  -21.3158  -21.1033   14.0477 C   0  0  0  0  0  0  0  0  0  0  0  0
  -20.9836  -17.6441   19.0904 C   0  0  0  0  0  0  0  0  0  0  0  0
  -29.9170  -12.9845   18.9861 C   0  0  0  0  0  0  0  0  0  0  0  0
  -29.2573  -11.7979   18.6663 C   0  0  0  0  0  0  0  0  0  0  0  0
  -27.9133  -27.5561   17.8434 C   0  0  0  0  0  0  0  0  0  0  0  0
  -27.9207  -27.2882   20.2445 C   0  0  0  0  0  0  0  0  0  0  0  0
  -21.6297  -16.4666   19.4644 C   0  0  0  0  0  0  0  0  0  0  0  0
  -24.7652  -28.4621   19.9353 C   0  0  0  0  0  0  0  0  0  0  0  0
  -23.6907  -28.5206   20.8227 C   0  0  0  0  0  0  0  0  0  0  0  0
  -28.0217  -13.6809   20.3126 C   0  0  0  0  0  0  0  0  0  0  0  0
  -23.2669  -17.7576   20.6778 C   0  0  0  0  0  0  0  0  0  0  0  0
  -24.8385  -30.2195   22.1007 C   0  0  0  0  0  0  0  0  0  0  0  0
  -28.9080  -25.5911   18.8366 C   0  0  0  0  0  0  0  0  0  0  0  0
  -27.3619  -12.4943   19.9929 C   0  0  0  0  0  0  0  0  0  0  0  0
  -30.9809  -24.1140   18.6663 C   0  0  0  0  0  0  0  0  0  0  0  0
  -21.6308  -23.4948   13.7846 C   0  0  0  0  0  0  0  0  0  0  0  0
  -21.4814  -18.8898   19.4989 C   0  0  0  0  0  0  0  0  0  0  0  0
  -21.9245  -22.2986   14.4667 C   0  0  0  0  0  0  0  0  0  0  0  0
  -22.6238  -18.9492   20.3098 C   0  0  0  0  0  0  0  0  0  0  0  0
  -29.2993  -13.9260   19.8092 C   0  0  0  0  0  0  0  0  0  0  0  0
  -27.9797  -11.5528   19.1697 C   0  0  0  0  0  0  0  0  0  0  0  0
  -27.5867  -28.0325   19.1130 C   0  0  0  0  0  0  0  0  0  0  0  0
  -22.7732  -16.5234   20.2558 C   0  0  0  0  0  0  0  0  0  0  0  0
  -25.8765  -29.2823   20.1306 C   0  0  0  0  0  0  0  0  0  0  0  0
  -23.7273  -29.3993   21.9054 C   0  0  0  0  0  0  0  0  0  0  0  0
  -25.9131  -30.1610   21.2133 C   0  0  0  0  0  0  0  0  0  0  0  0
  -29.5900  -24.3299   18.6945 C   0  0  0  0  0  0  0  0  0  0  0  0
  -31.1144  -22.7554   18.5152 C   0  0  0  0  0  0  0  0  0  0  0  0
  -26.0095  -12.2551   20.5353 C   0  0  0  0  0  0  0  0  0  0  0  0
  -32.0559  -25.0571   18.7678 C   0  0  0  0  0  0  0  0  0  0  0  0
  -22.6051  -21.4575   17.9997 C   0  0  0  0  0  0  0  0  0  0  0  0
  -22.6289  -22.7128   20.9907 C   0  0  0  0  0  0  0  0  0  0  0  0
  -22.7409  -22.1728   24.3586 C   0  0  0  0  0  0  0  0  0  0  0  0
  -29.7427  -17.6531   19.9408 C   0  0  0  0  0  0  0  0  0  0  0  0
  -22.2868  -24.8012   14.1557 C   0  0  0  0  0  0  0  0  0  0  0  0
  -20.7575  -20.1494   19.1092 C   0  0  0  0  0  0  0  0  0  0  0  0
  -23.1869  -20.2604   20.7916 C   0  0  0  0  0  0  0  0  0  0  0  0
  -22.9139  -24.7941   15.5475 C   0  0  0  0  0  0  0  0  0  0  0  0
  -27.6798  -19.2102   17.4076 C   0  0  0  0  0  0  0  0  0  0  0  0
  -23.7345  -23.5254   15.7569 C   0  0  0  0  0  0  0  0  0  0  0  0
  -28.1141  -20.6729   17.5184 C   0  0  0  0  0  0  0  0  0  0  0  0
  -27.6328  -18.5421   18.7786 C   0  0  0  0  0  0  0  0  0  0  0  0
  -29.3431  -20.0828   19.6588 C   0  0  0  0  0  0  0  0  0  0  0  0
  -22.8513  -22.2754   15.6628 C   0  0  1  0  0  0  0  0  0  0  0  0
  -21.6468  -21.3881   19.1549 C   0  0  1  0  0  0  0  0  0  0  0  0
  -29.4321  -20.8080   18.3038 C   0  0  2  0  0  0  0  0  0  0  0  0
  -27.2934  -10.2751   18.8125 C   0  0  0  0  0  0  0  0  0  0  0  0
  -22.7844  -23.3958   26.5494 C   0  0  0  0  0  0  0  0  0  0  0  0
  -25.5630  -23.4163   20.5370 C   0  0  0  0  0  0  0  0  0  0  0  0
  -25.7948  -23.7425   23.0084 C   0  0  0  0  0  0  0  0  0  0  0  0
  -24.2343  -25.1855   21.7027 C   0  0  0  0  0  0  0  0  0  0  0  0
  -20.2043  -20.9265   25.2371 C   0  0  0  0  0  0  0  0  0  0  0  0
  -30.0048  -15.1946   20.1509 C   0  0  0  0  0  0  0  0  0  0  0  0
  -23.6584  -12.9909   20.7013 C   0  0  0  0  0  0  0  0  0  0  0  0
  -22.8442  -14.1482   20.1594 C   0  0  0  0  0  0  0  0  0  1  0  0
  -23.6296  -22.7663   22.1198 C   0  0  1  0  0  0  0  0  0  0  0  0
  -21.9083  -22.7342   25.4970 C   0  0  2  0  0  0  0  0  0  0  0  0
  -24.7962  -23.7529   21.8314 C   0  0  0  0  0  0  0  0  0  0  0  0
  -28.8901  -23.1990   18.5710 N   0  0  0  0  0  0  0  0  0  0  0  0
  -29.8449  -22.2595   18.4637 N   0  0  0  0  0  0  0  0  0  0  0  0
  -22.4471  -21.4645   20.3788 N   0  0  0  0  0  0  0  0  0  0  0  0
  -28.9235  -18.6907   19.4658 N   0  0  0  0  0  0  0  0  0  0  0  0
  -32.1927  -21.9485   18.4225 N   0  0  0  0  0  0  0  0  0  0  0  0
  -25.8235  -11.1866   21.3103 N   0  0  0  0  0  0  0  0  0  0  0  0
  -31.7418  -26.4146   18.9194 N   0  0  0  0  0  0  0  0  0  0  0  0
  -22.0969  -22.0964   16.8848 N   0  0  0  0  0  0  0  0  0  0  0  0
  -22.8687  -23.0767   23.3252 N   0  0  0  0  0  0  0  0  0  0  0  0
  -29.2699  -16.3646   19.7243 N   0  0  0  0  0  0  0  0  0  0  0  0
  -25.0367  -13.1193   20.2219 N   0  3  0  0  0  0  0  0  0  0  0  0
  -21.1264  -21.6476   26.1519 N   0  3  0  0  0  0  0  0  0  0  0  0
  -33.2594  -24.7084   18.7087 O   0  0  0  0  0  0  0  0  0  0  0  0
  -23.7233  -20.9691   18.1121 O   0  0  0  0  0  0  0  0  0  0  0  0
  -22.0253  -23.7392   20.6684 O   0  0  0  0  0  0  0  0  0  0  0  0
  -23.2321  -21.0465   24.3851 O   0  0  0  0  0  0  0  0  0  0  0  0
  -30.8193  -17.8595   20.5113 O   0  0  0  0  0  0  0  0  0  0  0  0
  -26.9422  -29.2237   19.2483 O   0  0  0  0  0  0  0  0  0  0  0  0
  -23.4062  -15.3756   20.6217 O   0  0  0  0  0  0  0  0  0  1  0  0
  -22.6947  -29.4564   22.7566 F   0  0  0  0  0  0  0  0  0  0  0  0
  -26.9774  -30.9523   21.4054 F   0  0  0  0  0  0  0  0  0  0  0  0
  1  2  1  0  0  0  0
  1  5  2  0  0  0  0
  2  6  2  0  0  0  0
  3 10  2  0  0  0  0
  3 18  1  0  0  0  0
  4 11  1  0  0  0  0
  4 18  2  0  0  0  0
  5 21  1  0  0  0  0
  6 23  1  0  0  0  0
  7 12  2  0  0  0  0
  7 22  1  0  0  0  0
  8  9  2  0  0  0  0
  8 25  1  0  0  0  0
  9 26  1  0  0  0  0
 10 27  1  0  0  0  0
 11 27  2  0  0  0  0
 12 28  1  0  0  0  0
 13 14  2  0  0  0  0
 13 29  1  0  0  0  0
 14 30  1  0  0  0  0
 15 19  1  0  0  0  0
 15 25  2  0  0  0  0
 16 24  1  0  0  0  0
 16 28  2  0  0  0  0
 17 30  2  0  0  0  0
 17 31  1  0  0  0  0
 18 32  1  0  0  0  0
 19 26  2  0  0  0  0
 19 34  1  0  0  0  0
 20 32  1  0  0  0  0
 20 33  2  0  0  0  0
 20 35  1  0  0  0  0
 21 23  2  0  0  0  0
 21 40  1  0  0  0  0
 22 24  2  0  0  0  0
 22 41  1  0  0  0  0
 23 49  1  0  0  0  0
 24 42  1  0  0  0  0
 25 58  1  0  0  0  0
 26 52  1  0  0  0  0
 27 81  1  0  0  0  0
 28 82  1  0  0  0  0
 29 31  2  0  0  0  0
 29 81  1  0  0  0  0
 30 83  1  0  0  0  0
 31 84  1  0  0  0  0
 32 64  2  0  0  0  0
 33 65  1  0  0  0  0
 33 68  1  0  0  0  0
 34 69  1  0  0  0  0
 34 74  2  0  0  0  0
 35 70  1  0  0  0  0
 35 76  2  0  0  0  0
 36 50  1  0  0  0  0
 36 71  1  0  0  0  0
 36 77  2  0  0  0  0
 37 61  1  0  0  0  0
 37 66  1  0  0  0  0
 37 78  2  0  0  0  0
 38 62  1  0  0  0  0
 38 72  1  0  0  0  0
 38 79  2  0  0  0  0
 39 67  1  0  0  0  0
 39 73  1  0  0  0  0
 39 80  2  0  0  0  0
 40 43  1  0  0  0  0
 41 50  1  0  0  0  0
 42 66  1  0  0  0  0
 43 45  1  0  0  0  0
 44 46  1  0  0  0  0
 44 47  1  0  0  0  0
 45 49  1  0  0  0  0
 46 51  1  0  0  0  0
 47 67  1  0  0  0  0
 48 51  1  0  0  0  0
 48 67  1  0  0  0  0
 49 71  1  0  0  0  0
 50 66  1  0  0  0  0
 51 65  1  0  0  0  0
 53 62  1  0  0  0  0
 54 63  1  0  0  0  0
 55 63  1  0  0  0  0
 56 63  1  0  0  0  0
 57 75  1  0  0  0  0
 58 73  1  0  0  0  0
 59 60  1  0  0  0  0
 59 74  1  0  0  0  0
 60 82  1  0  0  0  0
 61 63  1  0  0  0  0
 61 72  1  0  0  0  0
 62 75  1  0  0  0  0
 64 65  1  0  0  0  0
M  CHG  2  74   1  75   1
M  ISO  4  39 100  60 101  73 100  82 101
M  END
> <Batch ID>
0043

> <Smiles>
CNC(C)C(=O)NC(C(=O)N1Cc2cc([101O:1][101CH2:1]CNC(=N)c3cc(C[100NH:0][100C:0](=O)N4CCCC(n5nc(-c6ccc(Oc7ccc(F)cc7F)cc6)c(C(N)=O)c5N)C4)ccc3C)ccc2CC1C(=O)NC1CCCc2ccccc21)C(C)(C)C

> <Shape>
0.203

> <Color>
0.057

> <Negative vol penalty>
0.000

$$$$
