
  -OEChem-04042322183D

 83 91  0     1  0  0  0  0  0999 V2000
  -24.6227  -34.3753   13.9085 C   0  0  0  0  0  0  0  0  0  0  0  0
  -25.0740  -33.1242   14.3167 C   0  0  0  0  0  0  0  0  0  0  0  0
  -22.3772  -12.8787   22.5762 C   0  0  0  0  0  0  0  0  0  0  0  0
  -21.9572  -13.8269   20.3941 C   0  0  0  0  0  0  0  0  0  0  0  0
  -24.6839  -35.4574   14.7854 C   0  0  0  0  0  0  0  0  0  0  0  0
  -25.5878  -32.9549   15.6019 C   0  0  0  0  0  0  0  0  0  0  0  0
  -25.0602  -27.9936   19.1534 C   0  0  0  0  0  0  0  0  0  0  0  0
  -28.2337  -20.6104   15.9853 C   0  0  0  0  0  0  0  0  0  0  0  0
  -27.4768  -19.4721   15.7082 C   0  0  0  0  0  0  0  0  0  0  0  0
  -21.0487  -13.1101   22.9325 C   0  0  0  0  0  0  0  0  0  0  0  0
  -20.6286  -14.0582   20.7504 C   0  0  0  0  0  0  0  0  0  0  0  0
  -25.9234  -26.9302   19.4136 C   0  0  0  0  0  0  0  0  0  0  0  0
  -18.0375  -11.6707   22.3907 C   0  0  0  0  0  0  0  0  0  0  0  0
  -17.3528  -10.6447   23.0419 C   0  0  0  0  0  0  0  0  0  0  0  0
  -26.6939  -28.0509   21.4060 C   0  0  0  0  0  0  0  0  0  0  0  0
  -29.1073  -19.5462   17.9706 C   0  0  0  0  0  0  0  0  0  0  0  0
  -16.9902  -12.0924   24.9418 C   0  0  0  0  0  0  0  0  0  0  0  0
  -22.8315  -13.2371   21.3070 C   0  0  0  0  0  0  0  0  0  0  0  0
  -24.7335  -11.8430   20.3340 C   0  0  0  0  0  0  0  0  0  0  0  0
  -25.1898  -35.2991   16.0853 C   0  0  0  0  0  0  0  0  0  0  0  0
  -25.0151  -29.1005   20.0132 C   0  0  0  0  0  0  0  0  0  0  0  0
  -25.6570  -34.0362   16.4966 C   0  0  0  0  0  0  0  0  0  0  0  0
  -25.8274  -29.1259   21.1559 C   0  0  0  0  0  0  0  0  0  0  0  0
  -29.0490  -20.6475   17.1165 C   0  0  0  0  0  0  0  0  0  0  0  0
  -27.5351  -18.3708   16.5622 C   0  0  0  0  0  0  0  0  0  0  0  0
  -28.3504  -18.4078   17.6935 C   0  0  0  0  0  0  0  0  0  0  0  0
  -20.1744  -13.6998   22.0197 C   0  0  0  0  0  0  0  0  0  0  0  0
  -26.7426  -26.9600   20.5384 C   0  0  0  0  0  0  0  0  0  0  0  0
  -18.1985  -12.9076   23.0151 C   0  0  0  0  0  0  0  0  0  0  0  0
  -16.8292  -10.8555   24.3175 C   0  0  0  0  0  0  0  0  0  0  0  0
  -17.6749  -13.1185   24.2906 C   0  0  0  0  0  0  0  0  0  0  0  0
  -24.2039  -12.9989   20.9385 C   0  0  0  0  0  0  0  0  0  0  0  0
  -26.0728  -12.1125   20.1924 C   0  0  0  0  0  0  0  0  0  0  0  0
  -24.0737  -10.6338   19.9361 C   0  0  0  0  0  0  0  0  0  0  0  0
  -25.6219  -32.2055   19.7060 C   0  0  0  0  0  0  0  0  0  0  0  0
  -24.4679  -32.3332   22.7349 C   0  0  0  0  0  0  0  0  0  0  0  0
  -23.8620  -30.7103   25.6753 C   0  0  0  0  0  0  0  0  0  0  0  0
  -29.1888  -17.1903   19.7333 C   0  0  0  0  0  0  0  0  0  0  0  0
  -25.2797  -36.5088   16.9816 C   0  0  0  0  0  0  0  0  0  0  0  0
  -24.0591  -30.2274   19.7330 C   0  0  0  0  0  0  0  0  0  0  0  0
  -25.8021  -30.2818   22.1212 C   0  0  0  0  0  0  0  0  0  0  0  0
  -25.4912  -36.1622   18.4531 C   0  0  0  0  0  0  0  0  0  0  0  0
  -29.6144  -14.6452   22.1865 C   0  0  0  0  0  0  0  0  0  0  0  0
  -26.5854  -35.1098   18.6018 C   0  0  0  0  0  0  0  0  0  0  0  0
  -28.3261  -13.8253   22.0857 C   0  0  0  0  0  0  0  0  0  0  0  0
  -29.3557  -16.1362   21.9774 C   0  0  0  0  0  0  0  0  0  0  0  0
  -27.3395  -15.6536   20.6466 C   0  0  0  0  0  0  0  0  0  0  0  0
  -26.1981  -33.8072   17.8912 C   0  0  1  0  0  0  0  0  0  0  0  0
  -24.4681  -31.5376   20.3990 C   0  0  1  0  0  0  0  0  0  0  0  0
  -27.5592  -14.1384   20.7858 C   0  0  2  0  0  0  0  0  0  0  0  0
  -26.7127  -17.1651   16.2409 C   0  0  0  0  0  0  0  0  0  0  0  0
  -22.9448  -31.0869   27.9806 C   0  0  0  0  0  0  0  0  0  0  0  0
  -27.0417  -33.7708   23.5215 C   0  0  0  0  0  0  0  0  0  0  0  0
  -26.5059  -33.2726   25.9159 C   0  0  0  0  0  0  0  0  0  0  0  0
  -24.9675  -34.6988   24.5660 C   0  0  0  0  0  0  0  0  0  0  0  0
  -21.7113  -28.7178   25.2710 C   0  0  0  0  0  0  0  0  0  0  0  0
  -29.8630  -21.8723   17.4138 C   0  0  0  0  0  0  0  0  0  0  0  0
  -29.4646  -24.6468   20.0223 C   0  0  0  0  0  0  0  0  0  0  0  0
  -30.1195  -23.8712   18.8893 C   0  0  0  0  0  0  0  0  0  0  0  0
  -28.0906  -25.2037   19.6701 C   0  0  0  0  0  0  0  0  0  1  0  0
  -25.0697  -32.2133   24.1142 C   0  0  1  0  0  0  0  0  0  0  0  0
  -22.6284  -30.6520   26.5581 C   0  0  2  0  0  0  0  0  0  0  0  0
  -25.8983  -33.4678   24.5104 C   0  0  0  0  0  0  0  0  0  0  0  0
  -25.1312  -13.9330   21.1653 N   0  0  0  0  0  0  0  0  0  0  0  0
  -26.2570  -13.3645   20.7011 N   0  0  0  0  0  0  0  0  0  0  0  0
  -24.8552  -31.3624   21.8004 N   0  0  0  0  0  0  0  0  0  0  0  0
  -28.6296  -16.3567   20.7248 N   0  0  0  0  0  0  0  0  0  0  0  0
  -27.0992  -11.3982   19.6836 N   0  0  0  0  0  0  0  0  0  0  0  0
  -22.6937  -10.5228   20.1544 N   0  0  0  0  0  0  0  0  0  0  0  0
  -28.4237  -17.2990   18.5726 N   0  0  0  0  0  0  0  0  0  0  0  0
  -25.2476  -33.0606   18.6871 N   0  0  0  0  0  0  0  0  0  0  0  0
  -23.9632  -31.9182   25.0181 N   0  0  0  0  0  0  0  0  0  0  0  0
  -22.0869  -29.2642   26.6004 N   0  3  0  0  0  0  0  0  0  0  0  0
  -29.3048  -22.6876   18.5279 N   0  3  0  0  0  0  0  0  0  0  0  0
  -24.6925   -9.6736   19.4179 O   0  0  0  0  0  0  0  0  0  0  0  0
  -26.7670  -31.9642   20.0698 O   0  0  0  0  0  0  0  0  0  0  0  0
  -23.6776  -33.2502   22.4976 O   0  0  0  0  0  0  0  0  0  0  0  0
  -24.6584  -29.7789   25.5812 O   0  0  0  0  0  0  0  0  0  0  0  0
  -30.2801  -17.7438   19.8907 O   0  0  0  0  0  0  0  0  0  0  0  0
  -18.8778  -13.9255   22.3670 O   0  0  0  0  0  0  0  0  0  0  0  0
  -27.5866  -25.9237   20.7943 O   0  0  0  0  0  0  0  0  0  1  0  0
  -16.1704   -9.8706   24.9421 F   0  0  0  0  0  0  0  0  0  0  0  0
  -17.8254  -14.3050   24.8950 F   0  0  0  0  0  0  0  0  0  0  0  0
  1  2  1  0  0  0  0
  1  5  2  0  0  0  0
  2  6  2  0  0  0  0
  3 10  2  0  0  0  0
  3 18  1  0  0  0  0
  4 11  1  0  0  0  0
  4 18  2  0  0  0  0
  5 20  1  0  0  0  0
  6 22  1  0  0  0  0
  7 12  2  0  0  0  0
  7 21  1  0  0  0  0
  8  9  2  0  0  0  0
  8 24  1  0  0  0  0
  9 25  1  0  0  0  0
 10 27  1  0  0  0  0
 11 27  2  0  0  0  0
 12 28  1  0  0  0  0
 13 14  2  0  0  0  0
 13 29  1  0  0  0  0
 14 30  1  0  0  0  0
 15 23  1  0  0  0  0
 15 28  2  0  0  0  0
 16 24  2  0  0  0  0
 16 26  1  0  0  0  0
 17 30  2  0  0  0  0
 17 31  1  0  0  0  0
 18 32  1  0  0  0  0
 19 32  1  0  0  0  0
 19 33  2  0  0  0  0
 19 34  1  0  0  0  0
 20 22  2  0  0  0  0
 20 39  1  0  0  0  0
 21 23  2  0  0  0  0
 21 40  1  0  0  0  0
 22 48  1  0  0  0  0
 23 41  1  0  0  0  0
 24 57  1  0  0  0  0
 25 26  2  0  0  0  0
 25 51  1  0  0  0  0
 26 70  1  0  0  0  0
 27 80  1  0  0  0  0
 28 81  1  0  0  0  0
 29 31  2  0  0  0  0
 29 80  1  0  0  0  0
 30 82  1  0  0  0  0
 31 83  1  0  0  0  0
 32 64  2  0  0  0  0
 33 65  1  0  0  0  0
 33 68  1  0  0  0  0
 34 69  1  0  0  0  0
 34 75  2  0  0  0  0
 35 49  1  0  0  0  0
 35 71  1  0  0  0  0
 35 76  2  0  0  0  0
 36 61  1  0  0  0  0
 36 66  1  0  0  0  0
 36 77  2  0  0  0  0
 37 62  1  0  0  0  0
 37 72  1  0  0  0  0
 37 78  2  0  0  0  0
 38 67  1  0  0  0  0
 38 70  1  0  0  0  0
 38 79  2  0  0  0  0
 39 42  1  0  0  0  0
 40 49  1  0  0  0  0
 41 66  1  0  0  0  0
 42 44  1  0  0  0  0
 43 45  1  0  0  0  0
 43 46  1  0  0  0  0
 44 48  1  0  0  0  0
 45 50  1  0  0  0  0
 46 67  1  0  0  0  0
 47 50  1  0  0  0  0
 47 67  1  0  0  0  0
 48 71  1  0  0  0  0
 49 66  1  0  0  0  0
 50 65  1  0  0  0  0
 52 62  1  0  0  0  0
 53 63  1  0  0  0  0
 54 63  1  0  0  0  0
 55 63  1  0  0  0  0
 56 73  1  0  0  0  0
 57 74  1  0  0  0  0
 58 59  1  0  0  0  0
 58 60  1  0  0  0  0
 59 74  1  0  0  0  0
 60 81  1  0  0  0  0
 61 63  1  0  0  0  0
 61 72  1  0  0  0  0
 62 73  1  0  0  0  0
 64 65  1  0  0  0  0
M  CHG  2  73   1  74   1
M  ISO  4  38 100  60 101  70 100  81 101
M  END
> <Batch ID>
0044

> <Smiles>
CNC(C)C(=O)NC(C(=O)N1Cc2cc([101O:1][101CH2:1]CCNCc3ccc(C)c([100NH:0][100C:0](=O)N4CCCC(n5nc(-c6ccc(Oc7ccc(F)cc7F)cc6)c(C(N)=O)c5N)C4)c3)ccc2CC1C(=O)NC1CCCc2ccccc21)C(C)(C)C

> <Shape>
0.235

> <Color>
0.080

> <Negative vol penalty>
0.000

$$$$

  -OEChem-04042322183D

 88 97  0     1  0  0  0  0  0999 V2000
  -28.9900  -36.6303   25.6579 C   0  0  0  0  0  0  0  0  0  0  0  0
  -28.8712  -35.2650   25.8974 C   0  0  0  0  0  0  0  0  0  0  0  0
  -23.8958  -11.2282   23.7093 C   0  0  0  0  0  0  0  0  0  0  0  0
  -24.9361   -9.8242   22.0408 C   0  0  0  0  0  0  0  0  0  0  0  0
  -27.9047  -37.3454   25.1533 C   0  0  0  0  0  0  0  0  0  0  0  0
  -27.6665  -34.6143   25.6333 C   0  0  0  0  0  0  0  0  0  0  0  0
  -28.3254  -30.2111   23.2203 C   0  0  0  0  0  0  0  0  0  0  0  0
  -29.9302  -21.3401   21.9556 C   0  0  0  0  0  0  0  0  0  0  0  0
  -29.8666  -20.0093   21.5426 C   0  0  0  0  0  0  0  0  0  0  0  0
  -23.5119  -10.0939   24.4245 C   0  0  0  0  0  0  0  0  0  0  0  0
  -24.5522   -8.6898   22.7561 C   0  0  0  0  0  0  0  0  0  0  0  0
  -28.7381  -29.1212   23.9856 C   0  0  0  0  0  0  0  0  0  0  0  0
  -21.7473   -6.8549   23.1988 C   0  0  0  0  0  0  0  0  0  0  0  0
  -21.1926   -5.7942   22.4827 C   0  0  0  0  0  0  0  0  0  0  0  0
  -26.4645  -28.3181   24.0570 C   0  0  0  0  0  0  0  0  0  0  0  0
  -27.5176  -21.4646   21.9260 C   0  0  0  0  0  0  0  0  0  0  0  0
  -22.9770   -4.3511   23.2381 C   0  0  0  0  0  0  0  0  0  0  0  0
  -24.6079  -11.0934   22.5174 C   0  0  0  0  0  0  0  0  0  0  0  0
  -24.1613  -13.2518   21.2332 C   0  0  0  0  0  0  0  0  0  0  0  0
  -26.6891  -36.7012   24.8738 C   0  0  0  0  0  0  0  0  0  0  0  0
  -26.9751  -30.3687   22.8763 C   0  0  0  0  0  0  0  0  0  0  0  0
  -26.5635  -35.3217   25.1257 C   0  0  0  0  0  0  0  0  0  0  0  0
  -26.0377  -29.4095   23.2851 C   0  0  0  0  0  0  0  0  0  0  0  0
  -28.7557  -22.0677   22.1474 C   0  0  0  0  0  0  0  0  0  0  0  0
  -27.4540  -20.1338   21.5129 C   0  0  0  0  0  0  0  0  0  0  0  0
  -28.6286  -19.4062   21.3212 C   0  0  0  0  0  0  0  0  0  0  0  0
  -23.8401   -8.8247   23.9479 C   0  0  0  0  0  0  0  0  0  0  0  0
  -27.8072  -28.1760   24.4065 C   0  0  0  0  0  0  0  0  0  0  0  0
  -22.9168   -6.6638   23.9345 C   0  0  0  0  0  0  0  0  0  0  0  0
  -21.8075   -4.5423   22.5023 C   0  0  0  0  0  0  0  0  0  0  0  0
  -23.5317   -5.4119   23.9542 C   0  0  0  0  0  0  0  0  0  0  0  0
  -25.0043  -12.2647   21.7779 C   0  0  0  0  0  0  0  0  0  0  0  0
  -25.0180  -14.1425   20.6340 C   0  0  0  0  0  0  0  0  0  0  0  0
  -29.2607  -25.0490   24.4078 C   0  0  0  0  0  0  0  0  0  0  0  0
  -32.9228  -25.3032   24.5054 C   0  0  0  0  0  0  0  0  0  0  0  0
  -30.4936  -25.5601   24.5599 C   0  0  0  0  0  0  0  0  0  0  0  0
  -31.6953  -24.7937   24.3538 C   0  0  0  0  0  0  0  0  0  0  0  0
  -22.7315  -13.3544   21.2660 C   0  0  0  0  0  0  0  0  0  0  0  0
  -24.7517  -32.5626   23.4652 C   0  0  0  0  0  0  0  0  0  0  0  0
  -22.9941  -30.7702   21.4107 C   0  0  0  0  0  0  0  0  0  0  0  0
  -22.4386  -27.2596   20.7909 C   0  0  0  0  0  0  0  0  0  0  0  0
  -29.6677  -17.2055   20.6703 C   0  0  0  0  0  0  0  0  0  0  0  0
  -25.5291  -37.5252   24.3737 C   0  0  0  0  0  0  0  0  0  0  0  0
  -26.5503  -31.5357   22.0277 C   0  0  0  0  0  0  0  0  0  0  0  0
  -24.5795  -29.5220   22.9252 C   0  0  0  0  0  0  0  0  0  0  0  0
  -24.4046  -36.6893   23.7678 C   0  0  0  0  0  0  0  0  0  0  0  0
  -29.9749  -13.8033   19.6667 C   0  0  0  0  0  0  0  0  0  0  0  0
  -26.8986  -23.5915   25.1256 C   0  0  0  0  0  0  0  0  0  0  0  0
  -24.0724  -35.5062   24.6716 C   0  0  0  0  0  0  0  0  0  0  0  0
  -27.0460  -25.0472   25.5539 C   0  0  0  0  0  0  0  0  0  0  0  0
  -28.6398  -13.1809   20.0816 C   0  0  0  0  0  0  0  0  0  0  0  0
  -30.4516  -14.8474   20.6747 C   0  0  0  0  0  0  0  0  0  0  0  0
  -28.1383  -15.2733   21.4073 C   0  0  0  0  0  0  0  0  0  0  0  0
  -28.2565  -22.9107   24.9890 C   0  0  0  0  0  0  0  0  0  0  0  0
  -25.2809  -34.5755   24.8286 C   0  0  1  0  0  0  0  0  0  0  0  0
  -27.9733  -25.8152   24.6132 C   0  0  1  0  0  0  0  0  0  1  0  0
  -25.0686  -31.8699   22.1700 C   0  0  1  0  0  0  0  0  0  0  0  0
  -27.5855  -14.2622   20.3896 C   0  0  2  0  0  0  0  0  0  0  0  0
  -26.1141  -19.5142   21.2804 C   0  0  0  0  0  0  0  0  0  0  0  0
  -21.7720  -26.0592   18.6904 C   0  0  0  0  0  0  0  0  0  0  0  0
  -20.1558  -31.0552   22.4935 C   0  0  0  0  0  0  0  0  0  0  0  0
  -19.6661  -28.7613   21.6182 C   0  0  0  0  0  0  0  0  0  0  0  0
  -20.2945  -30.5885   20.0405 C   0  0  0  0  0  0  0  0  0  0  0  0
  -24.7892  -25.4668   20.9313 C   0  0  0  0  0  0  0  0  0  0  0  0
  -28.8243  -23.4998   22.5894 C   0  0  0  0  0  0  0  0  0  0  0  0
  -22.0613  -29.5914   21.5492 C   0  0  1  0  0  0  0  0  0  0  0  0
  -22.9259  -26.4594   19.5965 C   0  0  2  0  0  0  0  0  0  0  0  0
  -20.5658  -30.0033   21.4436 C   0  0  0  0  0  0  0  0  0  0  0  0
  -26.2974  -12.5053   21.5452 N   0  0  0  0  0  0  0  0  0  0  0  0
  -26.2732  -13.6537   20.8475 N   0  0  0  0  0  0  0  0  0  0  0  0
  -24.2124  -30.6841   22.0993 N   0  0  0  0  0  0  0  0  0  0  0  0
  -29.4027  -15.8412   20.9137 N   0  0  0  0  0  0  0  0  0  0  0  0
  -24.8125  -15.2884   19.9504 N   0  0  0  0  0  0  0  0  0  0  0  0
  -22.0047  -12.3529   21.9242 N   0  0  0  0  0  0  0  0  0  0  0  0
  -28.5851  -18.0534   20.9018 N   0  0  0  0  0  0  0  0  0  0  0  0
  -25.4375  -33.7476   23.6519 N   0  0  0  0  0  0  0  0  0  0  0  0
  -22.4845  -28.6164   20.5497 N   0  0  0  0  0  0  0  0  0  0  0  0
  -29.1745  -23.6514   24.0442 N   0  3  1  0  0  0  0  0  0  0  0  0
  -23.6184  -25.2204   20.0507 N   0  3  0  0  0  0  0  0  0  0  0  0
  -22.1158  -14.2974   20.7136 O   0  0  0  0  0  0  0  0  0  0  0  0
  -23.9436  -32.0599   24.2372 O   0  0  0  0  0  0  0  0  0  0  0  0
  -22.6573  -31.7290   20.7114 O   0  0  0  0  0  0  0  0  0  0  0  0
  -22.0521  -26.7335   21.8322 O   0  0  0  0  0  0  0  0  0  0  0  0
  -30.7653  -17.5900   20.2588 O   0  0  0  0  0  0  0  0  0  0  0  0
  -23.4658   -7.7176   24.6456 O   0  0  0  0  0  0  0  0  0  0  0  0
  -28.2072  -27.1116   25.1540 O   0  0  0  0  0  0  0  0  0  1  0  0
  -21.2739   -3.5234   21.8158 F   0  0  0  0  0  0  0  0  0  0  0  0
  -24.6548   -5.2219   24.6601 F   0  0  0  0  0  0  0  0  0  0  0  0
  1  2  1  0  0  0  0
  1  5  2  0  0  0  0
  2  6  2  0  0  0  0
  3 10  2  0  0  0  0
  3 18  1  0  0  0  0
  4 11  1  0  0  0  0
  4 18  2  0  0  0  0
  5 20  1  0  0  0  0
  6 22  1  0  0  0  0
  7 12  2  0  0  0  0
  7 21  1  0  0  0  0
  8  9  2  0  0  0  0
  8 24  1  0  0  0  0
  9 26  1  0  0  0  0
 10 27  1  0  0  0  0
 11 27  2  0  0  0  0
 12 28  1  0  0  0  0
 13 14  2  0  0  0  0
 13 29  1  0  0  0  0
 14 30  1  0  0  0  0
 15 23  1  0  0  0  0
 15 28  2  0  0  0  0
 16 24  2  0  0  0  0
 16 25  1  0  0  0  0
 17 30  2  0  0  0  0
 17 31  1  0  0  0  0
 18 32  1  0  0  0  0
 19 32  1  0  0  0  0
 19 33  2  0  0  0  0
 19 38  1  0  0  0  0
 20 22  2  0  0  0  0
 20 43  1  0  0  0  0
 21 23  2  0  0  0  0
 21 44  1  0  0  0  0
 22 55  1  0  0  0  0
 23 45  1  0  0  0  0
 24 65  1  0  0  0  0
 25 26  2  0  0  0  0
 25 59  1  0  0  0  0
 26 75  1  0  0  0  0
 27 85  1  0  0  0  0
 28 86  1  0  0  0  0
 29 31  2  0  0  0  0
 29 85  1  0  0  0  0
 30 87  1  0  0  0  0
 31 88  1  0  0  0  0
 32 69  2  0  0  0  0
 33 70  1  0  0  0  0
 33 73  1  0  0  0  0
 34 36  2  0  0  0  0
 34 56  1  0  0  0  0
 34 78  1  0  0  0  0
 35 37  2  0  0  0  0
 36 37  1  0  0  0  0
 38 74  1  0  0  0  0
 38 80  2  0  0  0  0
 39 57  1  0  0  0  0
 39 76  1  0  0  0  0
 39 81  2  0  0  0  0
 40 66  1  0  0  0  0
 40 71  1  0  0  0  0
 40 82  2  0  0  0  0
 41 67  1  0  0  0  0
 41 77  1  0  0  0  0
 41 83  2  0  0  0  0
 42 72  1  0  0  0  0
 42 75  1  0  0  0  0
 42 84  2  0  0  0  0
 43 46  1  0  0  0  0
 44 57  1  0  0  0  0
 45 71  1  0  0  0  0
 46 49  1  0  0  0  0
 47 51  1  0  0  0  0
 47 52  1  0  0  0  0
 48 50  1  0  0  0  0
 48 54  1  0  0  0  0
 49 55  1  0  0  0  0
 50 56  1  0  0  0  0
 51 58  1  0  0  0  0
 52 72  1  0  0  0  0
 53 58  1  0  0  0  0
 53 72  1  0  0  0  0
 54 78  1  0  0  0  0
 55 76  1  0  0  0  0
 56 86  1  0  0  0  0
 57 71  1  0  0  0  0
 58 70  1  0  0  0  0
 60 67  1  0  0  0  0
 61 68  1  0  0  0  0
 62 68  1  0  0  0  0
 63 68  1  0  0  0  0
 64 79  1  0  0  0  0
 65 78  1  0  0  0  0
 66 68  1  0  0  0  0
 66 77  1  0  0  0  0
 67 79  1  0  0  0  0
 69 70  1  0  0  0  0
M  CHG  2  78   1  79   1
M  ISO  4  42 100  56 101  75 100  86 101
M  END
> <Batch ID>
0044

> <Smiles>
C=CC=C1N(Cc2ccc([100NH:0][100C:0](=O)N3CCCC(n4nc(-c5ccc(Oc6ccc(F)cc6F)cc5)c(C(N)=O)c4N)C3)c(C)c2)CCC[101CH:1]1[101O:1]c1ccc2c(c1)CN(C(=O)C(NC(=O)C(C)NC)C(C)(C)C)C(C(=O)NC1CCCc3ccccc31)C2

> <Shape>
0.296

> <Color>
0.119

> <Negative vol penalty>
0.000

$$$$

  -OEChem-04042322183D

 87 96  0     1  0  0  0  0  0999 V2000
  -28.7082  -37.3754   21.4631 C   0  0  0  0  0  0  0  0  0  0  0  0
  -29.1540  -36.2573   22.1606 C   0  0  0  0  0  0  0  0  0  0  0  0
  -22.6898  -10.4481   20.8291 C   0  0  0  0  0  0  0  0  0  0  0  0
  -24.5311   -9.0145   21.4549 C   0  0  0  0  0  0  0  0  0  0  0  0
  -27.4535  -37.3620   20.8553 C   0  0  0  0  0  0  0  0  0  0  0  0
  -28.3447  -35.1254   22.2517 C   0  0  0  0  0  0  0  0  0  0  0  0
  -30.6136  -28.7386   19.8119 C   0  0  0  0  0  0  0  0  0  0  0  0
  -28.8234  -19.9028   20.9402 C   0  0  0  0  0  0  0  0  0  0  0  0
  -29.0070  -18.5265   20.8077 C   0  0  0  0  0  0  0  0  0  0  0  0
  -21.8684   -9.7938   21.7471 C   0  0  0  0  0  0  0  0  0  0  0  0
  -23.7097   -8.3602   22.3729 C   0  0  0  0  0  0  0  0  0  0  0  0
  -31.0572  -27.4401   19.5603 C   0  0  0  0  0  0  0  0  0  0  0  0
  -21.2987   -5.9907   22.3121 C   0  0  0  0  0  0  0  0  0  0  0  0
  -21.3465   -4.5971   22.3462 C   0  0  0  0  0  0  0  0  0  0  0  0
  -28.8816  -26.5697   20.1579 C   0  0  0  0  0  0  0  0  0  0  0  0
  -26.6126  -18.2051   20.8272 C   0  0  0  0  0  0  0  0  0  0  0  0
  -22.0480   -4.6777   24.6567 C   0  0  0  0  0  0  0  0  0  0  0  0
  -24.0212  -10.0584   20.6829 C   0  0  0  0  0  0  0  0  0  0  0  0
  -24.6820  -10.8289   18.3426 C   0  0  0  0  0  0  0  0  0  0  0  0
  -26.6324  -36.2258   20.9308 C   0  0  0  0  0  0  0  0  0  0  0  0
  -29.2962  -28.9591   20.2231 C   0  0  0  0  0  0  0  0  0  0  0  0
  -27.0773  -35.0972   21.6455 C   0  0  0  0  0  0  0  0  0  0  0  0
  -28.4280  -27.8692   20.3994 C   0  0  0  0  0  0  0  0  0  0  0  0
  -27.5343  -20.4303   21.0163 C   0  0  0  0  0  0  0  0  0  0  0  0
  -27.9016  -17.6776   20.7512 C   0  0  0  0  0  0  0  0  0  0  0  0
  -22.3783   -8.7498   22.5190 C   0  0  0  0  0  0  0  0  0  0  0  0
  -30.1934  -26.3584   19.7332 C   0  0  0  0  0  0  0  0  0  0  0  0
  -21.6257   -6.7278   23.4503 C   0  0  0  0  0  0  0  0  0  0  0  0
  -21.7211   -3.9406   23.5185 C   0  0  0  0  0  0  0  0  0  0  0  0
  -22.0003   -6.0713   24.6226 C   0  0  0  0  0  0  0  0  0  0  0  0
  -26.4289  -19.5815   20.9597 C   0  0  0  0  0  0  0  0  0  0  0  0
  -24.8701  -10.7335   19.7344 C   0  0  0  0  0  0  0  0  0  0  0  0
  -25.7536  -11.5658   17.9009 C   0  0  0  0  0  0  0  0  0  0  0  0
  -29.0362  -23.5187   20.2721 C   0  0  0  0  0  0  0  0  0  0  0  0
  -23.6323  -10.2989   17.5222 C   0  0  0  0  0  0  0  0  0  0  0  0
  -26.6686  -31.4517   21.2022 C   0  0  0  0  0  0  0  0  0  0  0  0
  -25.2875  -29.3398   19.4578 C   0  0  0  0  0  0  0  0  0  0  0  0
  -24.2402  -27.0473   17.1590 C   0  0  0  0  0  0  0  0  0  0  0  0
  -29.2994  -15.5935   20.5297 C   0  0  0  0  0  0  0  0  0  0  0  0
  -25.2644  -36.2754   20.2977 C   0  0  0  0  0  0  0  0  0  0  0  0
  -28.7933  -30.3354   20.5647 C   0  0  0  0  0  0  0  0  0  0  0  0
  -27.0295  -28.1511   20.8765 C   0  0  0  0  0  0  0  0  0  0  0  0
  -24.6236  -34.9009   20.1237 C   0  0  0  0  0  0  0  0  0  0  0  0
  -29.4332  -22.4038   17.1743 C   0  0  0  0  0  0  0  0  0  0  0  0
  -28.3391  -21.5687   17.8317 C   0  0  0  0  0  0  0  0  0  0  0  0
  -30.3146  -12.5559   18.9741 C   0  0  0  0  0  0  0  0  0  0  0  0
  -24.7634  -34.0809   21.4023 C   0  0  0  0  0  0  0  0  0  0  0  0
  -30.3646  -23.1176   18.1493 C   0  0  0  0  0  0  0  0  0  0  0  0
  -29.0154  -11.7551   18.8604 C   0  0  0  0  0  0  0  0  0  0  0  0
  -27.4062  -22.3827   18.7204 C   0  0  0  0  0  0  0  0  0  0  0  0
  -30.3698  -13.3662   20.2680 C   0  0  0  0  0  0  0  0  0  0  0  0
  -27.9104  -13.4330   20.3934 C   0  0  0  0  0  0  0  0  0  0  0  0
  -26.2387  -33.8415   21.7455 C   0  0  1  0  0  0  0  0  0  0  0  0
  -29.6622  -24.1493   19.0317 C   0  0  2  0  0  0  0  0  0  1  0  0
  -27.3142  -30.5466   20.1946 C   0  0  1  0  0  0  0  0  0  0  0  0
  -27.7802  -12.6513   19.0760 C   0  0  2  0  0  0  0  0  0  0  0  0
  -22.2027  -26.3249   15.8845 C   0  0  0  0  0  0  0  0  0  0  0  0
  -24.1893  -28.0108   21.9741 C   0  0  0  0  0  0  0  0  0  0  0  0
  -22.7596  -26.5733   20.5051 C   0  0  0  0  0  0  0  0  0  0  0  0
  -22.4556  -29.0492   20.5008 C   0  0  0  0  0  0  0  0  0  0  0  0
  -25.5277  -27.6099   14.5542 C   0  0  0  0  0  0  0  0  0  0  0  0
  -27.3798  -21.9170   21.1582 C   0  0  0  0  0  0  0  0  0  0  0  0
  -24.5072  -28.0504   19.4122 C   0  0  1  0  0  0  0  0  0  0  0  0
  -23.4470  -27.1993   15.8737 C   0  0  2  0  0  0  0  0  0  0  0  0
  -23.5062  -27.9213   20.5948 C   0  0  0  0  0  0  0  0  0  0  0  0
  -25.9745  -11.3596   20.1496 N   0  0  0  0  0  0  0  0  0  0  0  0
  -26.4900  -11.8554   19.0118 N   0  0  0  0  0  0  0  0  0  0  0  0
  -27.9806  -22.6368   20.0424 N   0  0  0  0  0  0  0  0  0  0  0  0
  -26.4880  -29.3275   20.1783 N   0  0  0  0  0  0  0  0  0  0  0  0
  -29.1694  -14.1943   20.4025 N   0  0  0  0  0  0  0  0  0  0  0  0
  -26.1285  -11.9877   16.6746 N   0  0  0  0  0  0  0  0  0  0  0  0
  -22.6088   -9.5656   18.1379 N   0  0  0  0  0  0  0  0  0  0  0  0
  -28.0884  -16.2794   20.6177 N   0  0  0  0  0  0  0  0  0  0  0  0
  -26.7891  -32.7967   20.9089 N   0  0  0  0  0  0  0  0  0  0  0  0
  -23.8848  -27.9965   18.0938 N   0  0  0  0  0  0  0  0  0  0  0  0
  -24.2820  -26.8138   14.7010 N   0  3  0  0  0  0  0  0  0  0  0  0
  -29.4653  -23.7911   21.3964 O   0  0  0  0  0  0  0  0  0  0  0  0
  -23.6116  -10.4565   16.2779 O   0  0  0  0  0  0  0  0  0  0  0  0
  -26.1011  -30.9668   22.1740 O   0  0  0  0  0  0  0  0  0  0  0  0
  -24.8441  -30.3340   18.8762 O   0  0  0  0  0  0  0  0  0  0  0  0
  -25.0876  -26.1715   17.3192 O   0  0  0  0  0  0  0  0  0  0  0  0
  -30.4028  -16.1453   20.5311 O   0  0  0  0  0  0  0  0  0  0  0  0
  -21.5771   -8.1113   23.4150 O   0  0  0  0  0  0  0  0  0  0  0  0
  -30.6317  -25.0937   19.4815 O   0  0  0  0  0  0  0  0  0  1  0  0
  -21.7654   -2.6022   23.5515 F   0  0  0  0  0  0  0  0  0  0  0  0
  -22.3144   -6.7740   25.7195 F   0  0  0  0  0  0  0  0  0  0  0  0
  -24.8193  -20.1982   21.0513 Cl  0  0  0  0  0  0  0  0  0  0  0  0
  1  2  1  0  0  0  0
  1  5  2  0  0  0  0
  2  6  2  0  0  0  0
  3 10  2  0  0  0  0
  3 18  1  0  0  0  0
  4 11  1  0  0  0  0
  4 18  2  0  0  0  0
  5 20  1  0  0  0  0
  6 22  1  0  0  0  0
  7 12  2  0  0  0  0
  7 21  1  0  0  0  0
  8  9  2  0  0  0  0
  8 24  1  0  0  0  0
  9 25  1  0  0  0  0
 10 26  1  0  0  0  0
 11 26  2  0  0  0  0
 12 27  1  0  0  0  0
 13 14  2  0  0  0  0
 13 28  1  0  0  0  0
 14 29  1  0  0  0  0
 15 23  1  0  0  0  0
 15 27  2  0  0  0  0
 16 25  2  0  0  0  0
 16 31  1  0  0  0  0
 17 29  2  0  0  0  0
 17 30  1  0  0  0  0
 18 32  1  0  0  0  0
 19 32  1  0  0  0  0
 19 33  2  0  0  0  0
 19 35  1  0  0  0  0
 20 22  2  0  0  0  0
 20 40  1  0  0  0  0
 21 23  2  0  0  0  0
 21 41  1  0  0  0  0
 22 53  1  0  0  0  0
 23 42  1  0  0  0  0
 24 31  2  0  0  0  0
 24 62  1  0  0  0  0
 25 73  1  0  0  0  0
 26 83  1  0  0  0  0
 27 84  1  0  0  0  0
 28 30  2  0  0  0  0
 28 83  1  0  0  0  0
 29 85  1  0  0  0  0
 30 86  1  0  0  0  0
 31 87  1  0  0  0  0
 32 66  2  0  0  0  0
 33 67  1  0  0  0  0
 33 71  1  0  0  0  0
 34 54  1  0  0  0  0
 34 68  1  0  0  0  0
 34 77  2  0  0  0  0
 35 72  1  0  0  0  0
 35 78  2  0  0  0  0
 36 55  1  0  0  0  0
 36 74  1  0  0  0  0
 36 79  2  0  0  0  0
 37 63  1  0  0  0  0
 37 69  1  0  0  0  0
 37 80  2  0  0  0  0
 38 64  1  0  0  0  0
 38 75  1  0  0  0  0
 38 81  2  0  0  0  0
 39 70  1  0  0  0  0
 39 73  1  0  0  0  0
 39 82  2  0  0  0  0
 40 43  1  0  0  0  0
 41 55  1  0  0  0  0
 42 69  1  0  0  0  0
 43 47  1  0  0  0  0
 44 45  1  0  0  0  0
 44 48  1  0  0  0  0
 45 50  1  0  0  0  0
 46 49  1  0  0  0  0
 46 51  1  0  0  0  0
 47 53  1  0  0  0  0
 48 54  1  0  0  0  0
 49 56  1  0  0  0  0
 50 68  1  0  0  0  0
 51 70  1  0  0  0  0
 52 56  1  0  0  0  0
 52 70  1  0  0  0  0
 53 74  1  0  0  0  0
 54 84  1  0  0  0  0
 55 69  1  0  0  0  0
 56 67  1  0  0  0  0
 57 64  1  0  0  0  0
 58 65  1  0  0  0  0
 59 65  1  0  0  0  0
 60 65  1  0  0  0  0
 61 76  1  0  0  0  0
 62 68  1  0  0  0  0
 63 65  1  0  0  0  0
 63 75  1  0  0  0  0
 64 76  1  0  0  0  0
 66 67  1  0  0  0  0
M  CHG  1  76   1
M  ISO  4  39 100  54 101  73 100  84 101
M  END
> <Batch ID>
0044

> <Smiles>
CNC(C)C(=O)NC(C(=O)N1Cc2cc([101O:1][101CH:1]3CCCCN(Cc4ccc([100NH:0][100C:0](=O)N5CCCC(n6nc(-c7ccc(Oc8ccc(F)cc8F)cc7)c(C(N)=O)c6N)C5)cc4Cl)C3=O)ccc2CC1C(=O)NC1CCCc2ccccc21)C(C)(C)C

> <Shape>
0.297

> <Color>
0.088

> <Negative vol penalty>
0.000

$$$$

  -OEChem-04042322183D

 89 98  0     1  0  0  0  0  0999 V2000
  -20.9541  -36.1023   17.2642 C   0  0  0  0  0  0  0  0  0  0  0  0
  -21.6792  -34.9949   16.8360 C   0  0  0  0  0  0  0  0  0  0  0  0
  -22.7354  -10.4435   20.3316 C   0  0  0  0  0  0  0  0  0  0  0  0
  -24.5661   -8.9332   20.7835 C   0  0  0  0  0  0  0  0  0  0  0  0
  -21.2604  -36.7058   18.4832 C   0  0  0  0  0  0  0  0  0  0  0  0
  -22.7118  -34.4911   17.6261 C   0  0  0  0  0  0  0  0  0  0  0  0
  -24.3446  -28.6212   18.2463 C   0  0  0  0  0  0  0  0  0  0  0  0
  -21.8317   -9.4859   20.7920 C   0  0  0  0  0  0  0  0  0  0  0  0
  -23.6625   -7.9755   21.2439 C   0  0  0  0  0  0  0  0  0  0  0  0
  -25.3530  -27.8607   17.6559 C   0  0  0  0  0  0  0  0  0  0  0  0
  -21.8869   -7.3775   24.0563 C   0  0  0  0  0  0  0  0  0  0  0  0
  -22.1979   -6.7124   25.2423 C   0  0  0  0  0  0  0  0  0  0  0  0
  -26.7696  -28.2675   19.5655 C   0  0  0  0  0  0  0  0  0  0  0  0
  -27.1698  -20.3794   18.6919 C   0  0  0  0  0  0  0  0  0  0  0  0
  -28.6958  -19.4803   20.8473 C   0  0  0  0  0  0  0  0  0  0  0  0
  -22.1789   -4.6031   24.0643 C   0  0  0  0  0  0  0  0  0  0  0  0
  -24.1026  -10.1671   20.3273 C   0  0  0  0  0  0  0  0  0  0  0  0
  -25.0867  -11.7288   18.5665 C   0  0  0  0  0  0  0  0  0  0  0  0
  -22.2909  -36.2032   19.2931 C   0  0  0  0  0  0  0  0  0  0  0  0
  -24.5455  -29.2206   19.4980 C   0  0  0  0  0  0  0  0  0  0  0  0
  -23.0330  -35.0892   18.8564 C   0  0  0  0  0  0  0  0  0  0  0  0
  -25.7613  -29.0330   20.1708 C   0  0  0  0  0  0  0  0  0  0  0  0
  -27.7503  -21.2977   19.5666 C   0  0  0  0  0  0  0  0  0  0  0  0
  -27.3523  -19.0114   18.8948 C   0  0  0  0  0  0  0  0  0  0  0  0
  -28.5133  -20.8482   20.6443 C   0  0  0  0  0  0  0  0  0  0  0  0
  -28.1153  -18.5619   19.9725 C   0  0  0  0  0  0  0  0  0  0  0  0
  -22.2952   -8.2519   21.2481 C   0  0  0  0  0  0  0  0  0  0  0  0
  -26.5667  -27.6861   18.3141 C   0  0  0  0  0  0  0  0  0  0  0  0
  -21.7218   -6.6554   22.8743 C   0  0  0  0  0  0  0  0  0  0  0  0
  -22.3440   -5.3252   25.2462 C   0  0  0  0  0  0  0  0  0  0  0  0
  -21.8678   -5.2682   22.8783 C   0  0  0  0  0  0  0  0  0  0  0  0
  -25.0365  -11.1558   19.8514 C   0  0  0  0  0  0  0  0  0  0  0  0
  -26.1444  -12.6033   18.6216 C   0  0  0  0  0  0  0  0  0  0  0  0
  -27.7809  -24.5232   17.6718 C   0  0  0  0  0  0  0  0  0  0  0  0
  -26.2469  -23.1172   14.6461 C   0  0  0  0  0  0  0  0  0  0  0  0
  -27.1060  -24.4380   16.5135 C   0  0  0  0  0  0  0  0  0  0  0  0
  -26.9191  -23.2014   15.7996 C   0  0  0  0  0  0  0  0  0  0  0  0
  -24.2519  -11.4918   17.4252 C   0  0  0  0  0  0  0  0  0  0  0  0
  -24.5954  -32.2126   20.5701 C   0  0  0  0  0  0  0  0  0  0  0  0
  -24.8508  -30.7605   23.4595 C   0  0  0  0  0  0  0  0  0  0  0  0
  -26.6398  -27.9505   24.8455 C   0  0  0  0  0  0  0  0  0  0  0  0
  -29.0446  -16.5818   21.2222 C   0  0  0  0  0  0  0  0  0  0  0  0
  -22.6164  -36.9180   20.5807 C   0  0  0  0  0  0  0  0  0  0  0  0
  -23.4381  -30.0158   20.1334 C   0  0  0  0  0  0  0  0  0  0  0  0
  -26.0197  -29.6386   21.5254 C   0  0  0  0  0  0  0  0  0  0  0  0
  -23.4792  -36.0944   21.5333 C   0  0  0  0  0  0  0  0  0  0  0  0
  -29.7365  -13.2108   22.1358 C   0  0  0  0  0  0  0  0  0  0  0  0
  -30.0708  -24.6980   19.3879 C   0  0  0  0  0  0  0  0  0  0  0  0
  -24.6450  -35.4583   20.7829 C   0  0  0  0  0  0  0  0  0  0  0  0
  -29.4847  -25.9676   18.7805 C   0  0  0  0  0  0  0  0  0  0  0  0
  -28.5795  -12.4228   21.5172 C   0  0  0  0  0  0  0  0  0  0  0  0
  -29.2794  -14.5701   22.6621 C   0  0  0  0  0  0  0  0  0  0  0  0
  -27.3975  -14.6119   21.0727 C   0  0  0  0  0  0  0  0  0  0  0  0
  -29.8224  -23.4870   18.4947 C   0  0  0  0  0  0  0  0  0  0  0  0
  -24.1441  -34.4984   19.6970 C   0  0  1  0  0  0  0  0  0  0  0  0
  -28.0016  -25.7980   18.4548 C   0  0  1  0  0  0  0  0  0  1  0  0
  -23.9385  -31.0067   21.1799 C   0  0  1  0  0  0  0  0  0  0  0  0
  -27.8218  -13.2626   20.4702 C   0  0  2  0  0  0  0  0  0  0  0  0
  -26.7189  -18.0503   17.9419 C   0  0  0  0  0  0  0  0  0  0  0  0
  -29.1442  -21.8128   21.5940 C   0  0  0  0  0  0  0  0  0  0  0  0
  -26.0886  -26.4644   26.7910 C   0  0  0  0  0  0  0  0  0  0  0  0
  -26.5933  -32.6909   25.0555 C   0  0  0  0  0  0  0  0  0  0  0  0
  -27.4758  -30.7275   26.3340 C   0  0  0  0  0  0  0  0  0  0  0  0
  -25.0484  -31.2928   26.4387 C   0  0  0  0  0  0  0  0  0  0  0  0
  -26.8318  -25.5089   23.1839 C   0  0  0  0  0  0  0  0  0  0  0  0
  -27.5399  -22.7640   19.3285 C   0  0  0  0  0  0  0  0  0  0  0  0
  -25.9969  -30.2885   24.3212 C   0  0  1  0  0  0  0  0  0  0  0  0
  -26.0487  -26.6211   25.2788 C   0  0  2  0  0  0  0  0  0  0  0  0
  -26.2807  -31.2509   25.5090 C   0  0  0  0  0  0  0  0  0  0  0  0
  -25.9868  -11.6265   20.6634 N   0  0  0  0  0  0  0  0  0  0  0  0
  -26.6442  -12.5045   19.8868 N   0  0  0  0  0  0  0  0  0  0  0  0
  -24.9082  -30.4128   22.1024 N   0  0  0  0  0  0  0  0  0  0  0  0
  -28.5733  -15.3111   21.6145 N   0  0  0  0  0  0  0  0  0  0  0  0
  -26.6864  -13.4394   17.7108 N   0  0  0  0  0  0  0  0  0  0  0  0
  -24.6230  -10.4851   16.5234 N   0  0  0  0  0  0  0  0  0  0  0  0
  -28.3123  -17.1765   20.1953 N   0  0  0  0  0  0  0  0  0  0  0  0
  -23.7225  -33.2452   20.2855 N   0  0  0  0  0  0  0  0  0  0  0  0
  -25.6712  -28.9242   24.7223 N   0  0  0  0  0  0  0  0  0  0  0  0
  -28.3556  -23.2980   18.1833 N   0  3  1  0  0  0  0  0  0  0  0  0
  -26.8084  -25.4932   24.6692 N   0  3  0  0  0  0  0  0  0  0  0  0
  -23.2165  -12.1641   17.2027 O   0  0  0  0  0  0  0  0  0  0  0  0
  -25.8050  -32.2072   20.3738 O   0  0  0  0  0  0  0  0  0  0  0  0
  -23.9346  -31.4074   23.9729 O   0  0  0  0  0  0  0  0  0  0  0  0
  -27.8410  -28.1103   24.6407 O   0  0  0  0  0  0  0  0  0  0  0  0
  -30.0418  -17.0921   21.7391 O   0  0  0  0  0  0  0  0  0  0  0  0
  -21.4138   -7.3173   21.6976 O   0  0  0  0  0  0  0  0  0  0  0  0
  -27.5529  -26.9449   17.7398 O   0  0  0  0  0  0  0  0  0  1  0  0
  -22.6442   -4.6868   26.3849 F   0  0  0  0  0  0  0  0  0  0  0  0
  -21.7116   -4.5693   21.7457 F   0  0  0  0  0  0  0  0  0  0  0  0
  1  2  1  0  0  0  0
  1  5  2  0  0  0  0
  2  6  2  0  0  0  0
  3  8  2  0  0  0  0
  3 17  1  0  0  0  0
  4  9  1  0  0  0  0
  4 17  2  0  0  0  0
  5 19  1  0  0  0  0
  6 21  1  0  0  0  0
  7 10  2  0  0  0  0
  7 20  1  0  0  0  0
  8 27  1  0  0  0  0
  9 27  2  0  0  0  0
 10 28  1  0  0  0  0
 11 12  2  0  0  0  0
 11 29  1  0  0  0  0
 12 30  1  0  0  0  0
 13 22  1  0  0  0  0
 13 28  2  0  0  0  0
 14 23  1  0  0  0  0
 14 24  2  0  0  0  0
 15 25  1  0  0  0  0
 15 26  2  0  0  0  0
 16 30  2  0  0  0  0
 16 31  1  0  0  0  0
 17 32  1  0  0  0  0
 18 32  1  0  0  0  0
 18 33  2  0  0  0  0
 18 38  1  0  0  0  0
 19 21  2  0  0  0  0
 19 43  1  0  0  0  0
 20 22  2  0  0  0  0
 20 44  1  0  0  0  0
 21 55  1  0  0  0  0
 22 45  1  0  0  0  0
 23 25  2  0  0  0  0
 23 66  1  0  0  0  0
 24 26  1  0  0  0  0
 24 59  1  0  0  0  0
 25 60  1  0  0  0  0
 26 76  1  0  0  0  0
 27 86  1  0  0  0  0
 28 87  1  0  0  0  0
 29 31  2  0  0  0  0
 29 86  1  0  0  0  0
 30 88  1  0  0  0  0
 31 89  1  0  0  0  0
 32 70  2  0  0  0  0
 33 71  1  0  0  0  0
 33 74  1  0  0  0  0
 34 36  2  0  0  0  0
 34 56  1  0  0  0  0
 34 79  1  0  0  0  0
 35 37  2  0  0  0  0
 36 37  1  0  0  0  0
 38 75  1  0  0  0  0
 38 81  2  0  0  0  0
 39 57  1  0  0  0  0
 39 77  1  0  0  0  0
 39 82  2  0  0  0  0
 40 67  1  0  0  0  0
 40 72  1  0  0  0  0
 40 83  2  0  0  0  0
 41 68  1  0  0  0  0
 41 78  1  0  0  0  0
 41 84  2  0  0  0  0
 42 73  1  0  0  0  0
 42 76  1  0  0  0  0
 42 85  2  0  0  0  0
 43 46  1  0  0  0  0
 44 57  1  0  0  0  0
 45 72  1  0  0  0  0
 46 49  1  0  0  0  0
 47 51  1  0  0  0  0
 47 52  1  0  0  0  0
 48 50  1  0  0  0  0
 48 54  1  0  0  0  0
 49 55  1  0  0  0  0
 50 56  1  0  0  0  0
 51 58  1  0  0  0  0
 52 73  1  0  0  0  0
 53 58  1  0  0  0  0
 53 73  1  0  0  0  0
 54 79  1  0  0  0  0
 55 77  1  0  0  0  0
 56 87  1  0  0  0  0
 57 72  1  0  0  0  0
 58 71  1  0  0  0  0
 61 68  1  0  0  0  0
 62 69  1  0  0  0  0
 63 69  1  0  0  0  0
 64 69  1  0  0  0  0
 65 80  1  0  0  0  0
 66 79  1  0  0  0  0
 67 69  1  0  0  0  0
 67 78  1  0  0  0  0
 68 80  1  0  0  0  0
 70 71  1  0  0  0  0
M  CHG  2  79   1  80   1
M  ISO  4  42 100  56 101  76 100  87 101
M  END
> <Batch ID>
0044

> <Smiles>
C=CC=C1N(Cc2cc(C)c([100NH:0][100C:0](=O)N3CCCC(n4nc(-c5ccc(Oc6ccc(F)cc6F)cc5)c(C(N)=O)c4N)C3)cc2C)CCC[101CH:1]1[101O:1]c1ccc2c(c1)CN(C(=O)C(NC(=O)C(C)NC)C(C)(C)C)C(C(=O)NC1CCCc3ccccc31)C2

> <Shape>
0.301

> <Color>
0.103

> <Negative vol penalty>
0.000

$$$$

  -OEChem-04042322183D

 84 92  0     1  0  0  0  0  0999 V2000
  -23.6315  -23.7224   18.2458 C   0  0  0  0  0  0  0  0  0  0  0  0
  -24.7139  -22.9728   18.6951 C   0  0  0  0  0  0  0  0  0  0  0  0
  -23.0734  -27.3968   20.6331 C   0  0  0  0  0  0  0  0  0  0  0  0
  -24.4878  -27.1224   22.5725 C   0  0  0  0  0  0  0  0  0  0  0  0
  -22.3350  -23.3587   18.6075 C   0  0  0  0  0  0  0  0  0  0  0  0
  -24.5005  -21.8597   19.5074 C   0  0  0  0  0  0  0  0  0  0  0  0
  -27.2678  -17.8620   18.0913 C   0  0  0  0  0  0  0  0  0  0  0  0
  -22.0196  -26.7892   21.3156 C   0  0  0  0  0  0  0  0  0  0  0  0
  -23.4340  -26.5148   23.2551 C   0  0  0  0  0  0  0  0  0  0  0  0
  -28.6141  -17.8591   18.4534 C   0  0  0  0  0  0  0  0  0  0  0  0
  -18.8499  -25.6360   22.6715 C   0  0  0  0  0  0  0  0  0  0  0  0
  -17.5917  -26.2316   22.5842 C   0  0  0  0  0  0  0  0  0  0  0  0
  -28.1086  -16.3890   20.2980 C   0  0  0  0  0  0  0  0  0  0  0  0
  -32.7249  -23.5981   21.9330 C   0  0  0  0  0  0  0  0  0  0  0  0
  -32.9606  -23.0495   19.5920 C   0  0  0  0  0  0  0  0  0  0  0  0
  -18.4793  -28.2512   23.5694 C   0  0  0  0  0  0  0  0  0  0  0  0
  -24.3075  -27.5633   21.2615 C   0  0  0  0  0  0  0  0  0  0  0  0
  -25.7095  -29.5625   20.5230 C   0  0  0  0  0  0  0  0  0  0  0  0
  -22.1050  -22.2349   19.4167 C   0  0  0  0  0  0  0  0  0  0  0  0
  -26.3284  -17.1359   18.8375 C   0  0  0  0  0  0  0  0  0  0  0  0
  -23.1998  -21.4814   19.8814 C   0  0  0  0  0  0  0  0  0  0  0  0
  -26.7513  -16.3823   19.9417 C   0  0  0  0  0  0  0  0  0  0  0  0
  -32.7916  -23.9998   20.5990 C   0  0  0  0  0  0  0  0  0  0  0  0
  -32.8273  -22.2459   22.2602 C   0  0  0  0  0  0  0  0  0  0  0  0
  -32.9963  -21.2956   21.2533 C   0  0  0  0  0  0  0  0  0  0  0  0
  -22.1998  -26.3482   22.6266 C   0  0  0  0  0  0  0  0  0  0  0  0
  -29.0343  -17.1249   19.5586 C   0  0  0  0  0  0  0  0  0  0  0  0
  -19.9229  -26.3480   23.2078 C   0  0  0  0  0  0  0  0  0  0  0  0
  -17.4063  -27.5392   23.0332 C   0  0  0  0  0  0  0  0  0  0  0  0
  -19.7376  -27.6555   23.6567 C   0  0  0  0  0  0  0  0  0  0  0  0
  -33.0629  -21.6973   19.9192 C   0  0  0  0  0  0  0  0  0  0  0  0
  -25.3967  -28.1904   20.5567 C   0  0  0  0  0  0  0  0  0  0  0  0
  -26.8232  -29.6412   19.7230 C   0  0  0  0  0  0  0  0  0  0  0  0
  -25.0522  -30.6672   21.1581 C   0  0  0  0  0  0  0  0  0  0  0  0
  -23.7499  -17.8871   20.5377 C   0  0  0  0  0  0  0  0  0  0  0  0
  -23.4303  -14.6660   20.7502 C   0  0  0  0  0  0  0  0  0  0  0  0
  -24.9135  -11.5942   20.6454 C   0  0  0  0  0  0  0  0  0  0  0  0
  -31.1298  -25.7208   18.3322 C   0  0  0  0  0  0  0  0  0  0  0  0
  -20.6889  -21.9086   19.8202 C   0  0  0  0  0  0  0  0  0  0  0  0
  -24.8840  -17.1279   18.4180 C   0  0  0  0  0  0  0  0  0  0  0  0
  -25.7858  -15.5697   20.7639 C   0  0  0  0  0  0  0  0  0  0  0  0
  -20.5240  -20.4965   20.3761 C   0  0  0  0  0  0  0  0  0  0  0  0
  -28.9728  -27.4240   16.0687 C   0  0  0  0  0  0  0  0  0  0  0  0
  -21.6194  -20.1917   21.3930 C   0  0  0  0  0  0  0  0  0  0  0  0
  -27.8399  -27.9373   16.9592 C   0  0  0  0  0  0  0  0  0  0  0  0
  -29.4709  -26.0537   16.5229 C   0  0  0  0  0  0  0  0  0  0  0  0
  -28.7311  -26.4902   18.8328 C   0  0  0  0  0  0  0  0  0  0  0  0
  -23.0073  -20.2528   20.7437 C   0  0  1  0  0  0  0  0  0  0  0  0
  -23.9336  -16.7654   19.5549 C   0  0  1  0  0  0  0  0  0  0  0  0
  -28.2334  -27.8940   18.4480 C   0  0  2  0  0  0  0  0  0  0  0  0
  -32.7539  -21.8446   23.6974 C   0  0  0  0  0  0  0  0  0  0  0  0
  -24.4016   -9.1501   20.8929 C   0  0  0  0  0  0  0  0  0  0  0  0
  -23.2833  -15.0059   23.7789 C   0  0  0  0  0  0  0  0  0  0  0  0
  -23.7295  -12.5529   24.0059 C   0  0  0  0  0  0  0  0  0  0  0  0
  -21.6720  -13.3415   22.8365 C   0  0  0  0  0  0  0  0  0  0  0  0
  -25.7744  -11.0146   17.8738 C   0  0  0  0  0  0  0  0  0  0  0  0
  -32.6810  -25.4456   20.2498 C   0  0  0  0  0  0  0  0  0  0  0  0
  -33.1053  -19.8455   21.6223 C   0  0  0  0  0  0  0  0  0  0  0  0
  -31.9679  -17.6217   21.6195 C   0  0  0  0  0  0  0  0  0  0  0  0
  -30.6444  -16.9548   21.3005 C   0  0  0  0  0  0  0  0  0  1  0  0
  -23.9181  -13.6040   21.7058 C   0  0  1  0  0  0  0  0  0  0  0  0
  -24.5306  -10.3148   19.9237 C   0  0  2  0  0  0  0  0  0  0  0  0
  -23.1689  -13.6428   23.0676 C   0  0  0  0  0  0  0  0  0  0  0  0
  -26.2431  -27.4507   19.8354 N   0  0  0  0  0  0  0  0  0  0  0  0
  -27.0988  -28.3613   19.3408 N   0  0  0  0  0  0  0  0  0  0  0  0
  -24.3832  -15.5990   20.3174 N   0  0  0  0  0  0  0  0  0  0  0  0
  -29.8291  -26.0809   17.9431 N   0  0  0  0  0  0  0  0  0  0  0  0
  -27.5837  -30.6797   19.3162 N   0  0  0  0  0  0  0  0  0  0  0  0
  -23.9217  -30.4091   21.9452 N   0  0  0  0  0  0  0  0  0  0  0  0
  -23.2602  -19.0514   19.9775 N   0  0  0  0  0  0  0  0  0  0  0  0
  -23.8042  -12.3339   20.9972 N   0  0  0  0  0  0  0  0  0  0  0  0
  -31.3877  -25.7801   19.6963 N   0  0  0  0  0  0  0  0  0  0  0  0
  -25.5609   -9.9666   18.9048 N   0  3  0  0  0  0  0  0  0  0  0  0
  -31.8701  -19.0727   21.3206 N   0  3  0  0  0  0  0  0  0  0  0  0
  -25.4458  -31.8500   21.0181 O   0  0  0  0  0  0  0  0  0  0  0  0
  -24.0303  -17.7088   21.7173 O   0  0  0  0  0  0  0  0  0  0  0  0
  -22.2490  -14.6635   20.3951 O   0  0  0  0  0  0  0  0  0  0  0  0
  -26.0799  -11.9045   20.8775 O   0  0  0  0  0  0  0  0  0  0  0  0
  -31.9987  -25.3776   17.5233 O   0  0  0  0  0  0  0  0  0  0  0  0
  -21.1716  -25.7555   23.2930 O   0  0  0  0  0  0  0  0  0  0  0  0
  -30.3477  -17.1209   19.9146 O   0  0  0  0  0  0  0  0  0  1  0  0
  -16.1983  -28.1115   22.9479 F   0  0  0  0  0  0  0  0  0  0  0  0
  -20.7648  -28.3449   24.1718 F   0  0  0  0  0  0  0  0  0  0  0  0
  -33.2697  -20.5517   18.6440 Cl  0  0  0  0  0  0  0  0  0  0  0  0
  1  2  1  0  0  0  0
  1  5  2  0  0  0  0
  2  6  2  0  0  0  0
  3  8  2  0  0  0  0
  3 17  1  0  0  0  0
  4  9  1  0  0  0  0
  4 17  2  0  0  0  0
  5 19  1  0  0  0  0
  6 21  1  0  0  0  0
  7 10  2  0  0  0  0
  7 20  1  0  0  0  0
  8 26  1  0  0  0  0
  9 26  2  0  0  0  0
 10 27  1  0  0  0  0
 11 12  2  0  0  0  0
 11 28  1  0  0  0  0
 12 29  1  0  0  0  0
 13 22  1  0  0  0  0
 13 27  2  0  0  0  0
 14 23  1  0  0  0  0
 14 24  2  0  0  0  0
 15 23  2  0  0  0  0
 15 31  1  0  0  0  0
 16 29  2  0  0  0  0
 16 30  1  0  0  0  0
 17 32  1  0  0  0  0
 18 32  1  0  0  0  0
 18 33  2  0  0  0  0
 18 34  1  0  0  0  0
 19 21  2  0  0  0  0
 19 39  1  0  0  0  0
 20 22  2  0  0  0  0
 20 40  1  0  0  0  0
 21 48  1  0  0  0  0
 22 41  1  0  0  0  0
 23 57  1  0  0  0  0
 24 25  1  0  0  0  0
 24 51  1  0  0  0  0
 25 31  2  0  0  0  0
 25 58  1  0  0  0  0
 26 80  1  0  0  0  0
 27 81  1  0  0  0  0
 28 30  2  0  0  0  0
 28 80  1  0  0  0  0
 29 82  1  0  0  0  0
 30 83  1  0  0  0  0
 31 84  1  0  0  0  0
 32 64  2  0  0  0  0
 33 65  1  0  0  0  0
 33 68  1  0  0  0  0
 34 69  1  0  0  0  0
 34 75  2  0  0  0  0
 35 49  1  0  0  0  0
 35 70  1  0  0  0  0
 35 76  2  0  0  0  0
 36 61  1  0  0  0  0
 36 66  1  0  0  0  0
 36 77  2  0  0  0  0
 37 62  1  0  0  0  0
 37 71  1  0  0  0  0
 37 78  2  0  0  0  0
 38 67  1  0  0  0  0
 38 72  1  0  0  0  0
 38 79  2  0  0  0  0
 39 42  1  0  0  0  0
 40 49  1  0  0  0  0
 41 66  1  0  0  0  0
 42 44  1  0  0  0  0
 43 45  1  0  0  0  0
 43 46  1  0  0  0  0
 44 48  1  0  0  0  0
 45 50  1  0  0  0  0
 46 67  1  0  0  0  0
 47 50  1  0  0  0  0
 47 67  1  0  0  0  0
 48 70  1  0  0  0  0
 49 66  1  0  0  0  0
 50 65  1  0  0  0  0
 52 62  1  0  0  0  0
 53 63  1  0  0  0  0
 54 63  1  0  0  0  0
 55 63  1  0  0  0  0
 56 73  1  0  0  0  0
 57 72  1  0  0  0  0
 58 74  1  0  0  0  0
 59 60  1  0  0  0  0
 59 74  1  0  0  0  0
 60 81  1  0  0  0  0
 61 63  1  0  0  0  0
 61 71  1  0  0  0  0
 62 73  1  0  0  0  0
 64 65  1  0  0  0  0
M  CHG  2  73   1  74   1
M  ISO  4  38 100  60 101  72 100  81 101
M  END
> <Batch ID>
0044

> <Smiles>
CNC(C)C(=O)NC(C(=O)N1Cc2cc([101O:1][101CH2:1]CNCc3c(C)cc(C[100NH:0][100C:0](=O)N4CCCC(n5nc(-c6ccc(Oc7ccc(F)cc7F)cc6)c(C(N)=O)c5N)C4)cc3Cl)ccc2CC1C(=O)NC1CCCc2ccccc21)C(C)(C)C

> <Shape>
0.206

> <Color>
0.069

> <Negative vol penalty>
0.000

$$$$

  -OEChem-04042322183D

 84 92  0     1  0  0  0  0  0999 V2000
  -26.6700  -28.9844   18.1075 C   0  0  0  0  0  0  0  0  0  0  0  0
  -26.7135  -27.7222   18.6910 C   0  0  0  0  0  0  0  0  0  0  0  0
  -31.0891  -21.8747   20.3317 C   0  0  0  0  0  0  0  0  0  0  0  0
  -28.9847  -21.4386   19.2279 C   0  0  0  0  0  0  0  0  0  0  0  0
  -26.0502  -30.0392   18.7761 C   0  0  0  0  0  0  0  0  0  0  0  0
  -26.1381  -27.5144   19.9440 C   0  0  0  0  0  0  0  0  0  0  0  0
  -23.3882  -23.2665   20.1385 C   0  0  0  0  0  0  0  0  0  0  0  0
  -31.2681  -23.0103   19.5419 C   0  0  0  0  0  0  0  0  0  0  0  0
  -29.1636  -22.5743   18.4381 C   0  0  0  0  0  0  0  0  0  0  0  0
  -24.0822  -22.0640   20.2658 C   0  0  0  0  0  0  0  0  0  0  0  0
  -32.1063  -26.2252   18.0664 C   0  0  0  0  0  0  0  0  0  0  0  0
  -32.5375  -27.3922   18.6969 C   0  0  0  0  0  0  0  0  0  0  0  0
  -23.6018  -22.0439   22.6297 C   0  0  0  0  0  0  0  0  0  0  0  0
  -25.6503  -10.5742   21.1007 C   0  0  0  0  0  0  0  0  0  0  0  0
  -24.2481  -12.2611   20.0882 C   0  0  0  0  0  0  0  0  0  0  0  0
  -30.5683  -27.3639   20.0963 C   0  0  0  0  0  0  0  0  0  0  0  0
  -29.9474  -21.0888   20.1747 C   0  0  0  0  0  0  0  0  0  0  0  0
  -29.1210  -19.8417   22.2410 C   0  0  0  0  0  0  0  0  0  0  0  0
  -25.4583  -29.8420   20.0337 C   0  0  0  0  0  0  0  0  0  0  0  0
  -22.8041  -23.8733   21.2596 C   0  0  0  0  0  0  0  0  0  0  0  0
  -25.5108  -28.5679   20.6307 C   0  0  0  0  0  0  0  0  0  0  0  0
  -22.8987  -23.2528   22.5135 C   0  0  0  0  0  0  0  0  0  0  0  0
  -26.7437  -11.4369   21.0239 C   0  0  0  0  0  0  0  0  0  0  0  0
  -25.3415  -13.1238   20.0114 C   0  0  0  0  0  0  0  0  0  0  0  0
  -26.5893  -12.7117   20.4792 C   0  0  0  0  0  0  0  0  0  0  0  0
  -30.3054  -23.3602   18.5951 C   0  0  0  0  0  0  0  0  0  0  0  0
  -24.1915  -21.4540   21.5120 C   0  0  0  0  0  0  0  0  0  0  0  0
  -30.9060  -25.6275   18.4507 C   0  0  0  0  0  0  0  0  0  0  0  0
  -31.7686  -27.9616   19.7118 C   0  0  0  0  0  0  0  0  0  0  0  0
  -30.1370  -26.1968   19.4657 C   0  0  0  0  0  0  0  0  0  0  0  0
  -24.4025  -10.9863   20.6328 C   0  0  0  0  0  0  0  0  0  0  0  0
  -29.7622  -19.9152   20.9899 C   0  0  0  0  0  0  0  0  0  0  0  0
  -29.2090  -18.5175   22.5947 C   0  0  0  0  0  0  0  0  0  0  0  0
  -28.5012  -20.8779   23.0143 C   0  0  0  0  0  0  0  0  0  0  0  0
  -23.2006  -26.6394   22.7746 C   0  0  0  0  0  0  0  0  0  0  0  0
  -20.6355  -25.6258   24.4820 C   0  0  0  0  0  0  0  0  0  0  0  0
  -18.7394  -23.0118   25.5859 C   0  0  0  0  0  0  0  0  0  0  0  0
  -29.0423  -13.2396   20.2545 C   0  0  0  0  0  0  0  0  0  0  0  0
  -24.8412  -31.0237   20.7390 C   0  0  0  0  0  0  0  0  0  0  0  0
  -22.0360  -25.1567   21.1009 C   0  0  0  0  0  0  0  0  0  0  0  0
  -22.2723  -23.8530   23.7446 C   0  0  0  0  0  0  0  0  0  0  0  0
  -23.9268  -30.6324   21.8970 C   0  0  0  0  0  0  0  0  0  0  0  0
  -32.1114  -14.7391   21.2591 C   0  0  0  0  0  0  0  0  0  0  0  0
  -24.5960  -29.5779   22.7728 C   0  0  0  0  0  0  0  0  0  0  0  0
  -31.7575  -16.2199   21.4150 C   0  0  0  0  0  0  0  0  0  0  0  0
  -31.3681  -14.0986   20.0882 C   0  0  0  0  0  0  0  0  0  0  0  0
  -29.5570  -15.7597   20.2604 C   0  0  0  0  0  0  0  0  0  0  0  0
  -24.8762  -28.2971   21.9775 C   0  0  1  0  0  0  0  0  0  0  0  0
  -21.9201  -25.9483   22.3999 C   0  0  1  0  0  0  0  0  0  0  0  0
  -30.2317  -16.4322   21.4671 C   0  0  2  0  0  0  0  0  0  0  0  0
  -28.0678  -10.9669   21.5332 C   0  0  0  0  0  0  0  0  0  0  0  0
  -16.7290  -22.4936   26.9955 C   0  0  0  0  0  0  0  0  0  0  0  0
  -22.2855  -26.0985   27.0047 C   0  0  0  0  0  0  0  0  0  0  0  0
  -20.6315  -24.7033   28.2640 C   0  0  0  0  0  0  0  0  0  0  0  0
  -19.8970  -26.8213   27.1697 C   0  0  0  0  0  0  0  0  0  0  0  0
  -17.3003  -21.8084   23.2969 C   0  0  0  0  0  0  0  0  0  0  0  0
  -25.1442  -14.4886   19.4203 C   0  0  0  0  0  0  0  0  0  0  0  0
  -24.9559  -17.9687   21.0062 C   0  0  0  0  0  0  0  0  0  0  0  0
  -24.9883  -16.9371   19.8886 C   0  0  0  0  0  0  0  0  0  0  0  0
  -24.8726  -19.4072   20.5107 C   0  0  0  0  0  0  0  0  0  1  0  0
  -20.4415  -24.8102   25.7375 C   0  0  1  0  0  0  0  0  0  0  0  0
  -17.2378  -22.7890   25.5932 C   0  0  2  0  0  0  0  0  0  0  0  0
  -20.8274  -25.5978   27.0213 C   0  0  0  0  0  0  0  0  0  0  0  0
  -30.2236  -18.7318   20.5767 N   0  0  0  0  0  0  0  0  0  0  0  0
  -29.8720  -17.9023   21.5738 N   0  0  0  0  0  0  0  0  0  0  0  0
  -21.5371  -25.1119   23.5392 N   0  0  0  0  0  0  0  0  0  0  0  0
  -29.9280  -14.3369   20.2070 N   0  0  0  0  0  0  0  0  0  0  0  0
  -28.7831  -17.8309   23.6762 N   0  0  0  0  0  0  0  0  0  0  0  0
  -28.4997  -22.1829   22.5032 N   0  0  0  0  0  0  0  0  0  0  0  0
  -27.7000  -13.5880   20.4011 N   0  0  0  0  0  0  0  0  0  0  0  0
  -23.6626  -27.5247   21.8195 N   0  0  0  0  0  0  0  0  0  0  0  0
  -19.0582  -24.3472   25.7137 N   0  0  0  0  0  0  0  0  0  0  0  0
  -16.8801  -21.6416   24.7120 N   0  3  0  0  0  0  0  0  0  0  0  0
  -25.1182  -15.5697   20.4441 N   0  3  0  0  0  0  0  0  0  0  0  0
  -27.9791  -20.6561   24.1331 O   0  0  0  0  0  0  0  0  0  0  0  0
  -23.7296  -26.3891   23.8513 O   0  0  0  0  0  0  0  0  0  0  0  0
  -20.0049  -26.6764   24.3399 O   0  0  0  0  0  0  0  0  0  0  0  0
  -19.5486  -22.0927   25.4813 O   0  0  0  0  0  0  0  0  0  0  0  0
  -29.4474  -12.0757   20.1985 O   0  0  0  0  0  0  0  0  0  0  0  0
  -30.4796  -24.4684   17.8243 O   0  0  0  0  0  0  0  0  0  0  0  0
  -24.8689  -20.2806   21.6391 O   0  0  0  0  0  0  0  0  0  1  0  0
  -32.1836  -29.0815   20.3183 F   0  0  0  0  0  0  0  0  0  0  0  0
  -28.9836  -25.6265   19.8401 F   0  0  0  0  0  0  0  0  0  0  0  0
  -23.0534   -9.9218   20.7276 Cl  0  0  0  0  0  0  0  0  0  0  0  0
  1  2  1  0  0  0  0
  1  5  2  0  0  0  0
  2  6  2  0  0  0  0
  3  8  2  0  0  0  0
  3 17  1  0  0  0  0
  4  9  1  0  0  0  0
  4 17  2  0  0  0  0
  5 19  1  0  0  0  0
  6 21  1  0  0  0  0
  7 10  2  0  0  0  0
  7 20  1  0  0  0  0
  8 26  1  0  0  0  0
  9 26  2  0  0  0  0
 10 27  1  0  0  0  0
 11 12  2  0  0  0  0
 11 28  1  0  0  0  0
 12 29  1  0  0  0  0
 13 22  1  0  0  0  0
 13 27  2  0  0  0  0
 14 23  2  0  0  0  0
 14 31  1  0  0  0  0
 15 24  1  0  0  0  0
 15 31  2  0  0  0  0
 16 29  2  0  0  0  0
 16 30  1  0  0  0  0
 17 32  1  0  0  0  0
 18 32  1  0  0  0  0
 18 33  2  0  0  0  0
 18 34  1  0  0  0  0
 19 21  2  0  0  0  0
 19 39  1  0  0  0  0
 20 22  2  0  0  0  0
 20 40  1  0  0  0  0
 21 48  1  0  0  0  0
 22 41  1  0  0  0  0
 23 25  1  0  0  0  0
 23 51  1  0  0  0  0
 24 25  2  0  0  0  0
 24 57  1  0  0  0  0
 25 70  1  0  0  0  0
 26 80  1  0  0  0  0
 27 81  1  0  0  0  0
 28 30  2  0  0  0  0
 28 80  1  0  0  0  0
 29 82  1  0  0  0  0
 30 83  1  0  0  0  0
 31 84  1  0  0  0  0
 32 64  2  0  0  0  0
 33 65  1  0  0  0  0
 33 68  1  0  0  0  0
 34 69  1  0  0  0  0
 34 75  2  0  0  0  0
 35 49  1  0  0  0  0
 35 71  1  0  0  0  0
 35 76  2  0  0  0  0
 36 61  1  0  0  0  0
 36 66  1  0  0  0  0
 36 77  2  0  0  0  0
 37 62  1  0  0  0  0
 37 72  1  0  0  0  0
 37 78  2  0  0  0  0
 38 67  1  0  0  0  0
 38 70  1  0  0  0  0
 38 79  2  0  0  0  0
 39 42  1  0  0  0  0
 40 49  1  0  0  0  0
 41 66  1  0  0  0  0
 42 44  1  0  0  0  0
 43 45  1  0  0  0  0
 43 46  1  0  0  0  0
 44 48  1  0  0  0  0
 45 50  1  0  0  0  0
 46 67  1  0  0  0  0
 47 50  1  0  0  0  0
 47 67  1  0  0  0  0
 48 71  1  0  0  0  0
 49 66  1  0  0  0  0
 50 65  1  0  0  0  0
 52 62  1  0  0  0  0
 53 63  1  0  0  0  0
 54 63  1  0  0  0  0
 55 63  1  0  0  0  0
 56 73  1  0  0  0  0
 57 74  1  0  0  0  0
 58 59  1  0  0  0  0
 58 60  1  0  0  0  0
 59 74  1  0  0  0  0
 60 81  1  0  0  0  0
 61 63  1  0  0  0  0
 61 72  1  0  0  0  0
 62 73  1  0  0  0  0
 64 65  1  0  0  0  0
M  CHG  2  73   1  74   1
M  ISO  4  38 100  60 101  70 100  81 101
M  END
> <Batch ID>
0044

> <Smiles>
CNC(C)C(=O)NC(C(=O)N1Cc2cc([101O:1][101CH2:1]CCNCc3cc(Cl)cc(C)c3[100NH:0][100C:0](=O)N3CCCC(n4nc(-c5ccc(Oc6ccc(F)cc6F)cc5)c(C(N)=O)c4N)C3)ccc2CC1C(=O)NC1CCCc2ccccc21)C(C)(C)C

> <Shape>
0.235

> <Color>
0.051

> <Negative vol penalty>
0.000

$$$$

  -OEChem-04042322183D

 86 95  0     1  0  0  0  0  0999 V2000
  -16.5633  -29.4958   24.0742 C   0  0  0  0  0  0  0  0  0  0  0  0
  -16.9582  -28.6760   23.0218 C   0  0  0  0  0  0  0  0  0  0  0  0
  -27.1889  -12.9975   20.3367 C   0  0  0  0  0  0  0  0  0  0  0  0
  -27.5165  -13.6055   22.6519 C   0  0  0  0  0  0  0  0  0  0  0  0
  -17.3960  -30.5289   24.5019 C   0  0  0  0  0  0  0  0  0  0  0  0
  -18.1857  -28.8897   22.3957 C   0  0  0  0  0  0  0  0  0  0  0  0
  -23.4968  -25.3340   19.1608 C   0  0  0  0  0  0  0  0  0  0  0  0
  -30.5685  -22.7453   17.0111 C   0  0  0  0  0  0  0  0  0  0  0  0
  -31.0560  -21.8256   17.9395 C   0  0  0  0  0  0  0  0  0  0  0  0
  -25.8748  -12.6257   20.6203 C   0  0  0  0  0  0  0  0  0  0  0  0
  -26.2023  -13.2337   22.9355 C   0  0  0  0  0  0  0  0  0  0  0  0
  -24.2307  -25.3387   17.9755 C   0  0  0  0  0  0  0  0  0  0  0  0
  -24.2763   -9.9890   22.0048 C   0  0  0  0  0  0  0  0  0  0  0  0
  -23.8162   -8.7832   21.4756 C   0  0  0  0  0  0  0  0  0  0  0  0
  -25.6220  -27.1042   18.8511 C   0  0  0  0  0  0  0  0  0  0  0  0
  -30.2719  -20.0096   16.5524 C   0  0  0  0  0  0  0  0  0  0  0  0
  -22.0849   -9.9693   20.2786 C   0  0  0  0  0  0  0  0  0  0  0  0
  -28.0098  -13.4874   21.3525 C   0  0  0  0  0  0  0  0  0  0  0  0
  -30.3904  -13.0522   20.5458 C   0  0  0  0  0  0  0  0  0  0  0  0
  -18.6386  -30.7494   23.8871 C   0  0  0  0  0  0  0  0  0  0  0  0
  -23.8136  -26.2232   20.1977 C   0  0  0  0  0  0  0  0  0  0  0  0
  -19.0352  -29.9277   22.8147 C   0  0  0  0  0  0  0  0  0  0  0  0
  -24.8922  -27.1069   20.0496 C   0  0  0  0  0  0  0  0  0  0  0  0
  -29.9326  -22.2972   15.8533 C   0  0  0  0  0  0  0  0  0  0  0  0
  -29.7843  -20.9293   15.6239 C   0  0  0  0  0  0  0  0  0  0  0  0
  -30.9078  -20.4578   17.7102 C   0  0  0  0  0  0  0  0  0  0  0  0
  -25.3815  -12.7438   21.9196 C   0  0  0  0  0  0  0  0  0  0  0  0
  -25.2917  -26.2259   17.8193 C   0  0  0  0  0  0  0  0  0  0  0  0
  -23.6407  -11.1849   21.6710 C   0  0  0  0  0  0  0  0  0  0  0  0
  -22.7205   -8.7734   20.6124 C   0  0  0  0  0  0  0  0  0  0  0  0
  -22.5450  -11.1751   20.8078 C   0  0  0  0  0  0  0  0  0  0  0  0
  -29.3675  -13.8711   21.0604 C   0  0  0  0  0  0  0  0  0  0  0  0
  -31.4800  -13.8829   20.4501 C   0  0  0  0  0  0  0  0  0  0  0  0
  -27.7071  -24.6722   16.0037 C   0  0  0  0  0  0  0  0  0  0  0  0
  -30.3585  -11.6645   20.1864 C   0  0  0  0  0  0  0  0  0  0  0  0
  -22.2832  -28.5879   21.6709 C   0  0  0  0  0  0  0  0  0  0  0  0
  -24.9032  -28.5702   23.5833 C   0  0  0  0  0  0  0  0  0  0  0  0
  -28.4722  -28.2561   23.1576 C   0  0  0  0  0  0  0  0  0  0  0  0
  -32.0619  -19.7996   19.8505 C   0  0  0  0  0  0  0  0  0  0  0  0
  -19.4837  -31.9084   24.3531 C   0  0  0  0  0  0  0  0  0  0  0  0
  -23.0290  -26.1871   21.4805 C   0  0  0  0  0  0  0  0  0  0  0  0
  -25.2857  -28.0678   21.1406 C   0  0  0  0  0  0  0  0  0  0  0  0
  -20.9340  -31.8328   23.8826 C   0  0  0  0  0  0  0  0  0  0  0  0
  -29.6472  -26.8496   16.2899 C   0  0  0  0  0  0  0  0  0  0  0  0
  -33.4046  -17.7813   22.4584 C   0  0  0  0  0  0  0  0  0  0  0  0
  -20.9963  -31.4855   22.3986 C   0  0  0  0  0  0  0  0  0  0  0  0
  -28.1656  -27.1610   16.2577 C   0  0  0  0  0  0  0  0  0  0  0  0
  -32.6190  -16.4728   22.3451 C   0  0  0  0  0  0  0  0  0  0  0  0
  -29.9403  -25.6673   15.3836 C   0  0  0  0  0  0  0  0  0  0  0  0
  -32.5295  -18.9962   22.1551 C   0  0  0  0  0  0  0  0  0  0  0  0
  -31.0238  -17.6305   20.7633 C   0  0  0  0  0  0  0  0  0  0  0  0
  -20.3703  -30.1124   22.1265 C   0  0  1  0  0  0  0  0  0  0  0  0
  -27.3965  -25.9561   16.7627 C   0  0  1  0  0  0  0  0  0  1  0  0
  -23.1150  -27.4895   22.2704 C   0  0  1  0  0  0  0  0  0  0  0  0
  -31.8793  -16.3745   20.9965 C   0  0  2  0  0  0  0  0  0  0  0  0
  -29.1089  -20.4263   14.3905 C   0  0  0  0  0  0  0  0  0  0  0  0
  -30.2343  -27.4072   24.7297 C   0  0  0  0  0  0  0  0  0  0  0  0
  -25.2261  -31.5068   24.3463 C   0  0  0  0  0  0  0  0  0  0  0  0
  -27.6954  -31.1232   24.5002 C   0  0  0  0  0  0  0  0  0  0  0  0
  -26.1463  -29.8879   26.0158 C   0  0  0  0  0  0  0  0  0  0  0  0
  -29.4356  -26.2676   21.1886 C   0  0  0  0  0  0  0  0  0  0  0  0
  -29.4154  -23.3061   14.8690 C   0  0  0  0  0  0  0  0  0  0  0  0
  -26.2433  -29.2652   23.5673 C   0  0  1  0  0  0  0  0  0  0  0  0
  -29.3335  -27.0698   23.5518 C   0  0  2  0  0  0  0  0  0  0  0  0
  -26.3137  -30.4400   24.5833 C   0  0  0  0  0  0  0  0  0  0  0  0
  -29.7712  -15.1258   21.2766 N   0  0  0  0  0  0  0  0  0  0  0  0
  -31.0599  -15.1015   20.8961 N   0  0  0  0  0  0  0  0  0  0  0  0
  -29.0105  -24.5449   15.5200 N   0  0  0  0  0  0  0  0  0  0  0  0
  -24.4841  -27.9986   22.3736 N   0  0  0  0  0  0  0  0  0  0  0  0
  -31.8639  -18.8345   20.8606 N   0  0  0  0  0  0  0  0  0  0  0  0
  -32.7468  -13.6827   20.0289 N   0  0  0  0  0  0  0  0  0  0  0  0
  -29.1577  -10.9600   20.3478 N   0  0  0  0  0  0  0  0  0  0  0  0
  -31.4047  -19.5231   18.6521 N   0  0  0  0  0  0  0  0  0  0  0  0
  -21.2850  -29.0562   22.5038 N   0  0  0  0  0  0  0  0  0  0  0  0
  -27.2444  -28.2265   23.7845 N   0  0  0  0  0  0  0  0  0  0  0  0
  -30.1923  -26.6505   22.4083 N   0  3  0  0  0  0  0  0  0  0  0  0
  -26.8467  -23.7937   15.9041 O   0  0  0  0  0  0  0  0  0  0  0  0
  -31.3695  -11.0630   19.7509 O   0  0  0  0  0  0  0  0  0  0  0  0
  -22.5298  -28.9823   20.5371 O   0  0  0  0  0  0  0  0  0  0  0  0
  -24.2556  -28.5295   24.6324 O   0  0  0  0  0  0  0  0  0  0  0  0
  -28.8520  -29.1242   22.3748 O   0  0  0  0  0  0  0  0  0  0  0  0
  -32.7848  -20.7838   20.0261 O   0  0  0  0  0  0  0  0  0  0  0  0
  -24.0991  -12.3812   22.1966 O   0  0  0  0  0  0  0  0  0  0  0  0
  -26.0093  -26.2331   16.6631 O   0  0  0  0  0  0  0  0  0  1  0  0
  -22.2797   -7.6156   20.1031 F   0  0  0  0  0  0  0  0  0  0  0  0
  -21.9310  -12.3209   20.4825 F   0  0  0  0  0  0  0  0  0  0  0  0
  1  2  1  0  0  0  0
  1  5  2  0  0  0  0
  2  6  2  0  0  0  0
  3 10  2  0  0  0  0
  3 18  1  0  0  0  0
  4 11  1  0  0  0  0
  4 18  2  0  0  0  0
  5 20  1  0  0  0  0
  6 22  1  0  0  0  0
  7 12  2  0  0  0  0
  7 21  1  0  0  0  0
  8  9  2  0  0  0  0
  8 24  1  0  0  0  0
  9 26  1  0  0  0  0
 10 27  1  0  0  0  0
 11 27  2  0  0  0  0
 12 28  1  0  0  0  0
 13 14  2  0  0  0  0
 13 29  1  0  0  0  0
 14 30  1  0  0  0  0
 15 23  1  0  0  0  0
 15 28  2  0  0  0  0
 16 25  1  0  0  0  0
 16 26  2  0  0  0  0
 17 30  2  0  0  0  0
 17 31  1  0  0  0  0
 18 32  1  0  0  0  0
 19 32  1  0  0  0  0
 19 33  2  0  0  0  0
 19 35  1  0  0  0  0
 20 22  2  0  0  0  0
 20 40  1  0  0  0  0
 21 23  2  0  0  0  0
 21 41  1  0  0  0  0
 22 52  1  0  0  0  0
 23 42  1  0  0  0  0
 24 25  2  0  0  0  0
 24 62  1  0  0  0  0
 25 56  1  0  0  0  0
 26 73  1  0  0  0  0
 27 83  1  0  0  0  0
 28 84  1  0  0  0  0
 29 31  2  0  0  0  0
 29 83  1  0  0  0  0
 30 85  1  0  0  0  0
 31 86  1  0  0  0  0
 32 66  2  0  0  0  0
 33 67  1  0  0  0  0
 33 71  1  0  0  0  0
 34 53  1  0  0  0  0
 34 68  1  0  0  0  0
 34 77  2  0  0  0  0
 35 72  1  0  0  0  0
 35 78  2  0  0  0  0
 36 54  1  0  0  0  0
 36 74  1  0  0  0  0
 36 79  2  0  0  0  0
 37 63  1  0  0  0  0
 37 69  1  0  0  0  0
 37 80  2  0  0  0  0
 38 64  1  0  0  0  0
 38 75  1  0  0  0  0
 38 81  2  0  0  0  0
 39 70  1  0  0  0  0
 39 73  1  0  0  0  0
 39 82  2  0  0  0  0
 40 43  1  0  0  0  0
 41 54  1  0  0  0  0
 42 69  1  0  0  0  0
 43 46  1  0  0  0  0
 44 47  1  0  0  0  0
 44 49  1  0  0  0  0
 45 48  1  0  0  0  0
 45 50  1  0  0  0  0
 46 52  1  0  0  0  0
 47 53  1  0  0  0  0
 48 55  1  0  0  0  0
 49 68  1  0  0  0  0
 50 70  1  0  0  0  0
 51 55  1  0  0  0  0
 51 70  1  0  0  0  0
 52 74  1  0  0  0  0
 53 84  1  0  0  0  0
 54 69  1  0  0  0  0
 55 67  1  0  0  0  0
 57 64  1  0  0  0  0
 58 65  1  0  0  0  0
 59 65  1  0  0  0  0
 60 65  1  0  0  0  0
 61 76  1  0  0  0  0
 62 68  1  0  0  0  0
 63 65  1  0  0  0  0
 63 75  1  0  0  0  0
 64 76  1  0  0  0  0
 66 67  1  0  0  0  0
M  CHG  1  76   1
M  ISO  4  39 100  53 101  73 100  84 101
M  END
> <Batch ID>
0044

> <Smiles>
CNC(C)C(=O)NC(C(=O)N1Cc2cc([101O:1][101CH:1]3CCCN(Cc4ccc([100NH:0][100C:0](=O)N5CCCC(n6nc(-c7ccc(Oc8ccc(F)cc8F)cc7)c(C(N)=O)c6N)C5)cc4C)C3=O)ccc2CC1C(=O)NC1CCCc2ccccc21)C(C)(C)C

> <Shape>
0.250

> <Color>
0.058

> <Negative vol penalty>
0.000

$$$$

  -OEChem-04042322183D

 87 96  0     1  0  0  0  0  0999 V2000
  -21.9493  -37.0756   23.5034 C   0  0  0  0  0  0  0  0  0  0  0  0
  -22.1696  -36.0127   22.6333 C   0  0  0  0  0  0  0  0  0  0  0  0
  -22.9648  -11.0686   22.7697 C   0  0  0  0  0  0  0  0  0  0  0  0
  -24.6080   -9.5062   21.9354 C   0  0  0  0  0  0  0  0  0  0  0  0
  -22.9709  -37.5061   24.3489 C   0  0  0  0  0  0  0  0  0  0  0  0
  -23.4122  -35.3803   22.6075 C   0  0  0  0  0  0  0  0  0  0  0  0
  -24.4972  -29.4345   21.6196 C   0  0  0  0  0  0  0  0  0  0  0  0
  -28.4902  -21.3420   20.3899 C   0  0  0  0  0  0  0  0  0  0  0  0
  -28.6648  -19.9590   20.3404 C   0  0  0  0  0  0  0  0  0  0  0  0
  -22.4444  -10.0771   23.6015 C   0  0  0  0  0  0  0  0  0  0  0  0
  -24.0876   -8.5147   22.7672 C   0  0  0  0  0  0  0  0  0  0  0  0
  -24.8851  -28.7282   20.4818 C   0  0  0  0  0  0  0  0  0  0  0  0
  -21.4395   -6.4128   22.7829 C   0  0  0  0  0  0  0  0  0  0  0  0
  -21.2389   -5.1461   22.2344 C   0  0  0  0  0  0  0  0  0  0  0  0
  -27.1844  -28.8415   21.2027 C   0  0  0  0  0  0  0  0  0  0  0  0
  -22.7612   -4.2028   23.8561 C   0  0  0  0  0  0  0  0  0  0  0  0
  -24.0465  -10.7831   21.9366 C   0  0  0  0  0  0  0  0  0  0  0  0
  -23.9065  -12.5042   20.0589 C   0  0  0  0  0  0  0  0  0  0  0  0
  -24.2235  -36.8725   24.3403 C   0  0  0  0  0  0  0  0  0  0  0  0
  -25.4529  -29.8598   22.5535 C   0  0  0  0  0  0  0  0  0  0  0  0
  -24.4519  -35.8037   23.4527 C   0  0  0  0  0  0  0  0  0  0  0  0
  -26.8058  -29.5508   22.3528 C   0  0  0  0  0  0  0  0  0  0  0  0
  -27.2716  -21.9052   20.0111 C   0  0  0  0  0  0  0  0  0  0  0  0
  -26.2276  -21.0854   19.5825 C   0  0  0  0  0  0  0  0  0  0  0  0
  -26.4022  -19.7024   19.5329 C   0  0  0  0  0  0  0  0  0  0  0  0
  -27.6208  -19.1392   19.9118 C   0  0  0  0  0  0  0  0  0  0  0  0
  -23.0058   -8.8002   23.6002 C   0  0  0  0  0  0  0  0  0  0  0  0
  -26.2292  -28.4341   20.2718 C   0  0  0  0  0  0  0  0  0  0  0  0
  -22.3010   -6.5745   23.8680 C   0  0  0  0  0  0  0  0  0  0  0  0
  -21.8998   -4.0411   22.7710 C   0  0  0  0  0  0  0  0  0  0  0  0
  -22.9618   -5.4695   24.4046 C   0  0  0  0  0  0  0  0  0  0  0  0
  -24.5842  -11.8066   21.0767 C   0  0  0  0  0  0  0  0  0  0  0  0
  -24.8487  -13.3604   19.5435 C   0  0  0  0  0  0  0  0  0  0  0  0
  -26.5101  -25.3476   18.7600 C   0  0  0  0  0  0  0  0  0  0  0  0
  -25.2800  -25.4336   18.2274 C   0  0  0  0  0  0  0  0  0  0  0  0
  -22.5469  -12.3886   19.6187 C   0  0  0  0  0  0  0  0  0  0  0  0
  -26.4228  -32.6840   23.6430 C   0  0  0  0  0  0  0  0  0  0  0  0
  -28.1758  -30.8613   25.6745 C   0  0  0  0  0  0  0  0  0  0  0  0
  -30.1435  -27.8438   25.4740 C   0  0  0  0  0  0  0  0  0  0  0  0
  -28.9757  -17.0373   20.2159 C   0  0  0  0  0  0  0  0  0  0  0  0
  -25.3120  -37.4038   25.2390 C   0  0  0  0  0  0  0  0  0  0  0  0
  -25.0153  -30.5975   23.7891 C   0  0  0  0  0  0  0  0  0  0  0  0
  -27.8686  -29.9671   23.3354 C   0  0  0  0  0  0  0  0  0  0  0  0
  -26.4811  -36.4383   25.4160 C   0  0  0  0  0  0  0  0  0  0  0  0
  -29.8507  -13.5867   20.2854 C   0  0  0  0  0  0  0  0  0  0  0  0
  -29.3745  -25.2305   18.7871 C   0  0  0  0  0  0  0  0  0  0  0  0
  -26.9142  -35.8715   24.0677 C   0  0  0  0  0  0  0  0  0  0  0  0
  -28.6752  -26.5850   18.7607 C   0  0  0  0  0  0  0  0  0  0  0  0
  -28.5028  -12.8733   20.4137 C   0  0  0  0  0  0  0  0  0  0  0  0
  -29.8804  -14.8905   21.0808 C   0  0  0  0  0  0  0  0  0  0  0  0
  -27.4314  -15.1052   20.9214 C   0  0  0  0  0  0  0  0  0  0  0  0
  -28.5292  -24.1539   18.1144 C   0  0  0  0  0  0  0  0  0  0  0  0
  -25.7783  -35.0762   23.4130 C   0  0  1  0  0  0  0  0  0  0  0  0
  -27.2749  -26.5026   19.3666 C   0  0  1  0  0  0  0  0  0  1  0  0
  -26.1308  -31.4287   24.4153 C   0  0  1  0  0  0  0  0  0  0  0  0
  -27.3311  -13.8192   20.0849 C   0  0  2  0  0  0  0  0  0  0  0  0
  -24.9218  -21.6924   19.1769 C   0  0  0  0  0  0  0  0  0  0  0  0
  -25.2804  -18.8245   19.0728 C   0  0  0  0  0  0  0  0  0  0  0  0
  -30.6913  -26.1338   27.2270 C   0  0  0  0  0  0  0  0  0  0  0  0
  -30.7065  -32.5158   26.0844 C   0  0  0  0  0  0  0  0  0  0  0  0
  -31.9678  -30.3778   26.4106 C   0  0  0  0  0  0  0  0  0  0  0  0
  -30.1348  -30.9954   27.9859 C   0  0  0  0  0  0  0  0  0  0  0  0
  -29.0779  -25.6348   23.8177 C   0  0  0  0  0  0  0  0  0  0  0  0
  -27.1105  -23.3955   20.0739 C   0  0  0  0  0  0  0  0  0  0  0  0
  -29.5548  -30.2479   25.6413 C   0  0  1  0  0  0  0  0  0  0  0  0
  -29.7886  -26.4871   26.0553 C   0  0  2  0  0  0  0  0  0  0  0  0
  -30.5762  -31.0388   26.5067 C   0  0  0  0  0  0  0  0  0  0  0  0
  -25.8585  -12.1867   21.2019 N   0  0  0  0  0  0  0  0  0  0  0  0
  -25.9891  -13.1323   20.2560 N   0  0  0  0  0  0  0  0  0  0  0  0
  -27.3914  -30.6917   24.5248 N   0  0  0  0  0  0  0  0  0  0  0  0
  -28.7435  -15.7376   20.7136 N   0  0  0  0  0  0  0  0  0  0  0  0
  -24.8047  -14.2786   18.5548 N   0  0  0  0  0  0  0  0  0  0  0  0
  -22.2502  -11.4737   18.5992 N   0  0  0  0  0  0  0  0  0  0  0  0
  -27.8202  -17.7370   19.8696 N   0  0  0  0  0  0  0  0  0  0  0  0
  -25.6582  -33.7700   24.0244 N   0  0  0  0  0  0  0  0  0  0  0  0
  -29.3908  -28.8531   26.0361 N   0  0  0  0  0  0  0  0  0  0  0  0
  -27.1486  -24.0500   18.7203 N   0  3  1  0  0  0  0  0  0  0  0  0
  -29.9283  -25.4265   25.0178 N   0  3  0  0  0  0  0  0  0  0  0  0
  -21.6252  -13.0880   20.1033 O   0  0  0  0  0  0  0  0  0  0  0  0
  -27.2796  -32.6689   22.7669 O   0  0  0  0  0  0  0  0  0  0  0  0
  -27.8055  -31.4624   26.6861 O   0  0  0  0  0  0  0  0  0  0  0  0
  -31.0051  -27.9937   24.6105 O   0  0  0  0  0  0  0  0  0  0  0  0
  -30.1169  -17.4856   20.0794 O   0  0  0  0  0  0  0  0  0  0  0  0
  -22.4985   -7.8326   24.4119 O   0  0  0  0  0  0  0  0  0  0  0  0
  -26.6105  -27.7454   19.1618 O   0  0  0  0  0  0  0  0  0  1  0  0
  -21.7059   -2.8245   22.2451 F   0  0  0  0  0  0  0  0  0  0  0  0
  -23.7897   -5.6185   25.4478 F   0  0  0  0  0  0  0  0  0  0  0  0
  1  2  1  0  0  0  0
  1  5  2  0  0  0  0
  2  6  2  0  0  0  0
  3 10  2  0  0  0  0
  3 17  1  0  0  0  0
  4 11  1  0  0  0  0
  4 17  2  0  0  0  0
  5 19  1  0  0  0  0
  6 21  1  0  0  0  0
  7 12  2  0  0  0  0
  7 20  1  0  0  0  0
  8  9  2  0  0  0  0
  8 23  1  0  0  0  0
  9 26  1  0  0  0  0
 10 27  1  0  0  0  0
 11 27  2  0  0  0  0
 12 28  1  0  0  0  0
 13 14  2  0  0  0  0
 13 29  1  0  0  0  0
 14 30  1  0  0  0  0
 15 22  1  0  0  0  0
 15 28  2  0  0  0  0
 16 30  2  0  0  0  0
 16 31  1  0  0  0  0
 17 32  1  0  0  0  0
 18 32  1  0  0  0  0
 18 33  2  0  0  0  0
 18 36  1  0  0  0  0
 19 21  2  0  0  0  0
 19 41  1  0  0  0  0
 20 22  2  0  0  0  0
 20 42  1  0  0  0  0
 21 53  1  0  0  0  0
 22 43  1  0  0  0  0
 23 24  2  0  0  0  0
 23 64  1  0  0  0  0
 24 25  1  0  0  0  0
 24 57  1  0  0  0  0
 25 26  2  0  0  0  0
 25 58  1  0  0  0  0
 26 74  1  0  0  0  0
 27 84  1  0  0  0  0
 28 85  1  0  0  0  0
 29 31  2  0  0  0  0
 29 84  1  0  0  0  0
 30 86  1  0  0  0  0
 31 87  1  0  0  0  0
 32 68  2  0  0  0  0
 33 69  1  0  0  0  0
 33 72  1  0  0  0  0
 34 35  2  0  0  0  0
 34 54  1  0  0  0  0
 34 77  1  0  0  0  0
 36 73  1  0  0  0  0
 36 79  2  0  0  0  0
 37 55  1  0  0  0  0
 37 75  1  0  0  0  0
 37 80  2  0  0  0  0
 38 65  1  0  0  0  0
 38 70  1  0  0  0  0
 38 81  2  0  0  0  0
 39 66  1  0  0  0  0
 39 76  1  0  0  0  0
 39 82  2  0  0  0  0
 40 71  1  0  0  0  0
 40 74  1  0  0  0  0
 40 83  2  0  0  0  0
 41 44  1  0  0  0  0
 42 55  1  0  0  0  0
 43 70  1  0  0  0  0
 44 47  1  0  0  0  0
 45 49  1  0  0  0  0
 45 50  1  0  0  0  0
 46 48  1  0  0  0  0
 46 52  1  0  0  0  0
 47 53  1  0  0  0  0
 48 54  1  0  0  0  0
 49 56  1  0  0  0  0
 50 71  1  0  0  0  0
 51 56  1  0  0  0  0
 51 71  1  0  0  0  0
 52 77  1  0  0  0  0
 53 75  1  0  0  0  0
 54 85  1  0  0  0  0
 55 70  1  0  0  0  0
 56 69  1  0  0  0  0
 59 66  1  0  0  0  0
 60 67  1  0  0  0  0
 61 67  1  0  0  0  0
 62 67  1  0  0  0  0
 63 78  1  0  0  0  0
 64 77  1  0  0  0  0
 65 67  1  0  0  0  0
 65 76  1  0  0  0  0
 66 78  1  0  0  0  0
 68 69  1  0  0  0  0
M  CHG  2  77   1  78   1
M  ISO  4  40 100  54 101  74 100  85 101
M  END
> <Batch ID>
0044

> <Smiles>
C=C1N(Cc2ccc([100NH:0][100C:0](=O)N3CCCC(n4nc(-c5ccc(Oc6ccc(F)cc6F)cc5)c(C(N)=O)c4N)C3)c(C)c2C)CCC[101CH:1]1[101O:1]c1ccc2c(c1)CN(C(=O)C(NC(=O)C(C)NC)C(C)(C)C)C(C(=O)NC1CCCc3ccccc31)C2

> <Shape>
0.317

> <Color>
0.082

> <Negative vol penalty>
0.000

$$$$

  -OEChem-04042322183D

 87 95  0     1  0  0  0  0  0999 V2000
  -22.3846  -25.2310   26.4415 C   0  0  0  0  0  0  0  0  0  0  0  0
  -26.0138  -11.5908   21.0619 C   0  0  0  0  0  0  0  0  0  0  0  0
  -26.6854  -12.7548   20.7019 C   0  0  0  0  0  0  0  0  0  0  0  0
  -28.1571  -24.9740   18.1272 C   0  0  0  0  0  0  0  0  0  0  0  0
  -26.6534  -23.7991   19.6088 C   0  0  0  0  0  0  0  0  0  0  0  0
  -24.6223  -11.5403   20.9918 C   0  0  0  0  0  0  0  0  0  0  0  0
  -25.9659  -13.8686   20.2706 C   0  0  0  0  0  0  0  0  0  0  0  0
  -26.4820  -20.1767   23.7106 C   0  0  0  0  0  0  0  0  0  0  0  0
  -18.8153  -26.4379   23.4676 C   0  0  0  0  0  0  0  0  0  0  0  0
  -29.0815  -23.9358   18.2421 C   0  0  0  0  0  0  0  0  0  0  0  0
  -27.5777  -22.7608   19.7237 C   0  0  0  0  0  0  0  0  0  0  0  0
  -26.6886  -21.4714   24.1872 C   0  0  0  0  0  0  0  0  0  0  0  0
  -28.5712  -20.0987   17.8942 C   0  0  0  0  0  0  0  0  0  0  0  0
  -28.0919  -18.7925   17.7960 C   0  0  0  0  0  0  0  0  0  0  0  0
  -17.8001  -26.5933   22.5238 C   0  0  0  0  0  0  0  0  0  0  0  0
  -25.0264  -22.3152   22.6467 C   0  0  0  0  0  0  0  0  0  0  0  0
  -18.5920  -28.8239   22.0394 C   0  0  0  0  0  0  0  0  0  0  0  0
  -28.9080  -18.3256   20.0215 C   0  0  0  0  0  0  0  0  0  0  0  0
  -26.9431  -24.9057   18.8106 C   0  0  0  0  0  0  0  0  0  0  0  0
  -24.9571  -26.0976   17.7416 C   0  0  0  0  0  0  0  0  0  0  0  0
  -23.8847  -12.6573   20.5686 C   0  0  0  0  0  0  0  0  0  0  0  0
  -25.5347  -19.9438   22.7097 C   0  0  0  0  0  0  0  0  0  0  0  0
  -24.5632  -13.8325   20.1935 C   0  0  0  0  0  0  0  0  0  0  0  0
  -24.8063  -21.0187   22.1740 C   0  0  0  0  0  0  0  0  0  0  0  0
  -19.7188  -27.4756   23.6975 C   0  0  0  0  0  0  0  0  0  0  0  0
  -19.6071  -28.6685   22.9833 C   0  0  0  0  0  0  0  0  0  0  0  0
  -28.7918  -22.8292   19.0403 C   0  0  0  0  0  0  0  0  0  0  0  0
  -25.9627  -22.5380   23.6564 C   0  0  0  0  0  0  0  0  0  0  0  0
  -29.2190  -20.5184   19.0561 C   0  0  0  0  0  0  0  0  0  0  0  0
  -28.2603  -17.9060   18.8596 C   0  0  0  0  0  0  0  0  0  0  0  0
  -29.3873  -19.6319   20.1197 C   0  0  0  0  0  0  0  0  0  0  0  0
  -17.6885  -27.7863   21.8096 C   0  0  0  0  0  0  0  0  0  0  0  0
  -25.9880  -25.9781   18.6928 C   0  0  0  0  0  0  0  0  0  0  0  0
  -24.3375  -27.2829   18.0540 C   0  0  0  0  0  0  0  0  0  0  0  0
  -22.0845  -24.4769   27.4550 C   0  0  0  0  0  0  0  0  0  0  0  0
  -22.6828  -25.9878   25.4223 C   0  0  0  0  0  0  0  0  0  0  0  0
  -24.5922  -25.2161   16.6714 C   0  0  0  0  0  0  0  0  0  0  0  0
  -23.8192  -17.4383   20.5062 C   0  0  0  0  0  0  0  0  0  0  0  0
  -21.6726  -19.4205   21.4408 C   0  0  0  0  0  0  0  0  0  0  0  0
  -19.5443  -21.5628   23.0277 C   0  0  0  0  0  0  0  0  0  0  0  0
  -22.8770  -30.4874   22.6489 C   0  0  0  0  0  0  0  0  0  0  0  0
  -22.3847  -12.5395   20.4641 C   0  0  0  0  0  0  0  0  0  0  0  0
  -25.3230  -18.5746   22.1230 C   0  0  0  0  0  0  0  0  0  0  0  0
  -23.8225  -20.7258   21.0743 C   0  0  0  0  0  0  0  0  0  0  0  0
  -21.6742  -13.8861   20.3542 C   0  0  0  0  0  0  0  0  0  0  0  0
  -25.6372  -31.3375   20.5667 C   0  0  0  0  0  0  0  0  0  0  0  0
  -22.3702  -14.7747   19.3281 C   0  0  0  0  0  0  0  0  0  0  0  0
  -25.9132  -30.0532   19.7828 C   0  0  0  0  0  0  0  0  0  0  0  0
  -25.2028  -31.0412   22.0004 C   0  0  0  0  0  0  0  0  0  0  0  0
  -24.3380  -28.8302   21.3390 C   0  0  0  0  0  0  0  0  0  0  0  0
  -23.8164  -15.0697   19.7443 C   0  0  1  0  0  0  0  0  0  0  0  0
  -23.8593  -18.3064   21.7295 C   0  0  1  0  0  0  0  0  0  0  0  0
  -24.7252  -29.0764   19.8708 C   0  0  2  0  0  0  0  0  0  0  0  0
  -17.1136  -22.1651   23.1890 C   0  0  0  0  0  0  0  0  0  0  0  0
  -21.8520  -20.8495   18.7520 C   0  0  0  0  0  0  0  0  0  0  0  0
  -19.8268  -22.1714   19.3996 C   0  0  0  0  0  0  0  0  0  0  0  0
  -19.6761  -19.6915   19.1752 C   0  0  0  0  0  0  0  0  0  0  0  0
  -19.4519  -20.8992   25.9104 C   0  0  0  0  0  0  0  0  0  0  0  0
  -20.5620  -29.7938   23.2135 C   0  0  0  0  0  0  0  0  0  0  0  0
  -20.8019  -27.2859   24.7182 C   0  0  0  0  0  0  0  0  0  0  0  0
  -24.0131  -26.6731   25.2557 C   0  0  0  0  0  0  0  0  0  0  0  0
  -25.1685  -25.6721   25.2499 C   0  0  0  0  0  0  0  0  0  0  0  0
  -25.0553  -24.6937   24.0889 C   0  0  0  0  0  0  0  0  0  1  0  0
  -20.9054  -20.6852   21.1485 C   0  0  1  0  0  0  0  0  0  0  0  0
  -18.2406  -21.3239   23.7677 C   0  0  2  0  0  0  0  0  0  0  0  0
  -20.5883  -20.8495   19.6352 C   0  0  0  0  0  0  0  0  0  0  0  0
  -26.0246  -27.0055   19.5454 N   0  0  0  0  0  0  0  0  0  0  0  0
  -25.0090  -27.7820   19.1311 N   0  0  0  0  0  0  0  0  0  0  0  0
  -23.0694  -19.5012   21.3870 N   0  0  0  0  0  0  0  0  0  0  0  0
  -24.0717  -30.1103   22.0137 N   0  0  0  0  0  0  0  0  0  0  0  0
  -23.2892  -27.9366   17.5096 N   0  0  0  0  0  0  0  0  0  0  0  0
  -25.3342  -24.0408   16.4914 N   0  0  0  0  0  0  0  0  0  0  0  0
  -23.8484  -16.0835   20.7766 N   0  0  0  0  0  0  0  0  0  0  0  0
  -19.7257  -20.6545   22.0063 N   0  0  0  0  0  0  0  0  0  0  0  0
  -21.8529  -29.5491   22.6098 N   0  0  0  0  0  0  0  0  0  0  0  0
  -21.7030  -26.1480   24.4057 N   0  3  0  0  0  0  0  0  0  0  0  0
  -18.3924  -21.6694   25.2094 N   0  3  0  0  0  0  0  0  0  0  0  0
  -23.6467  -25.4713   15.8875 O   0  0  0  0  0  0  0  0  0  0  0  0
  -23.7641  -17.9582   19.3979 O   0  0  0  0  0  0  0  0  0  0  0  0
  -21.0526  -18.3863   21.7044 O   0  0  0  0  0  0  0  0  0  0  0  0
  -20.3221  -22.4673   23.3236 O   0  0  0  0  0  0  0  0  0  0  0  0
  -22.7318  -31.5814   23.2047 O   0  0  0  0  0  0  0  0  0  0  0  0
  -29.6935  -21.8158   19.1524 O   0  0  0  0  0  0  0  0  0  0  0  0
  -26.1661  -23.7988   24.1295 O   0  0  0  0  0  0  0  0  0  1  0  0
  -27.7986  -16.6521   18.7657 F   0  0  0  0  0  0  0  0  0  0  0  0
  -30.0078  -20.0297   21.2390 F   0  0  0  0  0  0  0  0  0  0  0  0
  -16.4350  -27.9782   20.6467 Cl  0  0  0  0  0  0  0  0  0  0  0  0
  1 35  2  0  0  0  0
  1 36  2  0  0  0  0
  2  3  1  0  0  0  0
  2  6  2  0  0  0  0
  3  7  2  0  0  0  0
  4 10  2  0  0  0  0
  4 19  1  0  0  0  0
  5 11  1  0  0  0  0
  5 19  2  0  0  0  0
  6 21  1  0  0  0  0
  7 23  1  0  0  0  0
  8 12  2  0  0  0  0
  8 22  1  0  0  0  0
  9 15  2  0  0  0  0
  9 25  1  0  0  0  0
 10 27  1  0  0  0  0
 11 27  2  0  0  0  0
 12 28  1  0  0  0  0
 13 14  2  0  0  0  0
 13 29  1  0  0  0  0
 14 30  1  0  0  0  0
 15 32  1  0  0  0  0
 16 24  1  0  0  0  0
 16 28  2  0  0  0  0
 17 26  1  0  0  0  0
 17 32  2  0  0  0  0
 18 30  2  0  0  0  0
 18 31  1  0  0  0  0
 19 33  1  0  0  0  0
 20 33  1  0  0  0  0
 20 34  2  0  0  0  0
 20 37  1  0  0  0  0
 21 23  2  0  0  0  0
 21 42  1  0  0  0  0
 22 24  2  0  0  0  0
 22 43  1  0  0  0  0
 23 51  1  0  0  0  0
 24 44  1  0  0  0  0
 25 26  2  0  0  0  0
 25 60  1  0  0  0  0
 26 59  1  0  0  0  0
 27 83  1  0  0  0  0
 28 84  1  0  0  0  0
 29 31  2  0  0  0  0
 29 83  1  0  0  0  0
 30 85  1  0  0  0  0
 31 86  1  0  0  0  0
 32 87  1  0  0  0  0
 33 67  2  0  0  0  0
 34 68  1  0  0  0  0
 34 71  1  0  0  0  0
 36 61  1  0  0  0  0
 36 76  1  0  0  0  0
 37 72  1  0  0  0  0
 37 78  2  0  0  0  0
 38 52  1  0  0  0  0
 38 73  1  0  0  0  0
 38 79  2  0  0  0  0
 39 64  1  0  0  0  0
 39 69  1  0  0  0  0
 39 80  2  0  0  0  0
 40 65  1  0  0  0  0
 40 74  1  0  0  0  0
 40 81  2  0  0  0  0
 41 70  1  0  0  0  0
 41 75  1  0  0  0  0
 41 82  2  0  0  0  0
 42 45  1  0  0  0  0
 43 52  1  0  0  0  0
 44 69  1  0  0  0  0
 45 47  1  0  0  0  0
 46 48  1  0  0  0  0
 46 49  1  0  0  0  0
 47 51  1  0  0  0  0
 48 53  1  0  0  0  0
 49 70  1  0  0  0  0
 50 53  1  0  0  0  0
 50 70  1  0  0  0  0
 51 73  1  0  0  0  0
 52 69  1  0  0  0  0
 53 68  1  0  0  0  0
 54 65  1  0  0  0  0
 55 66  1  0  0  0  0
 56 66  1  0  0  0  0
 57 66  1  0  0  0  0
 58 77  1  0  0  0  0
 59 75  1  0  0  0  0
 60 76  1  0  0  0  0
 61 62  1  0  0  0  0
 62 63  1  0  0  0  0
 63 84  1  0  0  0  0
 64 66  1  0  0  0  0
 64 74  1  0  0  0  0
 65 77  1  0  0  0  0
 67 68  1  0  0  0  0
M  CHG  2  76   1  77   1
M  ISO  4  41 100  63 101  75 100  84 101
M  END
> <Batch ID>
0044

> <Smiles>
C=C=C(CC[101CH2:1][101O:1]c1ccc2c(c1)CN(C(=O)C(NC(=O)C(C)NC)C(C)(C)C)C(C(=O)NC1CCCc3ccccc31)C2)NCc1ccc(Cl)cc1C[100NH:0][100C:0](=O)N1CCCC(n2nc(-c3ccc(Oc4ccc(F)cc4F)cc3)c(C(N)=O)c2N)C1

> <Shape>
0.201

> <Color>
0.073

> <Negative vol penalty>
0.000

$$$$

  -OEChem-04042322183D

 87 96  0     1  0  0  0  0  0999 V2000
  -16.5321  -29.8995   22.8467 C   0  0  0  0  0  0  0  0  0  0  0  0
  -17.5171  -30.7362   23.3618 C   0  0  0  0  0  0  0  0  0  0  0  0
  -27.1347  -15.9297   22.9281 C   0  0  0  0  0  0  0  0  0  0  0  0
  -24.8335  -16.5190   22.4876 C   0  0  0  0  0  0  0  0  0  0  0  0
  -16.8518  -28.5939   22.4763 C   0  0  0  0  0  0  0  0  0  0  0  0
  -18.8222  -30.2673   23.5077 C   0  0  0  0  0  0  0  0  0  0  0  0
  -25.6223  -32.5011   23.2157 C   0  0  0  0  0  0  0  0  0  0  0  0
  -27.0311  -14.8600   22.0389 C   0  0  0  0  0  0  0  0  0  0  0  0
  -24.7298  -15.4493   21.5983 C   0  0  0  0  0  0  0  0  0  0  0  0
  -26.7932  -32.4894   23.9724 C   0  0  0  0  0  0  0  0  0  0  0  0
  -25.7587  -11.7287   22.0476 C   0  0  0  0  0  0  0  0  0  0  0  0
  -26.2839  -10.5003   22.4486 C   0  0  0  0  0  0  0  0  0  0  0  0
  -27.2466  -30.2410   23.2252 C   0  0  0  0  0  0  0  0  0  0  0  0
  -31.6464  -24.5031   28.1451 C   0  0  0  0  0  0  0  0  0  0  0  0
  -30.1259  -25.8161   26.2095 C   0  0  0  0  0  0  0  0  0  0  0  0
  -27.7898  -10.5274   20.5596 C   0  0  0  0  0  0  0  0  0  0  0  0
  -26.0359  -16.7591   23.1525 C   0  0  0  0  0  0  0  0  0  0  0  0
  -26.4520  -17.8018   25.4432 C   0  0  0  0  0  0  0  0  0  0  0  0
  -18.1635  -28.1119   22.6088 C   0  0  0  0  0  0  0  0  0  0  0  0
  -25.2485  -31.3769   22.4654 C   0  0  0  0  0  0  0  0  0  0  0  0
  -19.1594  -28.9536   23.1400 C   0  0  0  0  0  0  0  0  0  0  0  0
  -26.0718  -30.2419   22.4578 C   0  0  0  0  0  0  0  0  0  0  0  0
  -32.0249  -25.7705   27.7025 C   0  0  0  0  0  0  0  0  0  0  0  0
  -30.5077  -23.8921   27.6199 C   0  0  0  0  0  0  0  0  0  0  0  0
  -31.2646  -26.4270   26.7347 C   0  0  0  0  0  0  0  0  0  0  0  0
  -29.7475  -24.5486   26.6521 C   0  0  0  0  0  0  0  0  0  0  0  0
  -25.8286  -14.6199   21.3740 C   0  0  0  0  0  0  0  0  0  0  0  0
  -27.6041  -31.3583   23.9795 C   0  0  0  0  0  0  0  0  0  0  0  0
  -26.2491  -12.3564   20.9025 C   0  0  0  0  0  0  0  0  0  0  0  0
  -27.2994   -9.8996   21.7046 C   0  0  0  0  0  0  0  0  0  0  0  0
  -27.2647  -11.7558   20.1585 C   0  0  0  0  0  0  0  0  0  0  0  0
  -26.1421  -17.8639   24.0714 C   0  0  0  0  0  0  0  0  0  0  0  0
  -26.4290  -19.1103   25.8600 C   0  0  0  0  0  0  0  0  0  0  0  0
  -30.0071  -29.4195   25.3977 C   0  0  0  0  0  0  0  0  0  0  0  0
  -26.7355  -16.6631   26.2671 C   0  0  0  0  0  0  0  0  0  0  0  0
  -22.7713  -29.3853   22.4912 C   0  0  0  0  0  0  0  0  0  0  0  0
  -24.1899  -28.2059   19.8231 C   0  0  0  0  0  0  0  0  0  0  0  0
  -27.5474  -27.4461   18.7426 C   0  0  0  0  0  0  0  0  0  0  0  0
  -27.7339  -24.4752   25.1401 C   0  0  0  0  0  0  0  0  0  0  0  0
  -18.4509  -26.6782   22.2391 C   0  0  0  0  0  0  0  0  0  0  0  0
  -23.9961  -31.4150   21.6333 C   0  0  0  0  0  0  0  0  0  0  0  0
  -25.7257  -29.0165   21.6533 C   0  0  0  0  0  0  0  0  0  0  0  0
  -19.9386  -26.3778   22.0756 C   0  0  0  0  0  0  0  0  0  0  0  0
  -29.1806  -30.0026   28.1479 C   0  0  0  0  0  0  0  0  0  0  0  0
  -24.7993  -23.2874   23.5108 C   0  0  0  0  0  0  0  0  0  0  0  0
  -20.7325  -26.9633   23.2391 C   0  0  0  0  0  0  0  0  0  0  0  0
  -28.9951  -31.0483   27.0684 C   0  0  0  0  0  0  0  0  0  0  0  0
  -24.9126  -21.7654   23.6243 C   0  0  0  0  0  0  0  0  0  0  0  0
  -30.4414  -29.2029   27.8728 C   0  0  0  0  0  0  0  0  0  0  0  0
  -26.1617  -23.9426   23.2909 C   0  0  0  0  0  0  0  0  0  0  0  0
  -27.3055  -22.0543   24.3842 C   0  0  0  0  0  0  0  0  0  0  0  0
  -20.5919  -28.4894   23.2903 C   0  0  1  0  0  0  0  0  0  0  0  0
  -28.8507  -30.3546   25.7281 C   0  0  1  0  0  0  0  0  0  1  0  0
  -23.4486  -30.0275   21.3137 C   0  0  1  0  0  0  0  0  0  0  0  0
  -25.9666  -21.3552   24.6713 C   0  0  2  0  0  0  0  0  0  0  0  0
  -33.2480  -26.4046   28.2789 C   0  0  0  0  0  0  0  0  0  0  0  0
  -30.1258  -22.5340   28.1126 C   0  0  0  0  0  0  0  0  0  0  0  0
  -28.5439  -27.3759   16.4405 C   0  0  0  0  0  0  0  0  0  0  0  0
  -23.5262  -25.2301   19.9411 C   0  0  0  0  0  0  0  0  0  0  0  0
  -25.6811  -24.7734   18.7512 C   0  0  0  0  0  0  0  0  0  0  0  0
  -23.9046  -26.1239   17.6363 C   0  0  0  0  0  0  0  0  0  0  0  0
  -29.6784  -29.3626   19.4806 C   0  0  0  0  0  0  0  0  0  0  0  0
  -31.6526  -27.7915   26.2428 C   0  0  0  0  0  0  0  0  0  0  0  0
  -25.2195  -27.1380   19.5428 C   0  0  1  0  0  0  0  0  0  0  0  0
  -28.3608  -28.1996   17.7058 C   0  0  2  0  0  0  0  0  0  0  0  0
  -24.5826  -25.8307   18.9924 C   0  0  0  0  0  0  0  0  0  0  0  0
  -25.9371  -19.1130   23.6451 N   0  0  0  0  0  0  0  0  0  0  0  0
  -26.1185  -19.8479   24.7555 N   0  0  0  0  0  0  0  0  0  0  0  0
  -30.6054  -28.7755   26.4824 N   0  0  0  0  0  0  0  0  0  0  0  0
  -24.4877  -29.1003   20.8609 N   0  0  0  0  0  0  0  0  0  0  0  0
  -27.1074  -23.5110   24.3225 N   0  0  0  0  0  0  0  0  0  0  0  0
  -26.6443  -19.6905   27.0598 N   0  0  0  0  0  0  0  0  0  0  0  0
  -26.7172  -15.3914   25.6784 N   0  0  0  0  0  0  0  0  0  0  0  0
  -28.5875  -23.9447   26.1067 N   0  0  0  0  0  0  0  0  0  0  0  0
  -21.4328  -29.1084   22.2882 N   0  0  0  0  0  0  0  0  0  0  0  0
  -26.2040  -27.7437   18.6528 N   0  0  0  0  0  0  0  0  0  0  0  0
  -29.7081  -28.5344   18.2477 N   0  3  0  0  0  0  0  0  0  0  0  0
  -30.3196  -29.2206   24.2208 O   0  0  0  0  0  0  0  0  0  0  0  0
  -26.9810  -16.7689   27.4927 O   0  0  0  0  0  0  0  0  0  0  0  0
  -23.4157  -29.1566   23.5081 O   0  0  0  0  0  0  0  0  0  0  0  0
  -23.1627  -28.2494   19.1415 O   0  0  0  0  0  0  0  0  0  0  0  0
  -28.0526  -26.6682   19.5489 O   0  0  0  0  0  0  0  0  0  0  0  0
  -27.5074  -25.6811   25.0113 O   0  0  0  0  0  0  0  0  0  0  0  0
  -25.7272  -13.5763   20.5060 O   0  0  0  0  0  0  0  0  0  0  0  0
  -28.7472  -31.3441   24.7177 O   0  0  0  0  0  0  0  0  0  1  0  0
  -27.8047   -8.7207   22.0907 F   0  0  0  0  0  0  0  0  0  0  0  0
  -27.7406  -12.3546   19.0582 F   0  0  0  0  0  0  0  0  0  0  0  0
  1  2  1  0  0  0  0
  1  5  2  0  0  0  0
  2  6  2  0  0  0  0
  3  8  2  0  0  0  0
  3 17  1  0  0  0  0
  4  9  1  0  0  0  0
  4 17  2  0  0  0  0
  5 19  1  0  0  0  0
  6 21  1  0  0  0  0
  7 10  2  0  0  0  0
  7 20  1  0  0  0  0
  8 27  1  0  0  0  0
  9 27  2  0  0  0  0
 10 28  1  0  0  0  0
 11 12  2  0  0  0  0
 11 29  1  0  0  0  0
 12 30  1  0  0  0  0
 13 22  1  0  0  0  0
 13 28  2  0  0  0  0
 14 23  1  0  0  0  0
 14 24  2  0  0  0  0
 15 25  1  0  0  0  0
 15 26  2  0  0  0  0
 16 30  2  0  0  0  0
 16 31  1  0  0  0  0
 17 32  1  0  0  0  0
 18 32  1  0  0  0  0
 18 33  2  0  0  0  0
 18 35  1  0  0  0  0
 19 21  2  0  0  0  0
 19 40  1  0  0  0  0
 20 22  2  0  0  0  0
 20 41  1  0  0  0  0
 21 52  1  0  0  0  0
 22 42  1  0  0  0  0
 23 25  2  0  0  0  0
 23 56  1  0  0  0  0
 24 26  1  0  0  0  0
 24 57  1  0  0  0  0
 25 63  1  0  0  0  0
 26 74  1  0  0  0  0
 27 84  1  0  0  0  0
 28 85  1  0  0  0  0
 29 31  2  0  0  0  0
 29 84  1  0  0  0  0
 30 86  1  0  0  0  0
 31 87  1  0  0  0  0
 32 67  2  0  0  0  0
 33 68  1  0  0  0  0
 33 72  1  0  0  0  0
 34 53  1  0  0  0  0
 34 69  1  0  0  0  0
 34 78  2  0  0  0  0
 35 73  1  0  0  0  0
 35 79  2  0  0  0  0
 36 54  1  0  0  0  0
 36 75  1  0  0  0  0
 36 80  2  0  0  0  0
 37 64  1  0  0  0  0
 37 70  1  0  0  0  0
 37 81  2  0  0  0  0
 38 65  1  0  0  0  0
 38 76  1  0  0  0  0
 38 82  2  0  0  0  0
 39 71  1  0  0  0  0
 39 74  1  0  0  0  0
 39 83  2  0  0  0  0
 40 43  1  0  0  0  0
 41 54  1  0  0  0  0
 42 70  1  0  0  0  0
 43 46  1  0  0  0  0
 44 47  1  0  0  0  0
 44 49  1  0  0  0  0
 45 48  1  0  0  0  0
 45 50  1  0  0  0  0
 46 52  1  0  0  0  0
 47 53  1  0  0  0  0
 48 55  1  0  0  0  0
 49 69  1  0  0  0  0
 50 71  1  0  0  0  0
 51 55  1  0  0  0  0
 51 71  1  0  0  0  0
 52 75  1  0  0  0  0
 53 85  1  0  0  0  0
 54 70  1  0  0  0  0
 55 68  1  0  0  0  0
 58 65  1  0  0  0  0
 59 66  1  0  0  0  0
 60 66  1  0  0  0  0
 61 66  1  0  0  0  0
 62 77  1  0  0  0  0
 63 69  1  0  0  0  0
 64 66  1  0  0  0  0
 64 76  1  0  0  0  0
 65 77  1  0  0  0  0
 67 68  1  0  0  0  0
M  CHG  1  77   1
M  ISO  4  39 100  53 101  74 100  85 101
M  END
> <Batch ID>
0044

> <Smiles>
CNC(C)C(=O)NC(C(=O)N1Cc2cc([101O:1][101CH:1]3CCCN(Cc4cc([100NH:0][100C:0](=O)N5CCCC(n6nc(-c7ccc(Oc8ccc(F)cc8F)cc7)c(C(N)=O)c6N)C5)c(C)cc4C)C3=O)ccc2CC1C(=O)NC1CCCc2ccccc21)C(C)(C)C

> <Shape>
0.205

> <Color>
0.097

> <Negative vol penalty>
0.000

$$$$

  -OEChem-04042322183D

 87 96  0     1  0  0  0  0  0999 V2000
  -18.2609  -33.1379   23.6722 C   0  0  0  0  0  0  0  0  0  0  0  0
  -19.5492  -33.2901   23.1697 C   0  0  0  0  0  0  0  0  0  0  0  0
  -23.4616  -12.1731   20.2408 C   0  0  0  0  0  0  0  0  0  0  0  0
  -25.7736  -12.1917   20.9417 C   0  0  0  0  0  0  0  0  0  0  0  0
  -17.8724  -31.9227   24.2346 C   0  0  0  0  0  0  0  0  0  0  0  0
  -20.4502  -32.2276   23.2305 C   0  0  0  0  0  0  0  0  0  0  0  0
  -25.9177  -29.3308   19.6205 C   0  0  0  0  0  0  0  0  0  0  0  0
  -23.5055  -10.7831   20.1329 C   0  0  0  0  0  0  0  0  0  0  0  0
  -25.8175  -10.8017   20.8339 C   0  0  0  0  0  0  0  0  0  0  0  0
  -27.2327  -28.9095   19.8129 C   0  0  0  0  0  0  0  0  0  0  0  0
  -23.3657   -8.1179   22.2088 C   0  0  0  0  0  0  0  0  0  0  0  0
  -22.2994   -7.3925   22.7402 C   0  0  0  0  0  0  0  0  0  0  0  0
  -26.4258  -26.8316   20.7350 C   0  0  0  0  0  0  0  0  0  0  0  0
  -29.0103  -22.0877   22.5541 C   0  0  0  0  0  0  0  0  0  0  0  0
  -21.8360   -6.4728   20.5547 C   0  0  0  0  0  0  0  0  0  0  0  0
  -27.7717  -22.2175   25.0504 C   0  0  0  0  0  0  0  0  0  0  0  0
  -24.5957  -12.8774   20.6452 C   0  0  0  0  0  0  0  0  0  0  0  0
  -23.7075  -15.0760   21.5859 C   0  0  0  0  0  0  0  0  0  0  0  0
  -18.7660  -30.8416   24.2935 C   0  0  0  0  0  0  0  0  0  0  0  0
  -24.8450  -28.5087   19.9946 C   0  0  0  0  0  0  0  0  0  0  0  0
  -20.0737  -30.9973   23.7954 C   0  0  0  0  0  0  0  0  0  0  0  0
  -25.0981  -27.2437   20.5439 C   0  0  0  0  0  0  0  0  0  0  0  0
  -29.5264  -22.9214   23.5462 C   0  0  0  0  0  0  0  0  0  0  0  0
  -27.8748  -21.3190   22.8101 C   0  0  0  0  0  0  0  0  0  0  0  0
  -24.6834  -10.0974   20.4294 C   0  0  0  0  0  0  0  0  0  0  0  0
  -27.4869  -27.6610   20.3729 C   0  0  0  0  0  0  0  0  0  0  0  0
  -23.6671   -8.0208   20.8504 C   0  0  0  0  0  0  0  0  0  0  0  0
  -21.5346   -6.5699   21.9132 C   0  0  0  0  0  0  0  0  0  0  0  0
  -22.9023   -7.1983   20.0233 C   0  0  0  0  0  0  0  0  0  0  0  0
  -28.9071  -22.9863   24.7943 C   0  0  0  0  0  0  0  0  0  0  0  0
  -27.2555  -21.3839   24.0583 C   0  0  0  0  0  0  0  0  0  0  0  0
  -24.5512  -14.3133   20.7563 C   0  0  0  0  0  0  0  0  0  0  0  0
  -24.0540  -16.3788   21.3233 C   0  0  0  0  0  0  0  0  0  0  0  0
  -29.5230  -25.4783   21.9961 C   0  0  0  0  0  0  0  0  0  0  0  0
  -22.7005  -14.6453   22.5112 C   0  0  0  0  0  0  0  0  0  0  0  0
  -22.4471  -28.7542   22.0667 C   0  0  0  0  0  0  0  0  0  0  0  0
  -21.4943  -25.9718   20.6981 C   0  0  0  0  0  0  0  0  0  0  0  0
  -23.0567  -22.9214   19.5705 C   0  0  0  0  0  0  0  0  0  0  0  0
  -27.8934  -20.3256   20.4951 C   0  0  0  0  0  0  0  0  0  0  0  0
  -18.3155  -29.5626   24.9536 C   0  0  0  0  0  0  0  0  0  0  0  0
  -23.4323  -28.9667   19.7558 C   0  0  0  0  0  0  0  0  0  0  0  0
  -23.9818  -26.3149   20.9437 C   0  0  0  0  0  0  0  0  0  0  0  0
  -19.2116  -28.3671   24.6403 C   0  0  0  0  0  0  0  0  0  0  0  0
  -30.7781  -27.5327   23.6670 C   0  0  0  0  0  0  0  0  0  0  0  0
  -26.9758  -18.3408   17.6851 C   0  0  0  0  0  0  0  0  0  0  0  0
  -20.6809  -28.7453   24.7984 C   0  0  0  0  0  0  0  0  0  0  0  0
  -30.2989  -27.8844   22.2741 C   0  0  0  0  0  0  0  0  0  0  0  0
  -26.1938  -17.1788   18.3019 C   0  0  0  0  0  0  0  0  0  0  0  0
  -31.2889  -26.1031   23.6853 C   0  0  0  0  0  0  0  0  0  0  0  0
  -28.1428  -18.7727   18.5713 C   0  0  0  0  0  0  0  0  0  0  0  0
  -27.0045  -17.9134   20.5800 C   0  0  0  0  0  0  0  0  0  0  0  0
  -21.0719  -29.8601   23.8207 C   0  0  1  0  0  0  0  0  0  0  0  0
  -29.1635  -26.9551   21.8928 C   0  0  1  0  0  0  0  0  0  1  0  0
  -22.4163  -28.2602   20.6480 C   0  0  1  0  0  0  0  0  0  0  0  0
  -25.7800  -17.4860   19.7545 C   0  0  2  0  0  0  0  0  0  0  0  0
  -22.3555  -21.2870   17.8001 C   0  0  0  0  0  0  0  0  0  0  0  0
  -20.1799  -24.4752   23.0095 C   0  0  0  0  0  0  0  0  0  0  0  0
  -20.8884  -22.3295   21.9315 C   0  0  0  0  0  0  0  0  0  0  0  0
  -19.3174  -23.8606   20.7440 C   0  0  0  0  0  0  0  0  0  0  0  0
  -25.6461  -23.1632   18.1579 C   0  0  0  0  0  0  0  0  0  0  0  0
  -30.7493  -23.7330   23.2300 C   0  0  0  0  0  0  0  0  0  0  0  0
  -21.7517  -24.5077   20.9615 C   0  0  1  0  0  0  0  0  0  0  0  0
  -23.2452  -22.4749   18.1319 C   0  0  2  0  0  0  0  0  0  0  0  0
  -20.5536  -23.8132   21.6682 C   0  0  0  0  0  0  0  0  0  0  0  0
  -25.3719  -15.0687   20.0215 N   0  0  0  0  0  0  0  0  0  0  0  0
  -25.0454  -16.3196   20.3885 N   0  0  0  0  0  0  0  0  0  0  0  0
  -30.4286  -25.1357   23.0019 N   0  0  0  0  0  0  0  0  0  0  0  0
  -22.6178  -26.8106   20.6961 N   0  0  0  0  0  0  0  0  0  0  0  0
  -27.6748  -19.0510   19.9308 N   0  0  0  0  0  0  0  0  0  0  0  0
  -23.6044  -17.5578   21.8030 N   0  0  0  0  0  0  0  0  0  0  0  0
  -22.4729  -13.2702   22.6587 N   0  0  0  0  0  0  0  0  0  0  0  0
  -27.3755  -20.4836   21.7802 N   0  0  0  0  0  0  0  0  0  0  0  0
  -21.2608  -29.3223   22.4905 N   0  0  0  0  0  0  0  0  0  0  0  0
  -22.1103  -23.9186   19.6759 N   0  0  0  0  0  0  0  0  0  0  0  0
  -24.6627  -22.0816   17.8931 N   0  3  0  0  0  0  0  0  0  0  0  0
  -28.9713  -24.6584   21.2576 O   0  0  0  0  0  0  0  0  0  0  0  0
  -22.0114  -15.4563   23.1751 O   0  0  0  0  0  0  0  0  0  0  0  0
  -23.4707  -28.6278   22.7283 O   0  0  0  0  0  0  0  0  0  0  0  0
  -20.3399  -26.3558   20.4945 O   0  0  0  0  0  0  0  0  0  0  0  0
  -23.6835  -22.4318   20.5075 O   0  0  0  0  0  0  0  0  0  0  0  0
  -28.4716  -21.2203   19.8729 O   0  0  0  0  0  0  0  0  0  0  0  0
  -24.7265   -8.7411   20.3245 O   0  0  0  0  0  0  0  0  0  0  0  0
  -28.7695  -27.2476   20.5624 O   0  0  0  0  0  0  0  0  0  1  0  0
  -20.5116   -5.8721   22.4239 F   0  0  0  0  0  0  0  0  0  0  0  0
  -23.1877   -7.1001   18.7177 F   0  0  0  0  0  0  0  0  0  0  0  0
  -29.5180  -24.0062   26.0456 Cl  0  0  0  0  0  0  0  0  0  0  0  0
  -25.8478  -20.4484   24.4171 Cl  0  0  0  0  0  0  0  0  0  0  0  0
  1  2  1  0  0  0  0
  1  5  2  0  0  0  0
  2  6  2  0  0  0  0
  3  8  2  0  0  0  0
  3 17  1  0  0  0  0
  4  9  1  0  0  0  0
  4 17  2  0  0  0  0
  5 19  1  0  0  0  0
  6 21  1  0  0  0  0
  7 10  2  0  0  0  0
  7 20  1  0  0  0  0
  8 25  1  0  0  0  0
  9 25  2  0  0  0  0
 10 26  1  0  0  0  0
 11 12  2  0  0  0  0
 11 27  1  0  0  0  0
 12 28  1  0  0  0  0
 13 22  1  0  0  0  0
 13 26  2  0  0  0  0
 14 23  1  0  0  0  0
 14 24  2  0  0  0  0
 15 28  2  0  0  0  0
 15 29  1  0  0  0  0
 16 30  1  0  0  0  0
 16 31  2  0  0  0  0
 17 32  1  0  0  0  0
 18 32  1  0  0  0  0
 18 33  2  0  0  0  0
 18 35  1  0  0  0  0
 19 21  2  0  0  0  0
 19 40  1  0  0  0  0
 20 22  2  0  0  0  0
 20 41  1  0  0  0  0
 21 52  1  0  0  0  0
 22 42  1  0  0  0  0
 23 30  2  0  0  0  0
 23 61  1  0  0  0  0
 24 31  1  0  0  0  0
 24 72  1  0  0  0  0
 25 82  1  0  0  0  0
 26 83  1  0  0  0  0
 27 29  2  0  0  0  0
 27 82  1  0  0  0  0
 28 84  1  0  0  0  0
 29 85  1  0  0  0  0
 30 86  1  0  0  0  0
 31 87  1  0  0  0  0
 32 65  2  0  0  0  0
 33 66  1  0  0  0  0
 33 70  1  0  0  0  0
 34 53  1  0  0  0  0
 34 67  1  0  0  0  0
 34 76  2  0  0  0  0
 35 71  1  0  0  0  0
 35 77  2  0  0  0  0
 36 54  1  0  0  0  0
 36 73  1  0  0  0  0
 36 78  2  0  0  0  0
 37 62  1  0  0  0  0
 37 68  1  0  0  0  0
 37 79  2  0  0  0  0
 38 63  1  0  0  0  0
 38 74  1  0  0  0  0
 38 80  2  0  0  0  0
 39 69  1  0  0  0  0
 39 72  1  0  0  0  0
 39 81  2  0  0  0  0
 40 43  1  0  0  0  0
 41 54  1  0  0  0  0
 42 68  1  0  0  0  0
 43 46  1  0  0  0  0
 44 47  1  0  0  0  0
 44 49  1  0  0  0  0
 45 48  1  0  0  0  0
 45 50  1  0  0  0  0
 46 52  1  0  0  0  0
 47 53  1  0  0  0  0
 48 55  1  0  0  0  0
 49 67  1  0  0  0  0
 50 69  1  0  0  0  0
 51 55  1  0  0  0  0
 51 69  1  0  0  0  0
 52 73  1  0  0  0  0
 53 83  1  0  0  0  0
 54 68  1  0  0  0  0
 55 66  1  0  0  0  0
 56 63  1  0  0  0  0
 57 64  1  0  0  0  0
 58 64  1  0  0  0  0
 59 64  1  0  0  0  0
 60 75  1  0  0  0  0
 61 67  1  0  0  0  0
 62 64  1  0  0  0  0
 62 74  1  0  0  0  0
 63 75  1  0  0  0  0
 65 66  1  0  0  0  0
M  CHG  1  75   1
M  ISO  4  39 100  53 101  72 100  83 101
M  END
> <Batch ID>
0044

> <Smiles>
CNC(C)C(=O)NC(C(=O)N1Cc2cc([101O:1][101CH:1]3CCCN(Cc4cc([100NH:0][100C:0](=O)N5CCCC(n6nc(-c7ccc(Oc8ccc(F)cc8F)cc7)c(C(N)=O)c6N)C5)c(Cl)cc4Cl)C3=O)ccc2CC1C(=O)NC1CCCc2ccccc21)C(C)(C)C

> <Shape>
0.214

> <Color>
0.095

> <Negative vol penalty>
0.000

$$$$

  -OEChem-04042322183D

 83 91  0     1  0  0  0  0  0999 V2000
  -39.2397  -29.0765   21.9955 C   0  0  0  0  0  0  0  0  0  0  0  0
  -38.2175  -28.3733   22.6248 C   0  0  0  0  0  0  0  0  0  0  0  0
  -23.0070   -9.8887   19.9660 C   0  0  0  0  0  0  0  0  0  0  0  0
  -23.7373   -9.9164   22.2688 C   0  0  0  0  0  0  0  0  0  0  0  0
  -39.0834  -29.5002   20.6764 C   0  0  0  0  0  0  0  0  0  0  0  0
  -37.0378  -28.0943   21.9356 C   0  0  0  0  0  0  0  0  0  0  0  0
  -35.4881  -23.3180   22.5913 C   0  0  0  0  0  0  0  0  0  0  0  0
  -22.2461   -8.7479   20.2210 C   0  0  0  0  0  0  0  0  0  0  0  0
  -22.9763   -8.7756   22.5238 C   0  0  0  0  0  0  0  0  0  0  0  0
  -34.8492  -23.0151   23.7929 C   0  0  0  0  0  0  0  0  0  0  0  0
  -23.2342   -5.4434   22.0130 C   0  0  0  0  0  0  0  0  0  0  0  0
  -23.8279   -4.4202   22.7520 C   0  0  0  0  0  0  0  0  0  0  0  0
  -32.7106  -23.1666   22.6872 C   0  0  0  0  0  0  0  0  0  0  0  0
  -30.4487  -18.3253   24.0572 C   0  0  0  0  0  0  0  0  0  0  0  0
  -32.0408  -16.5546   22.6037 C   0  0  0  0  0  0  0  0  0  0  0  0
  -22.1069   -4.6363   24.4338 C   0  0  0  0  0  0  0  0  0  0  0  0
  -23.7527  -10.4730   20.9898 C   0  0  0  0  0  0  0  0  0  0  0  0
  -24.1265  -12.9921   20.8419 C   0  0  0  0  0  0  0  0  0  0  0  0
  -37.9050  -29.2178   19.9676 C   0  0  0  0  0  0  0  0  0  0  0  0
  -34.7412  -23.5585   21.4291 C   0  0  0  0  0  0  0  0  0  0  0  0
  -36.8650  -28.5158   20.6063 C   0  0  0  0  0  0  0  0  0  0  0  0
  -33.3425  -23.4698   21.4715 C   0  0  0  0  0  0  0  0  0  0  0  0
  -31.8325  -18.3275   24.2318 C   0  0  0  0  0  0  0  0  0  0  0  0
  -30.6569  -16.5524   22.4291 C   0  0  0  0  0  0  0  0  0  0  0  0
  -22.2307   -8.1913   21.4999 C   0  0  0  0  0  0  0  0  0  0  0  0
  -33.4602  -22.9422   23.8417 C   0  0  0  0  0  0  0  0  0  0  0  0
  -22.0768   -6.0631   22.4844 C   0  0  0  0  0  0  0  0  0  0  0  0
  -23.2643   -4.0166   23.9624 C   0  0  0  0  0  0  0  0  0  0  0  0
  -29.8608  -17.4377   23.1559 C   0  0  0  0  0  0  0  0  0  0  0  0
  -21.5132   -5.6595   23.6948 C   0  0  0  0  0  0  0  0  0  0  0  0
  -32.6286  -17.4422   23.5051 C   0  0  0  0  0  0  0  0  0  0  0  0
  -24.5394  -11.6511   20.7269 C   0  0  0  0  0  0  0  0  0  0  0  0
  -25.2323  -13.7237   20.4833 C   0  0  0  0  0  0  0  0  0  0  0  0
  -22.8571  -13.5284   21.2375 C   0  0  0  0  0  0  0  0  0  0  0  0
  -34.3668  -26.0387   19.4766 C   0  0  0  0  0  0  0  0  0  0  0  0
  -32.6424  -23.9117   17.7374 C   0  0  0  0  0  0  0  0  0  0  0  0
  -30.8019  -21.0386   17.6725 C   0  0  0  0  0  0  0  0  0  0  0  0
  -30.7080  -14.7062   20.7159 C   0  0  0  0  0  0  0  0  0  0  0  0
  -37.7631  -29.7375   18.5589 C   0  0  0  0  0  0  0  0  0  0  0  0
  -35.4466  -23.8577   20.1347 C   0  0  0  0  0  0  0  0  0  0  0  0
  -32.4959  -23.6995   20.2472 C   0  0  0  0  0  0  0  0  0  0  0  0
  -36.6315  -29.0757   17.7767 C   0  0  0  0  0  0  0  0  0  0  0  0
  -29.5951  -12.2753   18.3644 C   0  0  0  0  0  0  0  0  0  0  0  0
  -35.3628  -29.0151   18.6214 C   0  0  0  0  0  0  0  0  0  0  0  0
  -28.1466  -12.0065   18.7789 C   0  0  0  0  0  0  0  0  0  0  0  0
  -30.4973  -12.5088   19.5749 C   0  0  0  0  0  0  0  0  0  0  0  0
  -28.5817  -13.2738   20.9217 C   0  0  0  0  0  0  0  0  0  0  0  0
  -35.5804  -28.1723   19.8839 C   0  0  1  0  0  0  0  0  0  0  0  0
  -34.5642  -24.5904   19.1288 C   0  0  1  0  0  0  0  0  0  0  0  0
  -27.6221  -13.0969   19.7337 C   0  0  2  0  0  0  0  0  0  0  0  0
  -29.4901  -19.5744   16.1128 C   0  0  0  0  0  0  0  0  0  0  0  0
  -30.3523  -25.9276   17.7751 C   0  0  0  0  0  0  0  0  0  0  0  0
  -28.8118  -24.0858   17.0662 C   0  0  0  0  0  0  0  0  0  0  0  0
  -30.6931  -24.7768   15.5810 C   0  0  0  0  0  0  0  0  0  0  0  0
  -32.5792  -18.7238   18.1646 C   0  0  0  0  0  0  0  0  0  0  0  0
  -32.5260  -21.0345   26.7634 C   0  0  0  0  0  0  0  0  0  0  0  0
  -31.6142  -20.1568   25.9145 C   0  0  0  0  0  0  0  0  0  0  0  0
  -33.5386  -21.8166   25.9352 C   0  0  0  0  0  0  0  0  0  1  0  0
  -31.1940  -23.4880   17.6977 C   0  0  1  0  0  0  0  0  0  0  0  0
  -30.8466  -19.8344   16.7492 C   0  0  2  0  0  0  0  0  0  0  0  0
  -30.2784  -24.5671   17.0537 C   0  0  0  0  0  0  0  0  0  0  0  0
  -25.8083  -11.5348   20.3264 N   0  0  0  0  0  0  0  0  0  0  0  0
  -26.2023  -12.8120   20.1866 N   0  0  0  0  0  0  0  0  0  0  0  0
  -33.2319  -23.9952   19.0069 N   0  0  0  0  0  0  0  0  0  0  0  0
  -29.9396  -13.5575   20.4316 N   0  0  0  0  0  0  0  0  0  0  0  0
  -25.4597  -15.0515   20.3960 N   0  0  0  0  0  0  0  0  0  0  0  0
  -21.8300  -12.6359   21.5732 N   0  0  0  0  0  0  0  0  0  0  0  0
  -30.0614  -15.6495   21.5138 N   0  0  0  0  0  0  0  0  0  0  0  0
  -32.3875  -19.2202   25.1355 N   0  0  0  0  0  0  0  0  0  0  0  0
  -35.5413  -26.7617   19.5629 N   0  0  0  0  0  0  0  0  0  0  0  0
  -31.1648  -22.1971   17.0187 N   0  0  0  0  0  0  0  0  0  0  0  0
  -31.2520  -18.6162   17.5059 N   0  3  0  0  0  0  0  0  0  0  0  0
  -22.6350  -14.7624   21.2760 O   0  0  0  0  0  0  0  0  0  0  0  0
  -33.2329  -26.4689   19.6521 O   0  0  0  0  0  0  0  0  0  0  0  0
  -33.2313  -24.1526   16.6806 O   0  0  0  0  0  0  0  0  0  0  0  0
  -30.4741  -20.9599   18.8543 O   0  0  0  0  0  0  0  0  0  0  0  0
  -31.8450  -14.8554   20.2609 O   0  0  0  0  0  0  0  0  0  0  0  0
  -21.4881   -7.0782   21.7491 O   0  0  0  0  0  0  0  0  0  0  0  0
  -32.8341  -22.6475   25.0134 O   0  0  0  0  0  0  0  0  0  1  0  0
  -23.8337   -3.0330   24.6712 F   0  0  0  0  0  0  0  0  0  0  0  0
  -28.5295  -17.4433   22.9981 F   0  0  0  0  0  0  0  0  0  0  0  0
  -20.4007   -6.2503   24.1522 F   0  0  0  0  0  0  0  0  0  0  0  0
  -34.3460  -17.4125   23.6908 Cl  0  0  0  0  0  0  0  0  0  0  0  0
  1  2  1  0  0  0  0
  1  5  2  0  0  0  0
  2  6  2  0  0  0  0
  3  8  2  0  0  0  0
  3 17  1  0  0  0  0
  4  9  1  0  0  0  0
  4 17  2  0  0  0  0
  5 19  1  0  0  0  0
  6 21  1  0  0  0  0
  7 10  2  0  0  0  0
  7 20  1  0  0  0  0
  8 25  1  0  0  0  0
  9 25  2  0  0  0  0
 10 26  1  0  0  0  0
 11 12  2  0  0  0  0
 11 27  1  0  0  0  0
 12 28  1  0  0  0  0
 13 22  1  0  0  0  0
 13 26  2  0  0  0  0
 14 23  1  0  0  0  0
 14 29  2  0  0  0  0
 15 24  2  0  0  0  0
 15 31  1  0  0  0  0
 16 28  2  0  0  0  0
 16 30  1  0  0  0  0
 17 32  1  0  0  0  0
 18 32  1  0  0  0  0
 18 33  2  0  0  0  0
 18 34  1  0  0  0  0
 19 21  2  0  0  0  0
 19 39  1  0  0  0  0
 20 22  2  0  0  0  0
 20 40  1  0  0  0  0
 21 48  1  0  0  0  0
 22 41  1  0  0  0  0
 23 31  2  0  0  0  0
 23 69  1  0  0  0  0
 24 29  1  0  0  0  0
 24 68  1  0  0  0  0
 25 78  1  0  0  0  0
 26 79  1  0  0  0  0
 27 30  2  0  0  0  0
 27 78  1  0  0  0  0
 28 80  1  0  0  0  0
 29 81  1  0  0  0  0
 30 82  1  0  0  0  0
 31 83  1  0  0  0  0
 32 62  2  0  0  0  0
 33 63  1  0  0  0  0
 33 66  1  0  0  0  0
 34 67  1  0  0  0  0
 34 73  2  0  0  0  0
 35 49  1  0  0  0  0
 35 70  1  0  0  0  0
 35 74  2  0  0  0  0
 36 59  1  0  0  0  0
 36 64  1  0  0  0  0
 36 75  2  0  0  0  0
 37 60  1  0  0  0  0
 37 71  1  0  0  0  0
 37 76  2  0  0  0  0
 38 65  1  0  0  0  0
 38 68  1  0  0  0  0
 38 77  2  0  0  0  0
 39 42  1  0  0  0  0
 40 49  1  0  0  0  0
 41 64  1  0  0  0  0
 42 44  1  0  0  0  0
 43 45  1  0  0  0  0
 43 46  1  0  0  0  0
 44 48  1  0  0  0  0
 45 50  1  0  0  0  0
 46 65  1  0  0  0  0
 47 50  1  0  0  0  0
 47 65  1  0  0  0  0
 48 70  1  0  0  0  0
 49 64  1  0  0  0  0
 50 63  1  0  0  0  0
 51 60  1  0  0  0  0
 52 61  1  0  0  0  0
 53 61  1  0  0  0  0
 54 61  1  0  0  0  0
 55 72  1  0  0  0  0
 56 57  1  0  0  0  0
 56 58  1  0  0  0  0
 57 69  1  0  0  0  0
 58 79  1  0  0  0  0
 59 61  1  0  0  0  0
 59 71  1  0  0  0  0
 60 72  1  0  0  0  0
 62 63  1  0  0  0  0
M  CHG  1  72   1
M  ISO  4  38 100  58 101  68 100  79 101
M  END
> <Batch ID>
0044

> <Smiles>
CNC(C)C(=O)NC(C(=O)N1Cc2cc([101O:1][101CH2:1]CCNc3cc(F)c([100NH:0][100C:0](=O)N4CCCC(n5nc(-c6ccc(Oc7ccc(F)cc7F)cc6)c(C(N)=O)c5N)C4)cc3Cl)ccc2CC1C(=O)NC1CCCc2ccccc21)C(C)(C)C

> <Shape>
0.206

> <Color>
0.203

> <Negative vol penalty>
0.000

$$$$

  -OEChem-04042322183D

 87 96  0     1  0  0  0  0  0999 V2000
  -29.6136  -21.6608   15.1479 C   0  0  0  0  0  0  0  0  0  0  0  0
  -28.6761  -21.6625   16.1758 C   0  0  0  0  0  0  0  0  0  0  0  0
  -24.0645   -9.3869   20.0712 C   0  0  0  0  0  0  0  0  0  0  0  0
  -25.7570   -9.4342   21.7947 C   0  0  0  0  0  0  0  0  0  0  0  0
  -30.5711  -22.6718   15.0775 C   0  0  0  0  0  0  0  0  0  0  0  0
  -28.6963  -22.6748   17.1346 C   0  0  0  0  0  0  0  0  0  0  0  0
  -24.0786  -24.4999   18.1302 C   0  0  0  0  0  0  0  0  0  0  0  0
  -28.5262  -19.7724   20.7398 C   0  0  0  0  0  0  0  0  0  0  0  0
  -23.8810   -8.0215   20.2889 C   0  0  0  0  0  0  0  0  0  0  0  0
  -25.5734   -8.0687   22.0125 C   0  0  0  0  0  0  0  0  0  0  0  0
  -23.2587  -23.7385   18.9619 C   0  0  0  0  0  0  0  0  0  0  0  0
  -22.2944   -6.0474   22.5292 C   0  0  0  0  0  0  0  0  0  0  0  0
  -20.9848   -5.5735   22.6061 C   0  0  0  0  0  0  0  0  0  0  0  0
  -28.0982  -21.0999   20.7442 C   0  0  0  0  0  0  0  0  0  0  0  0
  -23.8215  -25.1717   20.8189 C   0  0  0  0  0  0  0  0  0  0  0  0
  -21.3988   -4.1230   20.7188 C   0  0  0  0  0  0  0  0  0  0  0  0
  -25.0026  -10.0933   20.8241 C   0  0  0  0  0  0  0  0  0  0  0  0
  -24.2309  -12.5230   20.7300 C   0  0  0  0  0  0  0  0  0  0  0  0
  -30.5970  -23.7023   16.0304 C   0  0  0  0  0  0  0  0  0  0  0  0
  -24.7859  -25.5983   18.6399 C   0  0  0  0  0  0  0  0  0  0  0  0
  -29.6559  -23.6999   17.0776 C   0  0  0  0  0  0  0  0  0  0  0  0
  -24.6478  -25.9470   19.9910 C   0  0  0  0  0  0  0  0  0  0  0  0
  -26.9104  -19.2458   22.4571 C   0  0  0  0  0  0  0  0  0  0  0  0
  -26.4825  -20.5734   22.4615 C   0  0  0  0  0  0  0  0  0  0  0  0
  -27.9322  -18.8453   21.5962 C   0  0  0  0  0  0  0  0  0  0  0  0
  -24.6354   -7.3624   21.2595 C   0  0  0  0  0  0  0  0  0  0  0  0
  -23.1323  -24.0725   20.3071 C   0  0  0  0  0  0  0  0  0  0  0  0
  -23.1562   -5.5591   21.5470 C   0  0  0  0  0  0  0  0  0  0  0  0
  -20.5370   -4.6113   21.7010 C   0  0  0  0  0  0  0  0  0  0  0  0
  -22.7084   -4.5969   20.6419 C   0  0  0  0  0  0  0  0  0  0  0  0
  -27.0764  -21.5005   21.6051 C   0  0  0  0  0  0  0  0  0  0  0  0
  -25.1931  -11.5037   20.5993 C   0  0  0  0  0  0  0  0  0  0  0  0
  -24.9054  -13.6753   20.4082 C   0  0  0  0  0  0  0  0  0  0  0  0
  -23.1026  -20.4988   24.0537 C   0  0  0  0  0  0  0  0  0  0  0  0
  -22.7952  -19.3029   24.5782 C   0  0  0  0  0  0  0  0  0  0  0  0
  -22.8507  -12.4359   21.1086 C   0  0  0  0  0  0  0  0  0  0  0  0
  -27.8613  -26.3502   18.9237 C   0  0  0  0  0  0  0  0  0  0  0  0
  -26.6715  -29.1920   19.9390 C   0  0  0  0  0  0  0  0  0  0  0  0
  -23.9801  -30.3114   22.0652 C   0  0  0  0  0  0  0  0  0  0  0  0
  -29.3866  -16.9599   20.7736 C   0  0  0  0  0  0  0  0  0  0  0  0
  -31.6805  -24.7475   15.9400 C   0  0  0  0  0  0  0  0  0  0  0  0
  -25.6453  -26.4256   17.7238 C   0  0  0  0  0  0  0  0  0  0  0  0
  -25.3698  -27.1289   20.5828 C   0  0  0  0  0  0  0  0  0  0  0  0
  -22.5051  -21.7887   24.5466 C   0  0  0  0  0  0  0  0  0  0  0  0
  -31.3997  -25.9902   16.7810 C   0  0  0  0  0  0  0  0  0  0  0  0
  -21.9410  -22.5915   23.3806 C   0  0  0  0  0  0  0  0  0  0  0  0
  -29.4830  -14.3485   18.3554 C   0  0  0  0  0  0  0  0  0  0  0  0
  -30.9366  -25.5949   18.1796 C   0  0  0  0  0  0  0  0  0  0  0  0
  -28.2964  -13.4594   18.7343 C   0  0  0  0  0  0  0  0  0  0  0  0
  -30.1772  -14.9239   19.5886 C   0  0  0  0  0  0  0  0  0  0  0  0
  -28.1059  -14.7335   20.9086 C   0  0  0  0  0  0  0  0  0  0  0  0
  -23.4445  -21.3251   21.7993 C   0  0  0  0  0  0  0  0  0  0  0  0
  -29.6299  -24.7944   18.1223 C   0  0  1  0  0  0  0  0  0  0  0  0
  -26.7211  -27.2142   18.4641 C   0  0  1  0  0  0  0  0  0  0  0  0
  -27.3351  -14.1830   19.6976 C   0  0  2  0  0  0  0  0  0  0  0  0
  -22.9525  -22.7014   22.2398 C   0  0  1  0  0  0  0  0  0  1  0  0
  -26.2723  -18.2508   23.3758 C   0  0  0  0  0  0  0  0  0  0  0  0
  -22.6796  -32.4576   22.0576 C   0  0  0  0  0  0  0  0  0  0  0  0
  -28.7205  -30.1035   22.0080 C   0  0  0  0  0  0  0  0  0  0  0  0
  -26.8713  -31.2791   23.2190 C   0  0  0  0  0  0  0  0  0  0  0  0
  -27.4668  -31.9586   20.8939 C   0  0  0  0  0  0  0  0  0  0  0  0
  -21.3978  -28.8810   21.8547 C   0  0  0  0  0  0  0  0  0  0  0  0
  -25.3827  -20.9900   23.3932 C   0  0  0  0  0  0  0  0  0  0  0  0
  -26.2678  -29.7657   21.2757 C   0  0  1  0  0  0  0  0  0  0  0  0
  -22.7006  -30.9997   21.6253 C   0  0  2  0  0  0  0  0  0  0  0  0
  -27.3299  -30.7488   21.8439 C   0  0  0  0  0  0  0  0  0  0  0  0
  -26.3879  -11.9677   20.2235 N   0  0  0  0  0  0  0  0  0  0  0  0
  -26.1809  -13.2912   20.1153 N   0  0  0  0  0  0  0  0  0  0  0  0
  -26.2031  -27.9029   19.6480 N   0  0  0  0  0  0  0  0  0  0  0  0
  -29.2055  -15.5980   20.4523 N   0  0  0  0  0  0  0  0  0  0  0  0
  -24.5260  -14.9695   20.3499 N   0  0  0  0  0  0  0  0  0  0  0  0
  -22.5227  -12.5412   22.4672 N   0  0  0  0  0  0  0  0  0  0  0  0
  -28.3821  -17.5018   21.5749 N   0  0  0  0  0  0  0  0  0  0  0  0
  -28.5051  -25.6781   17.9024 N   0  0  0  0  0  0  0  0  0  0  0  0
  -24.9480  -30.3573   21.0842 N   0  0  0  0  0  0  0  0  0  0  0  0
  -24.0237  -20.5295   22.9436 N   0  3  1  0  0  0  0  0  0  0  0  0
  -21.5154  -30.3169   22.2170 N   0  3  0  0  0  0  0  0  0  0  0  0
  -21.9370  -12.2533   20.2688 O   0  0  0  0  0  0  0  0  0  0  0  0
  -28.1374  -26.2983   20.1165 O   0  0  0  0  0  0  0  0  0  0  0  0
  -27.3706  -29.8657   19.1780 O   0  0  0  0  0  0  0  0  0  0  0  0
  -24.1095  -29.7889   23.1701 O   0  0  0  0  0  0  0  0  0  0  0  0
  -30.3466  -17.6056   20.3454 O   0  0  0  0  0  0  0  0  0  0  0  0
  -24.4564   -6.0300   21.4724 O   0  0  0  0  0  0  0  0  0  0  0  0
  -22.3332  -23.3306   21.1212 O   0  0  0  0  0  0  0  0  0  1  0  0
  -19.2798   -4.1552   21.7760 F   0  0  0  0  0  0  0  0  0  0  0  0
  -23.5321   -4.1232   19.6969 F   0  0  0  0  0  0  0  0  0  0  0  0
  -26.5785  -23.1535   21.5805 Cl  0  0  0  0  0  0  0  0  0  0  0  0
  1  2  1  0  0  0  0
  1  5  2  0  0  0  0
  2  6  2  0  0  0  0
  3  9  2  0  0  0  0
  3 17  1  0  0  0  0
  4 10  1  0  0  0  0
  4 17  2  0  0  0  0
  5 19  1  0  0  0  0
  6 21  1  0  0  0  0
  7 11  2  0  0  0  0
  7 20  1  0  0  0  0
  8 14  1  0  0  0  0
  8 25  2  0  0  0  0
  9 26  1  0  0  0  0
 10 26  2  0  0  0  0
 11 27  1  0  0  0  0
 12 13  2  0  0  0  0
 12 28  1  0  0  0  0
 13 29  1  0  0  0  0
 14 31  2  0  0  0  0
 15 22  1  0  0  0  0
 15 27  2  0  0  0  0
 16 29  2  0  0  0  0
 16 30  1  0  0  0  0
 17 32  1  0  0  0  0
 18 32  1  0  0  0  0
 18 33  2  0  0  0  0
 18 36  1  0  0  0  0
 19 21  2  0  0  0  0
 19 41  1  0  0  0  0
 20 22  2  0  0  0  0
 20 42  1  0  0  0  0
 21 53  1  0  0  0  0
 22 43  1  0  0  0  0
 23 24  2  0  0  0  0
 23 25  1  0  0  0  0
 23 57  1  0  0  0  0
 24 31  1  0  0  0  0
 24 63  1  0  0  0  0
 25 73  1  0  0  0  0
 26 83  1  0  0  0  0
 27 84  1  0  0  0  0
 28 30  2  0  0  0  0
 28 83  1  0  0  0  0
 29 85  1  0  0  0  0
 30 86  1  0  0  0  0
 31 87  1  0  0  0  0
 32 67  2  0  0  0  0
 33 68  1  0  0  0  0
 33 71  1  0  0  0  0
 34 35  2  0  0  0  0
 34 44  1  0  0  0  0
 34 76  1  0  0  0  0
 36 72  1  0  0  0  0
 36 78  2  0  0  0  0
 37 54  1  0  0  0  0
 37 74  1  0  0  0  0
 37 79  2  0  0  0  0
 38 64  1  0  0  0  0
 38 69  1  0  0  0  0
 38 80  2  0  0  0  0
 39 65  1  0  0  0  0
 39 75  1  0  0  0  0
 39 81  2  0  0  0  0
 40 70  1  0  0  0  0
 40 73  1  0  0  0  0
 40 82  2  0  0  0  0
 41 45  1  0  0  0  0
 42 54  1  0  0  0  0
 43 69  1  0  0  0  0
 44 46  1  0  0  0  0
 45 48  1  0  0  0  0
 46 56  1  0  0  0  0
 47 49  1  0  0  0  0
 47 50  1  0  0  0  0
 48 53  1  0  0  0  0
 49 55  1  0  0  0  0
 50 70  1  0  0  0  0
 51 55  1  0  0  0  0
 51 70  1  0  0  0  0
 52 56  1  0  0  0  0
 52 76  1  0  0  0  0
 53 74  1  0  0  0  0
 54 69  1  0  0  0  0
 55 68  1  0  0  0  0
 56 84  1  0  0  0  0
 58 65  1  0  0  0  0
 59 66  1  0  0  0  0
 60 66  1  0  0  0  0
 61 66  1  0  0  0  0
 62 77  1  0  0  0  0
 63 76  1  0  0  0  0
 64 66  1  0  0  0  0
 64 75  1  0  0  0  0
 65 77  1  0  0  0  0
 67 68  1  0  0  0  0
M  CHG  2  76   1  77   1
M  ISO  4  40 100  56 101  73 100  84 101
M  END
> <Batch ID>
0044

> <Smiles>
C=C1CC[101CH:1]([101O:1]c2ccc3c(c2)CN(C(=O)C(NC(=O)C(C)NC)C(C)(C)C)C(C(=O)NC2CCCc4ccccc42)C3)CN1Cc1c(Cl)ccc([100NH:0][100C:0](=O)N2CCCC(n3nc(-c4ccc(Oc5ccc(F)cc5F)cc4)c(C(N)=O)c3N)C2)c1C

> <Shape>
0.258

> <Color>
0.105

> <Negative vol penalty>
0.000

$$$$

  -OEChem-04042322183D

 89 98  0     1  0  0  0  0  0999 V2000
  -28.9610  -21.1292   17.2350 C   0  0  0  0  0  0  0  0  0  0  0  0
  -27.7757  -21.6080   17.7839 C   0  0  0  0  0  0  0  0  0  0  0  0
  -28.1173  -14.9152   21.3098 C   0  0  0  0  0  0  0  0  0  0  0  0
  -25.7665  -15.4652   21.2204 C   0  0  0  0  0  0  0  0  0  0  0  0
  -30.1822  -21.6668   17.6392 C   0  0  0  0  0  0  0  0  0  0  0  0
  -27.8112  -22.6241   18.7383 C   0  0  0  0  0  0  0  0  0  0  0  0
  -23.7139  -27.1133   19.4900 C   0  0  0  0  0  0  0  0  0  0  0  0
  -20.7978  -24.2448   24.5716 C   0  0  0  0  0  0  0  0  0  0  0  0
  -21.9181  -23.4640   24.8557 C   0  0  0  0  0  0  0  0  0  0  0  0
  -27.8150  -13.5797   21.0444 C   0  0  0  0  0  0  0  0  0  0  0  0
  -25.4641  -14.1297   20.9549 C   0  0  0  0  0  0  0  0  0  0  0  0
  -22.6427  -27.2681   20.3689 C   0  0  0  0  0  0  0  0  0  0  0  0
  -25.1826  -11.2453   22.6962 C   0  0  0  0  0  0  0  0  0  0  0  0
  -24.1246  -10.6684   23.3986 C   0  0  0  0  0  0  0  0  0  0  0  0
  -24.0501  -28.5519   21.8488 C   0  0  0  0  0  0  0  0  0  0  0  0
  -21.6415  -22.3028   22.7552 C   0  0  0  0  0  0  0  0  0  0  0  0
  -22.9844  -10.2234   21.3156 C   0  0  0  0  0  0  0  0  0  0  0  0
  -27.0931  -15.8580   21.3979 C   0  0  0  0  0  0  0  0  0  0  0  0
  -28.2113  -18.0967   20.9025 C   0  0  0  0  0  0  0  0  0  0  0  0
  -30.2321  -22.6966   18.5918 C   0  0  0  0  0  0  0  0  0  0  0  0
  -24.9663  -27.6684   19.7897 C   0  0  0  0  0  0  0  0  0  0  0  0
  -29.0343  -23.1751   19.1566 C   0  0  0  0  0  0  0  0  0  0  0  0
  -25.1349  -28.4049   20.9709 C   0  0  0  0  0  0  0  0  0  0  0  0
  -20.0992  -24.0546   23.3794 C   0  0  0  0  0  0  0  0  0  0  0  0
  -20.5210  -23.0835   22.4712 C   0  0  0  0  0  0  0  0  0  0  0  0
  -22.3400  -22.4930   23.9475 C   0  0  0  0  0  0  0  0  0  0  0  0
  -26.4884  -13.1869   20.8669 C   0  0  0  0  0  0  0  0  0  0  0  0
  -22.8115  -27.9850   21.5498 C   0  0  0  0  0  0  0  0  0  0  0  0
  -25.1415  -11.3114   21.3035 C   0  0  0  0  0  0  0  0  0  0  0  0
  -23.0255  -10.1574   22.7083 C   0  0  0  0  0  0  0  0  0  0  0  0
  -24.0424  -10.8004   20.6132 C   0  0  0  0  0  0  0  0  0  0  0  0
  -27.4047  -17.2377   21.6727 C   0  0  0  0  0  0  0  0  0  0  0  0
  -28.1915  -19.2890   21.5839 C   0  0  0  0  0  0  0  0  0  0  0  0
  -28.9155  -17.8398   19.6802 C   0  0  0  0  0  0  0  0  0  0  0  0
  -27.8775  -26.4953   20.2925 C   0  0  0  0  0  0  0  0  0  0  0  0
  -28.7057  -29.6309   20.3584 C   0  0  0  0  0  0  0  0  0  0  0  0
  -27.7547  -32.8686   20.8683 C   0  0  0  0  0  0  0  0  0  0  0  0
  -24.2863  -21.7624   25.3704 C   0  0  0  0  0  0  0  0  0  0  0  0
  -31.5787  -23.2136   19.0322 C   0  0  0  0  0  0  0  0  0  0  0  0
  -26.1046  -27.5152   18.8185 C   0  0  0  0  0  0  0  0  0  0  0  0
  -26.4538  -29.0379   21.3293 C   0  0  0  0  0  0  0  0  0  0  0  0
  -31.5070  -24.5465   19.7728 C   0  0  0  0  0  0  0  0  0  0  0  0
  -27.7203  -21.0680   26.0052 C   0  0  0  0  0  0  0  0  0  0  0  0
  -30.4023  -24.5143   20.8242 C   0  0  0  0  0  0  0  0  0  0  0  0
  -28.1041  -20.0898   24.8925 C   0  0  0  0  0  0  0  0  0  0  0  0
  -19.5942  -29.1017   22.6817 C   0  0  0  0  0  0  0  0  0  0  0  0
  -18.1444  -28.6394   22.7023 C   0  0  0  0  0  0  0  0  0  0  0  0
  -26.2945  -20.8324   26.5006 C   0  0  0  0  0  0  0  0  0  0  0  0
  -25.6507  -19.8415   24.3389 C   0  0  0  0  0  0  0  0  0  0  0  0
  -19.9034  -26.7397   21.7506 C   0  0  0  0  0  0  0  0  0  0  0  0
  -29.0302  -24.2934   20.1761 C   0  0  1  0  0  0  0  0  0  0  0  0
  -27.4733  -27.6862   19.4703 C   0  0  1  0  0  0  0  0  0  0  0  0
  -27.0557  -20.0819   23.7627 C   0  0  2  0  0  0  0  0  0  0  0  0
  -20.4590  -28.1597   21.8441 C   0  0  2  0  0  0  0  0  0  1  0  0
  -17.9881  -27.2488   23.3394 C   0  0  2  0  0  0  0  0  0  0  0  0
  -17.8131  -27.3511   24.8553 C   0  0  0  0  0  0  0  0  0  0  0  0
  -28.6615  -35.2084   20.8873 C   0  0  0  0  0  0  0  0  0  0  0  0
  -30.0112  -29.1003   23.0647 C   0  0  0  0  0  0  0  0  0  0  0  0
  -30.0445  -31.5731   23.4552 C   0  0  0  0  0  0  0  0  0  0  0  0
  -31.3229  -30.5959   21.5490 C   0  0  0  0  0  0  0  0  0  0  0  0
  -25.9410  -33.7133   18.6875 C   0  0  0  0  0  0  0  0  0  0  0  0
  -18.8967  -24.9059   23.0963 C   0  0  0  0  0  0  0  0  0  0  0  0
  -28.7991  -30.6897   21.4304 C   0  0  1  0  0  0  0  0  0  0  0  0
  -27.9903  -34.1278   20.0539 C   0  0  2  0  0  0  0  0  0  0  0  0
  -19.7900  -22.8636   21.1875 C   0  0  0  0  0  0  0  0  0  0  0  0
  -30.0200  -30.4763   22.3693 C   0  0  0  0  0  0  0  0  0  0  0  0
  -26.9087  -17.8336   22.7603 N   0  0  0  0  0  0  0  0  0  0  0  0
  -27.4051  -19.0798   22.6785 N   0  0  0  0  0  0  0  0  0  0  0  0
  -27.5381  -28.8547   20.3504 N   0  0  0  0  0  0  0  0  0  0  0  0
  -25.3561  -20.8424   25.3762 N   0  0  0  0  0  0  0  0  0  0  0  0
  -28.7703  -20.4856   21.3477 N   0  0  0  0  0  0  0  0  0  0  0  0
  -28.2540  -18.0719   18.4666 N   0  0  0  0  0  0  0  0  0  0  0  0
  -23.4792  -21.7010   24.2348 N   0  0  0  0  0  0  0  0  0  0  0  0
  -28.5496  -25.5212   19.5793 N   0  0  0  0  0  0  0  0  0  0  0  0
  -28.7954  -31.9736   20.7375 N   0  0  0  0  0  0  0  0  0  0  0  0
  -19.2139  -26.3801   23.0492 N   0  3  1  0  0  0  0  0  0  0  0  0
  -26.6970  -34.6638   19.5429 N   0  3  0  0  0  0  0  0  0  0  0  0
  -30.0907  -17.4014   19.6649 O   0  0  0  0  0  0  0  0  0  0  0  0
  -27.6013  -26.4634   21.4860 O   0  0  0  0  0  0  0  0  0  0  0  0
  -29.6312  -29.5023   19.5531 O   0  0  0  0  0  0  0  0  0  0  0  0
  -26.7497  -32.6977   21.5549 O   0  0  0  0  0  0  0  0  0  0  0  0
  -24.1160  -22.5654   26.2913 O   0  0  0  0  0  0  0  0  0  0  0  0
  -26.1930  -11.8838   20.6076 O   0  0  0  0  0  0  0  0  0  0  0  0
  -21.7677  -28.1370   22.4097 O   0  0  0  0  0  0  0  0  0  1  0  0
  -22.0103   -9.6020   23.3828 F   0  0  0  0  0  0  0  0  0  0  0  0
  -23.9978  -10.8600   19.2752 F   0  0  0  0  0  0  0  0  0  0  0  0
  -20.3326  -21.8793   20.4126 F   0  0  0  0  0  0  0  0  0  0  0  0
  -18.4841  -22.5048   21.3590 F   0  0  0  0  0  0  0  0  0  0  0  0
  -19.7652  -23.9785   20.4021 F   0  0  0  0  0  0  0  0  0  0  0  0
  1  2  1  0  0  0  0
  1  5  2  0  0  0  0
  2  6  2  0  0  0  0
  3 10  2  0  0  0  0
  3 18  1  0  0  0  0
  4 11  1  0  0  0  0
  4 18  2  0  0  0  0
  5 20  1  0  0  0  0
  6 22  1  0  0  0  0
  7 12  2  0  0  0  0
  7 21  1  0  0  0  0
  8  9  2  0  0  0  0
  8 24  1  0  0  0  0
  9 26  1  0  0  0  0
 10 27  1  0  0  0  0
 11 27  2  0  0  0  0
 12 28  1  0  0  0  0
 13 14  2  0  0  0  0
 13 29  1  0  0  0  0
 14 30  1  0  0  0  0
 15 23  1  0  0  0  0
 15 28  2  0  0  0  0
 16 25  1  0  0  0  0
 16 26  2  0  0  0  0
 17 30  2  0  0  0  0
 17 31  1  0  0  0  0
 18 32  1  0  0  0  0
 19 32  1  0  0  0  0
 19 33  2  0  0  0  0
 19 34  1  0  0  0  0
 20 22  2  0  0  0  0
 20 39  1  0  0  0  0
 21 23  2  0  0  0  0
 21 40  1  0  0  0  0
 22 51  1  0  0  0  0
 23 41  1  0  0  0  0
 24 25  2  0  0  0  0
 24 62  1  0  0  0  0
 25 65  1  0  0  0  0
 26 73  1  0  0  0  0
 27 83  1  0  0  0  0
 28 84  1  0  0  0  0
 29 31  2  0  0  0  0
 29 83  1  0  0  0  0
 30 85  1  0  0  0  0
 31 86  1  0  0  0  0
 32 67  2  0  0  0  0
 33 68  1  0  0  0  0
 33 71  1  0  0  0  0
 34 72  1  0  0  0  0
 34 78  2  0  0  0  0
 35 52  1  0  0  0  0
 35 74  1  0  0  0  0
 35 79  2  0  0  0  0
 36 63  1  0  0  0  0
 36 69  1  0  0  0  0
 36 80  2  0  0  0  0
 37 64  1  0  0  0  0
 37 75  1  0  0  0  0
 37 81  2  0  0  0  0
 38 70  1  0  0  0  0
 38 73  1  0  0  0  0
 38 82  2  0  0  0  0
 39 42  1  0  0  0  0
 40 52  1  0  0  0  0
 41 69  1  0  0  0  0
 42 44  1  0  0  0  0
 43 45  1  0  0  0  0
 43 48  1  0  0  0  0
 44 51  1  0  0  0  0
 45 53  1  0  0  0  0
 46 47  1  0  0  0  0
 46 54  1  0  0  0  0
 47 55  1  0  0  0  0
 48 70  1  0  0  0  0
 49 53  1  0  0  0  0
 49 70  1  0  0  0  0
 50 54  1  0  0  0  0
 50 76  1  0  0  0  0
 51 74  1  0  0  0  0
 52 69  1  0  0  0  0
 53 68  1  0  0  0  0
 54 84  1  0  0  0  0
 55 56  1  0  0  0  0
 55 76  1  0  0  0  0
 57 64  1  0  0  0  0
 58 66  1  0  0  0  0
 59 66  1  0  0  0  0
 60 66  1  0  0  0  0
 61 77  1  0  0  0  0
 62 76  1  0  0  0  0
 63 66  1  0  0  0  0
 63 75  1  0  0  0  0
 64 77  1  0  0  0  0
 65 87  1  0  0  0  0
 65 88  1  0  0  0  0
 65 89  1  0  0  0  0
 67 68  1  0  0  0  0
M  CHG  2  76   1  77   1
M  ISO  4  38 100  54 101  73 100  84 101
M  END
> <Batch ID>
0044

> <Smiles>
CNC(C)C(=O)NC(C(=O)N1Cc2cc([101O:1][101CH:1]3CCC(C)N(Cc4ccc([100NH:0][100C:0](=O)N5CCCC(n6nc(-c7ccc(Oc8ccc(F)cc8F)cc7)c(C(N)=O)c6N)C5)cc4C(F)(F)F)C3)ccc2CC1C(=O)NC1CCCc2ccccc21)C(C)(C)C

> <Shape>
0.218

> <Color>
0.072

> <Negative vol penalty>
0.000

$$$$

  -OEChem-04042322183D

 84 92  0     1  0  0  0  0  0999 V2000
  -29.5340  -32.7867   27.3250 C   0  0  0  0  0  0  0  0  0  0  0  0
  -29.3880  -31.6746   26.5020 C   0  0  0  0  0  0  0  0  0  0  0  0
  -24.6757   -8.4968   20.9741 C   0  0  0  0  0  0  0  0  0  0  0  0
  -22.8680   -9.9614   20.3230 C   0  0  0  0  0  0  0  0  0  0  0  0
  -28.4429  -33.6194   27.5698 C   0  0  0  0  0  0  0  0  0  0  0  0
  -28.1503  -31.3939   25.9242 C   0  0  0  0  0  0  0  0  0  0  0  0
  -27.1354  -28.9403   20.4055 C   0  0  0  0  0  0  0  0  0  0  0  0
  -25.9639  -20.0382   21.6269 C   0  0  0  0  0  0  0  0  0  0  0  0
  -26.4066  -20.8275   20.5655 C   0  0  0  0  0  0  0  0  0  0  0  0
  -23.7554   -7.4891   21.2626 C   0  0  0  0  0  0  0  0  0  0  0  0
  -21.9476   -8.9537   20.6114 C   0  0  0  0  0  0  0  0  0  0  0  0
  -26.8477  -27.6391   19.9961 C   0  0  0  0  0  0  0  0  0  0  0  0
  -21.6227   -6.7060   23.7651 C   0  0  0  0  0  0  0  0  0  0  0  0
  -21.7882   -5.9999   24.9566 C   0  0  0  0  0  0  0  0  0  0  0  0
  -24.4938  -28.1669   19.9933 C   0  0  0  0  0  0  0  0  0  0  0  0
  -24.5416  -18.8024   20.1146 C   0  0  0  0  0  0  0  0  0  0  0  0
  -22.0218   -3.9455   23.7067 C   0  0  0  0  0  0  0  0  0  0  0  0
  -24.2320   -9.7330   20.5044 C   0  0  0  0  0  0  0  0  0  0  0  0
  -25.8209  -11.0161   18.9758 C   0  0  0  0  0  0  0  0  0  0  0  0
  -27.1936  -33.3542   26.9869 C   0  0  0  0  0  0  0  0  0  0  0  0
  -26.1021  -29.8631   20.6228 C   0  0  0  0  0  0  0  0  0  0  0  0
  -27.0411  -32.2231   26.1625 C   0  0  0  0  0  0  0  0  0  0  0  0
  -24.7713  -29.4800   20.4030 C   0  0  0  0  0  0  0  0  0  0  0  0
  -25.0314  -19.0255   21.4014 C   0  0  0  0  0  0  0  0  0  0  0  0
  -25.9168  -20.6044   19.2787 C   0  0  0  0  0  0  0  0  0  0  0  0
  -24.9843  -19.5918   19.0532 C   0  0  0  0  0  0  0  0  0  0  0  0
  -22.3914   -7.7175   21.0812 C   0  0  0  0  0  0  0  0  0  0  0  0
  -25.5265  -27.2513   19.7927 C   0  0  0  0  0  0  0  0  0  0  0  0
  -21.6567   -6.0318   22.5444 C   0  0  0  0  0  0  0  0  0  0  0  0
  -21.9877   -4.6197   24.9274 C   0  0  0  0  0  0  0  0  0  0  0  0
  -21.8563   -4.6516   22.5152 C   0  0  0  0  0  0  0  0  0  0  0  0
  -25.1821  -10.7745   20.2068 C   0  0  0  0  0  0  0  0  0  0  0  0
  -26.6196  -12.1082   19.2119 C   0  0  0  0  0  0  0  0  0  0  0  0
  -25.7029  -10.3159   17.7302 C   0  0  0  0  0  0  0  0  0  0  0  0
  -25.0496  -31.5018   23.1349 C   0  0  0  0  0  0  0  0  0  0  0  0
  -23.1162  -32.8876   20.9296 C   0  0  0  0  0  0  0  0  0  0  0  0
  -21.5538  -32.6732   17.9030 C   0  0  0  0  0  0  0  0  0  0  0  0
  -26.3409  -16.5813   23.1825 C   0  0  0  0  0  0  0  0  0  0  0  0
  -26.0315  -34.2565   27.3188 C   0  0  0  0  0  0  0  0  0  0  0  0
  -26.4308  -31.2707   21.0386 C   0  0  0  0  0  0  0  0  0  0  0  0
  -23.6268  -30.4386   20.6027 C   0  0  0  0  0  0  0  0  0  0  0  0
  -24.8478  -34.0998   26.3678 C   0  0  0  0  0  0  0  0  0  0  0  0
  -29.0311  -14.2957   22.7177 C   0  0  0  0  0  0  0  0  0  0  0  0
  -24.5341  -32.6238   26.1445 C   0  0  0  0  0  0  0  0  0  0  0  0
  -28.4073  -13.1559   21.9105 C   0  0  0  0  0  0  0  0  0  0  0  0
  -28.0472  -14.8721   23.7335 C   0  0  0  0  0  0  0  0  0  0  0  0
  -26.1285  -14.1567   22.3622 C   0  0  0  0  0  0  0  0  0  0  0  0
  -25.7208  -31.8993   25.4976 C   0  0  1  0  0  0  0  0  0  0  0  0
  -25.2671  -31.9778   21.7265 C   0  0  1  0  0  0  0  0  0  0  0  0
  -27.0645  -13.5805   21.2860 C   0  0  2  0  0  0  0  0  0  0  0  0
  -24.4457  -19.3347   17.6840 C   0  0  0  0  0  0  0  0  0  0  0  0
  -20.0108  -33.9465   16.3880 C   0  0  0  0  0  0  0  0  0  0  0  0
  -20.7572  -32.1557   22.7210 C   0  0  0  0  0  0  0  0  0  0  0  0
  -19.2390  -32.5735   20.7745 C   0  0  0  0  0  0  0  0  0  0  0  0
  -20.6221  -34.4333   21.6970 C   0  0  0  0  0  0  0  0  0  0  0  0
  -23.5762  -32.7843   15.7451 C   0  0  0  0  0  0  0  0  0  0  0  0
  -24.5579  -18.1821   22.5364 C   0  0  0  0  0  0  0  0  0  0  0  0
  -25.8176  -23.7360   18.7837 C   0  0  0  0  0  0  0  0  0  0  0  0
  -26.3476  -25.0988   19.2023 C   0  0  0  0  0  0  0  0  0  1  0  0
  -26.4105  -21.4732   18.1450 C   0  0  1  0  0  0  0  0  0  0  0  0
  -21.7433  -32.5927   20.3753 C   0  0  1  0  0  0  0  0  0  0  0  0
  -21.4591  -33.6522   16.7467 C   0  0  2  0  0  0  0  0  0  0  0  0
  -20.6116  -32.9199   21.3900 C   0  0  0  0  0  0  0  0  0  0  0  0
  -25.5439  -11.6432   21.1547 N   0  0  0  0  0  0  0  0  0  0  0  0
  -26.4187  -12.4413   20.5192 N   0  0  0  0  0  0  0  0  0  0  0  0
  -23.9991  -31.8019   21.0156 N   0  0  0  0  0  0  0  0  0  0  0  0
  -26.7954  -15.2564   23.0769 N   0  0  0  0  0  0  0  0  0  0  0  0
  -27.4672  -12.8065   18.4268 N   0  0  0  0  0  0  0  0  0  0  0  0
  -24.8372   -9.2157   17.6616 N   0  0  0  0  0  0  0  0  0  0  0  0
  -25.7813  -32.1929   24.0817 N   0  0  0  0  0  0  0  0  0  0  0  0
  -21.6461  -33.3226   19.1159 N   0  0  0  0  0  0  0  0  0  0  0  0
  -25.1495  -16.8627   22.5252 N   0  0  0  0  0  0  0  0  0  0  0  0
  -26.9018  -22.7912   18.5554 N   0  0  0  0  0  0  0  0  0  0  0  0
  -22.1384  -33.0979   15.5417 N   0  3  0  0  0  0  0  0  0  0  0  0
  -26.3583  -10.6457   16.7128 O   0  0  0  0  0  0  0  0  0  0  0  0
  -24.2741  -30.5769   23.3471 O   0  0  0  0  0  0  0  0  0  0  0  0
  -23.3973  -34.0404   21.2669 O   0  0  0  0  0  0  0  0  0  0  0  0
  -21.5431  -31.4542   17.7463 O   0  0  0  0  0  0  0  0  0  0  0  0
  -26.9545  -17.4504   23.8111 O   0  0  0  0  0  0  0  0  0  0  0  0
  -21.4931   -6.7343   21.3623 O   0  0  0  0  0  0  0  0  0  0  0  0
  -25.2428  -25.9816   19.3937 O   0  0  0  0  0  0  0  0  0  1  0  0
  -22.1481   -3.9420   26.0716 F   0  0  0  0  0  0  0  0  0  0  0  0
  -21.8911   -3.9987   21.3455 F   0  0  0  0  0  0  0  0  0  0  0  0
  -27.7849  -20.6564   17.3363 Cl  0  0  0  0  0  0  0  0  0  0  0  0
  1  2  1  0  0  0  0
  1  5  2  0  0  0  0
  2  6  2  0  0  0  0
  3 10  2  0  0  0  0
  3 18  1  0  0  0  0
  4 11  1  0  0  0  0
  4 18  2  0  0  0  0
  5 20  1  0  0  0  0
  6 22  1  0  0  0  0
  7 12  2  0  0  0  0
  7 21  1  0  0  0  0
  8  9  2  0  0  0  0
  8 24  1  0  0  0  0
  9 25  1  0  0  0  0
 10 27  1  0  0  0  0
 11 27  2  0  0  0  0
 12 28  1  0  0  0  0
 13 14  2  0  0  0  0
 13 29  1  0  0  0  0
 14 30  1  0  0  0  0
 15 23  1  0  0  0  0
 15 28  2  0  0  0  0
 16 24  2  0  0  0  0
 16 26  1  0  0  0  0
 17 30  2  0  0  0  0
 17 31  1  0  0  0  0
 18 32  1  0  0  0  0
 19 32  1  0  0  0  0
 19 33  2  0  0  0  0
 19 34  1  0  0  0  0
 20 22  2  0  0  0  0
 20 39  1  0  0  0  0
 21 23  2  0  0  0  0
 21 40  1  0  0  0  0
 22 48  1  0  0  0  0
 23 41  1  0  0  0  0
 24 57  1  0  0  0  0
 25 26  2  0  0  0  0
 25 60  1  0  0  0  0
 26 51  1  0  0  0  0
 27 80  1  0  0  0  0
 28 81  1  0  0  0  0
 29 31  2  0  0  0  0
 29 80  1  0  0  0  0
 30 82  1  0  0  0  0
 31 83  1  0  0  0  0
 32 64  2  0  0  0  0
 33 65  1  0  0  0  0
 33 68  1  0  0  0  0
 34 69  1  0  0  0  0
 34 75  2  0  0  0  0
 35 49  1  0  0  0  0
 35 70  1  0  0  0  0
 35 76  2  0  0  0  0
 36 61  1  0  0  0  0
 36 66  1  0  0  0  0
 36 77  2  0  0  0  0
 37 62  1  0  0  0  0
 37 71  1  0  0  0  0
 37 78  2  0  0  0  0
 38 67  1  0  0  0  0
 38 72  1  0  0  0  0
 38 79  2  0  0  0  0
 39 42  1  0  0  0  0
 40 49  1  0  0  0  0
 41 66  1  0  0  0  0
 42 44  1  0  0  0  0
 43 45  1  0  0  0  0
 43 46  1  0  0  0  0
 44 48  1  0  0  0  0
 45 50  1  0  0  0  0
 46 67  1  0  0  0  0
 47 50  1  0  0  0  0
 47 67  1  0  0  0  0
 48 70  1  0  0  0  0
 49 66  1  0  0  0  0
 50 65  1  0  0  0  0
 52 62  1  0  0  0  0
 53 63  1  0  0  0  0
 54 63  1  0  0  0  0
 55 63  1  0  0  0  0
 56 74  1  0  0  0  0
 57 72  1  0  0  0  0
 58 59  1  0  0  0  0
 58 73  1  0  0  0  0
 59 81  1  0  0  0  0
 60 73  1  0  0  0  0
 60 84  1  0  0  0  0
 61 63  1  0  0  0  0
 61 71  1  0  0  0  0
 62 74  1  0  0  0  0
 64 65  1  0  0  0  0
M  CHG  1  74   1
M  ISO  4  38 100  59 101  72 100  81 101
M  END
> <Batch ID>
0044

> <Smiles>
CNC(C)C(=O)NC(C(=O)N1Cc2cc([101O:1][101CH2:1]CNC(Cl)c3ccc(C[100NH:0][100C:0](=O)N4CCCC(n5nc(-c6ccc(Oc7ccc(F)cc7F)cc6)c(C(N)=O)c5N)C4)cc3C)ccc2CC1C(=O)NC1CCCc2ccccc21)C(C)(C)C

> <Shape>
0.233

> <Color>
0.095

> <Negative vol penalty>
0.000

$$$$

  -OEChem-04042322183D

 89 98  0     1  0  0  0  0  0999 V2000
  -27.3095  -38.1207   22.4295 C   0  0  0  0  0  0  0  0  0  0  0  0
  -27.8397  -37.1070   21.6380 C   0  0  0  0  0  0  0  0  0  0  0  0
  -27.4380   -8.3181   20.2647 C   0  0  0  0  0  0  0  0  0  0  0  0
  -28.6143  -10.3094   19.5659 C   0  0  0  0  0  0  0  0  0  0  0  0
  -26.5786  -37.8008   23.5729 C   0  0  0  0  0  0  0  0  0  0  0  0
  -27.6403  -35.7725   21.9900 C   0  0  0  0  0  0  0  0  0  0  0  0
  -26.7547  -29.2973   19.0570 C   0  0  0  0  0  0  0  0  0  0  0  0
  -26.1920  -20.0311   18.7400 C   0  0  0  0  0  0  0  0  0  0  0  0
  -25.4797  -18.8996   19.1372 C   0  0  0  0  0  0  0  0  0  0  0  0
  -28.2928   -7.5394   19.4847 C   0  0  0  0  0  0  0  0  0  0  0  0
  -29.4692   -9.5306   18.7859 C   0  0  0  0  0  0  0  0  0  0  0  0
  -27.2738  -28.0050   19.1226 C   0  0  0  0  0  0  0  0  0  0  0  0
  -31.4330   -6.3049   19.7041 C   0  0  0  0  0  0  0  0  0  0  0  0
  -31.9503   -5.1414   20.2735 C   0  0  0  0  0  0  0  0  0  0  0  0
  -25.9274  -27.5699   21.0764 C   0  0  0  0  0  0  0  0  0  0  0  0
  -30.9119   -3.8276   18.5320 C   0  0  0  0  0  0  0  0  0  0  0  0
  -27.5986   -9.7031   20.3052 C   0  0  0  0  0  0  0  0  0  0  0  0
  -26.5256  -10.4286   22.5030 C   0  0  0  0  0  0  0  0  0  0  0  0
  -26.3620  -36.4616   23.9339 C   0  0  0  0  0  0  0  0  0  0  0  0
  -25.8247  -29.7399   20.0086 C   0  0  0  0  0  0  0  0  0  0  0  0
  -26.9070  -35.4344   23.1401 C   0  0  0  0  0  0  0  0  0  0  0  0
  -25.3961  -28.8674   21.0191 C   0  0  0  0  0  0  0  0  0  0  0  0
  -27.5140  -20.2029   19.1507 C   0  0  0  0  0  0  0  0  0  0  0  0
  -28.1235  -19.2431   19.9587 C   0  0  0  0  0  0  0  0  0  0  0  0
  -26.0892  -17.9398   19.9452 C   0  0  0  0  0  0  0  0  0  0  0  0
  -29.3084   -8.1456   18.7453 C   0  0  0  0  0  0  0  0  0  0  0  0
  -26.8624  -27.1420   20.1342 C   0  0  0  0  0  0  0  0  0  0  0  0
  -30.6551   -6.2299   18.5487 C   0  0  0  0  0  0  0  0  0  0  0  0
  -31.6897   -3.9027   19.6874 C   0  0  0  0  0  0  0  0  0  0  0  0
  -30.3945   -4.9912   17.9627 C   0  0  0  0  0  0  0  0  0  0  0  0
  -27.4112  -18.1116   20.3560 C   0  0  0  0  0  0  0  0  0  0  0  0
  -26.7156  -10.5082   21.1103 C   0  0  0  0  0  0  0  0  0  0  0  0
  -25.5928  -11.3984   22.7782 C   0  0  0  0  0  0  0  0  0  0  0  0
  -29.1687  -23.5855   19.3387 C   0  0  0  0  0  0  0  0  0  0  0  0
  -32.3798  -22.8282   20.9511 C   0  0  0  0  0  0  0  0  0  0  0  0
  -30.4469  -23.6956   19.7313 C   0  0  0  0  0  0  0  0  0  0  0  0
  -31.1053  -22.7179   20.5600 C   0  0  0  0  0  0  0  0  0  0  0  0
  -27.1377   -9.5561   23.4620 C   0  0  0  0  0  0  0  0  0  0  0  0
  -25.7790  -32.0444   22.1974 C   0  0  0  0  0  0  0  0  0  0  0  0
  -22.7004  -31.0930   22.5710 C   0  0  0  0  0  0  0  0  0  0  0  0
  -20.9092  -27.9640   22.7067 C   0  0  0  0  0  0  0  0  0  0  0  0
  -24.0440  -16.4712   20.0263 C   0  0  0  0  0  0  0  0  0  0  0  0
  -25.6056  -36.1655   25.2047 C   0  0  0  0  0  0  0  0  0  0  0  0
  -25.2541  -31.1280   19.9082 C   0  0  0  0  0  0  0  0  0  0  0  0
  -24.3847  -29.2873   22.0531 C   0  0  0  0  0  0  0  0  0  0  0  0
  -28.4851  -24.6113   18.4718 C   0  0  0  0  0  0  0  0  0  0  0  0
  -25.1216  -34.7211   25.3030 C   0  0  0  0  0  0  0  0  0  0  0  0
  -21.9102  -13.7246   20.7879 C   0  0  0  0  0  0  0  0  0  0  0  0
  -26.2407  -33.7561   24.9249 C   0  0  0  0  0  0  0  0  0  0  0  0
  -22.8831  -12.5824   21.0897 C   0  0  0  0  0  0  0  0  0  0  0  0
  -26.3252  -23.8214   19.5256 C   0  0  0  0  0  0  0  0  0  0  0  0
  -22.4222  -14.6237   19.6640 C   0  0  0  0  0  0  0  0  0  0  0  0
  -24.7544  -14.0027   20.1580 C   0  0  0  0  0  0  0  0  0  0  0  0
  -27.1220  -22.8918   20.4397 C   0  0  0  0  0  0  0  0  0  0  0  0
  -26.6912  -33.9745   23.4754 C   0  0  1  0  0  0  0  0  0  0  0  0
  -24.6992  -31.6432   21.2326 C   0  0  1  0  0  0  0  0  0  0  0  0
  -24.3125  -13.1077   21.3274 C   0  0  2  0  0  0  0  0  0  0  0  0
  -27.1448  -25.0308   19.0761 C   0  0  1  0  0  0  0  0  0  1  0  0
  -29.5383  -19.4091   20.4083 C   0  0  0  0  0  0  0  0  0  0  0  0
  -18.5263  -27.4221   22.1364 C   0  0  0  0  0  0  0  0  0  0  0  0
  -22.1899  -31.5446   25.5451 C   0  0  0  0  0  0  0  0  0  0  0  0
  -20.5744  -29.6328   25.4869 C   0  0  0  0  0  0  0  0  0  0  0  0
  -20.1482  -31.6660   24.1060 C   0  0  0  0  0  0  0  0  0  0  0  0
  -21.7239  -25.8487   20.8038 C   0  0  0  0  0  0  0  0  0  0  0  0
  -28.2594  -21.4283   18.7106 C   0  0  0  0  0  0  0  0  0  0  0  0
  -21.9932  -30.0743   23.4319 C   0  0  1  0  0  0  0  0  0  0  0  0
  -19.9680  -27.4092   21.6528 C   0  0  2  0  0  0  0  0  0  0  0  0
  -21.2534  -30.7258   24.6343 C   0  0  0  0  0  0  0  0  0  0  0  0
  -25.9637  -11.4537   20.5406 N   0  0  0  0  0  0  0  0  0  0  0  0
  -25.2921  -11.9771   21.5804 N   0  0  0  0  0  0  0  0  0  0  0  0
  -23.8608  -30.6564   21.9163 N   0  0  0  0  0  0  0  0  0  0  0  0
  -23.7796  -15.0868   19.9600 N   0  0  0  0  0  0  0  0  0  0  0  0
  -25.0085  -11.8040   23.9256 N   0  0  0  0  0  0  0  0  0  0  0  0
  -28.3261   -9.9701   24.0790 N   0  0  0  0  0  0  0  0  0  0  0  0
  -25.3627  -16.7916   20.3471 N   0  0  0  0  0  0  0  0  0  0  0  0
  -25.7451  -33.3783   22.5568 N   0  0  0  0  0  0  0  0  0  0  0  0
  -21.1263  -29.3151   22.5372 N   0  0  0  0  0  0  0  0  0  0  0  0
  -28.4190  -22.4459   19.8061 N   0  3  1  0  0  0  0  0  0  0  0  0
  -20.3379  -26.0056   21.3152 N   0  3  0  0  0  0  0  0  0  0  0  0
  -26.6543   -8.4352   23.7508 O   0  0  0  0  0  0  0  0  0  0  0  0
  -26.5823  -31.2056   22.5881 O   0  0  0  0  0  0  0  0  0  0  0  0
  -22.2362  -32.2320   22.4771 O   0  0  0  0  0  0  0  0  0  0  0  0
  -21.3996  -27.2691   23.5940 O   0  0  0  0  0  0  0  0  0  0  0  0
  -23.1591  -17.3105   19.8409 O   0  0  0  0  0  0  0  0  0  0  0  0
  -30.1429   -7.3860   17.9843 O   0  0  0  0  0  0  0  0  0  0  0  0
  -27.3680  -25.8804   20.2009 O   0  0  0  0  0  0  0  0  0  1  0  0
  -32.1878   -2.7856   20.2334 F   0  0  0  0  0  0  0  0  0  0  0  0
  -29.6489   -4.9129   16.8520 F   0  0  0  0  0  0  0  0  0  0  0  0
  -27.9984  -17.1891   21.1334 F   0  0  0  0  0  0  0  0  0  0  0  0
  1  2  1  0  0  0  0
  1  5  2  0  0  0  0
  2  6  2  0  0  0  0
  3 10  2  0  0  0  0
  3 17  1  0  0  0  0
  4 11  1  0  0  0  0
  4 17  2  0  0  0  0
  5 19  1  0  0  0  0
  6 21  1  0  0  0  0
  7 12  2  0  0  0  0
  7 20  1  0  0  0  0
  8  9  2  0  0  0  0
  8 23  1  0  0  0  0
  9 25  1  0  0  0  0
 10 26  1  0  0  0  0
 11 26  2  0  0  0  0
 12 27  1  0  0  0  0
 13 14  2  0  0  0  0
 13 28  1  0  0  0  0
 14 29  1  0  0  0  0
 15 22  1  0  0  0  0
 15 27  2  0  0  0  0
 16 29  2  0  0  0  0
 16 30  1  0  0  0  0
 17 32  1  0  0  0  0
 18 32  1  0  0  0  0
 18 33  2  0  0  0  0
 18 38  1  0  0  0  0
 19 21  2  0  0  0  0
 19 43  1  0  0  0  0
 20 22  2  0  0  0  0
 20 44  1  0  0  0  0
 21 55  1  0  0  0  0
 22 45  1  0  0  0  0
 23 24  2  0  0  0  0
 23 65  1  0  0  0  0
 24 31  1  0  0  0  0
 24 59  1  0  0  0  0
 25 31  2  0  0  0  0
 25 75  1  0  0  0  0
 26 85  1  0  0  0  0
 27 86  1  0  0  0  0
 28 30  2  0  0  0  0
 28 85  1  0  0  0  0
 29 87  1  0  0  0  0
 30 88  1  0  0  0  0
 31 89  1  0  0  0  0
 32 69  2  0  0  0  0
 33 70  1  0  0  0  0
 33 73  1  0  0  0  0
 34 36  2  0  0  0  0
 34 46  1  0  0  0  0
 34 78  1  0  0  0  0
 35 37  2  0  0  0  0
 36 37  1  0  0  0  0
 38 74  1  0  0  0  0
 38 80  2  0  0  0  0
 39 56  1  0  0  0  0
 39 76  1  0  0  0  0
 39 81  2  0  0  0  0
 40 66  1  0  0  0  0
 40 71  1  0  0  0  0
 40 82  2  0  0  0  0
 41 67  1  0  0  0  0
 41 77  1  0  0  0  0
 41 83  2  0  0  0  0
 42 72  1  0  0  0  0
 42 75  1  0  0  0  0
 42 84  2  0  0  0  0
 43 47  1  0  0  0  0
 44 56  1  0  0  0  0
 45 71  1  0  0  0  0
 46 58  1  0  0  0  0
 47 49  1  0  0  0  0
 48 50  1  0  0  0  0
 48 52  1  0  0  0  0
 49 55  1  0  0  0  0
 50 57  1  0  0  0  0
 51 54  1  0  0  0  0
 51 58  1  0  0  0  0
 52 72  1  0  0  0  0
 53 57  1  0  0  0  0
 53 72  1  0  0  0  0
 54 78  1  0  0  0  0
 55 76  1  0  0  0  0
 56 71  1  0  0  0  0
 57 70  1  0  0  0  0
 58 86  1  0  0  0  0
 60 67  1  0  0  0  0
 61 68  1  0  0  0  0
 62 68  1  0  0  0  0
 63 68  1  0  0  0  0
 64 79  1  0  0  0  0
 65 78  1  0  0  0  0
 66 68  1  0  0  0  0
 66 77  1  0  0  0  0
 67 79  1  0  0  0  0
 69 70  1  0  0  0  0
M  CHG  2  78   1  79   1
M  ISO  4  42 100  58 101  75 100  86 101
M  END
> <Batch ID>
0044

> <Smiles>
C=CC=C1C[101CH:1]([101O:1]c2ccc3c(c2)CN(C(=O)C(NC(=O)C(C)NC)C(C)(C)C)C(C(=O)NC2CCCc4ccccc42)C3)CCN1Cc1ccc([100NH:0][100C:0](=O)N2CCCC(n3nc(-c4ccc(Oc5ccc(F)cc5F)cc4)c(C(N)=O)c3N)C2)c(F)c1C

> <Shape>
0.261

> <Color>
0.075

> <Negative vol penalty>
0.000

$$$$

  -OEChem-04042322183D

 88 97  0     1  0  0  0  0  0999 V2000
  -25.0419  -35.3264   23.9938 C   0  0  0  0  0  0  0  0  0  0  0  0
  -25.8058  -34.2530   23.5468 C   0  0  0  0  0  0  0  0  0  0  0  0
  -26.5552  -13.4260   18.5737 C   0  0  0  0  0  0  0  0  0  0  0  0
  -25.4723  -13.8437   20.6926 C   0  0  0  0  0  0  0  0  0  0  0  0
  -23.7863  -35.1006   24.5563 C   0  0  0  0  0  0  0  0  0  0  0  0
  -25.3148  -32.9531   23.6630 C   0  0  0  0  0  0  0  0  0  0  0  0
  -26.0293  -30.2235   19.4578 C   0  0  0  0  0  0  0  0  0  0  0  0
  -25.7286  -12.3212   18.3690 C   0  0  0  0  0  0  0  0  0  0  0  0
  -24.6457  -12.7390   20.4880 C   0  0  0  0  0  0  0  0  0  0  0  0
  -27.3083  -29.7132   19.2395 C   0  0  0  0  0  0  0  0  0  0  0  0
  -24.8700   -9.3761   20.7557 C   0  0  0  0  0  0  0  0  0  0  0  0
  -24.6804   -8.5015   21.8256 C   0  0  0  0  0  0  0  0  0  0  0  0
  -26.5862  -27.5655   20.0672 C   0  0  0  0  0  0  0  0  0  0  0  0
  -31.4084  -24.1462   19.8149 C   0  0  0  0  0  0  0  0  0  0  0  0
  -33.4010  -22.3392   20.5546 C   0  0  0  0  0  0  0  0  0  0  0  0
  -22.3053   -8.9396   21.7629 C   0  0  0  0  0  0  0  0  0  0  0  0
  -26.4271  -14.1872   19.7355 C   0  0  0  0  0  0  0  0  0  0  0  0
  -28.6866  -15.3353   20.0256 C   0  0  0  0  0  0  0  0  0  0  0  0
  -23.2757  -33.7980   24.6706 C   0  0  0  0  0  0  0  0  0  0  0  0
  -25.0204  -29.4101   19.9935 C   0  0  0  0  0  0  0  0  0  0  0  0
  -24.0518  -32.7096   24.2287 C   0  0  0  0  0  0  0  0  0  0  0  0
  -25.2945  -28.0671   20.2889 C   0  0  0  0  0  0  0  0  0  0  0  0
  -32.2870  -24.4624   20.8511 C   0  0  0  0  0  0  0  0  0  0  0  0
  -31.5260  -22.9263   19.1486 C   0  0  0  0  0  0  0  0  0  0  0  0
  -33.2833  -23.5590   21.2209 C   0  0  0  0  0  0  0  0  0  0  0  0
  -24.7739  -11.9777   19.3261 C   0  0  0  0  0  0  0  0  0  0  0  0
  -27.5877  -28.3849   19.5469 C   0  0  0  0  0  0  0  0  0  0  0  0
  -23.7772  -10.0325   20.1894 C   0  0  0  0  0  0  0  0  0  0  0  0
  -23.3981   -8.2832   22.3292 C   0  0  0  0  0  0  0  0  0  0  0  0
  -22.4949   -9.8143   20.6930 C   0  0  0  0  0  0  0  0  0  0  0  0
  -32.5223  -22.0229   19.5185 C   0  0  0  0  0  0  0  0  0  0  0  0
  -27.2810  -15.3282   19.9477 C   0  0  0  0  0  0  0  0  0  0  0  0
  -29.0123  -16.6531   20.2345 C   0  0  0  0  0  0  0  0  0  0  0  0
  -30.4327  -27.4725   21.0160 C   0  0  0  0  0  0  0  0  0  0  0  0
  -29.6149  -14.2478   19.9185 C   0  0  0  0  0  0  0  0  0  0  0  0
  -23.2607  -29.4687   22.6400 C   0  0  0  0  0  0  0  0  0  0  0  0
  -21.7530  -26.9685   21.2265 C   0  0  0  0  0  0  0  0  0  0  0  0
  -22.7057  -24.0422   19.3433 C   0  0  0  0  0  0  0  0  0  0  0  0
  -28.3691  -22.0706   19.0586 C   0  0  0  0  0  0  0  0  0  0  0  0
  -21.9332  -33.5998   25.3288 C   0  0  0  0  0  0  0  0  0  0  0  0
  -23.6387  -29.9684   20.1980 C   0  0  0  0  0  0  0  0  0  0  0  0
  -24.2409  -27.1469   20.8470 C   0  0  0  0  0  0  0  0  0  0  0  0
  -21.3270  -32.2223   25.0732 C   0  0  0  0  0  0  0  0  0  0  0  0
  -31.7864  -27.9740   18.4704 C   0  0  0  0  0  0  0  0  0  0  0  0
  -26.0960  -20.6227   21.3852 C   0  0  0  0  0  0  0  0  0  0  0  0
  -22.3705  -31.1311   25.2906 C   0  0  0  0  0  0  0  0  0  0  0  0
  -30.9239  -29.0758   19.0567 C   0  0  0  0  0  0  0  0  0  0  0  0
  -26.3132  -19.1175   21.2204 C   0  0  0  0  0  0  0  0  0  0  0  0
  -32.4953  -27.2393   19.5916 C   0  0  0  0  0  0  0  0  0  0  0  0
  -26.2145  -21.3592   20.0527 C   0  0  0  0  0  0  0  0  0  0  0  0
  -27.6814  -19.5976   19.1477 C   0  0  0  0  0  0  0  0  0  0  0  0
  -23.5432  -31.2869   24.3149 C   0  0  1  0  0  0  0  0  0  0  0  0
  -29.9086  -28.5060   20.0316 C   0  0  1  0  0  0  0  0  0  1  0  0
  -22.8265  -29.1904   21.2287 C   0  0  1  0  0  0  0  0  0  0  0  0
  -27.6269  -18.8190   20.4733 C   0  0  2  0  0  0  0  0  0  0  0  0
  -34.2334  -23.8750   22.3291 C   0  0  0  0  0  0  0  0  0  0  0  0
  -21.4373  -22.7224   17.6267 C   0  0  0  0  0  0  0  0  0  0  0  0
  -20.9468  -25.2167   23.5911 C   0  0  0  0  0  0  0  0  0  0  0  0
  -21.1682  -23.2196   22.0975 C   0  0  0  0  0  0  0  0  0  0  0  0
  -19.4852  -24.9851   21.5751 C   0  0  0  0  0  0  0  0  0  0  0  0
  -24.8602  -24.3586   17.3390 C   0  0  0  0  0  0  0  0  0  0  0  0
  -32.1406  -25.7800   21.5560 C   0  0  0  0  0  0  0  0  0  0  0  0
  -30.5651  -22.6254   18.0442 C   0  0  0  0  0  0  0  0  0  0  0  0
  -21.9411  -25.4706   21.2219 C   0  0  1  0  0  0  0  0  0  0  0  0
  -22.4817  -23.8027   17.8611 C   0  0  2  0  0  0  0  0  0  0  0  0
  -20.9073  -24.7407   22.1252 C   0  0  0  0  0  0  0  0  0  0  0  0
  -26.7503  -16.5450   20.0953 N   0  0  0  0  0  0  0  0  0  0  0  0
  -27.8281  -17.3290   20.2681 N   0  0  0  0  0  0  0  0  0  0  0  0
  -31.6119  -26.8136   20.6755 N   0  0  0  0  0  0  0  0  0  0  0  0
  -22.9071  -27.7412   21.0351 N   0  0  0  0  0  0  0  0  0  0  0  0
  -27.4830  -21.0342   19.3960 N   0  0  0  0  0  0  0  0  0  0  0  0
  -30.1932  -17.2882   20.3909 N   0  0  0  0  0  0  0  0  0  0  0  0
  -29.1109  -12.9578   19.7039 N   0  0  0  0  0  0  0  0  0  0  0  0
  -23.1767  -30.7995   23.0024 N   0  0  0  0  0  0  0  0  0  0  0  0
  -21.9076  -25.0593   19.8226 N   0  0  0  0  0  0  0  0  0  0  0  0
  -29.5514  -21.6753   18.4449 N   0  0  0  0  0  0  0  0  0  0  0  0
  -23.7518  -23.3782   17.2072 N   0  3  0  0  0  0  0  0  0  0  0  0
  -29.7641  -27.2127   22.0212 O   0  0  0  0  0  0  0  0  0  0  0  0
  -30.8537  -14.4128   20.0270 O   0  0  0  0  0  0  0  0  0  0  0  0
  -23.6423  -28.5443   23.3481 O   0  0  0  0  0  0  0  0  0  0  0  0
  -20.6226  -27.4355   21.3867 O   0  0  0  0  0  0  0  0  0  0  0  0
  -23.5058  -23.3896   20.0100 O   0  0  0  0  0  0  0  0  0  0  0  0
  -28.1270  -23.2597   19.2921 O   0  0  0  0  0  0  0  0  0  0  0  0
  -23.9670  -10.8999   19.1267 O   0  0  0  0  0  0  0  0  0  0  0  0
  -28.8354  -27.8845   19.3355 O   0  0  0  0  0  0  0  0  0  1  0  0
  -23.2160   -7.4422   23.3556 F   0  0  0  0  0  0  0  0  0  0  0  0
  -21.4411  -10.4411   20.1523 F   0  0  0  0  0  0  0  0  0  0  0  0
  -32.6983  -20.5042   18.7173 Cl  0  0  0  0  0  0  0  0  0  0  0  0
  1  2  1  0  0  0  0
  1  5  2  0  0  0  0
  2  6  2  0  0  0  0
  3  8  2  0  0  0  0
  3 17  1  0  0  0  0
  4  9  1  0  0  0  0
  4 17  2  0  0  0  0
  5 19  1  0  0  0  0
  6 21  1  0  0  0  0
  7 10  2  0  0  0  0
  7 20  1  0  0  0  0
  8 26  1  0  0  0  0
  9 26  2  0  0  0  0
 10 27  1  0  0  0  0
 11 12  2  0  0  0  0
 11 28  1  0  0  0  0
 12 29  1  0  0  0  0
 13 22  1  0  0  0  0
 13 27  2  0  0  0  0
 14 23  1  0  0  0  0
 14 24  2  0  0  0  0
 15 25  1  0  0  0  0
 15 31  2  0  0  0  0
 16 29  2  0  0  0  0
 16 30  1  0  0  0  0
 17 32  1  0  0  0  0
 18 32  1  0  0  0  0
 18 33  2  0  0  0  0
 18 35  1  0  0  0  0
 19 21  2  0  0  0  0
 19 40  1  0  0  0  0
 20 22  2  0  0  0  0
 20 41  1  0  0  0  0
 21 52  1  0  0  0  0
 22 42  1  0  0  0  0
 23 25  2  0  0  0  0
 23 62  1  0  0  0  0
 24 31  1  0  0  0  0
 24 63  1  0  0  0  0
 25 56  1  0  0  0  0
 26 84  1  0  0  0  0
 27 85  1  0  0  0  0
 28 30  2  0  0  0  0
 28 84  1  0  0  0  0
 29 86  1  0  0  0  0
 30 87  1  0  0  0  0
 31 88  1  0  0  0  0
 32 67  2  0  0  0  0
 33 68  1  0  0  0  0
 33 72  1  0  0  0  0
 34 53  1  0  0  0  0
 34 69  1  0  0  0  0
 34 78  2  0  0  0  0
 35 73  1  0  0  0  0
 35 79  2  0  0  0  0
 36 54  1  0  0  0  0
 36 74  1  0  0  0  0
 36 80  2  0  0  0  0
 37 64  1  0  0  0  0
 37 70  1  0  0  0  0
 37 81  2  0  0  0  0
 38 65  1  0  0  0  0
 38 75  1  0  0  0  0
 38 82  2  0  0  0  0
 39 71  1  0  0  0  0
 39 76  1  0  0  0  0
 39 83  2  0  0  0  0
 40 43  1  0  0  0  0
 41 54  1  0  0  0  0
 42 70  1  0  0  0  0
 43 46  1  0  0  0  0
 44 47  1  0  0  0  0
 44 49  1  0  0  0  0
 45 48  1  0  0  0  0
 45 50  1  0  0  0  0
 46 52  1  0  0  0  0
 47 53  1  0  0  0  0
 48 55  1  0  0  0  0
 49 69  1  0  0  0  0
 50 71  1  0  0  0  0
 51 55  1  0  0  0  0
 51 71  1  0  0  0  0
 52 74  1  0  0  0  0
 53 85  1  0  0  0  0
 54 70  1  0  0  0  0
 55 68  1  0  0  0  0
 57 65  1  0  0  0  0
 58 66  1  0  0  0  0
 59 66  1  0  0  0  0
 60 66  1  0  0  0  0
 61 77  1  0  0  0  0
 62 69  1  0  0  0  0
 63 76  1  0  0  0  0
 64 66  1  0  0  0  0
 64 75  1  0  0  0  0
 65 77  1  0  0  0  0
 67 68  1  0  0  0  0
M  CHG  1  77   1
M  ISO  4  39 100  53 101  76 100  85 101
M  END
> <Batch ID>
0044

> <Smiles>
CNC(C)C(=O)NC(C(=O)N1Cc2cc([101O:1][101CH:1]3CCCN(Cc4cc(C[100NH:0][100C:0](=O)N5CCCC(n6nc(-c7ccc(Oc8ccc(F)cc8F)cc7)c(C(N)=O)c6N)C5)c(Cl)cc4C)C3=O)ccc2CC1C(=O)NC1CCCc2ccccc21)C(C)(C)C

> <Shape>
0.276

> <Color>
0.080

> <Negative vol penalty>
0.000

$$$$

  -OEChem-04042322183D

 86 94  0     1  0  0  0  0  0999 V2000
  -22.1064  -11.5081   19.9664 C   0  0  0  0  0  0  0  0  0  0  0  0
  -21.7133  -12.7998   20.3016 C   0  0  0  0  0  0  0  0  0  0  0  0
  -23.6755  -23.1429   16.0399 C   0  0  0  0  0  0  0  0  0  0  0  0
  -21.5406  -22.9714   17.1580 C   0  0  0  0  0  0  0  0  0  0  0  0
  -23.4521  -11.1499   20.0365 C   0  0  0  0  0  0  0  0  0  0  0  0
  -22.6656  -13.7338   20.7082 C   0  0  0  0  0  0  0  0  0  0  0  0
  -22.6273  -19.7552   19.5913 C   0  0  0  0  0  0  0  0  0  0  0  0
  -18.3102  -30.1329   22.4597 C   0  0  0  0  0  0  0  0  0  0  0  0
  -23.6002  -21.7949   15.6895 C   0  0  0  0  0  0  0  0  0  0  0  0
  -21.4653  -21.6234   16.8075 C   0  0  0  0  0  0  0  0  0  0  0  0
  -22.2321  -20.8493   20.3599 C   0  0  0  0  0  0  0  0  0  0  0  0
  -20.6822  -19.8032   14.0699 C   0  0  0  0  0  0  0  0  0  0  0  0
  -19.4689  -19.3324   13.5681 C   0  0  0  0  0  0  0  0  0  0  0  0
  -16.9799  -29.7134   22.4547 C   0  0  0  0  0  0  0  0  0  0  0  0
  -24.5179  -21.1774   21.0573 C   0  0  0  0  0  0  0  0  0  0  0  0
  -17.5296  -27.9519   24.0143 C   0  0  0  0  0  0  0  0  0  0  0  0
  -19.3251  -17.7568   15.3940 C   0  0  0  0  0  0  0  0  0  0  0  0
  -22.6457  -23.7311   16.7742 C   0  0  0  0  0  0  0  0  0  0  0  0
  -22.2472  -26.2225   16.3972 C   0  0  0  0  0  0  0  0  0  0  0  0
  -24.4225  -12.0828   20.4348 C   0  0  0  0  0  0  0  0  0  0  0  0
  -23.9714  -19.3567   19.5586 C   0  0  0  0  0  0  0  0  0  0  0  0
  -24.0253  -13.3874   20.7849 C   0  0  0  0  0  0  0  0  0  0  0  0
  -24.9280  -20.0795   20.2855 C   0  0  0  0  0  0  0  0  0  0  0  0
  -19.2502  -29.4618   23.2419 C   0  0  0  0  0  0  0  0  0  0  0  0
  -18.8599  -28.3714   24.0192 C   0  0  0  0  0  0  0  0  0  0  0  0
  -22.4952  -21.0351   16.0732 C   0  0  0  0  0  0  0  0  0  0  0  0
  -23.1770  -21.5588   21.0953 C   0  0  0  0  0  0  0  0  0  0  0  0
  -21.2170  -19.2508   15.2338 C   0  0  0  0  0  0  0  0  0  0  0  0
  -18.7903  -18.3093   14.2301 C   0  0  0  0  0  0  0  0  0  0  0  0
  -20.5384  -18.2276   15.8958 C   0  0  0  0  0  0  0  0  0  0  0  0
  -16.5896  -28.6230   23.2320 C   0  0  0  0  0  0  0  0  0  0  0  0
  -22.7231  -25.1234   17.1370 C   0  0  0  0  0  0  0  0  0  0  0  0
  -22.5612  -27.3161   17.1664 C   0  0  0  0  0  0  0  0  0  0  0  0
  -21.5807  -26.2521   15.1281 C   0  0  0  0  0  0  0  0  0  0  0  0
  -25.5529  -16.7290   20.3937 C   0  0  0  0  0  0  0  0  0  0  0  0
  -28.0595  -18.2751   19.0339 C   0  0  0  0  0  0  0  0  0  0  0  0
  -21.2167  -25.5833   24.5653 C   0  0  0  0  0  0  0  0  0  0  0  0
  -29.4797  -21.2371   18.1083 C   0  0  0  0  0  0  0  0  0  0  0  0
  -22.8834  -28.9333   22.7157 C   0  0  0  0  0  0  0  0  0  0  0  0
  -25.8590  -11.6356   20.5407 C   0  0  0  0  0  0  0  0  0  0  0  0
  -24.3857  -18.1907   18.7035 C   0  0  0  0  0  0  0  0  0  0  0  0
  -26.3867  -19.7048   20.2681 C   0  0  0  0  0  0  0  0  0  0  0  0
  -26.8525  -12.7918   20.6209 C   0  0  0  0  0  0  0  0  0  0  0  0
  -25.7946  -28.2087   20.7983 C   0  0  0  0  0  0  0  0  0  0  0  0
  -26.3779  -13.8345   21.6281 C   0  0  0  0  0  0  0  0  0  0  0  0
  -25.2551  -27.4414   19.5900 C   0  0  0  0  0  0  0  0  0  0  0  0
  -25.0253  -27.8679   22.0727 C   0  0  0  0  0  0  0  0  0  0  0  0
  -23.0233  -27.2654   20.7677 C   0  0  0  0  0  0  0  0  0  0  0  0
  -25.0317  -14.4359   21.2067 C   0  0  1  0  0  0  0  0  0  0  0  0
  -25.7007  -17.5595   19.1503 C   0  0  1  0  0  0  0  0  0  0  0  0
  -23.7313  -27.6181   19.4483 C   0  0  2  0  0  0  0  0  0  0  0  0
  -31.5503  -22.1843   17.0536 C   0  0  0  0  0  0  0  0  0  0  0  0
  -29.5890  -17.8212   21.6348 C   0  0  0  0  0  0  0  0  0  0  0  0
  -31.2270  -19.5639   20.8942 C   0  0  0  0  0  0  0  0  0  0  0  0
  -30.9384  -17.4777   19.5574 C   0  0  0  0  0  0  0  0  0  0  0  0
  -27.9431  -22.4025   15.8634 C   0  0  0  0  0  0  0  0  0  0  0  0
  -20.6689  -29.9283   23.2306 C   0  0  0  0  0  0  0  0  0  0  0  0
  -19.8541  -27.6327   24.8677 C   0  0  0  0  0  0  0  0  0  0  0  0
  -22.0839  -24.8819   23.5351 C   0  0  0  0  0  0  0  0  0  0  0  0
  -22.6517  -23.5645   24.0507 C   0  0  0  0  0  0  0  0  0  0  0  0
  -23.5555  -22.9005   23.0221 C   0  0  0  0  0  0  0  0  0  1  0  0
  -29.1186  -19.2325   19.5245 C   0  0  1  0  0  0  0  0  0  0  0  0
  -30.1368  -21.6777   16.8128 C   0  0  2  0  0  0  0  0  0  0  0  0
  -30.1906  -18.5300   20.4048 C   0  0  0  0  0  0  0  0  0  0  0  0
  -23.2961  -25.4858   18.2878 N   0  0  0  0  0  0  0  0  0  0  0  0
  -23.1823  -26.8249   18.2768 N   0  0  0  0  0  0  0  0  0  0  0  0
  -26.7412  -18.5534   19.4219 N   0  0  0  0  0  0  0  0  0  0  0  0
  -23.5867  -28.0579   21.8720 N   0  0  0  0  0  0  0  0  0  0  0  0
  -22.3640  -28.6405   16.9945 N   0  0  0  0  0  0  0  0  0  0  0  0
  -21.3362  -25.0373   14.4733 N   0  0  0  0  0  0  0  0  0  0  0  0
  -25.2208  -15.4095   20.1527 N   0  0  0  0  0  0  0  0  0  0  0  0
  -20.7097  -26.7790   24.0780 N   0  0  0  0  0  0  0  0  0  0  0  0
  -29.6566  -19.8890   18.3380 N   0  0  0  0  0  0  0  0  0  0  0  0
  -21.5249  -29.0605   22.4529 N   0  0  0  0  0  0  0  0  0  0  0  0
  -29.3477  -22.7707   16.1774 N   0  3  0  0  0  0  0  0  0  0  0  0
  -21.2275  -27.3252   14.5830 O   0  0  0  0  0  0  0  0  0  0  0  0
  -25.7287  -17.2466   21.4904 O   0  0  0  0  0  0  0  0  0  0  0  0
  -28.3888  -17.3198   18.3265 O   0  0  0  0  0  0  0  0  0  0  0  0
  -21.0019  -25.1311   25.6867 O   0  0  0  0  0  0  0  0  0  0  0  0
  -28.8735  -22.0120   18.8450 O   0  0  0  0  0  0  0  0  0  0  0  0
  -23.4270  -29.5596   23.6319 O   0  0  0  0  0  0  0  0  0  0  0  0
  -22.4213  -19.7198   15.7312 O   0  0  0  0  0  0  0  0  0  0  0  0
  -22.7938  -22.6266   21.8468 O   0  0  0  0  0  0  0  0  0  1  0  0
  -17.6245  -17.8583   13.7489 F   0  0  0  0  0  0  0  0  0  0  0  0
  -21.0466  -17.6938   17.0150 F   0  0  0  0  0  0  0  0  0  0  0  0
  -14.9489  -28.1047   23.2243 Cl  0  0  0  0  0  0  0  0  0  0  0  0
  1  2  1  0  0  0  0
  1  5  2  0  0  0  0
  2  6  2  0  0  0  0
  3  9  2  0  0  0  0
  3 18  1  0  0  0  0
  4 10  1  0  0  0  0
  4 18  2  0  0  0  0
  5 20  1  0  0  0  0
  6 22  1  0  0  0  0
  7 11  2  0  0  0  0
  7 21  1  0  0  0  0
  8 14  2  0  0  0  0
  8 24  1  0  0  0  0
  9 26  1  0  0  0  0
 10 26  2  0  0  0  0
 11 27  1  0  0  0  0
 12 13  2  0  0  0  0
 12 28  1  0  0  0  0
 13 29  1  0  0  0  0
 14 31  1  0  0  0  0
 15 23  1  0  0  0  0
 15 27  2  0  0  0  0
 16 25  1  0  0  0  0
 16 31  2  0  0  0  0
 17 29  2  0  0  0  0
 17 30  1  0  0  0  0
 18 32  1  0  0  0  0
 19 32  1  0  0  0  0
 19 33  2  0  0  0  0
 19 34  1  0  0  0  0
 20 22  2  0  0  0  0
 20 40  1  0  0  0  0
 21 23  2  0  0  0  0
 21 41  1  0  0  0  0
 22 49  1  0  0  0  0
 23 42  1  0  0  0  0
 24 25  2  0  0  0  0
 24 57  1  0  0  0  0
 25 58  1  0  0  0  0
 26 82  1  0  0  0  0
 27 83  1  0  0  0  0
 28 30  2  0  0  0  0
 28 82  1  0  0  0  0
 29 84  1  0  0  0  0
 30 85  1  0  0  0  0
 31 86  1  0  0  0  0
 32 65  2  0  0  0  0
 33 66  1  0  0  0  0
 33 69  1  0  0  0  0
 34 70  1  0  0  0  0
 34 76  2  0  0  0  0
 35 50  1  0  0  0  0
 35 71  1  0  0  0  0
 35 77  2  0  0  0  0
 36 62  1  0  0  0  0
 36 67  1  0  0  0  0
 36 78  2  0  0  0  0
 37 59  1  0  0  0  0
 37 72  1  0  0  0  0
 37 79  2  0  0  0  0
 38 63  1  0  0  0  0
 38 73  1  0  0  0  0
 38 80  2  0  0  0  0
 39 68  1  0  0  0  0
 39 74  1  0  0  0  0
 39 81  2  0  0  0  0
 40 43  1  0  0  0  0
 41 50  1  0  0  0  0
 42 67  1  0  0  0  0
 43 45  1  0  0  0  0
 44 46  1  0  0  0  0
 44 47  1  0  0  0  0
 45 49  1  0  0  0  0
 46 51  1  0  0  0  0
 47 68  1  0  0  0  0
 48 51  1  0  0  0  0
 48 68  1  0  0  0  0
 49 71  1  0  0  0  0
 50 67  1  0  0  0  0
 51 66  1  0  0  0  0
 52 63  1  0  0  0  0
 53 64  1  0  0  0  0
 54 64  1  0  0  0  0
 55 64  1  0  0  0  0
 56 75  1  0  0  0  0
 57 74  1  0  0  0  0
 58 72  1  0  0  0  0
 59 60  1  0  0  0  0
 60 61  1  0  0  0  0
 61 83  1  0  0  0  0
 62 64  1  0  0  0  0
 62 73  1  0  0  0  0
 63 75  1  0  0  0  0
 65 66  1  0  0  0  0
M  CHG  1  75   1
M  ISO  4  39 100  61 101  74 100  83 101
M  END
> <Batch ID>
0044

> <Smiles>
CNC(C)C(=O)NC(C(=O)N1Cc2cc([101O:1][101CH2:1]CCC(=O)NCc3cc(Cl)ccc3C[100NH:0][100C:0](=O)N3CCCC(n4nc(-c5ccc(Oc6ccc(F)cc6F)cc5)c(C(N)=O)c4N)C3)ccc2CC1C(=O)NC1CCCc2ccccc21)C(C)(C)C

> <Shape>
0.174

> <Color>
0.085

> <Negative vol penalty>
0.000

$$$$

  -OEChem-04042322183D

 89 98  0     1  0  0  0  0  0999 V2000
  -20.0898  -34.5987   16.7340 C   0  0  0  0  0  0  0  0  0  0  0  0
  -19.8989  -33.2823   17.1383 C   0  0  0  0  0  0  0  0  0  0  0  0
  -23.0458   -9.9529   19.9537 C   0  0  0  0  0  0  0  0  0  0  0  0
  -23.8204   -9.9398   22.2421 C   0  0  0  0  0  0  0  0  0  0  0  0
  -21.3821  -35.0982   16.5870 C   0  0  0  0  0  0  0  0  0  0  0  0
  -20.9999  -32.4685   17.4072 C   0  0  0  0  0  0  0  0  0  0  0  0
  -24.9534  -25.8506   19.5431 C   0  0  0  0  0  0  0  0  0  0  0  0
  -22.2832   -8.8124   20.2053 C   0  0  0  0  0  0  0  0  0  0  0  0
  -23.0578   -8.7994   22.4938 C   0  0  0  0  0  0  0  0  0  0  0  0
  -26.1953  -25.2185   19.4984 C   0  0  0  0  0  0  0  0  0  0  0  0
  -19.3307   -8.0641   21.6734 C   0  0  0  0  0  0  0  0  0  0  0  0
  -18.0201   -8.0424   21.1965 C   0  0  0  0  0  0  0  0  0  0  0  0
  -29.6464  -17.8491   22.3629 C   0  0  0  0  0  0  0  0  0  0  0  0
  -27.2208  -27.1786   20.4599 C   0  0  0  0  0  0  0  0  0  0  0  0
  -31.2616  -17.6366   20.5788 C   0  0  0  0  0  0  0  0  0  0  0  0
  -18.5367   -6.0935   19.8654 C   0  0  0  0  0  0  0  0  0  0  0  0
  -23.8145  -10.5166   20.9721 C   0  0  0  0  0  0  0  0  0  0  0  0
  -24.2003  -13.0356   20.8568 C   0  0  0  0  0  0  0  0  0  0  0  0
  -22.4991  -34.2857   16.8424 C   0  0  0  0  0  0  0  0  0  0  0  0
  -24.8368  -27.1577   20.0377 C   0  0  0  0  0  0  0  0  0  0  0  0
  -22.3120  -32.9613   17.2878 C   0  0  0  0  0  0  0  0  0  0  0  0
  -29.8383  -19.2306   22.3722 C   0  0  0  0  0  0  0  0  0  0  0  0
  -25.9756  -27.8232   20.5142 C   0  0  0  0  0  0  0  0  0  0  0  0
  -31.4535  -19.0182   20.5880 C   0  0  0  0  0  0  0  0  0  0  0  0
  -30.7419  -19.8152   21.4847 C   0  0  0  0  0  0  0  0  0  0  0  0
  -30.3581  -17.0521   21.4662 C   0  0  0  0  0  0  0  0  0  0  0  0
  -22.2892   -8.2357   21.4753 C   0  0  0  0  0  0  0  0  0  0  0  0
  -27.3295  -25.8833   19.9547 C   0  0  0  0  0  0  0  0  0  0  0  0
  -20.2444   -7.1005   21.2463 C   0  0  0  0  0  0  0  0  0  0  0  0
  -17.6231   -7.0571   20.2925 C   0  0  0  0  0  0  0  0  0  0  0  0
  -19.8474   -6.1152   20.3422 C   0  0  0  0  0  0  0  0  0  0  0  0
  -24.6029  -11.6944   20.7127 C   0  0  0  0  0  0  0  0  0  0  0  0
  -25.3032  -13.7667   20.4886 C   0  0  0  0  0  0  0  0  0  0  0  0
  -22.9419  -13.5727   21.2854 C   0  0  0  0  0  0  0  0  0  0  0  0
  -23.8714  -29.9897   18.9004 C   0  0  0  0  0  0  0  0  0  0  0  0
  -24.3644  -30.8468   22.0746 C   0  0  0  0  0  0  0  0  0  0  0  0
  -29.8241  -23.3820   20.7214 C   0  0  0  0  0  0  0  0  0  0  0  0
  -21.7308  -33.0128   22.1866 C   0  0  0  0  0  0  0  0  0  0  0  0
  -30.7881  -14.7147   20.6308 C   0  0  0  0  0  0  0  0  0  0  0  0
  -23.8754  -34.8799   16.6749 C   0  0  0  0  0  0  0  0  0  0  0  0
  -23.4827  -27.8106   20.1054 C   0  0  0  0  0  0  0  0  0  0  0  0
  -25.9026  -29.2246   21.0577 C   0  0  0  0  0  0  0  0  0  0  0  0
  -24.9682  -33.8230   16.5519 C   0  0  0  0  0  0  0  0  0  0  0  0
  -29.2782  -19.1221   25.5643 C   0  0  0  0  0  0  0  0  0  0  0  0
  -27.8182  -18.9506   25.1688 C   0  0  0  0  0  0  0  0  0  0  0  0
  -29.6159  -12.3278   18.2631 C   0  0  0  0  0  0  0  0  0  0  0  0
  -29.7782  -20.2630   24.6929 C   0  0  0  0  0  0  0  0  0  0  0  0
  -27.6787  -19.5139   23.7517 C   0  0  0  0  0  0  0  0  0  0  0  0
  -24.8283  -32.7983   17.6676 C   0  0  0  0  0  0  0  0  0  0  0  0
  -28.1741  -12.0606   18.7012 C   0  0  0  0  0  0  0  0  0  0  0  0
  -30.5426  -12.5369   19.4594 C   0  0  0  0  0  0  0  0  0  0  0  0
  -28.6577  -13.2911   20.8550 C   0  0  0  0  0  0  0  0  0  0  0  0
  -29.0537  -20.0732   23.3561 C   0  0  0  0  0  0  0  0  0  0  0  0
  -23.4947  -32.0485   17.5564 C   0  0  1  0  0  0  0  0  0  0  0  0
  -23.5440  -29.3330   20.2115 C   0  0  1  0  0  0  0  0  0  0  0  0
  -27.6744  -13.1385   19.6830 C   0  0  2  0  0  0  0  0  0  0  0  0
  -31.7337  -20.2869   18.4436 C   0  0  0  0  0  0  0  0  0  0  0  0
  -20.2808  -34.8731   23.0435 C   0  0  0  0  0  0  0  0  0  0  0  0
  -23.2384  -28.6530   23.8705 C   0  0  0  0  0  0  0  0  0  0  0  0
  -21.5109  -30.2840   24.6603 C   0  0  0  0  0  0  0  0  0  0  0  0
  -23.9295  -30.7339   25.0733 C   0  0  0  0  0  0  0  0  0  0  0  0
  -23.2717  -35.0551   20.6987 C   0  0  0  0  0  0  0  0  0  0  0  0
  -32.4268  -19.6192   19.6274 C   0  0  0  0  0  0  0  0  0  0  0  0
  -30.9479  -21.3024   21.4944 C   0  0  0  0  0  0  0  0  0  0  0  0
  -28.5553  -23.8471   20.0392 C   0  0  0  0  0  0  0  0  0  1  0  0
  -23.0099  -30.9575   22.7289 C   0  0  1  0  0  0  0  0  0  0  0  0
  -21.6565  -34.4922   22.5189 C   0  0  2  0  0  0  0  0  0  0  0  0
  -22.9249  -30.1512   24.0555 C   0  0  0  0  0  0  0  0  0  0  0  0
  -25.8632  -11.5774   20.2860 N   0  0  0  0  0  0  0  0  0  0  0  0
  -26.2620  -12.8544   20.1587 N   0  0  0  0  0  0  0  0  0  0  0  0
  -24.5504  -29.7845   21.1808 N   0  0  0  0  0  0  0  0  0  0  0  0
  -30.0076  -13.5750   20.3433 N   0  0  0  0  0  0  0  0  0  0  0  0
  -25.5368  -15.0944   20.4179 N   0  0  0  0  0  0  0  0  0  0  0  0
  -21.9162  -12.6806   21.6267 N   0  0  0  0  0  0  0  0  0  0  0  0
  -30.1625  -15.6487   21.4559 N   0  0  0  0  0  0  0  0  0  0  0  0
  -23.3069  -31.2410   18.7415 N   0  0  0  0  0  0  0  0  0  0  0  0
  -29.8494  -22.0044   20.8720 N   0  0  0  0  0  0  0  0  0  0  0  0
  -22.7443  -32.3842   22.8786 N   0  0  0  0  0  0  0  0  0  0  0  0
  -21.9401  -35.3104   21.3061 N   0  3  0  0  0  0  0  0  0  0  0  0
  -22.7279  -14.8071   21.3477 O   0  0  0  0  0  0  0  0  0  0  0  0
  -24.5846  -29.4052   18.0933 O   0  0  0  0  0  0  0  0  0  0  0  0
  -25.2375  -31.6736   22.3525 O   0  0  0  0  0  0  0  0  0  0  0  0
  -30.7044  -24.1565   21.0865 O   0  0  0  0  0  0  0  0  0  0  0  0
  -20.9639  -32.4685   21.3953 O   0  0  0  0  0  0  0  0  0  0  0  0
  -31.9170  -14.8647   20.1563 O   0  0  0  0  0  0  0  0  0  0  0  0
  -21.5450   -7.1229   21.7213 O   0  0  0  0  0  0  0  0  0  0  0  0
  -28.5428  -25.2684   19.9127 O   0  0  0  0  0  0  0  0  0  1  0  0
  -16.3641   -7.0355   19.8358 F   0  0  0  0  0  0  0  0  0  0  0  0
  -20.7203   -5.1862   19.9291 F   0  0  0  0  0  0  0  0  0  0  0  0
  1  2  1  0  0  0  0
  1  5  2  0  0  0  0
  2  6  2  0  0  0  0
  3  8  2  0  0  0  0
  3 17  1  0  0  0  0
  4  9  1  0  0  0  0
  4 17  2  0  0  0  0
  5 19  1  0  0  0  0
  6 21  1  0  0  0  0
  7 10  2  0  0  0  0
  7 20  1  0  0  0  0
  8 27  1  0  0  0  0
  9 27  2  0  0  0  0
 10 28  1  0  0  0  0
 11 12  2  0  0  0  0
 11 29  1  0  0  0  0
 12 30  1  0  0  0  0
 13 22  2  0  0  0  0
 13 26  1  0  0  0  0
 14 23  1  0  0  0  0
 14 28  2  0  0  0  0
 15 24  1  0  0  0  0
 15 26  2  0  0  0  0
 16 30  2  0  0  0  0
 16 31  1  0  0  0  0
 17 32  1  0  0  0  0
 18 32  1  0  0  0  0
 18 33  2  0  0  0  0
 18 34  1  0  0  0  0
 19 21  2  0  0  0  0
 19 40  1  0  0  0  0
 20 23  2  0  0  0  0
 20 41  1  0  0  0  0
 21 54  1  0  0  0  0
 22 25  1  0  0  0  0
 22 53  1  0  0  0  0
 23 42  1  0  0  0  0
 24 25  2  0  0  0  0
 24 63  1  0  0  0  0
 25 64  1  0  0  0  0
 26 75  1  0  0  0  0
 27 86  1  0  0  0  0
 28 87  1  0  0  0  0
 29 31  2  0  0  0  0
 29 86  1  0  0  0  0
 30 88  1  0  0  0  0
 31 89  1  0  0  0  0
 32 69  2  0  0  0  0
 33 70  1  0  0  0  0
 33 73  1  0  0  0  0
 34 74  1  0  0  0  0
 34 80  2  0  0  0  0
 35 55  1  0  0  0  0
 35 76  1  0  0  0  0
 35 81  2  0  0  0  0
 36 66  1  0  0  0  0
 36 71  1  0  0  0  0
 36 82  2  0  0  0  0
 37 65  1  0  0  0  0
 37 77  1  0  0  0  0
 37 83  2  0  0  0  0
 38 67  1  0  0  0  0
 38 78  1  0  0  0  0
 38 84  2  0  0  0  0
 39 72  1  0  0  0  0
 39 75  1  0  0  0  0
 39 85  2  0  0  0  0
 40 43  1  0  0  0  0
 41 55  1  0  0  0  0
 42 71  1  0  0  0  0
 43 49  1  0  0  0  0
 44 45  1  0  0  0  0
 44 47  1  0  0  0  0
 45 48  1  0  0  0  0
 46 50  1  0  0  0  0
 46 51  1  0  0  0  0
 47 53  1  0  0  0  0
 48 53  1  0  0  0  0
 49 54  1  0  0  0  0
 50 56  1  0  0  0  0
 51 72  1  0  0  0  0
 52 56  1  0  0  0  0
 52 72  1  0  0  0  0
 54 76  1  0  0  0  0
 55 71  1  0  0  0  0
 56 70  1  0  0  0  0
 57 63  1  0  0  0  0
 58 67  1  0  0  0  0
 59 68  1  0  0  0  0
 60 68  1  0  0  0  0
 61 68  1  0  0  0  0
 62 79  1  0  0  0  0
 64 77  1  0  0  0  0
 65 87  1  0  0  0  0
 66 68  1  0  0  0  0
 66 78  1  0  0  0  0
 67 79  1  0  0  0  0
 69 70  1  0  0  0  0
M  CHG  1  79   1
M  ISO  4  39 100  65 101  75 100  87 101
M  END
> <Batch ID>
0044

> <Smiles>
CCc1cc([100NH:0][100C:0](=O)N2CCCC(n3nc(-c4ccc(Oc5ccc(F)cc5F)cc4)c(C(N)=O)c3N)C2)cc(C2CCCC2)c1CNC(=O)[101CH2:1][101O:1]c1ccc2c(c1)CN(C(=O)C(NC(=O)C(C)NC)C(C)(C)C)C(C(=O)NC1CCCc3ccccc31)C2

> <Shape>
0.275

> <Color>
0.192

> <Negative vol penalty>
0.000

$$$$

  -OEChem-04042322183D

 81 89  0     1  0  0  0  0  0999 V2000
  -28.3396  -36.7782   19.8513 C   0  0  0  0  0  0  0  0  0  0  0  0
  -28.6734  -35.4438   19.6433 C   0  0  0  0  0  0  0  0  0  0  0  0
  -23.9031   -9.3307   20.3714 C   0  0  0  0  0  0  0  0  0  0  0  0
  -22.8730  -11.2732   21.3726 C   0  0  0  0  0  0  0  0  0  0  0  0
  -28.2267  -20.3381   18.5240 C   0  0  0  0  0  0  0  0  0  0  0  0
  -27.4837  -37.1269   20.8953 C   0  0  0  0  0  0  0  0  0  0  0  0
  -28.1523  -34.4573   20.4799 C   0  0  0  0  0  0  0  0  0  0  0  0
  -26.5821  -28.7502   18.9087 C   0  0  0  0  0  0  0  0  0  0  0  0
  -28.2259  -18.9532   18.6901 C   0  0  0  0  0  0  0  0  0  0  0  0
  -22.9472   -8.5131   20.9741 C   0  0  0  0  0  0  0  0  0  0  0  0
  -21.9170  -10.4556   21.9753 C   0  0  0  0  0  0  0  0  0  0  0  0
  -27.2444  -27.5290   19.0264 C   0  0  0  0  0  0  0  0  0  0  0  0
  -22.3732   -7.1888   24.0304 C   0  0  0  0  0  0  0  0  0  0  0  0
  -22.8180   -6.0203   24.6487 C   0  0  0  0  0  0  0  0  0  0  0  0
  -26.0628  -27.0933   21.0839 C   0  0  0  0  0  0  0  0  0  0  0  0
  -29.9487  -19.1540   20.3721 C   0  0  0  0  0  0  0  0  0  0  0  0
  -21.4387   -4.7081   23.1611 C   0  0  0  0  0  0  0  0  0  0  0  0
  -23.8660  -10.7108   20.5706 C   0  0  0  0  0  0  0  0  0  0  0  0
  -29.0885  -21.1310   19.2819 C   0  0  0  0  0  0  0  0  0  0  0  0
  -24.7741  -12.1665   18.6828 C   0  0  0  0  0  0  0  0  0  0  0  0
  -26.9443  -36.1433   21.7391 C   0  0  0  0  0  0  0  0  0  0  0  0
  -25.6616  -29.1577   19.8850 C   0  0  0  0  0  0  0  0  0  0  0  0
  -27.2895  -34.7933   21.5369 C   0  0  0  0  0  0  0  0  0  0  0  0
  -25.3882  -28.3189   20.9749 C   0  0  0  0  0  0  0  0  0  0  0  0
  -29.9495  -20.5389   20.2059 C   0  0  0  0  0  0  0  0  0  0  0  0
  -29.0869  -18.3611   19.6141 C   0  0  0  0  0  0  0  0  0  0  0  0
  -21.9542   -9.0755   21.7761 C   0  0  0  0  0  0  0  0  0  0  0  0
  -26.9870  -26.7017   20.1156 C   0  0  0  0  0  0  0  0  0  0  0  0
  -21.4611   -7.1170   22.9775 C   0  0  0  0  0  0  0  0  0  0  0  0
  -22.3508   -4.7799   24.2141 C   0  0  0  0  0  0  0  0  0  0  0  0
  -20.9939   -5.8767   22.5429 C   0  0  0  0  0  0  0  0  0  0  0  0
  -24.8535  -11.5559   19.9487 C   0  0  0  0  0  0  0  0  0  0  0  0
  -25.9550  -12.8571   18.5600 C   0  0  0  0  0  0  0  0  0  0  0  0
  -29.0652  -22.5899   19.0837 C   0  0  0  0  0  0  0  0  0  0  0  0
  -27.9908  -23.3767   19.2507 C   0  0  0  0  0  0  0  0  0  0  0  0
  -23.7265  -12.1142   17.7053 C   0  0  0  0  0  0  0  0  0  0  0  0
  -25.4790  -31.5949   21.9173 C   0  0  0  0  0  0  0  0  0  0  0  0
  -22.5501  -30.3483   22.5417 C   0  0  0  0  0  0  0  0  0  0  0  0
  -20.4976  -27.6218   22.5221 C   0  0  0  0  0  0  0  0  0  0  0  0
  -29.8788  -16.2073   20.6534 C   0  0  0  0  0  0  0  0  0  0  0  0
  -26.0610  -36.5734   22.8835 C   0  0  0  0  0  0  0  0  0  0  0  0
  -24.9357  -30.4658   19.7296 C   0  0  0  0  0  0  0  0  0  0  0  0
  -24.3940  -28.7011   22.0398 C   0  0  0  0  0  0  0  0  0  0  0  0
  -25.2544  -35.4299   23.4934 C   0  0  0  0  0  0  0  0  0  0  0  0
  -30.1523  -12.7338   21.3865 C   0  0  0  0  0  0  0  0  0  0  0  0
  -26.1452  -34.2140   23.7280 C   0  0  0  0  0  0  0  0  0  0  0  0
  -28.7916  -12.1679   20.9736 C   0  0  0  0  0  0  0  0  0  0  0  0
  -30.0243  -14.1257   22.0028 C   0  0  0  0  0  0  0  0  0  0  0  0
  -27.9285  -14.5349   20.7743 C   0  0  0  0  0  0  0  0  0  0  0  0
  -26.7249  -33.6920   22.4078 C   0  0  1  0  0  0  0  0  0  0  0  0
  -24.3997  -31.0122   21.0493 C   0  0  1  0  0  0  0  0  0  0  0  0
  -28.0131  -13.1613   20.0889 C   0  0  2  0  0  0  0  0  0  0  0  0
  -30.8859  -21.3572   21.0355 C   0  0  0  0  0  0  0  0  0  0  0  0
  -18.1707  -26.9034   23.1276 C   0  0  0  0  0  0  0  0  0  0  0  0
  -23.3291  -30.3199   25.4917 C   0  0  0  0  0  0  0  0  0  0  0  0
  -21.4174  -28.7583   25.9097 C   0  0  0  0  0  0  0  0  0  0  0  0
  -20.9819  -31.0552   25.0396 C   0  0  0  0  0  0  0  0  0  0  0  0
  -19.8726  -26.8846   19.7248 C   0  0  0  0  0  0  0  0  0  0  0  0
  -28.0123  -24.8544   19.0237 C   0  0  0  0  0  0  0  0  0  1  0  0
  -22.0083  -29.3240   23.5094 C   0  0  1  0  0  0  0  0  0  0  0  0
  -19.0748  -27.4356   22.0267 C   0  0  2  0  0  0  0  0  0  0  0  0
  -21.9544  -29.8577   24.9687 C   0  0  0  0  0  0  0  0  0  0  0  0
  -25.9947  -11.8339   20.5846 N   0  0  0  0  0  0  0  0  0  0  0  0
  -26.6433  -12.6268   19.7147 N   0  0  0  0  0  0  0  0  0  0  0  0
  -23.7145  -29.9928   21.8464 N   0  0  0  0  0  0  0  0  0  0  0  0
  -29.2794  -15.0133   21.1071 N   0  0  0  0  0  0  0  0  0  0  0  0
  -26.4613  -13.6327   17.5779 N   0  0  0  0  0  0  0  0  0  0  0  0
  -22.5818  -11.3582   17.9925 N   0  0  0  0  0  0  0  0  0  0  0  0
  -29.0880  -16.9540   19.7807 N   0  0  0  0  0  0  0  0  0  0  0  0
  -25.7280  -32.9337   21.6828 N   0  0  0  0  0  0  0  0  0  0  0  0
  -20.7158  -28.9045   22.9784 N   0  0  0  0  0  0  0  0  0  0  0  0
  -19.0444  -26.4746   20.8880 N   0  3  0  0  0  0  0  0  0  0  0  0
  -23.8103  -12.7066   16.6028 O   0  0  0  0  0  0  0  0  0  0  0  0
  -26.0428  -30.8829   22.7400 O   0  0  0  0  0  0  0  0  0  0  0  0
  -21.9578  -31.4213   22.4025 O   0  0  0  0  0  0  0  0  0  0  0  0
  -21.3310  -26.7185   22.5092 O   0  0  0  0  0  0  0  0  0  0  0  0
  -31.0209  -16.5291   20.9911 O   0  0  0  0  0  0  0  0  0  0  0  0
  -21.0211   -8.2780   22.3642 O   0  0  0  0  0  0  0  0  0  0  0  0
  -27.6325  -25.5095   20.2332 O   0  0  0  0  0  0  0  0  0  1  0  0
  -22.7792   -3.6578   24.8069 F   0  0  0  0  0  0  0  0  0  0  0  0
  -20.1185   -5.8013   21.5310 F   0  0  0  0  0  0  0  0  0  0  0  0
  1  2  1  0  0  0  0
  1  6  2  0  0  0  0
  2  7  2  0  0  0  0
  3 10  2  0  0  0  0
  3 18  1  0  0  0  0
  4 11  1  0  0  0  0
  4 18  2  0  0  0  0
  5  9  2  0  0  0  0
  5 19  1  0  0  0  0
  6 21  1  0  0  0  0
  7 23  1  0  0  0  0
  8 12  2  0  0  0  0
  8 22  1  0  0  0  0
  9 26  1  0  0  0  0
 10 27  1  0  0  0  0
 11 27  2  0  0  0  0
 12 28  1  0  0  0  0
 13 14  2  0  0  0  0
 13 29  1  0  0  0  0
 14 30  1  0  0  0  0
 15 24  1  0  0  0  0
 15 28  2  0  0  0  0
 16 25  1  0  0  0  0
 16 26  2  0  0  0  0
 17 30  2  0  0  0  0
 17 31  1  0  0  0  0
 18 32  1  0  0  0  0
 19 25  2  0  0  0  0
 19 34  1  0  0  0  0
 20 32  1  0  0  0  0
 20 33  2  0  0  0  0
 20 36  1  0  0  0  0
 21 23  2  0  0  0  0
 21 41  1  0  0  0  0
 22 24  2  0  0  0  0
 22 42  1  0  0  0  0
 23 50  1  0  0  0  0
 24 43  1  0  0  0  0
 25 53  1  0  0  0  0
 26 69  1  0  0  0  0
 27 78  1  0  0  0  0
 28 79  1  0  0  0  0
 29 31  2  0  0  0  0
 29 78  1  0  0  0  0
 30 80  1  0  0  0  0
 31 81  1  0  0  0  0
 32 63  2  0  0  0  0
 33 64  1  0  0  0  0
 33 67  1  0  0  0  0
 34 35  2  0  0  0  0
 35 59  1  0  0  0  0
 36 68  1  0  0  0  0
 36 73  2  0  0  0  0
 37 51  1  0  0  0  0
 37 70  1  0  0  0  0
 37 74  2  0  0  0  0
 38 60  1  0  0  0  0
 38 65  1  0  0  0  0
 38 75  2  0  0  0  0
 39 61  1  0  0  0  0
 39 71  1  0  0  0  0
 39 76  2  0  0  0  0
 40 66  1  0  0  0  0
 40 69  1  0  0  0  0
 40 77  2  0  0  0  0
 41 44  1  0  0  0  0
 42 51  1  0  0  0  0
 43 65  1  0  0  0  0
 44 46  1  0  0  0  0
 45 47  1  0  0  0  0
 45 48  1  0  0  0  0
 46 50  1  0  0  0  0
 47 52  1  0  0  0  0
 48 66  1  0  0  0  0
 49 52  1  0  0  0  0
 49 66  1  0  0  0  0
 50 70  1  0  0  0  0
 51 65  1  0  0  0  0
 52 64  1  0  0  0  0
 54 61  1  0  0  0  0
 55 62  1  0  0  0  0
 56 62  1  0  0  0  0
 57 62  1  0  0  0  0
 58 72  1  0  0  0  0
 59 79  1  0  0  0  0
 60 62  1  0  0  0  0
 60 71  1  0  0  0  0
 61 72  1  0  0  0  0
 63 64  1  0  0  0  0
M  CHG  1  72   1
M  ISO  4  40 100  59 101  69 100  79 101
M  END
> <Batch ID>
0044

> <Smiles>
CNC(C)C(=O)NC(C(=O)N1Cc2cc([101O:1][101CH2:1]C=Cc3ccc([100NH:0][100C:0](=O)N4CCCC(n5nc(-c6ccc(Oc7ccc(F)cc7F)cc6)c(C(N)=O)c5N)C4)cc3C)ccc2CC1C(=O)NC1CCCc2ccccc21)C(C)(C)C

> <Shape>
0.342

> <Color>
0.091

> <Negative vol penalty>
0.000

$$$$

  -OEChem-04042322183D

 86 95  0     1  0  0  0  0  0999 V2000
  -19.0716  -28.5966   23.3871 C   0  0  0  0  0  0  0  0  0  0  0  0
  -20.4331  -28.3106   23.3796 C   0  0  0  0  0  0  0  0  0  0  0  0
  -27.2389  -13.2101   20.2129 C   0  0  0  0  0  0  0  0  0  0  0  0
  -25.0391  -13.9644   20.8681 C   0  0  0  0  0  0  0  0  0  0  0  0
  -18.2099  -27.9018   22.5394 C   0  0  0  0  0  0  0  0  0  0  0  0
  -20.9334  -27.3287   22.5253 C   0  0  0  0  0  0  0  0  0  0  0  0
  -25.1612  -28.7899   20.1512 C   0  0  0  0  0  0  0  0  0  0  0  0
  -32.3130  -21.7690   20.6143 C   0  0  0  0  0  0  0  0  0  0  0  0
  -26.7029  -11.9811   19.8283 C   0  0  0  0  0  0  0  0  0  0  0  0
  -24.5032  -12.7354   20.4835 C   0  0  0  0  0  0  0  0  0  0  0  0
  -26.3481  -28.7490   20.8816 C   0  0  0  0  0  0  0  0  0  0  0  0
  -22.6103   -9.6690   20.0101 C   0  0  0  0  0  0  0  0  0  0  0  0
  -21.6980   -9.0611   20.8726 C   0  0  0  0  0  0  0  0  0  0  0  0
  -33.4339  -22.5755   20.8109 C   0  0  0  0  0  0  0  0  0  0  0  0
  -26.9192  -26.6569   19.8249 C   0  0  0  0  0  0  0  0  0  0  0  0
  -31.0832  -23.6788   19.7914 C   0  0  0  0  0  0  0  0  0  0  0  0
  -23.3800   -8.9962   22.6058 C   0  0  0  0  0  0  0  0  0  0  0  0
  -26.4070  -14.2017   20.7328 C   0  0  0  0  0  0  0  0  0  0  0  0
  -27.9457  -15.6999   22.1097 C   0  0  0  0  0  0  0  0  0  0  0  0
  -18.7013  -26.9176   21.6673 C   0  0  0  0  0  0  0  0  0  0  0  0
  -24.8387  -27.7574   19.2588 C   0  0  0  0  0  0  0  0  0  0  0  0
  -20.0773  -26.6191   21.6661 C   0  0  0  0  0  0  0  0  0  0  0  0
  -25.7288  -26.6884   19.0826 C   0  0  0  0  0  0  0  0  0  0  0  0
  -32.2041  -24.4854   19.9880 C   0  0  0  0  0  0  0  0  0  0  0  0
  -31.1376  -22.3207   20.1045 C   0  0  0  0  0  0  0  0  0  0  0  0
  -25.3351  -11.7437   19.9636 C   0  0  0  0  0  0  0  0  0  0  0  0
  -27.2259  -27.6810   20.7206 C   0  0  0  0  0  0  0  0  0  0  0  0
  -23.9074   -9.9404   20.4454 C   0  0  0  0  0  0  0  0  0  0  0  0
  -22.0829   -8.7247   22.1704 C   0  0  0  0  0  0  0  0  0  0  0  0
  -24.2922   -9.6041   21.7433 C   0  0  0  0  0  0  0  0  0  0  0  0
  -33.3795  -23.9337   20.4978 C   0  0  0  0  0  0  0  0  0  0  0  0
  -26.9601  -15.4713   21.1308 C   0  0  0  0  0  0  0  0  0  0  0  0
  -28.1213  -17.0621   22.1086 C   0  0  0  0  0  0  0  0  0  0  0  0
  -32.3968  -28.1783   20.5254 C   0  0  0  0  0  0  0  0  0  0  0  0
  -33.6048  -28.5862   20.9427 C   0  0  0  0  0  0  0  0  0  0  0  0
  -28.6403  -14.7644   22.9453 C   0  0  0  0  0  0  0  0  0  0  0  0
  -22.4878  -25.6285   19.0468 C   0  0  0  0  0  0  0  0  0  0  0  0
  -23.9123  -24.9167   16.2208 C   0  0  0  0  0  0  0  0  0  0  0  0
  -27.2834  -24.5252   14.9960 C   0  0  0  0  0  0  0  0  0  0  0  0
  -28.7557  -21.8892   19.4069 C   0  0  0  0  0  0  0  0  0  0  0  0
  -17.7245  -26.1600   20.8033 C   0  0  0  0  0  0  0  0  0  0  0  0
  -23.5671  -27.8297   18.4587 C   0  0  0  0  0  0  0  0  0  0  0  0
  -25.4387  -25.5650   18.1222 C   0  0  0  0  0  0  0  0  0  0  0  0
  -31.4430  -29.0702   19.7780 C   0  0  0  0  0  0  0  0  0  0  0  0
  -18.3876  -25.3963   19.6600 C   0  0  0  0  0  0  0  0  0  0  0  0
  -30.0678  -29.0438   20.4340 C   0  0  0  0  0  0  0  0  0  0  0  0
  -25.4249  -20.7292   19.8942 C   0  0  0  0  0  0  0  0  0  0  0  0
  -19.6029  -24.6260   20.1666 C   0  0  0  0  0  0  0  0  0  0  0  0
  -25.6085  -19.2767   20.3399 C   0  0  0  0  0  0  0  0  0  0  0  0
  -26.4563  -21.1344   18.8427 C   0  0  0  0  0  0  0  0  0  0  0  0
  -28.0380  -19.4325   19.6617 C   0  0  0  0  0  0  0  0  0  0  0  0
  -30.6331  -26.8273   21.4980 C   0  0  0  0  0  0  0  0  0  0  0  0
  -20.6615  -25.5782   20.7359 C   0  0  1  0  0  0  0  0  0  0  0  0
  -23.0972  -26.4670   17.9590 C   0  0  1  0  0  0  0  0  0  0  0  0
  -27.0627  -18.9980   20.7678 C   0  0  2  0  0  0  0  0  0  0  0  0
  -29.6013  -27.6110   20.6909 C   0  0  1  0  0  0  0  0  0  1  0  0
  -28.2281  -24.8333   12.6917 C   0  0  0  0  0  0  0  0  0  0  0  0
  -23.4329  -21.9167   15.9374 C   0  0  0  0  0  0  0  0  0  0  0  0
  -25.5830  -21.7639   14.6639 C   0  0  0  0  0  0  0  0  0  0  0  0
  -23.7024  -23.1391   13.7724 C   0  0  0  0  0  0  0  0  0  0  0  0
  -29.3112  -26.4537   15.9593 C   0  0  0  0  0  0  0  0  0  0  0  0
  -32.1052  -25.9411   19.6388 C   0  0  0  0  0  0  0  0  0  0  0  0
  -24.9978  -23.9643   15.7807 C   0  0  1  0  0  0  0  0  0  0  0  0
  -28.0252  -25.4632   14.0609 C   0  0  2  0  0  0  0  0  0  0  0  0
  -24.4285  -22.7069   15.0649 C   0  0  0  0  0  0  0  0  0  0  0  0
  -26.5391  -16.5980   20.5501 N   0  0  0  0  0  0  0  0  0  0  0  0
  -27.2635  -17.5477   21.1660 N   0  0  0  0  0  0  0  0  0  0  0  0
  -24.1797  -25.6779   17.3674 N   0  0  0  0  0  0  0  0  0  0  0  0
  -27.8107  -20.8452   19.3192 N   0  0  0  0  0  0  0  0  0  0  0  0
  -28.9243  -17.8798   22.8220 N   0  0  0  0  0  0  0  0  0  0  0  0
  -28.0863  -14.4423   24.1917 N   0  0  0  0  0  0  0  0  0  0  0  0
  -29.9993  -21.5010   19.9040 N   0  0  0  0  0  0  0  0  0  0  0  0
  -21.3987  -26.2131   19.6644 N   0  0  0  0  0  0  0  0  0  0  0  0
  -25.9228  -24.7469   14.9681 N   0  0  0  0  0  0  0  0  0  0  0  0
  -31.9943  -26.8305   20.8462 N   0  3  1  0  0  0  0  0  0  0  0  0
  -29.3621  -25.8053   14.6237 N   0  3  0  0  0  0  0  0  0  0  0  0
  -29.7287  -14.2426   22.6038 O   0  0  0  0  0  0  0  0  0  0  0  0
  -22.9692  -24.5316   19.3055 O   0  0  0  0  0  0  0  0  0  0  0  0
  -22.8687  -24.9879   15.5670 O   0  0  0  0  0  0  0  0  0  0  0  0
  -27.8536  -23.6780   15.6798 O   0  0  0  0  0  0  0  0  0  0  0  0
  -28.4735  -23.0482   19.0918 O   0  0  0  0  0  0  0  0  0  0  0  0
  -24.8117  -10.5447   19.5882 O   0  0  0  0  0  0  0  0  0  0  0  0
  -28.3848  -27.6383   21.4327 O   0  0  0  0  0  0  0  0  0  1  0  0
  -21.2063   -8.1424   22.9991 F   0  0  0  0  0  0  0  0  0  0  0  0
  -25.5367   -9.8634   22.1675 F   0  0  0  0  0  0  0  0  0  0  0  0
  -34.7867  -24.8997   20.7539 Cl  0  0  0  0  0  0  0  0  0  0  0  0
  1  2  1  0  0  0  0
  1  5  2  0  0  0  0
  2  6  2  0  0  0  0
  3  9  2  0  0  0  0
  3 18  1  0  0  0  0
  4 10  1  0  0  0  0
  4 18  2  0  0  0  0
  5 20  1  0  0  0  0
  6 22  1  0  0  0  0
  7 11  2  0  0  0  0
  7 21  1  0  0  0  0
  8 14  2  0  0  0  0
  8 25  1  0  0  0  0
  9 26  1  0  0  0  0
 10 26  2  0  0  0  0
 11 27  1  0  0  0  0
 12 13  2  0  0  0  0
 12 28  1  0  0  0  0
 13 29  1  0  0  0  0
 14 31  1  0  0  0  0
 15 23  1  0  0  0  0
 15 27  2  0  0  0  0
 16 24  1  0  0  0  0
 16 25  2  0  0  0  0
 17 29  2  0  0  0  0
 17 30  1  0  0  0  0
 18 32  1  0  0  0  0
 19 32  1  0  0  0  0
 19 33  2  0  0  0  0
 19 36  1  0  0  0  0
 20 22  2  0  0  0  0
 20 41  1  0  0  0  0
 21 23  2  0  0  0  0
 21 42  1  0  0  0  0
 22 53  1  0  0  0  0
 23 43  1  0  0  0  0
 24 31  2  0  0  0  0
 24 62  1  0  0  0  0
 25 72  1  0  0  0  0
 26 82  1  0  0  0  0
 27 83  1  0  0  0  0
 28 30  2  0  0  0  0
 28 82  1  0  0  0  0
 29 84  1  0  0  0  0
 30 85  1  0  0  0  0
 31 86  1  0  0  0  0
 32 66  2  0  0  0  0
 33 67  1  0  0  0  0
 33 70  1  0  0  0  0
 34 35  2  0  0  0  0
 34 44  1  0  0  0  0
 34 75  1  0  0  0  0
 36 71  1  0  0  0  0
 36 77  2  0  0  0  0
 37 54  1  0  0  0  0
 37 73  1  0  0  0  0
 37 78  2  0  0  0  0
 38 63  1  0  0  0  0
 38 68  1  0  0  0  0
 38 79  2  0  0  0  0
 39 64  1  0  0  0  0
 39 74  1  0  0  0  0
 39 80  2  0  0  0  0
 40 69  1  0  0  0  0
 40 72  1  0  0  0  0
 40 81  2  0  0  0  0
 41 45  1  0  0  0  0
 42 54  1  0  0  0  0
 43 68  1  0  0  0  0
 44 46  1  0  0  0  0
 45 48  1  0  0  0  0
 46 56  1  0  0  0  0
 47 49  1  0  0  0  0
 47 50  1  0  0  0  0
 48 53  1  0  0  0  0
 49 55  1  0  0  0  0
 50 69  1  0  0  0  0
 51 55  1  0  0  0  0
 51 69  1  0  0  0  0
 52 56  1  0  0  0  0
 52 75  1  0  0  0  0
 53 73  1  0  0  0  0
 54 68  1  0  0  0  0
 55 67  1  0  0  0  0
 56 83  1  0  0  0  0
 57 64  1  0  0  0  0
 58 65  1  0  0  0  0
 59 65  1  0  0  0  0
 60 65  1  0  0  0  0
 61 76  1  0  0  0  0
 62 75  1  0  0  0  0
 63 65  1  0  0  0  0
 63 74  1  0  0  0  0
 64 76  1  0  0  0  0
 66 67  1  0  0  0  0
M  CHG  2  75   1  76   1
M  ISO  4  40 100  56 101  72 100  83 101
M  END
> <Batch ID>
0044

> <Smiles>
C=C1CC[101CH:1]([101O:1]c2ccc3c(c2)CN(C(=O)C(NC(=O)C(C)NC)C(C)(C)C)C(C(=O)NC2CCCc4ccccc42)C3)CN1Cc1cc([100NH:0][100C:0](=O)N2CCCC(n3nc(-c4ccc(Oc5ccc(F)cc5F)cc4)c(C(N)=O)c3N)C2)ccc1Cl

> <Shape>
0.239

> <Color>
0.077

> <Negative vol penalty>
0.000

$$$$

  -OEChem-04042322183D

 86 94  0     1  0  0  0  0  0999 V2000
  -30.8492  -29.0813   26.4581 C   0  0  0  0  0  0  0  0  0  0  0  0
  -30.1705  -28.0953   25.7492 C   0  0  0  0  0  0  0  0  0  0  0  0
  -31.7386  -19.2842   21.8680 C   0  0  0  0  0  0  0  0  0  0  0  0
  -23.5766   -9.5416   21.1373 C   0  0  0  0  0  0  0  0  0  0  0  0
  -24.2079  -10.4270   23.2948 C   0  0  0  0  0  0  0  0  0  0  0  0
  -30.7994  -20.2253   22.2898 C   0  0  0  0  0  0  0  0  0  0  0  0
  -30.2879  -30.3500   26.5965 C   0  0  0  0  0  0  0  0  0  0  0  0
  -28.9295  -28.3772   25.1792 C   0  0  0  0  0  0  0  0  0  0  0  0
  -28.5247  -26.6290   20.4436 C   0  0  0  0  0  0  0  0  0  0  0  0
  -31.3151  -18.0758   21.3147 C   0  0  0  0  0  0  0  0  0  0  0  0
  -23.0014   -8.4340   21.7602 C   0  0  0  0  0  0  0  0  0  0  0  0
  -23.6327   -9.3194   23.9176 C   0  0  0  0  0  0  0  0  0  0  0  0
  -28.2789  -25.2657   20.2870 C   0  0  0  0  0  0  0  0  0  0  0  0
  -20.1344   -7.7075   23.3989 C   0  0  0  0  0  0  0  0  0  0  0  0
  -18.8759   -7.2975   22.9592 C   0  0  0  0  0  0  0  0  0  0  0  0
  -25.9415  -25.7355   19.9194 C   0  0  0  0  0  0  0  0  0  0  0  0
  -19.7867   -5.1406   22.3631 C   0  0  0  0  0  0  0  0  0  0  0  0
  -24.1799  -10.5381   21.9046 C   0  0  0  0  0  0  0  0  0  0  0  0
  -29.4367  -19.9579   22.1584 C   0  0  0  0  0  0  0  0  0  0  0  0
  -24.1466  -12.9017   20.9454 C   0  0  0  0  0  0  0  0  0  0  0  0
  -29.0438  -30.6505   26.0197 C   0  0  0  0  0  0  0  0  0  0  0  0
  -27.4771  -27.5565   20.3499 C   0  0  0  0  0  0  0  0  0  0  0  0
  -28.3504  -29.6507   25.3111 C   0  0  0  0  0  0  0  0  0  0  0  0
  -26.1771  -27.1103   20.0727 C   0  0  0  0  0  0  0  0  0  0  0  0
  -29.0132  -18.7495   21.6051 C   0  0  0  0  0  0  0  0  0  0  0  0
  -29.9524  -17.8085   21.1833 C   0  0  0  0  0  0  0  0  0  0  0  0
  -23.0294   -8.3229   23.1503 C   0  0  0  0  0  0  0  0  0  0  0  0
  -26.9866  -24.8184   20.0278 C   0  0  0  0  0  0  0  0  0  0  0  0
  -21.2193   -6.8341   23.3207 C   0  0  0  0  0  0  0  0  0  0  0  0
  -18.7020   -6.0141   22.4413 C   0  0  0  0  0  0  0  0  0  0  0  0
  -21.0454   -5.5507   22.8028 C   0  0  0  0  0  0  0  0  0  0  0  0
  -24.7748  -11.6823   21.2618 C   0  0  0  0  0  0  0  0  0  0  0  0
  -25.1318  -13.6513   20.3505 C   0  0  0  0  0  0  0  0  0  0  0  0
  -28.4617  -20.9698   22.6123 C   0  0  0  0  0  0  0  0  0  0  0  0
  -22.7935  -13.3196   21.1694 C   0  0  0  0  0  0  0  0  0  0  0  0
  -26.1613  -29.6622   22.3345 C   0  0  0  0  0  0  0  0  0  0  0  0
  -24.4867  -30.5200   19.6921 C   0  0  0  0  0  0  0  0  0  0  0  0
  -23.2652  -29.6490   16.6268 C   0  0  0  0  0  0  0  0  0  0  0  0
  -30.3643  -15.5452   20.1565 C   0  0  0  0  0  0  0  0  0  0  0  0
  -28.4555  -32.0222   26.2364 C   0  0  0  0  0  0  0  0  0  0  0  0
  -27.7634  -29.0261   20.4948 C   0  0  0  0  0  0  0  0  0  0  0  0
  -25.0212  -28.0670   19.9424 C   0  0  0  0  0  0  0  0  0  0  0  0
  -27.3089  -32.3506   25.2836 C   0  0  0  0  0  0  0  0  0  0  0  0
  -29.7462  -12.3398   18.7350 C   0  0  0  0  0  0  0  0  0  0  0  0
  -26.3295  -31.1838   25.2048 C   0  0  0  0  0  0  0  0  0  0  0  0
  -28.3460  -11.9833   19.2397 C   0  0  0  0  0  0  0  0  0  0  0  0
  -30.5538  -13.0948   19.7893 C   0  0  0  0  0  0  0  0  0  0  0  0
  -28.4915  -13.9247   20.8511 C   0  0  0  0  0  0  0  0  0  0  0  0
  -27.0136  -29.9253   24.6572 C   0  0  1  0  0  0  0  0  0  0  0  0
  -26.5338  -29.8383   20.8896 C   0  0  1  0  0  0  0  0  0  0  0  0
  -27.6174  -13.2201   19.8008 C   0  0  2  0  0  0  0  0  0  0  0  0
  -27.5500  -18.4649   21.4684 C   0  0  0  0  0  0  0  0  0  0  0  0
  -21.9024  -30.5482   14.7212 C   0  0  0  0  0  0  0  0  0  0  0  0
  -23.9891  -21.1230   20.9831 C   0  0  0  0  0  0  0  0  0  0  0  0
  -24.4157  -22.2400   18.7853 C   0  0  0  0  0  0  0  0  0  0  0  0
  -21.9426  -30.1319   21.3314 C   0  0  0  0  0  0  0  0  0  0  0  0
  -20.6489  -30.1052   19.1882 C   0  0  0  0  0  0  0  0  0  0  0  0
  -21.9291  -32.1430   19.8448 C   0  0  0  0  0  0  0  0  0  0  0  0
  -25.5125  -29.3470   14.7250 C   0  0  0  0  0  0  0  0  0  0  0  0
  -26.5959  -22.4841   22.0445 C   0  0  0  0  0  0  0  0  0  0  0  0
  -23.1819  -30.0893   19.0668 C   0  0  1  0  0  0  0  0  0  0  0  0
  -23.3015  -30.3634   15.2879 C   0  0  2  0  0  0  0  0  0  0  0  0
  -25.0613  -21.7424   20.0850 C   0  0  0  0  0  0  0  0  0  0  0  0
  -25.8264  -22.8865   20.7877 C   0  0  2  0  0  0  0  0  0  1  0  0
  -21.9469  -30.5989   19.8621 C   0  0  0  0  0  0  0  0  0  0  0  0
  -26.0596  -11.6545   20.8978 N   0  0  0  0  0  0  0  0  0  0  0  0
  -26.2467  -12.8657   20.3465 N   0  0  0  0  0  0  0  0  0  0  0  0
  -25.3508  -29.4934   20.0985 N   0  0  0  0  0  0  0  0  0  0  0  0
  -29.8027  -14.2559   20.2717 N   0  0  0  0  0  0  0  0  0  0  0  0
  -25.1445  -14.8991   19.8355 N   0  0  0  0  0  0  0  0  0  0  0  0
  -28.4819  -21.3303   23.8955 N   0  0  0  0  0  0  0  0  0  0  0  0
  -21.9126  -12.4255   21.7932 N   0  0  0  0  0  0  0  0  0  0  0  0
  -29.5448  -16.5743   20.6189 N   0  0  0  0  0  0  0  0  0  0  0  0
  -27.1614  -30.0150   23.2204 N   0  0  0  0  0  0  0  0  0  0  0  0
  -23.2261  -30.5387   17.6795 N   0  0  0  0  0  0  0  0  0  0  0  0
  -27.6049  -21.4736   21.7162 N   0  3  0  0  0  0  0  0  0  0  0  0
  -24.1069  -29.5833   14.3062 N   0  3  0  0  0  0  0  0  0  0  0  0
  -22.3735  -14.4461   20.8116 O   0  0  0  0  0  0  0  0  0  0  0  0
  -25.0483  -29.2391   22.6243 O   0  0  0  0  0  0  0  0  0  0  0  0
  -24.7333  -31.7230   19.8090 O   0  0  0  0  0  0  0  0  0  0  0  0
  -23.2672  -28.4241   16.7286 O   0  0  0  0  0  0  0  0  0  0  0  0
  -31.4780  -15.7257   19.6577 O   0  0  0  0  0  0  0  0  0  0  0  0
  -22.4680   -7.2424   23.7584 O   0  0  0  0  0  0  0  0  0  0  0  0
  -26.7438  -23.4882   19.8751 O   0  0  0  0  0  0  0  0  0  1  0  0
  -17.4929   -5.6200   22.0205 F   0  0  0  0  0  0  0  0  0  0  0  0
  -22.0835   -4.7067   22.7263 F   0  0  0  0  0  0  0  0  0  0  0  0
  1  2  1  0  0  0  0
  1  7  2  0  0  0  0
  2  8  2  0  0  0  0
  3  6  2  0  0  0  0
  3 10  1  0  0  0  0
  4 11  2  0  0  0  0
  4 18  1  0  0  0  0
  5 12  1  0  0  0  0
  5 18  2  0  0  0  0
  6 19  1  0  0  0  0
  7 21  1  0  0  0  0
  8 23  1  0  0  0  0
  9 13  2  0  0  0  0
  9 22  1  0  0  0  0
 10 26  2  0  0  0  0
 11 27  1  0  0  0  0
 12 27  2  0  0  0  0
 13 28  1  0  0  0  0
 14 15  2  0  0  0  0
 14 29  1  0  0  0  0
 15 30  1  0  0  0  0
 16 24  1  0  0  0  0
 16 28  2  0  0  0  0
 17 30  2  0  0  0  0
 17 31  1  0  0  0  0
 18 32  1  0  0  0  0
 19 25  2  0  0  0  0
 19 34  1  0  0  0  0
 20 32  1  0  0  0  0
 20 33  2  0  0  0  0
 20 35  1  0  0  0  0
 21 23  2  0  0  0  0
 21 40  1  0  0  0  0
 22 24  2  0  0  0  0
 22 41  1  0  0  0  0
 23 49  1  0  0  0  0
 24 42  1  0  0  0  0
 25 26  1  0  0  0  0
 25 52  1  0  0  0  0
 26 73  1  0  0  0  0
 27 83  1  0  0  0  0
 28 84  1  0  0  0  0
 29 31  2  0  0  0  0
 29 83  1  0  0  0  0
 30 85  1  0  0  0  0
 31 86  1  0  0  0  0
 32 66  2  0  0  0  0
 33 67  1  0  0  0  0
 33 70  1  0  0  0  0
 34 71  1  0  0  0  0
 34 76  2  0  0  0  0
 35 72  1  0  0  0  0
 35 78  2  0  0  0  0
 36 50  1  0  0  0  0
 36 74  1  0  0  0  0
 36 79  2  0  0  0  0
 37 61  1  0  0  0  0
 37 68  1  0  0  0  0
 37 80  2  0  0  0  0
 38 62  1  0  0  0  0
 38 75  1  0  0  0  0
 38 81  2  0  0  0  0
 39 69  1  0  0  0  0
 39 73  1  0  0  0  0
 39 82  2  0  0  0  0
 40 43  1  0  0  0  0
 41 50  1  0  0  0  0
 42 68  1  0  0  0  0
 43 45  1  0  0  0  0
 44 46  1  0  0  0  0
 44 47  1  0  0  0  0
 45 49  1  0  0  0  0
 46 51  1  0  0  0  0
 47 69  1  0  0  0  0
 48 51  1  0  0  0  0
 48 69  1  0  0  0  0
 49 74  1  0  0  0  0
 50 68  1  0  0  0  0
 51 67  1  0  0  0  0
 53 62  1  0  0  0  0
 54 63  1  0  0  0  0
 55 63  1  0  0  0  0
 56 65  1  0  0  0  0
 57 65  1  0  0  0  0
 58 65  1  0  0  0  0
 59 77  1  0  0  0  0
 60 64  1  0  0  0  0
 60 76  1  0  0  0  0
 61 65  1  0  0  0  0
 61 75  1  0  0  0  0
 62 77  1  0  0  0  0
 63 64  1  0  0  0  0
 64 84  1  0  0  0  0
 66 67  1  0  0  0  0
M  CHG  2  76   1  77   1
M  ISO  4  39 100  64 101  73 100  84 101
M  END
> <Batch ID>
0044

> <Smiles>
CNC(C)C(=O)NC(C(=O)N1Cc2cc([101O:1][101CH:1](CNC(=N)c3cccc([100NH:0][100C:0](=O)N4CCCC(n5nc(-c6ccc(Oc7ccc(F)cc7F)cc6)c(C(N)=O)c5N)C4)c3C)C(C)C)ccc2CC1C(=O)NC1CCCc2ccccc21)C(C)(C)C

> <Shape>
0.295

> <Color>
0.137

> <Negative vol penalty>
0.000

$$$$

  -OEChem-04042322183D

 88 97  0     1  0  0  0  0  0999 V2000
  -26.7676  -38.6893   24.5020 C   0  0  0  0  0  0  0  0  0  0  0  0
  -25.5088  -38.2048   24.8427 C   0  0  0  0  0  0  0  0  0  0  0  0
  -28.1687  -14.6146   20.1502 C   0  0  0  0  0  0  0  0  0  0  0  0
  -25.9170  -15.4592   20.3821 C   0  0  0  0  0  0  0  0  0  0  0  0
  -27.6368  -37.9003   23.7498 C   0  0  0  0  0  0  0  0  0  0  0  0
  -25.1180  -36.9314   24.4302 C   0  0  0  0  0  0  0  0  0  0  0  0
  -21.1498  -31.3528   26.5394 C   0  0  0  0  0  0  0  0  0  0  0  0
  -21.9064  -24.2150   23.2654 C   0  0  0  0  0  0  0  0  0  0  0  0
  -23.2191  -23.7554   23.1592 C   0  0  0  0  0  0  0  0  0  0  0  0
  -27.6990  -13.3134   20.3283 C   0  0  0  0  0  0  0  0  0  0  0  0
  -25.4473  -14.1579   20.5602 C   0  0  0  0  0  0  0  0  0  0  0  0
  -20.1265  -30.5243   26.0809 C   0  0  0  0  0  0  0  0  0  0  0  0
  -23.6059  -11.0269   20.7163 C   0  0  0  0  0  0  0  0  0  0  0  0
  -22.4559  -10.6511   20.0222 C   0  0  0  0  0  0  0  0  0  0  0  0
  -21.7415  -29.2196   24.8527 C   0  0  0  0  0  0  0  0  0  0  0  0
  -22.6676  -22.6615   21.0768 C   0  0  0  0  0  0  0  0  0  0  0  0
  -23.5707  -11.1080   17.9279 C   0  0  0  0  0  0  0  0  0  0  0  0
  -27.2777  -15.6875   20.1772 C   0  0  0  0  0  0  0  0  0  0  0  0
  -28.4412  -17.5454   18.8725 C   0  0  0  0  0  0  0  0  0  0  0  0
  -27.2602  -36.6128   23.3361 C   0  0  0  0  0  0  0  0  0  0  0  0
  -22.4774  -31.1271   26.1486 C   0  0  0  0  0  0  0  0  0  0  0  0
  -25.9825  -36.1250   23.6706 C   0  0  0  0  0  0  0  0  0  0  0  0
  -22.7801  -30.0451   25.3096 C   0  0  0  0  0  0  0  0  0  0  0  0
  -20.9743  -23.8978   22.2773 C   0  0  0  0  0  0  0  0  0  0  0  0
  -21.3549  -23.1210   21.1830 C   0  0  0  0  0  0  0  0  0  0  0  0
  -23.5997  -22.9787   22.0649 C   0  0  0  0  0  0  0  0  0  0  0  0
  -26.3383  -13.0850   20.5332 C   0  0  0  0  0  0  0  0  0  0  0  0
  -20.4219  -29.4592   25.2351 C   0  0  0  0  0  0  0  0  0  0  0  0
  -24.7383  -11.4433   20.0162 C   0  0  0  0  0  0  0  0  0  0  0  0
  -22.4383  -10.6916   18.6280 C   0  0  0  0  0  0  0  0  0  0  0  0
  -24.7207  -11.4838   18.6221 C   0  0  0  0  0  0  0  0  0  0  0  0
  -27.7624  -17.0320   19.9938 C   0  0  0  0  0  0  0  0  0  0  0  0
  -28.6821  -18.8600   19.1892 C   0  0  0  0  0  0  0  0  0  0  0  0
  -19.6292  -26.5383   23.6823 C   0  0  0  0  0  0  0  0  0  0  0  0
  -28.8201  -16.8925   17.6536 C   0  0  0  0  0  0  0  0  0  0  0  0
  -24.6522  -32.7866   24.5298 C   0  0  0  0  0  0  0  0  0  0  0  0
  -26.5933  -30.3320   25.3837 C   0  0  0  0  0  0  0  0  0  0  0  0
  -26.8890  -27.0670   26.3320 C   0  0  0  0  0  0  0  0  0  0  0  0
  -25.9826  -22.7387   22.8463 C   0  0  0  0  0  0  0  0  0  0  0  0
  -28.2158  -35.8154   22.4843 C   0  0  0  0  0  0  0  0  0  0  0  0
  -23.5732  -32.0139   26.6733 C   0  0  0  0  0  0  0  0  0  0  0  0
  -24.1918  -29.7478   24.8770 C   0  0  0  0  0  0  0  0  0  0  0  0
  -27.8682  -34.3311   22.4053 C   0  0  0  0  0  0  0  0  0  0  0  0
  -18.5550  -27.7726   21.2240 C   0  0  0  0  0  0  0  0  0  0  0  0
  -29.3971  -21.7352   22.9517 C   0  0  0  0  0  0  0  0  0  0  0  0
  -26.3792  -34.1454   22.1312 C   0  0  0  0  0  0  0  0  0  0  0  0
  -18.4583  -28.4470   22.5912 C   0  0  0  0  0  0  0  0  0  0  0  0
  -29.4284  -20.4653   22.0981 C   0  0  0  0  0  0  0  0  0  0  0  0
  -19.5129  -26.5847   21.2066 C   0  0  0  0  0  0  0  0  0  0  0  0
  -28.1088  -21.8396   23.7660 C   0  0  0  0  0  0  0  0  0  0  0  0
  -26.9014  -20.4444   22.1336 C   0  0  0  0  0  0  0  0  0  0  0  0
  -25.5316  -34.7391   23.2629 C   0  0  1  0  0  0  0  0  0  0  0  0
  -19.6040  -28.0514   23.5140 C   0  0  1  0  0  0  0  0  0  1  0  0
  -24.8231  -32.0004   25.7988 C   0  0  1  0  0  0  0  0  0  0  0  0
  -28.1514  -20.3275   21.2461 C   0  0  2  0  0  0  0  0  0  0  0  0
  -28.6063  -25.3349   26.9221 C   0  0  0  0  0  0  0  0  0  0  0  0
  -27.2913  -30.0210   22.4298 C   0  0  0  0  0  0  0  0  0  0  0  0
  -28.2151  -27.7549   22.9583 C   0  0  0  0  0  0  0  0  0  0  0  0
  -29.2313  -29.7858   23.9904 C   0  0  0  0  0  0  0  0  0  0  0  0
  -25.7847  -26.7332   29.0574 C   0  0  0  0  0  0  0  0  0  0  0  0
  -19.5672  -24.4032   22.4139 C   0  0  0  0  0  0  0  0  0  0  0  0
  -20.3747  -22.7707   20.1121 C   0  0  0  0  0  0  0  0  0  0  0  0
  -26.9611  -28.9992   24.7777 C   0  0  1  0  0  0  0  0  0  0  0  0
  -27.6729  -26.4111   27.4544 C   0  0  2  0  0  0  0  0  0  0  0  0
  -27.8977  -29.1467   23.5454 C   0  0  0  0  0  0  0  0  0  0  0  0
  -27.5836  -17.9459   20.9514 N   0  0  0  0  0  0  0  0  0  0  0  0
  -28.1538  -19.0467   20.4327 N   0  0  0  0  0  0  0  0  0  0  0  0
  -19.5136  -25.8545   22.4690 N   0  0  0  0  0  0  0  0  0  0  0  0
  -25.2275  -30.6473   25.4116 N   0  0  0  0  0  0  0  0  0  0  0  0
  -26.9413  -21.7044   22.8924 N   0  0  0  0  0  0  0  0  0  0  0  0
  -29.2922  -19.8629   18.5226 N   0  0  0  0  0  0  0  0  0  0  0  0
  -27.9196  -16.9075   16.5798 N   0  0  0  0  0  0  0  0  0  0  0  0
  -24.9336  -22.5132   21.9556 N   0  0  0  0  0  0  0  0  0  0  0  0
  -25.5231  -33.8523   24.4066 N   0  0  0  0  0  0  0  0  0  0  0  0
  -27.5209  -28.1986   25.8612 N   0  0  0  0  0  0  0  0  0  0  0  0
  -26.7444  -25.7840   28.4370 N   0  3  0  0  0  0  0  0  0  0  0  0
  -19.7519  -26.0063   24.7842 O   0  0  0  0  0  0  0  0  0  0  0  0
  -29.9178  -16.2987   17.5262 O   0  0  0  0  0  0  0  0  0  0  0  0
  -23.7947  -32.4503   23.7216 O   0  0  0  0  0  0  0  0  0  0  0  0
  -27.4845  -31.0632   25.8229 O   0  0  0  0  0  0  0  0  0  0  0  0
  -25.8247  -26.6182   25.9121 O   0  0  0  0  0  0  0  0  0  0  0  0
  -26.0990  -23.7621   23.5253 O   0  0  0  0  0  0  0  0  0  0  0  0
  -25.8795  -11.8154   20.7068 O   0  0  0  0  0  0  0  0  0  0  0  0
  -19.4250  -28.6493   24.7856 O   0  0  0  0  0  0  0  0  0  1  0  0
  -21.3343  -10.3292   17.9615 F   0  0  0  0  0  0  0  0  0  0  0  0
  -25.8059  -11.8818   17.9440 F   0  0  0  0  0  0  0  0  0  0  0  0
  -19.3431  -22.0486   20.6210 F   0  0  0  0  0  0  0  0  0  0  0  0
  -20.9578  -21.9953   19.1615 F   0  0  0  0  0  0  0  0  0  0  0  0
  1  2  1  0  0  0  0
  1  5  2  0  0  0  0
  2  6  2  0  0  0  0
  3 10  2  0  0  0  0
  3 18  1  0  0  0  0
  4 11  1  0  0  0  0
  4 18  2  0  0  0  0
  5 20  1  0  0  0  0
  6 22  1  0  0  0  0
  7 12  2  0  0  0  0
  7 21  1  0  0  0  0
  8  9  2  0  0  0  0
  8 24  1  0  0  0  0
  9 26  1  0  0  0  0
 10 27  1  0  0  0  0
 11 27  2  0  0  0  0
 12 28  1  0  0  0  0
 13 14  2  0  0  0  0
 13 29  1  0  0  0  0
 14 30  1  0  0  0  0
 15 23  1  0  0  0  0
 15 28  2  0  0  0  0
 16 25  1  0  0  0  0
 16 26  2  0  0  0  0
 17 30  2  0  0  0  0
 17 31  1  0  0  0  0
 18 32  1  0  0  0  0
 19 32  1  0  0  0  0
 19 33  2  0  0  0  0
 19 35  1  0  0  0  0
 20 22  2  0  0  0  0
 20 40  1  0  0  0  0
 21 23  2  0  0  0  0
 21 41  1  0  0  0  0
 22 52  1  0  0  0  0
 23 42  1  0  0  0  0
 24 25  2  0  0  0  0
 24 61  1  0  0  0  0
 25 62  1  0  0  0  0
 26 73  1  0  0  0  0
 27 83  1  0  0  0  0
 28 84  1  0  0  0  0
 29 31  2  0  0  0  0
 29 83  1  0  0  0  0
 30 85  1  0  0  0  0
 31 86  1  0  0  0  0
 32 66  2  0  0  0  0
 33 67  1  0  0  0  0
 33 71  1  0  0  0  0
 34 53  1  0  0  0  0
 34 68  1  0  0  0  0
 34 77  2  0  0  0  0
 35 72  1  0  0  0  0
 35 78  2  0  0  0  0
 36 54  1  0  0  0  0
 36 74  1  0  0  0  0
 36 79  2  0  0  0  0
 37 63  1  0  0  0  0
 37 69  1  0  0  0  0
 37 80  2  0  0  0  0
 38 64  1  0  0  0  0
 38 75  1  0  0  0  0
 38 81  2  0  0  0  0
 39 70  1  0  0  0  0
 39 73  1  0  0  0  0
 39 82  2  0  0  0  0
 40 43  1  0  0  0  0
 41 54  1  0  0  0  0
 42 69  1  0  0  0  0
 43 46  1  0  0  0  0
 44 47  1  0  0  0  0
 44 49  1  0  0  0  0
 45 48  1  0  0  0  0
 45 50  1  0  0  0  0
 46 52  1  0  0  0  0
 47 53  1  0  0  0  0
 48 55  1  0  0  0  0
 49 68  1  0  0  0  0
 50 70  1  0  0  0  0
 51 55  1  0  0  0  0
 51 70  1  0  0  0  0
 52 74  1  0  0  0  0
 53 84  1  0  0  0  0
 54 69  1  0  0  0  0
 55 67  1  0  0  0  0
 56 64  1  0  0  0  0
 57 65  1  0  0  0  0
 58 65  1  0  0  0  0
 59 65  1  0  0  0  0
 60 76  1  0  0  0  0
 61 68  1  0  0  0  0
 62 87  1  0  0  0  0
 62 88  1  0  0  0  0
 63 65  1  0  0  0  0
 63 75  1  0  0  0  0
 64 76  1  0  0  0  0
 66 67  1  0  0  0  0
M  CHG  1  76   1
M  ISO  4  39 100  53 101  73 100  84 101
M  END
> <Batch ID>
0044

> <Smiles>
CNC(C)C(=O)NC(C(=O)N1Cc2cc([101O:1][101CH:1]3CCCN(Cc4ccc([100NH:0][100C:0](=O)N5CCCC(n6nc(-c7ccc(Oc8ccc(F)cc8F)cc7)c(C(N)=O)c6N)C5)cc4C(F)F)C3=O)ccc2CC1C(=O)NC1CCCc2ccccc21)C(C)(C)C

> <Shape>
0.235

> <Color>
0.070

> <Negative vol penalty>
0.000

$$$$

  -OEChem-04042322183D

 89 98  0     1  0  0  0  0  0999 V2000
  -28.6893  -37.0867   23.5233 C   0  0  0  0  0  0  0  0  0  0  0  0
  -28.8845  -36.2311   22.4438 C   0  0  0  0  0  0  0  0  0  0  0  0
  -23.9706   -9.9273   22.4452 C   0  0  0  0  0  0  0  0  0  0  0  0
  -22.8582  -10.3681   20.3463 C   0  0  0  0  0  0  0  0  0  0  0  0
  -28.2157  -36.5828   24.7340 C   0  0  0  0  0  0  0  0  0  0  0  0
  -28.6071  -34.8708   22.5747 C   0  0  0  0  0  0  0  0  0  0  0  0
  -26.2407  -29.2664   18.7922 C   0  0  0  0  0  0  0  0  0  0  0  0
  -22.9653   -9.0232   22.7881 C   0  0  0  0  0  0  0  0  0  0  0  0
  -21.8529   -9.4639   20.6893 C   0  0  0  0  0  0  0  0  0  0  0  0
  -26.5930  -27.9554   18.4745 C   0  0  0  0  0  0  0  0  0  0  0  0
  -22.1258   -5.8327   22.0473 C   0  0  0  0  0  0  0  0  0  0  0  0
  -22.5134   -4.6067   22.5879 C   0  0  0  0  0  0  0  0  0  0  0  0
  -25.7038  -27.2104   20.5896 C   0  0  0  0  0  0  0  0  0  0  0  0
  -30.9100  -18.3442   16.1119 C   0  0  0  0  0  0  0  0  0  0  0  0
  -29.2575  -18.7288   17.8318 C   0  0  0  0  0  0  0  0  0  0  0  0
  -21.2696   -5.1004   24.5994 C   0  0  0  0  0  0  0  0  0  0  0  0
  -23.9170  -10.5998   21.2243 C   0  0  0  0  0  0  0  0  0  0  0  0
  -26.1491  -11.2563   20.1781 C   0  0  0  0  0  0  0  0  0  0  0  0
  -27.9232  -35.2173   24.8768 C   0  0  0  0  0  0  0  0  0  0  0  0
  -25.6262  -29.5613   20.0177 C   0  0  0  0  0  0  0  0  0  0  0  0
  -28.1304  -34.3480   23.7888 C   0  0  0  0  0  0  0  0  0  0  0  0
  -25.3425  -28.5256   20.9193 C   0  0  0  0  0  0  0  0  0  0  0  0
  -30.4565  -19.0759   17.2094 C   0  0  0  0  0  0  0  0  0  0  0  0
  -30.1643  -17.2653   15.6367 C   0  0  0  0  0  0  0  0  0  0  0  0
  -28.9653  -16.9182   16.2591 C   0  0  0  0  0  0  0  0  0  0  0  0
  -28.5118  -17.6499   17.3567 C   0  0  0  0  0  0  0  0  0  0  0  0
  -21.9065   -8.7915   21.9102 C   0  0  0  0  0  0  0  0  0  0  0  0
  -26.3272  -26.9276   19.3745 C   0  0  0  0  0  0  0  0  0  0  0  0
  -21.3101   -6.6926   22.7828 C   0  0  0  0  0  0  0  0  0  0  0  0
  -22.0853   -4.2405   23.8639 C   0  0  0  0  0  0  0  0  0  0  0  0
  -20.8820   -6.3265   24.0588 C   0  0  0  0  0  0  0  0  0  0  0  0
  -24.9548  -11.5343   20.8697 C   0  0  0  0  0  0  0  0  0  0  0  0
  -26.7873  -12.4695   20.0937 C   0  0  0  0  0  0  0  0  0  0  0  0
  -29.1614  -23.4235   17.7076 C   0  0  0  0  0  0  0  0  0  0  0  0
  -29.7665  -22.1445   18.2066 C   0  0  0  0  0  0  0  0  0  0  0  0
  -28.4636  -24.1708   18.5763 C   0  0  0  0  0  0  0  0  0  0  0  0
  -26.6377  -10.0126   19.6584 C   0  0  0  0  0  0  0  0  0  0  0  0
  -26.3919  -31.3355   22.5415 C   0  0  0  0  0  0  0  0  0  0  0  0
  -23.3946  -30.5584   23.5081 C   0  0  0  0  0  0  0  0  0  0  0  0
  -20.7623  -28.3938   23.3283 C   0  0  0  0  0  0  0  0  0  0  0  0
  -26.7231  -17.9488   19.1052 C   0  0  0  0  0  0  0  0  0  0  0  0
  -27.4582  -34.7111   26.2193 C   0  0  0  0  0  0  0  0  0  0  0  0
  -25.2283  -30.9769   20.3339 C   0  0  0  0  0  0  0  0  0  0  0  0
  -24.6661  -28.7866   22.2395 C   0  0  0  0  0  0  0  0  0  0  0  0
  -29.3684  -23.8507   16.2874 C   0  0  0  0  0  0  0  0  0  0  0  0
  -26.8326  -33.3198   26.1623 C   0  0  0  0  0  0  0  0  0  0  0  0
  -30.7617  -23.4762   15.8207 C   0  0  0  0  0  0  0  0  0  0  0  0
  -25.7946  -16.8793   22.3719 C   0  0  0  0  0  0  0  0  0  0  0  0
  -27.6991  -32.3784   25.3317 C   0  0  0  0  0  0  0  0  0  0  0  0
  -25.5916  -15.3705   22.2154 C   0  0  0  0  0  0  0  0  0  0  0  0
  -30.9638  -21.9823   15.9898 C   0  0  0  0  0  0  0  0  0  0  0  0
  -25.3247  -17.6459   21.1369 C   0  0  0  0  0  0  0  0  0  0  0  0
  -25.6888  -15.6723   19.7081 C   0  0  0  0  0  0  0  0  0  0  0  0
  -27.8174  -32.8705   23.8842 C   0  0  1  0  0  0  0  0  0  0  0  0
  -25.0726  -31.2339   21.8296 C   0  0  1  0  0  0  0  0  0  0  0  0
  -26.2073  -14.8524   20.9009 C   0  0  2  0  0  0  0  0  0  0  0  0
  -30.6715  -16.4996   14.4587 C   0  0  0  0  0  0  0  0  0  0  0  0
  -28.1685  -15.7603   15.7447 C   0  0  0  0  0  0  0  0  0  0  0  0
  -18.4662  -28.0026   24.2622 C   0  0  0  0  0  0  0  0  0  0  0  0
  -24.6273  -29.5721   26.1192 C   0  0  0  0  0  0  0  0  0  0  0  0
  -22.4890  -28.3574   26.5888 C   0  0  0  0  0  0  0  0  0  0  0  0
  -22.4910  -30.8440   26.3891 C   0  0  0  0  0  0  0  0  0  0  0  0
  -19.5143  -28.5873   20.6517 C   0  0  0  0  0  0  0  0  0  0  0  0
  -31.2584  -20.2380   17.7199 C   0  0  0  0  0  0  0  0  0  0  0  0
  -27.8067  -25.4640   18.2234 C   0  0  0  0  0  0  0  0  0  1  0  0
  -22.7885  -29.4335   24.3121 C   0  0  1  0  0  0  0  0  0  0  0  0
  -19.2750  -28.6302   23.1376 C   0  0  2  0  0  0  0  0  0  0  0  0
  -23.1135  -29.5468   25.8283 C   0  0  0  0  0  0  0  0  0  0  0  0
  -24.8390  -12.8230   21.2012 N   0  0  0  0  0  0  0  0  0  0  0  0
  -25.9686  -13.3655   20.7159 N   0  0  0  0  0  0  0  0  0  0  0  0
  -30.6670  -21.5157   17.3440 N   0  0  0  0  0  0  0  0  0  0  0  0
  -24.3021  -30.1881   22.5056 N   0  0  0  0  0  0  0  0  0  0  0  0
  -25.9524  -17.1026   19.9304 N   0  0  0  0  0  0  0  0  0  0  0  0
  -27.9634  -12.8467   19.5487 N   0  0  0  0  0  0  0  0  0  0  0  0
  -25.8558   -8.8625   19.8322 N   0  0  0  0  0  0  0  0  0  0  0  0
  -27.2973  -17.3137   18.0045 N   0  0  0  0  0  0  0  0  0  0  0  0
  -26.6131  -32.5590   23.1445 N   0  0  0  0  0  0  0  0  0  0  0  0
  -21.3623  -29.4347   24.0049 N   0  0  0  0  0  0  0  0  0  0  0  0
  -18.8186  -28.0430   21.8461 N   0  3  0  0  0  0  0  0  0  0  0  0
  -29.4663  -21.7081   19.3189 O   0  0  0  0  0  0  0  0  0  0  0  0
  -27.7429   -9.9208   19.0722 O   0  0  0  0  0  0  0  0  0  0  0  0
  -27.1523  -30.3745   22.5447 O   0  0  0  0  0  0  0  0  0  0  0  0
  -23.0692  -31.7222   23.7557 O   0  0  0  0  0  0  0  0  0  0  0  0
  -21.3340  -27.3848   22.9212 O   0  0  0  0  0  0  0  0  0  0  0  0
  -26.8857  -19.1424   19.3713 O   0  0  0  0  0  0  0  0  0  0  0  0
  -20.9255   -7.9091   22.2444 O   0  0  0  0  0  0  0  0  0  0  0  0
  -26.6705  -25.6471   19.0672 O   0  0  0  0  0  0  0  0  0  1  0  0
  -22.4563   -3.0625   24.3823 F   0  0  0  0  0  0  0  0  0  0  0  0
  -20.0973   -7.1479   24.7697 F   0  0  0  0  0  0  0  0  0  0  0  0
  1  2  1  0  0  0  0
  1  5  2  0  0  0  0
  2  6  2  0  0  0  0
  3  8  2  0  0  0  0
  3 17  1  0  0  0  0
  4  9  1  0  0  0  0
  4 17  2  0  0  0  0
  5 19  1  0  0  0  0
  6 21  1  0  0  0  0
  7 10  2  0  0  0  0
  7 20  1  0  0  0  0
  8 27  1  0  0  0  0
  9 27  2  0  0  0  0
 10 28  1  0  0  0  0
 11 12  2  0  0  0  0
 11 29  1  0  0  0  0
 12 30  1  0  0  0  0
 13 22  1  0  0  0  0
 13 28  2  0  0  0  0
 14 23  1  0  0  0  0
 14 24  2  0  0  0  0
 15 23  2  0  0  0  0
 15 26  1  0  0  0  0
 16 30  2  0  0  0  0
 16 31  1  0  0  0  0
 17 32  1  0  0  0  0
 18 32  1  0  0  0  0
 18 33  2  0  0  0  0
 18 37  1  0  0  0  0
 19 21  2  0  0  0  0
 19 42  1  0  0  0  0
 20 22  2  0  0  0  0
 20 43  1  0  0  0  0
 21 54  1  0  0  0  0
 22 44  1  0  0  0  0
 23 64  1  0  0  0  0
 24 25  1  0  0  0  0
 24 57  1  0  0  0  0
 25 26  2  0  0  0  0
 25 58  1  0  0  0  0
 26 76  1  0  0  0  0
 27 86  1  0  0  0  0
 28 87  1  0  0  0  0
 29 31  2  0  0  0  0
 29 86  1  0  0  0  0
 30 88  1  0  0  0  0
 31 89  1  0  0  0  0
 32 69  2  0  0  0  0
 33 70  1  0  0  0  0
 33 74  1  0  0  0  0
 34 35  1  0  0  0  0
 34 36  2  0  0  0  0
 34 45  1  0  0  0  0
 35 71  1  0  0  0  0
 35 80  2  0  0  0  0
 36 65  1  0  0  0  0
 37 75  1  0  0  0  0
 37 81  2  0  0  0  0
 38 55  1  0  0  0  0
 38 77  1  0  0  0  0
 38 82  2  0  0  0  0
 39 66  1  0  0  0  0
 39 72  1  0  0  0  0
 39 83  2  0  0  0  0
 40 67  1  0  0  0  0
 40 78  1  0  0  0  0
 40 84  2  0  0  0  0
 41 73  1  0  0  0  0
 41 76  1  0  0  0  0
 41 85  2  0  0  0  0
 42 46  1  0  0  0  0
 43 55  1  0  0  0  0
 44 72  1  0  0  0  0
 45 47  1  0  0  0  0
 46 49  1  0  0  0  0
 47 51  1  0  0  0  0
 48 50  1  0  0  0  0
 48 52  1  0  0  0  0
 49 54  1  0  0  0  0
 50 56  1  0  0  0  0
 51 71  1  0  0  0  0
 52 73  1  0  0  0  0
 53 56  1  0  0  0  0
 53 73  1  0  0  0  0
 54 77  1  0  0  0  0
 55 72  1  0  0  0  0
 56 70  1  0  0  0  0
 59 67  1  0  0  0  0
 60 68  1  0  0  0  0
 61 68  1  0  0  0  0
 62 68  1  0  0  0  0
 63 79  1  0  0  0  0
 64 71  1  0  0  0  0
 65 87  1  0  0  0  0
 66 68  1  0  0  0  0
 66 78  1  0  0  0  0
 67 79  1  0  0  0  0
 69 70  1  0  0  0  0
M  CHG  1  79   1
M  ISO  4  41 100  65 101  76 100  87 101
M  END
> <Batch ID>
0044

> <Smiles>
CNC(C)C(=O)NC(C(=O)N1Cc2cc([101O:1][101CH2:1]C=C3CCCN(Cc4cc(C)c(C)c([100NH:0][100C:0](=O)N5CCCC(n6nc(-c7ccc(Oc8ccc(F)cc8F)cc7)c(C(N)=O)c6N)C5)c4)C3=O)ccc2CC1C(=O)NC1CCCc2ccccc21)C(C)(C)C

> <Shape>
0.311

> <Color>
0.098

> <Negative vol penalty>
0.000

$$$$

  -OEChem-04042322183D

 87 96  0     1  0  0  0  0  0999 V2000
  -16.6365  -29.7932   23.8180 C   0  0  0  0  0  0  0  0  0  0  0  0
  -17.0452  -28.4848   24.0560 C   0  0  0  0  0  0  0  0  0  0  0  0
  -22.6627  -10.2019   20.2047 C   0  0  0  0  0  0  0  0  0  0  0  0
  -24.3138   -9.4578   21.8039 C   0  0  0  0  0  0  0  0  0  0  0  0
  -17.4577  -30.6584   23.0962 C   0  0  0  0  0  0  0  0  0  0  0  0
  -18.2749  -28.0406   23.5713 C   0  0  0  0  0  0  0  0  0  0  0  0
  -23.6369  -23.5793   25.2029 C   0  0  0  0  0  0  0  0  0  0  0  0
  -32.7257  -17.3595   23.4843 C   0  0  0  0  0  0  0  0  0  0  0  0
  -32.0992  -16.5243   22.5593 C   0  0  0  0  0  0  0  0  0  0  0  0
  -21.9308   -9.0336   20.4167 C   0  0  0  0  0  0  0  0  0  0  0  0
  -23.5819   -8.2895   22.0159 C   0  0  0  0  0  0  0  0  0  0  0  0
  -24.3785  -22.5379   24.6468 C   0  0  0  0  0  0  0  0  0  0  0  0
  -20.8332   -7.3534   23.7448 C   0  0  0  0  0  0  0  0  0  0  0  0
  -20.6468   -6.9375   25.0631 C   0  0  0  0  0  0  0  0  0  0  0  0
  -25.7491  -24.1444   23.4807 C   0  0  0  0  0  0  0  0  0  0  0  0
  -21.7767   -4.8603   24.5675 C   0  0  0  0  0  0  0  0  0  0  0  0
  -23.8543  -10.4140   20.8983 C   0  0  0  0  0  0  0  0  0  0  0  0
  -24.1812  -12.9440   20.8917 C   0  0  0  0  0  0  0  0  0  0  0  0
  -18.7024  -30.2274   22.6107 C   0  0  0  0  0  0  0  0  0  0  0  0
  -23.9394  -24.9131   24.8929 C   0  0  0  0  0  0  0  0  0  0  0  0
  -19.1129  -28.9005   22.8412 C   0  0  0  0  0  0  0  0  0  0  0  0
  -25.0114  -25.2010   24.0361 C   0  0  0  0  0  0  0  0  0  0  0  0
  -31.9615  -18.1922   24.3019 C   0  0  0  0  0  0  0  0  0  0  0  0
  -30.5708  -18.1897   24.1943 C   0  0  0  0  0  0  0  0  0  0  0  0
  -29.9443  -17.3546   23.2693 C   0  0  0  0  0  0  0  0  0  0  0  0
  -30.7085  -16.5219   22.4518 C   0  0  0  0  0  0  0  0  0  0  0  0
  -22.3904   -8.0774   21.3223 C   0  0  0  0  0  0  0  0  0  0  0  0
  -25.4329  -22.8202   23.7833 C   0  0  0  0  0  0  0  0  0  0  0  0
  -21.4913   -6.5227   22.8378 C   0  0  0  0  0  0  0  0  0  0  0  0
  -21.1185   -5.6910   25.4745 C   0  0  0  0  0  0  0  0  0  0  0  0
  -21.9630   -5.2762   23.2492 C   0  0  0  0  0  0  0  0  0  0  0  0
  -24.6111  -11.6204   20.6793 C   0  0  0  0  0  0  0  0  0  0  0  0
  -25.2604  -13.7165   20.5381 C   0  0  0  0  0  0  0  0  0  0  0  0
  -27.8669  -20.4959   24.2779 C   0  0  0  0  0  0  0  0  0  0  0  0
  -22.9192  -13.4316   21.3664 C   0  0  0  0  0  0  0  0  0  0  0  0
  -22.3795  -27.2981   23.4851 C   0  0  0  0  0  0  0  0  0  0  0  0
  -24.9871  -29.0107   24.3738 C   0  0  0  0  0  0  0  0  0  0  0  0
  -28.5612  -28.5226   24.4392 C   0  0  0  0  0  0  0  0  0  0  0  0
  -30.7243  -14.7846   20.6276 C   0  0  0  0  0  0  0  0  0  0  0  0
  -19.5345  -31.1849   21.7951 C   0  0  0  0  0  0  0  0  0  0  0  0
  -23.1469  -26.0259   25.5219 C   0  0  0  0  0  0  0  0  0  0  0  0
  -25.3897  -26.6166   23.6873 C   0  0  0  0  0  0  0  0  0  0  0  0
  -20.9884  -30.7469   21.6379 C   0  0  0  0  0  0  0  0  0  0  0  0
  -29.8461  -21.7249   22.4631 C   0  0  0  0  0  0  0  0  0  0  0  0
  -29.5623  -12.4809   18.1740 C   0  0  0  0  0  0  0  0  0  0  0  0
  -21.0634  -29.2713   21.2588 C   0  0  0  0  0  0  0  0  0  0  0  0
  -28.3405  -21.8255   22.2255 C   0  0  0  0  0  0  0  0  0  0  0  0
  -28.1352  -12.1606   18.6245 C   0  0  0  0  0  0  0  0  0  0  0  0
  -30.2013  -21.2158   23.8573 C   0  0  0  0  0  0  0  0  0  0  0  0
  -30.5061  -12.6570   19.3622 C   0  0  0  0  0  0  0  0  0  0  0  0
  -28.6309  -13.3030   20.8236 C   0  0  0  0  0  0  0  0  0  0  0  0
  -20.4508  -28.3888   22.3531 C   0  0  1  0  0  0  0  0  0  0  0  0
  -27.5452  -21.7791   23.5239 C   0  0  1  0  0  0  0  0  0  1  0  0
  -23.2167  -27.3295   24.7324 C   0  0  1  0  0  0  0  0  0  0  0  0
  -27.6297  -13.1809   19.6633 C   0  0  2  0  0  0  0  0  0  0  0  0
  -32.6575  -19.0765   25.2839 C   0  0  0  0  0  0  0  0  0  0  0  0
  -28.4517  -17.3535   23.1557 C   0  0  0  0  0  0  0  0  0  0  0  0
  -30.3203  -29.5406   25.9112 C   0  0  0  0  0  0  0  0  0  0  0  0
  -25.2800  -31.0488   22.1221 C   0  0  0  0  0  0  0  0  0  0  0  0
  -27.7515  -31.0317   22.5222 C   0  0  0  0  0  0  0  0  0  0  0  0
  -26.2030  -31.7887   24.3255 C   0  0  0  0  0  0  0  0  0  0  0  0
  -29.5542  -25.8665   25.2866 C   0  0  0  0  0  0  0  0  0  0  0  0
  -29.7509  -19.0870   25.0757 C   0  0  0  0  0  0  0  0  0  0  0  0
  -26.3212  -29.3311   23.7442 C   0  0  1  0  0  0  0  0  0  0  0  0
  -29.4300  -28.3316   25.6694 C   0  0  2  0  0  0  0  0  0  0  0  0
  -26.3751  -30.7759   23.1725 C   0  0  0  0  0  0  0  0  0  0  0  0
  -25.8655  -11.5522   20.2257 N   0  0  0  0  0  0  0  0  0  0  0  0
  -26.2331  -12.8427   20.1501 N   0  0  0  0  0  0  0  0  0  0  0  0
  -29.2386  -20.2389   24.3529 N   0  0  0  0  0  0  0  0  0  0  0  0
  -24.5807  -27.6698   24.3227 N   0  0  0  0  0  0  0  0  0  0  0  0
  -29.9644  -13.6412   20.3019 N   0  0  0  0  0  0  0  0  0  0  0  0
  -25.4627  -15.0511   20.5242 N   0  0  0  0  0  0  0  0  0  0  0  0
  -21.9203  -12.5013   21.6844 N   0  0  0  0  0  0  0  0  0  0  0  0
  -30.0933  -15.6654   21.5054 N   0  0  0  0  0  0  0  0  0  0  0  0
  -21.3720  -28.2435   23.4598 N   0  0  0  0  0  0  0  0  0  0  0  0
  -27.3297  -29.0528   24.7610 N   0  0  0  0  0  0  0  0  0  0  0  0
  -30.2998  -27.1322   25.5081 N   0  3  0  0  0  0  0  0  0  0  0  0
  -26.9879  -19.7890   24.7676 O   0  0  0  0  0  0  0  0  0  0  0  0
  -22.6787  -14.6566   21.4888 O   0  0  0  0  0  0  0  0  0  0  0  0
  -22.6301  -26.4779   22.6097 O   0  0  0  0  0  0  0  0  0  0  0  0
  -24.3330  -29.9156   24.8982 O   0  0  0  0  0  0  0  0  0  0  0  0
  -28.9388  -28.2340   23.3058 O   0  0  0  0  0  0  0  0  0  0  0  0
  -31.8405  -14.9822   20.1408 O   0  0  0  0  0  0  0  0  0  0  0  0
  -21.6763   -6.9374   21.5296 O   0  0  0  0  0  0  0  0  0  0  0  0
  -26.1580  -21.8055   23.2387 O   0  0  0  0  0  0  0  0  0  1  0  0
  -20.9408   -5.2924   26.7408 F   0  0  0  0  0  0  0  0  0  0  0  0
  -22.5971   -4.4743   22.3828 F   0  0  0  0  0  0  0  0  0  0  0  0
  1  2  1  0  0  0  0
  1  5  2  0  0  0  0
  2  6  2  0  0  0  0
  3 10  2  0  0  0  0
  3 17  1  0  0  0  0
  4 11  1  0  0  0  0
  4 17  2  0  0  0  0
  5 19  1  0  0  0  0
  6 21  1  0  0  0  0
  7 12  2  0  0  0  0
  7 20  1  0  0  0  0
  8  9  1  0  0  0  0
  8 23  2  0  0  0  0
  9 26  2  0  0  0  0
 10 27  1  0  0  0  0
 11 27  2  0  0  0  0
 12 28  1  0  0  0  0
 13 14  2  0  0  0  0
 13 29  1  0  0  0  0
 14 30  1  0  0  0  0
 15 22  1  0  0  0  0
 15 28  2  0  0  0  0
 16 30  2  0  0  0  0
 16 31  1  0  0  0  0
 17 32  1  0  0  0  0
 18 32  1  0  0  0  0
 18 33  2  0  0  0  0
 18 35  1  0  0  0  0
 19 21  2  0  0  0  0
 19 40  1  0  0  0  0
 20 22  2  0  0  0  0
 20 41  1  0  0  0  0
 21 52  1  0  0  0  0
 22 42  1  0  0  0  0
 23 24  1  0  0  0  0
 23 56  1  0  0  0  0
 24 25  2  0  0  0  0
 24 63  1  0  0  0  0
 25 26  1  0  0  0  0
 25 57  1  0  0  0  0
 26 74  1  0  0  0  0
 27 84  1  0  0  0  0
 28 85  1  0  0  0  0
 29 31  2  0  0  0  0
 29 84  1  0  0  0  0
 30 86  1  0  0  0  0
 31 87  1  0  0  0  0
 32 67  2  0  0  0  0
 33 68  1  0  0  0  0
 33 72  1  0  0  0  0
 34 53  1  0  0  0  0
 34 69  1  0  0  0  0
 34 78  2  0  0  0  0
 35 73  1  0  0  0  0
 35 79  2  0  0  0  0
 36 54  1  0  0  0  0
 36 75  1  0  0  0  0
 36 80  2  0  0  0  0
 37 64  1  0  0  0  0
 37 70  1  0  0  0  0
 37 81  2  0  0  0  0
 38 65  1  0  0  0  0
 38 76  1  0  0  0  0
 38 82  2  0  0  0  0
 39 71  1  0  0  0  0
 39 74  1  0  0  0  0
 39 83  2  0  0  0  0
 40 43  1  0  0  0  0
 41 54  1  0  0  0  0
 42 70  1  0  0  0  0
 43 46  1  0  0  0  0
 44 47  1  0  0  0  0
 44 49  1  0  0  0  0
 45 48  1  0  0  0  0
 45 50  1  0  0  0  0
 46 52  1  0  0  0  0
 47 53  1  0  0  0  0
 48 55  1  0  0  0  0
 49 69  1  0  0  0  0
 50 71  1  0  0  0  0
 51 55  1  0  0  0  0
 51 71  1  0  0  0  0
 52 75  1  0  0  0  0
 53 85  1  0  0  0  0
 54 70  1  0  0  0  0
 55 68  1  0  0  0  0
 58 65  1  0  0  0  0
 59 66  1  0  0  0  0
 60 66  1  0  0  0  0
 61 66  1  0  0  0  0
 62 77  1  0  0  0  0
 63 69  1  0  0  0  0
 64 66  1  0  0  0  0
 64 76  1  0  0  0  0
 65 77  1  0  0  0  0
 67 68  1  0  0  0  0
M  CHG  1  77   1
M  ISO  4  39 100  53 101  74 100  85 101
M  END
> <Batch ID>
0044

> <Smiles>
CNC(C)C(=O)NC(C(=O)N1Cc2cc([101O:1][101CH:1]3CCCN(Cc4c(C)ccc([100NH:0][100C:0](=O)N5CCCC(n6nc(-c7ccc(Oc8ccc(F)cc8F)cc7)c(C(N)=O)c6N)C5)c4C)C3=O)ccc2CC1C(=O)NC1CCCc2ccccc21)C(C)(C)C

> <Shape>
0.305

> <Color>
0.225

> <Negative vol penalty>
0.000

$$$$

  -OEChem-04042322183D

 88 97  0     1  0  0  0  0  0999 V2000
  -32.5631  -31.0403   20.4615 C   0  0  0  0  0  0  0  0  0  0  0  0
  -31.6040  -30.0377   20.3595 C   0  0  0  0  0  0  0  0  0  0  0  0
  -23.5471  -10.7618   23.3432 C   0  0  0  0  0  0  0  0  0  0  0  0
  -24.5887   -9.1499   21.8755 C   0  0  0  0  0  0  0  0  0  0  0  0
  -32.4490  -32.0143   21.4527 C   0  0  0  0  0  0  0  0  0  0  0  0
  -30.5308  -30.0079   21.2494 C   0  0  0  0  0  0  0  0  0  0  0  0
  -26.1128  -29.1278   18.9361 C   0  0  0  0  0  0  0  0  0  0  0  0
  -29.9562  -20.4317   20.6683 C   0  0  0  0  0  0  0  0  0  0  0  0
  -29.8590  -19.0656   20.4038 C   0  0  0  0  0  0  0  0  0  0  0  0
  -23.1065   -9.7266   24.1676 C   0  0  0  0  0  0  0  0  0  0  0  0
  -24.1481   -8.1146   22.7000 C   0  0  0  0  0  0  0  0  0  0  0  0
  -25.8368  -27.8111   18.5703 C   0  0  0  0  0  0  0  0  0  0  0  0
  -21.2738   -6.4228   23.2544 C   0  0  0  0  0  0  0  0  0  0  0  0
  -20.7059   -5.3049   22.6435 C   0  0  0  0  0  0  0  0  0  0  0  0
  -24.4407  -27.5678   20.5225 C   0  0  0  0  0  0  0  0  0  0  0  0
  -22.4205   -3.9048   23.6115 C   0  0  0  0  0  0  0  0  0  0  0  0
  -24.2882  -10.4735   22.1971 C   0  0  0  0  0  0  0  0  0  0  0  0
  -23.9483  -12.4861   20.6669 C   0  0  0  0  0  0  0  0  0  0  0  0
  -31.3688  -32.0019   22.3490 C   0  0  0  0  0  0  0  0  0  0  0  0
  -25.5626  -29.6719   20.1056 C   0  0  0  0  0  0  0  0  0  0  0  0
  -30.4030  -30.9818   22.2543 C   0  0  0  0  0  0  0  0  0  0  0  0
  -24.7093  -28.8925   20.8996 C   0  0  0  0  0  0  0  0  0  0  0  0
  -28.8022  -21.2119   20.7409 C   0  0  0  0  0  0  0  0  0  0  0  0
  -27.5510  -20.6261   20.5489 C   0  0  0  0  0  0  0  0  0  0  0  0
  -27.4538  -19.2600   20.2844 C   0  0  0  0  0  0  0  0  0  0  0  0
  -28.6078  -18.4797   20.2119 C   0  0  0  0  0  0  0  0  0  0  0  0
  -23.4070   -8.4030   23.8460 C   0  0  0  0  0  0  0  0  0  0  0  0
  -25.0029  -27.0299   19.3651 C   0  0  0  0  0  0  0  0  0  0  0  0
  -22.4152   -6.2818   24.0438 C   0  0  0  0  0  0  0  0  0  0  0  0
  -21.2792   -4.0459   22.8220 C   0  0  0  0  0  0  0  0  0  0  0  0
  -22.9885   -5.0228   24.2224 C   0  0  0  0  0  0  0  0  0  0  0  0
  -24.7432  -11.5425   21.3448 C   0  0  0  0  0  0  0  0  0  0  0  0
  -24.8502  -13.2788   19.9999 C   0  0  0  0  0  0  0  0  0  0  0  0
  -25.6911  -23.7534   19.9442 C   0  0  0  0  0  0  0  0  0  0  0  0
  -22.5223  -12.6331   20.6424 C   0  0  0  0  0  0  0  0  0  0  0  0
  -26.7528  -30.8415   22.8110 C   0  0  0  0  0  0  0  0  0  0  0  0
  -23.6513  -31.5906   23.3954 C   0  0  0  0  0  0  0  0  0  0  0  0
  -20.4353  -30.0122   22.9674 C   0  0  0  0  0  0  0  0  0  0  0  0
  -29.5934  -16.1908   19.8436 C   0  0  0  0  0  0  0  0  0  0  0  0
  -31.3134  -33.0485   23.4336 C   0  0  0  0  0  0  0  0  0  0  0  0
  -25.8487  -31.1024   20.4721 C   0  0  0  0  0  0  0  0  0  0  0  0
  -24.0772  -29.4359   22.1541 C   0  0  0  0  0  0  0  0  0  0  0  0
  -29.9451  -33.1627   24.1006 C   0  0  0  0  0  0  0  0  0  0  0  0
  -27.0342  -23.3418   17.3725 C   0  0  0  0  0  0  0  0  0  0  0  0
  -29.8191  -12.6899   19.2354 C   0  0  0  0  0  0  0  0  0  0  0  0
  -29.4031  -31.7796   24.4474 C   0  0  0  0  0  0  0  0  0  0  0  0
  -25.9058  -24.3459   17.4802 C   0  0  0  0  0  0  0  0  0  0  0  0
  -28.4533  -12.1569   19.6742 C   0  0  0  0  0  0  0  0  0  0  0  0
  -26.7659  -22.1706   18.3006 C   0  0  0  0  0  0  0  0  0  0  0  0
  -30.3003  -13.8265   20.1356 C   0  0  0  0  0  0  0  0  0  0  0  0
  -27.9820  -14.3986   20.7419 C   0  0  0  0  0  0  0  0  0  0  0  0
  -29.2111  -30.9300   23.1853 C   0  0  1  0  0  0  0  0  0  0  0  0
  -25.8346  -24.8583   18.9052 C   0  0  1  0  0  0  0  0  0  1  0  0
  -25.6459  -31.3910   21.9563 C   0  0  1  0  0  0  0  0  0  0  0  0
  -27.4261  -13.2960   19.8260 C   0  0  2  0  0  0  0  0  0  0  0  0
  -28.9345  -22.6723   21.0255 C   0  0  0  0  0  0  0  0  0  0  0  0
  -25.3675  -18.4203   21.3930 C   0  0  0  0  0  0  0  0  0  0  0  0
  -18.1553  -31.0130   22.6550 C   0  0  0  0  0  0  0  0  0  0  0  0
  -23.4237  -31.2934   26.4236 C   0  0  0  0  0  0  0  0  0  0  0  0
  -21.0254  -30.6467   26.1099 C   0  0  0  0  0  0  0  0  0  0  0  0
  -21.8070  -32.9098   25.4096 C   0  0  0  0  0  0  0  0  0  0  0  0
  -19.9870  -28.4994   20.4635 C   0  0  0  0  0  0  0  0  0  0  0  0
  -26.1100  -18.6333   20.0788 C   0  0  0  0  0  0  0  0  0  0  0  0
  -26.3107  -21.4684   20.6278 C   0  0  0  0  0  0  0  0  0  0  0  0
  -22.4873  -30.8884   24.0519 C   0  0  1  0  0  0  0  0  0  0  0  0
  -19.3614  -30.3948   21.9650 C   0  0  2  0  0  0  0  0  0  0  0  0
  -22.2066  -31.4200   25.4857 C   0  0  0  0  0  0  0  0  0  0  0  0
  -26.0494  -11.7179   21.1282 N   0  0  0  0  0  0  0  0  0  0  0  0
  -26.0823  -12.7809   20.3066 N   0  0  0  0  0  0  0  0  0  0  0  0
  -26.3178  -22.5426   19.6437 N   0  0  0  0  0  0  0  0  0  0  0  0
  -24.3925  -30.8380   22.4735 N   0  0  0  0  0  0  0  0  0  0  0  0
  -29.2777  -14.8707   20.2288 N   0  0  0  0  0  0  0  0  0  0  0  0
  -24.7014  -14.3461   19.1868 N   0  0  0  0  0  0  0  0  0  0  0  0
  -21.7451  -11.7333   21.3844 N   0  0  0  0  0  0  0  0  0  0  0  0
  -28.5326  -17.0903   19.9446 N   0  0  0  0  0  0  0  0  0  0  0  0
  -28.0061  -31.3258   22.4882 N   0  0  0  0  0  0  0  0  0  0  0  0
  -21.3607  -31.0206   23.1344 N   0  0  0  0  0  0  0  0  0  0  0  0
  -18.9061  -29.1935   21.2097 N   0  3  0  0  0  0  0  0  0  0  0  0
  -25.1039  -23.9802   21.0053 O   0  0  0  0  0  0  0  0  0  0  0  0
  -21.9534  -13.5255   19.9690 O   0  0  0  0  0  0  0  0  0  0  0  0
  -26.4892  -30.0388   23.6986 O   0  0  0  0  0  0  0  0  0  0  0  0
  -23.8896  -32.7659   23.6846 O   0  0  0  0  0  0  0  0  0  0  0  0
  -20.4496  -28.9286   23.5472 O   0  0  0  0  0  0  0  0  0  0  0  0
  -30.7142  -16.4948   19.4272 O   0  0  0  0  0  0  0  0  0  0  0  0
  -22.9774   -7.3925   24.6503 O   0  0  0  0  0  0  0  0  0  0  0  0
  -24.7324  -25.7442   19.0108 O   0  0  0  0  0  0  0  0  0  1  0  0
  -20.7328   -2.9722   22.2365 F   0  0  0  0  0  0  0  0  0  0  0  0
  -24.0842   -4.8808   24.9806 F   0  0  0  0  0  0  0  0  0  0  0  0
  1  2  1  0  0  0  0
  1  5  2  0  0  0  0
  2  6  2  0  0  0  0
  3 10  2  0  0  0  0
  3 17  1  0  0  0  0
  4 11  1  0  0  0  0
  4 17  2  0  0  0  0
  5 19  1  0  0  0  0
  6 21  1  0  0  0  0
  7 12  2  0  0  0  0
  7 20  1  0  0  0  0
  8  9  1  0  0  0  0
  8 23  2  0  0  0  0
  9 26  2  0  0  0  0
 10 27  1  0  0  0  0
 11 27  2  0  0  0  0
 12 28  1  0  0  0  0
 13 14  2  0  0  0  0
 13 29  1  0  0  0  0
 14 30  1  0  0  0  0
 15 22  1  0  0  0  0
 15 28  2  0  0  0  0
 16 30  2  0  0  0  0
 16 31  1  0  0  0  0
 17 32  1  0  0  0  0
 18 32  1  0  0  0  0
 18 33  2  0  0  0  0
 18 35  1  0  0  0  0
 19 21  2  0  0  0  0
 19 40  1  0  0  0  0
 20 22  2  0  0  0  0
 20 41  1  0  0  0  0
 21 52  1  0  0  0  0
 22 42  1  0  0  0  0
 23 24  1  0  0  0  0
 23 56  1  0  0  0  0
 24 25  2  0  0  0  0
 24 64  1  0  0  0  0
 25 26  1  0  0  0  0
 25 63  1  0  0  0  0
 26 75  1  0  0  0  0
 27 85  1  0  0  0  0
 28 86  1  0  0  0  0
 29 31  2  0  0  0  0
 29 85  1  0  0  0  0
 30 87  1  0  0  0  0
 31 88  1  0  0  0  0
 32 68  2  0  0  0  0
 33 69  1  0  0  0  0
 33 73  1  0  0  0  0
 34 53  1  0  0  0  0
 34 70  1  0  0  0  0
 34 79  2  0  0  0  0
 35 74  1  0  0  0  0
 35 80  2  0  0  0  0
 36 54  1  0  0  0  0
 36 76  1  0  0  0  0
 36 81  2  0  0  0  0
 37 65  1  0  0  0  0
 37 71  1  0  0  0  0
 37 82  2  0  0  0  0
 38 66  1  0  0  0  0
 38 77  1  0  0  0  0
 38 83  2  0  0  0  0
 39 72  1  0  0  0  0
 39 75  1  0  0  0  0
 39 84  2  0  0  0  0
 40 43  1  0  0  0  0
 41 54  1  0  0  0  0
 42 71  1  0  0  0  0
 43 46  1  0  0  0  0
 44 47  1  0  0  0  0
 44 49  1  0  0  0  0
 45 48  1  0  0  0  0
 45 50  1  0  0  0  0
 46 52  1  0  0  0  0
 47 53  1  0  0  0  0
 48 55  1  0  0  0  0
 49 70  1  0  0  0  0
 50 72  1  0  0  0  0
 51 55  1  0  0  0  0
 51 72  1  0  0  0  0
 52 76  1  0  0  0  0
 53 86  1  0  0  0  0
 54 71  1  0  0  0  0
 55 69  1  0  0  0  0
 57 63  1  0  0  0  0
 58 66  1  0  0  0  0
 59 67  1  0  0  0  0
 60 67  1  0  0  0  0
 61 67  1  0  0  0  0
 62 78  1  0  0  0  0
 64 70  1  0  0  0  0
 65 67  1  0  0  0  0
 65 77  1  0  0  0  0
 66 78  1  0  0  0  0
 68 69  1  0  0  0  0
M  CHG  1  78   1
M  ISO  4  39 100  53 101  75 100  86 101
M  END
> <Batch ID>
0044

> <Smiles>
CCc1c([100NH:0][100C:0](=O)N2CCCC(n3nc(-c4ccc(Oc5ccc(F)cc5F)cc4)c(C(N)=O)c3N)C2)ccc(C)c1CN1CCC[101CH:1]([101O:1]c2ccc3c(c2)CN(C(=O)C(NC(=O)C(C)NC)C(C)(C)C)C(C(=O)NC2CCCc4ccccc42)C3)C1=O

> <Shape>
0.287

> <Color>
0.109

> <Negative vol penalty>
0.000

$$$$

  -OEChem-04042322183D

 86 95  0     1  0  0  0  0  0999 V2000
  -16.8981  -30.4307   23.5416 C   0  0  0  0  0  0  0  0  0  0  0  0
  -18.1458  -31.0458   23.5233 C   0  0  0  0  0  0  0  0  0  0  0  0
  -28.1558  -12.8405   18.5754 C   0  0  0  0  0  0  0  0  0  0  0  0
  -29.2231  -14.0430   20.3787 C   0  0  0  0  0  0  0  0  0  0  0  0
  -16.8001  -29.0505   23.3701 C   0  0  0  0  0  0  0  0  0  0  0  0
  -19.2963  -30.2809   23.3346 C   0  0  0  0  0  0  0  0  0  0  0  0
  -25.8211  -30.6418   20.3998 C   0  0  0  0  0  0  0  0  0  0  0  0
  -30.4671  -23.3258   23.8210 C   0  0  0  0  0  0  0  0  0  0  0  0
  -29.6733  -22.2086   24.0800 C   0  0  0  0  0  0  0  0  0  0  0  0
  -28.9758  -11.7399   18.8240 C   0  0  0  0  0  0  0  0  0  0  0  0
  -30.0431  -12.9424   20.6274 C   0  0  0  0  0  0  0  0  0  0  0  0
  -27.1605  -30.4275   20.7222 C   0  0  0  0  0  0  0  0  0  0  0  0
  -32.1559  -10.8040   18.1642 C   0  0  0  0  0  0  0  0  0  0  0  0
  -32.7434  -10.1736   17.0674 C   0  0  0  0  0  0  0  0  0  0  0  0
  -26.8635  -28.0615   20.3573 C   0  0  0  0  0  0  0  0  0  0  0  0
  -30.0214  -23.0947   21.4577 C   0  0  0  0  0  0  0  0  0  0  0  0
  -31.6242   -8.1138   17.6520 C   0  0  0  0  0  0  0  0  0  0  0  0
  -28.2795  -13.9921   19.3527 C   0  0  0  0  0  0  0  0  0  0  0  0
  -26.0270  -15.1720   19.1486 C   0  0  0  0  0  0  0  0  0  0  0  0
  -17.9492  -28.2695   23.1695 C   0  0  0  0  0  0  0  0  0  0  0  0
  -24.9887  -29.5645   20.0638 C   0  0  0  0  0  0  0  0  0  0  0  0
  -19.2137  -28.8888   23.1616 C   0  0  0  0  0  0  0  0  0  0  0  0
  -25.5146  -28.2651   20.0286 C   0  0  0  0  0  0  0  0  0  0  0  0
  -30.6412  -23.7689   22.5098 C   0  0  0  0  0  0  0  0  0  0  0  0
  -29.0535  -21.5343   23.0279 C   0  0  0  0  0  0  0  0  0  0  0  0
  -29.2275  -21.9774   21.7168 C   0  0  0  0  0  0  0  0  0  0  0  0
  -29.9194  -11.7908   19.8500 C   0  0  0  0  0  0  0  0  0  0  0  0
  -27.6811  -29.1369   20.7038 C   0  0  0  0  0  0  0  0  0  0  0  0
  -31.3026  -10.0893   19.0050 C   0  0  0  0  0  0  0  0  0  0  0  0
  -32.4775   -8.8285   16.8113 C   0  0  0  0  0  0  0  0  0  0  0  0
  -31.0368   -8.7442   18.7488 C   0  0  0  0  0  0  0  0  0  0  0  0
  -27.4331  -15.1296   19.0961 C   0  0  0  0  0  0  0  0  0  0  0  0
  -25.7103  -16.4692   18.8267 C   0  0  0  0  0  0  0  0  0  0  0  0
  -30.0072  -26.8450   21.6425 C   0  0  0  0  0  0  0  0  0  0  0  0
  -25.0908  -14.1319   19.4606 C   0  0  0  0  0  0  0  0  0  0  0  0
  -22.3527  -28.2942   21.3053 C   0  0  0  0  0  0  0  0  0  0  0  0
  -22.4458  -26.4595   18.6318 C   0  0  0  0  0  0  0  0  0  0  0  0
  -24.9638  -24.7333   16.7090 C   0  0  0  0  0  0  0  0  0  0  0  0
  -28.6863  -21.6308   19.2809 C   0  0  0  0  0  0  0  0  0  0  0  0
  -17.7970  -26.7750   23.0359 C   0  0  0  0  0  0  0  0  0  0  0  0
  -23.5529  -29.8155   19.6925 C   0  0  0  0  0  0  0  0  0  0  0  0
  -24.6679  -27.0769   19.6548 C   0  0  0  0  0  0  0  0  0  0  0  0
  -19.0343  -26.0851   22.4673 C   0  0  0  0  0  0  0  0  0  0  0  0
  -30.3671  -27.9672   24.3255 C   0  0  0  0  0  0  0  0  0  0  0  0
  -27.3344  -20.2065   16.3109 C   0  0  0  0  0  0  0  0  0  0  0  0
  -20.2945  -26.5915   23.1618 C   0  0  0  0  0  0  0  0  0  0  0  0
  -30.0099  -28.8786   23.1700 C   0  0  0  0  0  0  0  0  0  0  0  0
  -27.0727  -18.7483   16.6947 C   0  0  0  0  0  0  0  0  0  0  0  0
  -31.2598  -26.8428   23.8318 C   0  0  0  0  0  0  0  0  0  0  0  0
  -28.6081  -20.7441   16.9608 C   0  0  0  0  0  0  0  0  0  0  0  0
  -28.4184  -19.1180   18.8017 C   0  0  0  0  0  0  0  0  0  0  0  0
  -20.4828  -28.0963   22.9347 C   0  0  1  0  0  0  0  0  0  0  0  0
  -29.2562  -28.0794   22.1252 C   0  0  1  0  0  0  0  0  0  1  0  0
  -22.6673  -28.5854   19.8652 C   0  0  1  0  0  0  0  0  0  0  0  0
  -27.1113  -18.5522   18.2230 C   0  0  2  0  0  0  0  0  0  0  0  0
  -28.2095  -20.3400   23.3349 C   0  0  0  0  0  0  0  0  0  0  0  0
  -25.0217  -24.1164   14.2773 C   0  0  0  0  0  0  0  0  0  0  0  0
  -21.3034  -23.7934   19.5788 C   0  0  0  0  0  0  0  0  0  0  0  0
  -22.7452  -22.6517   17.8800 C   0  0  0  0  0  0  0  0  0  0  0  0
  -20.9853  -24.2582   17.1421 C   0  0  0  0  0  0  0  0  0  0  0  0
  -27.5472  -26.1180   16.3000 C   0  0  0  0  0  0  0  0  0  0  0  0
  -31.4957  -24.9717   22.2320 C   0  0  0  0  0  0  0  0  0  0  0  0
  -23.0736  -25.1368   18.2642 C   0  0  1  0  0  0  0  0  0  0  0  0
  -25.4752  -25.1143   15.3315 C   0  0  2  0  0  0  0  0  0  0  0  0
  -22.0384  -23.9770   18.2360 C   0  0  0  0  0  0  0  0  0  0  0  0
  -27.9725  -16.3062   18.7665 N   0  0  0  0  0  0  0  0  0  0  0  0
  -26.8997  -17.1002   18.6091 N   0  0  0  0  0  0  0  0  0  0  0  0
  -30.8207  -26.2134   22.5852 N   0  0  0  0  0  0  0  0  0  0  0  0
  -23.2686  -27.3730   19.3059 N   0  0  0  0  0  0  0  0  0  0  0  0
  -28.5720  -20.5275   18.4088 N   0  0  0  0  0  0  0  0  0  0  0  0
  -24.5333  -17.1201   18.7114 N   0  0  0  0  0  0  0  0  0  0  0  0
  -25.5860  -12.8575   19.7686 N   0  0  0  0  0  0  0  0  0  0  0  0
  -28.6057  -21.3063   20.6347 N   0  0  0  0  0  0  0  0  0  0  0  0
  -21.0055  -28.3458   21.6085 N   0  0  0  0  0  0  0  0  0  0  0  0
  -23.7654  -25.3511   16.9978 N   0  0  0  0  0  0  0  0  0  0  0  0
  -26.9648  -25.1592   15.3261 N   0  3  0  0  0  0  0  0  0  0  0  0
  -29.8257  -26.4239   20.4971 O   0  0  0  0  0  0  0  0  0  0  0  0
  -23.8510  -14.3227   19.4500 O   0  0  0  0  0  0  0  0  0  0  0  0
  -23.2646  -28.0400   22.0835 O   0  0  0  0  0  0  0  0  0  0  0  0
  -21.2709  -26.6772   18.3255 O   0  0  0  0  0  0  0  0  0  0  0  0
  -25.5652  -23.9616   17.4529 O   0  0  0  0  0  0  0  0  0  0  0  0
  -28.8169  -22.7821   18.8573 O   0  0  0  0  0  0  0  0  0  0  0  0
  -30.7196  -10.7169   20.0931 O   0  0  0  0  0  0  0  0  0  0  0  0
  -28.9879  -28.9248   21.0187 O   0  0  0  0  0  0  0  0  0  1  0  0
  -33.0405   -8.2236   15.7571 F   0  0  0  0  0  0  0  0  0  0  0  0
  -30.2169   -8.0528   19.5523 F   0  0  0  0  0  0  0  0  0  0  0  0
  1  2  1  0  0  0  0
  1  5  2  0  0  0  0
  2  6  2  0  0  0  0
  3 10  2  0  0  0  0
  3 18  1  0  0  0  0
  4 11  1  0  0  0  0
  4 18  2  0  0  0  0
  5 20  1  0  0  0  0
  6 22  1  0  0  0  0
  7 12  2  0  0  0  0
  7 21  1  0  0  0  0
  8  9  2  0  0  0  0
  8 24  1  0  0  0  0
  9 25  1  0  0  0  0
 10 27  1  0  0  0  0
 11 27  2  0  0  0  0
 12 28  1  0  0  0  0
 13 14  2  0  0  0  0
 13 29  1  0  0  0  0
 14 30  1  0  0  0  0
 15 23  1  0  0  0  0
 15 28  2  0  0  0  0
 16 24  2  0  0  0  0
 16 26  1  0  0  0  0
 17 30  2  0  0  0  0
 17 31  1  0  0  0  0
 18 32  1  0  0  0  0
 19 32  1  0  0  0  0
 19 33  2  0  0  0  0
 19 35  1  0  0  0  0
 20 22  2  0  0  0  0
 20 40  1  0  0  0  0
 21 23  2  0  0  0  0
 21 41  1  0  0  0  0
 22 52  1  0  0  0  0
 23 42  1  0  0  0  0
 24 62  1  0  0  0  0
 25 26  2  0  0  0  0
 25 56  1  0  0  0  0
 26 73  1  0  0  0  0
 27 83  1  0  0  0  0
 28 84  1  0  0  0  0
 29 31  2  0  0  0  0
 29 83  1  0  0  0  0
 30 85  1  0  0  0  0
 31 86  1  0  0  0  0
 32 66  2  0  0  0  0
 33 67  1  0  0  0  0
 33 71  1  0  0  0  0
 34 53  1  0  0  0  0
 34 68  1  0  0  0  0
 34 77  2  0  0  0  0
 35 72  1  0  0  0  0
 35 78  2  0  0  0  0
 36 54  1  0  0  0  0
 36 74  1  0  0  0  0
 36 79  2  0  0  0  0
 37 63  1  0  0  0  0
 37 69  1  0  0  0  0
 37 80  2  0  0  0  0
 38 64  1  0  0  0  0
 38 75  1  0  0  0  0
 38 81  2  0  0  0  0
 39 70  1  0  0  0  0
 39 73  1  0  0  0  0
 39 82  2  0  0  0  0
 40 43  1  0  0  0  0
 41 54  1  0  0  0  0
 42 69  1  0  0  0  0
 43 46  1  0  0  0  0
 44 47  1  0  0  0  0
 44 49  1  0  0  0  0
 45 48  1  0  0  0  0
 45 50  1  0  0  0  0
 46 52  1  0  0  0  0
 47 53  1  0  0  0  0
 48 55  1  0  0  0  0
 49 68  1  0  0  0  0
 50 70  1  0  0  0  0
 51 55  1  0  0  0  0
 51 70  1  0  0  0  0
 52 74  1  0  0  0  0
 53 84  1  0  0  0  0
 54 69  1  0  0  0  0
 55 67  1  0  0  0  0
 57 64  1  0  0  0  0
 58 65  1  0  0  0  0
 59 65  1  0  0  0  0
 60 65  1  0  0  0  0
 61 76  1  0  0  0  0
 62 68  1  0  0  0  0
 63 65  1  0  0  0  0
 63 75  1  0  0  0  0
 64 76  1  0  0  0  0
 66 67  1  0  0  0  0
M  CHG  1  76   1
M  ISO  4  39 100  53 101  73 100  84 101
M  END
> <Batch ID>
0044

> <Smiles>
CNC(C)C(=O)NC(C(=O)N1Cc2cc([101O:1][101CH:1]3CCCN(Cc4ccc(C)c([100NH:0][100C:0](=O)N5CCCC(n6nc(-c7ccc(Oc8ccc(F)cc8F)cc7)c(C(N)=O)c6N)C5)c4)C3=O)ccc2CC1C(=O)NC1CCCc2ccccc21)C(C)(C)C

> <Shape>
0.241

> <Color>
0.084

> <Negative vol penalty>
0.000

$$$$

  -OEChem-04042322183D

 88 97  0     1  0  0  0  0  0999 V2000
  -30.4204  -11.8885   19.5003 C   0  0  0  0  0  0  0  0  0  0  0  0
  -30.3026  -13.2718   19.5895 C   0  0  0  0  0  0  0  0  0  0  0  0
  -28.8017  -26.2782   19.0745 C   0  0  0  0  0  0  0  0  0  0  0  0
  -26.7461  -25.0111   19.1519 C   0  0  0  0  0  0  0  0  0  0  0  0
  -29.2762  -11.0919   19.4886 C   0  0  0  0  0  0  0  0  0  0  0  0
  -29.0403  -13.8595   19.6659 C   0  0  0  0  0  0  0  0  0  0  0  0
  -25.6599  -19.4687   22.5687 C   0  0  0  0  0  0  0  0  0  0  0  0
  -29.4690  -25.1645   18.5647 C   0  0  0  0  0  0  0  0  0  0  0  0
  -27.4134  -23.8973   18.6421 C   0  0  0  0  0  0  0  0  0  0  0  0
  -24.8296  -20.5295   22.2097 C   0  0  0  0  0  0  0  0  0  0  0  0
  -29.4728  -21.4800   19.8023 C   0  0  0  0  0  0  0  0  0  0  0  0
  -29.2308  -20.2465   20.4070 C   0  0  0  0  0  0  0  0  0  0  0  0
  -22.9258  -19.0489   22.2609 C   0  0  0  0  0  0  0  0  0  0  0  0
  -18.2614  -29.2987   22.3867 C   0  0  0  0  0  0  0  0  0  0  0  0
  -17.6930  -26.9563   22.5499 C   0  0  0  0  0  0  0  0  0  0  0  0
  -28.4118  -19.3775   18.3067 C   0  0  0  0  0  0  0  0  0  0  0  0
  -27.4402  -26.2015   19.3682 C   0  0  0  0  0  0  0  0  0  0  0  0
  -26.6096  -28.6120   19.2847 C   0  0  0  0  0  0  0  0  0  0  0  0
  -27.9996  -11.6695   19.5746 C   0  0  0  0  0  0  0  0  0  0  0  0
  -25.1301  -18.1854   22.7661 C   0  0  0  0  0  0  0  0  0  0  0  0
  -27.8779  -13.0699   19.6539 C   0  0  0  0  0  0  0  0  0  0  0  0
  -23.7512  -17.9740   22.6248 C   0  0  0  0  0  0  0  0  0  0  0  0
  -17.3193  -28.2747   22.2898 C   0  0  0  0  0  0  0  0  0  0  0  0
  -19.5773  -29.0043   22.7437 C   0  0  0  0  0  0  0  0  0  0  0  0
  -19.0088  -26.6618   22.9070 C   0  0  0  0  0  0  0  0  0  0  0  0
  -19.9510  -27.6858   23.0039 C   0  0  0  0  0  0  0  0  0  0  0  0
  -28.7749  -23.9741   18.3484 C   0  0  0  0  0  0  0  0  0  0  0  0
  -23.4628  -20.3192   22.0530 C   0  0  0  0  0  0  0  0  0  0  0  0
  -29.1842  -21.6622   18.4498 C   0  0  0  0  0  0  0  0  0  0  0  0
  -28.7004  -19.1953   19.6592 C   0  0  0  0  0  0  0  0  0  0  0  0
  -28.6538  -20.6110   17.7020 C   0  0  0  0  0  0  0  0  0  0  0  0
  -26.7505  -27.3514   19.8953 C   0  0  0  0  0  0  0  0  0  0  0  0
  -25.8772  -29.3488   20.1832 C   0  0  0  0  0  0  0  0  0  0  0  0
  -21.4136  -24.1275   22.3318 C   0  0  0  0  0  0  0  0  0  0  0  0
  -27.0971  -29.0755   18.0185 C   0  0  0  0  0  0  0  0  0  0  0  0
  -25.5457  -15.3508   21.3893 C   0  0  0  0  0  0  0  0  0  0  0  0
  -23.6222  -14.3352   23.7958 C   0  0  0  0  0  0  0  0  0  0  0  0
  -21.2205  -15.0900   26.0999 C   0  0  0  0  0  0  0  0  0  0  0  0
  -21.9903  -27.8649   24.4721 C   0  0  0  0  0  0  0  0  0  0  0  0
  -26.7903  -10.7705   19.5105 C   0  0  0  0  0  0  0  0  0  0  0  0
  -26.0353  -17.0574   23.1792 C   0  0  0  0  0  0  0  0  0  0  0  0
  -23.1298  -16.6198   22.8452 C   0  0  0  0  0  0  0  0  0  0  0  0
  -25.5027  -11.4478   19.9728 C   0  0  0  0  0  0  0  0  0  0  0  0
  -20.2488  -24.0856   19.6431 C   0  0  0  0  0  0  0  0  0  0  0  0
  -24.9951  -29.7320   24.8746 C   0  0  0  0  0  0  0  0  0  0  0  0
  -25.3699  -12.8298   19.3409 C   0  0  0  0  0  0  0  0  0  0  0  0
  -21.2963  -23.0580   20.0244 C   0  0  0  0  0  0  0  0  0  0  0  0
  -25.7708  -29.4530   23.5852 C   0  0  0  0  0  0  0  0  0  0  0  0
  -19.3916  -24.4128   20.8505 C   0  0  0  0  0  0  0  0  0  0  0  0
  -24.2257  -28.5013   25.3512 C   0  0  0  0  0  0  0  0  0  0  0  0
  -24.1225  -27.6117   23.0562 C   0  0  0  0  0  0  0  0  0  0  0  0
  -26.5270  -13.7431   19.7635 C   0  0  1  0  0  0  0  0  0  0  0  0
  -22.1944  -23.6405   21.1089 C   0  0  2  0  0  0  0  0  0  0  0  0
  -25.4627  -15.6816   22.8526 C   0  0  1  0  0  0  0  0  0  0  0  0
  -24.8614  -28.8406   22.5018 C   0  0  2  0  0  0  0  0  0  0  0  0
  -15.9126  -28.5895   21.9078 C   0  0  0  0  0  0  0  0  0  0  0  0
  -20.5641  -30.1228   22.8387 C   0  0  0  0  0  0  0  0  0  0  0  0
  -19.8195  -14.0438   27.8999 C   0  0  0  0  0  0  0  0  0  0  0  0
  -21.8403  -13.0670   21.6683 C   0  0  0  0  0  0  0  0  0  0  0  0
  -20.0323  -12.8851   23.3906 C   0  0  0  0  0  0  0  0  0  0  0  0
  -22.1848  -11.6659   23.7111 C   0  0  0  0  0  0  0  0  0  0  0  0
  -22.3764  -16.8472   28.1820 C   0  0  0  0  0  0  0  0  0  0  0  0
  -19.3806  -25.2333   23.1813 C   0  0  0  0  0  0  0  0  0  0  0  0
  -23.2650  -22.6262   21.5103 C   0  0  0  0  0  0  0  0  0  1  0  0
  -22.1320  -14.1793   23.9799 C   0  0  1  0  0  0  0  0  0  0  0  0
  -21.1127  -14.7780   27.5816 C   0  0  2  0  0  0  0  0  0  0  0  0
  -21.5590  -12.9746   23.1814 C   0  0  0  0  0  0  0  0  0  0  0  0
  -26.1555  -27.2875   21.0895 N   0  0  0  0  0  0  0  0  0  0  0  0
  -25.6337  -28.5173   21.2365 N   0  0  0  0  0  0  0  0  0  0  0  0
  -20.1407  -24.6474   22.0848 N   0  0  0  0  0  0  0  0  0  0  0  0
  -24.0574  -15.5474   23.2416 N   0  0  0  0  0  0  0  0  0  0  0  0
  -23.3826  -27.9785   24.2738 N   0  0  0  0  0  0  0  0  0  0  0  0
  -25.4242  -30.6204   20.1671 N   0  0  0  0  0  0  0  0  0  0  0  0
  -26.2828  -28.9139   16.8893 N   0  0  0  0  0  0  0  0  0  0  0  0
  -21.2876  -27.3864   23.3667 N   0  0  0  0  0  0  0  0  0  0  0  0
  -26.3153  -14.2384   21.1067 N   0  0  0  0  0  0  0  0  0  0  0  0
  -21.9041  -14.1049   25.4190 N   0  0  0  0  0  0  0  0  0  0  0  0
  -21.1475  -16.0361   28.3797 N   0  3  0  0  0  0  0  0  0  0  0  0
  -21.9454  -24.1342   23.4455 O   0  0  0  0  0  0  0  0  0  0  0  0
  -28.2283  -29.6020   17.8894 O   0  0  0  0  0  0  0  0  0  0  0  0
  -24.9541  -16.0519   20.5768 O   0  0  0  0  0  0  0  0  0  0  0  0
  -24.3730  -13.4182   24.1378 O   0  0  0  0  0  0  0  0  0  0  0  0
  -20.7427  -16.1041   25.5962 O   0  0  0  0  0  0  0  0  0  0  0  0
  -21.4569  -28.1954   25.5343 O   0  0  0  0  0  0  0  0  0  0  0  0
  -29.4257  -22.8872   17.8508 O   0  0  0  0  0  0  0  0  0  0  0  0
  -22.6501  -21.3528   21.7020 O   0  0  0  0  0  0  0  0  0  1  0  0
  -28.4695  -18.0104   20.2397 F   0  0  0  0  0  0  0  0  0  0  0  0
  -28.3756  -20.7798   16.4021 F   0  0  0  0  0  0  0  0  0  0  0  0
  1  2  1  0  0  0  0
  1  5  2  0  0  0  0
  2  6  2  0  0  0  0
  3  8  2  0  0  0  0
  3 17  1  0  0  0  0
  4  9  1  0  0  0  0
  4 17  2  0  0  0  0
  5 19  1  0  0  0  0
  6 21  1  0  0  0  0
  7 10  2  0  0  0  0
  7 20  1  0  0  0  0
  8 27  1  0  0  0  0
  9 27  2  0  0  0  0
 10 28  1  0  0  0  0
 11 12  2  0  0  0  0
 11 29  1  0  0  0  0
 12 30  1  0  0  0  0
 13 22  1  0  0  0  0
 13 28  2  0  0  0  0
 14 23  1  0  0  0  0
 14 24  2  0  0  0  0
 15 23  2  0  0  0  0
 15 25  1  0  0  0  0
 16 30  2  0  0  0  0
 16 31  1  0  0  0  0
 17 32  1  0  0  0  0
 18 32  1  0  0  0  0
 18 33  2  0  0  0  0
 18 35  1  0  0  0  0
 19 21  2  0  0  0  0
 19 40  1  0  0  0  0
 20 22  2  0  0  0  0
 20 41  1  0  0  0  0
 21 52  1  0  0  0  0
 22 42  1  0  0  0  0
 23 56  1  0  0  0  0
 24 26  1  0  0  0  0
 24 57  1  0  0  0  0
 25 26  2  0  0  0  0
 25 63  1  0  0  0  0
 26 75  1  0  0  0  0
 27 85  1  0  0  0  0
 28 86  1  0  0  0  0
 29 31  2  0  0  0  0
 29 85  1  0  0  0  0
 30 87  1  0  0  0  0
 31 88  1  0  0  0  0
 32 68  2  0  0  0  0
 33 69  1  0  0  0  0
 33 73  1  0  0  0  0
 34 53  1  0  0  0  0
 34 70  1  0  0  0  0
 34 79  2  0  0  0  0
 35 74  1  0  0  0  0
 35 80  2  0  0  0  0
 36 54  1  0  0  0  0
 36 76  1  0  0  0  0
 36 81  2  0  0  0  0
 37 65  1  0  0  0  0
 37 71  1  0  0  0  0
 37 82  2  0  0  0  0
 38 66  1  0  0  0  0
 38 77  1  0  0  0  0
 38 83  2  0  0  0  0
 39 72  1  0  0  0  0
 39 75  1  0  0  0  0
 39 84  2  0  0  0  0
 40 43  1  0  0  0  0
 41 54  1  0  0  0  0
 42 71  1  0  0  0  0
 43 46  1  0  0  0  0
 44 47  1  0  0  0  0
 44 49  1  0  0  0  0
 45 48  1  0  0  0  0
 45 50  1  0  0  0  0
 46 52  1  0  0  0  0
 47 53  1  0  0  0  0
 48 55  1  0  0  0  0
 49 70  1  0  0  0  0
 50 72  1  0  0  0  0
 51 55  1  0  0  0  0
 51 72  1  0  0  0  0
 52 76  1  0  0  0  0
 53 64  1  0  0  0  0
 54 71  1  0  0  0  0
 55 69  1  0  0  0  0
 58 66  1  0  0  0  0
 59 67  1  0  0  0  0
 60 67  1  0  0  0  0
 61 67  1  0  0  0  0
 62 78  1  0  0  0  0
 63 70  1  0  0  0  0
 64 86  1  0  0  0  0
 65 67  1  0  0  0  0
 65 77  1  0  0  0  0
 66 78  1  0  0  0  0
 68 69  1  0  0  0  0
M  CHG  1  78   1
M  ISO  4  39 100  64 101  75 100  86 101
M  END
> <Batch ID>
0044

> <Smiles>
CNC(C)C(=O)NC(C(=O)N1Cc2cc([101O:1][101CH2:1]C3CCCN(Cc4cc(C)cc(C)c4[100NH:0][100C:0](=O)N4CCCC(n5nc(-c6ccc(Oc7ccc(F)cc7F)cc6)c(C(N)=O)c5N)C4)C3=O)ccc2CC1C(=O)NC1CCCc2ccccc21)C(C)(C)C

> <Shape>
0.232

> <Color>
0.061

> <Negative vol penalty>
0.000

$$$$

  -OEChem-04042322183D

 92101  0     1  0  0  0  0  0999 V2000
  -24.1924  -36.3047   24.7796 C   0  0  0  0  0  0  0  0  0  0  0  0
  -24.2360  -36.1051   23.4035 C   0  0  0  0  0  0  0  0  0  0  0  0
  -25.0142  -21.3662   14.2504 C   0  0  0  0  0  0  0  0  0  0  0  0
  -24.3082   -8.9192   20.6130 C   0  0  0  0  0  0  0  0  0  0  0  0
  -22.7798  -10.6994   21.1894 C   0  0  0  0  0  0  0  0  0  0  0  0
  -25.6707  -20.9326   15.4021 C   0  0  0  0  0  0  0  0  0  0  0  0
  -24.7667  -35.3674   25.6373 C   0  0  0  0  0  0  0  0  0  0  0  0
  -24.8550  -34.9687   22.8842 C   0  0  0  0  0  0  0  0  0  0  0  0
  -24.3841  -30.3584   17.4216 C   0  0  0  0  0  0  0  0  0  0  0  0
  -25.4024  -22.5546   13.6317 C   0  0  0  0  0  0  0  0  0  0  0  0
  -28.5676  -20.8734   21.6230 C   0  0  0  0  0  0  0  0  0  0  0  0
  -28.7010  -19.5002   21.8281 C   0  0  0  0  0  0  0  0  0  0  0  0
  -23.3426   -7.9762   20.9650 C   0  0  0  0  0  0  0  0  0  0  0  0
  -21.8142   -9.7563   21.5413 C   0  0  0  0  0  0  0  0  0  0  0  0
  -25.1681  -29.7995   16.4133 C   0  0  0  0  0  0  0  0  0  0  0  0
  -21.4046   -5.0980   22.0529 C   0  0  0  0  0  0  0  0  0  0  0  0
  -21.8099   -4.0102   22.8262 C   0  0  0  0  0  0  0  0  0  0  0  0
  -26.0569  -28.2089   17.9941 C   0  0  0  0  0  0  0  0  0  0  0  0
  -22.5190   -5.5180   24.5757 C   0  0  0  0  0  0  0  0  0  0  0  0
  -24.0268  -10.2808   20.7253 C   0  0  0  0  0  0  0  0  0  0  0  0
  -26.7155  -21.6875   15.9353 C   0  0  0  0  0  0  0  0  0  0  0  0
  -27.4346  -20.4511   19.5314 C   0  0  0  0  0  0  0  0  0  0  0  0
  -25.2233  -11.8369   19.0959 C   0  0  0  0  0  0  0  0  0  0  0  0
  -25.3845  -34.2141   25.1287 C   0  0  0  0  0  0  0  0  0  0  0  0
  -24.4388  -29.8528   18.7285 C   0  0  0  0  0  0  0  0  0  0  0  0
  -25.4393  -34.0158   23.7358 C   0  0  0  0  0  0  0  0  0  0  0  0
  -25.2707  -28.7614   19.0167 C   0  0  0  0  0  0  0  0  0  0  0  0
  -27.9343  -21.3489   20.4747 C   0  0  0  0  0  0  0  0  0  0  0  0
  -26.4471  -23.3095   14.1650 C   0  0  0  0  0  0  0  0  0  0  0  0
  -27.1036  -22.8760   15.3168 C   0  0  0  0  0  0  0  0  0  0  0  0
  -27.5681  -19.0778   19.7364 C   0  0  0  0  0  0  0  0  0  0  0  0
  -28.2013  -18.6024   20.8847 C   0  0  0  0  0  0  0  0  0  0  0  0
  -22.0956   -8.3947   21.4291 C   0  0  0  0  0  0  0  0  0  0  0  0
  -26.0068  -28.7265   16.7001 C   0  0  0  0  0  0  0  0  0  0  0  0
  -21.5566   -6.3958   22.5410 C   0  0  0  0  0  0  0  0  0  0  0  0
  -22.3670   -4.2201   24.0876 C   0  0  0  0  0  0  0  0  0  0  0  0
  -22.1138   -6.6058   23.8024 C   0  0  0  0  0  0  0  0  0  0  0  0
  -25.0241  -11.2555   20.3624 C   0  0  0  0  0  0  0  0  0  0  0  0
  -26.2839  -12.6913   19.2733 C   0  0  0  0  0  0  0  0  0  0  0  0
  -27.3792  -21.2052   17.1396 C   0  0  0  0  0  0  0  0  0  0  0  0
  -26.7663  -20.9572   18.3195 C   0  0  0  0  0  0  0  0  0  0  0  0
  -24.5130  -11.6237   17.8688 C   0  0  0  0  0  0  0  0  0  0  0  0
  -25.2754  -31.0354   21.5578 C   0  0  0  0  0  0  0  0  0  0  0  0
  -24.1881  -28.1765   22.6381 C   0  0  0  0  0  0  0  0  0  0  0  0
  -23.5120  -24.8971   21.9785 C   0  0  0  0  0  0  0  0  0  0  0  0
  -28.9547  -16.5964   22.2093 C   0  0  0  0  0  0  0  0  0  0  0  0
  -26.0331  -33.2527   26.0929 C   0  0  0  0  0  0  0  0  0  0  0  0
  -23.5669  -30.4496   19.7990 C   0  0  0  0  0  0  0  0  0  0  0  0
  -25.3508  -28.1687   20.3990 C   0  0  0  0  0  0  0  0  0  0  0  0
  -26.3405  -31.8891   25.4794 C   0  0  0  0  0  0  0  0  0  0  0  0
  -29.4842  -13.2065   23.1611 C   0  0  0  0  0  0  0  0  0  0  0  0
  -27.0060  -32.0546   24.1168 C   0  0  0  0  0  0  0  0  0  0  0  0
  -28.3874  -12.4446   22.4136 C   0  0  0  0  0  0  0  0  0  0  0  0
  -28.9967  -14.5702   23.6474 C   0  0  0  0  0  0  0  0  0  0  0  0
  -27.2992  -14.6584   21.8642 C   0  0  0  0  0  0  0  0  0  0  0  0
  -26.0800  -32.7832   23.1354 C   0  0  1  0  0  0  0  0  0  0  0  0
  -24.0864  -30.1856   21.2089 C   0  0  1  0  0  0  0  0  0  0  0  0
  -27.7625  -13.3059   21.2986 C   0  0  2  0  0  0  0  0  0  0  0  0
  -27.8116  -22.8281   20.2925 C   0  0  0  0  0  0  0  0  0  0  0  0
  -28.2236  -23.6950   15.8802 C   0  0  0  0  0  0  0  0  0  0  0  0
  -27.0350  -18.1040   18.7295 C   0  0  0  0  0  0  0  0  0  0  0  0
  -22.6670  -22.8017   23.0705 C   0  0  0  0  0  0  0  0  0  0  0  0
  -26.8776  -27.8228   24.0349 C   0  0  0  0  0  0  0  0  0  0  0  0
  -26.3477  -25.3889   24.2874 C   0  0  0  0  0  0  0  0  0  0  0  0
  -24.8991  -27.0992   25.3825 C   0  0  0  0  0  0  0  0  0  0  0  0
  -21.2087  -24.7233   20.1283 C   0  0  0  0  0  0  0  0  0  0  0  0
  -26.8438  -24.5838   13.4796 C   0  0  0  0  0  0  0  0  0  0  0  0
  -26.8145  -27.0794   13.5799 C   0  0  0  0  0  0  0  0  0  0  0  0
  -26.2629  -28.2383   14.3866 C   0  0  0  0  0  0  0  0  0  1  0  0
  -24.8032  -26.8179   22.8718 C   0  0  1  0  0  0  0  0  0  0  0  0
  -22.2933  -24.0410   22.2723 C   0  0  2  0  0  0  0  0  0  0  0  0
  -25.7321  -26.7944   24.1184 C   0  0  0  0  0  0  0  0  0  0  0  0
  -25.8889  -11.7027   21.2768 N   0  0  0  0  0  0  0  0  0  0  0  0
  -26.6419  -12.5740   20.5841 N   0  0  0  0  0  0  0  0  0  0  0  0
  -24.4836  -28.7911   21.4130 N   0  0  0  0  0  0  0  0  0  0  0  0
  -28.4214  -15.3317   22.5365 N   0  0  0  0  0  0  0  0  0  0  0  0
  -26.9361  -13.5238   18.4343 N   0  0  0  0  0  0  0  0  0  0  0  0
  -23.4491  -10.7113   17.8624 N   0  0  0  0  0  0  0  0  0  0  0  0
  -28.3486  -17.2120   21.1147 N   0  0  0  0  0  0  0  0  0  0  0  0
  -25.0674  -31.8806   22.6311 N   0  0  0  0  0  0  0  0  0  0  0  0
  -23.6935  -25.8729   22.9356 N   0  0  0  0  0  0  0  0  0  0  0  0
  -21.6482  -23.6048   21.0017 N   0  3  0  0  0  0  0  0  0  0  0  0
  -26.3858  -25.8013   14.2020 N   0  3  0  0  0  0  0  0  0  0  0  0
  -24.8233  -12.2123   16.8054 O   0  0  0  0  0  0  0  0  0  0  0  0
  -26.3059  -30.9309   20.9029 O   0  0  0  0  0  0  0  0  0  0  0  0
  -23.4660  -28.6711   23.5074 O   0  0  0  0  0  0  0  0  0  0  0  0
  -24.2332  -24.7158   20.9999 O   0  0  0  0  0  0  0  0  0  0  0  0
  -29.8988  -17.0843   22.8358 O   0  0  0  0  0  0  0  0  0  0  0  0
  -21.1530   -7.4748   21.7724 O   0  0  0  0  0  0  0  0  0  0  0  0
  -26.7736  -28.1795   15.7178 O   0  0  0  0  0  0  0  0  0  1  0  0
  -22.7548   -3.1753   24.8307 F   0  0  0  0  0  0  0  0  0  0  0  0
  -22.2612   -7.8503   24.2771 F   0  0  0  0  0  0  0  0  0  0  0  0
  1  2  1  0  0  0  0
  1  7  2  0  0  0  0
  2  8  2  0  0  0  0
  3  6  1  0  0  0  0
  3 10  2  0  0  0  0
  4 13  2  0  0  0  0
  4 20  1  0  0  0  0
  5 14  1  0  0  0  0
  5 20  2  0  0  0  0
  6 21  2  0  0  0  0
  7 24  1  0  0  0  0
  8 26  1  0  0  0  0
  9 15  2  0  0  0  0
  9 25  1  0  0  0  0
 10 29  1  0  0  0  0
 11 12  1  0  0  0  0
 11 28  2  0  0  0  0
 12 32  2  0  0  0  0
 13 33  1  0  0  0  0
 14 33  2  0  0  0  0
 15 34  1  0  0  0  0
 16 17  2  0  0  0  0
 16 35  1  0  0  0  0
 17 36  1  0  0  0  0
 18 27  1  0  0  0  0
 18 34  2  0  0  0  0
 19 36  2  0  0  0  0
 19 37  1  0  0  0  0
 20 38  1  0  0  0  0
 21 30  1  0  0  0  0
 21 40  1  0  0  0  0
 22 28  1  0  0  0  0
 22 31  2  0  0  0  0
 22 41  1  0  0  0  0
 23 38  1  0  0  0  0
 23 39  2  0  0  0  0
 23 42  1  0  0  0  0
 24 26  2  0  0  0  0
 24 47  1  0  0  0  0
 25 27  2  0  0  0  0
 25 48  1  0  0  0  0
 26 56  1  0  0  0  0
 27 49  1  0  0  0  0
 28 59  1  0  0  0  0
 29 30  2  0  0  0  0
 29 67  1  0  0  0  0
 30 60  1  0  0  0  0
 31 32  1  0  0  0  0
 31 61  1  0  0  0  0
 32 79  1  0  0  0  0
 33 89  1  0  0  0  0
 34 90  1  0  0  0  0
 35 37  2  0  0  0  0
 35 89  1  0  0  0  0
 36 91  1  0  0  0  0
 37 92  1  0  0  0  0
 38 73  2  0  0  0  0
 39 74  1  0  0  0  0
 39 77  1  0  0  0  0
 40 41  2  0  0  0  0
 42 78  1  0  0  0  0
 42 84  2  0  0  0  0
 43 57  1  0  0  0  0
 43 80  1  0  0  0  0
 43 85  2  0  0  0  0
 44 70  1  0  0  0  0
 44 75  1  0  0  0  0
 44 86  2  0  0  0  0
 45 71  1  0  0  0  0
 45 81  1  0  0  0  0
 45 87  2  0  0  0  0
 46 76  1  0  0  0  0
 46 79  1  0  0  0  0
 46 88  2  0  0  0  0
 47 50  1  0  0  0  0
 48 57  1  0  0  0  0
 49 75  1  0  0  0  0
 50 52  1  0  0  0  0
 51 53  1  0  0  0  0
 51 54  1  0  0  0  0
 52 56  1  0  0  0  0
 53 58  1  0  0  0  0
 54 76  1  0  0  0  0
 55 58  1  0  0  0  0
 55 76  1  0  0  0  0
 56 80  1  0  0  0  0
 57 75  1  0  0  0  0
 58 74  1  0  0  0  0
 62 71  1  0  0  0  0
 63 72  1  0  0  0  0
 64 72  1  0  0  0  0
 65 72  1  0  0  0  0
 66 82  1  0  0  0  0
 67 83  1  0  0  0  0
 68 69  1  0  0  0  0
 68 83  1  0  0  0  0
 69 90  1  0  0  0  0
 70 72  1  0  0  0  0
 70 81  1  0  0  0  0
 71 82  1  0  0  0  0
 73 74  1  0  0  0  0
M  CHG  2  82   1  83   1
M  ISO  4  46 100  69 101  79 100  90 101
M  END
> <Batch ID>
0044

> <Smiles>
CNC(C)C(=O)NC(C(=O)N1Cc2cc([101O:1][101CH2:1]CNCc3cccc(C=Cc4c(C)ccc([100NH:0][100C:0](=O)N5CCCC(n6nc(-c7ccc(Oc8ccc(F)cc8F)cc7)c(C(N)=O)c6N)C5)c4C)c3C)ccc2CC1C(=O)NC1CCCc2ccccc21)C(C)(C)C

> <Shape>
0.263

> <Color>
0.085

> <Negative vol penalty>
0.000

$$$$

  -OEChem-04042322183D

 89 98  0     1  0  0  0  0  0999 V2000
  -17.1883  -26.5807   22.6409 C   0  0  0  0  0  0  0  0  0  0  0  0
  -18.4587  -26.0857   22.3645 C   0  0  0  0  0  0  0  0  0  0  0  0
  -27.2777  -15.2795   20.2076 C   0  0  0  0  0  0  0  0  0  0  0  0
  -27.0693  -14.7793   22.5620 C   0  0  0  0  0  0  0  0  0  0  0  0
  -16.9187  -27.9383   22.4731 C   0  0  0  0  0  0  0  0  0  0  0  0
  -19.4600  -26.9480   21.9191 C   0  0  0  0  0  0  0  0  0  0  0  0
  -25.4424  -26.6083   23.1846 C   0  0  0  0  0  0  0  0  0  0  0  0
  -26.8958  -13.9746   19.8965 C   0  0  0  0  0  0  0  0  0  0  0  0
  -26.6872  -13.4743   22.2509 C   0  0  0  0  0  0  0  0  0  0  0  0
  -26.5244  -26.0943   22.4712 C   0  0  0  0  0  0  0  0  0  0  0  0
  -25.3081  -10.1153   22.0683 C   0  0  0  0  0  0  0  0  0  0  0  0
  -24.2195   -9.5765   22.7541 C   0  0  0  0  0  0  0  0  0  0  0  0
  -27.0126  -28.3028   21.6323 C   0  0  0  0  0  0  0  0  0  0  0  0
  -23.2152  -22.4664   18.9831 C   0  0  0  0  0  0  0  0  0  0  0  0
  -24.3256  -24.5376   19.5432 C   0  0  0  0  0  0  0  0  0  0  0  0
  -22.8064  -11.3377   21.8946 C   0  0  0  0  0  0  0  0  0  0  0  0
  -27.3646  -15.6819   21.5404 C   0  0  0  0  0  0  0  0  0  0  0  0
  -28.9721  -17.6626   21.5291 C   0  0  0  0  0  0  0  0  0  0  0  0
  -17.9198  -28.8193   22.0346 C   0  0  0  0  0  0  0  0  0  0  0  0
  -25.1304  -27.9739   23.1184 C   0  0  0  0  0  0  0  0  0  0  0  0
  -19.2032  -28.3184   21.7439 C   0  0  0  0  0  0  0  0  0  0  0  0
  -25.9277  -28.8320   22.3478 C   0  0  0  0  0  0  0  0  0  0  0  0
  -23.5685  -23.4308   19.9269 C   0  0  0  0  0  0  0  0  0  0  0  0
  -23.6192  -22.6088   17.6556 C   0  0  0  0  0  0  0  0  0  0  0  0
  -24.7295  -24.6801   18.2157 C   0  0  0  0  0  0  0  0  0  0  0  0
  -26.6005  -13.0720   20.9181 C   0  0  0  0  0  0  0  0  0  0  0  0
  -27.3079  -26.9411   21.6926 C   0  0  0  0  0  0  0  0  0  0  0  0
  -25.1459  -11.2654   21.2958 C   0  0  0  0  0  0  0  0  0  0  0  0
  -22.9687  -10.1877   22.6672 C   0  0  0  0  0  0  0  0  0  0  0  0
  -23.8950  -11.8765   21.2089 C   0  0  0  0  0  0  0  0  0  0  0  0
  -24.3763  -23.7157   17.2719 C   0  0  0  0  0  0  0  0  0  0  0  0
  -27.7597  -17.0296   21.8624 C   0  0  0  0  0  0  0  0  0  0  0  0
  -28.8575  -18.9245   22.0591 C   0  0  0  0  0  0  0  0  0  0  0  0
  -27.6653  -25.4211   18.9089 C   0  0  0  0  0  0  0  0  0  0  0  0
  -27.6495  -24.1847   19.4406 C   0  0  0  0  0  0  0  0  0  0  0  0
  -30.1009  -17.1553   20.8051 C   0  0  0  0  0  0  0  0  0  0  0  0
  -22.6271  -29.6567   22.1158 C   0  0  0  0  0  0  0  0  0  0  0  0
  -24.3026  -32.1478   23.3444 C   0  0  0  0  0  0  0  0  0  0  0  0
  -27.3300  -33.4391   24.2470 C   0  0  0  0  0  0  0  0  0  0  0  0
  -24.1487  -22.3637   23.4194 C   0  0  0  0  0  0  0  0  0  0  0  0
  -17.5679  -30.2705   21.8229 C   0  0  0  0  0  0  0  0  0  0  0  0
  -23.9760  -28.5172   23.9152 C   0  0  0  0  0  0  0  0  0  0  0  0
  -25.6471  -30.3091   22.2594 C   0  0  0  0  0  0  0  0  0  0  0  0
  -18.7869  -31.1820   21.7057 C   0  0  0  0  0  0  0  0  0  0  0  0
  -29.9459  -27.2002   17.6541 C   0  0  0  0  0  0  0  0  0  0  0  0
  -26.7386  -21.3105   25.6240 C   0  0  0  0  0  0  0  0  0  0  0  0
  -29.1707  -26.3896   16.6142 C   0  0  0  0  0  0  0  0  0  0  0  0
  -19.8174  -30.5760   20.7583 C   0  0  0  0  0  0  0  0  0  0  0  0
  -29.7876  -26.7397   19.1013 C   0  0  0  0  0  0  0  0  0  0  0  0
  -27.4033  -20.1510   24.8798 C   0  0  0  0  0  0  0  0  0  0  0  0
  -25.2286  -21.3349   25.3972 C   0  0  0  0  0  0  0  0  0  0  0  0
  -25.4796  -20.1746   23.2374 C   0  0  0  0  0  0  0  0  0  0  0  0
  -27.6587  -26.5773   16.7161 C   0  0  0  0  0  0  0  0  0  0  0  0
  -20.3225  -29.2264   21.2826 C   0  0  1  0  0  0  0  0  0  0  0  0
  -28.3388  -26.6003   19.5737 C   0  0  2  0  0  0  0  0  0  1  0  0
  -23.4398  -29.8360   23.3668 C   0  0  1  0  0  0  0  0  0  0  0  0
  -27.0099  -20.1416   23.3904 C   0  0  2  0  0  0  0  0  0  0  0  0
  -23.2178  -21.5506   16.6787 C   0  0  0  0  0  0  0  0  0  0  0  0
  -28.3863  -35.5129   25.1855 C   0  0  0  0  0  0  0  0  0  0  0  0
  -24.0011  -33.5234   20.6376 C   0  0  0  0  0  0  0  0  0  0  0  0
  -25.8297  -35.0953   21.3110 C   0  0  0  0  0  0  0  0  0  0  0  0
  -23.7024  -35.0290   22.6120 C   0  0  0  0  0  0  0  0  0  0  0  0
  -28.3483  -31.9879   26.6168 C   0  0  0  0  0  0  0  0  0  0  0  0
  -23.1366  -23.2785   21.3462 C   0  0  0  0  0  0  0  0  0  0  0  0
  -25.5426  -25.8864   17.8486 C   0  0  0  0  0  0  0  0  0  0  0  0
  -25.3358  -33.1093   22.8086 C   0  0  1  0  0  0  0  0  0  0  0  0
  -27.7852  -34.1534   25.5067 C   0  0  2  0  0  0  0  0  0  0  0  0
  -24.7216  -34.1611   21.8423 C   0  0  0  0  0  0  0  0  0  0  0  0
  -26.9355  -17.8237   22.5510 N   0  0  0  0  0  0  0  0  0  0  0  0
  -27.6314  -18.9688   22.6547 N   0  0  0  0  0  0  0  0  0  0  0  0
  -24.5037  -30.7914   23.0516 N   0  0  0  0  0  0  0  0  0  0  0  0
  -24.9230  -21.3262   23.9646 N   0  0  0  0  0  0  0  0  0  0  0  0
  -29.6871  -19.9895   22.0692 N   0  0  0  0  0  0  0  0  0  0  0  0
  -31.1245  -16.5211   21.5223 N   0  0  0  0  0  0  0  0  0  0  0  0
  -21.2844  -29.4250   22.3455 N   0  0  0  0  0  0  0  0  0  0  0  0
  -26.0010  -33.6841   23.9729 N   0  0  0  0  0  0  0  0  0  0  0  0
  -23.9110  -22.2826   22.0528 N   0  0  0  0  0  0  0  0  0  0  0  0
  -27.0021  -25.5722   17.6329 N   0  3  2  0  0  0  0  0  0  0  0  0
  -28.8121  -33.3422   26.2198 N   0  3  0  0  0  0  0  0  0  0  0  0
  -30.2066  -17.2759   19.5610 O   0  0  0  0  0  0  0  0  0  0  0  0
  -23.1773  -29.7252   21.0229 O   0  0  0  0  0  0  0  0  0  0  0  0
  -23.3561  -32.5833   24.0047 O   0  0  0  0  0  0  0  0  0  0  0  0
  -28.0793  -32.7371   23.5715 O   0  0  0  0  0  0  0  0  0  0  0  0
  -23.7068  -23.2962   24.0991 O   0  0  0  0  0  0  0  0  0  0  0  0
  -26.2274  -11.7986   20.6149 O   0  0  0  0  0  0  0  0  0  0  0  0
  -28.3642  -26.4419   20.9947 O   0  0  0  0  0  0  0  0  0  1  0  0
  -21.9230   -9.6693   23.3245 F   0  0  0  0  0  0  0  0  0  0  0  0
  -23.7328  -12.9808   20.4673 F   0  0  0  0  0  0  0  0  0  0  0  0
  -24.8779  -23.8924   15.6238 Cl  0  0  0  0  0  0  0  0  0  0  0  0
  1  2  1  0  0  0  0
  1  5  2  0  0  0  0
  2  6  2  0  0  0  0
  3  8  2  0  0  0  0
  3 17  1  0  0  0  0
  4  9  1  0  0  0  0
  4 17  2  0  0  0  0
  5 19  1  0  0  0  0
  6 21  1  0  0  0  0
  7 10  2  0  0  0  0
  7 20  1  0  0  0  0
  8 26  1  0  0  0  0
  9 26  2  0  0  0  0
 10 27  1  0  0  0  0
 11 12  2  0  0  0  0
 11 28  1  0  0  0  0
 12 29  1  0  0  0  0
 13 22  1  0  0  0  0
 13 27  2  0  0  0  0
 14 23  1  0  0  0  0
 14 24  2  0  0  0  0
 15 23  2  0  0  0  0
 15 25  1  0  0  0  0
 16 29  2  0  0  0  0
 16 30  1  0  0  0  0
 17 32  1  0  0  0  0
 18 32  1  0  0  0  0
 18 33  2  0  0  0  0
 18 36  1  0  0  0  0
 19 21  2  0  0  0  0
 19 41  1  0  0  0  0
 20 22  2  0  0  0  0
 20 42  1  0  0  0  0
 21 54  1  0  0  0  0
 22 43  1  0  0  0  0
 23 64  1  0  0  0  0
 24 31  1  0  0  0  0
 24 58  1  0  0  0  0
 25 31  2  0  0  0  0
 25 65  1  0  0  0  0
 26 85  1  0  0  0  0
 27 86  1  0  0  0  0
 28 30  2  0  0  0  0
 28 85  1  0  0  0  0
 29 87  1  0  0  0  0
 30 88  1  0  0  0  0
 31 89  1  0  0  0  0
 32 69  2  0  0  0  0
 33 70  1  0  0  0  0
 33 73  1  0  0  0  0
 34 35  2  0  0  0  0
 34 55  1  0  0  0  0
 34 78  1  0  0  0  0
 36 74  1  0  0  0  0
 36 80  2  0  0  0  0
 37 56  1  0  0  0  0
 37 75  1  0  0  0  0
 37 81  2  0  0  0  0
 38 66  1  0  0  0  0
 38 71  1  0  0  0  0
 38 82  2  0  0  0  0
 39 67  1  0  0  0  0
 39 76  1  0  0  0  0
 39 83  2  0  0  0  0
 40 72  1  0  0  0  0
 40 77  1  0  0  0  0
 40 84  2  0  0  0  0
 41 44  1  0  0  0  0
 42 56  1  0  0  0  0
 43 71  1  0  0  0  0
 44 48  1  0  0  0  0
 45 47  1  0  0  0  0
 45 49  1  0  0  0  0
 46 50  1  0  0  0  0
 46 51  1  0  0  0  0
 47 53  1  0  0  0  0
 48 54  1  0  0  0  0
 49 55  1  0  0  0  0
 50 57  1  0  0  0  0
 51 72  1  0  0  0  0
 52 57  1  0  0  0  0
 52 72  1  0  0  0  0
 53 78  1  0  0  0  0
 54 75  1  0  0  0  0
 55 86  1  0  0  0  0
 56 71  1  0  0  0  0
 57 70  1  0  0  0  0
 59 67  1  0  0  0  0
 60 68  1  0  0  0  0
 61 68  1  0  0  0  0
 62 68  1  0  0  0  0
 63 79  1  0  0  0  0
 64 77  1  0  0  0  0
 65 78  1  0  0  0  0
 66 68  1  0  0  0  0
 66 76  1  0  0  0  0
 67 79  1  0  0  0  0
 69 70  1  0  0  0  0
M  CHG  2  78   1  79   1
M  ISO  4  40 100  55 101  77 100  86 101
M  END
> <Batch ID>
0044

> <Smiles>
C=C1N(Cc2cc(C[100NH:0][100C:0](=O)N3CCCC(n4nc(-c5ccc(Oc6ccc(F)cc6F)cc5)c(C(N)=O)c4N)C3)cc(C)c2Cl)CCCC[101CH:1]1[101O:1]c1ccc2c(c1)CN(C(=O)C(NC(=O)C(C)NC)C(C)(C)C)C(C(=O)NC1CCCc3ccccc31)C2

> <Shape>
0.240

> <Color>
0.090

> <Negative vol penalty>
0.000

$$$$

  -OEChem-04042322183D

 88 97  0     1  0  0  0  0  0999 V2000
  -28.1096  -34.1814   24.4921 C   0  0  0  0  0  0  0  0  0  0  0  0
  -28.1982  -32.8328   24.1619 C   0  0  0  0  0  0  0  0  0  0  0  0
  -22.7769  -10.6456   20.8111 C   0  0  0  0  0  0  0  0  0  0  0  0
  -24.6053   -9.3488   21.7122 C   0  0  0  0  0  0  0  0  0  0  0  0
  -26.8680  -34.7479   24.7775 C   0  0  0  0  0  0  0  0  0  0  0  0
  -27.0452  -32.0497   24.1181 C   0  0  0  0  0  0  0  0  0  0  0  0
  -26.8758  -29.0685   20.0281 C   0  0  0  0  0  0  0  0  0  0  0  0
  -27.8636  -20.5149   16.3074 C   0  0  0  0  0  0  0  0  0  0  0  0
  -27.2545  -19.3637   15.8080 C   0  0  0  0  0  0  0  0  0  0  0  0
  -21.8766   -9.9155   21.5869 C   0  0  0  0  0  0  0  0  0  0  0  0
  -23.7050   -8.6187   22.4882 C   0  0  0  0  0  0  0  0  0  0  0  0
  -27.6525  -27.9109   20.0513 C   0  0  0  0  0  0  0  0  0  0  0  0
  -21.5270   -6.0714   22.0427 C   0  0  0  0  0  0  0  0  0  0  0  0
  -21.6784   -4.6852   22.0790 C   0  0  0  0  0  0  0  0  0  0  0  0
  -25.6969  -26.6175   20.6189 C   0  0  0  0  0  0  0  0  0  0  0  0
  -28.8236  -19.2248   18.1105 C   0  0  0  0  0  0  0  0  0  0  0  0
  -22.0031   -4.7834   24.4711 C   0  0  0  0  0  0  0  0  0  0  0  0
  -24.1413  -10.3622   20.8737 C   0  0  0  0  0  0  0  0  0  0  0  0
  -25.0957  -11.2182   18.6682 C   0  0  0  0  0  0  0  0  0  0  0  0
  -25.6982  -33.9736   24.7278 C   0  0  0  0  0  0  0  0  0  0  0  0
  -25.5036  -29.0108   20.3112 C   0  0  0  0  0  0  0  0  0  0  0  0
  -25.7870  -32.6061   24.4045 C   0  0  0  0  0  0  0  0  0  0  0  0
  -24.9046  -27.7754   20.5961 C   0  0  0  0  0  0  0  0  0  0  0  0
  -28.6482  -20.4454   17.4587 C   0  0  0  0  0  0  0  0  0  0  0  0
  -27.4299  -18.1431   16.4598 C   0  0  0  0  0  0  0  0  0  0  0  0
  -28.2144  -18.0736   17.6111 C   0  0  0  0  0  0  0  0  0  0  0  0
  -22.3407   -8.9021   22.4255 C   0  0  0  0  0  0  0  0  0  0  0  0
  -27.0636  -26.6856   20.3496 C   0  0  0  0  0  0  0  0  0  0  0  0
  -21.6138   -6.8136   23.2206 C   0  0  0  0  0  0  0  0  0  0  0  0
  -21.9164   -4.0413   23.2932 C   0  0  0  0  0  0  0  0  0  0  0  0
  -21.8518   -6.1696   24.4348 C   0  0  0  0  0  0  0  0  0  0  0  0
  -25.0717  -11.1157   20.0720 C   0  0  0  0  0  0  0  0  0  0  0  0
  -26.1616  -12.0424   18.4022 C   0  0  0  0  0  0  0  0  0  0  0  0
  -29.5229  -23.0660   19.9742 C   0  0  0  0  0  0  0  0  0  0  0  0
  -30.3323  -20.7220   22.6825 C   0  0  0  0  0  0  0  0  0  0  0  0
  -30.0558  -22.5630   21.0980 C   0  0  0  0  0  0  0  0  0  0  0  0
  -29.8007  -21.2229   21.5618 C   0  0  0  0  0  0  0  0  0  0  0  0
  -24.2316  -10.6216   17.6919 C   0  0  0  0  0  0  0  0  0  0  0  0
  -23.6198  -30.2607   22.5457 C   0  0  0  0  0  0  0  0  0  0  0  0
  -21.2652  -28.9420   20.7459 C   0  0  0  0  0  0  0  0  0  0  0  0
  -20.7294  -25.8493   18.9667 C   0  0  0  0  0  0  0  0  0  0  0  0
  -29.1570  -16.6200   19.4400 C   0  0  0  0  0  0  0  0  0  0  0  0
  -24.3843  -34.6193   25.0905 C   0  0  0  0  0  0  0  0  0  0  0  0
  -24.6746  -30.2646   20.2558 C   0  0  0  0  0  0  0  0  0  0  0  0
  -23.4316  -27.6567   20.8873 C   0  0  0  0  0  0  0  0  0  0  0  0
  -29.7932  -24.4685   19.4938 C   0  0  0  0  0  0  0  0  0  0  0  0
  -23.1664  -33.8078   24.6561 C   0  0  0  0  0  0  0  0  0  0  0  0
  -29.8425  -13.7478   21.4295 C   0  0  0  0  0  0  0  0  0  0  0  0
  -23.3414  -32.3399   25.0320 C   0  0  0  0  0  0  0  0  0  0  0  0
  -28.6644  -12.8155   21.1382 C   0  0  0  0  0  0  0  0  0  0  0  0
  -27.5545  -24.3234   18.3247 C   0  0  0  0  0  0  0  0  0  0  0  0
  -29.4097  -15.2123   21.4722 C   0  0  0  0  0  0  0  0  0  0  0  0
  -27.4904  -14.7428   20.0007 C   0  0  0  0  0  0  0  0  0  0  0  0
  -27.3262  -22.9492   18.9525 C   0  0  0  0  0  0  0  0  0  0  0  0
  -24.5561  -31.7296   24.3223 C   0  0  1  0  0  0  0  0  0  0  0  0
  -23.3850  -30.1645   21.0647 C   0  0  1  0  0  0  0  0  0  0  0  0
  -27.8887  -13.2625   19.8836 C   0  0  2  0  0  0  0  0  0  0  0  0
  -28.4883  -25.1941   19.1653 C   0  0  1  0  0  0  0  0  0  1  0  0
  -26.7647  -16.9264   15.9028 C   0  0  0  0  0  0  0  0  0  0  0  0
  -19.2943  -25.3424   16.9715 C   0  0  0  0  0  0  0  0  0  0  0  0
  -19.1720  -28.1436   22.8174 C   0  0  0  0  0  0  0  0  0  0  0  0
  -18.5030  -26.2580   21.3124 C   0  0  0  0  0  0  0  0  0  0  0  0
  -18.2570  -28.6167   20.5386 C   0  0  0  0  0  0  0  0  0  0  0  0
  -23.0189  -24.7363   17.4572 C   0  0  0  0  0  0  0  0  0  0  0  0
  -29.3031  -21.6841   17.9950 C   0  0  0  0  0  0  0  0  0  0  0  0
  -20.5670  -27.6040   20.7129 C   0  0  1  0  0  0  0  0  0  0  0  0
  -20.6986  -25.6609   17.4607 C   0  0  2  0  0  0  0  0  0  0  0  0
  -19.1516  -27.6581   21.3543 C   0  0  0  0  0  0  0  0  0  0  0  0
  -26.0452  -11.8186   20.6570 N   0  0  0  0  0  0  0  0  0  0  0  0
  -26.6910  -12.3706   19.6156 N   0  0  0  0  0  0  0  0  0  0  0  0
  -22.6646  -28.9119   20.8271 N   0  0  0  0  0  0  0  0  0  0  0  0
  -28.6847  -15.5653   20.2496 N   0  0  0  0  0  0  0  0  0  0  0  0
  -26.6885  -12.5113   17.2511 N   0  0  0  0  0  0  0  0  0  0  0  0
  -23.1856   -9.8019   18.1373 N   0  0  0  0  0  0  0  0  0  0  0  0
  -28.4051  -16.8429   18.2869 N   0  0  0  0  0  0  0  0  0  0  0  0
  -24.2380  -31.4311   22.9424 N   0  0  0  0  0  0  0  0  0  0  0  0
  -20.5753  -27.1735   19.3190 N   0  0  0  0  0  0  0  0  0  0  0  0
  -28.6242  -22.2249   19.2230 N   0  3  1  0  0  0  0  0  0  0  0  0
  -21.6004  -24.5442   17.0598 N   0  3  0  0  0  0  0  0  0  0  0  0
  -24.3925  -10.7967   16.4602 O   0  0  0  0  0  0  0  0  0  0  0  0
  -23.2650  -29.3418   23.2747 O   0  0  0  0  0  0  0  0  0  0  0  0
  -20.5941  -29.9758   20.6941 O   0  0  0  0  0  0  0  0  0  0  0  0
  -20.8720  -24.9148   19.7522 O   0  0  0  0  0  0  0  0  0  0  0  0
  -30.1706  -17.2592   19.7331 O   0  0  0  0  0  0  0  0  0  0  0  0
  -21.4625   -8.1896   23.1829 O   0  0  0  0  0  0  0  0  0  0  0  0
  -27.8195  -25.5543   20.3735 O   0  0  0  0  0  0  0  0  0  1  0  0
  -22.0602   -2.7100   23.3282 F   0  0  0  0  0  0  0  0  0  0  0  0
  -21.9349   -6.8771   25.5698 F   0  0  0  0  0  0  0  0  0  0  0  0
  1  2  1  0  0  0  0
  1  5  2  0  0  0  0
  2  6  2  0  0  0  0
  3 10  2  0  0  0  0
  3 18  1  0  0  0  0
  4 11  1  0  0  0  0
  4 18  2  0  0  0  0
  5 20  1  0  0  0  0
  6 22  1  0  0  0  0
  7 12  2  0  0  0  0
  7 21  1  0  0  0  0
  8  9  2  0  0  0  0
  8 24  1  0  0  0  0
  9 25  1  0  0  0  0
 10 27  1  0  0  0  0
 11 27  2  0  0  0  0
 12 28  1  0  0  0  0
 13 14  2  0  0  0  0
 13 29  1  0  0  0  0
 14 30  1  0  0  0  0
 15 23  1  0  0  0  0
 15 28  2  0  0  0  0
 16 24  2  0  0  0  0
 16 26  1  0  0  0  0
 17 30  2  0  0  0  0
 17 31  1  0  0  0  0
 18 32  1  0  0  0  0
 19 32  1  0  0  0  0
 19 33  2  0  0  0  0
 19 38  1  0  0  0  0
 20 22  2  0  0  0  0
 20 43  1  0  0  0  0
 21 23  2  0  0  0  0
 21 44  1  0  0  0  0
 22 55  1  0  0  0  0
 23 45  1  0  0  0  0
 24 65  1  0  0  0  0
 25 26  2  0  0  0  0
 25 59  1  0  0  0  0
 26 75  1  0  0  0  0
 27 85  1  0  0  0  0
 28 86  1  0  0  0  0
 29 31  2  0  0  0  0
 29 85  1  0  0  0  0
 30 87  1  0  0  0  0
 31 88  1  0  0  0  0
 32 69  2  0  0  0  0
 33 70  1  0  0  0  0
 33 73  1  0  0  0  0
 34 36  2  0  0  0  0
 34 46  1  0  0  0  0
 34 78  1  0  0  0  0
 35 37  2  0  0  0  0
 36 37  1  0  0  0  0
 38 74  1  0  0  0  0
 38 80  2  0  0  0  0
 39 56  1  0  0  0  0
 39 76  1  0  0  0  0
 39 81  2  0  0  0  0
 40 66  1  0  0  0  0
 40 71  1  0  0  0  0
 40 82  2  0  0  0  0
 41 67  1  0  0  0  0
 41 77  1  0  0  0  0
 41 83  2  0  0  0  0
 42 72  1  0  0  0  0
 42 75  1  0  0  0  0
 42 84  2  0  0  0  0
 43 47  1  0  0  0  0
 44 56  1  0  0  0  0
 45 71  1  0  0  0  0
 46 58  1  0  0  0  0
 47 49  1  0  0  0  0
 48 50  1  0  0  0  0
 48 52  1  0  0  0  0
 49 55  1  0  0  0  0
 50 57  1  0  0  0  0
 51 54  1  0  0  0  0
 51 58  1  0  0  0  0
 52 72  1  0  0  0  0
 53 57  1  0  0  0  0
 53 72  1  0  0  0  0
 54 78  1  0  0  0  0
 55 76  1  0  0  0  0
 56 71  1  0  0  0  0
 57 70  1  0  0  0  0
 58 86  1  0  0  0  0
 60 67  1  0  0  0  0
 61 68  1  0  0  0  0
 62 68  1  0  0  0  0
 63 68  1  0  0  0  0
 64 79  1  0  0  0  0
 65 78  1  0  0  0  0
 66 68  1  0  0  0  0
 66 77  1  0  0  0  0
 67 79  1  0  0  0  0
 69 70  1  0  0  0  0
M  CHG  2  78   1  79   1
M  ISO  4  42 100  58 101  75 100  86 101
M  END
> <Batch ID>
0044

> <Smiles>
C=CC=C1C[101CH:1]([101O:1]c2ccc3c(c2)CN(C(=O)C(NC(=O)C(C)NC)C(C)(C)C)C(C(=O)NC2CCCc4ccccc42)C3)CCN1Cc1ccc(C)c([100NH:0][100C:0](=O)N2CCCC(n3nc(-c4ccc(Oc5ccc(F)cc5F)cc4)c(C(N)=O)c3N)C2)c1

> <Shape>
0.334

> <Color>
0.098

> <Negative vol penalty>
0.000

$$$$

  -OEChem-04042322183D

 86 95  0     1  0  0  0  0  0999 V2000
  -16.8896  -30.4186   23.5341 C   0  0  0  0  0  0  0  0  0  0  0  0
  -18.1363  -31.0352   23.5030 C   0  0  0  0  0  0  0  0  0  0  0  0
  -28.1574  -12.8260   18.5748 C   0  0  0  0  0  0  0  0  0  0  0  0
  -29.2212  -14.0309   20.3786 C   0  0  0  0  0  0  0  0  0  0  0  0
  -16.7924  -29.0369   23.3751 C   0  0  0  0  0  0  0  0  0  0  0  0
  -19.2867  -30.2702   23.3141 C   0  0  0  0  0  0  0  0  0  0  0  0
  -25.7935  -30.6142   20.3374 C   0  0  0  0  0  0  0  0  0  0  0  0
  -30.4695  -23.3341   23.7941 C   0  0  0  0  0  0  0  0  0  0  0  0
  -28.9776  -11.7260   18.8259 C   0  0  0  0  0  0  0  0  0  0  0  0
  -30.0413  -12.9309   20.6297 C   0  0  0  0  0  0  0  0  0  0  0  0
  -27.1350  -30.4045   20.6537 C   0  0  0  0  0  0  0  0  0  0  0  0
  -32.1592  -10.7912   18.1722 C   0  0  0  0  0  0  0  0  0  0  0  0
  -32.7488  -10.1599   17.0770 C   0  0  0  0  0  0  0  0  0  0  0  0
  -29.6785  -22.2181   24.0671 C   0  0  0  0  0  0  0  0  0  0  0  0
  -26.8391  -28.0350   20.3112 C   0  0  0  0  0  0  0  0  0  0  0  0
  -30.0104  -23.0826   21.4355 C   0  0  0  0  0  0  0  0  0  0  0  0
  -31.6297   -8.1001   17.6618 C   0  0  0  0  0  0  0  0  0  0  0  0
  -28.2792  -13.9785   19.3511 C   0  0  0  0  0  0  0  0  0  0  0  0
  -26.0265  -15.1570   19.1421 C   0  0  0  0  0  0  0  0  0  0  0  0
  -17.9414  -28.2557   23.1745 C   0  0  0  0  0  0  0  0  0  0  0  0
  -24.9606  -29.5329   20.0157 C   0  0  0  0  0  0  0  0  0  0  0  0
  -19.2050  -28.8766   23.1537 C   0  0  0  0  0  0  0  0  0  0  0  0
  -25.4880  -28.2340   19.9887 C   0  0  0  0  0  0  0  0  0  0  0  0
  -30.6354  -23.7663   22.4783 C   0  0  0  0  0  0  0  0  0  0  0  0
  -29.2194  -21.9666   21.7085 C   0  0  0  0  0  0  0  0  0  0  0  0
  -29.9195  -11.7785   19.8533 C   0  0  0  0  0  0  0  0  0  0  0  0
  -27.6573  -29.1145   20.6434 C   0  0  0  0  0  0  0  0  0  0  0  0
  -31.3049  -10.0769   19.0123 C   0  0  0  0  0  0  0  0  0  0  0  0
  -32.4840   -8.8144   16.8217 C   0  0  0  0  0  0  0  0  0  0  0  0
  -31.0402   -8.7314   18.7571 C   0  0  0  0  0  0  0  0  0  0  0  0
  -29.0534  -21.5344   23.0244 C   0  0  0  0  0  0  0  0  0  0  0  0
  -27.4327  -15.1152   19.0919 C   0  0  0  0  0  0  0  0  0  0  0  0
  -25.7097  -16.4537   18.8184 C   0  0  0  0  0  0  0  0  0  0  0  0
  -29.9921  -26.8339   21.5881 C   0  0  0  0  0  0  0  0  0  0  0  0
  -25.0903  -14.1167   19.4537 C   0  0  0  0  0  0  0  0  0  0  0  0
  -22.3337  -28.2700   21.2840 C   0  0  0  0  0  0  0  0  0  0  0  0
  -22.4134  -26.4123   18.6260 C   0  0  0  0  0  0  0  0  0  0  0  0
  -24.9223  -24.6727   16.7033 C   0  0  0  0  0  0  0  0  0  0  0  0
  -28.6823  -21.6172   19.2722 C   0  0  0  0  0  0  0  0  0  0  0  0
  -17.7905  -26.7599   23.0549 C   0  0  0  0  0  0  0  0  0  0  0  0
  -23.5222  -29.7788   19.6509 C   0  0  0  0  0  0  0  0  0  0  0  0
  -24.6408  -27.0414   19.6303 C   0  0  0  0  0  0  0  0  0  0  0  0
  -19.0254  -26.0667   22.4848 C   0  0  0  0  0  0  0  0  0  0  0  0
  -30.3664  -27.9799   24.2590 C   0  0  0  0  0  0  0  0  0  0  0  0
  -27.3359  -20.1892   16.3014 C   0  0  0  0  0  0  0  0  0  0  0  0
  -20.2889  -26.5808   23.1674 C   0  0  0  0  0  0  0  0  0  0  0  0
  -30.0011  -28.8807   23.0978 C   0  0  0  0  0  0  0  0  0  0  0  0
  -27.0743  -18.7313   16.6863 C   0  0  0  0  0  0  0  0  0  0  0  0
  -31.2577  -26.8524   23.7699 C   0  0  0  0  0  0  0  0  0  0  0  0
  -28.6083  -20.7282   16.9529 C   0  0  0  0  0  0  0  0  0  0  0  0
  -28.4165  -19.1038   18.7951 C   0  0  0  0  0  0  0  0  0  0  0  0
  -20.4738  -28.0838   22.9262 C   0  0  1  0  0  0  0  0  0  0  0  0
  -29.2423  -28.0715   22.0645 C   0  0  1  0  0  0  0  0  0  1  0  0
  -22.6393  -28.5491   19.8395 C   0  0  1  0  0  0  0  0  0  0  0  0
  -27.1105  -18.5368   18.2149 C   0  0  2  0  0  0  0  0  0  0  0  0
  -24.9666  -24.0347   14.2767 C   0  0  0  0  0  0  0  0  0  0  0  0
  -21.2804  -23.7530   19.6029 C   0  0  0  0  0  0  0  0  0  0  0  0
  -22.7136  -22.5984   17.9056 C   0  0  0  0  0  0  0  0  0  0  0  0
  -20.9471  -24.1961   17.1643 C   0  0  0  0  0  0  0  0  0  0  0  0
  -27.5014  -26.0572   16.2669 C   0  0  0  0  0  0  0  0  0  0  0  0
  -31.4867  -24.9678   22.1849 C   0  0  0  0  0  0  0  0  0  0  0  0
  -23.0408  -25.0872   18.2662 C   0  0  1  0  0  0  0  0  0  0  0  0
  -25.4250  -25.0424   15.3195 C   0  0  2  0  0  0  0  0  0  0  0  0
  -22.0071  -23.9258   18.2542 C   0  0  0  0  0  0  0  0  0  0  0  0
  -27.9720  -16.2918   18.7621 N   0  0  0  0  0  0  0  0  0  0  0  0
  -26.8991  -17.0851   18.6020 N   0  0  0  0  0  0  0  0  0  0  0  0
  -30.8120  -26.2116   22.5314 N   0  0  0  0  0  0  0  0  0  0  0  0
  -23.2390  -27.3327   19.2872 N   0  0  0  0  0  0  0  0  0  0  0  0
  -28.5700  -20.5131   18.4010 N   0  0  0  0  0  0  0  0  0  0  0  0
  -24.5325  -17.1039   18.7005 N   0  0  0  0  0  0  0  0  0  0  0  0
  -25.5857  -12.8429   19.7638 N   0  0  0  0  0  0  0  0  0  0  0  0
  -28.5996  -21.2941   20.6262 N   0  0  0  0  0  0  0  0  0  0  0  0
  -20.9883  -28.3224   21.5947 N   0  0  0  0  0  0  0  0  0  0  0  0
  -23.7248  -25.2914   16.9939 N   0  0  0  0  0  0  0  0  0  0  0  0
  -26.9145  -25.0892   15.3048 N   0  3  0  0  0  0  0  0  0  0  0  0
  -29.8043  -26.4027   20.4476 O   0  0  0  0  0  0  0  0  0  0  0  0
  -23.8504  -14.3069   19.4409 O   0  0  0  0  0  0  0  0  0  0  0  0
  -23.2506  -28.0238   22.0589 O   0  0  0  0  0  0  0  0  0  0  0  0
  -21.2364  -26.6257   18.3248 O   0  0  0  0  0  0  0  0  0  0  0  0
  -25.5292  -23.9083   17.4503 O   0  0  0  0  0  0  0  0  0  0  0  0
  -28.8129  -22.7682   18.8476 O   0  0  0  0  0  0  0  0  0  0  0  0
  -30.7198  -10.7052   20.0987 O   0  0  0  0  0  0  0  0  0  0  0  0
  -28.9663  -28.9069   20.9524 O   0  0  0  0  0  0  0  0  0  1  0  0
  -33.0490   -8.2087   15.7691 F   0  0  0  0  0  0  0  0  0  0  0  0
  -30.2194   -8.0403   19.5599 F   0  0  0  0  0  0  0  0  0  0  0  0
  -28.0831  -20.1572   23.4075 Cl  0  0  0  0  0  0  0  0  0  0  0  0
  1  2  1  0  0  0  0
  1  5  2  0  0  0  0
  2  6  2  0  0  0  0
  3  9  2  0  0  0  0
  3 18  1  0  0  0  0
  4 10  1  0  0  0  0
  4 18  2  0  0  0  0
  5 20  1  0  0  0  0
  6 22  1  0  0  0  0
  7 11  2  0  0  0  0
  7 21  1  0  0  0  0
  8 14  2  0  0  0  0
  8 24  1  0  0  0  0
  9 26  1  0  0  0  0
 10 26  2  0  0  0  0
 11 27  1  0  0  0  0
 12 13  2  0  0  0  0
 12 28  1  0  0  0  0
 13 29  1  0  0  0  0
 14 31  1  0  0  0  0
 15 23  1  0  0  0  0
 15 27  2  0  0  0  0
 16 24  2  0  0  0  0
 16 25  1  0  0  0  0
 17 29  2  0  0  0  0
 17 30  1  0  0  0  0
 18 32  1  0  0  0  0
 19 32  1  0  0  0  0
 19 33  2  0  0  0  0
 19 35  1  0  0  0  0
 20 22  2  0  0  0  0
 20 40  1  0  0  0  0
 21 23  2  0  0  0  0
 21 41  1  0  0  0  0
 22 52  1  0  0  0  0
 23 42  1  0  0  0  0
 24 61  1  0  0  0  0
 25 31  2  0  0  0  0
 25 72  1  0  0  0  0
 26 82  1  0  0  0  0
 27 83  1  0  0  0  0
 28 30  2  0  0  0  0
 28 82  1  0  0  0  0
 29 84  1  0  0  0  0
 30 85  1  0  0  0  0
 31 86  1  0  0  0  0
 32 65  2  0  0  0  0
 33 66  1  0  0  0  0
 33 70  1  0  0  0  0
 34 53  1  0  0  0  0
 34 67  1  0  0  0  0
 34 76  2  0  0  0  0
 35 71  1  0  0  0  0
 35 77  2  0  0  0  0
 36 54  1  0  0  0  0
 36 73  1  0  0  0  0
 36 78  2  0  0  0  0
 37 62  1  0  0  0  0
 37 68  1  0  0  0  0
 37 79  2  0  0  0  0
 38 63  1  0  0  0  0
 38 74  1  0  0  0  0
 38 80  2  0  0  0  0
 39 69  1  0  0  0  0
 39 72  1  0  0  0  0
 39 81  2  0  0  0  0
 40 43  1  0  0  0  0
 41 54  1  0  0  0  0
 42 68  1  0  0  0  0
 43 46  1  0  0  0  0
 44 47  1  0  0  0  0
 44 49  1  0  0  0  0
 45 48  1  0  0  0  0
 45 50  1  0  0  0  0
 46 52  1  0  0  0  0
 47 53  1  0  0  0  0
 48 55  1  0  0  0  0
 49 67  1  0  0  0  0
 50 69  1  0  0  0  0
 51 55  1  0  0  0  0
 51 69  1  0  0  0  0
 52 73  1  0  0  0  0
 53 83  1  0  0  0  0
 54 68  1  0  0  0  0
 55 66  1  0  0  0  0
 56 63  1  0  0  0  0
 57 64  1  0  0  0  0
 58 64  1  0  0  0  0
 59 64  1  0  0  0  0
 60 75  1  0  0  0  0
 61 67  1  0  0  0  0
 62 64  1  0  0  0  0
 62 74  1  0  0  0  0
 63 75  1  0  0  0  0
 65 66  1  0  0  0  0
M  CHG  1  75   1
M  ISO  4  39 100  53 101  72 100  83 101
M  END
> <Batch ID>
0044

> <Smiles>
CNC(C)C(=O)NC(C(=O)N1Cc2cc([101O:1][101CH:1]3CCCN(Cc4ccc(Cl)c([100NH:0][100C:0](=O)N5CCCC(n6nc(-c7ccc(Oc8ccc(F)cc8F)cc7)c(C(N)=O)c6N)C5)c4)C3=O)ccc2CC1C(=O)NC1CCCc2ccccc21)C(C)(C)C

> <Shape>
0.240

> <Color>
0.084

> <Negative vol penalty>
0.000

$$$$

  -OEChem-04042322183D

 88 97  0     1  0  0  0  0  0999 V2000
  -15.1111  -28.0841   26.0748 C   0  0  0  0  0  0  0  0  0  0  0  0
  -16.1981  -27.2197   25.9933 C   0  0  0  0  0  0  0  0  0  0  0  0
  -26.7378  -12.5921   21.7485 C   0  0  0  0  0  0  0  0  0  0  0  0
  -26.1369  -14.0053   19.8834 C   0  0  0  0  0  0  0  0  0  0  0  0
  -15.1010  -29.2618   25.3285 C   0  0  0  0  0  0  0  0  0  0  0  0
  -17.2752  -27.5319   25.1646 C   0  0  0  0  0  0  0  0  0  0  0  0
  -21.7457  -26.7463   27.4102 C   0  0  0  0  0  0  0  0  0  0  0  0
  -25.8977  -21.5612   20.9116 C   0  0  0  0  0  0  0  0  0  0  0  0
  -26.4113  -20.8329   19.8386 C   0  0  0  0  0  0  0  0  0  0  0  0
  -25.4366  -12.0913   21.7883 C   0  0  0  0  0  0  0  0  0  0  0  0
  -24.8357  -13.5045   19.9231 C   0  0  0  0  0  0  0  0  0  0  0  0
  -22.1965  -25.4293   27.4879 C   0  0  0  0  0  0  0  0  0  0  0  0
  -23.5854   -9.8284   20.0897 C   0  0  0  0  0  0  0  0  0  0  0  0
  -23.4254   -8.4495   20.2256 C   0  0  0  0  0  0  0  0  0  0  0  0
  -28.0580  -21.4941   21.9913 C   0  0  0  0  0  0  0  0  0  0  0  0
  -23.6350  -25.8162   25.5904 C   0  0  0  0  0  0  0  0  0  0  0  0
  -22.2078   -8.7938   22.2838 C   0  0  0  0  0  0  0  0  0  0  0  0
  -27.0880  -13.5491   20.7961 C   0  0  0  0  0  0  0  0  0  0  0  0
  -28.5716  -20.7657   20.9183 C   0  0  0  0  0  0  0  0  0  0  0  0
  -29.5175  -13.5569   20.0181 C   0  0  0  0  0  0  0  0  0  0  0  0
  -16.1829  -29.5933   24.4976 C   0  0  0  0  0  0  0  0  0  0  0  0
  -22.2289  -27.6064   26.4136 C   0  0  0  0  0  0  0  0  0  0  0  0
  -17.2790  -28.7145   24.4055 C   0  0  0  0  0  0  0  0  0  0  0  0
  -23.1906  -27.1444   25.5039 C   0  0  0  0  0  0  0  0  0  0  0  0
  -26.7211  -21.8918   21.9879 C   0  0  0  0  0  0  0  0  0  0  0  0
  -27.7483  -20.4352   19.8419 C   0  0  0  0  0  0  0  0  0  0  0  0
  -24.4855  -12.5475   20.8756 C   0  0  0  0  0  0  0  0  0  0  0  0
  -23.1391  -24.9632   26.5761 C   0  0  0  0  0  0  0  0  0  0  0  0
  -23.0567  -10.6900   21.0508 C   0  0  0  0  0  0  0  0  0  0  0  0
  -22.7366   -7.9321   21.3227 C   0  0  0  0  0  0  0  0  0  0  0  0
  -22.3679  -10.1727   22.1479 C   0  0  0  0  0  0  0  0  0  0  0  0
  -28.4319  -14.0672   20.7548 C   0  0  0  0  0  0  0  0  0  0  0  0
  -30.5614  -14.3977   20.3178 C   0  0  0  0  0  0  0  0  0  0  0  0
  -25.4313  -22.6434   25.4556 C   0  0  0  0  0  0  0  0  0  0  0  0
  -26.3024  -22.9490   26.4314 C   0  0  0  0  0  0  0  0  0  0  0  0
  -29.9712  -20.3629   20.9472 C   0  0  0  0  0  0  0  0  0  0  0  0
  -29.5770  -12.4241   19.1412 C   0  0  0  0  0  0  0  0  0  0  0  0
  -30.6690  -20.0971   22.2261 C   0  0  0  0  0  0  0  0  0  0  0  0
  -20.9197  -29.1852   23.9853 C   0  0  0  0  0  0  0  0  0  0  0  0
  -23.8947  -30.4487   23.7110 C   0  0  0  0  0  0  0  0  0  0  0  0
  -27.2414  -30.1349   24.3013 C   0  0  0  0  0  0  0  0  0  0  0  0
  -16.1057  -30.8543   23.6738 C   0  0  0  0  0  0  0  0  0  0  0  0
  -21.7524  -29.0320   26.3600 C   0  0  0  0  0  0  0  0  0  0  0  0
  -23.7560  -28.0336   24.4277 C   0  0  0  0  0  0  0  0  0  0  0  0
  -17.4527  -31.2946   23.1064 C   0  0  0  0  0  0  0  0  0  0  0  0
  -32.2109  -17.2531   23.7724 C   0  0  0  0  0  0  0  0  0  0  0  0
  -23.5720  -21.0320   23.9840 C   0  0  0  0  0  0  0  0  0  0  0  0
  -18.1842  -30.1083   22.4863 C   0  0  0  0  0  0  0  0  0  0  0  0
  -23.0855  -21.8436   25.1794 C   0  0  0  0  0  0  0  0  0  0  0  0
  -31.4870  -16.0683   23.1337 C   0  0  0  0  0  0  0  0  0  0  0  0
  -31.2785  -18.4469   23.9506 C   0  0  0  0  0  0  0  0  0  0  0  0
  -29.8827  -17.6993   22.0424 C   0  0  0  0  0  0  0  0  0  0  0  0
  -25.0369  -20.6367   24.1380 C   0  0  0  0  0  0  0  0  0  0  0  0
  -18.4772  -29.0304   23.5368 C   0  0  1  0  0  0  0  0  0  0  0  0
  -23.9774  -23.0586   25.4299 C   0  0  1  0  0  0  0  0  0  1  0  0
  -21.9304  -29.6702   24.9857 C   0  0  1  0  0  0  0  0  0  0  0  0
  -30.7996  -16.4837   21.8209 C   0  0  2  0  0  0  0  0  0  0  0  0
  -28.2724  -19.6560   18.6799 C   0  0  0  0  0  0  0  0  0  0  0  0
  -27.7298  -22.5265   26.4308 C   0  0  0  0  0  0  0  0  0  0  0  0
  -29.4265  -31.3107   23.9269 C   0  0  0  0  0  0  0  0  0  0  0  0
  -23.8574  -29.5817   20.7858 C   0  0  0  0  0  0  0  0  0  0  0  0
  -26.3396  -29.9042   20.7309 C   0  0  0  0  0  0  0  0  0  0  0  0
  -24.8414  -31.8450   21.1906 C   0  0  0  0  0  0  0  0  0  0  0  0
  -27.7503  -30.3612   27.2079 C   0  0  0  0  0  0  0  0  0  0  0  0
  -26.1680  -22.6752   23.1418 C   0  0  0  0  0  0  0  0  0  0  0  0
  -25.1519  -30.0713   22.9654 C   0  0  1  0  0  0  0  0  0  0  0  0
  -28.2578  -31.1039   24.8778 C   0  0  2  0  0  0  0  0  0  0  0  0
  -25.0357  -30.3330   21.4371 C   0  0  0  0  0  0  0  0  0  0  0  0
  -28.7561  -15.1484   21.4690 N   0  0  0  0  0  0  0  0  0  0  0  0
  -30.6926  -20.2091   19.8713 N   0  0  0  0  0  0  0  0  0  0  0  0
  -30.0573  -15.3242   21.1824 N   0  0  0  0  0  0  0  0  0  0  0  0
  -30.6154  -18.7918   22.6947 N   0  0  0  0  0  0  0  0  0  0  0  0
  -23.2539  -29.4175   24.4124 N   0  0  0  0  0  0  0  0  0  0  0  0
  -31.8521  -14.4274   19.9236 N   0  0  0  0  0  0  0  0  0  0  0  0
  -28.4126  -11.6690   18.9452 N   0  0  0  0  0  0  0  0  0  0  0  0
  -19.6080  -29.4152   24.3540 N   0  0  0  0  0  0  0  0  0  0  0  0
  -26.2427  -30.7914   23.6136 N   0  0  0  0  0  0  0  0  0  0  0  0
  -25.9309  -21.8338   24.3656 N   0  3  1  0  0  0  0  0  0  0  0  0
  -28.7895  -30.5882   26.1709 N   0  3  0  0  0  0  0  0  0  0  0  0
  -30.6355  -12.0816   18.5619 O   0  0  0  0  0  0  0  0  0  0  0  0
  -31.2213  -21.0631   22.7362 O   0  0  0  0  0  0  0  0  0  0  0  0
  -21.3017  -28.6439   22.9544 O   0  0  0  0  0  0  0  0  0  0  0  0
  -23.4999  -31.6169   23.6785 O   0  0  0  0  0  0  0  0  0  0  0  0
  -27.3270  -28.9171   24.4433 O   0  0  0  0  0  0  0  0  0  0  0  0
  -23.2157  -12.0589   20.9139 O   0  0  0  0  0  0  0  0  0  0  0  0
  -23.5804  -23.6779   26.6492 O   0  0  0  0  0  0  0  0  0  1  0  0
  -22.5816   -6.6080   21.4524 F   0  0  0  0  0  0  0  0  0  0  0  0
  -21.8567  -10.9956   23.0738 F   0  0  0  0  0  0  0  0  0  0  0  0
  1  2  1  0  0  0  0
  1  5  2  0  0  0  0
  2  6  2  0  0  0  0
  3 10  2  0  0  0  0
  3 18  1  0  0  0  0
  4 11  1  0  0  0  0
  4 18  2  0  0  0  0
  5 21  1  0  0  0  0
  6 23  1  0  0  0  0
  7 12  2  0  0  0  0
  7 22  1  0  0  0  0
  8  9  2  0  0  0  0
  8 25  1  0  0  0  0
  9 26  1  0  0  0  0
 10 27  1  0  0  0  0
 11 27  2  0  0  0  0
 12 28  1  0  0  0  0
 13 14  2  0  0  0  0
 13 29  1  0  0  0  0
 14 30  1  0  0  0  0
 15 19  1  0  0  0  0
 15 25  2  0  0  0  0
 16 24  1  0  0  0  0
 16 28  2  0  0  0  0
 17 30  2  0  0  0  0
 17 31  1  0  0  0  0
 18 32  1  0  0  0  0
 19 26  2  0  0  0  0
 19 36  1  0  0  0  0
 20 32  1  0  0  0  0
 20 33  2  0  0  0  0
 20 37  1  0  0  0  0
 21 23  2  0  0  0  0
 21 42  1  0  0  0  0
 22 24  2  0  0  0  0
 22 43  1  0  0  0  0
 23 54  1  0  0  0  0
 24 44  1  0  0  0  0
 25 65  1  0  0  0  0
 26 58  1  0  0  0  0
 27 85  1  0  0  0  0
 28 86  1  0  0  0  0
 29 31  2  0  0  0  0
 29 85  1  0  0  0  0
 30 87  1  0  0  0  0
 31 88  1  0  0  0  0
 32 69  2  0  0  0  0
 33 71  1  0  0  0  0
 33 74  1  0  0  0  0
 34 35  2  0  0  0  0
 34 55  1  0  0  0  0
 34 78  1  0  0  0  0
 35 59  1  0  0  0  0
 36 38  1  0  0  0  0
 36 70  2  0  0  0  0
 37 75  1  0  0  0  0
 37 80  2  0  0  0  0
 38 72  1  0  0  0  0
 38 81  2  0  0  0  0
 39 56  1  0  0  0  0
 39 76  1  0  0  0  0
 39 82  2  0  0  0  0
 40 66  1  0  0  0  0
 40 73  1  0  0  0  0
 40 83  2  0  0  0  0
 41 67  1  0  0  0  0
 41 77  1  0  0  0  0
 41 84  2  0  0  0  0
 42 45  1  0  0  0  0
 43 56  1  0  0  0  0
 44 73  1  0  0  0  0
 45 48  1  0  0  0  0
 46 50  1  0  0  0  0
 46 51  1  0  0  0  0
 47 49  1  0  0  0  0
 47 53  1  0  0  0  0
 48 54  1  0  0  0  0
 49 55  1  0  0  0  0
 50 57  1  0  0  0  0
 51 72  1  0  0  0  0
 52 57  1  0  0  0  0
 52 72  1  0  0  0  0
 53 78  1  0  0  0  0
 54 76  1  0  0  0  0
 55 86  1  0  0  0  0
 56 73  1  0  0  0  0
 57 71  1  0  0  0  0
 60 67  1  0  0  0  0
 61 68  1  0  0  0  0
 62 68  1  0  0  0  0
 63 68  1  0  0  0  0
 64 79  1  0  0  0  0
 65 78  1  0  0  0  0
 66 68  1  0  0  0  0
 66 77  1  0  0  0  0
 67 79  1  0  0  0  0
 69 71  1  0  0  0  0
M  CHG  2  78   1  79   1
M  ISO  4  36 100  38 100  55 101  86 101
M  END
> <Batch ID>
0044

> <Smiles>
CC=C1N(Cc2ccc(C)c([100C:0](=N)[100C:0](=O)N3CCCC(n4nc(-c5ccc(Oc6ccc(F)cc6F)cc5)c(C(N)=O)c4N)C3)c2)CCC[101CH:1]1[101O:1]c1ccc2c(c1)CN(C(=O)C(NC(=O)C(C)NC)C(C)(C)C)C(C(=O)NC1CCCc3ccccc31)C2

> <Shape>
0.276

> <Color>
0.072

> <Negative vol penalty>
0.000

$$$$

  -OEChem-04042322183D

 86 94  0     1  0  0  0  0  0999 V2000
  -29.5755  -24.7318   16.6670 C   0  0  0  0  0  0  0  0  0  0  0  0
  -28.3846  -24.6966   17.3853 C   0  0  0  0  0  0  0  0  0  0  0  0
  -27.9424  -16.5579   19.6500 C   0  0  0  0  0  0  0  0  0  0  0  0
  -26.5438  -16.9776   21.5748 C   0  0  0  0  0  0  0  0  0  0  0  0
  -30.6513  -25.4823   17.1395 C   0  0  0  0  0  0  0  0  0  0  0  0
  -28.2691  -25.4112   18.5771 C   0  0  0  0  0  0  0  0  0  0  0  0
  -23.8968  -27.9445   18.9078 C   0  0  0  0  0  0  0  0  0  0  0  0
  -28.9620  -17.3160   20.2256 C   0  0  0  0  0  0  0  0  0  0  0  0
  -27.5634  -17.7357   22.1504 C   0  0  0  0  0  0  0  0  0  0  0  0
  -22.7601  -27.2114   19.2457 C   0  0  0  0  0  0  0  0  0  0  0  0
  -29.7142  -20.5876   20.6194 C   0  0  0  0  0  0  0  0  0  0  0  0
  -30.3769  -21.5058   19.8049 C   0  0  0  0  0  0  0  0  0  0  0  0
  -22.9502  -27.9784   21.5248 C   0  0  0  0  0  0  0  0  0  0  0  0
  -18.8644  -19.9936   20.2605 C   0  0  0  0  0  0  0  0  0  0  0  0
  -16.9666  -19.9013   18.7683 C   0  0  0  0  0  0  0  0  0  0  0  0
  -32.4647  -20.3602   20.2120 C   0  0  0  0  0  0  0  0  0  0  0  0
  -26.7332  -16.3888   20.3246 C   0  0  0  0  0  0  0  0  0  0  0  0
  -25.4628  -14.2228   19.8748 C   0  0  0  0  0  0  0  0  0  0  0  0
  -30.5458  -26.2141   18.3328 C   0  0  0  0  0  0  0  0  0  0  0  0
  -24.5762  -28.6927   19.8799 C   0  0  0  0  0  0  0  0  0  0  0  0
  -29.3450  -26.1711   19.0667 C   0  0  0  0  0  0  0  0  0  0  0  0
  -24.0938  -28.7223   21.1962 C   0  0  0  0  0  0  0  0  0  0  0  0
  -18.0111  -19.2611   19.4353 C   0  0  0  0  0  0  0  0  0  0  0  0
  -18.6731  -21.3662   20.4189 C   0  0  0  0  0  0  0  0  0  0  0  0
  -17.6286  -22.0063   19.7520 C   0  0  0  0  0  0  0  0  0  0  0  0
  -28.7726  -17.9048   21.4758 C   0  0  0  0  0  0  0  0  0  0  0  0
  -22.2883  -27.2259   20.5550 C   0  0  0  0  0  0  0  0  0  0  0  0
  -30.4268  -19.5557   21.2302 C   0  0  0  0  0  0  0  0  0  0  0  0
  -31.7521  -21.3921   19.6012 C   0  0  0  0  0  0  0  0  0  0  0  0
  -31.8020  -19.4420   21.0265 C   0  0  0  0  0  0  0  0  0  0  0  0
  -16.7753  -21.2739   18.9267 C   0  0  0  0  0  0  0  0  0  0  0  0
  -25.6794  -15.6063   19.7303 C   0  0  0  0  0  0  0  0  0  0  0  0
  -24.3446  -13.9695   19.1186 C   0  0  0  0  0  0  0  0  0  0  0  0
  -26.2059  -13.2534   20.6256 C   0  0  0  0  0  0  0  0  0  0  0  0
  -27.5016  -28.6274   21.1213 C   0  0  0  0  0  0  0  0  0  0  0  0
  -26.5060  -31.3290   22.6156 C   0  0  0  0  0  0  0  0  0  0  0  0
  -19.3446  -25.0358   20.3990 C   0  0  0  0  0  0  0  0  0  0  0  0
  -23.9026  -33.2116   23.7666 C   0  0  0  0  0  0  0  0  0  0  0  0
  -19.7524  -17.3852   17.3592 C   0  0  0  0  0  0  0  0  0  0  0  0
  -31.7515  -26.9729   18.8280 C   0  0  0  0  0  0  0  0  0  0  0  0
  -25.7854  -29.4995   19.4935 C   0  0  0  0  0  0  0  0  0  0  0  0
  -24.7751  -29.5257   22.2726 C   0  0  0  0  0  0  0  0  0  0  0  0
  -31.4227  -28.0023   19.9063 C   0  0  0  0  0  0  0  0  0  0  0  0
  -21.9864  -15.5607   15.2718 C   0  0  0  0  0  0  0  0  0  0  0  0
  -30.5075  -27.3937   20.9640 C   0  0  0  0  0  0  0  0  0  0  0  0
  -23.1667  -15.2407   16.1908 C   0  0  0  0  0  0  0  0  0  0  0  0
  -21.4011  -16.9405   15.5646 C   0  0  0  0  0  0  0  0  0  0  0  0
  -22.2068  -16.8481   17.8918 C   0  0  0  0  0  0  0  0  0  0  0  0
  -29.1728  -26.9527   20.3511 C   0  0  1  0  0  0  0  0  0  0  0  0
  -26.6960  -29.8150   20.6761 C   0  0  1  0  0  0  0  0  0  0  0  0
  -22.7952  -15.4439   17.6720 C   0  0  2  0  0  0  0  0  0  0  0  0
  -19.6014  -22.1252   21.3102 C   0  0  0  0  0  0  0  0  0  0  0  0
  -23.4037  -35.3518   24.9783 C   0  0  0  0  0  0  0  0  0  0  0  0
  -27.3369  -30.0294   25.2482 C   0  0  0  0  0  0  0  0  0  0  0  0
  -25.9748  -31.7533   26.4486 C   0  0  0  0  0  0  0  0  0  0  0  0
  -27.9194  -32.4536   25.0519 C   0  0  0  0  0  0  0  0  0  0  0  0
  -18.9622  -24.1152   18.1058 C   0  0  0  0  0  0  0  0  0  0  0  0
  -22.3835  -34.2939   21.4689 C   0  0  0  0  0  0  0  0  0  0  0  0
  -18.2169  -17.7937   19.2657 C   0  0  0  0  0  0  0  0  0  0  0  0
  -17.4363  -23.4842   19.9338 C   0  0  0  0  0  0  0  0  0  0  0  0
  -20.5489  -25.7677   19.8451 C   0  0  0  0  0  0  0  0  0  1  0  0
  -25.8117  -31.6349   23.9207 C   0  0  1  0  0  0  0  0  0  0  0  0
  -23.5867  -34.6893   23.6216 C   0  0  2  0  0  0  0  0  0  0  0  0
  -26.7488  -31.4510   25.1477 C   0  0  0  0  0  0  0  0  0  0  0  0
  -24.7717  -16.1909   18.9439 N   0  0  0  0  0  0  0  0  0  0  0  0
  -23.9740  -15.1698   18.5874 N   0  0  0  0  0  0  0  0  0  0  0  0
  -25.9572  -30.2929   21.8466 N   0  0  0  0  0  0  0  0  0  0  0  0
  -21.0687  -17.0676   16.9856 N   0  0  0  0  0  0  0  0  0  0  0  0
  -23.6521  -12.8393   18.8627 N   0  0  0  0  0  0  0  0  0  0  0  0
  -27.3282  -13.6838   21.3464 N   0  0  0  0  0  0  0  0  0  0  0  0
  -28.3127  -28.0967   20.1365 N   0  0  0  0  0  0  0  0  0  0  0  0
  -25.2617  -32.9793   23.7851 N   0  0  0  0  0  0  0  0  0  0  0  0
  -19.5213  -17.4803   18.7260 N   0  0  0  0  0  0  0  0  0  0  0  0
  -18.6112  -24.2440   19.5147 N   0  0  0  0  0  0  0  0  0  0  0  0
  -22.3352  -34.8767   22.8345 N   0  3  0  0  0  0  0  0  0  0  0  0
  -25.8938  -12.0386   20.6432 O   0  0  0  0  0  0  0  0  0  0  0  0
  -27.3963  -28.2235   22.2735 O   0  0  0  0  0  0  0  0  0  0  0  0
  -27.4944  -31.9898   22.2870 O   0  0  0  0  0  0  0  0  0  0  0  0
  -19.0715  -25.1641   21.5964 O   0  0  0  0  0  0  0  0  0  0  0  0
  -23.0310  -32.3500   23.8583 O   0  0  0  0  0  0  0  0  0  0  0  0
  -18.8487  -17.5649   16.5357 O   0  0  0  0  0  0  0  0  0  0  0  0
  -29.7674  -18.6444   22.0379 O   0  0  0  0  0  0  0  0  0  0  0  0
  -21.1794  -26.5107   20.8876 O   0  0  0  0  0  0  0  0  0  1  0  0
  -32.3880  -22.2731   18.8178 F   0  0  0  0  0  0  0  0  0  0  0  0
  -32.4918  -18.4521   21.6097 F   0  0  0  0  0  0  0  0  0  0  0  0
  -15.4723  -22.0297   18.0828 Cl  0  0  0  0  0  0  0  0  0  0  0  0
  1  2  1  0  0  0  0
  1  5  2  0  0  0  0
  2  6  2  0  0  0  0
  3  8  2  0  0  0  0
  3 17  1  0  0  0  0
  4  9  1  0  0  0  0
  4 17  2  0  0  0  0
  5 19  1  0  0  0  0
  6 21  1  0  0  0  0
  7 10  2  0  0  0  0
  7 20  1  0  0  0  0
  8 26  1  0  0  0  0
  9 26  2  0  0  0  0
 10 27  1  0  0  0  0
 11 12  2  0  0  0  0
 11 28  1  0  0  0  0
 12 29  1  0  0  0  0
 13 22  1  0  0  0  0
 13 27  2  0  0  0  0
 14 23  1  0  0  0  0
 14 24  2  0  0  0  0
 15 23  2  0  0  0  0
 15 31  1  0  0  0  0
 16 29  2  0  0  0  0
 16 30  1  0  0  0  0
 17 32  1  0  0  0  0
 18 32  1  0  0  0  0
 18 33  2  0  0  0  0
 18 34  1  0  0  0  0
 19 21  2  0  0  0  0
 19 40  1  0  0  0  0
 20 22  2  0  0  0  0
 20 41  1  0  0  0  0
 21 49  1  0  0  0  0
 22 42  1  0  0  0  0
 23 59  1  0  0  0  0
 24 25  1  0  0  0  0
 24 52  1  0  0  0  0
 25 31  2  0  0  0  0
 25 60  1  0  0  0  0
 26 82  1  0  0  0  0
 27 83  1  0  0  0  0
 28 30  2  0  0  0  0
 28 82  1  0  0  0  0
 29 84  1  0  0  0  0
 30 85  1  0  0  0  0
 31 86  1  0  0  0  0
 32 65  2  0  0  0  0
 33 66  1  0  0  0  0
 33 69  1  0  0  0  0
 34 70  1  0  0  0  0
 34 76  2  0  0  0  0
 35 50  1  0  0  0  0
 35 71  1  0  0  0  0
 35 77  2  0  0  0  0
 36 62  1  0  0  0  0
 36 67  1  0  0  0  0
 36 78  2  0  0  0  0
 37 61  1  0  0  0  0
 37 74  1  0  0  0  0
 37 79  2  0  0  0  0
 38 63  1  0  0  0  0
 38 72  1  0  0  0  0
 38 80  2  0  0  0  0
 39 68  1  0  0  0  0
 39 73  1  0  0  0  0
 39 81  2  0  0  0  0
 40 43  1  0  0  0  0
 41 50  1  0  0  0  0
 42 67  1  0  0  0  0
 43 45  1  0  0  0  0
 44 46  1  0  0  0  0
 44 47  1  0  0  0  0
 45 49  1  0  0  0  0
 46 51  1  0  0  0  0
 47 68  1  0  0  0  0
 48 51  1  0  0  0  0
 48 68  1  0  0  0  0
 49 71  1  0  0  0  0
 50 67  1  0  0  0  0
 51 66  1  0  0  0  0
 53 63  1  0  0  0  0
 54 64  1  0  0  0  0
 55 64  1  0  0  0  0
 56 64  1  0  0  0  0
 57 74  1  0  0  0  0
 58 75  1  0  0  0  0
 59 73  1  0  0  0  0
 60 74  1  0  0  0  0
 61 83  1  0  0  0  0
 62 64  1  0  0  0  0
 62 72  1  0  0  0  0
 63 75  1  0  0  0  0
 65 66  1  0  0  0  0
M  CHG  1  75   1
M  ISO  4  39 100  61 101  73 100  83 101
M  END
> <Batch ID>
0044

> <Smiles>
CNC(C)C(=O)NC(C(=O)N1Cc2cc([101O:1][101CH2:1]C(=O)N(C)Cc3c(C)cc(C[100NH:0][100C:0](=O)N4CCCC(n5nc(-c6ccc(Oc7ccc(F)cc7F)cc6)c(C(N)=O)c5N)C4)cc3Cl)ccc2CC1C(=O)NC1CCCc2ccccc21)C(C)(C)C

> <Shape>
0.233

> <Color>
0.065

> <Negative vol penalty>
0.000

$$$$

  -OEChem-04042322183D

 84 92  0     1  0  0  0  0  0999 V2000
  -32.5587  -26.1889   17.4526 C   0  0  0  0  0  0  0  0  0  0  0  0
  -31.2560  -25.9176   17.8586 C   0  0  0  0  0  0  0  0  0  0  0  0
  -24.6041   -9.2776   22.0285 C   0  0  0  0  0  0  0  0  0  0  0  0
  -23.0011  -10.4132   20.6221 C   0  0  0  0  0  0  0  0  0  0  0  0
  -33.3758  -27.0042   18.2347 C   0  0  0  0  0  0  0  0  0  0  0  0
  -30.7701  -26.4605   19.0475 C   0  0  0  0  0  0  0  0  0  0  0  0
  -26.1058  -28.3685   18.5483 C   0  0  0  0  0  0  0  0  0  0  0  0
  -23.9601  -20.7260   20.2415 C   0  0  0  0  0  0  0  0  0  0  0  0
  -24.8773  -19.6997   20.4670 C   0  0  0  0  0  0  0  0  0  0  0  0
  -23.5754   -8.5221   22.5911 C   0  0  0  0  0  0  0  0  0  0  0  0
  -21.9723   -9.6576   21.1846 C   0  0  0  0  0  0  0  0  0  0  0  0
  -25.0455  -27.4633   18.5367 C   0  0  0  0  0  0  0  0  0  0  0  0
  -21.7229   -5.8208   21.7519 C   0  0  0  0  0  0  0  0  0  0  0  0
  -21.9333   -4.4503   21.9031 C   0  0  0  0  0  0  0  0  0  0  0  0
  -24.6017  -27.9627   20.8546 C   0  0  0  0  0  0  0  0  0  0  0  0
  -23.7288  -18.3182   18.8516 C   0  0  0  0  0  0  0  0  0  0  0  0
  -21.6275   -4.6668   24.2899 C   0  0  0  0  0  0  0  0  0  0  0  0
  -24.3170  -10.2232   21.0440 C   0  0  0  0  0  0  0  0  0  0  0  0
  -26.1474  -10.6834   19.3278 C   0  0  0  0  0  0  0  0  0  0  0  0
  -32.8965  -27.5652   19.4289 C   0  0  0  0  0  0  0  0  0  0  0  0
  -26.4294  -29.0707   19.7182 C   0  0  0  0  0  0  0  0  0  0  0  0
  -31.5820  -27.2829   19.8470 C   0  0  0  0  0  0  0  0  0  0  0  0
  -25.6650  -28.8781   20.8778 C   0  0  0  0  0  0  0  0  0  0  0  0
  -22.9271  -20.5485   19.3211 C   0  0  0  0  0  0  0  0  0  0  0  0
  -24.7617  -18.4958   19.7721 C   0  0  0  0  0  0  0  0  0  0  0  0
  -22.2595   -8.7121   22.1691 C   0  0  0  0  0  0  0  0  0  0  0  0
  -24.2950  -27.2581   19.6907 C   0  0  0  0  0  0  0  0  0  0  0  0
  -21.4649   -6.6144   22.8696 C   0  0  0  0  0  0  0  0  0  0  0  0
  -21.8856   -3.8732   23.1722 C   0  0  0  0  0  0  0  0  0  0  0  0
  -21.4171   -6.0374   24.1386 C   0  0  0  0  0  0  0  0  0  0  0  0
  -22.8115  -19.3446   18.6262 C   0  0  0  0  0  0  0  0  0  0  0  0
  -25.3791  -11.0044   20.4629 C   0  0  0  0  0  0  0  0  0  0  0  0
  -27.0147  -11.7394   19.1903 C   0  0  0  0  0  0  0  0  0  0  0  0
  -26.0827   -9.5334   18.4738 C   0  0  0  0  0  0  0  0  0  0  0  0
  -28.9773  -29.2192   21.6130 C   0  0  0  0  0  0  0  0  0  0  0  0
  -27.2778  -31.5715   23.0625 C   0  0  0  0  0  0  0  0  0  0  0  0
  -22.6236  -24.0762   19.3780 C   0  0  0  0  0  0  0  0  0  0  0  0
  -24.2302  -32.9590   23.7213 C   0  0  0  0  0  0  0  0  0  0  0  0
  -26.7752  -17.4655   20.8815 C   0  0  0  0  0  0  0  0  0  0  0  0
  -33.8324  -28.4020   20.2647 C   0  0  0  0  0  0  0  0  0  0  0  0
  -27.5594  -30.0633   19.7069 C   0  0  0  0  0  0  0  0  0  0  0  0
  -25.9587  -29.6221   22.1540 C   0  0  0  0  0  0  0  0  0  0  0  0
  -33.1192  -29.2421   21.3211 C   0  0  0  0  0  0  0  0  0  0  0  0
  -29.2751  -15.0880   21.7618 C   0  0  0  0  0  0  0  0  0  0  0  0
  -32.0919  -28.3989   22.0696 C   0  0  0  0  0  0  0  0  0  0  0  0
  -28.6319  -13.7421   21.4196 C   0  0  0  0  0  0  0  0  0  0  0  0
  -28.2545  -16.0791   22.3183 C   0  0  0  0  0  0  0  0  0  0  0  0
  -26.4195  -14.9314   21.1416 C   0  0  0  0  0  0  0  0  0  0  0  0
  -31.0106  -27.8734   21.1177 C   0  0  1  0  0  0  0  0  0  0  0  0
  -28.1234  -30.3426   21.0967 C   0  0  1  0  0  0  0  0  0  0  0  0
  -27.3958  -13.9216   20.5166 C   0  0  2  0  0  0  0  0  0  0  0  0
  -23.1567  -34.8552   24.9660 C   0  0  0  0  0  0  0  0  0  0  0  0
  -27.6817  -30.0727   25.6894 C   0  0  0  0  0  0  0  0  0  0  0  0
  -25.8419  -31.4527   26.6789 C   0  0  0  0  0  0  0  0  0  0  0  0
  -27.9228  -32.5563   25.8575 C   0  0  0  0  0  0  0  0  0  0  0  0
  -23.3082  -22.7706   17.3584 C   0  0  0  0  0  0  0  0  0  0  0  0
  -23.1211  -34.1168   21.2338 C   0  0  0  0  0  0  0  0  0  0  0  0
  -21.9610  -21.6777   19.1073 C   0  0  0  0  0  0  0  0  0  0  0  0
  -23.3630  -25.2620   18.7949 C   0  0  0  0  0  0  0  0  0  1  0  0
  -26.2704  -31.6260   24.1854 C   0  0  1  0  0  0  0  0  0  0  0  0
  -23.7369  -34.3922   23.6387 C   0  0  2  0  0  0  0  0  0  0  0  0
  -26.9246  -31.4113   25.5795 C   0  0  0  0  0  0  0  0  0  0  0  0
  -25.7279  -12.1729   21.0079 N   0  0  0  0  0  0  0  0  0  0  0  0
  -26.7248  -12.5953   20.2119 N   0  0  0  0  0  0  0  0  0  0  0  0
  -27.0775  -30.5772   22.0944 N   0  0  0  0  0  0  0  0  0  0  0  0
  -27.1136  -16.2010   21.4081 N   0  0  0  0  0  0  0  0  0  0  0  0
  -27.9896  -12.0101   18.2965 N   0  0  0  0  0  0  0  0  0  0  0  0
  -25.1328   -8.5428   18.7580 N   0  0  0  0  0  0  0  0  0  0  0  0
  -25.6930  -17.4529   20.0021 N   0  0  0  0  0  0  0  0  0  0  0  0
  -30.0590  -28.9187   20.8074 N   0  0  0  0  0  0  0  0  0  0  0  0
  -25.5695  -32.8976   24.0437 N   0  0  0  0  0  0  0  0  0  0  0  0
  -22.6311  -22.8899   18.6437 N   0  0  0  0  0  0  0  0  0  0  0  0
  -22.6805  -34.5170   22.5949 N   0  3  0  0  0  0  0  0  0  0  0  0
  -26.8556   -9.3809   17.4977 O   0  0  0  0  0  0  0  0  0  0  0  0
  -28.6778  -28.6670   22.6652 O   0  0  0  0  0  0  0  0  0  0  0  0
  -28.2041  -32.3858   23.0410 O   0  0  0  0  0  0  0  0  0  0  0  0
  -22.0591  -24.2070   20.4685 O   0  0  0  0  0  0  0  0  0  0  0  0
  -23.4997  -31.9906   23.5236 O   0  0  0  0  0  0  0  0  0  0  0  0
  -27.4164  -18.4801   21.1668 O   0  0  0  0  0  0  0  0  0  0  0  0
  -21.2555   -7.9748   22.7177 O   0  0  0  0  0  0  0  0  0  0  0  0
  -23.2600  -26.3747   19.6823 O   0  0  0  0  0  0  0  0  0  1  0  0
  -22.0861   -2.5568   23.3171 F   0  0  0  0  0  0  0  0  0  0  0  0
  -21.1685   -6.7944   25.2160 F   0  0  0  0  0  0  0  0  0  0  0  0
  -21.5461  -19.0887   17.4803 Cl  0  0  0  0  0  0  0  0  0  0  0  0
  1  2  1  0  0  0  0
  1  5  2  0  0  0  0
  2  6  2  0  0  0  0
  3 10  2  0  0  0  0
  3 18  1  0  0  0  0
  4 11  1  0  0  0  0
  4 18  2  0  0  0  0
  5 20  1  0  0  0  0
  6 22  1  0  0  0  0
  7 12  2  0  0  0  0
  7 21  1  0  0  0  0
  8  9  2  0  0  0  0
  8 24  1  0  0  0  0
  9 25  1  0  0  0  0
 10 26  1  0  0  0  0
 11 26  2  0  0  0  0
 12 27  1  0  0  0  0
 13 14  2  0  0  0  0
 13 28  1  0  0  0  0
 14 29  1  0  0  0  0
 15 23  1  0  0  0  0
 15 27  2  0  0  0  0
 16 25  2  0  0  0  0
 16 31  1  0  0  0  0
 17 29  2  0  0  0  0
 17 30  1  0  0  0  0
 18 32  1  0  0  0  0
 19 32  1  0  0  0  0
 19 33  2  0  0  0  0
 19 34  1  0  0  0  0
 20 22  2  0  0  0  0
 20 40  1  0  0  0  0
 21 23  2  0  0  0  0
 21 41  1  0  0  0  0
 22 49  1  0  0  0  0
 23 42  1  0  0  0  0
 24 31  2  0  0  0  0
 24 58  1  0  0  0  0
 25 69  1  0  0  0  0
 26 80  1  0  0  0  0
 27 81  1  0  0  0  0
 28 30  2  0  0  0  0
 28 80  1  0  0  0  0
 29 82  1  0  0  0  0
 30 83  1  0  0  0  0
 31 84  1  0  0  0  0
 32 63  2  0  0  0  0
 33 64  1  0  0  0  0
 33 67  1  0  0  0  0
 34 68  1  0  0  0  0
 34 74  2  0  0  0  0
 35 50  1  0  0  0  0
 35 70  1  0  0  0  0
 35 75  2  0  0  0  0
 36 60  1  0  0  0  0
 36 65  1  0  0  0  0
 36 76  2  0  0  0  0
 37 59  1  0  0  0  0
 37 72  1  0  0  0  0
 37 77  2  0  0  0  0
 38 61  1  0  0  0  0
 38 71  1  0  0  0  0
 38 78  2  0  0  0  0
 39 66  1  0  0  0  0
 39 69  1  0  0  0  0
 39 79  2  0  0  0  0
 40 43  1  0  0  0  0
 41 50  1  0  0  0  0
 42 65  1  0  0  0  0
 43 45  1  0  0  0  0
 44 46  1  0  0  0  0
 44 47  1  0  0  0  0
 45 49  1  0  0  0  0
 46 51  1  0  0  0  0
 47 66  1  0  0  0  0
 48 51  1  0  0  0  0
 48 66  1  0  0  0  0
 49 70  1  0  0  0  0
 50 65  1  0  0  0  0
 51 64  1  0  0  0  0
 52 61  1  0  0  0  0
 53 62  1  0  0  0  0
 54 62  1  0  0  0  0
 55 62  1  0  0  0  0
 56 72  1  0  0  0  0
 57 73  1  0  0  0  0
 58 72  1  0  0  0  0
 59 81  1  0  0  0  0
 60 62  1  0  0  0  0
 60 71  1  0  0  0  0
 61 73  1  0  0  0  0
 63 64  1  0  0  0  0
M  CHG  1  73   1
M  ISO  4  39 100  59 101  69 100  81 101
M  END
> <Batch ID>
0044

> <Smiles>
CNC(C)C(=O)NC(C(=O)N1Cc2cc([101O:1][101CH2:1]C(=O)N(C)Cc3ccc([100NH:0][100C:0](=O)N4CCCC(n5nc(-c6ccc(Oc7ccc(F)cc7F)cc6)c(C(N)=O)c5N)C4)cc3Cl)ccc2CC1C(=O)NC1CCCc2ccccc21)C(C)(C)C

> <Shape>
0.267

> <Color>
0.093

> <Negative vol penalty>
0.000

$$$$

  -OEChem-04042322183D

 87 96  0     1  0  0  0  0  0999 V2000
  -16.5958  -29.4521   20.6212 C   0  0  0  0  0  0  0  0  0  0  0  0
  -17.8512  -29.7710   20.1135 C   0  0  0  0  0  0  0  0  0  0  0  0
  -22.3187  -11.1050   21.3640 C   0  0  0  0  0  0  0  0  0  0  0  0
  -23.9057  -10.7337   23.1475 C   0  0  0  0  0  0  0  0  0  0  0  0
  -16.4634  -29.0534   21.9506 C   0  0  0  0  0  0  0  0  0  0  0  0
  -18.9748  -29.6925   20.9355 C   0  0  0  0  0  0  0  0  0  0  0  0
  -24.5160  -25.4123   19.2423 C   0  0  0  0  0  0  0  0  0  0  0  0
  -29.3911  -20.1344   22.4664 C   0  0  0  0  0  0  0  0  0  0  0  0
  -21.4389  -10.2005   21.9585 C   0  0  0  0  0  0  0  0  0  0  0  0
  -23.0258   -9.8293   23.7421 C   0  0  0  0  0  0  0  0  0  0  0  0
  -25.7048  -24.7784   18.8801 C   0  0  0  0  0  0  0  0  0  0  0  0
  -19.2356  -10.1881   24.5234 C   0  0  0  0  0  0  0  0  0  0  0  0
  -17.8927  -10.5540   24.6135 C   0  0  0  0  0  0  0  0  0  0  0  0
  -29.8581  -19.1287   23.3125 C   0  0  0  0  0  0  0  0  0  0  0  0
  -26.7140  -25.4526   20.9717 C   0  0  0  0  0  0  0  0  0  0  0  0
  -17.2792   -8.6286   23.2892 C   0  0  0  0  0  0  0  0  0  0  0  0
  -23.5521  -11.3716   21.9585 C   0  0  0  0  0  0  0  0  0  0  0  0
  -24.2285  -13.6674   21.0757 C   0  0  0  0  0  0  0  0  0  0  0  0
  -17.5873  -28.9606   22.7866 C   0  0  0  0  0  0  0  0  0  0  0  0
  -24.4166  -26.0563   20.4787 C   0  0  0  0  0  0  0  0  0  0  0  0
  -18.8572  -29.2935   22.2778 C   0  0  0  0  0  0  0  0  0  0  0  0
  -25.5218  -26.0785   21.3453 C   0  0  0  0  0  0  0  0  0  0  0  0
  -30.6911  -17.9076   21.4015 C   0  0  0  0  0  0  0  0  0  0  0  0
  -29.5740  -20.0267   21.0877 C   0  0  0  0  0  0  0  0  0  0  0  0
  -21.7925   -9.5627   23.1476 C   0  0  0  0  0  0  0  0  0  0  0  0
  -26.8011  -24.7988   19.7426 C   0  0  0  0  0  0  0  0  0  0  0  0
  -19.6005   -9.0425   23.8160 C   0  0  0  0  0  0  0  0  0  0  0  0
  -16.9145   -9.7743   23.9964 C   0  0  0  0  0  0  0  0  0  0  0  0
  -18.6223   -8.2628   23.1990 C   0  0  0  0  0  0  0  0  0  0  0  0
  -30.5082  -18.0153   22.7801 C   0  0  0  0  0  0  0  0  0  0  0  0
  -30.2240  -18.9134   20.5553 C   0  0  0  0  0  0  0  0  0  0  0  0
  -24.4616  -12.3054   21.3445 C   0  0  0  0  0  0  0  0  0  0  0  0
  -25.3916  -14.1062   20.4917 C   0  0  0  0  0  0  0  0  0  0  0  0
  -29.9080  -21.8356   19.4094 C   0  0  0  0  0  0  0  0  0  0  0  0
  -31.2280  -22.0495   19.5774 C   0  0  0  0  0  0  0  0  0  0  0  0
  -23.0646  -14.4648   21.3312 C   0  0  0  0  0  0  0  0  0  0  0  0
  -22.2733  -28.0105   22.8585 C   0  0  0  0  0  0  0  0  0  0  0  0
  -23.8827  -26.0144   24.5424 C   0  0  0  0  0  0  0  0  0  0  0  0
  -25.5236  -23.3930   25.9823 C   0  0  0  0  0  0  0  0  0  0  0  0
  -30.9653  -14.3212   20.3084 C   0  0  0  0  0  0  0  0  0  0  0  0
  -17.3883  -28.5705   24.2298 C   0  0  0  0  0  0  0  0  0  0  0  0
  -23.1759  -26.8046   20.8842 C   0  0  0  0  0  0  0  0  0  0  0  0
  -25.3803  -26.8131   22.6504 C   0  0  0  0  0  0  0  0  0  0  0  0
  -29.2359  -22.5026   18.2210 C   0  0  0  0  0  0  0  0  0  0  0  0
  -18.6780  -28.1522   24.9311 C   0  0  0  0  0  0  0  0  0  0  0  0
  -29.3865  -11.5266   18.7676 C   0  0  0  0  0  0  0  0  0  0  0  0
  -19.7949  -29.1474   24.6325 C   0  0  0  0  0  0  0  0  0  0  0  0
  -27.9477  -11.5890   19.2833 C   0  0  0  0  0  0  0  0  0  0  0  0
  -27.0032  -21.9529   19.2050 C   0  0  0  0  0  0  0  0  0  0  0  0
  -30.3883  -11.9589   19.8360 C   0  0  0  0  0  0  0  0  0  0  0  0
  -27.6684  -21.4222   20.4729 C   0  0  0  0  0  0  0  0  0  0  0  0
  -28.6812  -13.3403   20.9546 C   0  0  0  0  0  0  0  0  0  0  0  0
  -20.1031  -29.1967   23.1312 C   0  0  1  0  0  0  0  0  0  0  0  0
  -22.8882  -26.7231   22.3941 C   0  0  1  0  0  0  0  0  0  0  0  0
  -27.6306  -12.9669   19.8949 C   0  0  2  0  0  0  0  0  0  0  0  0
  -27.8419  -23.0343   18.5380 C   0  0  1  0  0  0  0  0  0  1  0  0
  -25.9130  -22.2940   28.2044 C   0  0  0  0  0  0  0  0  0  0  0  0
  -25.8151  -28.2481   25.3043 C   0  0  0  0  0  0  0  0  0  0  0  0
  -26.8426  -26.6926   26.9756 C   0  0  0  0  0  0  0  0  0  0  0  0
  -24.4490  -27.3581   27.2006 C   0  0  0  0  0  0  0  0  0  0  0  0
  -24.3085  -20.8534   25.0697 C   0  0  0  0  0  0  0  0  0  0  0  0
  -31.3903  -16.7089   20.8350 C   0  0  0  0  0  0  0  0  0  0  0  0
  -25.1237  -25.7611   25.3604 C   0  0  1  0  0  0  0  0  0  0  0  0
  -25.0557  -22.3198   26.9485 C   0  0  2  0  0  0  0  0  0  0  0  0
  -25.5562  -27.0078   26.1827 C   0  0  0  0  0  0  0  0  0  0  0  0
  -25.6773  -11.9051   20.9625 N   0  0  0  0  0  0  0  0  0  0  0  0
  -26.2184  -13.0224   20.4476 N   0  0  0  0  0  0  0  0  0  0  0  0
  -29.0840  -21.0727   20.2539 N   0  0  0  0  0  0  0  0  0  0  0  0
  -24.0691  -26.5224   23.2510 N   0  0  0  0  0  0  0  0  0  0  0  0
  -30.0316  -13.2738   20.3741 N   0  0  0  0  0  0  0  0  0  0  0  0
  -25.7776  -15.3094   20.0167 N   0  0  0  0  0  0  0  0  0  0  0  0
  -22.9682  -15.1317   22.5601 N   0  0  0  0  0  0  0  0  0  0  0  0
  -20.8971  -28.0515   22.7404 N   0  0  0  0  0  0  0  0  0  0  0  0
  -24.8455  -24.5791   26.1689 N   0  0  0  0  0  0  0  0  0  0  0  0
  -30.5445  -15.5361   20.8354 N   0  0  0  0  0  0  0  0  0  0  0  0
  -25.1247  -20.9775   26.3048 N   0  3  0  0  0  0  0  0  0  0  0  0
  -22.1300  -14.5692   20.5011 O   0  0  0  0  0  0  0  0  0  0  0  0
  -22.9933  -28.9016   23.2936 O   0  0  0  0  0  0  0  0  0  0  0  0
  -22.7766  -25.7747   25.0347 O   0  0  0  0  0  0  0  0  0  0  0  0
  -26.4052  -23.1998   25.1480 O   0  0  0  0  0  0  0  0  0  0  0  0
  -32.0886  -14.1851   19.8118 O   0  0  0  0  0  0  0  0  0  0  0  0
  -20.9341   -8.6802   23.7281 O   0  0  0  0  0  0  0  0  0  0  0  0
  -27.9572  -24.1742   19.3847 O   0  0  0  0  0  0  0  0  0  1  0  0
  -15.6247  -10.1249   24.0844 F   0  0  0  0  0  0  0  0  0  0  0  0
  -18.9665   -7.1605   22.5191 F   0  0  0  0  0  0  0  0  0  0  0  0
  -31.0698  -16.7948   23.8650 Cl  0  0  0  0  0  0  0  0  0  0  0  0
  -30.4512  -18.7805   18.8407 Cl  0  0  0  0  0  0  0  0  0  0  0  0
  1  2  1  0  0  0  0
  1  5  2  0  0  0  0
  2  6  2  0  0  0  0
  3  9  2  0  0  0  0
  3 17  1  0  0  0  0
  4 10  1  0  0  0  0
  4 17  2  0  0  0  0
  5 19  1  0  0  0  0
  6 21  1  0  0  0  0
  7 11  2  0  0  0  0
  7 20  1  0  0  0  0
  8 14  2  0  0  0  0
  8 24  1  0  0  0  0
  9 25  1  0  0  0  0
 10 25  2  0  0  0  0
 11 26  1  0  0  0  0
 12 13  2  0  0  0  0
 12 27  1  0  0  0  0
 13 28  1  0  0  0  0
 14 30  1  0  0  0  0
 15 22  1  0  0  0  0
 15 26  2  0  0  0  0
 16 28  2  0  0  0  0
 16 29  1  0  0  0  0
 17 32  1  0  0  0  0
 18 32  1  0  0  0  0
 18 33  2  0  0  0  0
 18 36  1  0  0  0  0
 19 21  2  0  0  0  0
 19 41  1  0  0  0  0
 20 22  2  0  0  0  0
 20 42  1  0  0  0  0
 21 53  1  0  0  0  0
 22 43  1  0  0  0  0
 23 30  2  0  0  0  0
 23 31  1  0  0  0  0
 23 62  1  0  0  0  0
 24 31  2  0  0  0  0
 24 68  1  0  0  0  0
 25 82  1  0  0  0  0
 26 83  1  0  0  0  0
 27 29  2  0  0  0  0
 27 82  1  0  0  0  0
 28 84  1  0  0  0  0
 29 85  1  0  0  0  0
 30 86  1  0  0  0  0
 31 87  1  0  0  0  0
 32 66  2  0  0  0  0
 33 67  1  0  0  0  0
 33 71  1  0  0  0  0
 34 35  2  0  0  0  0
 34 44  1  0  0  0  0
 34 68  1  0  0  0  0
 36 72  1  0  0  0  0
 36 77  2  0  0  0  0
 37 54  1  0  0  0  0
 37 73  1  0  0  0  0
 37 78  2  0  0  0  0
 38 63  1  0  0  0  0
 38 69  1  0  0  0  0
 38 79  2  0  0  0  0
 39 64  1  0  0  0  0
 39 74  1  0  0  0  0
 39 80  2  0  0  0  0
 40 70  1  0  0  0  0
 40 75  1  0  0  0  0
 40 81  2  0  0  0  0
 41 45  1  0  0  0  0
 42 54  1  0  0  0  0
 43 69  1  0  0  0  0
 44 56  1  0  0  0  0
 45 47  1  0  0  0  0
 46 48  1  0  0  0  0
 46 50  1  0  0  0  0
 47 53  1  0  0  0  0
 48 55  1  0  0  0  0
 49 51  1  0  0  0  0
 49 56  1  0  0  0  0
 50 70  1  0  0  0  0
 51 68  1  0  0  0  0
 52 55  1  0  0  0  0
 52 70  1  0  0  0  0
 53 73  1  0  0  0  0
 54 69  1  0  0  0  0
 55 67  1  0  0  0  0
 56 83  1  0  0  0  0
 57 64  1  0  0  0  0
 58 65  1  0  0  0  0
 59 65  1  0  0  0  0
 60 65  1  0  0  0  0
 61 76  1  0  0  0  0
 62 75  1  0  0  0  0
 63 65  1  0  0  0  0
 63 74  1  0  0  0  0
 64 76  1  0  0  0  0
 66 67  1  0  0  0  0
M  CHG  1  76   1
M  ISO  4  40 100  56 101  75 100  83 101
M  END
> <Batch ID>
0044

> <Smiles>
C=C1C[101CH:1]([101O:1]c2ccc3c(c2)CN(C(=O)C(NC(=O)C(C)NC)C(C)(C)C)C(C(=O)NC2CCCc4ccccc42)C3)CCN1c1ccc(Cl)c(C[100NH:0][100C:0](=O)N2CCCC(n3nc(-c4ccc(Oc5ccc(F)cc5F)cc4)c(C(N)=O)c3N)C2)c1Cl

> <Shape>
0.224

> <Color>
0.145

> <Negative vol penalty>
0.000

$$$$

  -OEChem-04042322183D

 84 92  0     1  0  0  0  0  0999 V2000
  -27.6170  -33.1892   24.7411 C   0  0  0  0  0  0  0  0  0  0  0  0
  -27.9256  -31.8611   24.4649 C   0  0  0  0  0  0  0  0  0  0  0  0
  -32.6581  -17.4365   23.4278 C   0  0  0  0  0  0  0  0  0  0  0  0
  -22.9992   -9.8913   19.9853 C   0  0  0  0  0  0  0  0  0  0  0  0
  -23.7153   -9.9571   22.2918 C   0  0  0  0  0  0  0  0  0  0  0  0
  -26.4172  -33.5074   25.3760 C   0  0  0  0  0  0  0  0  0  0  0  0
  -27.0349  -30.8502   24.8246 C   0  0  0  0  0  0  0  0  0  0  0  0
  -25.9518  -25.6448   21.7855 C   0  0  0  0  0  0  0  0  0  0  0  0
  -31.8797  -18.3478   24.1415 C   0  0  0  0  0  0  0  0  0  0  0  0
  -32.0521  -16.5428   22.5448 C   0  0  0  0  0  0  0  0  0  0  0  0
  -22.2308   -8.7591   20.2562 C   0  0  0  0  0  0  0  0  0  0  0  0
  -22.9469   -8.8249   22.5627 C   0  0  0  0  0  0  0  0  0  0  0  0
  -26.4222  -24.3435   21.9565 C   0  0  0  0  0  0  0  0  0  0  0  0
  -23.1909   -5.4827   22.1139 C   0  0  0  0  0  0  0  0  0  0  0  0
  -23.7748   -4.4702   22.8751 C   0  0  0  0  0  0  0  0  0  0  0  0
  -24.4434  -23.8015   23.2252 C   0  0  0  0  0  0  0  0  0  0  0  0
  -22.0445   -4.7253   24.5418 C   0  0  0  0  0  0  0  0  0  0  0  0
  -23.7414  -10.4903   21.0032 C   0  0  0  0  0  0  0  0  0  0  0  0
  -24.1291  -13.0044   20.8120 C   0  0  0  0  0  0  0  0  0  0  0  0
  -25.5070  -32.5008   25.7350 C   0  0  0  0  0  0  0  0  0  0  0  0
  -24.7267  -26.0379   22.3433 C   0  0  0  0  0  0  0  0  0  0  0  0
  -25.8224  -31.1552   25.4661 C   0  0  0  0  0  0  0  0  0  0  0  0
  -23.9585  -25.1076   23.0577 C   0  0  0  0  0  0  0  0  0  0  0  0
  -30.4952  -18.3652   23.9723 C   0  0  0  0  0  0  0  0  0  0  0  0
  -29.8892  -17.4714   23.0893 C   0  0  0  0  0  0  0  0  0  0  0  0
  -30.6676  -16.5602   22.3756 C   0  0  0  0  0  0  0  0  0  0  0  0
  -22.2047   -8.2259   21.5448 C   0  0  0  0  0  0  0  0  0  0  0  0
  -25.6693  -23.4224   22.6789 C   0  0  0  0  0  0  0  0  0  0  0  0
  -22.0338   -6.1167   22.5667 C   0  0  0  0  0  0  0  0  0  0  0  0
  -23.2016   -4.0914   24.0890 C   0  0  0  0  0  0  0  0  0  0  0  0
  -21.4606   -5.7379   23.7807 C   0  0  0  0  0  0  0  0  0  0  0  0
  -24.5358  -11.6595   20.7239 C   0  0  0  0  0  0  0  0  0  0  0  0
  -25.2408  -13.7238   20.4472 C   0  0  0  0  0  0  0  0  0  0  0  0
  -22.8600  -13.5542   21.1899 C   0  0  0  0  0  0  0  0  0  0  0  0
  -23.8333  -28.1948   24.5004 C   0  0  0  0  0  0  0  0  0  0  0  0
  -20.8520  -27.2661   23.6221 C   0  0  0  0  0  0  0  0  0  0  0  0
  -27.8810  -20.7862   23.7629 C   0  0  0  0  0  0  0  0  0  0  0  0
  -18.8470  -24.8527   22.2797 C   0  0  0  0  0  0  0  0  0  0  0  0
  -30.7199  -14.6830   20.6964 C   0  0  0  0  0  0  0  0  0  0  0  0
  -24.2442  -32.8895   26.4621 C   0  0  0  0  0  0  0  0  0  0  0  0
  -24.2208  -27.4378   22.1270 C   0  0  0  0  0  0  0  0  0  0  0  0
  -22.6272  -25.4737   23.6593 C   0  0  0  0  0  0  0  0  0  0  0  0
  -23.1849  -31.7904   26.4734 C   0  0  0  0  0  0  0  0  0  0  0  0
  -29.6092  -12.2154   18.3824 C   0  0  0  0  0  0  0  0  0  0  0  0
  -23.8107  -30.4498   26.8449 C   0  0  0  0  0  0  0  0  0  0  0  0
  -28.1568  -11.9615   18.7925 C   0  0  0  0  0  0  0  0  0  0  0  0
  -30.5051  -12.4663   19.5941 C   0  0  0  0  0  0  0  0  0  0  0  0
  -28.5850  -13.2652   20.9148 C   0  0  0  0  0  0  0  0  0  0  0  0
  -24.8708  -30.0325   25.8185 C   0  0  1  0  0  0  0  0  0  0  0  0
  -23.2017  -27.8734   23.1755 C   0  0  1  0  0  0  0  0  0  0  0  0
  -27.6319  -13.0716   19.7241 C   0  0  2  0  0  0  0  0  0  0  0  0
  -28.4034  -17.4940   22.9110 C   0  0  0  0  0  0  0  0  0  0  0  0
  -16.4477  -24.3681   21.7264 C   0  0  0  0  0  0  0  0  0  0  0  0
  -20.2765  -26.7563   26.5749 C   0  0  0  0  0  0  0  0  0  0  0  0
  -18.2803  -25.4133   25.8822 C   0  0  0  0  0  0  0  0  0  0  0  0
  -18.4049  -27.8403   25.3193 C   0  0  0  0  0  0  0  0  0  0  0  0
  -30.2925  -21.2245   23.2681 C   0  0  0  0  0  0  0  0  0  0  0  0
  -19.4482  -24.5703   19.3956 C   0  0  0  0  0  0  0  0  0  0  0  0
  -29.6811  -19.3562   24.7528 C   0  0  0  0  0  0  0  0  0  0  0  0
  -27.5413  -21.9697   22.8816 C   0  0  0  0  0  0  0  0  0  1  0  0
  -19.8837  -26.2038   24.0836 C   0  0  1  0  0  0  0  0  0  0  0  0
  -17.7695  -24.9172   21.2123 C   0  0  2  0  0  0  0  0  0  0  0  0
  -19.2373  -26.5468   25.4554 C   0  0  0  0  0  0  0  0  0  0  0  0
  -25.8065  -11.5296   20.3336 N   0  0  0  0  0  0  0  0  0  0  0  0
  -26.2079  -12.8021   20.1731 N   0  0  0  0  0  0  0  0  0  0  0  0
  -22.1784  -26.8563   23.4258 N   0  0  0  0  0  0  0  0  0  0  0  0
  -29.9474  -13.5332   20.4281 N   0  0  0  0  0  0  0  0  0  0  0  0
  -25.4755  -15.0487   20.3373 N   0  0  0  0  0  0  0  0  0  0  0  0
  -21.8263  -12.6730   21.5352 N   0  0  0  0  0  0  0  0  0  0  0  0
  -30.0732  -15.6438   21.4731 N   0  0  0  0  0  0  0  0  0  0  0  0
  -24.2407  -29.5093   24.6253 N   0  0  0  0  0  0  0  0  0  0  0  0
  -18.9245  -26.0267   22.9987 N   0  0  0  0  0  0  0  0  0  0  0  0
  -29.2304  -20.4691   23.9210 N   0  0  0  0  0  0  0  0  0  0  0  0
  -18.1753  -24.1236   20.0180 N   0  3  0  0  0  0  0  0  0  0  0  0
  -22.6440  -14.7897   21.2046 O   0  0  0  0  0  0  0  0  0  0  0  0
  -23.9417  -27.3157   25.3472 O   0  0  0  0  0  0  0  0  0  0  0  0
  -20.4449  -28.4155   23.4355 O   0  0  0  0  0  0  0  0  0  0  0  0
  -26.9602  -20.1651   24.3027 O   0  0  0  0  0  0  0  0  0  0  0  0
  -19.5471  -23.8588   22.4602 O   0  0  0  0  0  0  0  0  0  0  0  0
  -31.8604  -14.8182   20.2460 O   0  0  0  0  0  0  0  0  0  0  0  0
  -21.4549   -7.1212   21.8095 O   0  0  0  0  0  0  0  0  0  0  0  0
  -26.1264  -22.1519   22.8479 O   0  0  0  0  0  0  0  0  0  1  0  0
  -23.7615   -3.1180   24.8191 F   0  0  0  0  0  0  0  0  0  0  0  0
  -20.3483   -6.3424   24.2203 F   0  0  0  0  0  0  0  0  0  0  0  0
  1  2  1  0  0  0  0
  1  6  2  0  0  0  0
  2  7  2  0  0  0  0
  3  9  2  0  0  0  0
  3 10  1  0  0  0  0
  4 11  2  0  0  0  0
  4 18  1  0  0  0  0
  5 12  1  0  0  0  0
  5 18  2  0  0  0  0
  6 20  1  0  0  0  0
  7 22  1  0  0  0  0
  8 13  2  0  0  0  0
  8 21  1  0  0  0  0
  9 24  1  0  0  0  0
 10 26  2  0  0  0  0
 11 27  1  0  0  0  0
 12 27  2  0  0  0  0
 13 28  1  0  0  0  0
 14 15  2  0  0  0  0
 14 29  1  0  0  0  0
 15 30  1  0  0  0  0
 16 23  1  0  0  0  0
 16 28  2  0  0  0  0
 17 30  2  0  0  0  0
 17 31  1  0  0  0  0
 18 32  1  0  0  0  0
 19 32  1  0  0  0  0
 19 33  2  0  0  0  0
 19 34  1  0  0  0  0
 20 22  2  0  0  0  0
 20 40  1  0  0  0  0
 21 23  2  0  0  0  0
 21 41  1  0  0  0  0
 22 49  1  0  0  0  0
 23 42  1  0  0  0  0
 24 25  2  0  0  0  0
 24 59  1  0  0  0  0
 25 26  1  0  0  0  0
 25 52  1  0  0  0  0
 26 70  1  0  0  0  0
 27 81  1  0  0  0  0
 28 82  1  0  0  0  0
 29 31  2  0  0  0  0
 29 81  1  0  0  0  0
 30 83  1  0  0  0  0
 31 84  1  0  0  0  0
 32 64  2  0  0  0  0
 33 65  1  0  0  0  0
 33 68  1  0  0  0  0
 34 69  1  0  0  0  0
 34 75  2  0  0  0  0
 35 50  1  0  0  0  0
 35 71  1  0  0  0  0
 35 76  2  0  0  0  0
 36 61  1  0  0  0  0
 36 66  1  0  0  0  0
 36 77  2  0  0  0  0
 37 60  1  0  0  0  0
 37 73  1  0  0  0  0
 37 78  2  0  0  0  0
 38 62  1  0  0  0  0
 38 72  1  0  0  0  0
 38 79  2  0  0  0  0
 39 67  1  0  0  0  0
 39 70  1  0  0  0  0
 39 80  2  0  0  0  0
 40 43  1  0  0  0  0
 41 50  1  0  0  0  0
 42 66  1  0  0  0  0
 43 45  1  0  0  0  0
 44 46  1  0  0  0  0
 44 47  1  0  0  0  0
 45 49  1  0  0  0  0
 46 51  1  0  0  0  0
 47 67  1  0  0  0  0
 48 51  1  0  0  0  0
 48 67  1  0  0  0  0
 49 71  1  0  0  0  0
 50 66  1  0  0  0  0
 51 65  1  0  0  0  0
 53 62  1  0  0  0  0
 54 63  1  0  0  0  0
 55 63  1  0  0  0  0
 56 63  1  0  0  0  0
 57 73  1  0  0  0  0
 58 74  1  0  0  0  0
 59 73  1  0  0  0  0
 60 82  1  0  0  0  0
 61 63  1  0  0  0  0
 61 72  1  0  0  0  0
 62 74  1  0  0  0  0
 64 65  1  0  0  0  0
M  CHG  1  74   1
M  ISO  4  39 100  60 101  70 100  82 101
M  END
> <Batch ID>
0044

> <Smiles>
CNC(C)C(=O)NC(C(=O)N1Cc2cc([101O:1][101CH2:1]C(=O)N(C)Cc3cccc([100NH:0][100C:0](=O)N4CCCC(n5nc(-c6ccc(Oc7ccc(F)cc7F)cc6)c(C(N)=O)c5N)C4)c3C)ccc2CC1C(=O)NC1CCCc2ccccc21)C(C)(C)C

> <Shape>
0.278

> <Color>
0.202

> <Negative vol penalty>
0.000

$$$$

  -OEChem-04042322183D

 84 92  0     1  0  0  0  0  0999 V2000
  -32.5109  -19.4785   25.9471 C   0  0  0  0  0  0  0  0  0  0  0  0
  -31.2913  -20.0870   26.2262 C   0  0  0  0  0  0  0  0  0  0  0  0
  -29.0425  -26.1264   20.5422 C   0  0  0  0  0  0  0  0  0  0  0  0
  -27.2390  -26.1241   18.9345 C   0  0  0  0  0  0  0  0  0  0  0  0
  -32.7091  -18.8475   24.7197 C   0  0  0  0  0  0  0  0  0  0  0  0
  -30.2696  -20.0657   25.2774 C   0  0  0  0  0  0  0  0  0  0  0  0
  -23.1285  -19.8184   24.7680 C   0  0  0  0  0  0  0  0  0  0  0  0
  -29.4409  -24.8660   20.0970 C   0  0  0  0  0  0  0  0  0  0  0  0
  -27.6375  -24.8637   18.4893 C   0  0  0  0  0  0  0  0  0  0  0  0
  -22.0680  -20.4907   24.1621 C   0  0  0  0  0  0  0  0  0  0  0  0
  -27.3359  -21.6528   19.5043 C   0  0  0  0  0  0  0  0  0  0  0  0
  -26.3444  -20.6917   19.3073 C   0  0  0  0  0  0  0  0  0  0  0  0
  -22.4967  -19.3025   22.1070 C   0  0  0  0  0  0  0  0  0  0  0  0
  -19.5164  -27.7040   21.7011 C   0  0  0  0  0  0  0  0  0  0  0  0
  -17.6185  -26.7264   22.8322 C   0  0  0  0  0  0  0  0  0  0  0  0
  -18.2444  -29.0163   23.2814 C   0  0  0  0  0  0  0  0  0  0  0  0
  -26.9665  -20.5272   16.9786 C   0  0  0  0  0  0  0  0  0  0  0  0
  -27.9415  -26.7555   19.9610 C   0  0  0  0  0  0  0  0  0  0  0  0
  -27.9601  -29.3063   19.9351 C   0  0  0  0  0  0  0  0  0  0  0  0
  -31.6860  -18.8102   23.7593 C   0  0  0  0  0  0  0  0  0  0  0  0
  -23.8892  -18.8895   24.0436 C   0  0  0  0  0  0  0  0  0  0  0  0
  -30.4548  -19.4348   24.0355 C   0  0  0  0  0  0  0  0  0  0  0  0
  -23.5647  -18.6178   22.7068 C   0  0  0  0  0  0  0  0  0  0  0  0
  -18.6751  -26.6149   21.9284 C   0  0  0  0  0  0  0  0  0  0  0  0
  -19.3011  -28.9048   22.3777 C   0  0  0  0  0  0  0  0  0  0  0  0
  -28.7385  -24.2346   19.0706 C   0  0  0  0  0  0  0  0  0  0  0  0
  -21.7538  -20.2349   22.8306 C   0  0  0  0  0  0  0  0  0  0  0  0
  -28.1427  -22.0511   18.4384 C   0  0  0  0  0  0  0  0  0  0  0  0
  -26.1597  -20.1289   18.0445 C   0  0  0  0  0  0  0  0  0  0  0  0
  -27.9580  -21.4883   17.1756 C   0  0  0  0  0  0  0  0  0  0  0  0
  -17.4032  -27.9272   23.5087 C   0  0  0  0  0  0  0  0  0  0  0  0
  -27.5290  -28.0572   20.4208 C   0  0  0  0  0  0  0  0  0  0  0  0
  -27.2790  -30.2243   20.6966 C   0  0  0  0  0  0  0  0  0  0  0  0
  -28.8926  -29.6095   18.8892 C   0  0  0  0  0  0  0  0  0  0  0  0
  -26.9411  -18.6753   23.1812 C   0  0  0  0  0  0  0  0  0  0  0  0
  -26.0279  -15.7542   22.1062 C   0  0  0  0  0  0  0  0  0  0  0  0
  -19.8143  -23.0443   21.6083 C   0  0  0  0  0  0  0  0  0  0  0  0
  -23.5096  -13.7256   21.0153 C   0  0  0  0  0  0  0  0  0  0  0  0
  -22.1120  -29.9896   23.7130 C   0  0  0  0  0  0  0  0  0  0  0  0
  -31.9633  -18.1572   22.4283 C   0  0  0  0  0  0  0  0  0  0  0  0
  -25.0131  -18.1531   24.7194 C   0  0  0  0  0  0  0  0  0  0  0  0
  -24.3377  -17.6149   21.8912 C   0  0  0  0  0  0  0  0  0  0  0  0
  -30.7018  -17.8544   21.6238 C   0  0  0  0  0  0  0  0  0  0  0  0
  -25.3242  -30.7841   25.0274 C   0  0  0  0  0  0  0  0  0  0  0  0
  -29.7687  -19.0612   21.6199 C   0  0  0  0  0  0  0  0  0  0  0  0
  -26.2924  -30.2880   23.9520 C   0  0  0  0  0  0  0  0  0  0  0  0
  -24.1143  -29.8626   25.1660 C   0  0  0  0  0  0  0  0  0  0  0  0
  -24.3568  -29.1040   22.8337 C   0  0  0  0  0  0  0  0  0  0  0  0
  -29.3137  -19.4114   23.0418 C   0  0  1  0  0  0  0  0  0  0  0  0
  -26.0445  -17.6056   23.7376 C   0  0  1  0  0  0  0  0  0  0  0  0
  -25.5653  -30.0311   22.6184 C   0  0  2  0  0  0  0  0  0  0  0  0
  -23.0771  -11.4020   20.1721 C   0  0  0  0  0  0  0  0  0  0  0  0
  -27.2119  -16.5183   19.3999 C   0  0  0  0  0  0  0  0  0  0  0  0
  -25.9371  -14.6182   18.3839 C   0  0  0  0  0  0  0  0  0  0  0  0
  -27.6756  -14.1672   20.1150 C   0  0  0  0  0  0  0  0  0  0  0  0
  -21.6903  -13.1214   23.2700 C   0  0  0  0  0  0  0  0  0  0  0  0
  -18.9065  -25.3233   21.1988 C   0  0  0  0  0  0  0  0  0  0  0  0
  -20.2003  -30.0692   22.1325 C   0  0  0  0  0  0  0  0  0  0  0  0
  -20.4262  -22.2044   22.7091 C   0  0  0  0  0  0  0  0  0  1  0  0
  -25.4815  -15.2164   20.8057 C   0  0  1  0  0  0  0  0  0  0  0  0
  -23.1234  -12.3071   21.3934 C   0  0  2  0  0  0  0  0  0  0  0  0
  -26.5630  -15.1504   19.6907 C   0  0  0  0  0  0  0  0  0  0  0  0
  -26.6429  -28.1680   21.4140 N   0  0  0  0  0  0  0  0  0  0  0  0
  -26.5116  -29.4977   21.5587 N   0  0  0  0  0  0  0  0  0  0  0  0
  -25.4316  -16.9252   22.5949 N   0  0  0  0  0  0  0  0  0  0  0  0
  -23.4691  -29.6612   23.8663 N   0  0  0  0  0  0  0  0  0  0  0  0
  -27.2678  -31.5742   20.7062 N   0  0  0  0  0  0  0  0  0  0  0  0
  -29.5019  -28.5467   18.2084 N   0  0  0  0  0  0  0  0  0  0  0  0
  -28.2787  -18.4999   23.4802 N   0  0  0  0  0  0  0  0  0  0  0  0
  -19.5035  -24.3207   22.0505 N   0  0  0  0  0  0  0  0  0  0  0  0
  -24.8691  -13.9303   21.1211 N   0  0  0  0  0  0  0  0  0  0  0  0
  -21.5803  -29.7739   22.4475 N   0  0  0  0  0  0  0  0  0  0  0  0
  -21.7816  -12.2908   22.0416 N   0  3  0  0  0  0  0  0  0  0  0  0
  -29.1896  -30.7881   18.5789 O   0  0  0  0  0  0  0  0  0  0  0  0
  -26.4555  -19.5911   22.5276 O   0  0  0  0  0  0  0  0  0  0  0  0
  -26.9450  -15.1533   22.6713 O   0  0  0  0  0  0  0  0  0  0  0  0
  -19.6276  -22.6170   20.4723 O   0  0  0  0  0  0  0  0  0  0  0  0
  -22.6879  -14.5669   20.6579 O   0  0  0  0  0  0  0  0  0  0  0  0
  -21.4266  -30.4466   24.6340 O   0  0  0  0  0  0  0  0  0  0  0  0
  -29.1272  -23.0048   18.6358 O   0  0  0  0  0  0  0  0  0  0  0  0
  -20.7195  -20.8902   22.2366 O   0  0  0  0  0  0  0  0  0  1  0  0
  -25.2085  -19.2049   17.8558 F   0  0  0  0  0  0  0  0  0  0  0  0
  -28.7308  -21.8661   16.1480 F   0  0  0  0  0  0  0  0  0  0  0  0
  -16.1002  -28.0644   24.6248 Cl  0  0  0  0  0  0  0  0  0  0  0  0
  1  2  1  0  0  0  0
  1  5  2  0  0  0  0
  2  6  2  0  0  0  0
  3  8  2  0  0  0  0
  3 18  1  0  0  0  0
  4  9  1  0  0  0  0
  4 18  2  0  0  0  0
  5 20  1  0  0  0  0
  6 22  1  0  0  0  0
  7 10  2  0  0  0  0
  7 21  1  0  0  0  0
  8 26  1  0  0  0  0
  9 26  2  0  0  0  0
 10 27  1  0  0  0  0
 11 12  2  0  0  0  0
 11 28  1  0  0  0  0
 12 29  1  0  0  0  0
 13 23  1  0  0  0  0
 13 27  2  0  0  0  0
 14 24  2  0  0  0  0
 14 25  1  0  0  0  0
 15 24  1  0  0  0  0
 15 31  2  0  0  0  0
 16 25  2  0  0  0  0
 16 31  1  0  0  0  0
 17 29  2  0  0  0  0
 17 30  1  0  0  0  0
 18 32  1  0  0  0  0
 19 32  1  0  0  0  0
 19 33  2  0  0  0  0
 19 34  1  0  0  0  0
 20 22  2  0  0  0  0
 20 40  1  0  0  0  0
 21 23  2  0  0  0  0
 21 41  1  0  0  0  0
 22 49  1  0  0  0  0
 23 42  1  0  0  0  0
 24 57  1  0  0  0  0
 25 58  1  0  0  0  0
 26 80  1  0  0  0  0
 27 81  1  0  0  0  0
 28 30  2  0  0  0  0
 28 80  1  0  0  0  0
 29 82  1  0  0  0  0
 30 83  1  0  0  0  0
 31 84  1  0  0  0  0
 32 63  2  0  0  0  0
 33 64  1  0  0  0  0
 33 67  1  0  0  0  0
 34 68  1  0  0  0  0
 34 74  2  0  0  0  0
 35 50  1  0  0  0  0
 35 69  1  0  0  0  0
 35 75  2  0  0  0  0
 36 60  1  0  0  0  0
 36 65  1  0  0  0  0
 36 76  2  0  0  0  0
 37 59  1  0  0  0  0
 37 70  1  0  0  0  0
 37 77  2  0  0  0  0
 38 61  1  0  0  0  0
 38 71  1  0  0  0  0
 38 78  2  0  0  0  0
 39 66  1  0  0  0  0
 39 72  1  0  0  0  0
 39 79  2  0  0  0  0
 40 43  1  0  0  0  0
 41 50  1  0  0  0  0
 42 65  1  0  0  0  0
 43 45  1  0  0  0  0
 44 46  1  0  0  0  0
 44 47  1  0  0  0  0
 45 49  1  0  0  0  0
 46 51  1  0  0  0  0
 47 66  1  0  0  0  0
 48 51  1  0  0  0  0
 48 66  1  0  0  0  0
 49 69  1  0  0  0  0
 50 65  1  0  0  0  0
 51 64  1  0  0  0  0
 52 61  1  0  0  0  0
 53 62  1  0  0  0  0
 54 62  1  0  0  0  0
 55 62  1  0  0  0  0
 56 73  1  0  0  0  0
 57 70  1  0  0  0  0
 58 72  1  0  0  0  0
 59 81  1  0  0  0  0
 60 62  1  0  0  0  0
 60 71  1  0  0  0  0
 61 73  1  0  0  0  0
 63 64  1  0  0  0  0
M  CHG  1  73   1
M  ISO  4  39 100  59 101  72 100  81 101
M  END
> <Batch ID>
0044

> <Smiles>
CNC(C)C(=O)NC(C(=O)N1Cc2cc([101O:1][101CH2:1]C(=O)NCc3cc(Cl)cc(C[100NH:0][100C:0](=O)N4CCCC(n5nc(-c6ccc(Oc7ccc(F)cc7F)cc6)c(C(N)=O)c5N)C4)c3)ccc2CC1C(=O)NC1CCCc2ccccc21)C(C)(C)C

> <Shape>
0.209

> <Color>
0.077

> <Negative vol penalty>
0.000

$$$$

  -OEChem-04042322183D

 85 94  0     1  0  0  0  0  0999 V2000
  -24.8901   -8.9787   21.8184 C   0  0  0  0  0  0  0  0  0  0  0  0
  -26.2725   -9.0810   21.7002 C   0  0  0  0  0  0  0  0  0  0  0  0
  -21.0286  -23.9589   22.0685 C   0  0  0  0  0  0  0  0  0  0  0  0
  -23.2294  -23.0081   22.3680 C   0  0  0  0  0  0  0  0  0  0  0  0
  -24.0811  -10.0654   21.4890 C   0  0  0  0  0  0  0  0  0  0  0  0
  -26.8466  -10.2699   21.2514 C   0  0  0  0  0  0  0  0  0  0  0  0
  -31.0123  -17.5569   21.2507 C   0  0  0  0  0  0  0  0  0  0  0  0
  -32.3507  -28.1519   22.5700 C   0  0  0  0  0  0  0  0  0  0  0  0
  -20.4847  -22.6766   21.9945 C   0  0  0  0  0  0  0  0  0  0  0  0
  -22.6855  -21.7258   22.2940 C   0  0  0  0  0  0  0  0  0  0  0  0
  -30.7864  -18.8095   20.6817 C   0  0  0  0  0  0  0  0  0  0  0  0
  -21.6090  -19.6114   19.8854 C   0  0  0  0  0  0  0  0  0  0  0  0
  -22.2686  -18.6724   19.0926 C   0  0  0  0  0  0  0  0  0  0  0  0
  -32.9902  -26.9145   22.6434 C   0  0  0  0  0  0  0  0  0  0  0  0
  -28.4893  -18.7207   21.4127 C   0  0  0  0  0  0  0  0  0  0  0  0
  -22.5874  -17.2620   21.0281 C   0  0  0  0  0  0  0  0  0  0  0  0
  -22.4010  -24.1247   22.2552 C   0  0  0  0  0  0  0  0  0  0  0  0
  -22.6534  -26.4518   23.2693 C   0  0  0  0  0  0  0  0  0  0  0  0
  -24.6461  -11.2713   21.0452 C   0  0  0  0  0  0  0  0  0  0  0  0
  -29.9738  -16.8708   21.8965 C   0  0  0  0  0  0  0  0  0  0  0  0
  -26.0443  -11.3733   20.9145 C   0  0  0  0  0  0  0  0  0  0  0  0
  -28.7052  -17.4607   21.9913 C   0  0  0  0  0  0  0  0  0  0  0  0
  -31.0373  -25.8492   21.7009 C   0  0  0  0  0  0  0  0  0  0  0  0
  -31.0545  -28.2380   22.0621 C   0  0  0  0  0  0  0  0  0  0  0  0
  -30.3978  -27.0867   21.6275 C   0  0  0  0  0  0  0  0  0  0  0  0
  -21.3132  -21.5601   22.1073 C   0  0  0  0  0  0  0  0  0  0  0  0
  -29.5241  -19.3903   20.7601 C   0  0  0  0  0  0  0  0  0  0  0  0
  -21.4386  -19.3758   21.2497 C   0  0  0  0  0  0  0  0  0  0  0  0
  -22.7578  -17.4977   19.6638 C   0  0  0  0  0  0  0  0  0  0  0  0
  -21.9277  -18.2011   21.8210 C   0  0  0  0  0  0  0  0  0  0  0  0
  -32.3335  -25.7631   22.2089 C   0  0  0  0  0  0  0  0  0  0  0  0
  -22.9635  -25.4490   22.3312 C   0  0  0  0  0  0  0  0  0  0  0  0
  -23.4512  -27.5122   22.9147 C   0  0  0  0  0  0  0  0  0  0  0  0
  -21.7271  -26.4270   24.3633 C   0  0  0  0  0  0  0  0  0  0  0  0
  -28.4788  -14.1056   21.4254 C   0  0  0  0  0  0  0  0  0  0  0  0
  -27.0426  -14.8492   24.2373 C   0  0  0  0  0  0  0  0  0  0  0  0
  -25.6652  -17.7997   25.7913 C   0  0  0  0  0  0  0  0  0  0  0  0
  -28.6554  -27.9118   20.0059 C   0  0  0  0  0  0  0  0  0  0  0  0
  -23.7283  -12.4030   20.6558 C   0  0  0  0  0  0  0  0  0  0  0  0
  -30.2405  -15.5322   22.5285 C   0  0  0  0  0  0  0  0  0  0  0  0
  -27.5619  -16.7744   22.6915 C   0  0  0  0  0  0  0  0  0  0  0  0
  -24.4363  -13.7509   20.5452 C   0  0  0  0  0  0  0  0  0  0  0  0
  -25.5885  -29.4823   19.1088 C   0  0  0  0  0  0  0  0  0  0  0  0
  -30.0967  -23.5948   22.3673 C   0  0  0  0  0  0  0  0  0  0  0  0
  -31.0357  -23.9423   20.0357 C   0  0  0  0  0  0  0  0  0  0  0  0
  -25.7326  -13.6096   19.7536 C   0  0  0  0  0  0  0  0  0  0  0  0
  -24.5398  -28.7215   19.9234 C   0  0  0  0  0  0  0  0  0  0  0  0
  -29.3624  -22.3488   21.8789 C   0  0  0  0  0  0  0  0  0  0  0  0
  -30.2961  -22.6948   19.5594 C   0  0  0  0  0  0  0  0  0  0  0  0
  -26.7013  -28.5598   18.6143 C   0  0  0  0  0  0  0  0  0  0  0  0
  -26.2991  -26.9918   20.4714 C   0  0  0  0  0  0  0  0  0  0  0  0
  -30.3147  -24.6024   21.2245 C   0  0  0  0  0  0  0  0  0  0  0  0
  -26.7059  -12.6544   20.4549 C   0  0  1  0  0  0  0  0  0  0  0  0
  -28.9777  -14.6966   22.7136 C   0  0  1  0  0  0  0  0  0  0  0  0
  -25.1920  -27.8907   21.0459 C   0  0  2  0  0  0  0  0  0  0  0  0
  -30.0784  -21.6991   20.6961 C   0  0  0  0  0  0  0  0  0  1  0  0
  -30.3959  -29.5780   21.9978 C   0  0  0  0  0  0  0  0  0  0  0  0
  -25.3993  -18.3942   28.2148 C   0  0  0  0  0  0  0  0  0  0  0  0
  -24.2432  -13.6781   23.9186 C   0  0  0  0  0  0  0  0  0  0  0  0
  -23.3872  -15.4999   25.4074 C   0  0  0  0  0  0  0  0  0  0  0  0
  -25.0395  -13.8489   26.2831 C   0  0  0  0  0  0  0  0  0  0  0  0
  -27.1548  -20.3346   25.4526 C   0  0  0  0  0  0  0  0  0  0  0  0
  -25.8002  -15.6089   24.6351 C   0  0  1  0  0  0  0  0  0  0  0  0
  -26.2489  -18.5652   26.9651 C   0  0  2  0  0  0  0  0  0  0  0  0
  -24.6318  -14.6652   25.0373 C   0  0  0  0  0  0  0  0  0  0  0  0
  -23.8862  -25.8376   21.4470 N   0  0  0  0  0  0  0  0  0  0  0  0
  -24.1627  -27.0963   21.8280 N   0  0  0  0  0  0  0  0  0  0  0  0
  -27.8710  -15.4644   23.2880 N   0  0  0  0  0  0  0  0  0  0  0  0
  -27.2750  -27.8083   19.7328 N   0  0  0  0  0  0  0  0  0  0  0  0
  -23.6064  -28.7504   23.4296 N   0  0  0  0  0  0  0  0  0  0  0  0
  -22.1841  -25.9954   25.6160 N   0  0  0  0  0  0  0  0  0  0  0  0
  -29.0808  -27.1781   21.1129 N   0  0  0  0  0  0  0  0  0  0  0  0
  -27.3522  -13.3179   21.5669 N   0  0  0  0  0  0  0  0  0  0  0  0
  -26.2075  -16.5364   25.6850 N   0  0  0  0  0  0  0  0  0  0  0  0
  -26.3295  -20.0189   26.6469 N   0  3  0  0  0  0  0  0  0  0  0  0
  -20.5256  -26.7617   24.2301 O   0  0  0  0  0  0  0  0  0  0  0  0
  -29.0711  -14.3475   20.3803 O   0  0  0  0  0  0  0  0  0  0  0  0
  -27.2734  -13.7537   24.7552 O   0  0  0  0  0  0  0  0  0  0  0  0
  -24.8108  -18.2735   25.0457 O   0  0  0  0  0  0  0  0  0  0  0  0
  -29.4001  -28.6221   19.3255 O   0  0  0  0  0  0  0  0  0  0  0  0
  -20.7827  -20.3086   22.0354 O   0  0  0  0  0  0  0  0  0  0  0  0
  -29.3007  -20.6126   20.2050 O   0  0  0  0  0  0  0  0  0  1  0  0
  -23.3899  -16.5954   18.9020 F   0  0  0  0  0  0  0  0  0  0  0  0
  -21.7660  -17.9686   23.1308 F   0  0  0  0  0  0  0  0  0  0  0  0
  -33.1622  -24.2520   22.3152 Cl  0  0  0  0  0  0  0  0  0  0  0  0
  1  2  1  0  0  0  0
  1  5  2  0  0  0  0
  2  6  2  0  0  0  0
  3  9  2  0  0  0  0
  3 17  1  0  0  0  0
  4 10  1  0  0  0  0
  4 17  2  0  0  0  0
  5 19  1  0  0  0  0
  6 21  1  0  0  0  0
  7 11  2  0  0  0  0
  7 20  1  0  0  0  0
  8 14  1  0  0  0  0
  8 24  2  0  0  0  0
  9 26  1  0  0  0  0
 10 26  2  0  0  0  0
 11 27  1  0  0  0  0
 12 13  2  0  0  0  0
 12 28  1  0  0  0  0
 13 29  1  0  0  0  0
 14 31  2  0  0  0  0
 15 22  1  0  0  0  0
 15 27  2  0  0  0  0
 16 29  2  0  0  0  0
 16 30  1  0  0  0  0
 17 32  1  0  0  0  0
 18 32  1  0  0  0  0
 18 33  2  0  0  0  0
 18 34  1  0  0  0  0
 19 21  2  0  0  0  0
 19 39  1  0  0  0  0
 20 22  2  0  0  0  0
 20 40  1  0  0  0  0
 21 53  1  0  0  0  0
 22 41  1  0  0  0  0
 23 25  2  0  0  0  0
 23 31  1  0  0  0  0
 23 52  1  0  0  0  0
 24 25  1  0  0  0  0
 24 57  1  0  0  0  0
 25 72  1  0  0  0  0
 26 81  1  0  0  0  0
 27 82  1  0  0  0  0
 28 30  2  0  0  0  0
 28 81  1  0  0  0  0
 29 83  1  0  0  0  0
 30 84  1  0  0  0  0
 31 85  1  0  0  0  0
 32 66  2  0  0  0  0
 33 67  1  0  0  0  0
 33 70  1  0  0  0  0
 34 71  1  0  0  0  0
 34 76  2  0  0  0  0
 35 54  1  0  0  0  0
 35 73  1  0  0  0  0
 35 77  2  0  0  0  0
 36 63  1  0  0  0  0
 36 68  1  0  0  0  0
 36 78  2  0  0  0  0
 37 64  1  0  0  0  0
 37 74  1  0  0  0  0
 37 79  2  0  0  0  0
 38 69  1  0  0  0  0
 38 72  1  0  0  0  0
 38 80  2  0  0  0  0
 39 42  1  0  0  0  0
 40 54  1  0  0  0  0
 41 68  1  0  0  0  0
 42 46  1  0  0  0  0
 43 47  1  0  0  0  0
 43 50  1  0  0  0  0
 44 48  1  0  0  0  0
 44 52  1  0  0  0  0
 45 49  1  0  0  0  0
 45 52  1  0  0  0  0
 46 53  1  0  0  0  0
 47 55  1  0  0  0  0
 48 56  1  0  0  0  0
 49 56  1  0  0  0  0
 50 69  1  0  0  0  0
 51 55  1  0  0  0  0
 51 69  1  0  0  0  0
 53 73  1  0  0  0  0
 54 68  1  0  0  0  0
 55 67  1  0  0  0  0
 56 82  1  0  0  0  0
 58 64  1  0  0  0  0
 59 65  1  0  0  0  0
 60 65  1  0  0  0  0
 61 65  1  0  0  0  0
 62 75  1  0  0  0  0
 63 65  1  0  0  0  0
 63 74  1  0  0  0  0
 64 75  1  0  0  0  0
 66 67  1  0  0  0  0
M  CHG  1  75   1
M  ISO  4  38 100  56 101  72 100  82 101
M  END
> <Batch ID>
0044

> <Smiles>
CNC(C)C(=O)NC(C(=O)N1Cc2cc([101O:1][101CH:1]3CCC(c4c(Cl)ccc(C)c4[100NH:0][100C:0](=O)N4CCCC(n5nc(-c6ccc(Oc7ccc(F)cc7F)cc6)c(C(N)=O)c5N)C4)CC3)ccc2CC1C(=O)NC1CCCc2ccccc21)C(C)(C)C

> <Shape>
0.174

> <Color>
0.073

> <Negative vol penalty>
0.000

$$$$

  -OEChem-04042322183D

 87 96  0     1  0  0  0  0  0999 V2000
  -28.9418  -37.2846   22.6248 C   0  0  0  0  0  0  0  0  0  0  0  0
  -29.2738  -36.1964   21.8242 C   0  0  0  0  0  0  0  0  0  0  0  0
  -23.1726   -9.9593   21.4966 C   0  0  0  0  0  0  0  0  0  0  0  0
  -24.7734  -10.2647   23.2802 C   0  0  0  0  0  0  0  0  0  0  0  0
  -28.1624  -37.0973   23.7656 C   0  0  0  0  0  0  0  0  0  0  0  0
  -28.8274  -34.9199   22.1646 C   0  0  0  0  0  0  0  0  0  0  0  0
  -26.7481  -28.7510   19.1751 C   0  0  0  0  0  0  0  0  0  0  0  0
  -22.6173   -8.8777   22.1802 C   0  0  0  0  0  0  0  0  0  0  0  0
  -24.2181   -9.1831   23.9638 C   0  0  0  0  0  0  0  0  0  0  0  0
  -27.0158  -27.3838   19.2293 C   0  0  0  0  0  0  0  0  0  0  0  0
  -20.5000   -8.3899   24.7709 C   0  0  0  0  0  0  0  0  0  0  0  0
  -19.1093   -8.3183   24.8505 C   0  0  0  0  0  0  0  0  0  0  0  0
  -25.6091  -27.1918   21.1796 C   0  0  0  0  0  0  0  0  0  0  0  0
  -30.7063  -20.4562   21.8832 C   0  0  0  0  0  0  0  0  0  0  0  0
  -31.2575  -18.2652   21.0271 C   0  0  0  0  0  0  0  0  0  0  0  0
  -19.1534   -6.1911   23.7058 C   0  0  0  0  0  0  0  0  0  0  0  0
  -24.2507  -10.6528   22.0466 C   0  0  0  0  0  0  0  0  0  0  0  0
  -24.1761  -12.9596   20.9599 C   0  0  0  0  0  0  0  0  0  0  0  0
  -27.6982  -35.8194   24.1149 C   0  0  0  0  0  0  0  0  0  0  0  0
  -25.9162  -29.3518   20.1309 C   0  0  0  0  0  0  0  0  0  0  0  0
  -28.0422  -34.7152   23.3119 C   0  0  0  0  0  0  0  0  0  0  0  0
  -25.3304  -28.5663   21.1338 C   0  0  0  0  0  0  0  0  0  0  0  0
  -29.3483  -20.1589   21.7700 C   0  0  0  0  0  0  0  0  0  0  0  0
  -28.9448  -18.9147   21.2854 C   0  0  0  0  0  0  0  0  0  0  0  0
  -29.8994  -17.9679   20.9139 C   0  0  0  0  0  0  0  0  0  0  0  0
  -23.1400   -8.4896   23.4138 C   0  0  0  0  0  0  0  0  0  0  0  0
  -26.4486  -26.6045   20.2333 C   0  0  0  0  0  0  0  0  0  0  0  0
  -21.2174   -7.3622   24.1587 C   0  0  0  0  0  0  0  0  0  0  0  0
  -18.4359   -7.2188   24.3179 C   0  0  0  0  0  0  0  0  0  0  0  0
  -20.5441   -6.2628   23.6262 C   0  0  0  0  0  0  0  0  0  0  0  0
  -31.6610  -19.5094   21.5117 C   0  0  0  0  0  0  0  0  0  0  0  0
  -24.8252  -11.7699   21.3407 C   0  0  0  0  0  0  0  0  0  0  0  0
  -25.1475  -13.6918   20.3222 C   0  0  0  0  0  0  0  0  0  0  0  0
  -26.4218  -22.4516   21.3966 C   0  0  0  0  0  0  0  0  0  0  0  0
  -25.2961  -21.8174   21.0354 C   0  0  0  0  0  0  0  0  0  0  0  0
  -22.8166  -13.3665   21.1643 C   0  0  0  0  0  0  0  0  0  0  0  0
  -26.3002  -31.6049   22.3399 C   0  0  0  0  0  0  0  0  0  0  0  0
  -23.0974  -31.2440   22.7060 C   0  0  0  0  0  0  0  0  0  0  0  0
  -20.7515  -28.5050   22.8148 C   0  0  0  0  0  0  0  0  0  0  0  0
  -30.3472  -15.6590   20.0111 C   0  0  0  0  0  0  0  0  0  0  0  0
  -26.8981  -35.6593   25.3833 C   0  0  0  0  0  0  0  0  0  0  0  0
  -25.6160  -30.8231   20.0428 C   0  0  0  0  0  0  0  0  0  0  0  0
  -24.4142  -29.1593   22.1718 C   0  0  0  0  0  0  0  0  0  0  0  0
  -26.4230  -23.7553   22.1523 C   0  0  0  0  0  0  0  0  0  0  0  0
  -26.1518  -34.3304   25.4690 C   0  0  0  0  0  0  0  0  0  0  0  0
  -29.7803  -12.3710   18.7683 C   0  0  0  0  0  0  0  0  0  0  0  0
  -27.0709  -33.1761   25.0821 C   0  0  0  0  0  0  0  0  0  0  0  0
  -28.3872  -12.0193   19.2954 C   0  0  0  0  0  0  0  0  0  0  0  0
  -28.6870  -24.1718   21.1034 C   0  0  0  0  0  0  0  0  0  0  0  0
  -30.5771  -13.1958   19.7776 C   0  0  0  0  0  0  0  0  0  0  0  0
  -28.5031  -14.0480   20.7981 C   0  0  0  0  0  0  0  0  0  0  0  0
  -28.5396  -22.8830   20.2958 C   0  0  0  0  0  0  0  0  0  0  0  0
  -27.5562  -33.3188   23.6345 C   0  0  1  0  0  0  0  0  0  0  0  0
  -25.1657  -31.4216   21.3719 C   0  0  1  0  0  0  0  0  0  0  0  0
  -27.6390  -13.2727   19.7902 C   0  0  2  0  0  0  0  0  0  0  0  0
  -27.3339  -24.7788   21.4740 C   0  0  1  0  0  0  0  0  0  1  0  0
  -27.4865  -18.6001   21.1658 C   0  0  0  0  0  0  0  0  0  0  0  0
  -18.3100  -28.4243   22.2404 C   0  0  0  0  0  0  0  0  0  0  0  0
  -22.6765  -31.7575   25.6841 C   0  0  0  0  0  0  0  0  0  0  0  0
  -20.7315  -30.1828   25.6096 C   0  0  0  0  0  0  0  0  0  0  0  0
  -20.6957  -32.2718   24.2467 C   0  0  0  0  0  0  0  0  0  0  0  0
  -21.1579  -26.2912   20.8932 C   0  0  0  0  0  0  0  0  0  0  0  0
  -28.3421  -21.1949   22.1764 C   0  0  0  0  0  0  0  0  0  0  0  0
  -22.2107  -30.3685   23.5582 C   0  0  1  0  0  0  0  0  0  0  0  0
  -19.7244  -28.1456   21.7563 C   0  0  2  0  0  0  0  0  0  0  0  0
  -21.6045  -31.1366   24.7664 C   0  0  0  0  0  0  0  0  0  0  0  0
  -26.1097  -11.7436   20.9753 N   0  0  0  0  0  0  0  0  0  0  0  0
  -26.2755  -12.9259   20.3581 N   0  0  0  0  0  0  0  0  0  0  0  0
  -24.1563  -30.6034   22.0471 N   0  0  0  0  0  0  0  0  0  0  0  0
  -29.8075  -14.3688   20.1979 N   0  0  0  0  0  0  0  0  0  0  0  0
  -25.1384  -14.9097   19.7399 N   0  0  0  0  0  0  0  0  0  0  0  0
  -21.9520  -12.4933   21.8384 N   0  0  0  0  0  0  0  0  0  0  0  0
  -29.5114  -16.6982   20.4188 N   0  0  0  0  0  0  0  0  0  0  0  0
  -26.5164  -32.9183   22.7110 N   0  0  0  0  0  0  0  0  0  0  0  0
  -21.2181  -29.7929   22.6571 N   0  0  0  0  0  0  0  0  0  0  0  0
  -27.6786  -21.8635   21.0043 N   0  3  1  0  0  0  0  0  0  0  0  0
  -19.8252  -26.7005   21.4063 N   0  3  0  0  0  0  0  0  0  0  0  0
  -22.3771  -14.4647   20.7468 O   0  0  0  0  0  0  0  0  0  0  0  0
  -26.9317  -30.6271   22.7229 O   0  0  0  0  0  0  0  0  0  0  0  0
  -22.8550  -32.4506   22.6222 O   0  0  0  0  0  0  0  0  0  0  0  0
  -21.1018  -27.7229   23.6958 O   0  0  0  0  0  0  0  0  0  0  0  0
  -31.4569  -15.8306   19.5001 O   0  0  0  0  0  0  0  0  0  0  0  0
  -22.5982   -7.4344   24.0812 O   0  0  0  0  0  0  0  0  0  0  0  0
  -26.7088  -25.2699   20.2888 O   0  0  0  0  0  0  0  0  0  1  0  0
  -17.1005   -7.1494   24.3958 F   0  0  0  0  0  0  0  0  0  0  0  0
  -21.2280   -5.2718   23.0379 F   0  0  0  0  0  0  0  0  0  0  0  0
  -33.3364  -19.8770   21.6503 Cl  0  0  0  0  0  0  0  0  0  0  0  0
  1  2  1  0  0  0  0
  1  5  2  0  0  0  0
  2  6  2  0  0  0  0
  3  8  2  0  0  0  0
  3 17  1  0  0  0  0
  4  9  1  0  0  0  0
  4 17  2  0  0  0  0
  5 19  1  0  0  0  0
  6 21  1  0  0  0  0
  7 10  2  0  0  0  0
  7 20  1  0  0  0  0
  8 26  1  0  0  0  0
  9 26  2  0  0  0  0
 10 27  1  0  0  0  0
 11 12  2  0  0  0  0
 11 28  1  0  0  0  0
 12 29  1  0  0  0  0
 13 22  1  0  0  0  0
 13 27  2  0  0  0  0
 14 23  1  0  0  0  0
 14 31  2  0  0  0  0
 15 25  2  0  0  0  0
 15 31  1  0  0  0  0
 16 29  2  0  0  0  0
 16 30  1  0  0  0  0
 17 32  1  0  0  0  0
 18 32  1  0  0  0  0
 18 33  2  0  0  0  0
 18 36  1  0  0  0  0
 19 21  2  0  0  0  0
 19 41  1  0  0  0  0
 20 22  2  0  0  0  0
 20 42  1  0  0  0  0
 21 53  1  0  0  0  0
 22 43  1  0  0  0  0
 23 24  2  0  0  0  0
 23 63  1  0  0  0  0
 24 25  1  0  0  0  0
 24 57  1  0  0  0  0
 25 73  1  0  0  0  0
 26 83  1  0  0  0  0
 27 84  1  0  0  0  0
 28 30  2  0  0  0  0
 28 83  1  0  0  0  0
 29 85  1  0  0  0  0
 30 86  1  0  0  0  0
 31 87  1  0  0  0  0
 32 67  2  0  0  0  0
 33 68  1  0  0  0  0
 33 71  1  0  0  0  0
 34 35  2  0  0  0  0
 34 44  1  0  0  0  0
 34 76  1  0  0  0  0
 36 72  1  0  0  0  0
 36 78  2  0  0  0  0
 37 54  1  0  0  0  0
 37 74  1  0  0  0  0
 37 79  2  0  0  0  0
 38 64  1  0  0  0  0
 38 69  1  0  0  0  0
 38 80  2  0  0  0  0
 39 65  1  0  0  0  0
 39 75  1  0  0  0  0
 39 81  2  0  0  0  0
 40 70  1  0  0  0  0
 40 73  1  0  0  0  0
 40 82  2  0  0  0  0
 41 45  1  0  0  0  0
 42 54  1  0  0  0  0
 43 69  1  0  0  0  0
 44 56  1  0  0  0  0
 45 47  1  0  0  0  0
 46 48  1  0  0  0  0
 46 50  1  0  0  0  0
 47 53  1  0  0  0  0
 48 55  1  0  0  0  0
 49 52  1  0  0  0  0
 49 56  1  0  0  0  0
 50 70  1  0  0  0  0
 51 55  1  0  0  0  0
 51 70  1  0  0  0  0
 52 76  1  0  0  0  0
 53 74  1  0  0  0  0
 54 69  1  0  0  0  0
 55 68  1  0  0  0  0
 56 84  1  0  0  0  0
 58 65  1  0  0  0  0
 59 66  1  0  0  0  0
 60 66  1  0  0  0  0
 61 66  1  0  0  0  0
 62 77  1  0  0  0  0
 63 76  1  0  0  0  0
 64 66  1  0  0  0  0
 64 75  1  0  0  0  0
 65 77  1  0  0  0  0
 67 68  1  0  0  0  0
M  CHG  2  76   1  77   1
M  ISO  4  40 100  56 101  73 100  84 101
M  END
> <Batch ID>
0044

> <Smiles>
C=C1C[101CH:1]([101O:1]c2ccc3c(c2)CN(C(=O)C(NC(=O)C(C)NC)C(C)(C)C)C(C(=O)NC2CCCc4ccccc42)C3)CCN1Cc1cc(Cl)cc([100NH:0][100C:0](=O)N2CCCC(n3nc(-c4ccc(Oc5ccc(F)cc5F)cc4)c(C(N)=O)c3N)C2)c1C

> <Shape>
0.344

> <Color>
0.174

> <Negative vol penalty>
0.000

$$$$

  -OEChem-04042322183D

 84 92  0     1  0  0  0  0  0999 V2000
  -30.2050  -18.6457   17.1299 C   0  0  0  0  0  0  0  0  0  0  0  0
  -30.2658  -17.6962   18.1436 C   0  0  0  0  0  0  0  0  0  0  0  0
  -24.0755  -28.7437   19.5933 C   0  0  0  0  0  0  0  0  0  0  0  0
  -24.2223  -28.0315   21.8973 C   0  0  0  0  0  0  0  0  0  0  0  0
  -28.1340  -20.3728   25.0330 C   0  0  0  0  0  0  0  0  0  0  0  0
  -28.9812  -18.9501   16.5376 C   0  0  0  0  0  0  0  0  0  0  0  0
  -29.1048  -17.0421   18.5571 C   0  0  0  0  0  0  0  0  0  0  0  0
  -29.6396  -13.3614   21.7774 C   0  0  0  0  0  0  0  0  0  0  0  0
  -28.3102  -21.3329   24.0366 C   0  0  0  0  0  0  0  0  0  0  0  0
  -22.7622  -29.1626   19.8065 C   0  0  0  0  0  0  0  0  0  0  0  0
  -22.9090  -28.4504   22.1105 C   0  0  0  0  0  0  0  0  0  0  0  0
  -29.9726  -13.5723   23.1147 C   0  0  0  0  0  0  0  0  0  0  0  0
  -19.7933  -27.2970   21.4836 C   0  0  0  0  0  0  0  0  0  0  0  0
  -18.9463  -26.4412   22.1876 C   0  0  0  0  0  0  0  0  0  0  0  0
  -27.6794  -13.1666   23.7436 C   0  0  0  0  0  0  0  0  0  0  0  0
  -28.4833  -19.5825   22.3804 C   0  0  0  0  0  0  0  0  0  0  0  0
  -18.6265  -28.1433   23.8721 C   0  0  0  0  0  0  0  0  0  0  0  0
  -24.8055  -28.1781   20.6388 C   0  0  0  0  0  0  0  0  0  0  0  0
  -28.1325  -19.0175   24.7031 C   0  0  0  0  0  0  0  0  0  0  0  0
  -27.3346  -28.5068   20.5801 C   0  0  0  0  0  0  0  0  0  0  0  0
  -27.8031  -18.3079   16.9533 C   0  0  0  0  0  0  0  0  0  0  0  0
  -28.3195  -13.0617   21.4114 C   0  0  0  0  0  0  0  0  0  0  0  0
  -27.8637  -17.3180   17.9553 C   0  0  0  0  0  0  0  0  0  0  0  0
  -27.3327  -12.9498   22.4012 C   0  0  0  0  0  0  0  0  0  0  0  0
  -28.3071  -18.6223   23.3768 C   0  0  0  0  0  0  0  0  0  0  0  0
  -28.4849  -20.9378   22.7104 C   0  0  0  0  0  0  0  0  0  0  0  0
  -22.1790  -29.0160   21.0650 C   0  0  0  0  0  0  0  0  0  0  0  0
  -28.9919  -13.4778   24.0977 C   0  0  0  0  0  0  0  0  0  0  0  0
  -20.0570  -28.5760   21.9739 C   0  0  0  0  0  0  0  0  0  0  0  0
  -18.3628  -26.8643   23.3818 C   0  0  0  0  0  0  0  0  0  0  0  0
  -19.4736  -28.9991   23.1681 C   0  0  0  0  0  0  0  0  0  0  0  0
  -26.1620  -27.7447   20.4191 C   0  0  0  0  0  0  0  0  0  0  0  0
  -28.3521  -27.6454   20.2499 C   0  0  0  0  0  0  0  0  0  0  0  0
  -27.9435  -18.0176   25.7731 C   0  0  0  0  0  0  0  0  0  0  0  0
  -27.4902  -29.8715   20.9916 C   0  0  0  0  0  0  0  0  0  0  0  0
  -26.1193  -14.4695   19.6001 C   0  0  0  0  0  0  0  0  0  0  0  0
  -24.4555  -11.7473   20.1866 C   0  0  0  0  0  0  0  0  0  0  0  0
  -23.9303   -9.0527   22.2140 C   0  0  0  0  0  0  0  0  0  0  0  0
  -28.8488  -21.6913   20.3342 C   0  0  0  0  0  0  0  0  0  0  0  0
  -26.5067  -18.6700   16.2727 C   0  0  0  0  0  0  0  0  0  0  0  0
  -27.9818  -12.8106   19.9673 C   0  0  0  0  0  0  0  0  0  0  0  0
  -25.9048  -12.6105   22.0627 C   0  0  0  0  0  0  0  0  0  0  0  0
  -25.2778  -18.2548   17.0749 C   0  0  0  0  0  0  0  0  0  0  0  0
  -29.2855  -23.8248   17.5174 C   0  0  0  0  0  0  0  0  0  0  0  0
  -25.4066  -16.8023   17.5087 C   0  0  0  0  0  0  0  0  0  0  0  0
  -28.6462  -25.1434   17.9588 C   0  0  0  0  0  0  0  0  0  0  0  0
  -28.5190  -22.6162   18.0515 C   0  0  0  0  0  0  0  0  0  0  0  0
  -27.6531  -23.9348   19.9437 C   0  0  0  0  0  0  0  0  0  0  0  0
  -26.6092  -16.6159   18.4426 C   0  0  1  0  0  0  0  0  0  0  0  0
  -26.5031  -13.0178   19.6547 C   0  0  1  0  0  0  0  0  0  0  0  0
  -28.4274  -25.1809   19.4840 C   0  0  2  0  0  0  0  0  0  0  0  0
  -28.3065  -17.1774   22.9984 C   0  0  0  0  0  0  0  0  0  0  0  0
  -22.4767   -7.0212   22.4533 C   0  0  0  0  0  0  0  0  0  0  0  0
  -22.1583  -13.5079   21.1524 C   0  0  0  0  0  0  0  0  0  0  0  0
  -21.1567  -11.4858   22.2368 C   0  0  0  0  0  0  0  0  0  0  0  0
  -21.4591  -11.5505   19.7616 C   0  0  0  0  0  0  0  0  0  0  0  0
  -26.2534   -7.2272   22.0408 C   0  0  0  0  0  0  0  0  0  0  0  0
  -30.1285  -15.2721   27.0076 C   0  0  0  0  0  0  0  0  0  0  0  0
  -28.8400  -16.0776   27.0098 C   0  0  0  0  0  0  0  0  0  0  0  0
  -30.3881  -14.5840   25.6734 C   0  0  0  0  0  0  0  0  0  1  0  0
  -23.4856  -11.2956   21.2516 C   0  0  1  0  0  0  0  0  0  0  0  0
  -23.7835   -7.5736   21.9056 C   0  0  2  0  0  0  0  0  0  0  0  0
  -22.0913  -11.9683   21.1071 C   0  0  0  0  0  0  0  0  0  0  0  0
  -26.4102  -26.4952   20.0176 N   0  0  0  0  0  0  0  0  0  0  0  0
  -27.7505  -26.4657   19.9235 N   0  0  0  0  0  0  0  0  0  0  0  0
  -25.6231  -12.3801   20.6362 N   0  0  0  0  0  0  0  0  0  0  0  0
  -28.3535  -22.7183   19.5030 N   0  0  0  0  0  0  0  0  0  0  0  0
  -29.6937  -27.7895   20.2097 N   0  0  0  0  0  0  0  0  0  0  0  0
  -26.8146  -18.0605   26.4807 N   0  0  0  0  0  0  0  0  0  0  0  0
  -26.3402  -30.6136   21.2934 N   0  0  0  0  0  0  0  0  0  0  0  0
  -28.6627  -21.9134   21.6982 N   0  0  0  0  0  0  0  0  0  0  0  0
  -26.8215  -15.2022   18.6623 N   0  0  0  0  0  0  0  0  0  0  0  0
  -23.4558   -9.8385   21.1851 N   0  0  0  0  0  0  0  0  0  0  0  0
  -28.9133  -17.1181   25.9838 N   0  3  0  0  0  0  0  0  0  0  0  0
  -24.9084   -6.8045   22.5090 N   0  3  0  0  0  0  0  0  0  0  0  0
  -28.6146  -30.4215   21.0728 O   0  0  0  0  0  0  0  0  0  0  0  0
  -25.2493  -14.8931   20.3520 O   0  0  0  0  0  0  0  0  0  0  0  0
  -24.1905  -11.5397   18.9999 O   0  0  0  0  0  0  0  0  0  0  0  0
  -24.4139   -9.4694   23.2642 O   0  0  0  0  0  0  0  0  0  0  0  0
  -29.4218  -20.7015   19.8715 O   0  0  0  0  0  0  0  0  0  0  0  0
  -20.8976  -29.4248   21.2734 O   0  0  0  0  0  0  0  0  0  0  0  0
  -29.3142  -13.6839   25.4037 O   0  0  0  0  0  0  0  0  0  1  0  0
  -17.5482  -26.0429   24.0569 F   0  0  0  0  0  0  0  0  0  0  0  0
  -19.7222  -30.2271   23.6436 F   0  0  0  0  0  0  0  0  0  0  0  0
  1  2  1  0  0  0  0
  1  6  2  0  0  0  0
  2  7  2  0  0  0  0
  3 10  2  0  0  0  0
  3 18  1  0  0  0  0
  4 11  1  0  0  0  0
  4 18  2  0  0  0  0
  5  9  2  0  0  0  0
  5 19  1  0  0  0  0
  6 21  1  0  0  0  0
  7 23  1  0  0  0  0
  8 12  2  0  0  0  0
  8 22  1  0  0  0  0
  9 26  1  0  0  0  0
 10 27  1  0  0  0  0
 11 27  2  0  0  0  0
 12 28  1  0  0  0  0
 13 14  2  0  0  0  0
 13 29  1  0  0  0  0
 14 30  1  0  0  0  0
 15 24  1  0  0  0  0
 15 28  2  0  0  0  0
 16 25  1  0  0  0  0
 16 26  2  0  0  0  0
 17 30  2  0  0  0  0
 17 31  1  0  0  0  0
 18 32  1  0  0  0  0
 19 25  2  0  0  0  0
 19 34  1  0  0  0  0
 20 32  1  0  0  0  0
 20 33  2  0  0  0  0
 20 35  1  0  0  0  0
 21 23  2  0  0  0  0
 21 40  1  0  0  0  0
 22 24  2  0  0  0  0
 22 41  1  0  0  0  0
 23 49  1  0  0  0  0
 24 42  1  0  0  0  0
 25 52  1  0  0  0  0
 26 71  1  0  0  0  0
 27 81  1  0  0  0  0
 28 82  1  0  0  0  0
 29 31  2  0  0  0  0
 29 81  1  0  0  0  0
 30 83  1  0  0  0  0
 31 84  1  0  0  0  0
 32 64  2  0  0  0  0
 33 65  1  0  0  0  0
 33 68  1  0  0  0  0
 34 69  1  0  0  0  0
 34 74  2  0  0  0  0
 35 70  1  0  0  0  0
 35 76  2  0  0  0  0
 36 50  1  0  0  0  0
 36 72  1  0  0  0  0
 36 77  2  0  0  0  0
 37 61  1  0  0  0  0
 37 66  1  0  0  0  0
 37 78  2  0  0  0  0
 38 62  1  0  0  0  0
 38 73  1  0  0  0  0
 38 79  2  0  0  0  0
 39 67  1  0  0  0  0
 39 71  1  0  0  0  0
 39 80  2  0  0  0  0
 40 43  1  0  0  0  0
 41 50  1  0  0  0  0
 42 66  1  0  0  0  0
 43 45  1  0  0  0  0
 44 46  1  0  0  0  0
 44 47  1  0  0  0  0
 45 49  1  0  0  0  0
 46 51  1  0  0  0  0
 47 67  1  0  0  0  0
 48 51  1  0  0  0  0
 48 67  1  0  0  0  0
 49 72  1  0  0  0  0
 50 66  1  0  0  0  0
 51 65  1  0  0  0  0
 53 62  1  0  0  0  0
 54 63  1  0  0  0  0
 55 63  1  0  0  0  0
 56 63  1  0  0  0  0
 57 75  1  0  0  0  0
 58 59  1  0  0  0  0
 58 60  1  0  0  0  0
 59 74  1  0  0  0  0
 60 82  1  0  0  0  0
 61 63  1  0  0  0  0
 61 73  1  0  0  0  0
 62 75  1  0  0  0  0
 64 65  1  0  0  0  0
M  CHG  2  74   1  75   1
M  ISO  4  39 100  60 101  71 100  82 101
M  END
> <Batch ID>
0044

> <Smiles>
CNC(C)C(=O)NC(C(=O)N1Cc2cc([101O:1][101CH2:1]CCNC(=N)c3ccc([100NH:0][100C:0](=O)N4CCCC(n5nc(-c6ccc(Oc7ccc(F)cc7F)cc6)c(C(N)=O)c5N)C4)cc3C)ccc2CC1C(=O)NC1CCCc2ccccc21)C(C)(C)C

> <Shape>
0.285

> <Color>
0.057

> <Negative vol penalty>
0.000

$$$$

  -OEChem-04042322183D

 88 96  0     1  0  0  0  0  0999 V2000
  -27.1338  -23.6950   14.2030 C   0  0  0  0  0  0  0  0  0  0  0  0
  -26.2680  -24.4257   15.0089 C   0  0  0  0  0  0  0  0  0  0  0  0
  -28.4832  -14.3967   21.2833 C   0  0  0  0  0  0  0  0  0  0  0  0
  -26.7191  -15.3909   19.9656 C   0  0  0  0  0  0  0  0  0  0  0  0
  -28.4242  -23.4149   14.6475 C   0  0  0  0  0  0  0  0  0  0  0  0
  -26.6962  -24.8867   16.2543 C   0  0  0  0  0  0  0  0  0  0  0  0
  -23.6532  -27.8847   18.6947 C   0  0  0  0  0  0  0  0  0  0  0  0
  -24.7314  -24.0985   20.0622 C   0  0  0  0  0  0  0  0  0  0  0  0
  -27.8285  -13.1662   21.2314 C   0  0  0  0  0  0  0  0  0  0  0  0
  -26.0644  -14.1604   19.9136 C   0  0  0  0  0  0  0  0  0  0  0  0
  -22.4725  -27.4401   19.2880 C   0  0  0  0  0  0  0  0  0  0  0  0
  -23.7474  -11.3656   19.7376 C   0  0  0  0  0  0  0  0  0  0  0  0
  -22.3716  -11.3531   19.9665 C   0  0  0  0  0  0  0  0  0  0  0  0
  -23.9901  -23.9469   18.8904 C   0  0  0  0  0  0  0  0  0  0  0  0
  -23.5358  -27.5227   21.4517 C   0  0  0  0  0  0  0  0  0  0  0  0
  -22.7295  -12.2792   22.1691 C   0  0  0  0  0  0  0  0  0  0  0  0
  -27.9285  -15.5091   20.6504 C   0  0  0  0  0  0  0  0  0  0  0  0
  -23.2918  -22.5113   21.1782 C   0  0  0  0  0  0  0  0  0  0  0  0
  -29.5601  -17.2744   19.7964 C   0  0  0  0  0  0  0  0  0  0  0  0
  -28.8635  -23.8624   15.9044 C   0  0  0  0  0  0  0  0  0  0  0  0
  -24.7893  -28.1416   19.4755 C   0  0  0  0  0  0  0  0  0  0  0  0
  -28.0027  -24.6348   16.7105 C   0  0  0  0  0  0  0  0  0  0  0  0
  -24.7289  -27.9729   20.8662 C   0  0  0  0  0  0  0  0  0  0  0  0
  -24.3822  -23.3806   21.2061 C   0  0  0  0  0  0  0  0  0  0  0  0
  -22.5505  -22.3597   20.0064 C   0  0  0  0  0  0  0  0  0  0  0  0
  -26.6191  -13.0480   20.5466 C   0  0  0  0  0  0  0  0  0  0  0  0
  -22.4145  -27.2563   20.6664 C   0  0  0  0  0  0  0  0  0  0  0  0
  -24.6144  -11.8348   20.7245 C   0  0  0  0  0  0  0  0  0  0  0  0
  -21.8626  -11.8099   21.1821 C   0  0  0  0  0  0  0  0  0  0  0  0
  -24.1054  -12.2916   21.9402 C   0  0  0  0  0  0  0  0  0  0  0  0
  -22.8997  -23.0775   18.8624 C   0  0  0  0  0  0  0  0  0  0  0  0
  -28.6041  -16.7807   20.7042 C   0  0  0  0  0  0  0  0  0  0  0  0
  -29.8912  -18.5139   20.2868 C   0  0  0  0  0  0  0  0  0  0  0  0
  -23.4393  -20.5805   22.6834 C   0  0  0  0  0  0  0  0  0  0  0  0
  -22.9308  -21.7631   22.3793 C   0  0  0  0  0  0  0  0  0  0  0  0
  -30.1005  -16.6669   18.6155 C   0  0  0  0  0  0  0  0  0  0  0  0
  -27.7311  -26.9461   19.6169 C   0  0  0  0  0  0  0  0  0  0  0  0
  -28.1867  -29.3510   21.7455 C   0  0  0  0  0  0  0  0  0  0  0  0
  -19.9067  -22.9094   21.3541 C   0  0  0  0  0  0  0  0  0  0  0  0
  -26.8221  -31.5360   23.9839 C   0  0  0  0  0  0  0  0  0  0  0  0
  -26.9833  -22.4390   23.7492 C   0  0  0  0  0  0  0  0  0  0  0  0
  -30.2729  -23.5375   16.3324 C   0  0  0  0  0  0  0  0  0  0  0  0
  -26.0472  -28.6462   18.8233 C   0  0  0  0  0  0  0  0  0  0  0  0
  -25.9146  -28.2541   21.7513 C   0  0  0  0  0  0  0  0  0  0  0  0
  -30.4860  -23.6824   17.8357 C   0  0  0  0  0  0  0  0  0  0  0  0
  -30.1634  -20.9693   24.3841 C   0  0  0  0  0  0  0  0  0  0  0  0
  -29.9504  -25.0252   18.3096 C   0  0  0  0  0  0  0  0  0  0  0  0
  -30.2107  -19.7737   23.4311 C   0  0  0  0  0  0  0  0  0  0  0  0
  -28.7594  -21.1909   24.9424 C   0  0  0  0  0  0  0  0  0  0  0  0
  -27.7467  -20.1136   22.9707 C   0  0  0  0  0  0  0  0  0  0  0  0
  -28.4364  -25.1205   18.0818 C   0  0  1  0  0  0  0  0  0  0  0  0
  -27.2984  -28.3844   19.6560 C   0  0  1  0  0  0  0  0  0  0  0  0
  -29.1302  -19.8845   22.3386 C   0  0  2  0  0  0  0  0  0  0  0  0
  -27.4506  -33.3528   25.5970 C   0  0  0  0  0  0  0  0  0  0  0  0
  -29.2047  -27.2506   23.7107 C   0  0  0  0  0  0  0  0  0  0  0  0
  -28.9115  -28.9273   25.5468 C   0  0  0  0  0  0  0  0  0  0  0  0
  -30.5141  -29.3812   23.6898 C   0  0  0  0  0  0  0  0  0  0  0  0
  -25.2036  -33.5442   22.5325 C   0  0  0  0  0  0  0  0  0  0  0  0
  -21.3706  -21.4202   19.9780 C   0  0  0  0  0  0  0  0  0  0  0  0
  -25.2027  -23.5703   22.4419 C   0  0  0  0  0  0  0  0  0  0  0  0
  -20.0250  -22.1432   20.0852 C   0  0  0  0  0  0  0  0  0  0  0  0
  -20.2526  -25.0495   22.5105 C   0  0  0  0  0  0  0  0  0  0  0  0
  -21.3901  -26.0480   22.4403 C   0  0  0  0  0  0  0  0  0  1  0  0
  -28.0292  -29.5006   23.2394 C   0  0  1  0  0  0  0  0  0  0  0  0
  -27.0117  -33.0297   24.1772 C   0  0  2  0  0  0  0  0  0  0  0  0
  -29.1429  -28.7577   24.0301 C   0  0  0  0  0  0  0  0  0  0  0  0
  -28.3447  -17.6366   21.6962 N   0  0  0  0  0  0  0  0  0  0  0  0
  -29.1428  -18.6806   21.4147 N   0  0  0  0  0  0  0  0  0  0  0  0
  -27.1237  -28.7396   21.0658 N   0  0  0  0  0  0  0  0  0  0  0  0
  -27.7826  -21.2889   23.8552 N   0  0  0  0  0  0  0  0  0  0  0  0
  -30.7467  -19.4665   19.8590 N   0  0  0  0  0  0  0  0  0  0  0  0
  -29.6504  -15.3894   18.2555 N   0  0  0  0  0  0  0  0  0  0  0  0
  -19.3973  -22.2615   22.3957 N   0  0  0  0  0  0  0  0  0  0  0  0
  -28.0034  -26.4748   18.3468 N   0  0  0  0  0  0  0  0  0  0  0  0
  -27.9652  -30.9343   23.5016 N   0  0  0  0  0  0  0  0  0  0  0  0
  -26.0881  -22.4536   22.6866 N   0  0  0  0  0  0  0  0  0  0  0  0
  -20.3193  -24.1760   21.3364 N   0  3  0  0  0  0  0  0  0  0  0  0
  -25.7381  -33.7533   23.9028 N   0  3  0  0  0  0  0  0  0  0  0  0
  -30.9693  -17.2332   17.9097 O   0  0  0  0  0  0  0  0  0  0  0  0
  -27.8134  -26.3113   20.6619 O   0  0  0  0  0  0  0  0  0  0  0  0
  -29.2119  -29.7680   21.2008 O   0  0  0  0  0  0  0  0  0  0  0  0
  -25.7668  -30.9600   24.2391 O   0  0  0  0  0  0  0  0  0  0  0  0
  -27.0653  -23.3853   24.5397 O   0  0  0  0  0  0  0  0  0  0  0  0
  -25.9801  -11.8473   20.4955 O   0  0  0  0  0  0  0  0  0  0  0  0
  -21.2635  -26.8218   21.2480 O   0  0  0  0  0  0  0  0  0  1  0  0
  -20.5412  -11.7993   21.4012 F   0  0  0  0  0  0  0  0  0  0  0  0
  -24.9332  -12.7447   22.8917 F   0  0  0  0  0  0  0  0  0  0  0  0
  -22.0098  -22.9203   17.3911 Cl  0  0  0  0  0  0  0  0  0  0  0  0
  1  2  1  0  0  0  0
  1  5  2  0  0  0  0
  2  6  2  0  0  0  0
  3  9  2  0  0  0  0
  3 17  1  0  0  0  0
  4 10  1  0  0  0  0
  4 17  2  0  0  0  0
  5 20  1  0  0  0  0
  6 22  1  0  0  0  0
  7 11  2  0  0  0  0
  7 21  1  0  0  0  0
  8 14  1  0  0  0  0
  8 24  2  0  0  0  0
  9 26  1  0  0  0  0
 10 26  2  0  0  0  0
 11 27  1  0  0  0  0
 12 13  2  0  0  0  0
 12 28  1  0  0  0  0
 13 29  1  0  0  0  0
 14 31  2  0  0  0  0
 15 23  1  0  0  0  0
 15 27  2  0  0  0  0
 16 29  2  0  0  0  0
 16 30  1  0  0  0  0
 17 32  1  0  0  0  0
 18 24  1  0  0  0  0
 18 25  2  0  0  0  0
 18 35  1  0  0  0  0
 19 32  1  0  0  0  0
 19 33  2  0  0  0  0
 19 36  1  0  0  0  0
 20 22  2  0  0  0  0
 20 42  1  0  0  0  0
 21 23  2  0  0  0  0
 21 43  1  0  0  0  0
 22 51  1  0  0  0  0
 23 44  1  0  0  0  0
 24 60  1  0  0  0  0
 25 31  1  0  0  0  0
 25 59  1  0  0  0  0
 26 84  1  0  0  0  0
 27 85  1  0  0  0  0
 28 30  2  0  0  0  0
 28 84  1  0  0  0  0
 29 86  1  0  0  0  0
 30 87  1  0  0  0  0
 31 88  1  0  0  0  0
 32 67  2  0  0  0  0
 33 68  1  0  0  0  0
 33 71  1  0  0  0  0
 34 35  2  0  0  0  0
 36 72  1  0  0  0  0
 36 79  2  0  0  0  0
 37 52  1  0  0  0  0
 37 74  1  0  0  0  0
 37 80  2  0  0  0  0
 38 64  1  0  0  0  0
 38 69  1  0  0  0  0
 38 81  2  0  0  0  0
 39 61  1  0  0  0  0
 39 73  1  0  0  0  0
 39 77  2  0  0  0  0
 40 65  1  0  0  0  0
 40 75  1  0  0  0  0
 40 82  2  0  0  0  0
 41 70  1  0  0  0  0
 41 76  1  0  0  0  0
 41 83  2  0  0  0  0
 42 45  1  0  0  0  0
 43 52  1  0  0  0  0
 44 69  1  0  0  0  0
 45 47  1  0  0  0  0
 46 48  1  0  0  0  0
 46 49  1  0  0  0  0
 47 51  1  0  0  0  0
 48 53  1  0  0  0  0
 49 70  1  0  0  0  0
 50 53  1  0  0  0  0
 50 70  1  0  0  0  0
 51 74  1  0  0  0  0
 52 69  1  0  0  0  0
 53 68  1  0  0  0  0
 54 65  1  0  0  0  0
 55 66  1  0  0  0  0
 56 66  1  0  0  0  0
 57 66  1  0  0  0  0
 58 78  1  0  0  0  0
 59 61  1  0  0  0  0
 60 76  1  0  0  0  0
 62 63  1  0  0  0  0
 62 77  1  0  0  0  0
 63 85  1  0  0  0  0
 64 66  1  0  0  0  0
 64 75  1  0  0  0  0
 65 78  1  0  0  0  0
 67 68  1  0  0  0  0
M  CHG  2  77   1  78   1
M  ISO  4  41 100  63 101  76 100  85 101
M  END
> <Batch ID>
0044

> <Smiles>
C=Cc1c(C[100NH:0][100C:0](=O)N2CCCC(n3nc(-c4ccc(Oc5ccc(F)cc5F)cc4)c(C(N)=O)c3N)C2)ccc(Cl)c1CCC(=N)NC[101CH2:1][101O:1]c1ccc2c(c1)CN(C(=O)C(NC(=O)C(C)NC)C(C)(C)C)C(C(=O)NC1CCCc3ccccc31)C2

> <Shape>
0.220

> <Color>
0.060

> <Negative vol penalty>
0.000

$$$$

  -OEChem-04042322183D

 85 93  0     1  0  0  0  0  0999 V2000
  -23.7394  -18.2542   21.9915 C   0  0  0  0  0  0  0  0  0  0  0  0
  -24.4658  -19.3024   21.4356 C   0  0  0  0  0  0  0  0  0  0  0  0
  -25.2667  -12.9942   19.2528 C   0  0  0  0  0  0  0  0  0  0  0  0
  -25.1234  -14.3010   21.2799 C   0  0  0  0  0  0  0  0  0  0  0  0
  -22.3622  -18.3794   22.1695 C   0  0  0  0  0  0  0  0  0  0  0  0
  -23.8152  -20.4760   21.0563 C   0  0  0  0  0  0  0  0  0  0  0  0
  -26.3039  -24.6366   22.5194 C   0  0  0  0  0  0  0  0  0  0  0  0
  -33.5572  -23.8085   16.3565 C   0  0  0  0  0  0  0  0  0  0  0  0
  -25.1795  -11.8214   20.0027 C   0  0  0  0  0  0  0  0  0  0  0  0
  -25.0363  -13.1281   22.0298 C   0  0  0  0  0  0  0  0  0  0  0  0
  -27.4121  -25.0149   21.7626 C   0  0  0  0  0  0  0  0  0  0  0  0
  -24.6317   -8.4909   21.3528 C   0  0  0  0  0  0  0  0  0  0  0  0
  -23.7742   -7.4906   20.8950 C   0  0  0  0  0  0  0  0  0  0  0  0
  -34.8669  -23.5969   16.7873 C   0  0  0  0  0  0  0  0  0  0  0  0
  -26.0671  -26.6662   20.6297 C   0  0  0  0  0  0  0  0  0  0  0  0
  -34.0465  -22.2607   18.6254 C   0  0  0  0  0  0  0  0  0  0  0  0
  -21.9057   -9.0121   21.0706 C   0  0  0  0  0  0  0  0  0  0  0  0
  -25.2387  -14.2341   19.8914 C   0  0  0  0  0  0  0  0  0  0  0  0
  -24.2647  -16.1843   18.5664 C   0  0  0  0  0  0  0  0  0  0  0  0
  -21.6959  -19.5588   21.8011 C   0  0  0  0  0  0  0  0  0  0  0  0
  -25.0643  -25.2639   22.3290 C   0  0  0  0  0  0  0  0  0  0  0  0
  -22.4277  -20.6165   21.2283 C   0  0  0  0  0  0  0  0  0  0  0  0
  -24.9454  -26.2958   21.3872 C   0  0  0  0  0  0  0  0  0  0  0  0
  -32.4922  -23.2462   17.0603 C   0  0  0  0  0  0  0  0  0  0  0  0
  -32.7368  -22.4724   18.1947 C   0  0  0  0  0  0  0  0  0  0  0  0
  -25.0643  -11.8883   21.3912 C   0  0  0  0  0  0  0  0  0  0  0  0
  -27.2931  -26.0278   20.8156 C   0  0  0  0  0  0  0  0  0  0  0  0
  -24.1262   -9.7518   21.6696 C   0  0  0  0  0  0  0  0  0  0  0  0
  -22.4112   -7.7512   20.7538 C   0  0  0  0  0  0  0  0  0  0  0  0
  -22.7632  -10.0124   21.5285 C   0  0  0  0  0  0  0  0  0  0  0  0
  -35.1116  -22.8230   17.9217 C   0  0  0  0  0  0  0  0  0  0  0  0
  -25.3292  -15.4460   19.1173 C   0  0  0  0  0  0  0  0  0  0  0  0
  -24.8717  -17.2394   17.9301 C   0  0  0  0  0  0  0  0  0  0  0  0
  -22.8534  -15.9385   18.6246 C   0  0  0  0  0  0  0  0  0  0  0  0
  -22.1811  -24.2992   21.4016 C   0  0  0  0  0  0  0  0  0  0  0  0
  -21.3480  -27.3418   22.1572 C   0  0  0  0  0  0  0  0  0  0  0  0
  -29.5492  -25.0814   17.7164 C   0  0  0  0  0  0  0  0  0  0  0  0
  -22.3116  -30.5870   22.5899 C   0  0  0  0  0  0  0  0  0  0  0  0
  -30.0334  -19.9504   18.8592 C   0  0  0  0  0  0  0  0  0  0  0  0
  -20.1988  -19.6295   21.9692 C   0  0  0  0  0  0  0  0  0  0  0  0
  -23.8851  -24.8626   23.1722 C   0  0  0  0  0  0  0  0  0  0  0  0
  -23.6418  -27.0147   21.1587 C   0  0  0  0  0  0  0  0  0  0  0  0
  -19.6430  -21.0489   21.8868 C   0  0  0  0  0  0  0  0  0  0  0  0
  -28.9563  -18.4483   15.7478 C   0  0  0  0  0  0  0  0  0  0  0  0
  -20.2395  -21.7873   20.6928 C   0  0  0  0  0  0  0  0  0  0  0  0
  -27.7934  -17.5731   16.2190 C   0  0  0  0  0  0  0  0  0  0  0  0
  -30.0893  -18.4593   16.7696 C   0  0  0  0  0  0  0  0  0  0  0  0
  -28.5174  -18.0053   18.6126 C   0  0  0  0  0  0  0  0  0  0  0  0
  -21.7617  -21.9149   20.8272 C   0  0  1  0  0  0  0  0  0  0  0  0
  -22.5457  -25.2174   22.5337 C   0  0  1  0  0  0  0  0  0  0  0  0
  -27.3302  -17.9707   17.6331 C   0  0  2  0  0  0  0  0  0  0  0  0
  -21.4001  -32.8518   23.1704 C   0  0  0  0  0  0  0  0  0  0  0  0
  -20.1634  -27.5804   19.3555 C   0  0  0  0  0  0  0  0  0  0  0  0
  -20.1404  -30.0662   19.6525 C   0  0  0  0  0  0  0  0  0  0  0  0
  -18.7827  -28.6187   21.1638 C   0  0  0  0  0  0  0  0  0  0  0  0
  -24.0260  -30.7890   24.9939 C   0  0  0  0  0  0  0  0  0  0  0  0
  -31.0910  -23.4883   16.5784 C   0  0  0  0  0  0  0  0  0  0  0  0
  -31.6123  -21.8616   18.9650 C   0  0  0  0  0  0  0  0  0  0  0  0
  -29.3039  -26.5749   17.8632 C   0  0  0  0  0  0  0  0  0  0  0  0
  -28.1200  -26.8968   18.7621 C   0  0  0  0  0  0  0  0  0  1  0  0
  -21.2986  -28.6533   21.4113 C   0  0  1  0  0  0  0  0  0  0  0  0
  -22.0372  -31.5790   23.7058 C   0  0  2  0  0  0  0  0  0  0  0  0
  -20.1205  -28.7150   20.3985 C   0  0  0  0  0  0  0  0  0  0  0  0
  -26.5221  -15.9861   18.8540 N   0  0  0  0  0  0  0  0  0  0  0  0
  -26.2108  -17.0751   18.1305 N   0  0  0  0  0  0  0  0  0  0  0  0
  -22.5162  -26.5819   22.0033 N   0  0  0  0  0  0  0  0  0  0  0  0
  -29.5854  -18.8639   18.0897 N   0  0  0  0  0  0  0  0  0  0  0  0
  -24.3854  -18.2823   17.2243 N   0  0  0  0  0  0  0  0  0  0  0  0
  -22.4000  -14.8091   19.3198 N   0  0  0  0  0  0  0  0  0  0  0  0
  -22.1001  -22.9674   21.7611 N   0  0  0  0  0  0  0  0  0  0  0  0
  -30.6345  -24.8234   16.8913 N   0  0  0  0  0  0  0  0  0  0  0  0
  -21.2686  -29.6999   22.4272 N   0  0  0  0  0  0  0  0  0  0  0  0
  -31.0518  -20.7091   18.2954 N   0  0  0  0  0  0  0  0  0  0  0  0
  -23.3054  -31.9435   24.3983 N   0  3  0  0  0  0  0  0  0  0  0  0
  -22.0200  -16.6888   18.0625 O   0  0  0  0  0  0  0  0  0  0  0  0
  -21.9861  -24.7648   20.2850 O   0  0  0  0  0  0  0  0  0  0  0  0
  -20.3885  -27.0073   22.8566 O   0  0  0  0  0  0  0  0  0  0  0  0
  -28.8601  -24.2281   18.2686 O   0  0  0  0  0  0  0  0  0  0  0  0
  -23.3460  -30.6002   21.9264 O   0  0  0  0  0  0  0  0  0  0  0  0
  -29.5571  -20.2275   19.9653 O   0  0  0  0  0  0  0  0  0  0  0  0
  -24.9790  -10.7440   22.1233 O   0  0  0  0  0  0  0  0  0  0  0  0
  -28.3730  -26.3986   20.0751 O   0  0  0  0  0  0  0  0  0  1  0  0
  -21.5880   -6.7910   20.3127 F   0  0  0  0  0  0  0  0  0  0  0  0
  -22.2720  -11.2221   21.8301 F   0  0  0  0  0  0  0  0  0  0  0  0
  -36.7272  -22.5638   18.4537 Cl  0  0  0  0  0  0  0  0  0  0  0  0
  1  2  1  0  0  0  0
  1  5  2  0  0  0  0
  2  6  2  0  0  0  0
  3  9  2  0  0  0  0
  3 18  1  0  0  0  0
  4 10  1  0  0  0  0
  4 18  2  0  0  0  0
  5 20  1  0  0  0  0
  6 22  1  0  0  0  0
  7 11  2  0  0  0  0
  7 21  1  0  0  0  0
  8 14  2  0  0  0  0
  8 24  1  0  0  0  0
  9 26  1  0  0  0  0
 10 26  2  0  0  0  0
 11 27  1  0  0  0  0
 12 13  2  0  0  0  0
 12 28  1  0  0  0  0
 13 29  1  0  0  0  0
 14 31  1  0  0  0  0
 15 23  1  0  0  0  0
 15 27  2  0  0  0  0
 16 25  1  0  0  0  0
 16 31  2  0  0  0  0
 17 29  2  0  0  0  0
 17 30  1  0  0  0  0
 18 32  1  0  0  0  0
 19 32  1  0  0  0  0
 19 33  2  0  0  0  0
 19 34  1  0  0  0  0
 20 22  2  0  0  0  0
 20 40  1  0  0  0  0
 21 23  2  0  0  0  0
 21 41  1  0  0  0  0
 22 49  1  0  0  0  0
 23 42  1  0  0  0  0
 24 25  2  0  0  0  0
 24 57  1  0  0  0  0
 25 58  1  0  0  0  0
 26 81  1  0  0  0  0
 27 82  1  0  0  0  0
 28 30  2  0  0  0  0
 28 81  1  0  0  0  0
 29 83  1  0  0  0  0
 30 84  1  0  0  0  0
 31 85  1  0  0  0  0
 32 64  2  0  0  0  0
 33 65  1  0  0  0  0
 33 68  1  0  0  0  0
 34 69  1  0  0  0  0
 34 75  2  0  0  0  0
 35 50  1  0  0  0  0
 35 70  1  0  0  0  0
 35 76  2  0  0  0  0
 36 61  1  0  0  0  0
 36 66  1  0  0  0  0
 36 77  2  0  0  0  0
 37 59  1  0  0  0  0
 37 71  1  0  0  0  0
 37 78  2  0  0  0  0
 38 62  1  0  0  0  0
 38 72  1  0  0  0  0
 38 79  2  0  0  0  0
 39 67  1  0  0  0  0
 39 73  1  0  0  0  0
 39 80  2  0  0  0  0
 40 43  1  0  0  0  0
 41 50  1  0  0  0  0
 42 66  1  0  0  0  0
 43 45  1  0  0  0  0
 44 46  1  0  0  0  0
 44 47  1  0  0  0  0
 45 49  1  0  0  0  0
 46 51  1  0  0  0  0
 47 67  1  0  0  0  0
 48 51  1  0  0  0  0
 48 67  1  0  0  0  0
 49 70  1  0  0  0  0
 50 66  1  0  0  0  0
 51 65  1  0  0  0  0
 52 62  1  0  0  0  0
 53 63  1  0  0  0  0
 54 63  1  0  0  0  0
 55 63  1  0  0  0  0
 56 74  1  0  0  0  0
 57 71  1  0  0  0  0
 58 73  1  0  0  0  0
 59 60  1  0  0  0  0
 60 82  1  0  0  0  0
 61 63  1  0  0  0  0
 61 72  1  0  0  0  0
 62 74  1  0  0  0  0
 64 65  1  0  0  0  0
M  CHG  1  74   1
M  ISO  4  39 100  60 101  73 100  82 101
M  END
> <Batch ID>
0044

> <Smiles>
CNC(C)C(=O)NC(C(=O)N1Cc2cc([101O:1][101CH2:1]CC(=O)NCc3ccc(Cl)cc3C[100NH:0][100C:0](=O)N3CCCC(n4nc(-c5ccc(Oc6ccc(F)cc6F)cc5)c(C(N)=O)c4N)C3)ccc2CC1C(=O)NC1CCCc2ccccc21)C(C)(C)C

> <Shape>
0.176

> <Color>
0.087

> <Negative vol penalty>
0.000

$$$$

  -OEChem-04042322183D

 86 95  0     1  0  0  0  0  0999 V2000
  -22.0554   -8.4144   21.2642 C   0  0  0  0  0  0  0  0  0  0  0  0
  -22.5637   -9.0347   22.3999 C   0  0  0  0  0  0  0  0  0  0  0  0
  -19.8931  -28.4088   23.4575 C   0  0  0  0  0  0  0  0  0  0  0  0
  -21.1910  -26.5131   22.7101 C   0  0  0  0  0  0  0  0  0  0  0  0
  -22.6253   -8.6730   20.0194 C   0  0  0  0  0  0  0  0  0  0  0  0
  -23.6343   -9.9227   22.2897 C   0  0  0  0  0  0  0  0  0  0  0  0
  -29.1682  -16.0993   23.0815 C   0  0  0  0  0  0  0  0  0  0  0  0
  -30.7722  -25.1586   19.9704 C   0  0  0  0  0  0  0  0  0  0  0  0
  -30.0414  -26.2667   20.3988 C   0  0  0  0  0  0  0  0  0  0  0  0
  -18.7310  -27.8000   22.9837 C   0  0  0  0  0  0  0  0  0  0  0  0
  -20.0289  -25.9043   22.2363 C   0  0  0  0  0  0  0  0  0  0  0  0
  -29.9038  -16.8775   22.1887 C   0  0  0  0  0  0  0  0  0  0  0  0
  -17.4209  -24.1806   23.5199 C   0  0  0  0  0  0  0  0  0  0  0  0
  -17.2363  -22.8282   23.8070 C   0  0  0  0  0  0  0  0  0  0  0  0
  -27.9884  -17.0005   20.7274 C   0  0  0  0  0  0  0  0  0  0  0  0
  -29.6773  -23.7927   21.6355 C   0  0  0  0  0  0  0  0  0  0  0  0
  -17.1723  -22.3351   21.4427 C   0  0  0  0  0  0  0  0  0  0  0  0
  -21.1231  -27.7654   23.3207 C   0  0  0  0  0  0  0  0  0  0  0  0
  -22.6037  -28.7778   25.1346 C   0  0  0  0  0  0  0  0  0  0  0  0
  -23.7114   -9.5552   19.8964 C   0  0  0  0  0  0  0  0  0  0  0  0
  -27.8384  -15.7561   22.7983 C   0  0  0  0  0  0  0  0  0  0  0  0
  -24.2077  -10.2151   21.0389 C   0  0  0  0  0  0  0  0  0  0  0  0
  -27.2374  -16.2199   21.6195 C   0  0  0  0  0  0  0  0  0  0  0  0
  -30.5902  -23.9215   20.5887 C   0  0  0  0  0  0  0  0  0  0  0  0
  -28.9465  -24.9008   22.0639 C   0  0  0  0  0  0  0  0  0  0  0  0
  -29.1285  -26.1378   21.4456 C   0  0  0  0  0  0  0  0  0  0  0  0
  -18.7989  -26.5478   22.3731 C   0  0  0  0  0  0  0  0  0  0  0  0
  -29.3148  -17.3258   21.0100 C   0  0  0  0  0  0  0  0  0  0  0  0
  -17.4811  -24.6103   22.1942 C   0  0  0  0  0  0  0  0  0  0  0  0
  -17.1121  -21.9054   22.7684 C   0  0  0  0  0  0  0  0  0  0  0  0
  -17.3568  -23.6876   21.1556 C   0  0  0  0  0  0  0  0  0  0  0  0
  -22.3240  -28.3940   23.8094 C   0  0  0  0  0  0  0  0  0  0  0  0
  -23.8623  -29.3245   25.0754 C   0  0  0  0  0  0  0  0  0  0  0  0
  -30.5402  -20.4210   20.3297 C   0  0  0  0  0  0  0  0  0  0  0  0
  -21.7980  -28.6514   26.3138 C   0  0  0  0  0  0  0  0  0  0  0  0
  -26.2762  -13.0271   22.3338 C   0  0  0  0  0  0  0  0  0  0  0  0
  -23.6820  -14.9738   22.2788 C   0  0  0  0  0  0  0  0  0  0  0  0
  -22.8370  -18.1966   20.8944 C   0  0  0  0  0  0  0  0  0  0  0  0
  -28.4704  -28.5676   21.3474 C   0  0  0  0  0  0  0  0  0  0  0  0
  -24.2848   -9.8047   18.5237 C   0  0  0  0  0  0  0  0  0  0  0  0
  -27.0502  -14.9383   23.7844 C   0  0  0  0  0  0  0  0  0  0  0  0
  -25.8065  -15.8963   21.2784 C   0  0  0  0  0  0  0  0  0  0  0  0
  -25.6850  -10.4080   18.5650 C   0  0  0  0  0  0  0  0  0  0  0  0
  -28.7709  -20.8708   18.0375 C   0  0  0  0  0  0  0  0  0  0  0  0
  -26.8072  -31.6285   22.0831 C   0  0  0  0  0  0  0  0  0  0  0  0
  -25.7104  -11.5984   19.5121 C   0  0  0  0  0  0  0  0  0  0  0  0
  -29.2326  -19.4669   18.3679 C   0  0  0  0  0  0  0  0  0  0  0  0
  -25.4969  -31.1815   22.7354 C   0  0  0  0  0  0  0  0  0  0  0  0
  -29.8716  -21.8620   18.3705 C   0  0  0  0  0  0  0  0  0  0  0  0
  -27.2311  -30.6860   20.9581 C   0  0  0  0  0  0  0  0  0  0  0  0
  -25.9908  -28.8201   21.9825 C   0  0  0  0  0  0  0  0  0  0  0  0
  -25.3913  -11.1612   20.9474 C   0  0  1  0  0  0  0  0  0  0  0  0
  -29.5338  -19.3822   19.8513 C   0  0  1  0  0  0  0  0  0  1  0  0
  -25.8636  -14.2188   23.1507 C   0  0  1  0  0  0  0  0  0  0  0  0
  -25.5569  -29.7024   23.1645 C   0  0  2  0  0  0  0  0  0  0  0  0
  -27.9777  -24.7343   23.1896 C   0  0  0  0  0  0  0  0  0  0  0  0
  -21.1585  -19.9050   21.6438 C   0  0  0  0  0  0  0  0  0  0  0  0
  -21.8254  -13.6007   20.2844 C   0  0  0  0  0  0  0  0  0  0  0  0
  -20.9204  -15.8557   19.6806 C   0  0  0  0  0  0  0  0  0  0  0  0
  -20.6614  -14.9915   22.0064 C   0  0  0  0  0  0  0  0  0  0  0  0
  -24.8926  -20.3205   21.0437 C   0  0  0  0  0  0  0  0  0  0  0  0
  -31.3787  -22.7294   20.1290 C   0  0  0  0  0  0  0  0  0  0  0  0
  -22.9413  -15.7379   21.2081 C   0  0  1  0  0  0  0  0  0  0  0  0
  -22.6208  -19.4876   21.6632 C   0  0  2  0  0  0  0  0  0  0  0  0
  -21.6150  -15.0410   20.7927 C   0  0  0  0  0  0  0  0  0  0  0  0
  -23.3243  -28.6734   22.9696 N   0  0  0  0  0  0  0  0  0  0  0  0
  -24.2449  -29.2386   23.7690 N   0  0  0  0  0  0  0  0  0  0  0  0
  -30.5159  -21.6500   19.6678 N   0  0  0  0  0  0  0  0  0  0  0  0
  -25.0794  -15.0884   22.2714 N   0  0  0  0  0  0  0  0  0  0  0  0
  -27.2699  -29.3032   21.4391 N   0  0  0  0  0  0  0  0  0  0  0  0
  -24.6680  -29.8656   26.0137 N   0  0  0  0  0  0  0  0  0  0  0  0
  -20.5300  -28.0658   26.1969 N   0  0  0  0  0  0  0  0  0  0  0  0
  -28.3958  -27.2753   21.8662 N   0  0  0  0  0  0  0  0  0  0  0  0
  -25.2191  -12.3371   21.7717 N   0  0  0  0  0  0  0  0  0  0  0  0
  -22.7694  -17.0936   21.7190 N   0  0  0  0  0  0  0  0  0  0  0  0
  -23.4313  -20.5872   21.0675 N   0  3  0  0  0  0  0  0  0  0  0  0
  -31.2694  -20.1720   21.2932 O   0  0  0  0  0  0  0  0  0  0  0  0
  -22.1842  -29.0608   27.4348 O   0  0  0  0  0  0  0  0  0  0  0  0
  -27.4656  -12.7548   22.2206 O   0  0  0  0  0  0  0  0  0  0  0  0
  -23.0438  -14.3057   23.0962 O   0  0  0  0  0  0  0  0  0  0  0  0
  -23.0414  -18.1691   19.6827 O   0  0  0  0  0  0  0  0  0  0  0  0
  -29.4971  -29.0578   20.8703 O   0  0  0  0  0  0  0  0  0  0  0  0
  -17.6651  -25.9533   21.9109 O   0  0  0  0  0  0  0  0  0  0  0  0
  -30.0307  -18.0850   20.1365 O   0  0  0  0  0  0  0  0  0  1  0  0
  -16.9364  -20.6064   23.0442 F   0  0  0  0  0  0  0  0  0  0  0  0
  -17.4150  -24.0943   19.8801 F   0  0  0  0  0  0  0  0  0  0  0  0
  1  2  1  0  0  0  0
  1  5  2  0  0  0  0
  2  6  2  0  0  0  0
  3 10  2  0  0  0  0
  3 18  1  0  0  0  0
  4 11  1  0  0  0  0
  4 18  2  0  0  0  0
  5 20  1  0  0  0  0
  6 22  1  0  0  0  0
  7 12  2  0  0  0  0
  7 21  1  0  0  0  0
  8  9  2  0  0  0  0
  8 24  1  0  0  0  0
  9 26  1  0  0  0  0
 10 27  1  0  0  0  0
 11 27  2  0  0  0  0
 12 28  1  0  0  0  0
 13 14  2  0  0  0  0
 13 29  1  0  0  0  0
 14 30  1  0  0  0  0
 15 23  1  0  0  0  0
 15 28  2  0  0  0  0
 16 24  2  0  0  0  0
 16 25  1  0  0  0  0
 17 30  2  0  0  0  0
 17 31  1  0  0  0  0
 18 32  1  0  0  0  0
 19 32  1  0  0  0  0
 19 33  2  0  0  0  0
 19 35  1  0  0  0  0
 20 22  2  0  0  0  0
 20 40  1  0  0  0  0
 21 23  2  0  0  0  0
 21 41  1  0  0  0  0
 22 52  1  0  0  0  0
 23 42  1  0  0  0  0
 24 62  1  0  0  0  0
 25 26  2  0  0  0  0
 25 56  1  0  0  0  0
 26 73  1  0  0  0  0
 27 83  1  0  0  0  0
 28 84  1  0  0  0  0
 29 31  2  0  0  0  0
 29 83  1  0  0  0  0
 30 85  1  0  0  0  0
 31 86  1  0  0  0  0
 32 66  2  0  0  0  0
 33 67  1  0  0  0  0
 33 71  1  0  0  0  0
 34 53  1  0  0  0  0
 34 68  1  0  0  0  0
 34 77  2  0  0  0  0
 35 72  1  0  0  0  0
 35 78  2  0  0  0  0
 36 54  1  0  0  0  0
 36 74  1  0  0  0  0
 36 79  2  0  0  0  0
 37 63  1  0  0  0  0
 37 69  1  0  0  0  0
 37 80  2  0  0  0  0
 38 64  1  0  0  0  0
 38 75  1  0  0  0  0
 38 81  2  0  0  0  0
 39 70  1  0  0  0  0
 39 73  1  0  0  0  0
 39 82  2  0  0  0  0
 40 43  1  0  0  0  0
 41 54  1  0  0  0  0
 42 69  1  0  0  0  0
 43 46  1  0  0  0  0
 44 47  1  0  0  0  0
 44 49  1  0  0  0  0
 45 48  1  0  0  0  0
 45 50  1  0  0  0  0
 46 52  1  0  0  0  0
 47 53  1  0  0  0  0
 48 55  1  0  0  0  0
 49 68  1  0  0  0  0
 50 70  1  0  0  0  0
 51 55  1  0  0  0  0
 51 70  1  0  0  0  0
 52 74  1  0  0  0  0
 53 84  1  0  0  0  0
 54 69  1  0  0  0  0
 55 67  1  0  0  0  0
 57 64  1  0  0  0  0
 58 65  1  0  0  0  0
 59 65  1  0  0  0  0
 60 65  1  0  0  0  0
 61 76  1  0  0  0  0
 62 68  1  0  0  0  0
 63 65  1  0  0  0  0
 63 75  1  0  0  0  0
 64 76  1  0  0  0  0
 66 67  1  0  0  0  0
M  CHG  1  76   1
M  ISO  4  39 100  53 101  73 100  84 101
M  END
> <Batch ID>
0044

> <Smiles>
CNC(C)C(=O)NC(C(=O)N1Cc2cc([101O:1][101CH:1]3CCCN(Cc4ccc([100NH:0][100C:0](=O)N5CCCC(n6nc(-c7ccc(Oc8ccc(F)cc8F)cc7)c(C(N)=O)c6N)C5)c(C)c4)C3=O)ccc2CC1C(=O)NC1CCCc2ccccc21)C(C)(C)C

> <Shape>
0.231

> <Color>
0.060

> <Negative vol penalty>
0.000

$$$$

  -OEChem-04042322183D

 85 93  0     1  0  0  0  0  0999 V2000
  -28.1666  -25.4200   15.9575 C   0  0  0  0  0  0  0  0  0  0  0  0
  -27.0055  -25.4805   16.7215 C   0  0  0  0  0  0  0  0  0  0  0  0
  -25.2445  -12.5393   19.6245 C   0  0  0  0  0  0  0  0  0  0  0  0
  -24.7951  -13.1149   21.9275 C   0  0  0  0  0  0  0  0  0  0  0  0
  -29.3566  -25.9477   16.4568 C   0  0  0  0  0  0  0  0  0  0  0  0
  -27.0341  -26.0679   17.9859 C   0  0  0  0  0  0  0  0  0  0  0  0
  -23.1051  -29.1626   18.7797 C   0  0  0  0  0  0  0  0  0  0  0  0
  -25.5131  -11.2246   20.0055 C   0  0  0  0  0  0  0  0  0  0  0  0
  -25.0637  -11.8002   22.3085 C   0  0  0  0  0  0  0  0  0  0  0  0
  -21.8813  -28.5711   19.0901 C   0  0  0  0  0  0  0  0  0  0  0  0
  -25.2801   -8.5103   23.8408 C   0  0  0  0  0  0  0  0  0  0  0  0
  -24.4024   -7.9022   24.7382 C   0  0  0  0  0  0  0  0  0  0  0  0
  -22.2516  -29.0449   21.4262 C   0  0  0  0  0  0  0  0  0  0  0  0
  -22.8833  -24.7329   23.2818 C   0  0  0  0  0  0  0  0  0  0  0  0
  -24.8624  -23.7349   22.3206 C   0  0  0  0  0  0  0  0  0  0  0  0
  -22.5879   -8.2121   23.1734 C   0  0  0  0  0  0  0  0  0  0  0  0
  -24.8855  -13.4844   20.5856 C   0  0  0  0  0  0  0  0  0  0  0  0
  -23.3638  -15.3815   19.8154 C   0  0  0  0  0  0  0  0  0  0  0  0
  -29.3976  -26.5504   17.7240 C   0  0  0  0  0  0  0  0  0  0  0  0
  -23.9177  -29.6908   19.7932 C   0  0  0  0  0  0  0  0  0  0  0  0
  -28.2261  -26.6029   18.5032 C   0  0  0  0  0  0  0  0  0  0  0  0
  -23.4840  -29.6448   21.1259 C   0  0  0  0  0  0  0  0  0  0  0  0
  -22.1141  -23.6755   22.7962 C   0  0  0  0  0  0  0  0  0  0  0  0
  -22.7191  -22.6478   22.0728 C   0  0  0  0  0  0  0  0  0  0  0  0
  -24.0933  -22.6774   21.8350 C   0  0  0  0  0  0  0  0  0  0  0  0
  -25.4227  -10.8551   21.3475 C   0  0  0  0  0  0  0  0  0  0  0  0
  -21.4557  -28.5096   20.4138 C   0  0  0  0  0  0  0  0  0  0  0  0
  -24.8117   -8.9694   22.6097 C   0  0  0  0  0  0  0  0  0  0  0  0
  -23.0563   -7.7530   24.4045 C   0  0  0  0  0  0  0  0  0  0  0  0
  -23.4656   -8.8203   22.2760 C   0  0  0  0  0  0  0  0  0  0  0  0
  -24.2574  -24.7626   23.0440 C   0  0  0  0  0  0  0  0  0  0  0  0
  -24.6085  -14.8427   20.1927 C   0  0  0  0  0  0  0  0  0  0  0  0
  -23.6302  -16.7002   19.5387 C   0  0  0  0  0  0  0  0  0  0  0  0
  -19.6973  -25.3402   21.8055 C   0  0  0  0  0  0  0  0  0  0  0  0
  -22.0815  -14.7467   19.7234 C   0  0  0  0  0  0  0  0  0  0  0  0
  -26.8350  -29.0602   20.8864 C   0  0  0  0  0  0  0  0  0  0  0  0
  -26.3022  -31.6963   22.7001 C   0  0  0  0  0  0  0  0  0  0  0  0
  -24.0471  -33.8012   24.1599 C   0  0  0  0  0  0  0  0  0  0  0  0
  -26.0827  -21.5403   20.7882 C   0  0  0  0  0  0  0  0  0  0  0  0
  -30.7179  -27.0647   18.2408 C   0  0  0  0  0  0  0  0  0  0  0  0
  -25.2228  -30.3494   19.4391 C   0  0  0  0  0  0  0  0  0  0  0  0
  -24.3100  -30.2155   22.2487 C   0  0  0  0  0  0  0  0  0  0  0  0
  -30.5797  -28.0053   19.4351 C   0  0  0  0  0  0  0  0  0  0  0  0
  -28.0394  -19.1353   19.0377 C   0  0  0  0  0  0  0  0  0  0  0  0
  -29.6147  -27.4241   20.4636 C   0  0  0  0  0  0  0  0  0  0  0  0
  -27.2188  -17.8485   19.1511 C   0  0  0  0  0  0  0  0  0  0  0  0
  -27.9537  -19.9765   20.3100 C   0  0  0  0  0  0  0  0  0  0  0  0
  -25.7697  -18.9890   20.8792 C   0  0  0  0  0  0  0  0  0  0  0  0
  -28.2114  -27.2542   19.8691 C   0  0  1  0  0  0  0  0  0  0  0  0
  -26.2049  -30.3950   20.6056 C   0  0  1  0  0  0  0  0  0  0  0  0
  -25.7727  -18.1397   19.5976 C   0  0  2  0  0  0  0  0  0  0  0  0
  -21.6138  -21.6415   20.0597 C   0  0  0  0  0  0  0  0  0  0  0  0
  -23.9122  -35.8439   25.6113 C   0  0  0  0  0  0  0  0  0  0  0  0
  -27.0046  -30.0055   25.1409 C   0  0  0  0  0  0  0  0  0  0  0  0
  -25.9536  -31.7668   26.5767 C   0  0  0  0  0  0  0  0  0  0  0  0
  -27.9397  -32.3248   25.1743 C   0  0  0  0  0  0  0  0  0  0  0  0
  -22.6416  -35.3421   22.0602 C   0  0  0  0  0  0  0  0  0  0  0  0
  -21.8899  -21.5152   21.5537 C   0  0  0  0  0  0  0  0  0  0  0  0
  -20.6355  -23.6678   23.0664 C   0  0  0  0  0  0  0  0  0  0  0  0
  -18.9244  -25.9358   20.6590 C   0  0  0  0  0  0  0  0  0  0  0  0
  -19.8114  -26.8810   19.8662 C   0  0  0  0  0  0  0  0  0  1  0  0
  -25.7005  -31.9543   24.0604 C   0  0  1  0  0  0  0  0  0  0  0  0
  -23.9534  -35.3161   24.1856 C   0  0  2  0  0  0  0  0  0  0  0  0
  -26.6347  -31.5003   25.2174 C   0  0  0  0  0  0  0  0  0  0  0  0
  -25.5924  -15.7454   20.1596 N   0  0  0  0  0  0  0  0  0  0  0  0
  -19.8662  -24.0668   21.8915 N   0  0  0  0  0  0  0  0  0  0  0  0
  -24.9662  -16.8646   19.7582 N   0  0  0  0  0  0  0  0  0  0  0  0
  -25.5812  -30.8435   21.8523 N   0  0  0  0  0  0  0  0  0  0  0  0
  -26.5543  -20.2159   20.6695 N   0  0  0  0  0  0  0  0  0  0  0  0
  -22.8496  -17.7235   19.1314 N   0  0  0  0  0  0  0  0  0  0  0  0
  -21.9852  -13.3857   20.0440 N   0  0  0  0  0  0  0  0  0  0  0  0
  -24.7279  -21.6440   21.1022 N   0  0  0  0  0  0  0  0  0  0  0  0
  -27.5276  -28.5286   19.8153 N   0  0  0  0  0  0  0  0  0  0  0  0
  -25.3556  -33.3715   24.0920 N   0  0  0  0  0  0  0  0  0  0  0  0
  -22.7219  -35.7709   23.4803 N   0  3  0  0  0  0  0  0  0  0  0  0
  -21.0548  -15.3641   19.3517 O   0  0  0  0  0  0  0  0  0  0  0  0
  -26.7039  -28.5510   21.9933 O   0  0  0  0  0  0  0  0  0  0  0  0
  -27.3688  -32.2373   22.3981 O   0  0  0  0  0  0  0  0  0  0  0  0
  -23.0587  -33.0718   24.2002 O   0  0  0  0  0  0  0  0  0  0  0  0
  -26.8194  -22.5112   20.5967 O   0  0  0  0  0  0  0  0  0  0  0  0
  -25.6846   -9.5723   21.7196 O   0  0  0  0  0  0  0  0  0  0  0  0
  -20.2619  -27.9323   20.7195 O   0  0  0  0  0  0  0  0  0  1  0  0
  -22.2138   -7.1676   25.2657 F   0  0  0  0  0  0  0  0  0  0  0  0
  -23.0100   -9.2583   21.0943 F   0  0  0  0  0  0  0  0  0  0  0  0
  -25.2060  -26.0680   23.6423 Cl  0  0  0  0  0  0  0  0  0  0  0  0
  1  2  1  0  0  0  0
  1  5  2  0  0  0  0
  2  6  2  0  0  0  0
  3  8  2  0  0  0  0
  3 17  1  0  0  0  0
  4  9  1  0  0  0  0
  4 17  2  0  0  0  0
  5 19  1  0  0  0  0
  6 21  1  0  0  0  0
  7 10  2  0  0  0  0
  7 20  1  0  0  0  0
  8 26  1  0  0  0  0
  9 26  2  0  0  0  0
 10 27  1  0  0  0  0
 11 12  2  0  0  0  0
 11 28  1  0  0  0  0
 12 29  1  0  0  0  0
 13 22  1  0  0  0  0
 13 27  2  0  0  0  0
 14 23  2  0  0  0  0
 14 31  1  0  0  0  0
 15 25  1  0  0  0  0
 15 31  2  0  0  0  0
 16 29  2  0  0  0  0
 16 30  1  0  0  0  0
 17 32  1  0  0  0  0
 18 32  1  0  0  0  0
 18 33  2  0  0  0  0
 18 35  1  0  0  0  0
 19 21  2  0  0  0  0
 19 40  1  0  0  0  0
 20 22  2  0  0  0  0
 20 41  1  0  0  0  0
 21 49  1  0  0  0  0
 22 42  1  0  0  0  0
 23 24  1  0  0  0  0
 23 59  1  0  0  0  0
 24 25  2  0  0  0  0
 24 58  1  0  0  0  0
 25 72  1  0  0  0  0
 26 81  1  0  0  0  0
 27 82  1  0  0  0  0
 28 30  2  0  0  0  0
 28 81  1  0  0  0  0
 29 83  1  0  0  0  0
 30 84  1  0  0  0  0
 31 85  1  0  0  0  0
 32 65  2  0  0  0  0
 33 67  1  0  0  0  0
 33 70  1  0  0  0  0
 34 60  1  0  0  0  0
 34 66  2  0  0  0  0
 35 71  1  0  0  0  0
 35 76  2  0  0  0  0
 36 50  1  0  0  0  0
 36 73  1  0  0  0  0
 36 77  2  0  0  0  0
 37 62  1  0  0  0  0
 37 68  1  0  0  0  0
 37 78  2  0  0  0  0
 38 63  1  0  0  0  0
 38 74  1  0  0  0  0
 38 79  2  0  0  0  0
 39 69  1  0  0  0  0
 39 72  1  0  0  0  0
 39 80  2  0  0  0  0
 40 43  1  0  0  0  0
 41 50  1  0  0  0  0
 42 68  1  0  0  0  0
 43 45  1  0  0  0  0
 44 46  1  0  0  0  0
 44 47  1  0  0  0  0
 45 49  1  0  0  0  0
 46 51  1  0  0  0  0
 47 69  1  0  0  0  0
 48 51  1  0  0  0  0
 48 69  1  0  0  0  0
 49 73  1  0  0  0  0
 50 68  1  0  0  0  0
 51 67  1  0  0  0  0
 52 58  1  0  0  0  0
 53 63  1  0  0  0  0
 54 64  1  0  0  0  0
 55 64  1  0  0  0  0
 56 64  1  0  0  0  0
 57 75  1  0  0  0  0
 59 66  1  0  0  0  0
 60 61  1  0  0  0  0
 61 82  1  0  0  0  0
 62 64  1  0  0  0  0
 62 74  1  0  0  0  0
 63 75  1  0  0  0  0
 65 67  1  0  0  0  0
M  CHG  1  75   1
M  ISO  4  39 100  61 101  72 100  82 101
M  END
> <Batch ID>
0044

> <Smiles>
CCc1c(CNC=C[101CH2:1][101O:1]c2ccc3c(c2)CN(C(=O)C(NC(=O)C(C)NC)C(C)(C)C)C(C(=O)NC2CCCc4ccccc42)C3)cc(Cl)cc1[100NH:0][100C:0](=O)N1CCCC(n2nc(-c3ccc(Oc4ccc(F)cc4F)cc3)c(C(N)=O)c2N)C1

> <Shape>
0.269

> <Color>
0.083

> <Negative vol penalty>
0.000

$$$$

  -OEChem-04042322183D

 87 96  0     1  0  0  0  0  0999 V2000
  -18.2453  -33.1189   23.6788 C   0  0  0  0  0  0  0  0  0  0  0  0
  -19.5344  -33.2769   23.1803 C   0  0  0  0  0  0  0  0  0  0  0  0
  -23.4660  -12.1795   20.2705 C   0  0  0  0  0  0  0  0  0  0  0  0
  -25.7819  -12.1994   20.9586 C   0  0  0  0  0  0  0  0  0  0  0  0
  -17.8588  -31.9003   24.2354 C   0  0  0  0  0  0  0  0  0  0  0  0
  -20.4383  -32.2167   23.2389 C   0  0  0  0  0  0  0  0  0  0  0  0
  -25.9230  -29.3501   19.6310 C   0  0  0  0  0  0  0  0  0  0  0  0
  -23.5091  -10.7893   20.1655 C   0  0  0  0  0  0  0  0  0  0  0  0
  -25.8250  -10.8091   20.8536 C   0  0  0  0  0  0  0  0  0  0  0  0
  -27.2387  -28.9318   19.8250 C   0  0  0  0  0  0  0  0  0  0  0  0
  -23.3805   -8.1288   22.2483 C   0  0  0  0  0  0  0  0  0  0  0  0
  -22.3171   -7.4048   22.7873 C   0  0  0  0  0  0  0  0  0  0  0  0
  -26.4354  -26.8478   20.7366 C   0  0  0  0  0  0  0  0  0  0  0  0
  -29.0283  -22.1037   22.5434 C   0  0  0  0  0  0  0  0  0  0  0  0
  -27.7849  -22.2200   25.0381 C   0  0  0  0  0  0  0  0  0  0  0  0
  -21.8413   -6.4802   20.6064 C   0  0  0  0  0  0  0  0  0  0  0  0
  -24.6024  -12.8846   20.6670 C   0  0  0  0  0  0  0  0  0  0  0  0
  -23.7197  -15.0854   21.6076 C   0  0  0  0  0  0  0  0  0  0  0  0
  -18.7554  -30.8216   24.2921 C   0  0  0  0  0  0  0  0  0  0  0  0
  -24.8517  -28.5234   19.9990 C   0  0  0  0  0  0  0  0  0  0  0  0
  -20.0639  -30.9830   23.7980 C   0  0  0  0  0  0  0  0  0  0  0  0
  -25.1070  -27.2569   20.5439 C   0  0  0  0  0  0  0  0  0  0  0  0
  -29.5401  -22.9351   23.5397 C   0  0  0  0  0  0  0  0  0  0  0  0
  -27.2731  -21.3887   24.0418 C   0  0  0  0  0  0  0  0  0  0  0  0
  -27.8948  -21.3306   22.7944 C   0  0  0  0  0  0  0  0  0  0  0  0
  -24.6885  -10.1041   20.4571 C   0  0  0  0  0  0  0  0  0  0  0  0
  -27.4951  -27.6817   20.3805 C   0  0  0  0  0  0  0  0  0  0  0  0
  -23.6743   -8.0287   20.8884 C   0  0  0  0  0  0  0  0  0  0  0  0
  -21.5475   -6.5805   21.9663 C   0  0  0  0  0  0  0  0  0  0  0  0
  -22.9047   -7.2043   20.0675 C   0  0  0  0  0  0  0  0  0  0  0  0
  -28.9185  -22.9932   24.7870 C   0  0  0  0  0  0  0  0  0  0  0  0
  -24.5587  -14.3207   20.7751 C   0  0  0  0  0  0  0  0  0  0  0  0
  -24.0650  -16.3876   21.3401 C   0  0  0  0  0  0  0  0  0  0  0  0
  -29.5334  -25.4983   22.0000 C   0  0  0  0  0  0  0  0  0  0  0  0
  -22.7179  -14.6570   22.5395 C   0  0  0  0  0  0  0  0  0  0  0  0
  -22.4479  -28.7537   22.0661 C   0  0  0  0  0  0  0  0  0  0  0  0
  -21.5065  -25.9742   20.6839 C   0  0  0  0  0  0  0  0  0  0  0  0
  -23.0805  -22.9329   19.5478 C   0  0  0  0  0  0  0  0  0  0  0  0
  -27.9003  -20.3319   20.4817 C   0  0  0  0  0  0  0  0  0  0  0  0
  -18.3069  -29.5386   24.9459 C   0  0  0  0  0  0  0  0  0  0  0  0
  -23.4383  -28.9784   19.7586 C   0  0  0  0  0  0  0  0  0  0  0  0
  -23.9924  -26.3234   20.9370 C   0  0  0  0  0  0  0  0  0  0  0  0
  -19.2072  -28.3470   24.6300 C   0  0  0  0  0  0  0  0  0  0  0  0
  -30.7783  -27.5494   23.6823 C   0  0  0  0  0  0  0  0  0  0  0  0
  -26.9668  -18.3409   17.6814 C   0  0  0  0  0  0  0  0  0  0  0  0
  -20.6749  -28.7287   24.7933 C   0  0  0  0  0  0  0  0  0  0  0  0
  -30.3017  -27.9054   22.2897 C   0  0  0  0  0  0  0  0  0  0  0  0
  -26.1881  -17.1804   18.3051 C   0  0  0  0  0  0  0  0  0  0  0  0
  -31.2932  -26.1212   23.6962 C   0  0  0  0  0  0  0  0  0  0  0  0
  -28.1388  -18.7746   18.5600 C   0  0  0  0  0  0  0  0  0  0  0  0
  -27.0116  -17.9201   20.5770 C   0  0  0  0  0  0  0  0  0  0  0  0
  -21.0652  -29.8485   23.8211 C   0  0  1  0  0  0  0  0  0  0  0  0
  -29.1698  -26.9744   21.9018 C   0  0  1  0  0  0  0  0  0  1  0  0
  -22.4221  -28.2654   20.6453 C   0  0  1  0  0  0  0  0  0  0  0  0
  -25.7825  -17.4910   19.7593 C   0  0  2  0  0  0  0  0  0  0  0  0
  -26.0573  -20.5718   24.3385 C   0  0  0  0  0  0  0  0  0  0  0  0
  -22.3884  -21.3037   17.7691 C   0  0  0  0  0  0  0  0  0  0  0  0
  -20.1906  -24.4645   22.9859 C   0  0  0  0  0  0  0  0  0  0  0  0
  -20.9079  -22.3252   21.9009 C   0  0  0  0  0  0  0  0  0  0  0  0
  -19.3355  -23.8567   20.7157 C   0  0  0  0  0  0  0  0  0  0  0  0
  -25.6727  -23.1877   18.1427 C   0  0  0  0  0  0  0  0  0  0  0  0
  -30.7615  -23.7514   23.2299 C   0  0  0  0  0  0  0  0  0  0  0  0
  -21.7674  -24.5098   20.9419 C   0  0  1  0  0  0  0  0  0  0  0  0
  -23.2738  -22.4927   18.1079 C   0  0  2  0  0  0  0  0  0  0  0  0
  -20.5695  -23.8090   21.6429 C   0  0  0  0  0  0  0  0  0  0  0  0
  -25.3754  -15.0743   20.0340 N   0  0  0  0  0  0  0  0  0  0  0  0
  -25.0512  -16.3261   20.4000 N   0  0  0  0  0  0  0  0  0  0  0  0
  -30.4374  -25.1541   23.0067 N   0  0  0  0  0  0  0  0  0  0  0  0
  -22.6276  -26.8162   20.6880 N   0  0  0  0  0  0  0  0  0  0  0  0
  -27.6784  -19.0561   19.9215 N   0  0  0  0  0  0  0  0  0  0  0  0
  -23.6182  -17.5678   21.8197 N   0  0  0  0  0  0  0  0  0  0  0  0
  -22.4909  -13.2823   22.6914 N   0  0  0  0  0  0  0  0  0  0  0  0
  -27.3896  -20.4929   21.7693 N   0  0  0  0  0  0  0  0  0  0  0  0
  -21.2590  -29.3167   22.4892 N   0  0  0  0  0  0  0  0  0  0  0  0
  -22.1309  -23.9269   19.6549 N   0  0  0  0  0  0  0  0  0  0  0  0
  -24.6930  -22.1044   17.8711 N   0  3  0  0  0  0  0  0  0  0  0  0
  -28.9858  -24.6798   21.2568 O   0  0  0  0  0  0  0  0  0  0  0  0
  -22.0326  -15.4697   23.2054 O   0  0  0  0  0  0  0  0  0  0  0  0
  -23.4703  -28.6276   22.7298 O   0  0  0  0  0  0  0  0  0  0  0  0
  -20.3515  -26.3557   20.4789 O   0  0  0  0  0  0  0  0  0  0  0  0
  -23.7063  -22.4412   20.4844 O   0  0  0  0  0  0  0  0  0  0  0  0
  -28.4752  -21.2251   19.8542 O   0  0  0  0  0  0  0  0  0  0  0  0
  -24.7309   -8.7475   20.3550 O   0  0  0  0  0  0  0  0  0  0  0  0
  -28.7784  -27.2712   20.5716 O   0  0  0  0  0  0  0  0  0  1  0  0
  -20.5273   -5.8840   22.4843 F   0  0  0  0  0  0  0  0  0  0  0  0
  -23.1829   -7.1031   18.7605 F   0  0  0  0  0  0  0  0  0  0  0  0
  -29.5233  -24.0106   26.0435 Cl  0  0  0  0  0  0  0  0  0  0  0  0
  1  2  1  0  0  0  0
  1  5  2  0  0  0  0
  2  6  2  0  0  0  0
  3  8  2  0  0  0  0
  3 17  1  0  0  0  0
  4  9  1  0  0  0  0
  4 17  2  0  0  0  0
  5 19  1  0  0  0  0
  6 21  1  0  0  0  0
  7 10  2  0  0  0  0
  7 20  1  0  0  0  0
  8 26  1  0  0  0  0
  9 26  2  0  0  0  0
 10 27  1  0  0  0  0
 11 12  2  0  0  0  0
 11 28  1  0  0  0  0
 12 29  1  0  0  0  0
 13 22  1  0  0  0  0
 13 27  2  0  0  0  0
 14 23  1  0  0  0  0
 14 25  2  0  0  0  0
 15 24  2  0  0  0  0
 15 31  1  0  0  0  0
 16 29  2  0  0  0  0
 16 30  1  0  0  0  0
 17 32  1  0  0  0  0
 18 32  1  0  0  0  0
 18 33  2  0  0  0  0
 18 35  1  0  0  0  0
 19 21  2  0  0  0  0
 19 40  1  0  0  0  0
 20 22  2  0  0  0  0
 20 41  1  0  0  0  0
 21 52  1  0  0  0  0
 22 42  1  0  0  0  0
 23 31  2  0  0  0  0
 23 62  1  0  0  0  0
 24 25  1  0  0  0  0
 24 56  1  0  0  0  0
 25 73  1  0  0  0  0
 26 83  1  0  0  0  0
 27 84  1  0  0  0  0
 28 30  2  0  0  0  0
 28 83  1  0  0  0  0
 29 85  1  0  0  0  0
 30 86  1  0  0  0  0
 31 87  1  0  0  0  0
 32 66  2  0  0  0  0
 33 67  1  0  0  0  0
 33 71  1  0  0  0  0
 34 53  1  0  0  0  0
 34 68  1  0  0  0  0
 34 77  2  0  0  0  0
 35 72  1  0  0  0  0
 35 78  2  0  0  0  0
 36 54  1  0  0  0  0
 36 74  1  0  0  0  0
 36 79  2  0  0  0  0
 37 63  1  0  0  0  0
 37 69  1  0  0  0  0
 37 80  2  0  0  0  0
 38 64  1  0  0  0  0
 38 75  1  0  0  0  0
 38 81  2  0  0  0  0
 39 70  1  0  0  0  0
 39 73  1  0  0  0  0
 39 82  2  0  0  0  0
 40 43  1  0  0  0  0
 41 54  1  0  0  0  0
 42 69  1  0  0  0  0
 43 46  1  0  0  0  0
 44 47  1  0  0  0  0
 44 49  1  0  0  0  0
 45 48  1  0  0  0  0
 45 50  1  0  0  0  0
 46 52  1  0  0  0  0
 47 53  1  0  0  0  0
 48 55  1  0  0  0  0
 49 68  1  0  0  0  0
 50 70  1  0  0  0  0
 51 55  1  0  0  0  0
 51 70  1  0  0  0  0
 52 74  1  0  0  0  0
 53 84  1  0  0  0  0
 54 69  1  0  0  0  0
 55 67  1  0  0  0  0
 57 64  1  0  0  0  0
 58 65  1  0  0  0  0
 59 65  1  0  0  0  0
 60 65  1  0  0  0  0
 61 76  1  0  0  0  0
 62 68  1  0  0  0  0
 63 65  1  0  0  0  0
 63 75  1  0  0  0  0
 64 76  1  0  0  0  0
 66 67  1  0  0  0  0
M  CHG  1  76   1
M  ISO  4  39 100  53 101  73 100  84 101
M  END
> <Batch ID>
0044

> <Smiles>
CNC(C)C(=O)NC(C(=O)N1Cc2cc([101O:1][101CH:1]3CCCN(Cc4cc([100NH:0][100C:0](=O)N5CCCC(n6nc(-c7ccc(Oc8ccc(F)cc8F)cc7)c(C(N)=O)c6N)C5)c(C)cc4Cl)C3=O)ccc2CC1C(=O)NC1CCCc2ccccc21)C(C)(C)C

> <Shape>
0.215

> <Color>
0.095

> <Negative vol penalty>
0.000

$$$$

  -OEChem-04042322183D

 88 97  0     1  0  0  0  0  0999 V2000
  -18.0829  -25.6068   20.2902 C   0  0  0  0  0  0  0  0  0  0  0  0
  -19.0890  -25.9567   19.3953 C   0  0  0  0  0  0  0  0  0  0  0  0
  -28.5191  -14.0650   21.2358 C   0  0  0  0  0  0  0  0  0  0  0  0
  -26.7048  -15.1025   20.0238 C   0  0  0  0  0  0  0  0  0  0  0  0
  -18.0561  -26.1736   21.5637 C   0  0  0  0  0  0  0  0  0  0  0  0
  -20.0684  -26.8746   19.7732 C   0  0  0  0  0  0  0  0  0  0  0  0
  -25.9610  -26.8666   18.1051 C   0  0  0  0  0  0  0  0  0  0  0  0
  -27.7938  -12.8756   21.3036 C   0  0  0  0  0  0  0  0  0  0  0  0
  -25.9794  -13.9130   20.0915 C   0  0  0  0  0  0  0  0  0  0  0  0
  -26.6591  -27.5694   17.1240 C   0  0  0  0  0  0  0  0  0  0  0  0
  -25.2512  -11.6100   23.1362 C   0  0  0  0  0  0  0  0  0  0  0  0
  -25.2143  -10.9431   24.3607 C   0  0  0  0  0  0  0  0  0  0  0  0
  -27.3159  -29.2047   18.7713 C   0  0  0  0  0  0  0  0  0  0  0  0
  -31.7826  -25.8023   18.0283 C   0  0  0  0  0  0  0  0  0  0  0  0
  -30.5124  -25.1151   16.0916 C   0  0  0  0  0  0  0  0  0  0  0  0
  -26.2336   -9.0067   23.3368 C   0  0  0  0  0  0  0  0  0  0  0  0
  -27.9746  -15.1785   20.5960 C   0  0  0  0  0  0  0  0  0  0  0  0
  -29.9820  -16.6036   19.9274 C   0  0  0  0  0  0  0  0  0  0  0  0
  -19.0412  -27.0916   21.9608 C   0  0  0  0  0  0  0  0  0  0  0  0
  -25.9260  -27.3343   19.4267 C   0  0  0  0  0  0  0  0  0  0  0  0
  -20.0540  -27.4552   21.0528 C   0  0  0  0  0  0  0  0  0  0  0  0
  -26.6188  -28.5047   19.7678 C   0  0  0  0  0  0  0  0  0  0  0  0
  -31.4781  -25.9362   16.6738 C   0  0  0  0  0  0  0  0  0  0  0  0
  -31.1216  -24.8472   18.8007 C   0  0  0  0  0  0  0  0  0  0  0  0
  -29.8514  -24.1600   16.8639 C   0  0  0  0  0  0  0  0  0  0  0  0
  -30.1560  -24.0261   18.2185 C   0  0  0  0  0  0  0  0  0  0  0  0
  -26.5239  -12.7995   20.7314 C   0  0  0  0  0  0  0  0  0  0  0  0
  -27.3342  -28.7402   17.4564 C   0  0  0  0  0  0  0  0  0  0  0  0
  -25.7793  -10.9752   22.0119 C   0  0  0  0  0  0  0  0  0  0  0  0
  -25.7055   -9.6415   24.4610 C   0  0  0  0  0  0  0  0  0  0  0  0
  -26.2705   -9.6736   22.1123 C   0  0  0  0  0  0  0  0  0  0  0  0
  -28.7232  -16.4077   20.5262 C   0  0  0  0  0  0  0  0  0  0  0  0
  -30.2549  -17.9345   20.1290 C   0  0  0  0  0  0  0  0  0  0  0  0
  -30.6148  -28.8112   15.3935 C   0  0  0  0  0  0  0  0  0  0  0  0
  -30.8290  -15.6662   19.2493 C   0  0  0  0  0  0  0  0  0  0  0  0
  -23.6331  -28.3040   21.4030 C   0  0  0  0  0  0  0  0  0  0  0  0
  -26.0625  -28.3992   23.5504 C   0  0  0  0  0  0  0  0  0  0  0  0
  -29.4170  -28.6628   24.1202 C   0  0  0  0  0  0  0  0  0  0  0  0
  -28.6967  -23.2801   20.1317 C   0  0  0  0  0  0  0  0  0  0  0  0
  -18.9437  -27.7136   23.3313 C   0  0  0  0  0  0  0  0  0  0  0  0
  -25.1907  -26.5502   20.4788 C   0  0  0  0  0  0  0  0  0  0  0  0
  -26.6291  -29.0380   21.1763 C   0  0  0  0  0  0  0  0  0  0  0  0
  -20.2326  -28.3946   23.7842 C   0  0  0  0  0  0  0  0  0  0  0  0
  -32.2315  -30.5118   17.2253 C   0  0  0  0  0  0  0  0  0  0  0  0
  -27.9374  -21.3682   23.0378 C   0  0  0  0  0  0  0  0  0  0  0  0
  -20.7955  -29.2684   22.6678 C   0  0  0  0  0  0  0  0  0  0  0  0
  -31.3975  -31.0699   16.0818 C   0  0  0  0  0  0  0  0  0  0  0  0
  -28.1777  -19.9233   22.5942 C   0  0  0  0  0  0  0  0  0  0  0  0
  -32.2583  -28.9866   17.2769 C   0  0  0  0  0  0  0  0  0  0  0  0
  -27.3358  -22.2132   21.9163 C   0  0  0  0  0  0  0  0  0  0  0  0
  -28.3178  -20.7371   20.2056 C   0  0  0  0  0  0  0  0  0  0  0  0
  -21.1483  -28.4284   21.4344 C   0  0  1  0  0  0  0  0  0  0  0  0
  -30.1723  -30.2124   15.7835 C   0  0  2  0  0  0  0  0  0  0  0  0
  -24.7954  -27.3949   21.6862 C   0  0  1  0  0  0  0  0  0  0  0  0
  -28.9832  -19.8634   21.2815 C   0  0  2  0  0  0  0  0  0  0  0  0
  -31.4701  -24.7272   20.2492 C   0  0  0  0  0  0  0  0  0  0  0  0
  -28.8213  -23.2952   16.2119 C   0  0  0  0  0  0  0  0  0  0  0  0
  -31.5640  -28.6779   25.4191 C   0  0  0  0  0  0  0  0  0  0  0  0
  -25.2654  -31.2857   24.1358 C   0  0  0  0  0  0  0  0  0  0  0  0
  -27.4893  -31.6022   25.2414 C   0  0  0  0  0  0  0  0  0  0  0  0
  -25.8692  -29.9401   26.1555 C   0  0  0  0  0  0  0  0  0  0  0  0
  -29.7570  -25.7386   23.8156 C   0  0  0  0  0  0  0  0  0  0  0  0
  -32.1898  -26.9640   15.8423 C   0  0  0  0  0  0  0  0  0  0  0  0
  -29.1613  -30.1665   16.9242 C   0  0  0  0  0  0  0  0  0  1  0  0
  -27.0652  -29.4408   23.9847 C   0  0  1  0  0  0  0  0  0  0  0  0
  -30.3560  -27.8555   24.9982 C   0  0  2  0  0  0  0  0  0  0  0  0
  -26.4207  -30.5585   24.8523 C   0  0  0  0  0  0  0  0  0  0  0  0
  -28.2304  -17.5248   21.0679 N   0  0  0  0  0  0  0  0  0  0  0  0
  -29.1847  -18.4353   20.8101 N   0  0  0  0  0  0  0  0  0  0  0  0
  -31.7036  -28.3103   16.1067 N   0  0  0  0  0  0  0  0  0  0  0  0
  -25.8904  -28.2393   22.1681 N   0  0  0  0  0  0  0  0  0  0  0  0
  -28.1542  -22.1110   20.7061 N   0  0  0  0  0  0  0  0  0  0  0  0
  -31.3034  -18.7135   19.7883 N   0  0  0  0  0  0  0  0  0  0  0  0
  -30.6732  -15.5041   17.8660 N   0  0  0  0  0  0  0  0  0  0  0  0
  -29.4843  -23.0559   19.0030 N   0  0  0  0  0  0  0  0  0  0  0  0
  -22.3988  -27.7296   21.6397 N   0  0  0  0  0  0  0  0  0  0  0  0
  -28.1443  -28.7169   24.6480 N   0  0  0  0  0  0  0  0  0  0  0  0
  -30.8396  -26.6497   24.2680 N   0  3  0  0  0  0  0  0  0  0  0  0
  -30.0083  -28.1955   14.5149 O   0  0  0  0  0  0  0  0  0  0  0  0
  -31.6872  -14.9805   19.8550 O   0  0  0  0  0  0  0  0  0  0  0  0
  -23.8408  -29.4429   21.0010 O   0  0  0  0  0  0  0  0  0  0  0  0
  -25.4595  -27.7465   24.4059 O   0  0  0  0  0  0  0  0  0  0  0  0
  -29.7774  -29.1954   23.0728 O   0  0  0  0  0  0  0  0  0  0  0  0
  -28.5010  -24.3951   20.6221 O   0  0  0  0  0  0  0  0  0  0  0  0
  -25.8159  -11.6389   20.7971 O   0  0  0  0  0  0  0  0  0  0  0  0
  -28.0158  -29.4284   16.5006 O   0  0  0  0  0  0  0  0  0  1  0  0
  -25.6714   -9.0018   25.6374 F   0  0  0  0  0  0  0  0  0  0  0  0
  -26.7801   -9.0590   21.0359 F   0  0  0  0  0  0  0  0  0  0  0  0
  1  2  1  0  0  0  0
  1  5  2  0  0  0  0
  2  6  2  0  0  0  0
  3  8  2  0  0  0  0
  3 17  1  0  0  0  0
  4  9  1  0  0  0  0
  4 17  2  0  0  0  0
  5 19  1  0  0  0  0
  6 21  1  0  0  0  0
  7 10  2  0  0  0  0
  7 20  1  0  0  0  0
  8 27  1  0  0  0  0
  9 27  2  0  0  0  0
 10 28  1  0  0  0  0
 11 12  2  0  0  0  0
 11 29  1  0  0  0  0
 12 30  1  0  0  0  0
 13 22  1  0  0  0  0
 13 28  2  0  0  0  0
 14 23  1  0  0  0  0
 14 24  2  0  0  0  0
 15 23  2  0  0  0  0
 15 25  1  0  0  0  0
 16 30  2  0  0  0  0
 16 31  1  0  0  0  0
 17 32  1  0  0  0  0
 18 32  1  0  0  0  0
 18 33  2  0  0  0  0
 18 35  1  0  0  0  0
 19 21  2  0  0  0  0
 19 40  1  0  0  0  0
 20 22  2  0  0  0  0
 20 41  1  0  0  0  0
 21 52  1  0  0  0  0
 22 42  1  0  0  0  0
 23 63  1  0  0  0  0
 24 26  1  0  0  0  0
 24 56  1  0  0  0  0
 25 26  2  0  0  0  0
 25 57  1  0  0  0  0
 26 75  1  0  0  0  0
 27 85  1  0  0  0  0
 28 86  1  0  0  0  0
 29 31  2  0  0  0  0
 29 85  1  0  0  0  0
 30 87  1  0  0  0  0
 31 88  1  0  0  0  0
 32 68  2  0  0  0  0
 33 69  1  0  0  0  0
 33 73  1  0  0  0  0
 34 53  1  0  0  0  0
 34 70  1  0  0  0  0
 34 79  2  0  0  0  0
 35 74  1  0  0  0  0
 35 80  2  0  0  0  0
 36 54  1  0  0  0  0
 36 76  1  0  0  0  0
 36 81  2  0  0  0  0
 37 65  1  0  0  0  0
 37 71  1  0  0  0  0
 37 82  2  0  0  0  0
 38 66  1  0  0  0  0
 38 77  1  0  0  0  0
 38 83  2  0  0  0  0
 39 72  1  0  0  0  0
 39 75  1  0  0  0  0
 39 84  2  0  0  0  0
 40 43  1  0  0  0  0
 41 54  1  0  0  0  0
 42 71  1  0  0  0  0
 43 46  1  0  0  0  0
 44 47  1  0  0  0  0
 44 49  1  0  0  0  0
 45 48  1  0  0  0  0
 45 50  1  0  0  0  0
 46 52  1  0  0  0  0
 47 53  1  0  0  0  0
 48 55  1  0  0  0  0
 49 70  1  0  0  0  0
 50 72  1  0  0  0  0
 51 55  1  0  0  0  0
 51 72  1  0  0  0  0
 52 76  1  0  0  0  0
 53 64  1  0  0  0  0
 54 71  1  0  0  0  0
 55 69  1  0  0  0  0
 58 66  1  0  0  0  0
 59 67  1  0  0  0  0
 60 67  1  0  0  0  0
 61 67  1  0  0  0  0
 62 78  1  0  0  0  0
 63 70  1  0  0  0  0
 64 86  1  0  0  0  0
 65 67  1  0  0  0  0
 65 77  1  0  0  0  0
 66 78  1  0  0  0  0
 68 69  1  0  0  0  0
M  CHG  1  78   1
M  ISO  4  39 100  64 101  75 100  86 101
M  END
> <Batch ID>
0044

> <Smiles>
CNC(C)C(=O)NC(C(=O)N1Cc2cc([101O:1][101CH2:1]C3CCCN(Cc4cc(C)c([100NH:0][100C:0](=O)N5CCCC(n6nc(-c7ccc(Oc8ccc(F)cc8F)cc7)c(C(N)=O)c6N)C5)c(C)c4)C3=O)ccc2CC1C(=O)NC1CCCc2ccccc21)C(C)(C)C

> <Shape>
0.258

> <Color>
0.070

> <Negative vol penalty>
0.000

$$$$

  -OEChem-04042322183D

 93102  0     1  0  0  0  0  0999 V2000
  -28.5636  -36.7544   22.9584 C   0  0  0  0  0  0  0  0  0  0  0  0
  -28.6746  -35.3760   23.1108 C   0  0  0  0  0  0  0  0  0  0  0  0
  -23.1813  -12.8767   23.4603 C   0  0  0  0  0  0  0  0  0  0  0  0
  -24.2983  -10.7364   23.3687 C   0  0  0  0  0  0  0  0  0  0  0  0
  -27.3151  -37.3671   23.0567 C   0  0  0  0  0  0  0  0  0  0  0  0
  -27.5372  -34.6097   23.3626 C   0  0  0  0  0  0  0  0  0  0  0  0
  -27.3694  -30.4001   20.5526 C   0  0  0  0  0  0  0  0  0  0  0  0
  -31.3756  -18.9107   19.1467 C   0  0  0  0  0  0  0  0  0  0  0  0
  -31.1759  -17.5792   19.5111 C   0  0  0  0  0  0  0  0  0  0  0  0
  -22.5705  -12.5066   24.6585 C   0  0  0  0  0  0  0  0  0  0  0  0
  -23.6876  -10.3663   24.5669 C   0  0  0  0  0  0  0  0  0  0  0  0
  -28.1695  -29.3324   20.9569 C   0  0  0  0  0  0  0  0  0  0  0  0
  -20.6617   -9.2485   25.5794 C   0  0  0  0  0  0  0  0  0  0  0  0
  -20.1068   -7.9711   25.6565 C   0  0  0  0  0  0  0  0  0  0  0  0
  -26.2487  -28.2863   21.9746 C   0  0  0  0  0  0  0  0  0  0  0  0
  -21.5857   -7.4394   27.4915 C   0  0  0  0  0  0  0  0  0  0  0  0
  -24.0452  -11.9915   22.8154 C   0  0  0  0  0  0  0  0  0  0  0  0
  -24.0394  -12.7250   20.3721 C   0  0  0  0  0  0  0  0  0  0  0  0
  -26.1605  -36.6068   23.3003 C   0  0  0  0  0  0  0  0  0  0  0  0
  -26.0028  -30.4243   20.8662 C   0  0  0  0  0  0  0  0  0  0  0  0
  -26.2722  -35.2130   23.4656 C   0  0  0  0  0  0  0  0  0  0  0  0
  -25.4330  -29.3543   21.5709 C   0  0  0  0  0  0  0  0  0  0  0  0
  -30.6406  -19.9213   19.7666 C   0  0  0  0  0  0  0  0  0  0  0  0
  -29.7058  -19.6003   20.7509 C   0  0  0  0  0  0  0  0  0  0  0  0
  -29.5061  -18.2688   21.1153 C   0  0  0  0  0  0  0  0  0  0  0  0
  -30.2412  -17.2582   20.4954 C   0  0  0  0  0  0  0  0  0  0  0  0
  -22.8237  -11.2515   25.2118 C   0  0  0  0  0  0  0  0  0  0  0  0
  -27.6098  -28.2766   21.6706 C   0  0  0  0  0  0  0  0  0  0  0  0
  -21.6787   -9.6213   26.4583 C   0  0  0  0  0  0  0  0  0  0  0  0
  -20.5688   -7.0666   26.6125 C   0  0  0  0  0  0  0  0  0  0  0  0
  -22.1407   -8.7168   27.4143 C   0  0  0  0  0  0  0  0  0  0  0  0
  -24.6760  -12.3730   21.5774 C   0  0  0  0  0  0  0  0  0  0  0  0
  -25.0702  -13.0008   19.5072 C   0  0  0  0  0  0  0  0  0  0  0  0
  -29.3276  -22.7206   22.8056 C   0  0  0  0  0  0  0  0  0  0  0  0
  -25.6604  -22.6220   22.6831 C   0  0  0  0  0  0  0  0  0  0  0  0
  -28.0401  -23.1144   22.8743 C   0  0  0  0  0  0  0  0  0  0  0  0
  -26.9378  -22.2306   22.6148 C   0  0  0  0  0  0  0  0  0  0  0  0
  -22.6414  -12.7965   20.0621 C   0  0  0  0  0  0  0  0  0  0  0  0
  -24.1264  -32.3408   22.5720 C   0  0  0  0  0  0  0  0  0  0  0  0
  -21.7733  -30.4501   21.3842 C   0  0  0  0  0  0  0  0  0  0  0  0
  -20.8647  -27.4313   20.0772 C   0  0  0  0  0  0  0  0  0  0  0  0
  -30.7132  -14.7899   20.3200 C   0  0  0  0  0  0  0  0  0  0  0  0
  -24.8392  -37.3194   23.4453 C   0  0  0  0  0  0  0  0  0  0  0  0
  -25.1480  -31.5705   20.3996 C   0  0  0  0  0  0  0  0  0  0  0  0
  -23.9670  -29.3226   21.9151 C   0  0  0  0  0  0  0  0  0  0  0  0
  -23.6318  -36.3911   23.3416 C   0  0  0  0  0  0  0  0  0  0  0  0
  -31.2702  -22.2026   25.0217 C   0  0  0  0  0  0  0  0  0  0  0  0
  -31.7681  -21.2607   23.9300 C   0  0  0  0  0  0  0  0  0  0  0  0
  -29.6348  -11.8462   18.6321 C   0  0  0  0  0  0  0  0  0  0  0  0
  -23.8417  -35.1450   24.1960 C   0  0  0  0  0  0  0  0  0  0  0  0
  -30.9760  -23.6189   24.5271 C   0  0  0  0  0  0  0  0  0  0  0  0
  -28.1810  -11.6827   19.0814 C   0  0  0  0  0  0  0  0  0  0  0  0
  -30.6461  -20.5733   23.1540 C   0  0  0  0  0  0  0  0  0  0  0  0
  -30.5201  -12.3770   19.7583 C   0  0  0  0  0  0  0  0  0  0  0  0
  -28.5854  -13.4445   20.8476 C   0  0  0  0  0  0  0  0  0  0  0  0
  -25.0582  -34.3447   23.7151 C   0  0  1  0  0  0  0  0  0  0  0  0
  -30.4556  -23.6976   23.0901 C   0  0  2  0  0  0  0  0  0  0  0  0
  -23.8724  -31.7371   21.2197 C   0  0  1  0  0  0  0  0  0  0  0  0
  -27.6424  -12.9739   19.7283 C   0  0  2  0  0  0  0  0  0  0  0  0
  -30.8740  -21.3388   19.3576 C   0  0  0  0  0  0  0  0  0  0  0  0
  -28.5025  -17.9266   22.1719 C   0  0  0  0  0  0  0  0  0  0  0  0
  -18.8643  -26.1697   19.2383 C   0  0  0  0  0  0  0  0  0  0  0  0
  -20.8508  -30.0064   24.2586 C   0  0  0  0  0  0  0  0  0  0  0  0
  -19.5108  -28.0510   23.4531 C   0  0  0  0  0  0  0  0  0  0  0  0
  -19.0010  -30.3425   22.6094 C   0  0  0  0  0  0  0  0  0  0  0  0
  -22.0368  -27.1394   17.3754 C   0  0  0  0  0  0  0  0  0  0  0  0
  -28.9163  -20.6902   21.4163 C   0  0  0  0  0  0  0  0  0  0  0  0
  -29.8373  -25.4377   21.3896 C   0  0  0  0  0  0  0  0  0  0  0  0
  -29.5095  -26.9107   21.2450 C   0  0  0  0  0  0  0  0  0  1  0  0
  -21.1018  -29.1729   21.8279 C   0  0  1  0  0  0  0  0  0  0  0  0
  -20.0305  -27.0700   18.8615 C   0  0  2  0  0  0  0  0  0  0  0  0
  -20.1442  -29.3944   23.0326 C   0  0  0  0  0  0  0  0  0  0  0  0
  -26.0080  -12.4198   21.4898 N   0  0  0  0  0  0  0  0  0  0  0  0
  -26.2168  -12.8044   20.2192 N   0  0  0  0  0  0  0  0  0  0  0  0
  -29.7225  -21.4356   22.3925 N   0  0  1  0  0  0  0  0  0  0  0  0
  -23.1741  -30.4694   21.4423 N   0  0  0  0  0  0  0  0  0  0  0  0
  -29.9498  -13.6033   20.3201 N   0  0  0  0  0  0  0  0  0  0  0  0
  -25.0985  -13.3895   18.2148 N   0  0  0  0  0  0  0  0  0  0  0  0
  -22.0082  -11.6499   19.5633 N   0  0  0  0  0  0  0  0  0  0  0  0
  -30.0548  -15.8991   20.8500 N   0  0  0  0  0  0  0  0  0  0  0  0
  -24.7264  -33.5848   22.5290 N   0  0  0  0  0  0  0  0  0  0  0  0
  -20.4541  -28.6195   20.6436 N   0  0  0  0  0  0  0  0  0  0  0  0
  -30.1419  -25.1408   22.8121 N   0  3  0  0  0  0  0  0  0  0  0  0
  -20.8660  -26.3594   17.8525 N   0  3  0  0  0  0  0  0  0  0  0  0
  -21.9772  -13.8507   20.2071 O   0  0  0  0  0  0  0  0  0  0  0  0
  -23.8007  -31.7243   23.5797 O   0  0  0  0  0  0  0  0  0  0  0  0
  -21.0809  -31.3932   20.9935 O   0  0  0  0  0  0  0  0  0  0  0  0
  -21.7859  -26.7278   20.4859 O   0  0  0  0  0  0  0  0  0  0  0  0
  -31.8562  -14.8262   19.8572 O   0  0  0  0  0  0  0  0  0  0  0  0
  -22.2280  -10.8902   26.3811 O   0  0  0  0  0  0  0  0  0  0  0  0
  -28.3886  -27.2335   22.0670 O   0  0  0  0  0  0  0  0  0  1  0  0
  -20.0347   -5.8405   26.6874 F   0  0  0  0  0  0  0  0  0  0  0  0
  -23.1166   -9.0696   28.2622 F   0  0  0  0  0  0  0  0  0  0  0  0
  1  2  1  0  0  0  0
  1  5  2  0  0  0  0
  2  6  2  0  0  0  0
  3 10  2  0  0  0  0
  3 17  1  0  0  0  0
  4 11  1  0  0  0  0
  4 17  2  0  0  0  0
  5 19  1  0  0  0  0
  6 21  1  0  0  0  0
  7 12  2  0  0  0  0
  7 20  1  0  0  0  0
  8  9  1  0  0  0  0
  8 23  2  0  0  0  0
  9 26  2  0  0  0  0
 10 27  1  0  0  0  0
 11 27  2  0  0  0  0
 12 28  1  0  0  0  0
 13 14  2  0  0  0  0
 13 29  1  0  0  0  0
 14 30  1  0  0  0  0
 15 22  1  0  0  0  0
 15 28  2  0  0  0  0
 16 30  2  0  0  0  0
 16 31  1  0  0  0  0
 17 32  1  0  0  0  0
 18 32  1  0  0  0  0
 18 33  2  0  0  0  0
 18 38  1  0  0  0  0
 19 21  2  0  0  0  0
 19 43  1  0  0  0  0
 20 22  2  0  0  0  0
 20 44  1  0  0  0  0
 21 56  1  0  0  0  0
 22 45  1  0  0  0  0
 23 24  1  0  0  0  0
 23 60  1  0  0  0  0
 24 25  2  0  0  0  0
 24 67  1  0  0  0  0
 25 26  1  0  0  0  0
 25 61  1  0  0  0  0
 26 80  1  0  0  0  0
 27 90  1  0  0  0  0
 28 91  1  0  0  0  0
 29 31  2  0  0  0  0
 29 90  1  0  0  0  0
 30 92  1  0  0  0  0
 31 93  1  0  0  0  0
 32 73  2  0  0  0  0
 33 74  1  0  0  0  0
 33 78  1  0  0  0  0
 34 36  2  0  0  0  0
 34 57  1  0  0  0  0
 34 75  1  0  0  0  0
 35 37  2  0  0  0  0
 36 37  1  0  0  0  0
 38 79  1  0  0  0  0
 38 85  2  0  0  0  0
 39 58  1  0  0  0  0
 39 81  1  0  0  0  0
 39 86  2  0  0  0  0
 40 70  1  0  0  0  0
 40 76  1  0  0  0  0
 40 87  2  0  0  0  0
 41 71  1  0  0  0  0
 41 82  1  0  0  0  0
 41 88  2  0  0  0  0
 42 77  1  0  0  0  0
 42 80  1  0  0  0  0
 42 89  2  0  0  0  0
 43 46  1  0  0  0  0
 44 58  1  0  0  0  0
 45 76  1  0  0  0  0
 46 50  1  0  0  0  0
 47 48  1  0  0  0  0
 47 51  1  0  0  0  0
 48 53  1  0  0  0  0
 49 52  1  0  0  0  0
 49 54  1  0  0  0  0
 50 56  1  0  0  0  0
 51 57  1  0  0  0  0
 52 59  1  0  0  0  0
 53 75  1  0  0  0  0
 54 77  1  0  0  0  0
 55 59  1  0  0  0  0
 55 77  1  0  0  0  0
 56 81  1  0  0  0  0
 57 83  1  0  0  0  0
 58 76  1  0  0  0  0
 59 74  1  0  0  0  0
 62 71  1  0  0  0  0
 63 72  1  0  0  0  0
 64 72  1  0  0  0  0
 65 72  1  0  0  0  0
 66 84  1  0  0  0  0
 67 75  1  0  0  0  0
 68 69  1  0  0  0  0
 68 83  1  0  0  0  0
 69 91  1  0  0  0  0
 70 72  1  0  0  0  0
 70 82  1  0  0  0  0
 71 84  1  0  0  0  0
 73 74  1  0  0  0  0
M  CHG  2  83   1  84   1
M  ISO  4  42 100  69 101  80 100  91 101
M  END
> <Batch ID>
0044

> <Smiles>
C=CC=C1C(NC[101CH2:1][101O:1]c2ccc3c(c2)CN(C(=O)C(NC(=O)C(C)NC)C(C)(C)C)C(C(=O)NC2CCCc4ccccc42)C3)CCCCN1Cc1c(C)ccc([100NH:0][100C:0](=O)N2CCCC(n3nc(-c4ccc(Oc5ccc(F)cc5F)cc4)c(C(N)=O)c3N)C2)c1C

> <Shape>
0.290

> <Color>
0.098

> <Negative vol penalty>
0.000

$$$$

  -OEChem-04042322183D

 86 95  0     1  0  0  0  0  0999 V2000
  -29.8196  -11.5796   20.0725 C   0  0  0  0  0  0  0  0  0  0  0  0
  -29.7125  -12.8078   20.7151 C   0  0  0  0  0  0  0  0  0  0  0  0
  -19.8956  -26.9982   22.8239 C   0  0  0  0  0  0  0  0  0  0  0  0
  -30.7947  -24.8947   18.5972 C   0  0  0  0  0  0  0  0  0  0  0  0
  -28.5590  -23.9855   18.7085 C   0  0  0  0  0  0  0  0  0  0  0  0
  -28.9276  -11.2499   19.0543 C   0  0  0  0  0  0  0  0  0  0  0  0
  -28.7060  -13.7017   20.3480 C   0  0  0  0  0  0  0  0  0  0  0  0
  -24.4155  -20.3952   20.4522 C   0  0  0  0  0  0  0  0  0  0  0  0
  -19.3615  -26.4017   21.6818 C   0  0  0  0  0  0  0  0  0  0  0  0
  -21.1784  -27.5450   22.7902 C   0  0  0  0  0  0  0  0  0  0  0  0
  -31.3098  -23.6085   18.4370 C   0  0  0  0  0  0  0  0  0  0  0  0
  -29.0742  -22.6992   18.5483 C   0  0  0  0  0  0  0  0  0  0  0  0
  -23.5236  -21.1569   19.6984 C   0  0  0  0  0  0  0  0  0  0  0  0
  -30.6003  -20.3700   20.4659 C   0  0  0  0  0  0  0  0  0  0  0  0
  -30.1076  -19.3662   21.2996 C   0  0  0  0  0  0  0  0  0  0  0  0
  -22.0673  -19.2440   19.4996 C   0  0  0  0  0  0  0  0  0  0  0  0
  -29.3376  -18.1386   19.3663 C   0  0  0  0  0  0  0  0  0  0  0  0
  -29.4192  -25.0833   18.7330 C   0  0  0  0  0  0  0  0  0  0  0  0
  -29.0080  -27.4940   18.0070 C   0  0  0  0  0  0  0  0  0  0  0  0
  -27.9177  -12.1459   18.6667 C   0  0  0  0  0  0  0  0  0  0  0  0
  -24.1447  -19.0469   20.7265 C   0  0  0  0  0  0  0  0  0  0  0  0
  -27.7811  -13.3774   19.3390 C   0  0  0  0  0  0  0  0  0  0  0  0
  -22.9562  -18.4681   20.2592 C   0  0  0  0  0  0  0  0  0  0  0  0
  -20.1102  -26.3519   20.5059 C   0  0  0  0  0  0  0  0  0  0  0  0
  -21.9272  -27.4952   21.6144 C   0  0  0  0  0  0  0  0  0  0  0  0
  -30.4496  -22.5107   18.4125 C   0  0  0  0  0  0  0  0  0  0  0  0
  -22.3507  -20.5806   19.2195 C   0  0  0  0  0  0  0  0  0  0  0  0
  -30.4616  -20.2583   19.0824 C   0  0  0  0  0  0  0  0  0  0  0  0
  -29.4763  -18.2504   20.7498 C   0  0  0  0  0  0  0  0  0  0  0  0
  -29.8303  -19.1425   18.5326 C   0  0  0  0  0  0  0  0  0  0  0  0
  -21.3931  -26.8987   20.4722 C   0  0  0  0  0  0  0  0  0  0  0  0
  -28.8865  -26.4117   18.8991 C   0  0  0  0  0  0  0  0  0  0  0  0
  -28.3337  -28.5216   18.6201 C   0  0  0  0  0  0  0  0  0  0  0  0
  -20.6426  -23.5106   18.9571 C   0  0  0  0  0  0  0  0  0  0  0  0
  -29.6710  -27.5641   16.7377 C   0  0  0  0  0  0  0  0  0  0  0  0
  -25.5702  -16.2889   20.0445 C   0  0  0  0  0  0  0  0  0  0  0  0
  -23.2746  -15.0700   21.9854 C   0  0  0  0  0  0  0  0  0  0  0  0
  -19.7471  -15.5870   22.5390 C   0  0  0  0  0  0  0  0  0  0  0  0
  -23.9053  -28.6804   22.6287 C   0  0  0  0  0  0  0  0  0  0  0  0
  -26.9743  -11.7347   17.5638 C   0  0  0  0  0  0  0  0  0  0  0  0
  -25.1041  -18.2462   21.5637 C   0  0  0  0  0  0  0  0  0  0  0  0
  -22.6091  -17.0303   20.5433 C   0  0  0  0  0  0  0  0  0  0  0  0
  -26.2300  -12.9147   16.9474 C   0  0  0  0  0  0  0  0  0  0  0  0
  -17.9596  -22.3458   19.3644 C   0  0  0  0  0  0  0  0  0  0  0  0
  -27.1319  -30.1485   22.9609 C   0  0  0  0  0  0  0  0  0  0  0  0
  -25.6205  -13.7750   18.0442 C   0  0  0  0  0  0  0  0  0  0  0  0
  -19.0951  -21.5769   18.6915 C   0  0  0  0  0  0  0  0  0  0  0  0
  -27.9575  -29.4597   21.8718 C   0  0  0  0  0  0  0  0  0  0  0  0
  -18.4288  -23.6165   20.0673 C   0  0  0  0  0  0  0  0  0  0  0  0
  -26.1323  -29.1903   23.6061 C   0  0  0  0  0  0  0  0  0  0  0  0
  -26.0789  -27.7953   21.5762 C   0  0  0  0  0  0  0  0  0  0  0  0
  -26.7133  -14.3782   18.9358 C   0  0  1  0  0  0  0  0  0  0  0  0
  -20.4662  -22.0160   19.1893 C   0  0  1  0  0  0  0  0  0  1  0  0
  -24.9740  -16.7417   21.3473 C   0  0  1  0  0  0  0  0  0  0  0  0
  -27.0549  -28.7373   20.8526 C   0  0  2  0  0  0  0  0  0  0  0  0
  -18.3467  -15.2221   24.5891 C   0  0  0  0  0  0  0  0  0  0  0  0
  -22.7081  -12.3345   20.7582 C   0  0  0  0  0  0  0  0  0  0  0  0
  -20.3523  -12.5298   21.5830 C   0  0  0  0  0  0  0  0  0  0  0  0
  -22.2427  -12.4945   23.2102 C   0  0  0  0  0  0  0  0  0  0  0  0
  -18.7611  -18.3772   22.5035 C   0  0  0  0  0  0  0  0  0  0  0  0
  -19.5321  -25.7093   19.2784 C   0  0  0  0  0  0  0  0  0  0  0  0
  -21.8714  -14.5502   21.7861 C   0  0  1  0  0  0  0  0  0  0  0  0
  -19.1031  -16.2394   23.7490 C   0  0  2  0  0  0  0  0  0  0  0  0
  -21.8047  -12.9972   21.8173 C   0  0  0  0  0  0  0  0  0  0  0  0
  -28.1900  -26.7228   19.9954 N   0  0  0  0  0  0  0  0  0  0  0  0
  -27.8678  -28.0123   19.7964 N   0  0  0  0  0  0  0  0  0  0  0  0
  -19.5370  -24.2590   19.3701 N   0  0  0  0  0  0  0  0  0  0  0  0
  -23.5821  -16.2870   21.3608 N   0  0  0  0  0  0  0  0  0  0  0  0
  -25.3090  -28.5460   22.5805 N   0  0  0  0  0  0  0  0  0  0  0  0
  -28.0999  -29.8021   18.2623 N   0  0  0  0  0  0  0  0  0  0  0  0
  -30.3145  -26.4161   16.2557 N   0  0  0  0  0  0  0  0  0  0  0  0
  -23.2297  -28.0522   21.5830 N   0  0  0  0  0  0  0  0  0  0  0  0
  -26.0937  -15.0106   20.0795 N   0  0  0  0  0  0  0  0  0  0  0  0
  -21.0465  -15.2042   22.7962 N   0  0  0  0  0  0  0  0  0  0  0  0
  -18.1466  -17.2981   23.3189 N   0  3  0  0  0  0  0  0  0  0  0  0
  -21.6686  -23.9780   18.4663 O   0  0  0  0  0  0  0  0  0  0  0  0
  -29.7062  -28.6184   16.0589 O   0  0  0  0  0  0  0  0  0  0  0  0
  -25.5550  -17.0430   19.0787 O   0  0  0  0  0  0  0  0  0  0  0  0
  -24.0665  -14.4237   22.6759 O   0  0  0  0  0  0  0  0  0  0  0  0
  -19.1553  -15.4291   21.4734 O   0  0  0  0  0  0  0  0  0  0  0  0
  -23.3456  -29.3296   23.5160 O   0  0  0  0  0  0  0  0  0  0  0  0
  -30.9520  -21.2554   18.2560 O   0  0  0  0  0  0  0  0  0  0  0  0
  -21.4788  -21.3216   18.4830 O   0  0  0  0  0  0  0  0  0  1  0  0
  -29.0046  -17.2857   21.5504 F   0  0  0  0  0  0  0  0  0  0  0  0
  -29.6952  -19.0290   17.2042 F   0  0  0  0  0  0  0  0  0  0  0  0
  -22.1119  -26.8516   19.3404 F   0  0  0  0  0  0  0  0  0  0  0  0
  1  2  1  0  0  0  0
  1  6  2  0  0  0  0
  2  7  2  0  0  0  0
  3  9  2  0  0  0  0
  3 10  1  0  0  0  0
  4 11  2  0  0  0  0
  4 18  1  0  0  0  0
  5 12  1  0  0  0  0
  5 18  2  0  0  0  0
  6 20  1  0  0  0  0
  7 22  1  0  0  0  0
  8 13  2  0  0  0  0
  8 21  1  0  0  0  0
  9 24  1  0  0  0  0
 10 25  2  0  0  0  0
 11 26  1  0  0  0  0
 12 26  2  0  0  0  0
 13 27  1  0  0  0  0
 14 15  2  0  0  0  0
 14 28  1  0  0  0  0
 15 29  1  0  0  0  0
 16 23  1  0  0  0  0
 16 27  2  0  0  0  0
 17 29  2  0  0  0  0
 17 30  1  0  0  0  0
 18 32  1  0  0  0  0
 19 32  1  0  0  0  0
 19 33  2  0  0  0  0
 19 35  1  0  0  0  0
 20 22  2  0  0  0  0
 20 40  1  0  0  0  0
 21 23  2  0  0  0  0
 21 41  1  0  0  0  0
 22 52  1  0  0  0  0
 23 42  1  0  0  0  0
 24 31  2  0  0  0  0
 24 61  1  0  0  0  0
 25 31  1  0  0  0  0
 25 72  1  0  0  0  0
 26 82  1  0  0  0  0
 27 83  1  0  0  0  0
 28 30  2  0  0  0  0
 28 82  1  0  0  0  0
 29 84  1  0  0  0  0
 30 85  1  0  0  0  0
 31 86  1  0  0  0  0
 32 65  2  0  0  0  0
 33 66  1  0  0  0  0
 33 70  1  0  0  0  0
 34 53  1  0  0  0  0
 34 67  1  0  0  0  0
 34 76  2  0  0  0  0
 35 71  1  0  0  0  0
 35 77  2  0  0  0  0
 36 54  1  0  0  0  0
 36 73  1  0  0  0  0
 36 78  2  0  0  0  0
 37 62  1  0  0  0  0
 37 68  1  0  0  0  0
 37 79  2  0  0  0  0
 38 63  1  0  0  0  0
 38 74  1  0  0  0  0
 38 80  2  0  0  0  0
 39 69  1  0  0  0  0
 39 72  1  0  0  0  0
 39 81  2  0  0  0  0
 40 43  1  0  0  0  0
 41 54  1  0  0  0  0
 42 68  1  0  0  0  0
 43 46  1  0  0  0  0
 44 47  1  0  0  0  0
 44 49  1  0  0  0  0
 45 48  1  0  0  0  0
 45 50  1  0  0  0  0
 46 52  1  0  0  0  0
 47 53  1  0  0  0  0
 48 55  1  0  0  0  0
 49 67  1  0  0  0  0
 50 69  1  0  0  0  0
 51 55  1  0  0  0  0
 51 69  1  0  0  0  0
 52 73  1  0  0  0  0
 53 83  1  0  0  0  0
 54 68  1  0  0  0  0
 55 66  1  0  0  0  0
 56 63  1  0  0  0  0
 57 64  1  0  0  0  0
 58 64  1  0  0  0  0
 59 64  1  0  0  0  0
 60 75  1  0  0  0  0
 61 67  1  0  0  0  0
 62 64  1  0  0  0  0
 62 74  1  0  0  0  0
 63 75  1  0  0  0  0
 65 66  1  0  0  0  0
M  CHG  1  75   1
M  ISO  4  39 100  53 101  72 100  83 101
M  END
> <Batch ID>
0044

> <Smiles>
CNC(C)C(=O)NC(C(=O)N1Cc2cc([101O:1][101CH:1]3CCCN(Cc4cccc([100NH:0][100C:0](=O)N5CCCC(n6nc(-c7ccc(Oc8ccc(F)cc8F)cc7)c(C(N)=O)c6N)C5)c4F)C3=O)ccc2CC1C(=O)NC1CCCc2ccccc21)C(C)(C)C

> <Shape>
0.223

> <Color>
0.060

> <Negative vol penalty>
0.000

$$$$

  -OEChem-04042322183D

 88 97  0     1  0  0  0  0  0999 V2000
  -25.2359  -31.5865   20.9149 C   0  0  0  0  0  0  0  0  0  0  0  0
  -26.1439  -30.5485   21.0977 C   0  0  0  0  0  0  0  0  0  0  0  0
  -22.6801  -10.1615   20.1916 C   0  0  0  0  0  0  0  0  0  0  0  0
  -24.2995   -9.4676   21.8448 C   0  0  0  0  0  0  0  0  0  0  0  0
  -24.9226  -32.4325   21.9779 C   0  0  0  0  0  0  0  0  0  0  0  0
  -26.7400  -30.3566   22.3436 C   0  0  0  0  0  0  0  0  0  0  0  0
  -26.7930  -25.4899   23.7428 C   0  0  0  0  0  0  0  0  0  0  0  0
  -31.2797  -19.0907   20.6832 C   0  0  0  0  0  0  0  0  0  0  0  0
  -31.1092  -17.7065   20.6632 C   0  0  0  0  0  0  0  0  0  0  0  0
  -21.9488   -8.9955   20.4185 C   0  0  0  0  0  0  0  0  0  0  0  0
  -23.5682   -8.3017   22.0718 C   0  0  0  0  0  0  0  0  0  0  0  0
  -27.7602  -24.6709   23.1619 C   0  0  0  0  0  0  0  0  0  0  0  0
  -21.9368   -5.3128   23.3457 C   0  0  0  0  0  0  0  0  0  0  0  0
  -21.7240   -4.9271   24.6692 C   0  0  0  0  0  0  0  0  0  0  0  0
  -29.1153  -24.8731   25.1474 C   0  0  0  0  0  0  0  0  0  0  0  0
  -20.5738   -7.0094   25.0911 C   0  0  0  0  0  0  0  0  0  0  0  0
  -23.8554  -10.3975   20.9047 C   0  0  0  0  0  0  0  0  0  0  0  0
  -24.1714  -12.9280   20.8386 C   0  0  0  0  0  0  0  0  0  0  0  0
  -25.5078  -32.2449   23.2400 C   0  0  0  0  0  0  0  0  0  0  0  0
  -26.9850  -26.0165   25.0283 C   0  0  0  0  0  0  0  0  0  0  0  0
  -26.4353  -31.2017   23.4242 C   0  0  0  0  0  0  0  0  0  0  0  0
  -28.1479  -25.6965   25.7434 C   0  0  0  0  0  0  0  0  0  0  0  0
  -29.6587  -19.2646   22.4662 C   0  0  0  0  0  0  0  0  0  0  0  0
  -29.4882  -17.8803   22.4462 C   0  0  0  0  0  0  0  0  0  0  0  0
  -30.5544  -19.8698   21.5848 C   0  0  0  0  0  0  0  0  0  0  0  0
  -30.2135  -17.1013   21.5447 C   0  0  0  0  0  0  0  0  0  0  0  0
  -22.3929   -8.0657   21.3586 C   0  0  0  0  0  0  0  0  0  0  0  0
  -28.9229  -24.3647   23.8630 C   0  0  0  0  0  0  0  0  0  0  0  0
  -21.4681   -6.5468   22.8949 C   0  0  0  0  0  0  0  0  0  0  0  0
  -21.0425   -5.7754   25.5419 C   0  0  0  0  0  0  0  0  0  0  0  0
  -20.7866   -7.3951   23.7676 C   0  0  0  0  0  0  0  0  0  0  0  0
  -24.6115  -11.6014   20.6703 C   0  0  0  0  0  0  0  0  0  0  0  0
  -25.2546  -13.6962   20.4879 C   0  0  0  0  0  0  0  0  0  0  0  0
  -29.7231  -22.2070   21.3423 C   0  0  0  0  0  0  0  0  0  0  0  0
  -27.1307  -20.4876   19.3926 C   0  0  0  0  0  0  0  0  0  0  0  0
  -28.5958  -21.9881   20.6394 C   0  0  0  0  0  0  0  0  0  0  0  0
  -28.2509  -20.7045   20.0909 C   0  0  0  0  0  0  0  0  0  0  0  0
  -22.8974  -13.4217   21.2731 C   0  0  0  0  0  0  0  0  0  0  0  0
  -27.2366  -28.9450   26.2382 C   0  0  0  0  0  0  0  0  0  0  0  0
  -27.2333  -27.3557   29.0659 C   0  0  0  0  0  0  0  0  0  0  0  0
  -27.4728  -25.1228   31.6357 C   0  0  0  0  0  0  0  0  0  0  0  0
  -30.7106  -14.7931   20.6664 C   0  0  0  0  0  0  0  0  0  0  0  0
  -25.1738  -33.2140   24.3464 C   0  0  0  0  0  0  0  0  0  0  0  0
  -25.9200  -26.8767   25.6514 C   0  0  0  0  0  0  0  0  0  0  0  0
  -28.3927  -26.2198   27.1343 C   0  0  0  0  0  0  0  0  0  0  0  0
  -25.5656  -32.7127   25.7340 C   0  0  0  0  0  0  0  0  0  0  0  0
  -32.4682  -23.0276   21.5188 C   0  0  0  0  0  0  0  0  0  0  0  0
  -29.6118  -12.4203   18.2499 C   0  0  0  0  0  0  0  0  0  0  0  0
  -26.9816  -32.1459   25.7168 C   0  0  0  0  0  0  0  0  0  0  0  0
  -31.3776  -24.1058   21.4807 C   0  0  0  0  0  0  0  0  0  0  0  0
  -28.1767  -12.1048   18.6780 C   0  0  0  0  0  0  0  0  0  0  0  0
  -32.0260  -21.7156   22.1646 C   0  0  0  0  0  0  0  0  0  0  0  0
  -30.5290  -12.6321   19.4531 C   0  0  0  0  0  0  0  0  0  0  0  0
  -28.6200  -13.3070   20.8564 C   0  0  0  0  0  0  0  0  0  0  0  0
  -27.0841  -30.9461   24.7673 C   0  0  1  0  0  0  0  0  0  0  0  0
  -29.9850  -23.6026   21.8742 C   0  0  2  0  0  0  0  0  0  1  0  0
  -26.4526  -27.7756   26.7630 C   0  0  1  0  0  0  0  0  0  0  0  0
  -27.6446  -13.1495   19.6785 C   0  0  2  0  0  0  0  0  0  0  0  0
  -28.8795  -20.0987   23.4347 C   0  0  0  0  0  0  0  0  0  0  0  0
  -28.5259  -17.2322   23.3923 C   0  0  0  0  0  0  0  0  0  0  0  0
  -27.7585  -25.0089   34.1262 C   0  0  0  0  0  0  0  0  0  0  0  0
  -30.1946  -28.0219   28.7542 C   0  0  0  0  0  0  0  0  0  0  0  0
  -30.5920  -26.9882   30.9996 C   0  0  0  0  0  0  0  0  0  0  0  0
  -29.1167  -28.9891   30.7931 C   0  0  0  0  0  0  0  0  0  0  0  0
  -24.8747  -23.7497   31.9874 C   0  0  0  0  0  0  0  0  0  0  0  0
  -28.2941  -26.7507   29.9535 C   0  0  1  0  0  0  0  0  0  0  0  0
  -26.7642  -25.0501   32.9762 C   0  0  2  0  0  0  0  0  0  0  0  0
  -29.5371  -27.6725   30.1043 C   0  0  0  0  0  0  0  0  0  0  0  0
  -25.8757  -11.5275   20.2456 N   0  0  0  0  0  0  0  0  0  0  0  0
  -26.2393  -12.8174   20.1440 N   0  0  0  0  0  0  0  0  0  0  0  0
  -30.7427  -21.2764   21.5897 N   0  0  0  0  0  0  0  0  0  0  0  0
  -27.3247  -27.0619   27.6980 N   0  0  0  0  0  0  0  0  0  0  0  0
  -29.9629  -13.6379   20.3547 N   0  0  0  0  0  0  0  0  0  0  0  0
  -25.4514  -15.0310   20.4432 N   0  0  0  0  0  0  0  0  0  0  0  0
  -21.8959  -12.4952   21.5940 N   0  0  0  0  0  0  0  0  0  0  0  0
  -30.0570  -15.6935   21.5070 N   0  0  0  0  0  0  0  0  0  0  0  0
  -26.5222  -29.7637   25.3844 N   0  0  0  0  0  0  0  0  0  0  0  0
  -27.6350  -26.4254   31.2138 N   0  0  0  0  0  0  0  0  0  0  0  0
  -25.9133  -23.8286   33.0468 N   0  3  0  0  0  0  0  0  0  0  0  0
  -22.6490  -14.6483   21.3581 O   0  0  0  0  0  0  0  0  0  0  0  0
  -28.4029  -29.0944   26.5834 O   0  0  0  0  0  0  0  0  0  0  0  0
  -26.3519  -28.0570   29.5688 O   0  0  0  0  0  0  0  0  0  0  0  0
  -27.8484  -24.1241   31.0257 O   0  0  0  0  0  0  0  0  0  0  0  0
  -31.8362  -14.9834   20.1986 O   0  0  0  0  0  0  0  0  0  0  0  0
  -21.6795   -6.9280   21.5805 O   0  0  0  0  0  0  0  0  0  0  0  0
  -29.8688  -23.5660   23.2981 O   0  0  0  0  0  0  0  0  0  1  0  0
  -20.8369   -5.4042   26.8124 F   0  0  0  0  0  0  0  0  0  0  0  0
  -20.3330   -8.5814   23.3400 F   0  0  0  0  0  0  0  0  0  0  0  0
  1  2  1  0  0  0  0
  1  5  2  0  0  0  0
  2  6  2  0  0  0  0
  3 10  2  0  0  0  0
  3 17  1  0  0  0  0
  4 11  1  0  0  0  0
  4 17  2  0  0  0  0
  5 19  1  0  0  0  0
  6 21  1  0  0  0  0
  7 12  2  0  0  0  0
  7 20  1  0  0  0  0
  8  9  2  0  0  0  0
  8 25  1  0  0  0  0
  9 26  1  0  0  0  0
 10 27  1  0  0  0  0
 11 27  2  0  0  0  0
 12 28  1  0  0  0  0
 13 14  2  0  0  0  0
 13 29  1  0  0  0  0
 14 30  1  0  0  0  0
 15 22  1  0  0  0  0
 15 28  2  0  0  0  0
 16 30  2  0  0  0  0
 16 31  1  0  0  0  0
 17 32  1  0  0  0  0
 18 32  1  0  0  0  0
 18 33  2  0  0  0  0
 18 38  1  0  0  0  0
 19 21  2  0  0  0  0
 19 43  1  0  0  0  0
 20 22  2  0  0  0  0
 20 44  1  0  0  0  0
 21 55  1  0  0  0  0
 22 45  1  0  0  0  0
 23 24  1  0  0  0  0
 23 25  2  0  0  0  0
 23 59  1  0  0  0  0
 24 26  2  0  0  0  0
 24 60  1  0  0  0  0
 25 71  1  0  0  0  0
 26 76  1  0  0  0  0
 27 85  1  0  0  0  0
 28 86  1  0  0  0  0
 29 31  2  0  0  0  0
 29 85  1  0  0  0  0
 30 87  1  0  0  0  0
 31 88  1  0  0  0  0
 32 69  2  0  0  0  0
 33 70  1  0  0  0  0
 33 74  1  0  0  0  0
 34 36  2  0  0  0  0
 34 56  1  0  0  0  0
 34 71  1  0  0  0  0
 35 37  2  0  0  0  0
 36 37  1  0  0  0  0
 38 75  1  0  0  0  0
 38 80  2  0  0  0  0
 39 57  1  0  0  0  0
 39 77  1  0  0  0  0
 39 81  2  0  0  0  0
 40 66  1  0  0  0  0
 40 72  1  0  0  0  0
 40 82  2  0  0  0  0
 41 67  1  0  0  0  0
 41 78  1  0  0  0  0
 41 83  2  0  0  0  0
 42 73  1  0  0  0  0
 42 76  1  0  0  0  0
 42 84  2  0  0  0  0
 43 46  1  0  0  0  0
 44 57  1  0  0  0  0
 45 72  1  0  0  0  0
 46 49  1  0  0  0  0
 47 50  1  0  0  0  0
 47 52  1  0  0  0  0
 48 51  1  0  0  0  0
 48 53  1  0  0  0  0
 49 55  1  0  0  0  0
 50 56  1  0  0  0  0
 51 58  1  0  0  0  0
 52 71  1  0  0  0  0
 53 73  1  0  0  0  0
 54 58  1  0  0  0  0
 54 73  1  0  0  0  0
 55 77  1  0  0  0  0
 56 86  1  0  0  0  0
 57 72  1  0  0  0  0
 58 70  1  0  0  0  0
 61 67  1  0  0  0  0
 62 68  1  0  0  0  0
 63 68  1  0  0  0  0
 64 68  1  0  0  0  0
 65 79  1  0  0  0  0
 66 68  1  0  0  0  0
 66 78  1  0  0  0  0
 67 79  1  0  0  0  0
 69 70  1  0  0  0  0
M  CHG  1  79   1
M  ISO  4  42 100  56 101  76 100  86 101
M  END
> <Batch ID>
0044

> <Smiles>
C=CC=C1N(c2ccc([100NH:0][100C:0](=O)N3CCCC(n4nc(-c5ccc(Oc6ccc(F)cc6F)cc5)c(C(N)=O)c4N)C3)c(C)c2C)CCC[101CH:1]1[101O:1]c1ccc2c(c1)CN(C(=O)C(NC(=O)C(C)NC)C(C)(C)C)C(C(=O)NC1CCCc3ccccc31)C2

> <Shape>
0.303

> <Color>
0.196

> <Negative vol penalty>
0.000

$$$$

  -OEChem-04042322183D

 86 95  0     1  0  0  0  0  0999 V2000
  -18.0713  -25.8500   24.1517 C   0  0  0  0  0  0  0  0  0  0  0  0
  -19.0270  -25.6130   23.1688 C   0  0  0  0  0  0  0  0  0  0  0  0
  -27.7960  -11.3624   18.2998 C   0  0  0  0  0  0  0  0  0  0  0  0
  -29.9103  -12.5002   18.5689 C   0  0  0  0  0  0  0  0  0  0  0  0
  -17.6236  -27.1490   24.3882 C   0  0  0  0  0  0  0  0  0  0  0  0
  -19.5347  -26.6750   22.4212 C   0  0  0  0  0  0  0  0  0  0  0  0
  -26.5891  -28.1325   22.3658 C   0  0  0  0  0  0  0  0  0  0  0  0
  -28.4703  -10.1909   17.9557 C   0  0  0  0  0  0  0  0  0  0  0  0
  -30.5846  -11.3286   18.2249 C   0  0  0  0  0  0  0  0  0  0  0  0
  -27.9485  -28.3455   22.1365 C   0  0  0  0  0  0  0  0  0  0  0  0
  -29.6430   -6.8024   17.3574 C   0  0  0  0  0  0  0  0  0  0  0  0
  -29.2111   -5.6107   17.9396 C   0  0  0  0  0  0  0  0  0  0  0  0
  -27.4257  -30.2502   20.7412 C   0  0  0  0  0  0  0  0  0  0  0  0
  -29.6886  -25.1636   18.2704 C   0  0  0  0  0  0  0  0  0  0  0  0
  -30.2386  -22.7730   19.5990 C   0  0  0  0  0  0  0  0  0  0  0  0
  -29.6833   -6.5105   20.1316 C   0  0  0  0  0  0  0  0  0  0  0  0
  -28.5160  -12.5171   18.6064 C   0  0  0  0  0  0  0  0  0  0  0  0
  -26.9400  -13.9163   20.0438 C   0  0  0  0  0  0  0  0  0  0  0  0
  -18.1332  -28.2286   23.6497 C   0  0  0  0  0  0  0  0  0  0  0  0
  -25.6422  -28.9879   21.7955 C   0  0  0  0  0  0  0  0  0  0  0  0
  -19.0924  -27.9895   22.6472 C   0  0  0  0  0  0  0  0  0  0  0  0
  -26.0631  -30.0493   20.9775 C   0  0  0  0  0  0  0  0  0  0  0  0
  -29.1344  -23.9681   17.8130 C   0  0  0  0  0  0  0  0  0  0  0  0
  -30.7928  -23.9686   20.0563 C   0  0  0  0  0  0  0  0  0  0  0  0
  -30.5178  -25.1639   19.3920 C   0  0  0  0  0  0  0  0  0  0  0  0
  -29.4094  -22.7728   18.4773 C   0  0  0  0  0  0  0  0  0  0  0  0
  -29.8646  -10.1739   17.9183 C   0  0  0  0  0  0  0  0  0  0  0  0
  -28.3658  -29.4016   21.3260 C   0  0  0  0  0  0  0  0  0  0  0  0
  -30.0951   -7.8481   18.1623 C   0  0  0  0  0  0  0  0  0  0  0  0
  -29.2312   -5.4647   19.3267 C   0  0  0  0  0  0  0  0  0  0  0  0
  -30.1152   -7.7021   19.5493 C   0  0  0  0  0  0  0  0  0  0  0  0
  -27.8201  -13.7278   18.9613 C   0  0  0  0  0  0  0  0  0  0  0  0
  -26.5494  -15.2293   19.9442 C   0  0  0  0  0  0  0  0  0  0  0  0
  -32.4576  -26.6311   19.9286 C   0  0  0  0  0  0  0  0  0  0  0  0
  -33.4114  -26.0124   19.2054 C   0  0  0  0  0  0  0  0  0  0  0  0
  -26.5137  -12.9875   21.0495 C   0  0  0  0  0  0  0  0  0  0  0  0
  -22.0171  -29.8661   21.3914 C   0  0  0  0  0  0  0  0  0  0  0  0
  -23.5448  -32.5082   21.7016 C   0  0  0  0  0  0  0  0  0  0  0  0
  -25.5369  -35.1606   22.4975 C   0  0  0  0  0  0  0  0  0  0  0  0
  -29.0348  -20.2760   18.5773 C   0  0  0  0  0  0  0  0  0  0  0  0
  -17.5840  -29.6092   23.9090 C   0  0  0  0  0  0  0  0  0  0  0  0
  -24.1648  -28.7594   21.9653 C   0  0  0  0  0  0  0  0  0  0  0  0
  -25.0076  -30.9232   20.3568 C   0  0  0  0  0  0  0  0  0  0  0  0
  -32.9017  -27.7057   20.9022 C   0  0  0  0  0  0  0  0  0  0  0  0
  -18.4470  -30.7268   23.3293 C   0  0  0  0  0  0  0  0  0  0  0  0
  -31.9727  -28.9107   20.9009 C   0  0  0  0  0  0  0  0  0  0  0  0
  -27.1584  -18.1855   15.9632 C   0  0  0  0  0  0  0  0  0  0  0  0
  -18.8481  -30.4017   21.8939 C   0  0  0  0  0  0  0  0  0  0  0  0
  -26.4960  -17.1634   16.8840 C   0  0  0  0  0  0  0  0  0  0  0  0
  -27.5158  -19.4741   16.6931 C   0  0  0  0  0  0  0  0  0  0  0  0
  -28.4611  -17.8657   18.3590 C   0  0  0  0  0  0  0  0  0  0  0  0
  -30.0935  -27.4736   20.0580 C   0  0  0  0  0  0  0  0  0  0  0  0
  -19.6853  -29.1184   21.8323 C   0  0  1  0  0  0  0  0  0  0  0  0
  -23.3563  -30.0672   22.0376 C   0  0  1  0  0  0  0  0  0  0  0  0
  -27.1083  -17.1392   18.2985 C   0  0  2  0  0  0  0  0  0  0  0  0
  -30.5389  -28.4601   21.1358 C   0  0  2  0  0  0  0  0  0  1  0  0
  -28.2503  -23.9974   16.6086 C   0  0  0  0  0  0  0  0  0  0  0  0
  -31.6775  -23.9405   21.2601 C   0  0  0  0  0  0  0  0  0  0  0  0
  -25.4654  -37.6462   22.8356 C   0  0  0  0  0  0  0  0  0  0  0  0
  -23.4176  -32.9116   18.6809 C   0  0  0  0  0  0  0  0  0  0  0  0
  -24.2903  -35.2328   19.0255 C   0  0  0  0  0  0  0  0  0  0  0  0
  -22.0976  -34.5675   20.0114 C   0  0  0  0  0  0  0  0  0  0  0  0
  -26.4143  -34.9195   25.3137 C   0  0  0  0  0  0  0  0  0  0  0  0
  -24.2338  -33.6593   21.0135 C   0  0  1  0  0  0  0  0  0  0  0  0
  -25.3645  -36.2839   23.5040 C   0  0  2  0  0  0  0  0  0  0  0  0
  -23.5244  -34.0703   19.6924 C   0  0  0  0  0  0  0  0  0  0  0  0
  -27.9793  -14.8327   18.2279 N   0  0  0  0  0  0  0  0  0  0  0  0
  -27.1939  -15.7280   18.8506 N   0  0  0  0  0  0  0  0  0  0  0  0
  -31.0748  -26.3942   19.8449 N   0  0  0  0  0  0  0  0  0  0  0  0
  -23.9566  -31.2188   21.3430 N   0  0  0  0  0  0  0  0  0  0  0  0
  -28.3416  -19.2506   17.8887 N   0  0  0  0  0  0  0  0  0  0  0  0
  -25.7210  -15.9944   20.6863 N   0  0  0  0  0  0  0  0  0  0  0  0
  -27.2628  -12.8907   22.2301 N   0  0  0  0  0  0  0  0  0  0  0  0
  -28.8564  -21.5479   18.0269 N   0  0  0  0  0  0  0  0  0  0  0  0
  -21.0463  -29.3824   22.2476 N   0  0  0  0  0  0  0  0  0  0  0  0
  -24.3250  -34.7296   22.0007 N   0  0  0  0  0  0  0  0  0  0  0  0
  -26.4133  -36.1993   24.5593 N   0  3  0  0  0  0  0  0  0  0  0  0
  -25.5081  -12.2531   20.8985 O   0  0  0  0  0  0  0  0  0  0  0  0
  -21.8734  -30.1314   20.2037 O   0  0  0  0  0  0  0  0  0  0  0  0
  -22.6613  -32.7427   22.5309 O   0  0  0  0  0  0  0  0  0  0  0  0
  -26.6368  -34.7131   22.1807 O   0  0  0  0  0  0  0  0  0  0  0  0
  -29.7160  -20.0389   19.5771 O   0  0  0  0  0  0  0  0  0  0  0  0
  -30.5228   -9.0308   17.5828 O   0  0  0  0  0  0  0  0  0  0  0  0
  -29.6947  -29.6065   21.1100 O   0  0  0  0  0  0  0  0  0  1  0  0
  -28.8150   -4.3209   19.8857 F   0  0  0  0  0  0  0  0  0  0  0  0
  -30.5473   -8.7037   20.3278 F   0  0  0  0  0  0  0  0  0  0  0  0
  1  2  1  0  0  0  0
  1  5  2  0  0  0  0
  2  6  2  0  0  0  0
  3  8  2  0  0  0  0
  3 17  1  0  0  0  0
  4  9  1  0  0  0  0
  4 17  2  0  0  0  0
  5 19  1  0  0  0  0
  6 21  1  0  0  0  0
  7 10  2  0  0  0  0
  7 20  1  0  0  0  0
  8 27  1  0  0  0  0
  9 27  2  0  0  0  0
 10 28  1  0  0  0  0
 11 12  2  0  0  0  0
 11 29  1  0  0  0  0
 12 30  1  0  0  0  0
 13 22  1  0  0  0  0
 13 28  2  0  0  0  0
 14 23  2  0  0  0  0
 14 25  1  0  0  0  0
 15 24  1  0  0  0  0
 15 26  2  0  0  0  0
 16 30  2  0  0  0  0
 16 31  1  0  0  0  0
 17 32  1  0  0  0  0
 18 32  1  0  0  0  0
 18 33  2  0  0  0  0
 18 36  1  0  0  0  0
 19 21  2  0  0  0  0
 19 41  1  0  0  0  0
 20 22  2  0  0  0  0
 20 42  1  0  0  0  0
 21 53  1  0  0  0  0
 22 43  1  0  0  0  0
 23 26  1  0  0  0  0
 23 57  1  0  0  0  0
 24 25  2  0  0  0  0
 24 58  1  0  0  0  0
 25 69  1  0  0  0  0
 26 74  1  0  0  0  0
 27 83  1  0  0  0  0
 28 84  1  0  0  0  0
 29 31  2  0  0  0  0
 29 83  1  0  0  0  0
 30 85  1  0  0  0  0
 31 86  1  0  0  0  0
 32 67  2  0  0  0  0
 33 68  1  0  0  0  0
 33 72  1  0  0  0  0
 34 35  2  0  0  0  0
 34 44  1  0  0  0  0
 34 69  1  0  0  0  0
 36 73  1  0  0  0  0
 36 78  2  0  0  0  0
 37 54  1  0  0  0  0
 37 75  1  0  0  0  0
 37 79  2  0  0  0  0
 38 64  1  0  0  0  0
 38 70  1  0  0  0  0
 38 80  2  0  0  0  0
 39 65  1  0  0  0  0
 39 76  1  0  0  0  0
 39 81  2  0  0  0  0
 40 71  1  0  0  0  0
 40 74  1  0  0  0  0
 40 82  2  0  0  0  0
 41 45  1  0  0  0  0
 42 54  1  0  0  0  0
 43 70  1  0  0  0  0
 44 46  1  0  0  0  0
 45 48  1  0  0  0  0
 46 56  1  0  0  0  0
 47 49  1  0  0  0  0
 47 50  1  0  0  0  0
 48 53  1  0  0  0  0
 49 55  1  0  0  0  0
 50 71  1  0  0  0  0
 51 55  1  0  0  0  0
 51 71  1  0  0  0  0
 52 56  1  0  0  0  0
 52 69  1  0  0  0  0
 53 75  1  0  0  0  0
 54 70  1  0  0  0  0
 55 68  1  0  0  0  0
 56 84  1  0  0  0  0
 59 65  1  0  0  0  0
 60 66  1  0  0  0  0
 61 66  1  0  0  0  0
 62 66  1  0  0  0  0
 63 77  1  0  0  0  0
 64 66  1  0  0  0  0
 64 76  1  0  0  0  0
 65 77  1  0  0  0  0
 67 68  1  0  0  0  0
M  CHG  1  77   1
M  ISO  4  40 100  56 101  74 100  84 101
M  END
> <Batch ID>
0044

> <Smiles>
C=C1CC[101CH:1]([101O:1]c2ccc3c(c2)CN(C(=O)C(NC(=O)C(C)NC)C(C)(C)C)C(C(=O)NC2CCCc4ccccc42)C3)CN1c1cc(C)c([100NH:0][100C:0](=O)N2CCCC(n3nc(-c4ccc(Oc5ccc(F)cc5F)cc4)c(C(N)=O)c3N)C2)cc1C

> <Shape>
0.284

> <Color>
0.115

> <Negative vol penalty>
0.000

$$$$

  -OEChem-04042322183D

 85 93  0     1  0  0  0  0  0999 V2000
  -24.5674  -19.8443   27.6745 C   0  0  0  0  0  0  0  0  0  0  0  0
  -25.4330  -20.3925   26.7334 C   0  0  0  0  0  0  0  0  0  0  0  0
  -34.5725  -23.7730   17.8554 C   0  0  0  0  0  0  0  0  0  0  0  0
  -25.4785  -15.1791   21.6769 C   0  0  0  0  0  0  0  0  0  0  0  0
  -24.9943  -16.2932   19.5885 C   0  0  0  0  0  0  0  0  0  0  0  0
  -23.1948  -20.0649   27.5694 C   0  0  0  0  0  0  0  0  0  0  0  0
  -24.9262  -21.1609   25.6859 C   0  0  0  0  0  0  0  0  0  0  0  0
  -27.5739  -26.0254   23.0722 C   0  0  0  0  0  0  0  0  0  0  0  0
  -34.6534  -23.4368   19.2066 C   0  0  0  0  0  0  0  0  0  0  0  0
  -33.3791  -23.5810   17.1591 C   0  0  0  0  0  0  0  0  0  0  0  0
  -24.2535  -14.5157   21.6070 C   0  0  0  0  0  0  0  0  0  0  0  0
  -23.7693  -15.6298   19.5186 C   0  0  0  0  0  0  0  0  0  0  0  0
  -28.3207  -26.1722   21.9040 C   0  0  0  0  0  0  0  0  0  0  0  0
  -22.9498  -11.8579   19.9731 C   0  0  0  0  0  0  0  0  0  0  0  0
  -22.9351  -10.4923   20.2565 C   0  0  0  0  0  0  0  0  0  0  0  0
  -26.3292  -26.8498   20.7233 C   0  0  0  0  0  0  0  0  0  0  0  0
  -21.3980  -10.8869   22.0782 C   0  0  0  0  0  0  0  0  0  0  0  0
  -25.8489  -16.0679   20.6677 C   0  0  0  0  0  0  0  0  0  0  0  0
  -28.3479  -16.3183   20.2209 C   0  0  0  0  0  0  0  0  0  0  0  0
  -22.6718  -20.8443   26.5256 C   0  0  0  0  0  0  0  0  0  0  0  0
  -26.1949  -26.2796   23.0721 C   0  0  0  0  0  0  0  0  0  0  0  0
  -23.5451  -21.3910   25.5660 C   0  0  0  0  0  0  0  0  0  0  0  0
  -25.5677  -26.7079   21.8934 C   0  0  0  0  0  0  0  0  0  0  0  0
  -33.5410  -22.9083   19.8616 C   0  0  0  0  0  0  0  0  0  0  0  0
  -32.2668  -23.0525   17.8141 C   0  0  0  0  0  0  0  0  0  0  0  0
  -32.3477  -22.7161   19.1654 C   0  0  0  0  0  0  0  0  0  0  0  0
  -23.3989  -14.7410   20.5278 C   0  0  0  0  0  0  0  0  0  0  0  0
  -27.6978  -26.5816   20.7287 C   0  0  0  0  0  0  0  0  0  0  0  0
  -22.1886  -12.7381   20.7423 C   0  0  0  0  0  0  0  0  0  0  0  0
  -22.1592  -10.0067   21.3090 C   0  0  0  0  0  0  0  0  0  0  0  0
  -21.4127  -12.2526   21.7948 C   0  0  0  0  0  0  0  0  0  0  0  0
  -27.1139  -16.7540   20.7396 C   0  0  0  0  0  0  0  0  0  0  0  0
  -29.2305  -17.3183   20.5488 C   0  0  0  0  0  0  0  0  0  0  0  0
  -28.6678  -15.1171   19.5064 C   0  0  0  0  0  0  0  0  0  0  0  0
  -23.5937  -24.5425   23.6377 C   0  0  0  0  0  0  0  0  0  0  0  0
  -22.0922  -27.4016   23.3317 C   0  0  0  0  0  0  0  0  0  0  0  0
  -29.3787  -24.6517   17.7085 C   0  0  0  0  0  0  0  0  0  0  0  0
  -22.1264  -30.5713   22.0672 C   0  0  0  0  0  0  0  0  0  0  0  0
  -30.5549  -22.7127   20.9352 C   0  0  0  0  0  0  0  0  0  0  0  0
  -21.1766  -21.0158   26.4265 C   0  0  0  0  0  0  0  0  0  0  0  0
  -25.4084  -26.1424   24.3469 C   0  0  0  0  0  0  0  0  0  0  0  0
  -24.0936  -27.0131   21.8453 C   0  0  0  0  0  0  0  0  0  0  0  0
  -20.7540  -22.1527   25.4997 C   0  0  0  0  0  0  0  0  0  0  0  0
  -28.6998  -21.3016   23.6268 C   0  0  0  0  0  0  0  0  0  0  0  0
  -21.5301  -22.0888   24.1880 C   0  0  0  0  0  0  0  0  0  0  0  0
  -28.2234  -19.9568   23.0729 C   0  0  0  0  0  0  0  0  0  0  0  0
  -28.6977  -22.3895   22.5543 C   0  0  0  0  0  0  0  0  0  0  0  0
  -28.9525  -20.7074   20.7725 C   0  0  0  0  0  0  0  0  0  0  0  0
  -23.0358  -22.2506   24.4295 C   0  0  1  0  0  0  0  0  0  0  0  0
  -23.9163  -25.9324   24.1087 C   0  0  1  0  0  0  0  0  0  0  0  0
  -28.9992  -19.5648   21.8001 C   0  0  2  0  0  0  0  0  0  0  0  0
  -33.6587  -22.5576   21.3097 C   0  0  0  0  0  0  0  0  0  0  0  0
  -20.7422  -32.6613   21.9523 C   0  0  0  0  0  0  0  0  0  0  0  0
  -20.2907  -26.0910   21.2468 C   0  0  0  0  0  0  0  0  0  0  0  0
  -19.6024  -28.3806   20.5038 C   0  0  0  0  0  0  0  0  0  0  0  0
  -19.1096  -27.6254   22.8296 C   0  0  0  0  0  0  0  0  0  0  0  0
  -30.6399  -24.7893   15.5495 C   0  0  0  0  0  0  0  0  0  0  0  0
  -24.2002  -32.1599   23.4580 C   0  0  0  0  0  0  0  0  0  0  0  0
  -30.9968  -22.8581   17.0373 C   0  0  0  0  0  0  0  0  0  0  0  0
  -28.7387  -25.9797   17.3172 C   0  0  0  0  0  0  0  0  0  0  0  0
  -27.7464  -26.4939   18.3526 C   0  0  0  0  0  0  0  0  0  1  0  0
  -21.4911  -28.1760   22.1837 C   0  0  1  0  0  0  0  0  0  0  0  0
  -21.8302  -31.9149   22.7086 C   0  0  2  0  0  0  0  0  0  0  0  0
  -20.1509  -27.5607   21.6911 C   0  0  0  0  0  0  0  0  0  0  0  0
  -27.2007  -17.9385   21.3508 N   0  0  0  0  0  0  0  0  0  0  0  0
  -28.5000  -18.2555   21.2182 N   0  0  0  0  0  0  0  0  0  0  0  0
  -23.3665  -26.8580   23.1161 N   0  0  0  0  0  0  0  0  0  0  0  0
  -29.4550  -21.9495   21.3804 N   0  0  0  0  0  0  0  0  0  0  0  0
  -30.5524  -17.4786   20.3270 N   0  0  0  0  0  0  0  0  0  0  0  0
  -27.6417  -14.1965   19.2540 N   0  0  0  0  0  0  0  0  0  0  0  0
  -31.2178  -22.1790   19.8305 N   0  0  0  0  0  0  0  0  0  0  0  0
  -23.3641  -23.6412   24.6596 N   0  0  0  0  0  0  0  0  0  0  0  0
  -21.3832  -29.5588   22.6361 N   0  0  0  0  0  0  0  0  0  0  0  0
  -30.3019  -24.1214   16.8004 N   0  0  0  0  0  0  0  0  0  0  0  0
  -23.0561  -32.7620   22.7262 N   0  3  0  0  0  0  0  0  0  0  0  0
  -29.8326  -14.8600   19.1181 O   0  0  0  0  0  0  0  0  0  0  0  0
  -23.5544  -24.3057   22.4360 O   0  0  0  0  0  0  0  0  0  0  0  0
  -21.4577  -27.2894   24.3835 O   0  0  0  0  0  0  0  0  0  0  0  0
  -29.0803  -24.1007   18.7714 O   0  0  0  0  0  0  0  0  0  0  0  0
  -22.9334  -30.4343   21.1504 O   0  0  0  0  0  0  0  0  0  0  0  0
  -30.9012  -23.7482   21.5095 O   0  0  0  0  0  0  0  0  0  0  0  0
  -22.2037  -14.0936   20.4592 O   0  0  0  0  0  0  0  0  0  0  0  0
  -28.4242  -26.7250   19.5869 O   0  0  0  0  0  0  0  0  0  1  0  0
  -22.1440   -8.6951   21.5801 F   0  0  0  0  0  0  0  0  0  0  0  0
  -20.6785  -13.0931   22.5365 F   0  0  0  0  0  0  0  0  0  0  0  0
  1  2  1  0  0  0  0
  1  6  2  0  0  0  0
  2  7  2  0  0  0  0
  3  9  1  0  0  0  0
  3 10  2  0  0  0  0
  4 11  2  0  0  0  0
  4 18  1  0  0  0  0
  5 12  1  0  0  0  0
  5 18  2  0  0  0  0
  6 20  1  0  0  0  0
  7 22  1  0  0  0  0
  8 13  2  0  0  0  0
  8 21  1  0  0  0  0
  9 24  2  0  0  0  0
 10 25  1  0  0  0  0
 11 27  1  0  0  0  0
 12 27  2  0  0  0  0
 13 28  1  0  0  0  0
 14 15  2  0  0  0  0
 14 29  1  0  0  0  0
 15 30  1  0  0  0  0
 16 23  1  0  0  0  0
 16 28  2  0  0  0  0
 17 30  2  0  0  0  0
 17 31  1  0  0  0  0
 18 32  1  0  0  0  0
 19 32  1  0  0  0  0
 19 33  2  0  0  0  0
 19 34  1  0  0  0  0
 20 22  2  0  0  0  0
 20 40  1  0  0  0  0
 21 23  2  0  0  0  0
 21 41  1  0  0  0  0
 22 49  1  0  0  0  0
 23 42  1  0  0  0  0
 24 26  1  0  0  0  0
 24 52  1  0  0  0  0
 25 26  2  0  0  0  0
 25 59  1  0  0  0  0
 26 71  1  0  0  0  0
 27 82  1  0  0  0  0
 28 83  1  0  0  0  0
 29 31  2  0  0  0  0
 29 82  1  0  0  0  0
 30 84  1  0  0  0  0
 31 85  1  0  0  0  0
 32 65  2  0  0  0  0
 33 66  1  0  0  0  0
 33 69  1  0  0  0  0
 34 70  1  0  0  0  0
 34 76  2  0  0  0  0
 35 50  1  0  0  0  0
 35 72  1  0  0  0  0
 35 77  2  0  0  0  0
 36 62  1  0  0  0  0
 36 67  1  0  0  0  0
 36 78  2  0  0  0  0
 37 60  1  0  0  0  0
 37 74  1  0  0  0  0
 37 79  2  0  0  0  0
 38 63  1  0  0  0  0
 38 73  1  0  0  0  0
 38 80  2  0  0  0  0
 39 68  1  0  0  0  0
 39 71  1  0  0  0  0
 39 81  2  0  0  0  0
 40 43  1  0  0  0  0
 41 50  1  0  0  0  0
 42 67  1  0  0  0  0
 43 45  1  0  0  0  0
 44 46  1  0  0  0  0
 44 47  1  0  0  0  0
 45 49  1  0  0  0  0
 46 51  1  0  0  0  0
 47 68  1  0  0  0  0
 48 51  1  0  0  0  0
 48 68  1  0  0  0  0
 49 72  1  0  0  0  0
 50 67  1  0  0  0  0
 51 66  1  0  0  0  0
 53 63  1  0  0  0  0
 54 64  1  0  0  0  0
 55 64  1  0  0  0  0
 56 64  1  0  0  0  0
 57 74  1  0  0  0  0
 58 75  1  0  0  0  0
 59 74  1  0  0  0  0
 60 61  1  0  0  0  0
 61 83  1  0  0  0  0
 62 64  1  0  0  0  0
 62 73  1  0  0  0  0
 63 75  1  0  0  0  0
 65 66  1  0  0  0  0
M  CHG  1  75   1
M  ISO  4  39 100  61 101  71 100  83 101
M  END
> <Batch ID>
0044

> <Smiles>
CNC(C)C(=O)NC(C(=O)N1Cc2cc([101O:1][101CH2:1]CC(=O)N(C)Cc3cccc(C)c3[100NH:0][100C:0](=O)N3CCCC(n4nc(-c5ccc(Oc6ccc(F)cc6F)cc5)c(C(N)=O)c4N)C3)ccc2CC1C(=O)NC1CCCc2ccccc21)C(C)(C)C

> <Shape>
0.213

> <Color>
0.070

> <Negative vol penalty>
0.000

$$$$

  -OEChem-04042322183D

 83 91  0     1  0  0  0  0  0999 V2000
  -32.3459  -17.3872   21.5999 C   0  0  0  0  0  0  0  0  0  0  0  0
  -31.1268  -18.0323   21.7821 C   0  0  0  0  0  0  0  0  0  0  0  0
  -24.2166  -29.7316   25.0325 C   0  0  0  0  0  0  0  0  0  0  0  0
  -28.3353  -23.0679   21.4623 C   0  0  0  0  0  0  0  0  0  0  0  0
  -29.9736  -23.7970   19.8432 C   0  0  0  0  0  0  0  0  0  0  0  0
  -24.3342  -30.1077   23.6945 C   0  0  0  0  0  0  0  0  0  0  0  0
  -32.3968  -16.1779   20.9079 C   0  0  0  0  0  0  0  0  0  0  0  0
  -29.9580  -17.4688   21.2715 C   0  0  0  0  0  0  0  0  0  0  0  0
  -26.1297  -17.6007   24.5839 C   0  0  0  0  0  0  0  0  0  0  0  0
  -23.3375  -28.7113   25.3955 C   0  0  0  0  0  0  0  0  0  0  0  0
  -28.5653  -21.7413   21.0977 C   0  0  0  0  0  0  0  0  0  0  0  0
  -30.2036  -22.4704   19.4786 C   0  0  0  0  0  0  0  0  0  0  0  0
  -25.4660  -18.8165   24.7419 C   0  0  0  0  0  0  0  0  0  0  0  0
  -30.9628  -19.3017   17.8684 C   0  0  0  0  0  0  0  0  0  0  0  0
  -31.0384  -19.0072   16.5071 C   0  0  0  0  0  0  0  0  0  0  0  0
  -22.6937  -28.4432   23.0824 C   0  0  0  0  0  0  0  0  0  0  0  0
  -23.7007  -18.0338   23.2961 C   0  0  0  0  0  0  0  0  0  0  0  0
  -28.7836  -19.8209   16.2059 C   0  0  0  0  0  0  0  0  0  0  0  0
  -29.0394  -24.0957   20.8350 C   0  0  0  0  0  0  0  0  0  0  0  0
  -23.5728  -29.4635   22.7194 C   0  0  0  0  0  0  0  0  0  0  0  0
  -29.4651  -26.2004   22.2122 C   0  0  0  0  0  0  0  0  0  0  0  0
  -31.2266  -15.5945   20.3969 C   0  0  0  0  0  0  0  0  0  0  0  0
  -25.5884  -16.5946   23.7707 C   0  0  0  0  0  0  0  0  0  0  0  0
  -29.9934  -16.2512   20.5709 C   0  0  0  0  0  0  0  0  0  0  0  0
  -24.3583  -16.8052   23.1315 C   0  0  0  0  0  0  0  0  0  0  0  0
  -22.5760  -28.0671   24.4204 C   0  0  0  0  0  0  0  0  0  0  0  0
  -29.4995  -21.4426   20.1059 C   0  0  0  0  0  0  0  0  0  0  0  0
  -24.2528  -19.0344   24.0956 C   0  0  0  0  0  0  0  0  0  0  0  0
  -29.7976  -19.8557   18.3985 C   0  0  0  0  0  0  0  0  0  0  0  0
  -29.9488  -19.2668   15.6758 C   0  0  0  0  0  0  0  0  0  0  0  0
  -28.7080  -20.1153   17.5672 C   0  0  0  0  0  0  0  0  0  0  0  0
  -28.8018  -25.4663   21.2107 C   0  0  0  0  0  0  0  0  0  0  0  0
  -28.8771  -27.4411   22.1748 C   0  0  0  0  0  0  0  0  0  0  0  0
  -23.3289  -23.6116   24.7387 C   0  0  0  0  0  0  0  0  0  0  0  0
  -23.6816  -22.5773   23.9632 C   0  0  0  0  0  0  0  0  0  0  0  0
  -23.6965  -29.8592   21.3105 C   0  0  0  0  0  0  0  0  0  0  0  0
  -30.5185  -25.7969   23.0971 C   0  0  0  0  0  0  0  0  0  0  0  0
  -22.6020  -24.7740   24.1577 C   0  0  0  0  0  0  0  0  0  0  0  0
  -26.5268  -15.0997   21.1272 C   0  0  0  0  0  0  0  0  0  0  0  0
  -23.8820  -13.3023   21.6716 C   0  0  0  0  0  0  0  0  0  0  0  0
  -20.7955  -13.0496   23.1058 C   0  0  0  0  0  0  0  0  0  0  0  0
  -31.3378  -14.3097   19.6148 C   0  0  0  0  0  0  0  0  0  0  0  0
  -26.3035  -15.2787   23.6320 C   0  0  0  0  0  0  0  0  0  0  0  0
  -23.7246  -15.7497   22.2637 C   0  0  0  0  0  0  0  0  0  0  0  0
  -30.0035  -13.5917   19.4301 C   0  0  0  0  0  0  0  0  0  0  0  0
  -26.2601  -29.9710   18.8292 C   0  0  0  0  0  0  0  0  0  0  0  0
  -28.9238  -14.5759   18.9914 C   0  0  0  0  0  0  0  0  0  0  0  0
  -27.2348  -28.8787   19.2730 C   0  0  0  0  0  0  0  0  0  0  0  0
  -24.8119  -29.5868   19.1215 C   0  0  0  0  0  0  0  0  0  0  0  0
  -25.5245  -28.1150   20.9738 C   0  0  0  0  0  0  0  0  0  0  0  0
  -28.7004  -15.6593   20.0534 C   0  0  1  0  0  0  0  0  0  0  0  0
  -25.9136  -14.5170   22.3690 C   0  0  1  0  0  0  0  0  0  0  0  0
  -26.9991  -28.4846   20.7433 C   0  0  1  0  0  0  0  0  0  0  0  0
  -18.8577  -11.4733   23.3452 C   0  0  0  0  0  0  0  0  0  0  0  0
  -23.0148  -13.9384   18.8162 C   0  0  0  0  0  0  0  0  0  0  0  0
  -20.7097  -13.1693   19.4190 C   0  0  0  0  0  0  0  0  0  0  0  0
  -22.6227  -11.5716   19.5228 C   0  0  0  0  0  0  0  0  0  0  0  0
  -21.0865  -12.9551   26.0495 C   0  0  0  0  0  0  0  0  0  0  0  0
  -21.6306  -26.9685   24.8120 C   0  0  0  0  0  0  0  0  0  0  0  0
  -24.4073  -21.3764   24.4787 C   0  0  0  0  0  0  0  0  0  1  0  0
  -22.4293  -13.3888   21.2700 C   0  0  1  0  0  0  0  0  0  0  0  0
  -20.1645  -11.9591   23.9526 C   0  0  2  0  0  0  0  0  0  0  0  0
  -22.2068  -13.0378   19.7717 C   0  0  0  0  0  0  0  0  0  0  0  0
  -27.8641  -26.1810   20.5830 N   0  0  0  0  0  0  0  0  0  0  0  0
  -27.9339  -27.3771   21.1917 N   0  0  0  0  0  0  0  0  0  0  0  0
  -24.6503  -29.2078   20.5247 N   0  0  0  0  0  0  0  0  0  0  0  0
  -24.4655  -14.4822   22.1543 N   0  0  0  0  0  0  0  0  0  0  0  0
  -29.0801  -28.5697   22.8872 N   0  0  0  0  0  0  0  0  0  0  0  0
  -31.0062  -24.4864   23.0016 N   0  0  0  0  0  0  0  0  0  0  0  0
  -22.3264  -25.7375   25.1130 N   0  0  0  0  0  0  0  0  0  0  0  0
  -27.9079  -15.1392   21.1469 N   0  0  0  0  0  0  0  0  0  0  0  0
  -21.6974  -12.5344   22.1989 N   0  0  0  0  0  0  0  0  0  0  0  0
  -19.8847  -12.4663   25.3257 N   0  3  0  0  0  0  0  0  0  0  0  0
  -22.9460  -30.7565   20.9301 O   0  0  0  0  0  0  0  0  0  0  0  0
  -31.0015  -26.5703   23.9585 O   0  0  0  0  0  0  0  0  0  0  0  0
  -22.3018  -24.8366   22.9700 O   0  0  0  0  0  0  0  0  0  0  0  0
  -25.8007  -15.4837   20.2178 O   0  0  0  0  0  0  0  0  0  0  0  0
  -24.4750  -12.2256   21.5678 O   0  0  0  0  0  0  0  0  0  0  0  0
  -20.5136  -14.2390   23.2333 O   0  0  0  0  0  0  0  0  0  0  0  0
  -29.7243  -20.1482   19.7500 O   0  0  0  0  0  0  0  0  0  0  0  0
  -23.6032  -20.2204   24.2476 O   0  0  0  0  0  0  0  0  0  1  0  0
  -30.0221  -18.9854   14.3683 F   0  0  0  0  0  0  0  0  0  0  0  0
  -27.5863  -20.6486   18.0705 F   0  0  0  0  0  0  0  0  0  0  0  0
  1  2  1  0  0  0  0
  1  7  2  0  0  0  0
  2  8  2  0  0  0  0
  3  6  1  0  0  0  0
  3 10  2  0  0  0  0
  4 11  2  0  0  0  0
  4 19  1  0  0  0  0
  5 12  1  0  0  0  0
  5 19  2  0  0  0  0
  6 20  2  0  0  0  0
  7 22  1  0  0  0  0
  8 24  1  0  0  0  0
  9 13  2  0  0  0  0
  9 23  1  0  0  0  0
 10 26  1  0  0  0  0
 11 27  1  0  0  0  0
 12 27  2  0  0  0  0
 13 28  1  0  0  0  0
 14 15  2  0  0  0  0
 14 29  1  0  0  0  0
 15 30  1  0  0  0  0
 16 20  1  0  0  0  0
 16 26  2  0  0  0  0
 17 25  1  0  0  0  0
 17 28  2  0  0  0  0
 18 30  2  0  0  0  0
 18 31  1  0  0  0  0
 19 32  1  0  0  0  0
 20 36  1  0  0  0  0
 21 32  1  0  0  0  0
 21 33  2  0  0  0  0
 21 37  1  0  0  0  0
 22 24  2  0  0  0  0
 22 42  1  0  0  0  0
 23 25  2  0  0  0  0
 23 43  1  0  0  0  0
 24 51  1  0  0  0  0
 25 44  1  0  0  0  0
 26 59  1  0  0  0  0
 27 80  1  0  0  0  0
 28 81  1  0  0  0  0
 29 31  2  0  0  0  0
 29 80  1  0  0  0  0
 30 82  1  0  0  0  0
 31 83  1  0  0  0  0
 32 64  2  0  0  0  0
 33 65  1  0  0  0  0
 33 68  1  0  0  0  0
 34 35  2  0  0  0  0
 34 38  1  0  0  0  0
 35 60  1  0  0  0  0
 36 66  1  0  0  0  0
 36 74  2  0  0  0  0
 37 69  1  0  0  0  0
 37 75  2  0  0  0  0
 38 70  1  0  0  0  0
 38 76  2  0  0  0  0
 39 52  1  0  0  0  0
 39 71  1  0  0  0  0
 39 77  2  0  0  0  0
 40 61  1  0  0  0  0
 40 67  1  0  0  0  0
 40 78  2  0  0  0  0
 41 62  1  0  0  0  0
 41 72  1  0  0  0  0
 41 79  2  0  0  0  0
 42 45  1  0  0  0  0
 43 52  1  0  0  0  0
 44 67  1  0  0  0  0
 45 47  1  0  0  0  0
 46 48  1  0  0  0  0
 46 49  1  0  0  0  0
 47 51  1  0  0  0  0
 48 53  1  0  0  0  0
 49 66  1  0  0  0  0
 50 53  1  0  0  0  0
 50 66  1  0  0  0  0
 51 71  1  0  0  0  0
 52 67  1  0  0  0  0
 53 65  1  0  0  0  0
 54 62  1  0  0  0  0
 55 63  1  0  0  0  0
 56 63  1  0  0  0  0
 57 63  1  0  0  0  0
 58 73  1  0  0  0  0
 59 70  1  0  0  0  0
 60 81  1  0  0  0  0
 61 63  1  0  0  0  0
 61 72  1  0  0  0  0
 62 73  1  0  0  0  0
 64 65  1  0  0  0  0
M  CHG  1  73   1
M  ISO  4  20 100  36 100  60 101  81 101
M  END
> <Batch ID>
0044

> <Smiles>
CNC(C)C(=O)NC(C(=O)N1Cc2cc([101O:1][101CH2:1]C=CC(=O)NCc3ccc[100c:0]([100C:0](=O)N4CCCC(n5nc(-c6ccc(Oc7ccc(F)cc7F)cc6)c(C(N)=O)c5N)C4)c3)ccc2CC1C(=O)NC1CCCc2ccccc21)C(C)(C)C

> <Shape>
0.202

> <Color>
0.063

> <Negative vol penalty>
0.000

$$$$

  -OEChem-04042322183D

 87 96  0     1  0  0  0  0  0999 V2000
  -25.2185  -33.9738   20.2309 C   0  0  0  0  0  0  0  0  0  0  0  0
  -25.7590  -33.0922   19.3017 C   0  0  0  0  0  0  0  0  0  0  0  0
  -23.3085  -10.2146   22.2377 C   0  0  0  0  0  0  0  0  0  0  0  0
  -23.6032   -9.5275   19.9403 C   0  0  0  0  0  0  0  0  0  0  0  0
  -25.6232  -33.9115   21.5626 C   0  0  0  0  0  0  0  0  0  0  0  0
  -26.6955  -32.1402   19.7061 C   0  0  0  0  0  0  0  0  0  0  0  0
  -31.4794  -25.4024   20.7639 C   0  0  0  0  0  0  0  0  0  0  0  0
  -22.5642   -9.0616   22.4871 C   0  0  0  0  0  0  0  0  0  0  0  0
  -22.8589   -8.3744   20.1897 C   0  0  0  0  0  0  0  0  0  0  0  0
  -32.0194  -24.7468   21.8695 C   0  0  0  0  0  0  0  0  0  0  0  0
  -19.4141   -7.9643   21.9416 C   0  0  0  0  0  0  0  0  0  0  0  0
  -18.2305   -8.1021   22.6666 C   0  0  0  0  0  0  0  0  0  0  0  0
  -29.9654  -25.1108   23.0809 C   0  0  0  0  0  0  0  0  0  0  0  0
  -32.0590  -16.5925   22.5290 C   0  0  0  0  0  0  0  0  0  0  0  0
  -30.5169  -18.3561   24.0437 C   0  0  0  0  0  0  0  0  0  0  0  0
  -19.0957   -6.6140   24.3619 C   0  0  0  0  0  0  0  0  0  0  0  0
  -23.8279  -10.4476   20.9642 C   0  0  0  0  0  0  0  0  0  0  0  0
  -24.1679  -12.9729   20.8413 C   0  0  0  0  0  0  0  0  0  0  0  0
  -26.5744  -32.9662   21.9803 C   0  0  0  0  0  0  0  0  0  0  0  0
  -30.1801  -25.9276   20.8123 C   0  0  0  0  0  0  0  0  0  0  0  0
  -27.0990  -32.0457   21.0503 C   0  0  0  0  0  0  0  0  0  0  0  0
  -29.4103  -25.7704   21.9737 C   0  0  0  0  0  0  0  0  0  0  0  0
  -32.6762  -17.4684   23.4220 C   0  0  0  0  0  0  0  0  0  0  0  0
  -31.9052  -18.3502   24.1794 C   0  0  0  0  0  0  0  0  0  0  0  0
  -30.6708  -16.5985   22.3932 C   0  0  0  0  0  0  0  0  0  0  0  0
  -22.3394   -8.1415   21.4631 C   0  0  0  0  0  0  0  0  0  0  0  0
  -31.2634  -24.6035   23.0292 C   0  0  0  0  0  0  0  0  0  0  0  0
  -20.4386   -7.1513   22.4267 C   0  0  0  0  0  0  0  0  0  0  0  0
  -18.0713   -7.4270   23.8767 C   0  0  0  0  0  0  0  0  0  0  0  0
  -20.2793   -6.4762   23.6369 C   0  0  0  0  0  0  0  0  0  0  0  0
  -29.8997  -17.4803   23.1506 C   0  0  0  0  0  0  0  0  0  0  0  0
  -24.5964  -11.6387   20.7058 C   0  0  0  0  0  0  0  0  0  0  0  0
  -25.2599  -13.7227   20.4783 C   0  0  0  0  0  0  0  0  0  0  0  0
  -32.0237  -21.5975   24.4187 C   0  0  0  0  0  0  0  0  0  0  0  0
  -22.8965  -13.4882   21.2580 C   0  0  0  0  0  0  0  0  0  0  0  0
  -28.9264  -28.8381   20.5655 C   0  0  0  0  0  0  0  0  0  0  0  0
  -26.1203  -27.2135   20.6614 C   0  0  0  0  0  0  0  0  0  0  0  0
  -24.7495  -24.4322   22.5061 C   0  0  0  0  0  0  0  0  0  0  0  0
  -30.7250  -14.7729   20.6581 C   0  0  0  0  0  0  0  0  0  0  0  0
  -26.9708  -32.9376   23.4354 C   0  0  0  0  0  0  0  0  0  0  0  0
  -29.6024  -26.6086   19.6020 C   0  0  0  0  0  0  0  0  0  0  0  0
  -28.0029  -26.2983   22.0698 C   0  0  0  0  0  0  0  0  0  0  0  0
  -28.2832  -32.1998   23.6797 C   0  0  0  0  0  0  0  0  0  0  0  0
  -29.9894  -21.7931   26.5189 C   0  0  0  0  0  0  0  0  0  0  0  0
  -29.6154  -12.3550   18.2917 C   0  0  0  0  0  0  0  0  0  0  0  0
  -28.2577  -30.8487   22.9809 C   0  0  0  0  0  0  0  0  0  0  0  0
  -30.6514  -23.0494   25.9927 C   0  0  0  0  0  0  0  0  0  0  0  0
  -28.1754  -12.0629   18.7200 C   0  0  0  0  0  0  0  0  0  0  0  0
  -30.9879  -20.6495   26.5140 C   0  0  0  0  0  0  0  0  0  0  0  0
  -30.5289  -12.5862   19.4942 C   0  0  0  0  0  0  0  0  0  0  0  0
  -28.6197  -13.3110   20.8722 C   0  0  0  0  0  0  0  0  0  0  0  0
  -28.1418  -31.0219   21.4612 C   0  0  1  0  0  0  0  0  0  0  0  0
  -31.1094  -22.8069   24.5680 C   0  0  1  0  0  0  0  0  0  1  0  0
  -28.4552  -27.5558   19.9399 C   0  0  1  0  0  0  0  0  0  0  0  0
  -27.6484  -13.1354   19.6934 C   0  0  2  0  0  0  0  0  0  0  0  0
  -34.1643  -17.4461   23.5475 C   0  0  0  0  0  0  0  0  0  0  0  0
  -22.9584  -22.7876   21.8863 C   0  0  0  0  0  0  0  0  0  0  0  0
  -24.2543  -29.1359   22.1218 C   0  0  0  0  0  0  0  0  0  0  0  0
  -23.0224  -27.1491   23.0180 C   0  0  0  0  0  0  0  0  0  0  0  0
  -23.1086  -27.5556   20.5583 C   0  0  0  0  0  0  0  0  0  0  0  0
  -26.5328  -22.1243   23.0084 C   0  0  0  0  0  0  0  0  0  0  0  0
  -32.5472  -19.3022   25.1467 C   0  0  0  0  0  0  0  0  0  0  0  0
  -25.1867  -26.7562   21.7560 C   0  0  1  0  0  0  0  0  0  0  0  0
  -24.4552  -23.0428   21.9699 C   0  0  2  0  0  0  0  0  0  0  0  0
  -23.9209  -27.6522   21.8681 C   0  0  0  0  0  0  0  0  0  0  0  0
  -25.8618  -11.5434   20.2892 N   0  0  0  0  0  0  0  0  0  0  0  0
  -26.2378  -12.8271   20.1596 N   0  0  0  0  0  0  0  0  0  0  0  0
  -31.7814  -20.5333   25.2894 N   0  0  0  0  0  0  0  0  0  0  0  0
  -27.4850  -26.9621   20.8621 N   0  0  0  0  0  0  0  0  0  0  0  0
  -29.9680  -13.6177   20.3695 N   0  0  0  0  0  0  0  0  0  0  0  0
  -25.4693  -15.0543   20.4038 N   0  0  0  0  0  0  0  0  0  0  0  0
  -21.8849  -12.5787   21.5953 N   0  0  0  0  0  0  0  0  0  0  0  0
  -30.0760  -15.6985   21.4745 N   0  0  0  0  0  0  0  0  0  0  0  0
  -27.9108  -29.7293   20.8549 N   0  0  0  0  0  0  0  0  0  0  0  0
  -24.9020  -25.3505   21.4888 N   0  0  0  0  0  0  0  0  0  0  0  0
  -25.0598  -22.0073   22.8548 N   0  3  0  0  0  0  0  0  0  0  0  0
  -32.8717  -21.5751   23.5229 O   0  0  0  0  0  0  0  0  0  0  0  0
  -22.6592  -14.7187   21.3134 O   0  0  0  0  0  0  0  0  0  0  0  0
  -30.1226  -29.0059   20.7717 O   0  0  0  0  0  0  0  0  0  0  0  0
  -25.6552  -27.7669   19.6619 O   0  0  0  0  0  0  0  0  0  0  0  0
  -24.8320  -24.6790   23.7072 O   0  0  0  0  0  0  0  0  0  0  0  0
  -31.8546  -14.9419   20.1916 O   0  0  0  0  0  0  0  0  0  0  0  0
  -21.6134   -7.0162   21.7062 O   0  0  0  0  0  0  0  0  0  0  0  0
  -31.7883  -23.9646   24.1100 O   0  0  0  0  0  0  0  0  0  1  0  0
  -16.9352   -7.5606   24.5736 F   0  0  0  0  0  0  0  0  0  0  0  0
  -21.2604   -5.6947   24.1086 F   0  0  0  0  0  0  0  0  0  0  0  0
  -28.1777  -17.5204   23.0141 Cl  0  0  0  0  0  0  0  0  0  0  0  0
  1  2  1  0  0  0  0
  1  5  2  0  0  0  0
  2  6  2  0  0  0  0
  3  8  2  0  0  0  0
  3 17  1  0  0  0  0
  4  9  1  0  0  0  0
  4 17  2  0  0  0  0
  5 19  1  0  0  0  0
  6 21  1  0  0  0  0
  7 10  2  0  0  0  0
  7 20  1  0  0  0  0
  8 26  1  0  0  0  0
  9 26  2  0  0  0  0
 10 27  1  0  0  0  0
 11 12  2  0  0  0  0
 11 28  1  0  0  0  0
 12 29  1  0  0  0  0
 13 22  1  0  0  0  0
 13 27  2  0  0  0  0
 14 23  1  0  0  0  0
 14 25  2  0  0  0  0
 15 24  1  0  0  0  0
 15 31  2  0  0  0  0
 16 29  2  0  0  0  0
 16 30  1  0  0  0  0
 17 32  1  0  0  0  0
 18 32  1  0  0  0  0
 18 33  2  0  0  0  0
 18 35  1  0  0  0  0
 19 21  2  0  0  0  0
 19 40  1  0  0  0  0
 20 22  2  0  0  0  0
 20 41  1  0  0  0  0
 21 52  1  0  0  0  0
 22 42  1  0  0  0  0
 23 24  2  0  0  0  0
 23 56  1  0  0  0  0
 24 62  1  0  0  0  0
 25 31  1  0  0  0  0
 25 73  1  0  0  0  0
 26 83  1  0  0  0  0
 27 84  1  0  0  0  0
 28 30  2  0  0  0  0
 28 83  1  0  0  0  0
 29 85  1  0  0  0  0
 30 86  1  0  0  0  0
 31 87  1  0  0  0  0
 32 66  2  0  0  0  0
 33 67  1  0  0  0  0
 33 71  1  0  0  0  0
 34 53  1  0  0  0  0
 34 68  1  0  0  0  0
 34 77  2  0  0  0  0
 35 72  1  0  0  0  0
 35 78  2  0  0  0  0
 36 54  1  0  0  0  0
 36 74  1  0  0  0  0
 36 79  2  0  0  0  0
 37 63  1  0  0  0  0
 37 69  1  0  0  0  0
 37 80  2  0  0  0  0
 38 64  1  0  0  0  0
 38 75  1  0  0  0  0
 38 81  2  0  0  0  0
 39 70  1  0  0  0  0
 39 73  1  0  0  0  0
 39 82  2  0  0  0  0
 40 43  1  0  0  0  0
 41 54  1  0  0  0  0
 42 69  1  0  0  0  0
 43 46  1  0  0  0  0
 44 47  1  0  0  0  0
 44 49  1  0  0  0  0
 45 48  1  0  0  0  0
 45 50  1  0  0  0  0
 46 52  1  0  0  0  0
 47 53  1  0  0  0  0
 48 55  1  0  0  0  0
 49 68  1  0  0  0  0
 50 70  1  0  0  0  0
 51 55  1  0  0  0  0
 51 70  1  0  0  0  0
 52 74  1  0  0  0  0
 53 84  1  0  0  0  0
 54 69  1  0  0  0  0
 55 67  1  0  0  0  0
 57 64  1  0  0  0  0
 58 65  1  0  0  0  0
 59 65  1  0  0  0  0
 60 65  1  0  0  0  0
 61 76  1  0  0  0  0
 62 68  1  0  0  0  0
 63 65  1  0  0  0  0
 63 75  1  0  0  0  0
 64 76  1  0  0  0  0
 66 67  1  0  0  0  0
M  CHG  1  76   1
M  ISO  4  39 100  53 101  73 100  84 101
M  END
> <Batch ID>
0044

> <Smiles>
CNC(C)C(=O)NC(C(=O)N1Cc2cc([101O:1][101CH:1]3CCCN(Cc4cc(Cl)c([100NH:0][100C:0](=O)N5CCCC(n6nc(-c7ccc(Oc8ccc(F)cc8F)cc7)c(C(N)=O)c6N)C5)cc4C)C3=O)ccc2CC1C(=O)NC1CCCc2ccccc21)C(C)(C)C

> <Shape>
0.247

> <Color>
0.191

> <Negative vol penalty>
0.000

$$$$

  -OEChem-04042322183D

 83 91  0     1  0  0  0  0  0999 V2000
  -24.0144  -36.7585   19.9315 C   0  0  0  0  0  0  0  0  0  0  0  0
  -24.7763  -35.6612   19.5431 C   0  0  0  0  0  0  0  0  0  0  0  0
  -24.5485   -9.2896   21.5727 C   0  0  0  0  0  0  0  0  0  0  0  0
  -22.8004  -10.4251   20.3513 C   0  0  0  0  0  0  0  0  0  0  0  0
  -23.5019  -36.8267   21.2264 C   0  0  0  0  0  0  0  0  0  0  0  0
  -25.0270  -34.6318   20.4497 C   0  0  0  0  0  0  0  0  0  0  0  0
  -25.5200  -28.6582   19.1932 C   0  0  0  0  0  0  0  0  0  0  0  0
  -23.7194   -8.1785   21.7264 C   0  0  0  0  0  0  0  0  0  0  0  0
  -21.9713   -9.3140   20.5049 C   0  0  0  0  0  0  0  0  0  0  0  0
  -26.6235  -27.8279   19.0019 C   0  0  0  0  0  0  0  0  0  0  0  0
  -21.1294   -7.2568   23.6929 C   0  0  0  0  0  0  0  0  0  0  0  0
  -21.0694   -6.6633   24.9538 C   0  0  0  0  0  0  0  0  0  0  0  0
  -26.5036  -27.1462   21.3128 C   0  0  0  0  0  0  0  0  0  0  0  0
  -28.9266  -20.6128   18.1848 C   0  0  0  0  0  0  0  0  0  0  0  0
  -27.1490  -18.9778   18.2420 C   0  0  0  0  0  0  0  0  0  0  0  0
  -27.9613  -19.9515   20.2985 C   0  0  0  0  0  0  0  0  0  0  0  0
  -21.8743   -4.5877   24.0151 C   0  0  0  0  0  0  0  0  0  0  0  0
  -24.0890  -10.4129   20.8852 C   0  0  0  0  0  0  0  0  0  0  0  0
  -25.8438  -11.8123   19.6728 C   0  0  0  0  0  0  0  0  0  0  0  0
  -23.7384  -35.7930   22.1463 C   0  0  0  0  0  0  0  0  0  0  0  0
  -24.9057  -28.7472   20.4506 C   0  0  0  0  0  0  0  0  0  0  0  0
  -24.5183  -34.6868   21.7585 C   0  0  0  0  0  0  0  0  0  0  0  0
  -25.3909  -27.9765   21.5168 C   0  0  0  0  0  0  0  0  0  0  0  0
  -28.0634  -19.7432   17.5184 C   0  0  0  0  0  0  0  0  0  0  0  0
  -28.8757  -20.7170   19.5749 C   0  0  0  0  0  0  0  0  0  0  0  0
  -27.0979  -19.0819   19.6321 C   0  0  0  0  0  0  0  0  0  0  0  0
  -22.4308   -8.1906   21.1925 C   0  0  0  0  0  0  0  0  0  0  0  0
  -27.1173  -27.0739   20.0625 C   0  0  0  0  0  0  0  0  0  0  0  0
  -21.5618   -6.5157   22.5931 C   0  0  0  0  0  0  0  0  0  0  0  0
  -21.4419   -5.3288   25.1149 C   0  0  0  0  0  0  0  0  0  0  0  0
  -21.9343   -5.1812   22.7542 C   0  0  0  0  0  0  0  0  0  0  0  0
  -24.9447  -11.5612   20.7266 C   0  0  0  0  0  0  0  0  0  0  0  0
  -26.4105  -13.0236   19.9862 C   0  0  0  0  0  0  0  0  0  0  0  0
  -26.1402  -11.0214   18.5142 C   0  0  0  0  0  0  0  0  0  0  0  0
  -24.4365  -31.0803   22.5579 C   0  0  0  0  0  0  0  0  0  0  0  0
  -22.6873  -28.8174   24.0882 C   0  0  0  0  0  0  0  0  0  0  0  0
  -29.0270  -23.9930   19.9675 C   0  0  0  0  0  0  0  0  0  0  0  0
  -22.0705  -25.5040   24.6248 C   0  0  0  0  0  0  0  0  0  0  0  0
  -25.9882  -18.2880   21.7498 C   0  0  0  0  0  0  0  0  0  0  0  0
  -23.2033  -35.9335   23.5494 C   0  0  0  0  0  0  0  0  0  0  0  0
  -23.6997  -29.6273   20.6339 C   0  0  0  0  0  0  0  0  0  0  0  0
  -24.7547  -28.0208   22.8813 C   0  0  0  0  0  0  0  0  0  0  0  0
  -23.2005  -34.6241   24.3341 C   0  0  0  0  0  0  0  0  0  0  0  0
  -26.2020  -15.7549   24.2428 C   0  0  0  0  0  0  0  0  0  0  0  0
  -24.5346  -33.9023   24.1730 C   0  0  0  0  0  0  0  0  0  0  0  0
  -25.9680  -14.4587   23.4635 C   0  0  0  0  0  0  0  0  0  0  0  0
  -25.3445  -16.9007   23.7083 C   0  0  0  0  0  0  0  0  0  0  0  0
  -25.2265  -15.8456   21.4852 C   0  0  0  0  0  0  0  0  0  0  0  0
  -24.7913  -33.5386   22.7056 C   0  0  1  0  0  0  0  0  0  0  0  0
  -23.4698  -30.0309   22.0870 C   0  0  1  0  0  0  0  0  0  0  0  0
  -26.1162  -14.6793   21.9453 C   0  0  2  0  0  0  0  0  0  0  0  0
  -28.1181  -19.6319   16.0322 C   0  0  0  0  0  0  0  0  0  0  0  0
  -20.6058  -23.9638   25.9589 C   0  0  0  0  0  0  0  0  0  0  0  0
  -24.3598  -29.3857   26.5761 C   0  0  0  0  0  0  0  0  0  0  0  0
  -23.5302  -27.2297   27.5412 C   0  0  0  0  0  0  0  0  0  0  0  0
  -21.9190  -29.0591   27.0121 C   0  0  0  0  0  0  0  0  0  0  0  0
  -20.8958  -24.3166   22.1817 C   0  0  0  0  0  0  0  0  0  0  0  0
  -29.8049  -21.6531   20.2920 C   0  0  0  0  0  0  0  0  0  0  0  0
  -28.2690  -25.0888   20.6860 C   0  0  0  0  0  0  0  0  0  1  0  0
  -22.9807  -27.7576   25.1225 C   0  0  1  0  0  0  0  0  0  0  0  0
  -20.7764  -24.7107   24.6452 C   0  0  2  0  0  0  0  0  0  0  0  0
  -23.2108  -28.3584   26.5379 C   0  0  0  0  0  0  0  0  0  0  0  0
  -24.9374  -12.5347   21.6411 N   0  0  0  0  0  0  0  0  0  0  0  0
  -25.8389  -13.4092   21.1630 N   0  0  0  0  0  0  0  0  0  0  0  0
  -23.5820  -28.9012   23.0119 N   0  0  0  0  0  0  0  0  0  0  0  0
  -25.5400  -17.0533   22.2650 N   0  0  0  0  0  0  0  0  0  0  0  0
  -27.3370  -13.7857   19.3673 N   0  0  0  0  0  0  0  0  0  0  0  0
  -25.4672   -9.8035   18.3467 N   0  0  0  0  0  0  0  0  0  0  0  0
  -26.1690  -18.3044   20.3672 N   0  0  0  0  0  0  0  0  0  0  0  0
  -24.0151  -32.3764   22.3297 N   0  0  0  0  0  0  0  0  0  0  0  0
  -29.1280  -22.8476   20.7415 N   0  0  0  0  0  0  0  0  0  0  0  0
  -21.8808  -26.8017   25.0507 N   0  0  0  0  0  0  0  0  0  0  0  0
  -20.7601  -23.7175   23.5343 N   0  3  0  0  0  0  0  0  0  0  0  0
  -26.9890  -11.3762   17.6615 O   0  0  0  0  0  0  0  0  0  0  0  0
  -25.4863  -30.7394   23.0902 O   0  0  0  0  0  0  0  0  0  0  0  0
  -21.6968  -29.5394   24.2263 O   0  0  0  0  0  0  0  0  0  0  0  0
  -29.4856  -24.1337   18.8370 O   0  0  0  0  0  0  0  0  0  0  0  0
  -23.1431  -25.0198   24.2704 O   0  0  0  0  0  0  0  0  0  0  0  0
  -26.2225  -19.2511   22.4844 O   0  0  0  0  0  0  0  0  0  0  0  0
  -21.6216   -7.1065   21.3421 O   0  0  0  0  0  0  0  0  0  0  0  0
  -28.1946  -26.2632   19.8787 O   0  0  0  0  0  0  0  0  0  1  0  0
  -21.3857   -4.7595   26.3261 F   0  0  0  0  0  0  0  0  0  0  0  0
  -22.3516   -4.4645   21.7016 F   0  0  0  0  0  0  0  0  0  0  0  0
  1  2  1  0  0  0  0
  1  5  2  0  0  0  0
  2  6  2  0  0  0  0
  3  8  2  0  0  0  0
  3 18  1  0  0  0  0
  4  9  1  0  0  0  0
  4 18  2  0  0  0  0
  5 20  1  0  0  0  0
  6 22  1  0  0  0  0
  7 10  2  0  0  0  0
  7 21  1  0  0  0  0
  8 27  1  0  0  0  0
  9 27  2  0  0  0  0
 10 28  1  0  0  0  0
 11 12  2  0  0  0  0
 11 29  1  0  0  0  0
 12 30  1  0  0  0  0
 13 23  1  0  0  0  0
 13 28  2  0  0  0  0
 14 24  2  0  0  0  0
 14 25  1  0  0  0  0
 15 24  1  0  0  0  0
 15 26  2  0  0  0  0
 16 25  2  0  0  0  0
 16 26  1  0  0  0  0
 17 30  2  0  0  0  0
 17 31  1  0  0  0  0
 18 32  1  0  0  0  0
 19 32  1  0  0  0  0
 19 33  2  0  0  0  0
 19 34  1  0  0  0  0
 20 22  2  0  0  0  0
 20 40  1  0  0  0  0
 21 23  2  0  0  0  0
 21 41  1  0  0  0  0
 22 49  1  0  0  0  0
 23 42  1  0  0  0  0
 24 52  1  0  0  0  0
 25 58  1  0  0  0  0
 26 69  1  0  0  0  0
 27 80  1  0  0  0  0
 28 81  1  0  0  0  0
 29 31  2  0  0  0  0
 29 80  1  0  0  0  0
 30 82  1  0  0  0  0
 31 83  1  0  0  0  0
 32 63  2  0  0  0  0
 33 64  1  0  0  0  0
 33 67  1  0  0  0  0
 34 68  1  0  0  0  0
 34 74  2  0  0  0  0
 35 50  1  0  0  0  0
 35 70  1  0  0  0  0
 35 75  2  0  0  0  0
 36 60  1  0  0  0  0
 36 65  1  0  0  0  0
 36 76  2  0  0  0  0
 37 59  1  0  0  0  0
 37 71  1  0  0  0  0
 37 77  2  0  0  0  0
 38 61  1  0  0  0  0
 38 72  1  0  0  0  0
 38 78  2  0  0  0  0
 39 66  1  0  0  0  0
 39 69  1  0  0  0  0
 39 79  2  0  0  0  0
 40 43  1  0  0  0  0
 41 50  1  0  0  0  0
 42 65  1  0  0  0  0
 43 45  1  0  0  0  0
 44 46  1  0  0  0  0
 44 47  1  0  0  0  0
 45 49  1  0  0  0  0
 46 51  1  0  0  0  0
 47 66  1  0  0  0  0
 48 51  1  0  0  0  0
 48 66  1  0  0  0  0
 49 70  1  0  0  0  0
 50 65  1  0  0  0  0
 51 64  1  0  0  0  0
 53 61  1  0  0  0  0
 54 62  1  0  0  0  0
 55 62  1  0  0  0  0
 56 62  1  0  0  0  0
 57 73  1  0  0  0  0
 58 71  1  0  0  0  0
 59 81  1  0  0  0  0
 60 62  1  0  0  0  0
 60 72  1  0  0  0  0
 61 73  1  0  0  0  0
 63 64  1  0  0  0  0
M  CHG  1  73   1
M  ISO  4  39 100  59 101  69 100  81 101
M  END
> <Batch ID>
0044

> <Smiles>
CNC(C)C(=O)NC(C(=O)N1Cc2cc([101O:1][101CH2:1]C(=O)NCc3cc(C)cc([100NH:0][100C:0](=O)N4CCCC(n5nc(-c6ccc(Oc7ccc(F)cc7F)cc6)c(C(N)=O)c5N)C4)c3)ccc2CC1C(=O)NC1CCCc2ccccc21)C(C)(C)C

> <Shape>
0.269

> <Color>
0.106

> <Negative vol penalty>
0.000

$$$$

  -OEChem-04042322183D

 89 98  0     1  0  0  0  0  0999 V2000
  -17.6938  -25.7548   21.6844 C   0  0  0  0  0  0  0  0  0  0  0  0
  -19.0533  -25.5493   21.4723 C   0  0  0  0  0  0  0  0  0  0  0  0
  -24.1784   -9.1781   21.2032 C   0  0  0  0  0  0  0  0  0  0  0  0
  -25.3119  -10.2128   23.0691 C   0  0  0  0  0  0  0  0  0  0  0  0
  -17.1828  -27.0516   21.7177 C   0  0  0  0  0  0  0  0  0  0  0  0
  -19.9025  -26.6406   21.2923 C   0  0  0  0  0  0  0  0  0  0  0  0
  -24.1931  -26.2225   23.9495 C   0  0  0  0  0  0  0  0  0  0  0  0
  -24.0790   -7.9879   21.9236 C   0  0  0  0  0  0  0  0  0  0  0  0
  -25.2124   -9.0226   23.7896 C   0  0  0  0  0  0  0  0  0  0  0  0
  -25.1792  -25.3800   23.4380 C   0  0  0  0  0  0  0  0  0  0  0  0
  -22.1378   -6.7210   24.3853 C   0  0  0  0  0  0  0  0  0  0  0  0
  -20.9125   -6.0547   24.3703 C   0  0  0  0  0  0  0  0  0  0  0  0
  -26.3486  -27.2955   22.5535 C   0  0  0  0  0  0  0  0  0  0  0  0
  -29.5427  -18.6921   21.9106 C   0  0  0  0  0  0  0  0  0  0  0  0
  -28.4706  -17.6475   23.8071 C   0  0  0  0  0  0  0  0  0  0  0  0
  -21.9773   -4.1189   23.3926 C   0  0  0  0  0  0  0  0  0  0  0  0
  -24.7950  -10.2906   21.7759 C   0  0  0  0  0  0  0  0  0  0  0  0
  -23.8411  -12.2949   20.5187 C   0  0  0  0  0  0  0  0  0  0  0  0
  -18.0277  -28.1597   21.5476 C   0  0  0  0  0  0  0  0  0  0  0  0
  -24.2718  -27.6092   23.7570 C   0  0  0  0  0  0  0  0  0  0  0  0
  -19.4021  -27.9534   21.3220 C   0  0  0  0  0  0  0  0  0  0  0  0
  -25.3635  -28.1537   23.0657 C   0  0  0  0  0  0  0  0  0  0  0  0
  -29.4216  -19.9370   22.5278 C   0  0  0  0  0  0  0  0  0  0  0  0
  -28.8250  -20.0373   23.7847 C   0  0  0  0  0  0  0  0  0  0  0  0
  -29.0672  -17.5473   22.5502 C   0  0  0  0  0  0  0  0  0  0  0  0
  -24.5959   -7.9101   23.2168 C   0  0  0  0  0  0  0  0  0  0  0  0
  -26.2557  -25.9162   22.7374 C   0  0  0  0  0  0  0  0  0  0  0  0
  -23.2829   -6.0863   23.9039 C   0  0  0  0  0  0  0  0  0  0  0  0
  -20.8322   -4.7536   23.8740 C   0  0  0  0  0  0  0  0  0  0  0  0
  -23.2026   -4.7852   23.4076 C   0  0  0  0  0  0  0  0  0  0  0  0
  -28.3495  -18.8925   24.4243 C   0  0  0  0  0  0  0  0  0  0  0  0
  -24.8986  -11.5202   21.0320 C   0  0  0  0  0  0  0  0  0  0  0  0
  -24.4600  -13.3533   19.8996 C   0  0  0  0  0  0  0  0  0  0  0  0
  -28.3512  -24.3338   20.2842 C   0  0  0  0  0  0  0  0  0  0  0  0
  -28.3547  -21.4160   20.0073 C   0  0  0  0  0  0  0  0  0  0  0  0
  -27.3801  -20.4976   20.1263 C   0  0  0  0  0  0  0  0  0  0  0  0
  -27.4295  -25.1002   20.8862 C   0  0  0  0  0  0  0  0  0  1  0  0
  -22.4260  -12.0772   20.5946 C   0  0  0  0  0  0  0  0  0  0  0  0
  -22.4658  -29.7767   22.2927 C   0  0  0  0  0  0  0  0  0  0  0  0
  -24.5775  -31.8569   23.6102 C   0  0  0  0  0  0  0  0  0  0  0  0
  -27.6980  -32.4032   24.8794 C   0  0  0  0  0  0  0  0  0  0  0  0
  -29.7557  -16.0094   20.6775 C   0  0  0  0  0  0  0  0  0  0  0  0
  -17.4218  -29.5409   21.5445 C   0  0  0  0  0  0  0  0  0  0  0  0
  -23.2138  -28.5067   24.3381 C   0  0  0  0  0  0  0  0  0  0  0  0
  -25.5051  -29.6375   22.8494 C   0  0  0  0  0  0  0  0  0  0  0  0
  -28.5625  -24.3581   18.7914 C   0  0  0  0  0  0  0  0  0  0  0  0
  -29.2847  -23.4513   21.0690 C   0  0  0  0  0  0  0  0  0  0  0  0
  -28.9057  -21.8063   18.6590 C   0  0  0  0  0  0  0  0  0  0  0  0
  -18.4487  -30.6569   21.7185 C   0  0  0  0  0  0  0  0  0  0  0  0
  -28.2081  -23.0453   18.0870 C   0  0  0  0  0  0  0  0  0  0  0  0
  -28.5357  -14.5301   17.6775 C   0  0  0  0  0  0  0  0  0  0  0  0
  -19.6475  -30.4267   20.8038 C   0  0  0  0  0  0  0  0  0  0  0  0
  -27.3645  -13.6657   18.1497 C   0  0  0  0  0  0  0  0  0  0  0  0
  -29.6847  -14.5274   18.6841 C   0  0  0  0  0  0  0  0  0  0  0  0
  -28.1358  -14.0169   20.5306 C   0  0  0  0  0  0  0  0  0  0  0  0
  -20.3592  -29.1125   21.1473 C   0  0  1  0  0  0  0  0  0  0  0  0
  -23.1282  -29.8599   23.6388 C   0  0  1  0  0  0  0  0  0  0  0  0
  -26.9281  -14.0405   19.5796 C   0  0  2  0  0  0  0  0  0  0  0  0
  -28.7017  -21.3813   24.4328 C   0  0  0  0  0  0  0  0  0  0  0  0
  -29.1438  -34.2144   25.8422 C   0  0  0  0  0  0  0  0  0  0  0  0
  -25.0098  -32.9956   20.8126 C   0  0  0  0  0  0  0  0  0  0  0  0
  -27.0916  -34.0992   21.6592 C   0  0  0  0  0  0  0  0  0  0  0  0
  -24.8756  -34.7107   22.6278 C   0  0  0  0  0  0  0  0  0  0  0  0
  -27.9728  -30.9741   27.4564 C   0  0  0  0  0  0  0  0  0  0  0  0
  -29.9407  -21.1521   21.8170 C   0  0  0  0  0  0  0  0  0  0  0  0
  -25.8917  -32.4625   23.1799 C   0  0  1  0  0  0  0  0  0  0  0  0
  -28.1624  -33.0939   26.1490 C   0  0  2  0  0  0  0  0  0  0  0  0
  -25.7138  -33.5388   22.0721 C   0  0  0  0  0  0  0  0  0  0  0  0
  -26.0982  -12.0420   20.7624 N   0  0  0  0  0  0  0  0  0  0  0  0
  -25.7983  -13.1558   20.0727 N   0  0  0  0  0  0  0  0  0  0  0  0
  -24.4417  -30.4730   23.4312 N   0  0  0  0  0  0  0  0  0  0  0  0
  -29.1972  -14.8958   20.0151 N   0  0  0  0  0  0  0  0  0  0  0  0
  -23.9844  -14.4243   19.2294 N   0  0  0  0  0  0  0  0  0  0  0  0
  -21.7246  -12.6157   21.6820 N   0  0  0  0  0  0  0  0  0  0  0  0
  -29.1902  -16.2829   21.9225 N   0  0  0  0  0  0  0  0  0  0  0  0
  -21.1786  -29.2754   22.3290 N   0  0  0  0  0  0  0  0  0  0  0  0
  -26.5312  -32.9556   24.3950 N   0  0  0  0  0  0  0  0  0  0  0  0
  -28.8455  -22.0074   21.2325 N   0  3  2  0  0  0  0  0  0  0  0  0
  -28.8317  -32.1177   27.0546 N   0  3  0  0  0  0  0  0  0  0  0  0
  -21.8046  -11.4106   19.7327 O   0  0  0  0  0  0  0  0  0  0  0  0
  -23.0768  -30.1418   21.2951 O   0  0  0  0  0  0  0  0  0  0  0  0
  -23.7063  -32.5839   24.0941 O   0  0  0  0  0  0  0  0  0  0  0  0
  -28.3112  -31.4696   24.3665 O   0  0  0  0  0  0  0  0  0  0  0  0
  -30.6498  -16.6878   20.1654 O   0  0  0  0  0  0  0  0  0  0  0  0
  -24.4988   -6.7489   23.9202 O   0  0  0  0  0  0  0  0  0  0  0  0
  -27.2192  -25.0961   22.2366 O   0  0  0  0  0  0  0  0  0  1  0  0
  -19.6558   -4.1133   23.8610 F   0  0  0  0  0  0  0  0  0  0  0  0
  -24.2994   -4.1699   22.9448 F   0  0  0  0  0  0  0  0  0  0  0  0
  -27.6072  -18.9738   25.9811 Cl  0  0  0  0  0  0  0  0  0  0  0  0
  1  2  1  0  0  0  0
  1  5  2  0  0  0  0
  2  6  2  0  0  0  0
  3  8  2  0  0  0  0
  3 17  1  0  0  0  0
  4  9  1  0  0  0  0
  4 17  2  0  0  0  0
  5 19  1  0  0  0  0
  6 21  1  0  0  0  0
  7 10  2  0  0  0  0
  7 20  1  0  0  0  0
  8 26  1  0  0  0  0
  9 26  2  0  0  0  0
 10 27  1  0  0  0  0
 11 12  2  0  0  0  0
 11 28  1  0  0  0  0
 12 29  1  0  0  0  0
 13 22  1  0  0  0  0
 13 27  2  0  0  0  0
 14 23  1  0  0  0  0
 14 25  2  0  0  0  0
 15 25  1  0  0  0  0
 15 31  2  0  0  0  0
 16 29  2  0  0  0  0
 16 30  1  0  0  0  0
 17 32  1  0  0  0  0
 18 32  1  0  0  0  0
 18 33  2  0  0  0  0
 18 38  1  0  0  0  0
 19 21  2  0  0  0  0
 19 43  1  0  0  0  0
 20 22  2  0  0  0  0
 20 44  1  0  0  0  0
 21 56  1  0  0  0  0
 22 45  1  0  0  0  0
 23 24  2  0  0  0  0
 23 65  1  0  0  0  0
 24 31  1  0  0  0  0
 24 59  1  0  0  0  0
 25 75  1  0  0  0  0
 26 85  1  0  0  0  0
 27 86  1  0  0  0  0
 28 30  2  0  0  0  0
 28 85  1  0  0  0  0
 29 87  1  0  0  0  0
 30 88  1  0  0  0  0
 31 89  1  0  0  0  0
 32 69  2  0  0  0  0
 33 70  1  0  0  0  0
 33 73  1  0  0  0  0
 34 37  2  0  0  0  0
 34 46  1  0  0  0  0
 34 47  1  0  0  0  0
 35 36  2  0  0  0  0
 35 48  1  0  0  0  0
 35 78  1  0  0  0  0
 37 86  1  0  0  0  0
 38 74  1  0  0  0  0
 38 80  2  0  0  0  0
 39 57  1  0  0  0  0
 39 76  1  0  0  0  0
 39 81  2  0  0  0  0
 40 66  1  0  0  0  0
 40 71  1  0  0  0  0
 40 82  2  0  0  0  0
 41 67  1  0  0  0  0
 41 77  1  0  0  0  0
 41 83  2  0  0  0  0
 42 72  1  0  0  0  0
 42 75  1  0  0  0  0
 42 84  2  0  0  0  0
 43 49  1  0  0  0  0
 44 57  1  0  0  0  0
 45 71  1  0  0  0  0
 46 50  1  0  0  0  0
 47 78  1  0  0  0  0
 48 50  1  0  0  0  0
 49 52  1  0  0  0  0
 51 53  1  0  0  0  0
 51 54  1  0  0  0  0
 52 56  1  0  0  0  0
 53 58  1  0  0  0  0
 54 72  1  0  0  0  0
 55 58  1  0  0  0  0
 55 72  1  0  0  0  0
 56 76  1  0  0  0  0
 57 71  1  0  0  0  0
 58 70  1  0  0  0  0
 60 67  1  0  0  0  0
 61 68  1  0  0  0  0
 62 68  1  0  0  0  0
 63 68  1  0  0  0  0
 64 79  1  0  0  0  0
 65 78  1  0  0  0  0
 66 68  1  0  0  0  0
 66 77  1  0  0  0  0
 67 79  1  0  0  0  0
 69 70  1  0  0  0  0
M  CHG  2  78   1  79   1
M  ISO  4  37 101  42 100  75 100  86 101
M  END
> <Batch ID>
0044

> <Smiles>
C=C1CCCC(=[101CH:1][101O:1]c2ccc3c(c2)CN(C(=O)C(NC(=O)C(C)NC)C(C)(C)C)C(C(=O)NC2CCCc4ccccc42)C3)CN1Cc1cc([100NH:0][100C:0](=O)N2CCCC(n3nc(-c4ccc(Oc5ccc(F)cc5F)cc4)c(C(N)=O)c3N)C2)cc(Cl)c1C

> <Shape>
0.312

> <Color>
0.109

> <Negative vol penalty>
0.000

$$$$

  -OEChem-04042322183D

 87 96  0     1  0  0  0  0  0999 V2000
  -17.0103  -25.7823   24.9410 C   0  0  0  0  0  0  0  0  0  0  0  0
  -17.4053  -24.9132   23.9290 C   0  0  0  0  0  0  0  0  0  0  0  0
  -25.6326  -13.5056   21.9748 C   0  0  0  0  0  0  0  0  0  0  0  0
  -25.8768  -14.1114   19.6488 C   0  0  0  0  0  0  0  0  0  0  0  0
  -17.3923  -27.1224   24.8960 C   0  0  0  0  0  0  0  0  0  0  0  0
  -18.1816  -25.3842   22.8707 C   0  0  0  0  0  0  0  0  0  0  0  0
  -23.3451  -23.2878   18.3696 C   0  0  0  0  0  0  0  0  0  0  0  0
  -24.6250  -12.6033   21.6340 C   0  0  0  0  0  0  0  0  0  0  0  0
  -24.8693  -13.2090   19.3080 C   0  0  0  0  0  0  0  0  0  0  0  0
  -23.6320  -23.2417   17.0060 C   0  0  0  0  0  0  0  0  0  0  0  0
  -24.4047   -9.4895   20.3346 C   0  0  0  0  0  0  0  0  0  0  0  0
  -24.4468   -8.2215   20.9143 C   0  0  0  0  0  0  0  0  0  0  0  0
  -24.2990  -25.5590   17.0742 C   0  0  0  0  0  0  0  0  0  0  0  0
  -29.9762  -20.0708   14.3337 C   0  0  0  0  0  0  0  0  0  0  0  0
  -29.0046  -21.9622   16.1396 C   0  0  0  0  0  0  0  0  0  0  0  0
  -22.2812   -8.6067   21.9139 C   0  0  0  0  0  0  0  0  0  0  0  0
  -26.2585  -14.2597   20.9822 C   0  0  0  0  0  0  0  0  0  0  0  0
  -28.5214  -14.9026   21.9690 C   0  0  0  0  0  0  0  0  0  0  0  0
  -18.1818  -27.6078   23.8417 C   0  0  0  0  0  0  0  0  0  0  0  0
  -23.5229  -24.4749   19.0947 C   0  0  0  0  0  0  0  0  0  0  0  0
  -18.5734  -26.7324   22.8109 C   0  0  0  0  0  0  0  0  0  0  0  0
  -24.0160  -25.6168   18.4474 C   0  0  0  0  0  0  0  0  0  0  0  0
  -29.6245  -21.3447   13.8876 C   0  0  0  0  0  0  0  0  0  0  0  0
  -29.8420  -19.7425   15.6828 C   0  0  0  0  0  0  0  0  0  0  0  0
  -29.1388  -22.2904   14.7905 C   0  0  0  0  0  0  0  0  0  0  0  0
  -29.3562  -20.6883   16.5857 C   0  0  0  0  0  0  0  0  0  0  0  0
  -24.2433  -12.4549   20.3006 C   0  0  0  0  0  0  0  0  0  0  0  0
  -24.1063  -24.3782   16.3575 C   0  0  0  0  0  0  0  0  0  0  0  0
  -23.3010  -10.3161   20.5446 C   0  0  0  0  0  0  0  0  0  0  0  0
  -23.3851   -7.7801   21.7039 C   0  0  0  0  0  0  0  0  0  0  0  0
  -22.2392   -9.8747   21.3342 C   0  0  0  0  0  0  0  0  0  0  0  0
  -27.2990  -15.1924   21.3336 C   0  0  0  0  0  0  0  0  0  0  0  0
  -29.1496  -16.1193   22.0761 C   0  0  0  0  0  0  0  0  0  0  0  0
  -26.3695  -23.4560   13.9248 C   0  0  0  0  0  0  0  0  0  0  0  0
  -25.8250  -22.2342   13.8015 C   0  0  0  0  0  0  0  0  0  0  0  0
  -29.0423  -13.6459   22.4219 C   0  0  0  0  0  0  0  0  0  0  0  0
  -21.6046  -26.4185   20.7214 C   0  0  0  0  0  0  0  0  0  0  0  0
  -24.3934  -27.8749   21.5113 C   0  0  0  0  0  0  0  0  0  0  0  0
  -27.4557  -28.7854   19.8348 C   0  0  0  0  0  0  0  0  0  0  0  0
  -28.7446  -21.2098   18.9732 C   0  0  0  0  0  0  0  0  0  0  0  0
  -18.5304  -29.0749   23.8116 C   0  0  0  0  0  0  0  0  0  0  0  0
  -23.2342  -24.5007   20.5706 C   0  0  0  0  0  0  0  0  0  0  0  0
  -24.2435  -26.9102   19.1848 C   0  0  0  0  0  0  0  0  0  0  0  0
  -19.6673  -29.4113   22.8502 C   0  0  0  0  0  0  0  0  0  0  0  0
  -28.2080  -20.7983   22.4689 C   0  0  0  0  0  0  0  0  0  0  0  0
  -27.1019  -26.1133   13.1362 C   0  0  0  0  0  0  0  0  0  0  0  0
  -19.4495  -28.7257   21.5051 C   0  0  0  0  0  0  0  0  0  0  0  0
  -25.7227  -25.8567   13.7332 C   0  0  0  0  0  0  0  0  0  0  0  0
  -28.0313  -19.2870   22.6332 C   0  0  0  0  0  0  0  0  0  0  0  0
  -27.5850  -21.3042   21.1690 C   0  0  0  0  0  0  0  0  0  0  0  0
  -27.8461  -19.0903   20.1204 C   0  0  0  0  0  0  0  0  0  0  0  0
  -27.6330  -24.8811   12.4112 C   0  0  0  0  0  0  0  0  0  0  0  0
  -19.4366  -27.2000   21.6592 C   0  0  1  0  0  0  0  0  0  0  0  0
  -25.7254  -24.6244   14.6366 C   0  0  1  0  0  0  0  0  0  1  0  0
  -22.9645  -25.9051   21.1021 C   0  0  1  0  0  0  0  0  0  0  0  0
  -28.5142  -18.5241   21.3840 C   0  0  2  0  0  0  0  0  0  0  0  0
  -29.7764  -21.6731   12.4386 C   0  0  0  0  0  0  0  0  0  0  0  0
  -30.2264  -18.3704   16.1328 C   0  0  0  0  0  0  0  0  0  0  0  0
  -29.7779  -29.0959   20.7340 C   0  0  0  0  0  0  0  0  0  0  0  0
  -23.6054  -30.8148   21.7253 C   0  0  0  0  0  0  0  0  0  0  0  0
  -25.9244  -31.4172   20.9988 C   0  0  0  0  0  0  0  0  0  0  0  0
  -25.5724  -30.1576   23.1230 C   0  0  0  0  0  0  0  0  0  0  0  0
  -28.5847  -26.8364   17.9150 C   0  0  0  0  0  0  0  0  0  0  0  0
  -28.7540  -23.6668   14.3337 C   0  0  0  0  0  0  0  0  0  0  0  0
  -25.2296  -28.9798   20.9122 C   0  0  1  0  0  0  0  0  0  0  0  0
  -28.8207  -28.1493   20.0267 C   0  0  2  0  0  0  0  0  0  0  0  0
  -25.0666  -30.3256   21.6736 C   0  0  0  0  0  0  0  0  0  0  0  0
  -27.1571  -16.4913   21.0567 N   0  0  0  0  0  0  0  0  0  0  0  0
  -28.2984  -17.0285   21.5203 N   0  0  0  0  0  0  0  0  0  0  0  0
  -23.9405  -26.8870   20.6253 N   0  0  0  0  0  0  0  0  0  0  0  0
  -28.0923  -20.5379   20.0287 N   0  0  0  0  0  0  0  0  0  0  0  0
  -30.3415  -16.4894   22.5906 N   0  0  0  0  0  0  0  0  0  0  0  0
  -28.2666  -12.4940   22.2332 N   0  0  0  0  0  0  0  0  0  0  0  0
  -29.2129  -20.3740   17.9599 N   0  0  0  0  0  0  0  0  0  0  0  0
  -20.7855  -26.6948   21.7994 N   0  0  0  0  0  0  0  0  0  0  0  0
  -26.5991  -28.4787   20.8708 N   0  0  0  0  0  0  0  0  0  0  0  0
  -27.6593  -23.6608   13.3024 N   0  3  1  0  0  0  0  0  0  0  0  0
  -29.4110  -27.7822   18.7085 N   0  3  0  0  0  0  0  0  0  0  0  0
  -30.1555  -13.5498   22.9922 O   0  0  0  0  0  0  0  0  0  0  0  0
  -21.3202  -26.5553   19.5373 O   0  0  0  0  0  0  0  0  0  0  0  0
  -24.1570  -27.8839   22.7219 O   0  0  0  0  0  0  0  0  0  0  0  0
  -27.1785  -29.4874   18.8648 O   0  0  0  0  0  0  0  0  0  0  0  0
  -28.9019  -22.4333   18.9817 O   0  0  0  0  0  0  0  0  0  0  0  0
  -23.2603  -11.5744   19.9677 O   0  0  0  0  0  0  0  0  0  0  0  0
  -24.3865  -24.3362   15.0265 O   0  0  0  0  0  0  0  0  0  1  0  0
  -23.4249   -6.5618   22.2593 F   0  0  0  0  0  0  0  0  0  0  0  0
  -21.1756  -10.6639   21.5386 F   0  0  0  0  0  0  0  0  0  0  0  0
  1  2  1  0  0  0  0
  1  5  2  0  0  0  0
  2  6  2  0  0  0  0
  3  8  2  0  0  0  0
  3 17  1  0  0  0  0
  4  9  1  0  0  0  0
  4 17  2  0  0  0  0
  5 19  1  0  0  0  0
  6 21  1  0  0  0  0
  7 10  2  0  0  0  0
  7 20  1  0  0  0  0
  8 27  1  0  0  0  0
  9 27  2  0  0  0  0
 10 28  1  0  0  0  0
 11 12  2  0  0  0  0
 11 29  1  0  0  0  0
 12 30  1  0  0  0  0
 13 22  1  0  0  0  0
 13 28  2  0  0  0  0
 14 23  1  0  0  0  0
 14 24  2  0  0  0  0
 15 25  1  0  0  0  0
 15 26  2  0  0  0  0
 16 30  2  0  0  0  0
 16 31  1  0  0  0  0
 17 32  1  0  0  0  0
 18 32  1  0  0  0  0
 18 33  2  0  0  0  0
 18 36  1  0  0  0  0
 19 21  2  0  0  0  0
 19 41  1  0  0  0  0
 20 22  2  0  0  0  0
 20 42  1  0  0  0  0
 21 53  1  0  0  0  0
 22 43  1  0  0  0  0
 23 25  2  0  0  0  0
 23 57  1  0  0  0  0
 24 26  1  0  0  0  0
 24 58  1  0  0  0  0
 25 64  1  0  0  0  0
 26 74  1  0  0  0  0
 27 84  1  0  0  0  0
 28 85  1  0  0  0  0
 29 31  2  0  0  0  0
 29 84  1  0  0  0  0
 30 86  1  0  0  0  0
 31 87  1  0  0  0  0
 32 68  2  0  0  0  0
 33 69  1  0  0  0  0
 33 72  1  0  0  0  0
 34 35  2  0  0  0  0
 34 54  1  0  0  0  0
 34 77  1  0  0  0  0
 36 73  1  0  0  0  0
 36 79  2  0  0  0  0
 37 55  1  0  0  0  0
 37 75  1  0  0  0  0
 37 80  2  0  0  0  0
 38 65  1  0  0  0  0
 38 70  1  0  0  0  0
 38 81  2  0  0  0  0
 39 66  1  0  0  0  0
 39 76  1  0  0  0  0
 39 82  2  0  0  0  0
 40 71  1  0  0  0  0
 40 74  1  0  0  0  0
 40 83  2  0  0  0  0
 41 44  1  0  0  0  0
 42 55  1  0  0  0  0
 43 70  1  0  0  0  0
 44 47  1  0  0  0  0
 45 49  1  0  0  0  0
 45 50  1  0  0  0  0
 46 48  1  0  0  0  0
 46 52  1  0  0  0  0
 47 53  1  0  0  0  0
 48 54  1  0  0  0  0
 49 56  1  0  0  0  0
 50 71  1  0  0  0  0
 51 56  1  0  0  0  0
 51 71  1  0  0  0  0
 52 77  1  0  0  0  0
 53 75  1  0  0  0  0
 54 85  1  0  0  0  0
 55 70  1  0  0  0  0
 56 69  1  0  0  0  0
 59 66  1  0  0  0  0
 60 67  1  0  0  0  0
 61 67  1  0  0  0  0
 62 67  1  0  0  0  0
 63 78  1  0  0  0  0
 64 77  1  0  0  0  0
 65 67  1  0  0  0  0
 65 76  1  0  0  0  0
 66 78  1  0  0  0  0
 68 69  1  0  0  0  0
M  CHG  2  77   1  78   1
M  ISO  4  40 100  54 101  74 100  85 101
M  END
> <Batch ID>
0044

> <Smiles>
C=C1N(Cc2cc([100NH:0][100C:0](=O)N3CCCC(n4nc(-c5ccc(Oc6ccc(F)cc6F)cc5)c(C(N)=O)c4N)C3)c(C)cc2C)CCC[101CH:1]1[101O:1]c1ccc2c(c1)CN(C(=O)C(NC(=O)C(C)NC)C(C)(C)C)C(C(=O)NC1CCCc3ccccc31)C2

> <Shape>
0.232

> <Color>
0.058

> <Negative vol penalty>
0.000

$$$$

  -OEChem-04042322183D

 87 96  0     1  0  0  0  0  0999 V2000
  -22.0094  -18.4575   26.0728 C   0  0  0  0  0  0  0  0  0  0  0  0
  -21.9559  -19.7810   25.6476 C   0  0  0  0  0  0  0  0  0  0  0  0
  -28.7997  -18.0029   20.1393 C   0  0  0  0  0  0  0  0  0  0  0  0
  -29.7070  -18.0284   22.3783 C   0  0  0  0  0  0  0  0  0  0  0  0
  -22.8643  -17.5568   25.4389 C   0  0  0  0  0  0  0  0  0  0  0  0
  -22.7582  -20.2049   24.5887 C   0  0  0  0  0  0  0  0  0  0  0  0
  -20.2366  -23.0839   21.2724 C   0  0  0  0  0  0  0  0  0  0  0  0
  -25.8321  -29.3373   19.7562 C   0  0  0  0  0  0  0  0  0  0  0  0
  -28.4809  -16.6526   20.2839 C   0  0  0  0  0  0  0  0  0  0  0  0
  -29.3882  -16.6782   22.5229 C   0  0  0  0  0  0  0  0  0  0  0  0
  -20.0122  -24.4139   21.6254 C   0  0  0  0  0  0  0  0  0  0  0  0
  -30.0926  -13.6848   20.1465 C   0  0  0  0  0  0  0  0  0  0  0  0
  -30.4022  -12.8298   19.0889 C   0  0  0  0  0  0  0  0  0  0  0  0
  -24.5689  -29.6434   19.2502 C   0  0  0  0  0  0  0  0  0  0  0  0
  -21.8669  -25.0886   20.2383 C   0  0  0  0  0  0  0  0  0  0  0  0
  -25.0119  -29.6686   22.0045 C   0  0  0  0  0  0  0  0  0  0  0  0
  -28.0664  -12.2510   18.8730 C   0  0  0  0  0  0  0  0  0  0  0  0
  -29.4128  -18.6908   21.1865 C   0  0  0  0  0  0  0  0  0  0  0  0
  -30.5998  -20.6585   20.0790 C   0  0  0  0  0  0  0  0  0  0  0  0
  -23.6703  -17.9676   24.3654 C   0  0  0  0  0  0  0  0  0  0  0  0
  -21.2864  -22.7446   20.4069 C   0  0  0  0  0  0  0  0  0  0  0  0
  -23.6256  -19.3092   23.9407 C   0  0  0  0  0  0  0  0  0  0  0  0
  -22.1009  -23.7539   19.8739 C   0  0  0  0  0  0  0  0  0  0  0  0
  -26.0537  -29.3499   21.1334 C   0  0  0  0  0  0  0  0  0  0  0  0
  -23.7486  -29.9748   21.4984 C   0  0  0  0  0  0  0  0  0  0  0  0
  -28.7751  -15.9903   21.4757 C   0  0  0  0  0  0  0  0  0  0  0  0
  -20.8292  -25.4162   21.1106 C   0  0  0  0  0  0  0  0  0  0  0  0
  -28.7699  -13.8229   20.5675 C   0  0  0  0  0  0  0  0  0  0  0  0
  -29.3891  -12.1129   18.4521 C   0  0  0  0  0  0  0  0  0  0  0  0
  -27.7568  -13.1061   19.9307 C   0  0  0  0  0  0  0  0  0  0  0  0
  -23.5271  -29.9622   20.1213 C   0  0  0  0  0  0  0  0  0  0  0  0
  -29.7428  -20.0854   21.0376 C   0  0  0  0  0  0  0  0  0  0  0  0
  -30.5775  -22.0030   20.3587 C   0  0  0  0  0  0  0  0  0  0  0  0
  -31.3489  -20.0316   19.0295 C   0  0  0  0  0  0  0  0  0  0  0  0
  -23.9142  -20.9734   20.6543 C   0  0  0  0  0  0  0  0  0  0  0  0
  -24.1651  -21.5990   17.4813 C   0  0  0  0  0  0  0  0  0  0  0  0
  -23.3882  -23.6429   14.8610 C   0  0  0  0  0  0  0  0  0  0  0  0
  -27.8011  -26.5797   21.4957 C   0  0  0  0  0  0  0  0  0  0  0  0
  -24.6134  -16.9692   23.7422 C   0  0  0  0  0  0  0  0  0  0  0  0
  -21.4986  -21.3081   20.0148 C   0  0  0  0  0  0  0  0  0  0  0  0
  -23.2287  -23.4443   18.9248 C   0  0  0  0  0  0  0  0  0  0  0  0
  -25.1551  -17.4084   22.3843 C   0  0  0  0  0  0  0  0  0  0  0  0
  -28.6952  -24.5117   24.3279 C   0  0  0  0  0  0  0  0  0  0  0  0
  -25.6236  -18.8590   22.4403 C   0  0  0  0  0  0  0  0  0  0  0  0
  -29.1205  -23.2155   23.6358 C   0  0  0  0  0  0  0  0  0  0  0  0
  -19.3679  -27.5881   23.3386 C   0  0  0  0  0  0  0  0  0  0  0  0
  -19.0501  -28.9448   22.7207 C   0  0  0  0  0  0  0  0  0  0  0  0
  -27.5114  -25.1571   23.6135 C   0  0  0  0  0  0  0  0  0  0  0  0
  -28.1615  -24.1277   21.4707 C   0  0  0  0  0  0  0  0  0  0  0  0
  -21.8292  -28.0441   23.0336 C   0  0  0  0  0  0  0  0  0  0  0  0
  -24.4622  -19.8011   22.7795 C   0  0  1  0  0  0  0  0  0  0  0  0
  -22.9174  -21.0240   19.5312 C   0  0  1  0  0  0  0  0  0  0  0  0
  -29.3687  -23.4384   22.1322 C   0  0  2  0  0  0  0  0  0  0  0  0
  -20.6999  -27.0434   22.8387 C   0  0  2  0  0  0  0  0  0  1  0  0
  -20.1805  -29.9590   22.9321 C   0  0  2  0  0  0  0  0  0  0  0  0
  -19.8378  -31.2687   22.2248 C   0  0  0  0  0  0  0  0  0  0  0  0
  -23.7680  -23.9157   12.3955 C   0  0  0  0  0  0  0  0  0  0  0  0
  -26.9927  -22.6054   18.0307 C   0  0  0  0  0  0  0  0  0  0  0  0
  -26.9593  -23.7142   15.7863 C   0  0  0  0  0  0  0  0  0  0  0  0
  -26.7590  -21.2333   15.9529 C   0  0  0  0  0  0  0  0  0  0  0  0
  -20.4954  -23.4286   14.2740 C   0  0  0  0  0  0  0  0  0  0  0  0
  -27.4048  -29.0226   21.6741 C   0  0  0  0  0  0  0  0  0  0  0  0
  -22.6548  -30.3115   22.4685 C   0  0  0  0  0  0  0  0  0  0  0  0
  -24.8104  -22.6839   16.6533 C   0  0  1  0  0  0  0  0  0  0  0  0
  -22.8588  -23.3411   13.4707 C   0  0  2  0  0  0  0  0  0  0  0  0
  -26.3604  -22.5652   16.6252 C   0  0  0  0  0  0  0  0  0  0  0  0
  -29.2147  -20.9916   21.8646 N   0  0  0  0  0  0  0  0  0  0  0  0
  -29.7414  -22.1478   21.4265 N   0  0  0  0  0  0  0  0  0  0  0  0
  -23.4000  -22.0241   18.5767 N   0  0  0  0  0  0  0  0  0  0  0  0
  -27.8194  -25.3590   22.1906 N   0  0  0  0  0  0  0  0  0  0  0  0
  -31.1919  -23.0637   19.7931 N   0  0  0  0  0  0  0  0  0  0  0  0
  -32.6517  -19.5956   19.3071 N   0  0  0  0  0  0  0  0  0  0  0  0
  -23.6323  -20.0202   21.6143 N   0  0  0  0  0  0  0  0  0  0  0  0
  -24.1823  -22.6216   15.3380 N   0  0  0  0  0  0  0  0  0  0  0  0
  -27.4605  -27.6968   22.2485 N   0  0  0  0  0  0  0  0  0  0  0  0
  -21.4766  -29.3710   22.3816 N   0  3  1  0  0  0  0  0  0  0  0  0
  -21.4984  -23.9242   13.2966 N   0  3  0  0  0  0  0  0  0  0  0  0
  -30.8829  -19.8777   17.8751 O   0  0  0  0  0  0  0  0  0  0  0  0
  -24.8693  -21.7411   20.6495 O   0  0  0  0  0  0  0  0  0  0  0  0
  -24.3278  -20.4182   17.1636 O   0  0  0  0  0  0  0  0  0  0  0  0
  -23.1267  -24.6824   15.4623 O   0  0  0  0  0  0  0  0  0  0  0  0
  -28.0736  -26.6685   20.2936 O   0  0  0  0  0  0  0  0  0  0  0  0
  -28.4640  -14.6728   21.6172 O   0  0  0  0  0  0  0  0  0  0  0  0
  -20.6128  -26.7151   21.4540 O   0  0  0  0  0  0  0  0  0  1  0  0
  -29.6864  -11.2930   17.4355 F   0  0  0  0  0  0  0  0  0  0  0  0
  -26.4842  -13.2356   20.3299 F   0  0  0  0  0  0  0  0  0  0  0  0
  -21.9774  -30.3354   19.4594 Cl  0  0  0  0  0  0  0  0  0  0  0  0
  1  2  1  0  0  0  0
  1  5  2  0  0  0  0
  2  6  2  0  0  0  0
  3  9  2  0  0  0  0
  3 18  1  0  0  0  0
  4 10  1  0  0  0  0
  4 18  2  0  0  0  0
  5 20  1  0  0  0  0
  6 22  1  0  0  0  0
  7 11  2  0  0  0  0
  7 21  1  0  0  0  0
  8 14  2  0  0  0  0
  8 24  1  0  0  0  0
  9 26  1  0  0  0  0
 10 26  2  0  0  0  0
 11 27  1  0  0  0  0
 12 13  2  0  0  0  0
 12 28  1  0  0  0  0
 13 29  1  0  0  0  0
 14 31  1  0  0  0  0
 15 23  1  0  0  0  0
 15 27  2  0  0  0  0
 16 24  2  0  0  0  0
 16 25  1  0  0  0  0
 17 29  2  0  0  0  0
 17 30  1  0  0  0  0
 18 32  1  0  0  0  0
 19 32  1  0  0  0  0
 19 33  2  0  0  0  0
 19 34  1  0  0  0  0
 20 22  2  0  0  0  0
 20 39  1  0  0  0  0
 21 23  2  0  0  0  0
 21 40  1  0  0  0  0
 22 51  1  0  0  0  0
 23 41  1  0  0  0  0
 24 62  1  0  0  0  0
 25 31  2  0  0  0  0
 25 63  1  0  0  0  0
 26 83  1  0  0  0  0
 27 84  1  0  0  0  0
 28 30  2  0  0  0  0
 28 83  1  0  0  0  0
 29 85  1  0  0  0  0
 30 86  1  0  0  0  0
 31 87  1  0  0  0  0
 32 67  2  0  0  0  0
 33 68  1  0  0  0  0
 33 71  1  0  0  0  0
 34 72  1  0  0  0  0
 34 78  2  0  0  0  0
 35 52  1  0  0  0  0
 35 73  1  0  0  0  0
 35 79  2  0  0  0  0
 36 64  1  0  0  0  0
 36 69  1  0  0  0  0
 36 80  2  0  0  0  0
 37 65  1  0  0  0  0
 37 74  1  0  0  0  0
 37 81  2  0  0  0  0
 38 70  1  0  0  0  0
 38 75  1  0  0  0  0
 38 82  2  0  0  0  0
 39 42  1  0  0  0  0
 40 52  1  0  0  0  0
 41 69  1  0  0  0  0
 42 44  1  0  0  0  0
 43 45  1  0  0  0  0
 43 48  1  0  0  0  0
 44 51  1  0  0  0  0
 45 53  1  0  0  0  0
 46 47  1  0  0  0  0
 46 54  1  0  0  0  0
 47 55  1  0  0  0  0
 48 70  1  0  0  0  0
 49 53  1  0  0  0  0
 49 70  1  0  0  0  0
 50 54  1  0  0  0  0
 50 76  1  0  0  0  0
 51 73  1  0  0  0  0
 52 69  1  0  0  0  0
 53 68  1  0  0  0  0
 54 84  1  0  0  0  0
 55 56  1  0  0  0  0
 55 76  1  0  0  0  0
 57 65  1  0  0  0  0
 58 66  1  0  0  0  0
 59 66  1  0  0  0  0
 60 66  1  0  0  0  0
 61 77  1  0  0  0  0
 62 75  1  0  0  0  0
 63 76  1  0  0  0  0
 64 66  1  0  0  0  0
 64 74  1  0  0  0  0
 65 77  1  0  0  0  0
 67 68  1  0  0  0  0
M  CHG  2  76   1  77   1
M  ISO  4  38 100  54 101  75 100  84 101
M  END
> <Batch ID>
0044

> <Smiles>
CNC(C)C(=O)NC(C(=O)N1Cc2cc([101O:1][101CH:1]3CCC(C)N(Cc4cc(C[100NH:0][100C:0](=O)N5CCCC(n6nc(-c7ccc(Oc8ccc(F)cc8F)cc7)c(C(N)=O)c6N)C5)ccc4Cl)C3)ccc2CC1C(=O)NC1CCCc2ccccc21)C(C)(C)C

> <Shape>
0.204

> <Color>
0.069

> <Negative vol penalty>
0.000

$$$$

  -OEChem-04042322183D

 88 97  0     1  0  0  0  0  0999 V2000
  -22.0683  -34.9758   15.7625 C   0  0  0  0  0  0  0  0  0  0  0  0
  -22.8985  -33.8595   15.7659 C   0  0  0  0  0  0  0  0  0  0  0  0
  -23.7171  -10.1503   22.5229 C   0  0  0  0  0  0  0  0  0  0  0  0
  -21.8899  -10.9042   21.1336 C   0  0  0  0  0  0  0  0  0  0  0  0
  -22.0246  -35.8140   16.8759 C   0  0  0  0  0  0  0  0  0  0  0  0
  -23.6863  -33.5812   16.8823 C   0  0  0  0  0  0  0  0  0  0  0  0
  -25.1770  -28.0509   19.0502 C   0  0  0  0  0  0  0  0  0  0  0  0
  -23.3258   -8.8270   22.3195 C   0  0  0  0  0  0  0  0  0  0  0  0
  -21.4987   -9.5809   20.9301 C   0  0  0  0  0  0  0  0  0  0  0  0
  -26.3185  -27.2636   18.9065 C   0  0  0  0  0  0  0  0  0  0  0  0
  -20.9648   -6.7181   23.5036 C   0  0  0  0  0  0  0  0  0  0  0  0
  -20.9266   -5.8761   24.6150 C   0  0  0  0  0  0  0  0  0  0  0  0
  -27.1598  -28.1114   21.0023 C   0  0  0  0  0  0  0  0  0  0  0  0
  -27.8938  -20.2531   21.8199 C   0  0  0  0  0  0  0  0  0  0  0  0
  -28.7909  -19.8408   24.4291 C   0  0  0  0  0  0  0  0  0  0  0  0
  -22.5535   -4.4259   23.5724 C   0  0  0  0  0  0  0  0  0  0  0  0
  -22.9991  -11.1889   21.9300 C   0  0  0  0  0  0  0  0  0  0  0  0
  -23.4901  -13.2372   23.3692 C   0  0  0  0  0  0  0  0  0  0  0  0
  -22.8050  -35.5405   18.0103 C   0  0  0  0  0  0  0  0  0  0  0  0
  -25.0230  -28.8840   20.1676 C   0  0  0  0  0  0  0  0  0  0  0  0
  -23.6540  -34.4172   18.0114 C   0  0  0  0  0  0  0  0  0  0  0  0
  -26.0142  -28.9064   21.1592 C   0  0  0  0  0  0  0  0  0  0  0  0
  -28.2064  -21.3443   22.6305 C   0  0  0  0  0  0  0  0  0  0  0  0
  -28.4781  -18.7495   23.6185 C   0  0  0  0  0  0  0  0  0  0  0  0
  -28.0296  -18.9557   22.3139 C   0  0  0  0  0  0  0  0  0  0  0  0
  -22.2166   -8.5423   21.5230 C   0  0  0  0  0  0  0  0  0  0  0  0
  -27.3115  -27.2959   19.8812 C   0  0  0  0  0  0  0  0  0  0  0  0
  -21.7973   -6.4139   22.4265 C   0  0  0  0  0  0  0  0  0  0  0  0
  -21.7209   -4.7301   24.6494 C   0  0  0  0  0  0  0  0  0  0  0  0
  -22.5916   -5.2678   22.4609 C   0  0  0  0  0  0  0  0  0  0  0  0
  -28.6550  -21.1382   23.9351 C   0  0  0  0  0  0  0  0  0  0  0  0
  -23.4025  -12.5561   22.1403 C   0  0  0  0  0  0  0  0  0  0  0  0
  -23.9159  -14.4989   23.0329 C   0  0  0  0  0  0  0  0  0  0  0  0
  -28.7007  -24.1574   20.2145 C   0  0  0  0  0  0  0  0  0  0  0  0
  -28.3655  -23.8139   18.9599 C   0  0  0  0  0  0  0  0  0  0  0  0
  -23.2116  -12.7709   24.6961 C   0  0  0  0  0  0  0  0  0  0  0  0
  -24.7370  -32.0193   20.6056 C   0  0  0  0  0  0  0  0  0  0  0  0
  -24.2228  -31.1483   23.6877 C   0  0  0  0  0  0  0  0  0  0  0  0
  -25.6116  -28.7703   26.0188 C   0  0  0  0  0  0  0  0  0  0  0  0
  -27.2484  -17.9105   20.1590 C   0  0  0  0  0  0  0  0  0  0  0  0
  -22.7596  -36.5017   19.1716 C   0  0  0  0  0  0  0  0  0  0  0  0
  -23.7734  -29.7071   20.3210 C   0  0  0  0  0  0  0  0  0  0  0  0
  -25.8876  -29.7684   22.3877 C   0  0  0  0  0  0  0  0  0  0  0  0
  -23.3447  -35.9286   20.4598 C   0  0  0  0  0  0  0  0  0  0  0  0
  -24.3126  -16.7465   18.5148 C   0  0  0  0  0  0  0  0  0  0  0  0
  -30.4383  -24.8004   22.4023 C   0  0  0  0  0  0  0  0  0  0  0  0
  -24.6793  -35.2441   20.1818 C   0  0  0  0  0  0  0  0  0  0  0  0
  -30.0197  -25.8933   21.4252 C   0  0  0  0  0  0  0  0  0  0  0  0
  -23.8213  -15.6086   19.4126 C   0  0  0  0  0  0  0  0  0  0  0  0
  -25.8378  -16.7949   18.4441 C   0  0  0  0  0  0  0  0  0  0  0  0
  -26.0273  -15.6989   20.6423 C   0  0  0  0  0  0  0  0  0  0  0  0
  -30.4586  -23.4310   21.7312 C   0  0  0  0  0  0  0  0  0  0  0  0
  -24.5049  -34.0682   19.2131 C   0  0  1  0  0  0  0  0  0  0  0  0
  -28.6826  -25.5671   20.7616 C   0  0  1  0  0  0  0  0  0  1  0  0
  -23.9575  -30.9060   21.2463 C   0  0  1  0  0  0  0  0  0  0  0  0
  -24.4985  -15.6501   20.7965 C   0  0  2  0  0  0  0  0  0  0  0  0
  -28.6328  -17.3708   24.1741 C   0  0  0  0  0  0  0  0  0  0  0  0
  -28.3926  -22.4165   18.4477 C   0  0  0  0  0  0  0  0  0  0  0  0
  -24.5768  -27.6368   28.0042 C   0  0  0  0  0  0  0  0  0  0  0  0
  -25.4401  -33.4535   25.2733 C   0  0  0  0  0  0  0  0  0  0  0  0
  -25.9728  -31.8247   27.0986 C   0  0  0  0  0  0  0  0  0  0  0  0
  -23.5995  -32.2355   26.4495 C   0  0  0  0  0  0  0  0  0  0  0  0
  -26.2818  -26.0816   24.9792 C   0  0  0  0  0  0  0  0  0  0  0  0
  -28.0467  -22.7236   22.0621 C   0  0  0  0  0  0  0  0  0  0  0  0
  -25.1001  -30.9222   24.8953 C   0  0  1  0  0  0  0  0  0  0  0  0
  -24.9451  -27.5076   26.5343 C   0  0  2  0  0  0  0  0  0  0  0  0
  -25.0378  -32.1048   25.9028 C   0  0  0  0  0  0  0  0  0  0  0  0
  -23.7449  -13.3218   21.1008 N   0  0  0  0  0  0  0  0  0  0  0  0
  -24.0518  -14.4971   21.6758 N   0  0  0  0  0  0  0  0  0  0  0  0
  -24.6503  -30.5598   22.4890 N   0  0  0  0  0  0  0  0  0  0  0  0
  -26.4095  -16.8371   19.7918 N   0  0  0  0  0  0  0  0  0  0  0  0
  -24.1836  -15.5987   23.7686 N   0  0  0  0  0  0  0  0  0  0  0  0
  -21.9106  -12.9173   25.1965 N   0  0  0  0  0  0  0  0  0  0  0  0
  -27.7061  -17.8603   21.4753 N   0  0  0  0  0  0  0  0  0  0  0  0
  -23.9584  -32.9204   19.9047 N   0  0  0  0  0  0  0  0  0  0  0  0
  -24.6982  -29.6370   25.4569 N   0  0  0  0  0  0  0  0  0  0  0  0
  -29.1337  -23.0896   21.0893 N   0  3  1  0  0  0  0  0  0  0  0  0
  -25.8579  -26.3398   26.3794 N   0  3  0  0  0  0  0  0  0  0  0  0
  -24.0944  -12.2551   25.4228 O   0  0  0  0  0  0  0  0  0  0  0  0
  -25.9545  -32.0588   20.7387 O   0  0  0  0  0  0  0  0  0  0  0  0
  -23.1925  -31.8162   23.8052 O   0  0  0  0  0  0  0  0  0  0  0  0
  -26.8210  -28.9696   26.1091 O   0  0  0  0  0  0  0  0  0  0  0  0
  -27.5173  -18.8223   19.3728 O   0  0  0  0  0  0  0  0  0  0  0  0
  -21.8347   -7.2511   21.3241 O   0  0  0  0  0  0  0  0  0  0  0  0
  -28.4271  -26.5289   19.7430 O   0  0  0  0  0  0  0  0  0  1  0  0
  -21.6853   -3.9225   25.7175 F   0  0  0  0  0  0  0  0  0  0  0  0
  -23.3943   -4.9710   21.4296 F   0  0  0  0  0  0  0  0  0  0  0  0
  -29.0508  -22.4641   24.9670 Cl  0  0  0  0  0  0  0  0  0  0  0  0
  1  2  1  0  0  0  0
  1  5  2  0  0  0  0
  2  6  2  0  0  0  0
  3  8  2  0  0  0  0
  3 17  1  0  0  0  0
  4  9  1  0  0  0  0
  4 17  2  0  0  0  0
  5 19  1  0  0  0  0
  6 21  1  0  0  0  0
  7 10  2  0  0  0  0
  7 20  1  0  0  0  0
  8 26  1  0  0  0  0
  9 26  2  0  0  0  0
 10 27  1  0  0  0  0
 11 12  2  0  0  0  0
 11 28  1  0  0  0  0
 12 29  1  0  0  0  0
 13 22  1  0  0  0  0
 13 27  2  0  0  0  0
 14 23  1  0  0  0  0
 14 25  2  0  0  0  0
 15 24  2  0  0  0  0
 15 31  1  0  0  0  0
 16 29  2  0  0  0  0
 16 30  1  0  0  0  0
 17 32  1  0  0  0  0
 18 32  1  0  0  0  0
 18 33  2  0  0  0  0
 18 36  1  0  0  0  0
 19 21  2  0  0  0  0
 19 41  1  0  0  0  0
 20 22  2  0  0  0  0
 20 42  1  0  0  0  0
 21 53  1  0  0  0  0
 22 43  1  0  0  0  0
 23 31  2  0  0  0  0
 23 64  1  0  0  0  0
 24 25  1  0  0  0  0
 24 57  1  0  0  0  0
 25 74  1  0  0  0  0
 26 84  1  0  0  0  0
 27 85  1  0  0  0  0
 28 30  2  0  0  0  0
 28 84  1  0  0  0  0
 29 86  1  0  0  0  0
 30 87  1  0  0  0  0
 31 88  1  0  0  0  0
 32 68  2  0  0  0  0
 33 69  1  0  0  0  0
 33 72  1  0  0  0  0
 34 35  2  0  0  0  0
 34 54  1  0  0  0  0
 34 77  1  0  0  0  0
 35 58  1  0  0  0  0
 36 73  1  0  0  0  0
 36 79  2  0  0  0  0
 37 55  1  0  0  0  0
 37 75  1  0  0  0  0
 37 80  2  0  0  0  0
 38 65  1  0  0  0  0
 38 70  1  0  0  0  0
 38 81  2  0  0  0  0
 39 66  1  0  0  0  0
 39 76  1  0  0  0  0
 39 82  2  0  0  0  0
 40 71  1  0  0  0  0
 40 74  1  0  0  0  0
 40 83  2  0  0  0  0
 41 44  1  0  0  0  0
 42 55  1  0  0  0  0
 43 70  1  0  0  0  0
 44 47  1  0  0  0  0
 45 49  1  0  0  0  0
 45 50  1  0  0  0  0
 46 48  1  0  0  0  0
 46 52  1  0  0  0  0
 47 53  1  0  0  0  0
 48 54  1  0  0  0  0
 49 56  1  0  0  0  0
 50 71  1  0  0  0  0
 51 56  1  0  0  0  0
 51 71  1  0  0  0  0
 52 77  1  0  0  0  0
 53 75  1  0  0  0  0
 54 85  1  0  0  0  0
 55 70  1  0  0  0  0
 56 69  1  0  0  0  0
 59 66  1  0  0  0  0
 60 67  1  0  0  0  0
 61 67  1  0  0  0  0
 62 67  1  0  0  0  0
 63 78  1  0  0  0  0
 64 77  1  0  0  0  0
 65 67  1  0  0  0  0
 65 76  1  0  0  0  0
 66 78  1  0  0  0  0
 68 69  1  0  0  0  0
M  CHG  2  77   1  78   1
M  ISO  4  40 100  54 101  74 100  85 101
M  END
> <Batch ID>
0044

> <Smiles>
CC=C1N(Cc2cc([100NH:0][100C:0](=O)N3CCCC(n4nc(-c5ccc(Oc6ccc(F)cc6F)cc5)c(C(N)=O)c4N)C3)c(C)cc2Cl)CCC[101CH:1]1[101O:1]c1ccc2c(c1)CN(C(=O)C(NC(=O)C(C)NC)C(C)(C)C)C(C(=O)NC1CCCc3ccccc31)C2

> <Shape>
0.246

> <Color>
0.106

> <Negative vol penalty>
0.000

$$$$

  -OEChem-04042322183D

 86 94  0     1  0  0  0  0  0999 V2000
  -21.0164  -35.1360   21.4978 C   0  0  0  0  0  0  0  0  0  0  0  0
  -22.1568  -34.4507   21.0913 C   0  0  0  0  0  0  0  0  0  0  0  0
  -24.2871  -12.4729   21.4712 C   0  0  0  0  0  0  0  0  0  0  0  0
  -25.1765  -12.1621   19.2465 C   0  0  0  0  0  0  0  0  0  0  0  0
  -20.2301  -34.6274   22.5308 C   0  0  0  0  0  0  0  0  0  0  0  0
  -22.5122  -33.2570   21.7183 C   0  0  0  0  0  0  0  0  0  0  0  0
  -25.1649  -28.3842   19.1249 C   0  0  0  0  0  0  0  0  0  0  0  0
  -23.3795  -11.4365   21.2532 C   0  0  0  0  0  0  0  0  0  0  0  0
  -24.2689  -11.1256   19.0285 C   0  0  0  0  0  0  0  0  0  0  0  0
  -26.4893  -27.9513   19.0779 C   0  0  0  0  0  0  0  0  0  0  0  0
  -23.4125   -8.0554   21.2522 C   0  0  0  0  0  0  0  0  0  0  0  0
  -23.2508   -7.1113   22.2662 C   0  0  0  0  0  0  0  0  0  0  0  0
  -26.0745  -26.4974   20.9576 C   0  0  0  0  0  0  0  0  0  0  0  0
  -31.5795  -21.9448   19.9961 C   0  0  0  0  0  0  0  0  0  0  0  0
  -32.9152  -20.1943   21.7090 C   0  0  0  0  0  0  0  0  0  0  0  0
  -20.9098   -7.6862   22.4280 C   0  0  0  0  0  0  0  0  0  0  0  0
  -25.1857  -12.8358   20.4679 C   0  0  0  0  0  0  0  0  0  0  0  0
  -27.4216  -13.8019   21.2258 C   0  0  0  0  0  0  0  0  0  0  0  0
  -20.5707  -33.4218   23.1642 C   0  0  0  0  0  0  0  0  0  0  0  0
  -24.2867  -27.8842   20.0971 C   0  0  0  0  0  0  0  0  0  0  0  0
  -21.7305  -32.7325   22.7616 C   0  0  0  0  0  0  0  0  0  0  0  0
  -24.7387  -26.9237   21.0132 C   0  0  0  0  0  0  0  0  0  0  0  0
  -31.6660  -20.5893   19.6791 C   0  0  0  0  0  0  0  0  0  0  0  0
  -32.1609  -22.4252   21.1695 C   0  0  0  0  0  0  0  0  0  0  0  0
  -32.3338  -19.7140   20.5355 C   0  0  0  0  0  0  0  0  0  0  0  0
  -23.3703  -10.7628   20.0318 C   0  0  0  0  0  0  0  0  0  0  0  0
  -26.9451  -27.0100   19.9962 C   0  0  0  0  0  0  0  0  0  0  0  0
  -22.3229   -8.8149   20.8261 C   0  0  0  0  0  0  0  0  0  0  0  0
  -21.9994   -6.9267   22.8541 C   0  0  0  0  0  0  0  0  0  0  0  0
  -21.0715   -8.6303   21.4140 C   0  0  0  0  0  0  0  0  0  0  0  0
  -32.8288  -21.5500   22.0259 C   0  0  0  0  0  0  0  0  0  0  0  0
  -26.1231  -13.9067   20.6923 C   0  0  0  0  0  0  0  0  0  0  0  0
  -27.8946  -15.0914   21.2338 C   0  0  0  0  0  0  0  0  0  0  0  0
  -28.1364  -12.6427   21.6740 C   0  0  0  0  0  0  0  0  0  0  0  0
  -22.6303  -29.1589   22.4919 C   0  0  0  0  0  0  0  0  0  0  0  0
  -21.4004  -26.1659   22.7190 C   0  0  0  0  0  0  0  0  0  0  0  0
  -30.0950  -25.2660   20.7194 C   0  0  0  0  0  0  0  0  0  0  0  0
  -21.7737  -22.8270   22.1196 C   0  0  0  0  0  0  0  0  0  0  0  0
  -28.5789  -20.0397   18.7457 C   0  0  0  0  0  0  0  0  0  0  0  0
  -19.7159  -32.9360   24.3079 C   0  0  0  0  0  0  0  0  0  0  0  0
  -22.8539  -28.3414   20.1175 C   0  0  0  0  0  0  0  0  0  0  0  0
  -23.8305  -26.3406   22.0638 C   0  0  0  0  0  0  0  0  0  0  0  0
  -19.9554  -31.4720   24.6682 C   0  0  0  0  0  0  0  0  0  0  0  0
  -25.5041  -19.4799   20.4511 C   0  0  0  0  0  0  0  0  0  0  0  0
  -21.4503  -31.1803   24.7510 C   0  0  0  0  0  0  0  0  0  0  0  0
  -25.4955  -17.9713   20.7041 C   0  0  0  0  0  0  0  0  0  0  0  0
  -26.1375  -19.8228   19.1046 C   0  0  0  0  0  0  0  0  0  0  0  0
  -27.4772  -17.7547   19.1470 C   0  0  0  0  0  0  0  0  0  0  0  0
  -22.1352  -31.4217   23.4004 C   0  0  1  0  0  0  0  0  0  0  0  0
  -22.1841  -28.1474   21.4744 C   0  0  1  0  0  0  0  0  0  0  0  0
  -26.8987  -17.3635   20.5176 C   0  0  2  0  0  0  0  0  0  0  0  0
  -32.4414  -18.2591   20.2153 C   0  0  0  0  0  0  0  0  0  0  0  0
  -20.6182  -20.6245   22.4530 C   0  0  0  0  0  0  0  0  0  0  0  0
  -22.1935  -26.1987   25.6652 C   0  0  0  0  0  0  0  0  0  0  0  0
  -21.9030  -23.7121   25.6991 C   0  0  0  0  0  0  0  0  0  0  0  0
  -19.9544  -25.1870   25.1988 C   0  0  0  0  0  0  0  0  0  0  0  0
  -29.8890  -23.6866   22.6469 C   0  0  0  0  0  0  0  0  0  0  0  0
  -21.6268  -22.3312   19.2055 C   0  0  0  0  0  0  0  0  0  0  0  0
  -31.0381  -20.0971   18.4165 C   0  0  0  0  0  0  0  0  0  0  0  0
  -32.0456  -23.8909   21.4741 C   0  0  0  0  0  0  0  0  0  0  0  0
  -28.6371  -25.6200   20.9241 C   0  0  0  0  0  0  0  0  0  1  0  0
  -21.7758  -24.9097   23.4674 C   0  0  1  0  0  0  0  0  0  0  0  0
  -20.8330  -21.8011   21.5137 C   0  0  2  0  0  0  0  0  0  0  0  0
  -21.4746  -25.0141   24.9892 C   0  0  0  0  0  0  0  0  0  0  0  0
  -25.7922  -15.1634   20.3839 N   0  0  0  0  0  0  0  0  0  0  0  0
  -26.8897  -15.8602   20.7248 N   0  0  0  0  0  0  0  0  0  0  0  0
  -22.4401  -26.8242   22.0470 N   0  0  0  0  0  0  0  0  0  0  0  0
  -27.4669  -19.2178   18.9920 N   0  0  0  0  0  0  0  0  0  0  0  0
  -29.0679  -15.6313   21.6267 N   0  0  0  0  0  0  0  0  0  0  0  0
  -27.5025  -11.3951   21.5957 N   0  0  0  0  0  0  0  0  0  0  0  0
  -21.8789  -30.3186   22.4995 N   0  0  0  0  0  0  0  0  0  0  0  0
  -21.0869  -23.8131   22.7957 N   0  0  0  0  0  0  0  0  0  0  0  0
  -29.8024  -19.3867   18.6598 N   0  0  0  0  0  0  0  0  0  0  0  0
  -30.6532  -24.3194   21.5791 N   0  0  0  0  0  0  0  0  0  0  0  0
  -21.3879  -21.2833   20.2311 N   0  3  0  0  0  0  0  0  0  0  0  0
  -29.2966  -12.7132   22.1457 O   0  0  0  0  0  0  0  0  0  0  0  0
  -23.5847  -28.9054   23.2176 O   0  0  0  0  0  0  0  0  0  0  0  0
  -20.2266  -26.5451   22.7244 O   0  0  0  0  0  0  0  0  0  0  0  0
  -30.7171  -25.8184   19.8069 O   0  0  0  0  0  0  0  0  0  0  0  0
  -22.9957  -22.7584   22.0076 O   0  0  0  0  0  0  0  0  0  0  0  0
  -28.4889  -21.2655   18.6175 O   0  0  0  0  0  0  0  0  0  0  0  0
  -22.4850   -9.7513   19.8188 O   0  0  0  0  0  0  0  0  0  0  0  0
  -28.2376  -26.5862   19.9529 O   0  0  0  0  0  0  0  0  0  1  0  0
  -21.8439   -6.0190   23.8267 F   0  0  0  0  0  0  0  0  0  0  0  0
  -20.0208   -9.3562   21.0081 F   0  0  0  0  0  0  0  0  0  0  0  0
  -33.5606  -22.1080   23.4862 Cl  0  0  0  0  0  0  0  0  0  0  0  0
  1  2  1  0  0  0  0
  1  5  2  0  0  0  0
  2  6  2  0  0  0  0
  3  8  2  0  0  0  0
  3 17  1  0  0  0  0
  4  9  1  0  0  0  0
  4 17  2  0  0  0  0
  5 19  1  0  0  0  0
  6 21  1  0  0  0  0
  7 10  2  0  0  0  0
  7 20  1  0  0  0  0
  8 26  1  0  0  0  0
  9 26  2  0  0  0  0
 10 27  1  0  0  0  0
 11 12  2  0  0  0  0
 11 28  1  0  0  0  0
 12 29  1  0  0  0  0
 13 22  1  0  0  0  0
 13 27  2  0  0  0  0
 14 23  2  0  0  0  0
 14 24  1  0  0  0  0
 15 25  2  0  0  0  0
 15 31  1  0  0  0  0
 16 29  2  0  0  0  0
 16 30  1  0  0  0  0
 17 32  1  0  0  0  0
 18 32  1  0  0  0  0
 18 33  2  0  0  0  0
 18 34  1  0  0  0  0
 19 21  2  0  0  0  0
 19 40  1  0  0  0  0
 20 22  2  0  0  0  0
 20 41  1  0  0  0  0
 21 49  1  0  0  0  0
 22 42  1  0  0  0  0
 23 25  1  0  0  0  0
 23 59  1  0  0  0  0
 24 31  2  0  0  0  0
 24 60  1  0  0  0  0
 25 52  1  0  0  0  0
 26 82  1  0  0  0  0
 27 83  1  0  0  0  0
 28 30  2  0  0  0  0
 28 82  1  0  0  0  0
 29 84  1  0  0  0  0
 30 85  1  0  0  0  0
 31 86  1  0  0  0  0
 32 65  2  0  0  0  0
 33 66  1  0  0  0  0
 33 69  1  0  0  0  0
 34 70  1  0  0  0  0
 34 76  2  0  0  0  0
 35 50  1  0  0  0  0
 35 71  1  0  0  0  0
 35 77  2  0  0  0  0
 36 62  1  0  0  0  0
 36 67  1  0  0  0  0
 36 78  2  0  0  0  0
 37 61  1  0  0  0  0
 37 74  1  0  0  0  0
 37 79  2  0  0  0  0
 38 63  1  0  0  0  0
 38 72  1  0  0  0  0
 38 80  2  0  0  0  0
 39 68  1  0  0  0  0
 39 73  1  0  0  0  0
 39 81  2  0  0  0  0
 40 43  1  0  0  0  0
 41 50  1  0  0  0  0
 42 67  1  0  0  0  0
 43 45  1  0  0  0  0
 44 46  1  0  0  0  0
 44 47  1  0  0  0  0
 45 49  1  0  0  0  0
 46 51  1  0  0  0  0
 47 68  1  0  0  0  0
 48 51  1  0  0  0  0
 48 68  1  0  0  0  0
 49 71  1  0  0  0  0
 50 67  1  0  0  0  0
 51 66  1  0  0  0  0
 53 63  1  0  0  0  0
 54 64  1  0  0  0  0
 55 64  1  0  0  0  0
 56 64  1  0  0  0  0
 57 74  1  0  0  0  0
 58 75  1  0  0  0  0
 59 73  1  0  0  0  0
 60 74  1  0  0  0  0
 61 83  1  0  0  0  0
 62 64  1  0  0  0  0
 62 72  1  0  0  0  0
 63 75  1  0  0  0  0
 65 66  1  0  0  0  0
M  CHG  1  75   1
M  ISO  4  39 100  61 101  73 100  83 101
M  END
> <Batch ID>
0044

> <Smiles>
CNC(C)C(=O)NC(C(=O)N1Cc2cc([101O:1][101CH2:1]C(=O)N(C)Cc3cc(C[100NH:0][100C:0](=O)N4CCCC(n5nc(-c6ccc(Oc7ccc(F)cc7F)cc6)c(C(N)=O)c5N)C4)c(C)cc3Cl)ccc2CC1C(=O)NC1CCCc2ccccc21)C(C)(C)C

> <Shape>
0.214

> <Color>
0.089

> <Negative vol penalty>
0.000

$$$$

  -OEChem-04042322183D

 88 97  0     1  0  0  0  0  0999 V2000
  -17.2486  -29.6729   27.1903 C   0  0  0  0  0  0  0  0  0  0  0  0
  -18.2181  -28.6763   27.1427 C   0  0  0  0  0  0  0  0  0  0  0  0
  -26.6328  -12.9956   19.6451 C   0  0  0  0  0  0  0  0  0  0  0  0
  -25.1685  -13.4809   21.5045 C   0  0  0  0  0  0  0  0  0  0  0  0
  -16.7504  -30.2163   26.0069 C   0  0  0  0  0  0  0  0  0  0  0  0
  -18.6892  -28.2217   25.9115 C   0  0  0  0  0  0  0  0  0  0  0  0
  -25.6831  -28.6327   24.2359 C   0  0  0  0  0  0  0  0  0  0  0  0
  -25.7708  -11.9800   19.2314 C   0  0  0  0  0  0  0  0  0  0  0  0
  -24.3065  -12.4653   21.0908 C   0  0  0  0  0  0  0  0  0  0  0  0
  -27.0348  -28.4833   23.9247 C   0  0  0  0  0  0  0  0  0  0  0  0
  -24.1604   -9.0926   21.2751 C   0  0  0  0  0  0  0  0  0  0  0  0
  -23.6694   -8.2227   22.2486 C   0  0  0  0  0  0  0  0  0  0  0  0
  -26.4476  -27.5941   21.7539 C   0  0  0  0  0  0  0  0  0  0  0  0
  -29.4694  -23.5337   18.4461 C   0  0  0  0  0  0  0  0  0  0  0  0
  -31.4824  -21.8123   17.5701 C   0  0  0  0  0  0  0  0  0  0  0  0
  -21.4117   -8.8906   21.7065 C   0  0  0  0  0  0  0  0  0  0  0  0
  -26.3316  -13.7460   20.7817 C   0  0  0  0  0  0  0  0  0  0  0  0
  -28.5738  -14.6640   21.5804 C   0  0  0  0  0  0  0  0  0  0  0  0
  -17.2227  -29.7749   24.7608 C   0  0  0  0  0  0  0  0  0  0  0  0
  -24.7076  -28.2773   23.3003 C   0  0  0  0  0  0  0  0  0  0  0  0
  -18.1959  -28.7587   24.7103 C   0  0  0  0  0  0  0  0  0  0  0  0
  -25.0924  -27.7531   22.0552 C   0  0  0  0  0  0  0  0  0  0  0  0
  -29.1429  -22.2638   17.9702 C   0  0  0  0  0  0  0  0  0  0  0  0
  -30.8023  -23.9429   18.4839 C   0  0  0  0  0  0  0  0  0  0  0  0
  -30.1494  -21.4031   17.5322 C   0  0  0  0  0  0  0  0  0  0  0  0
  -24.6077  -11.7149   19.9542 C   0  0  0  0  0  0  0  0  0  0  0  0
  -27.4160  -27.9650   22.6868 C   0  0  0  0  0  0  0  0  0  0  0  0
  -23.2772   -9.8615   20.5173 C   0  0  0  0  0  0  0  0  0  0  0  0
  -22.2950   -8.1217   22.4643 C   0  0  0  0  0  0  0  0  0  0  0  0
  -21.9028   -9.7605   20.7330 C   0  0  0  0  0  0  0  0  0  0  0  0
  -31.8088  -23.0822   18.0459 C   0  0  0  0  0  0  0  0  0  0  0  0
  -27.2219  -14.7949   21.2099 C   0  0  0  0  0  0  0  0  0  0  0  0
  -28.9670  -15.9403   21.9013 C   0  0  0  0  0  0  0  0  0  0  0  0
  -29.6936  -26.4652   20.6593 C   0  0  0  0  0  0  0  0  0  0  0  0
  -29.4002  -13.4935   21.6299 C   0  0  0  0  0  0  0  0  0  0  0  0
  -21.0540  -28.0488   22.4787 C   0  0  0  0  0  0  0  0  0  0  0  0
  -22.4782  -29.0245   19.9429 C   0  0  0  0  0  0  0  0  0  0  0  0
  -23.3253  -30.4934   16.9829 C   0  0  0  0  0  0  0  0  0  0  0  0
  -26.9924  -21.3493   20.2598 C   0  0  0  0  0  0  0  0  0  0  0  0
  -16.6198  -30.3589   23.5077 C   0  0  0  0  0  0  0  0  0  0  0  0
  -23.2391  -28.3635   23.6160 C   0  0  0  0  0  0  0  0  0  0  0  0
  -24.0078  -27.3519   21.0931 C   0  0  0  0  0  0  0  0  0  0  0  0
  -17.4429  -30.0860   22.2514 C   0  0  0  0  0  0  0  0  0  0  0  0
  -30.8100  -24.7754   22.7771 C   0  0  0  0  0  0  0  0  0  0  0  0
  -27.2467  -20.0788   23.5760 C   0  0  0  0  0  0  0  0  0  0  0  0
  -17.8641  -28.6209   22.1970 C   0  0  0  0  0  0  0  0  0  0  0  0
  -30.2567  -26.1432   23.1185 C   0  0  0  0  0  0  0  0  0  0  0  0
  -27.3912  -18.5687   23.3791 C   0  0  0  0  0  0  0  0  0  0  0  0
  -31.4486  -24.8121   21.4002 C   0  0  0  0  0  0  0  0  0  0  0  0
  -26.3014  -20.6943   22.5466 C   0  0  0  0  0  0  0  0  0  0  0  0
  -26.7793  -18.8833   20.9449 C   0  0  0  0  0  0  0  0  0  0  0  0
  -18.7500  -28.2567   23.3946 C   0  0  1  0  0  0  0  0  0  0  0  0
  -29.1985  -26.5165   22.0991 C   0  0  1  0  0  0  0  0  0  1  0  0
  -22.3810  -28.7445   22.3962 C   0  0  1  0  0  0  0  0  0  0  0  0
  -27.7665  -18.2262   21.9248 C   0  0  2  0  0  0  0  0  0  0  0  0
  -29.8233  -20.0400   17.0161 C   0  0  0  0  0  0  0  0  0  0  0  0
  -22.5836  -30.6792   14.5928 C   0  0  0  0  0  0  0  0  0  0  0  0
  -23.5517  -26.2224   19.3959 C   0  0  0  0  0  0  0  0  0  0  0  0
  -23.6745  -26.8203   16.9678 C   0  0  0  0  0  0  0  0  0  0  0  0
  -21.4711  -26.8070   18.1373 C   0  0  0  0  0  0  0  0  0  0  0  0
  -22.9638  -33.4227   17.2014 C   0  0  0  0  0  0  0  0  0  0  0  0
  -31.1117  -25.3174   19.0029 C   0  0  0  0  0  0  0  0  0  0  0  0
  -27.7091  -21.8473   17.9365 C   0  0  0  0  0  0  0  0  0  0  0  0
  -23.1266  -28.6522   18.6336 C   0  0  1  0  0  0  0  0  0  0  0  0
  -22.5071  -31.2906   15.9831 C   0  0  2  0  0  0  0  0  0  0  0  0
  -22.9697  -27.1411   18.3031 C   0  0  0  0  0  0  0  0  0  0  0  0
  -26.7856  -16.0549   21.2880 N   0  0  0  0  0  0  0  0  0  0  0  0
  -27.8694  -16.7273   21.7113 N   0  0  0  0  0  0  0  0  0  0  0  0
  -30.6582  -25.4965   20.3757 N   0  0  0  0  0  0  0  0  0  0  0  0
  -22.9408  -28.3648   21.0880 N   0  0  0  0  0  0  0  0  0  0  0  0
  -26.7137  -20.3328   21.1882 N   0  0  0  0  0  0  0  0  0  0  0  0
  -30.1410  -16.4549   22.3248 N   0  0  0  0  0  0  0  0  0  0  0  0
  -29.4465  -12.7582   22.8222 N   0  0  0  0  0  0  0  0  0  0  0  0
  -20.0975  -28.7445   23.1933 N   0  0  0  0  0  0  0  0  0  0  0  0
  -22.5601  -29.5456   17.6290 N   0  0  0  0  0  0  0  0  0  0  0  0
  -27.3827  -20.9203   18.9971 N   0  0  0  0  0  0  0  0  0  0  0  0
  -23.0046  -32.6933   15.9078 N   0  3  0  0  0  0  0  0  0  0  0  0
  -29.1951  -27.2097   19.8111 O   0  0  0  0  0  0  0  0  0  0  0  0
  -30.0903  -13.1200   20.6512 O   0  0  0  0  0  0  0  0  0  0  0  0
  -20.9070  -26.9614   21.9332 O   0  0  0  0  0  0  0  0  0  0  0  0
  -21.5818  -29.8728   19.9523 O   0  0  0  0  0  0  0  0  0  0  0  0
  -24.5243  -30.6893   17.1692 O   0  0  0  0  0  0  0  0  0  0  0  0
  -26.9055  -22.5504   20.5372 O   0  0  0  0  0  0  0  0  0  0  0  0
  -23.7662  -10.7241   19.5506 O   0  0  0  0  0  0  0  0  0  0  0  0
  -28.7374  -27.8261   22.3877 O   0  0  0  0  0  0  0  0  0  1  0  0
  -21.8235   -7.2852   23.3981 F   0  0  0  0  0  0  0  0  0  0  0  0
  -21.0492  -10.4958   20.0073 F   0  0  0  0  0  0  0  0  0  0  0  0
  -33.4689  -23.5539   18.0776 Cl  0  0  0  0  0  0  0  0  0  0  0  0
  1  2  1  0  0  0  0
  1  5  2  0  0  0  0
  2  6  2  0  0  0  0
  3  8  2  0  0  0  0
  3 17  1  0  0  0  0
  4  9  1  0  0  0  0
  4 17  2  0  0  0  0
  5 19  1  0  0  0  0
  6 21  1  0  0  0  0
  7 10  2  0  0  0  0
  7 20  1  0  0  0  0
  8 26  1  0  0  0  0
  9 26  2  0  0  0  0
 10 27  1  0  0  0  0
 11 12  2  0  0  0  0
 11 28  1  0  0  0  0
 12 29  1  0  0  0  0
 13 22  1  0  0  0  0
 13 27  2  0  0  0  0
 14 23  2  0  0  0  0
 14 24  1  0  0  0  0
 15 25  2  0  0  0  0
 15 31  1  0  0  0  0
 16 29  2  0  0  0  0
 16 30  1  0  0  0  0
 17 32  1  0  0  0  0
 18 32  1  0  0  0  0
 18 33  2  0  0  0  0
 18 35  1  0  0  0  0
 19 21  2  0  0  0  0
 19 40  1  0  0  0  0
 20 22  2  0  0  0  0
 20 41  1  0  0  0  0
 21 52  1  0  0  0  0
 22 42  1  0  0  0  0
 23 25  1  0  0  0  0
 23 63  1  0  0  0  0
 24 31  2  0  0  0  0
 24 62  1  0  0  0  0
 25 56  1  0  0  0  0
 26 84  1  0  0  0  0
 27 85  1  0  0  0  0
 28 30  2  0  0  0  0
 28 84  1  0  0  0  0
 29 86  1  0  0  0  0
 30 87  1  0  0  0  0
 31 88  1  0  0  0  0
 32 67  2  0  0  0  0
 33 68  1  0  0  0  0
 33 72  1  0  0  0  0
 34 53  1  0  0  0  0
 34 69  1  0  0  0  0
 34 78  2  0  0  0  0
 35 73  1  0  0  0  0
 35 79  2  0  0  0  0
 36 54  1  0  0  0  0
 36 74  1  0  0  0  0
 36 80  2  0  0  0  0
 37 64  1  0  0  0  0
 37 70  1  0  0  0  0
 37 81  2  0  0  0  0
 38 65  1  0  0  0  0
 38 75  1  0  0  0  0
 38 82  2  0  0  0  0
 39 71  1  0  0  0  0
 39 76  1  0  0  0  0
 39 83  2  0  0  0  0
 40 43  1  0  0  0  0
 41 54  1  0  0  0  0
 42 70  1  0  0  0  0
 43 46  1  0  0  0  0
 44 47  1  0  0  0  0
 44 49  1  0  0  0  0
 45 48  1  0  0  0  0
 45 50  1  0  0  0  0
 46 52  1  0  0  0  0
 47 53  1  0  0  0  0
 48 55  1  0  0  0  0
 49 69  1  0  0  0  0
 50 71  1  0  0  0  0
 51 55  1  0  0  0  0
 51 71  1  0  0  0  0
 52 74  1  0  0  0  0
 53 85  1  0  0  0  0
 54 70  1  0  0  0  0
 55 68  1  0  0  0  0
 57 65  1  0  0  0  0
 58 66  1  0  0  0  0
 59 66  1  0  0  0  0
 60 66  1  0  0  0  0
 61 77  1  0  0  0  0
 62 69  1  0  0  0  0
 63 76  1  0  0  0  0
 64 66  1  0  0  0  0
 64 75  1  0  0  0  0
 65 77  1  0  0  0  0
 67 68  1  0  0  0  0
M  CHG  1  77   1
M  ISO  4  39 100  53 101  76 100  85 101
M  END
> <Batch ID>
0044

> <Smiles>
CNC(C)C(=O)NC(C(=O)N1Cc2cc([101O:1][101CH:1]3CCCN(Cc4cc(C[100NH:0][100C:0](=O)N5CCCC(n6nc(-c7ccc(Oc8ccc(F)cc8F)cc7)c(C(N)=O)c6N)C5)c(C)cc4Cl)C3=O)ccc2CC1C(=O)NC1CCCc2ccccc21)C(C)(C)C

> <Shape>
0.254

> <Color>
0.059

> <Negative vol penalty>
0.000

$$$$

  -OEChem-04042322183D

 86 95  0     1  0  0  0  0  0999 V2000
  -22.7607   -8.1967   21.0958 C   0  0  0  0  0  0  0  0  0  0  0  0
  -23.6077   -8.7811   20.1596 C   0  0  0  0  0  0  0  0  0  0  0  0
  -25.3655  -26.9944   19.8285 C   0  0  0  0  0  0  0  0  0  0  0  0
  -27.3772  -28.3323   19.8464 C   0  0  0  0  0  0  0  0  0  0  0  0
  -22.2168   -8.9699   22.1206 C   0  0  0  0  0  0  0  0  0  0  0  0
  -23.9103  -10.1395   20.2470 C   0  0  0  0  0  0  0  0  0  0  0  0
  -28.8407  -11.0786   19.5732 C   0  0  0  0  0  0  0  0  0  0  0  0
  -29.1565  -17.6460   13.5060 C   0  0  0  0  0  0  0  0  0  0  0  0
  -29.5551  -18.9027   13.9612 C   0  0  0  0  0  0  0  0  0  0  0  0
  -24.6021  -28.1392   20.0571 C   0  0  0  0  0  0  0  0  0  0  0  0
  -26.6138  -29.4771   20.0749 C   0  0  0  0  0  0  0  0  0  0  0  0
  -29.3185  -11.0638   18.2635 C   0  0  0  0  0  0  0  0  0  0  0  0
  -23.8007  -30.1156   22.6793 C   0  0  0  0  0  0  0  0  0  0  0  0
  -22.7937  -30.0407   23.6414 C   0  0  0  0  0  0  0  0  0  0  0  0
  -29.2307  -13.4739   18.2106 C   0  0  0  0  0  0  0  0  0  0  0  0
  -28.1251  -17.1985   15.6445 C   0  0  0  0  0  0  0  0  0  0  0  0
  -21.1464  -30.5836   21.9595 C   0  0  0  0  0  0  0  0  0  0  0  0
  -26.7531  -27.0910   19.7232 C   0  0  0  0  0  0  0  0  0  0  0  0
  -27.6231  -24.7641   20.3033 C   0  0  0  0  0  0  0  0  0  0  0  0
  -22.5206  -10.3363   22.2263 C   0  0  0  0  0  0  0  0  0  0  0  0
  -28.5435  -12.2927   20.2087 C   0  0  0  0  0  0  0  0  0  0  0  0
  -23.3689  -10.9320   21.2734 C   0  0  0  0  0  0  0  0  0  0  0  0
  -28.7517  -13.5015   19.5293 C   0  0  0  0  0  0  0  0  0  0  0  0
  -28.4414  -16.7938   14.3477 C   0  0  0  0  0  0  0  0  0  0  0  0
  -28.5238  -18.4553   16.0997 C   0  0  0  0  0  0  0  0  0  0  0  0
  -29.2387  -19.3074   15.2580 C   0  0  0  0  0  0  0  0  0  0  0  0
  -25.2262  -29.3806   20.1802 C   0  0  0  0  0  0  0  0  0  0  0  0
  -29.5108  -12.2614   17.5810 C   0  0  0  0  0  0  0  0  0  0  0  0
  -23.4807  -30.4246   21.3572 C   0  0  0  0  0  0  0  0  0  0  0  0
  -21.4665  -30.2746   23.2815 C   0  0  0  0  0  0  0  0  0  0  0  0
  -22.1535  -30.6586   20.9973 C   0  0  0  0  0  0  0  0  0  0  0  0
  -27.5423  -25.9087   19.4877 C   0  0  0  0  0  0  0  0  0  0  0  0
  -28.4987  -23.9350   19.6458 C   0  0  0  0  0  0  0  0  0  0  0  0
  -29.8145  -13.9976   14.6171 C   0  0  0  0  0  0  0  0  0  0  0  0
  -30.9854  -14.5403   14.9895 C   0  0  0  0  0  0  0  0  0  0  0  0
  -26.9655  -24.4761   21.5444 C   0  0  0  0  0  0  0  0  0  0  0  0
  -25.9135  -13.6073   21.4167 C   0  0  0  0  0  0  0  0  0  0  0  0
  -27.9839  -15.8989   22.4088 C   0  0  0  0  0  0  0  0  0  0  0  0
  -30.8284  -17.6480   21.0425 C   0  0  0  0  0  0  0  0  0  0  0  0
  -30.3683  -21.5418   14.9788 C   0  0  0  0  0  0  0  0  0  0  0  0
  -21.8711  -11.1417   23.3236 C   0  0  0  0  0  0  0  0  0  0  0  0
  -28.0542  -12.2929   21.6310 C   0  0  0  0  0  0  0  0  0  0  0  0
  -28.4670  -14.8327   20.1738 C   0  0  0  0  0  0  0  0  0  0  0  0
  -22.5395  -12.4927   23.5650 C   0  0  0  0  0  0  0  0  0  0  0  0
  -31.5453  -24.8234   15.7023 C   0  0  0  0  0  0  0  0  0  0  0  0
  -28.0338  -12.3496   13.0897 C   0  0  0  0  0  0  0  0  0  0  0  0
  -22.7923  -13.2072   22.2412 C   0  0  0  0  0  0  0  0  0  0  0  0
  -28.7768  -11.7551   14.2809 C   0  0  0  0  0  0  0  0  0  0  0  0
  -30.6154  -25.3041   16.8187 C   0  0  0  0  0  0  0  0  0  0  0  0
  -30.8040  -23.9694   14.6752 C   0  0  0  0  0  0  0  0  0  0  0  0
  -29.1185  -23.3222   16.3513 C   0  0  0  0  0  0  0  0  0  0  0  0
  -28.8219  -13.4905   12.4547 C   0  0  0  0  0  0  0  0  0  0  0  0
  -23.7407  -12.3970   21.3492 C   0  0  1  0  0  0  0  0  0  0  0  0
  -29.1430  -12.8295   15.3038 C   0  0  1  0  0  0  0  0  0  1  0  0
  -27.2966  -13.5640   22.0022 C   0  0  1  0  0  0  0  0  0  0  0  0
  -29.8338  -24.1325   17.4447 C   0  0  2  0  0  0  0  0  0  0  0  0
  -28.1737  -18.8614   17.4947 C   0  0  0  0  0  0  0  0  0  0  0  0
  -32.7931  -18.7114   22.1857 C   0  0  0  0  0  0  0  0  0  0  0  0
  -26.3154  -18.4497   22.2701 C   0  0  0  0  0  0  0  0  0  0  0  0
  -28.4188  -19.7160   21.7800 C   0  0  0  0  0  0  0  0  0  0  0  0
  -28.1697  -18.5060   23.9472 C   0  0  0  0  0  0  0  0  0  0  0  0
  -32.7583  -16.0676   19.4497 C   0  0  0  0  0  0  0  0  0  0  0  0
  -28.0149  -15.4411   13.8588 C   0  0  0  0  0  0  0  0  0  0  0  0
  -28.5197  -17.1824   21.8218 C   0  0  1  0  0  0  0  0  0  0  0  0
  -32.2805  -17.4815   21.4526 C   0  0  2  0  0  0  0  0  0  0  0  0
  -27.8479  -18.4418   22.4382 C   0  0  0  0  0  0  0  0  0  0  0  0
  -28.3058  -25.8184   18.3955 N   0  0  0  0  0  0  0  0  0  0  0  0
  -28.8748  -24.6073   18.5202 N   0  0  0  0  0  0  0  0  0  0  0  0
  -27.9842  -14.7802   21.5637 N   0  0  0  0  0  0  0  0  0  0  0  0
  -30.0904  -22.8771   15.3403 N   0  0  0  0  0  0  0  0  0  0  0  0
  -28.9760  -22.7038   19.9263 N   0  0  0  0  0  0  0  0  0  0  0  0
  -26.0982  -25.4381   22.0800 N   0  0  0  0  0  0  0  0  0  0  0  0
  -29.6527  -20.5879   15.7017 N   0  0  0  0  0  0  0  0  0  0  0  0
  -25.1087  -12.5500   21.7959 N   0  0  0  0  0  0  0  0  0  0  0  0
  -29.9681  -17.1349   21.9900 N   0  0  0  0  0  0  0  0  0  0  0  0
  -29.1715  -14.5691   13.4540 N   0  3  1  0  0  0  0  0  0  0  0  0
  -33.1355  -17.2595   20.2524 N   0  3  0  0  0  0  0  0  0  0  0  0
  -27.1543  -23.4044   22.1684 O   0  0  0  0  0  0  0  0  0  0  0  0
  -25.5993  -14.5323   20.6768 O   0  0  0  0  0  0  0  0  0  0  0  0
  -27.5867  -15.8875   23.5766 O   0  0  0  0  0  0  0  0  0  0  0  0
  -30.4910  -18.1834   19.9889 O   0  0  0  0  0  0  0  0  0  0  0  0
  -31.2012  -21.2641   14.1122 O   0  0  0  0  0  0  0  0  0  0  0  0
  -24.4816  -30.4979   20.4030 O   0  0  0  0  0  0  0  0  0  0  0  0
  -29.9765  -12.2498   16.3024 O   0  0  0  0  0  0  0  0  0  1  0  0
  -20.4993  -30.2011   24.2053 F   0  0  0  0  0  0  0  0  0  0  0  0
  -21.8398  -30.9547   19.7286 F   0  0  0  0  0  0  0  0  0  0  0  0
  1  2  1  0  0  0  0
  1  5  2  0  0  0  0
  2  6  2  0  0  0  0
  3 10  2  0  0  0  0
  3 18  1  0  0  0  0
  4 11  1  0  0  0  0
  4 18  2  0  0  0  0
  5 20  1  0  0  0  0
  6 22  1  0  0  0  0
  7 12  2  0  0  0  0
  7 21  1  0  0  0  0
  8  9  2  0  0  0  0
  8 24  1  0  0  0  0
  9 26  1  0  0  0  0
 10 27  1  0  0  0  0
 11 27  2  0  0  0  0
 12 28  1  0  0  0  0
 13 14  2  0  0  0  0
 13 29  1  0  0  0  0
 14 30  1  0  0  0  0
 15 23  1  0  0  0  0
 15 28  2  0  0  0  0
 16 24  2  0  0  0  0
 16 25  1  0  0  0  0
 17 30  2  0  0  0  0
 17 31  1  0  0  0  0
 18 32  1  0  0  0  0
 19 32  1  0  0  0  0
 19 33  2  0  0  0  0
 19 36  1  0  0  0  0
 20 22  2  0  0  0  0
 20 41  1  0  0  0  0
 21 23  2  0  0  0  0
 21 42  1  0  0  0  0
 22 53  1  0  0  0  0
 23 43  1  0  0  0  0
 24 63  1  0  0  0  0
 25 26  2  0  0  0  0
 25 57  1  0  0  0  0
 26 73  1  0  0  0  0
 27 83  1  0  0  0  0
 28 84  1  0  0  0  0
 29 31  2  0  0  0  0
 29 83  1  0  0  0  0
 30 85  1  0  0  0  0
 31 86  1  0  0  0  0
 32 67  2  0  0  0  0
 33 68  1  0  0  0  0
 33 71  1  0  0  0  0
 34 35  2  0  0  0  0
 34 54  1  0  0  0  0
 34 76  1  0  0  0  0
 36 72  1  0  0  0  0
 36 78  2  0  0  0  0
 37 55  1  0  0  0  0
 37 74  1  0  0  0  0
 37 79  2  0  0  0  0
 38 64  1  0  0  0  0
 38 69  1  0  0  0  0
 38 80  2  0  0  0  0
 39 65  1  0  0  0  0
 39 75  1  0  0  0  0
 39 81  2  0  0  0  0
 40 70  1  0  0  0  0
 40 73  1  0  0  0  0
 40 82  2  0  0  0  0
 41 44  1  0  0  0  0
 42 55  1  0  0  0  0
 43 69  1  0  0  0  0
 44 47  1  0  0  0  0
 45 49  1  0  0  0  0
 45 50  1  0  0  0  0
 46 48  1  0  0  0  0
 46 52  1  0  0  0  0
 47 53  1  0  0  0  0
 48 54  1  0  0  0  0
 49 56  1  0  0  0  0
 50 70  1  0  0  0  0
 51 56  1  0  0  0  0
 51 70  1  0  0  0  0
 52 76  1  0  0  0  0
 53 74  1  0  0  0  0
 54 84  1  0  0  0  0
 55 69  1  0  0  0  0
 56 68  1  0  0  0  0
 58 65  1  0  0  0  0
 59 66  1  0  0  0  0
 60 66  1  0  0  0  0
 61 66  1  0  0  0  0
 62 77  1  0  0  0  0
 63 76  1  0  0  0  0
 64 66  1  0  0  0  0
 64 75  1  0  0  0  0
 65 77  1  0  0  0  0
 67 68  1  0  0  0  0
M  CHG  2  76   1  77   1
M  ISO  4  40 100  54 101  73 100  84 101
M  END
> <Batch ID>
0044

> <Smiles>
C=C1N(Cc2ccc([100NH:0][100C:0](=O)N3CCCC(n4nc(-c5ccc(Oc6ccc(F)cc6F)cc5)c(C(N)=O)c4N)C3)c(C)c2)CCC[101CH:1]1[101O:1]c1ccc2c(c1)CN(C(=O)C(NC(=O)C(C)NC)C(C)(C)C)C(C(=O)NC1CCCc3ccccc31)C2

> <Shape>
0.246

> <Color>
0.077

> <Negative vol penalty>
0.000

$$$$

  -OEChem-04042322183D

 90 99  0     1  0  0  0  0  0999 V2000
  -30.3792  -35.7222   23.4677 C   0  0  0  0  0  0  0  0  0  0  0  0
  -30.3181  -34.3653   23.1672 C   0  0  0  0  0  0  0  0  0  0  0  0
  -23.5346   -8.4218   19.1406 C   0  0  0  0  0  0  0  0  0  0  0  0
  -24.7991   -8.3319   21.1974 C   0  0  0  0  0  0  0  0  0  0  0  0
  -29.3445  -36.3240   24.1827 C   0  0  0  0  0  0  0  0  0  0  0  0
  -29.2226  -33.6090   23.5825 C   0  0  0  0  0  0  0  0  0  0  0  0
  -27.4842  -30.5465   19.9432 C   0  0  0  0  0  0  0  0  0  0  0  0
  -26.9832  -19.6606   18.4493 C   0  0  0  0  0  0  0  0  0  0  0  0
  -27.2217  -18.3286   18.7873 C   0  0  0  0  0  0  0  0  0  0  0  0
  -22.4212   -7.9044   19.8025 C   0  0  0  0  0  0  0  0  0  0  0  0
  -23.6856   -7.8146   21.8593 C   0  0  0  0  0  0  0  0  0  0  0  0
  -28.1963  -29.3716   19.7058 C   0  0  0  0  0  0  0  0  0  0  0  0
  -22.1310   -4.8272   22.1593 C   0  0  0  0  0  0  0  0  0  0  0  0
  -22.3308   -3.7429   23.0135 C   0  0  0  0  0  0  0  0  0  0  0  0
  -26.5804  -28.1372   21.0037 C   0  0  0  0  0  0  0  0  0  0  0  0
  -21.4860   -5.0455   24.8646 C   0  0  0  0  0  0  0  0  0  0  0  0
  -24.7236   -8.6355   19.8381 C   0  0  0  0  0  0  0  0  0  0  0  0
  -26.5493   -8.6033   18.0567 C   0  0  0  0  0  0  0  0  0  0  0  0
  -28.2312  -35.5767   24.5986 C   0  0  0  0  0  0  0  0  0  0  0  0
  -26.3190  -30.5274   20.7230 C   0  0  0  0  0  0  0  0  0  0  0  0
  -28.1727  -34.2010   24.3049 C   0  0  0  0  0  0  0  0  0  0  0  0
  -25.8540  -29.3129   21.2474 C   0  0  0  0  0  0  0  0  0  0  0  0
  -28.0359  -20.4720   18.0260 C   0  0  0  0  0  0  0  0  0  0  0  0
  -29.3272  -19.9514   17.9410 C   0  0  0  0  0  0  0  0  0  0  0  0
  -29.5657  -18.6193   18.2791 C   0  0  0  0  0  0  0  0  0  0  0  0
  -28.5129  -17.8079   18.7023 C   0  0  0  0  0  0  0  0  0  0  0  0
  -22.4966   -7.6008   21.1619 C   0  0  0  0  0  0  0  0  0  0  0  0
  -27.7460  -28.1672   20.2384 C   0  0  0  0  0  0  0  0  0  0  0  0
  -21.6087   -6.0208   22.6577 C   0  0  0  0  0  0  0  0  0  0  0  0
  -22.0083   -3.8520   24.3662 C   0  0  0  0  0  0  0  0  0  0  0  0
  -21.2862   -6.1299   24.0103 C   0  0  0  0  0  0  0  0  0  0  0  0
  -25.8743   -9.1694   19.1547 C   0  0  0  0  0  0  0  0  0  0  0  0
  -27.5633   -9.4886   17.7834 C   0  0  0  0  0  0  0  0  0  0  0  0
  -26.8789  -24.0388   18.3813 C   0  0  0  0  0  0  0  0  0  0  0  0
  -23.5468  -23.3806   16.9850 C   0  0  0  0  0  0  0  0  0  0  0  0
  -25.6883  -24.2367   17.7891 C   0  0  0  0  0  0  0  0  0  0  0  0
  -24.7314  -23.1830   17.5743 C   0  0  0  0  0  0  0  0  0  0  0  0
  -26.2835   -7.3862   17.3471 C   0  0  0  0  0  0  0  0  0  0  0  0
  -25.4326  -31.8687   23.4651 C   0  0  0  0  0  0  0  0  0  0  0  0
  -22.5555  -30.5683   22.7211 C   0  0  0  0  0  0  0  0  0  0  0  0
  -20.8083  -28.1774   21.0247 C   0  0  0  0  0  0  0  0  0  0  0  0
  -27.8381  -15.3840   18.9345 C   0  0  0  0  0  0  0  0  0  0  0  0
  -27.1597  -36.2609   25.4101 C   0  0  0  0  0  0  0  0  0  0  0  0
  -25.5477  -31.7990   20.9476 C   0  0  0  0  0  0  0  0  0  0  0  0
  -24.5976  -29.2353   22.0743 C   0  0  0  0  0  0  0  0  0  0  0  0
  -27.8477  -25.1698   18.5849 C   0  0  0  0  0  0  0  0  0  0  0  0
  -25.8568  -35.4696   25.4889 C   0  0  0  0  0  0  0  0  0  0  0  0
  -29.9182  -12.6301   20.6119 C   0  0  0  0  0  0  0  0  0  0  0  0
  -27.5852  -23.5206   21.1732 C   0  0  0  0  0  0  0  0  0  0  0  0
  -26.1397  -34.0062   25.8132 C   0  0  0  0  0  0  0  0  0  0  0  0
  -29.5526  -11.4524   19.7115 C   0  0  0  0  0  0  0  0  0  0  0  0
  -28.1843  -24.9253   21.1180 C   0  0  0  0  0  0  0  0  0  0  0  0
  -29.7193  -13.9715   19.9174 C   0  0  0  0  0  0  0  0  0  0  0  0
  -27.5179  -12.9473   19.3169 C   0  0  0  0  0  0  0  0  0  0  0  0
  -28.0646  -22.6238   20.0348 C   0  0  0  0  0  0  0  0  0  0  0  0
  -26.9893  -33.3524   24.7166 C   0  0  1  0  0  0  0  0  0  0  0  0
  -24.6562  -31.7467   22.1845 C   0  0  1  0  0  0  0  0  0  0  0  0
  -28.3141  -11.7246   18.8349 C   0  0  2  0  0  0  0  0  0  0  0  0
  -27.6896  -25.8034   19.9691 C   0  0  1  0  0  0  0  0  0  1  0  0
  -30.4542  -20.8240   17.4866 C   0  0  0  0  0  0  0  0  0  0  0  0
  -30.9522  -18.0626   18.1870 C   0  0  0  0  0  0  0  0  0  0  0  0
  -18.4725  -27.3435   20.6430 C   0  0  0  0  0  0  0  0  0  0  0  0
  -22.5751  -29.2592   25.4772 C   0  0  0  0  0  0  0  0  0  0  0  0
  -20.7572  -27.7299   24.6868 C   0  0  0  0  0  0  0  0  0  0  0  0
  -20.3613  -30.1910   24.7806 C   0  0  0  0  0  0  0  0  0  0  0  0
  -20.9634  -28.7247   18.1204 C   0  0  0  0  0  0  0  0  0  0  0  0
  -27.7518  -21.9012   17.6684 C   0  0  0  0  0  0  0  0  0  0  0  0
  -21.8776  -29.2468   22.9913 C   0  0  1  0  0  0  0  0  0  0  0  0
  -19.5744  -28.2656   20.1449 C   0  0  2  0  0  0  0  0  0  0  0  0
  -21.4176  -29.1081   24.4701 C   0  0  0  0  0  0  0  0  0  0  0  0
  -26.4141  -10.3248   19.5520 N   0  0  0  0  0  0  0  0  0  0  0  0
  -27.4390  -10.4919   18.6990 N   0  0  0  0  0  0  0  0  0  0  0  0
  -23.8819  -30.5068   22.2711 N   0  0  0  0  0  0  0  0  0  0  0  0
  -28.3650  -14.1443   19.3724 N   0  0  0  0  0  0  0  0  0  0  0  0
  -28.5401   -9.4990   16.8517 N   0  0  0  0  0  0  0  0  0  0  0  0
  -26.9012   -6.2076   17.7873 N   0  0  0  0  0  0  0  0  0  0  0  0
  -28.7322  -16.4516   19.0506 N   0  0  0  0  0  0  0  0  0  0  0  0
  -26.1710  -33.0323   23.5667 N   0  0  0  0  0  0  0  0  0  0  0  0
  -20.7978  -29.1352   22.0167 N   0  0  0  0  0  0  0  0  0  0  0  0
  -27.1755  -22.6945   18.8156 N   0  3  2  0  0  0  0  0  0  0  0  0
  -19.9090  -27.8840   18.7437 N   0  3  0  0  0  0  0  0  0  0  0  0
  -25.5338   -7.3479   16.3421 O   0  0  0  0  0  0  0  0  0  0  0  0
  -25.3656  -30.9741   24.2999 O   0  0  0  0  0  0  0  0  0  0  0  0
  -21.9288  -31.6164   22.8959 O   0  0  0  0  0  0  0  0  0  0  0  0
  -21.6912  -27.3402   20.8518 O   0  0  0  0  0  0  0  0  0  0  0  0
  -26.6944  -15.4790   18.4841 O   0  0  0  0  0  0  0  0  0  0  0  0
  -21.4102   -7.0962   21.8081 O   0  0  0  0  0  0  0  0  0  0  0  0
  -28.4394  -27.0190   20.0088 O   0  0  0  0  0  0  0  0  0  1  0  0
  -22.1988   -2.8101   25.1861 F   0  0  0  0  0  0  0  0  0  0  0  0
  -20.7830   -7.2736   24.4947 F   0  0  0  0  0  0  0  0  0  0  0  0
  1  2  1  0  0  0  0
  1  5  2  0  0  0  0
  2  6  2  0  0  0  0
  3 10  2  0  0  0  0
  3 17  1  0  0  0  0
  4 11  1  0  0  0  0
  4 17  2  0  0  0  0
  5 19  1  0  0  0  0
  6 21  1  0  0  0  0
  7 12  2  0  0  0  0
  7 20  1  0  0  0  0
  8  9  2  0  0  0  0
  8 23  1  0  0  0  0
  9 26  1  0  0  0  0
 10 27  1  0  0  0  0
 11 27  2  0  0  0  0
 12 28  1  0  0  0  0
 13 14  2  0  0  0  0
 13 29  1  0  0  0  0
 14 30  1  0  0  0  0
 15 22  1  0  0  0  0
 15 28  2  0  0  0  0
 16 30  2  0  0  0  0
 16 31  1  0  0  0  0
 17 32  1  0  0  0  0
 18 32  1  0  0  0  0
 18 33  2  0  0  0  0
 18 38  1  0  0  0  0
 19 21  2  0  0  0  0
 19 43  1  0  0  0  0
 20 22  2  0  0  0  0
 20 44  1  0  0  0  0
 21 56  1  0  0  0  0
 22 45  1  0  0  0  0
 23 24  2  0  0  0  0
 23 67  1  0  0  0  0
 24 25  1  0  0  0  0
 24 60  1  0  0  0  0
 25 26  2  0  0  0  0
 25 61  1  0  0  0  0
 26 77  1  0  0  0  0
 27 87  1  0  0  0  0
 28 88  1  0  0  0  0
 29 31  2  0  0  0  0
 29 87  1  0  0  0  0
 30 89  1  0  0  0  0
 31 90  1  0  0  0  0
 32 71  2  0  0  0  0
 33 72  1  0  0  0  0
 33 75  1  0  0  0  0
 34 36  2  0  0  0  0
 34 46  1  0  0  0  0
 34 80  1  0  0  0  0
 35 37  2  0  0  0  0
 36 37  1  0  0  0  0
 38 76  1  0  0  0  0
 38 82  2  0  0  0  0
 39 57  1  0  0  0  0
 39 78  1  0  0  0  0
 39 83  2  0  0  0  0
 40 68  1  0  0  0  0
 40 73  1  0  0  0  0
 40 84  2  0  0  0  0
 41 69  1  0  0  0  0
 41 79  1  0  0  0  0
 41 85  2  0  0  0  0
 42 74  1  0  0  0  0
 42 77  1  0  0  0  0
 42 86  2  0  0  0  0
 43 47  1  0  0  0  0
 44 57  1  0  0  0  0
 45 73  1  0  0  0  0
 46 59  1  0  0  0  0
 47 50  1  0  0  0  0
 48 51  1  0  0  0  0
 48 53  1  0  0  0  0
 49 52  1  0  0  0  0
 49 55  1  0  0  0  0
 50 56  1  0  0  0  0
 51 58  1  0  0  0  0
 52 59  1  0  0  0  0
 53 74  1  0  0  0  0
 54 58  1  0  0  0  0
 54 74  1  0  0  0  0
 55 80  1  0  0  0  0
 56 78  1  0  0  0  0
 57 73  1  0  0  0  0
 58 72  1  0  0  0  0
 59 88  1  0  0  0  0
 62 69  1  0  0  0  0
 63 70  1  0  0  0  0
 64 70  1  0  0  0  0
 65 70  1  0  0  0  0
 66 81  1  0  0  0  0
 67 80  1  0  0  0  0
 68 70  1  0  0  0  0
 68 79  1  0  0  0  0
 69 81  1  0  0  0  0
 71 72  1  0  0  0  0
M  CHG  2  80   1  81   1
M  ISO  4  42 100  59 101  77 100  88 101
M  END
> <Batch ID>
0044

> <Smiles>
C=CC=C1C[101CH:1]([101O:1]c2ccc3c(c2)CN(C(=O)C(NC(=O)C(C)NC)C(C)(C)C)C(C(=O)NC2CCCc4ccccc42)C3)CCCN1Cc1ccc([100NH:0][100C:0](=O)N2CCCC(n3nc(-c4ccc(Oc5ccc(F)cc5F)cc4)c(C(N)=O)c3N)C2)c(C)c1C

> <Shape>
0.291

> <Color>
0.099

> <Negative vol penalty>
0.000

$$$$

  -OEChem-04042322183D

 91100  0     1  0  0  0  0  0999 V2000
  -28.2164  -32.7577   26.0856 C   0  0  0  0  0  0  0  0  0  0  0  0
  -28.4064  -31.4578   25.6278 C   0  0  0  0  0  0  0  0  0  0  0  0
  -23.0749   -9.6422   19.7506 C   0  0  0  0  0  0  0  0  0  0  0  0
  -24.6073   -9.0768   21.5308 C   0  0  0  0  0  0  0  0  0  0  0  0
  -26.9489  -33.3361   26.0321 C   0  0  0  0  0  0  0  0  0  0  0  0
  -27.3287  -30.7351   25.1172 C   0  0  0  0  0  0  0  0  0  0  0  0
  -28.4823  -28.2922   20.8340 C   0  0  0  0  0  0  0  0  0  0  0  0
  -22.0098   -9.1697   20.5173 C   0  0  0  0  0  0  0  0  0  0  0  0
  -23.5422   -8.6043   22.2976 C   0  0  0  0  0  0  0  0  0  0  0  0
  -29.2104  -27.1091   20.9520 C   0  0  0  0  0  0  0  0  0  0  0  0
  -21.6273   -5.8224   22.4555 C   0  0  0  0  0  0  0  0  0  0  0  0
  -21.7914   -4.6017   23.1102 C   0  0  0  0  0  0  0  0  0  0  0  0
  -27.1763  -25.8385   20.6933 C   0  0  0  0  0  0  0  0  0  0  0  0
  -27.4026  -18.5770   19.4723 C   0  0  0  0  0  0  0  0  0  0  0  0
  -25.6237  -17.6341   18.1368 C   0  0  0  0  0  0  0  0  0  0  0  0
  -21.4362   -5.6940   25.2357 C   0  0  0  0  0  0  0  0  0  0  0  0
  -24.3737   -9.5957   20.2573 C   0  0  0  0  0  0  0  0  0  0  0  0
  -25.8856   -9.6162   18.2027 C   0  0  0  0  0  0  0  0  0  0  0  0
  -25.8571  -32.6235   25.5118 C   0  0  0  0  0  0  0  0  0  0  0  0
  -27.0919  -28.2574   20.6553 C   0  0  0  0  0  0  0  0  0  0  0  0
  -26.0452  -31.3040   25.0580 C   0  0  0  0  0  0  0  0  0  0  0  0
  -26.4332  -27.0225   20.5707 C   0  0  0  0  0  0  0  0  0  0  0  0
  -26.7782  -19.8233   19.4241 C   0  0  0  0  0  0  0  0  0  0  0  0
  -24.9992  -18.8804   18.0887 C   0  0  0  0  0  0  0  0  0  0  0  0
  -25.5765  -19.9751   18.7323 C   0  0  0  0  0  0  0  0  0  0  0  0
  -26.8254  -17.4823   18.8286 C   0  0  0  0  0  0  0  0  0  0  0  0
  -22.2434   -8.6508   21.7908 C   0  0  0  0  0  0  0  0  0  0  0  0
  -28.5571  -25.8821   20.8846 C   0  0  0  0  0  0  0  0  0  0  0  0
  -21.3677   -6.9789   23.1909 C   0  0  0  0  0  0  0  0  0  0  0  0
  -21.6958   -4.5375   24.5003 C   0  0  0  0  0  0  0  0  0  0  0  0
  -21.2722   -6.9147   24.5810 C   0  0  0  0  0  0  0  0  0  0  0  0
  -25.4745  -10.0831   19.4656 C   0  0  0  0  0  0  0  0  0  0  0  0
  -26.9661  -10.4009   17.8816 C   0  0  0  0  0  0  0  0  0  0  0  0
  -29.3742  -22.3889   20.3615 C   0  0  0  0  0  0  0  0  0  0  0  0
  -30.8735  -20.3450   23.0185 C   0  0  0  0  0  0  0  0  0  0  0  0
  -30.0511  -22.0463   21.4733 C   0  0  0  0  0  0  0  0  0  0  0  0
  -30.2006  -20.6849   21.9134 C   0  0  0  0  0  0  0  0  0  0  0  0
  -25.3395   -8.5670   17.3924 C   0  0  0  0  0  0  0  0  0  0  0  0
  -24.5901  -29.2992   22.3164 C   0  0  0  0  0  0  0  0  0  0  0  0
  -22.9385  -28.3129   19.7046 C   0  0  0  0  0  0  0  0  0  0  0  0
  -23.0028  -25.4891   17.4598 C   0  0  0  0  0  0  0  0  0  0  0  0
  -28.6534  -15.8935   19.5216 C   0  0  0  0  0  0  0  0  0  0  0  0
  -24.4963  -33.2738   25.5181 C   0  0  0  0  0  0  0  0  0  0  0  0
  -26.3245  -29.5420   20.5029 C   0  0  0  0  0  0  0  0  0  0  0  0
  -24.9448  -26.9304   20.3595 C   0  0  0  0  0  0  0  0  0  0  0  0
  -23.4826  -32.5740   24.6166 C   0  0  0  0  0  0  0  0  0  0  0  0
  -30.2639  -23.5346   17.5621 C   0  0  0  0  0  0  0  0  0  0  0  0
  -30.5223  -12.8876   19.9075 C   0  0  0  0  0  0  0  0  0  0  0  0
  -30.1439  -22.0100   17.5805 C   0  0  0  0  0  0  0  0  0  0  0  0
  -23.5276  -31.0648   24.8335 C   0  0  0  0  0  0  0  0  0  0  0  0
  -30.3373  -24.2071   18.9310 C   0  0  0  0  0  0  0  0  0  0  0  0
  -29.4785  -11.7847   19.7170 C   0  0  0  0  0  0  0  0  0  0  0  0
  -29.9449  -14.0933   20.6469 C   0  0  0  0  0  0  0  0  0  0  0  0
  -27.6705  -13.5433   19.8766 C   0  0  0  0  0  0  0  0  0  0  0  0
  -28.7976  -21.5229   18.1114 C   0  0  0  0  0  0  0  0  0  0  0  0
  -24.9059  -30.4967   24.4744 C   0  0  1  0  0  0  0  0  0  0  0  0
  -29.2150  -23.8186   19.8959 C   0  0  2  0  0  0  0  0  0  1  0  0
  -24.8434  -29.3967   20.8386 C   0  0  1  0  0  0  0  0  0  0  0  0
  -28.1875  -12.3347   19.0794 C   0  0  2  0  0  0  0  0  0  0  0  0
  -24.9068  -21.3115   18.6812 C   0  0  0  0  0  0  0  0  0  0  0  0
  -22.2847  -25.2933   15.0633 C   0  0  0  0  0  0  0  0  0  0  0  0
  -20.2909  -27.3528   20.8787 C   0  0  0  0  0  0  0  0  0  0  0  0
  -20.1409  -25.6974   19.0064 C   0  0  0  0  0  0  0  0  0  0  0  0
  -20.1563  -28.1419   18.5094 C   0  0  0  0  0  0  0  0  0  0  0  0
  -25.6559  -24.4764   16.6264 C   0  0  0  0  0  0  0  0  0  0  0  0
  -27.4201  -20.9848   20.1241 C   0  0  0  0  0  0  0  0  0  0  0  0
  -23.7131  -19.0161   17.3413 C   0  0  0  0  0  0  0  0  0  0  0  0
  -22.2879  -27.0196   19.2766 C   0  0  1  0  0  0  0  0  0  0  0  0
  -23.4574  -25.4897   16.0114 C   0  0  2  0  0  0  0  0  0  0  0  0
  -20.7416  -27.0532   19.4351 C   0  0  0  0  0  0  0  0  0  0  0  0
  -26.2322  -11.0866   19.9160 N   0  0  0  0  0  0  0  0  0  0  0  0
  -27.1303  -11.2566   18.9309 N   0  0  0  0  0  0  0  0  0  0  0  0
  -24.2376  -28.2144   20.2226 N   0  0  0  0  0  0  0  0  0  0  0  0
  -28.7264  -14.5623   19.9836 N   0  0  0  0  0  0  0  0  0  0  0  0
  -27.7823  -10.4355   16.8069 N   0  0  0  0  0  0  0  0  0  0  0  0
  -24.2283   -7.8610   17.8730 N   0  0  0  0  0  0  0  0  0  0  0  0
  -27.4590  -16.2159   18.8783 N   0  0  0  0  0  0  0  0  0  0  0  0
  -25.0480  -30.3847   23.0386 N   0  0  0  0  0  0  0  0  0  0  0  0
  -22.7436  -26.7648   17.9143 N   0  0  0  0  0  0  0  0  0  0  0  0
  -28.8014  -21.2976   19.6052 N   0  3  2  0  0  0  0  0  0  0  0  0
  -24.4403  -24.3944   15.7764 N   0  3  0  0  0  0  0  0  0  0  0  0
  -25.8328   -8.2535   16.2824 O   0  0  0  0  0  0  0  0  0  0  0  0
  -24.0200  -28.3129   22.7679 O   0  0  0  0  0  0  0  0  0  0  0  0
  -22.3195  -29.3723   19.5772 O   0  0  0  0  0  0  0  0  0  0  0  0
  -22.8857  -24.4595   18.1207 O   0  0  0  0  0  0  0  0  0  0  0  0
  -29.5928  -16.6810   19.6605 O   0  0  0  0  0  0  0  0  0  0  0  0
  -21.2043   -8.1899   22.5394 O   0  0  0  0  0  0  0  0  0  0  0  0
  -29.2653  -24.7258   21.0002 O   0  0  0  0  0  0  0  0  0  1  0  0
  -21.8519   -3.3649   25.1287 F   0  0  0  0  0  0  0  0  0  0  0  0
  -21.0218   -8.0221   25.2928 F   0  0  0  0  0  0  0  0  0  0  0  0
  -23.5183  -17.9381   16.5317 F   0  0  0  0  0  0  0  0  0  0  0  0
  1  2  1  0  0  0  0
  1  5  2  0  0  0  0
  2  6  2  0  0  0  0
  3  8  2  0  0  0  0
  3 17  1  0  0  0  0
  4  9  1  0  0  0  0
  4 17  2  0  0  0  0
  5 19  1  0  0  0  0
  6 21  1  0  0  0  0
  7 10  2  0  0  0  0
  7 20  1  0  0  0  0
  8 27  1  0  0  0  0
  9 27  2  0  0  0  0
 10 28  1  0  0  0  0
 11 12  2  0  0  0  0
 11 29  1  0  0  0  0
 12 30  1  0  0  0  0
 13 22  1  0  0  0  0
 13 28  2  0  0  0  0
 14 23  1  0  0  0  0
 14 26  2  0  0  0  0
 15 24  2  0  0  0  0
 15 26  1  0  0  0  0
 16 30  2  0  0  0  0
 16 31  1  0  0  0  0
 17 32  1  0  0  0  0
 18 32  1  0  0  0  0
 18 33  2  0  0  0  0
 18 38  1  0  0  0  0
 19 21  2  0  0  0  0
 19 43  1  0  0  0  0
 20 22  2  0  0  0  0
 20 44  1  0  0  0  0
 21 56  1  0  0  0  0
 22 45  1  0  0  0  0
 23 25  2  0  0  0  0
 23 66  1  0  0  0  0
 24 25  1  0  0  0  0
 24 67  1  0  0  0  0
 25 60  1  0  0  0  0
 26 77  1  0  0  0  0
 27 87  1  0  0  0  0
 28 88  1  0  0  0  0
 29 31  2  0  0  0  0
 29 87  1  0  0  0  0
 30 89  1  0  0  0  0
 31 90  1  0  0  0  0
 32 71  2  0  0  0  0
 33 72  1  0  0  0  0
 33 75  1  0  0  0  0
 34 36  2  0  0  0  0
 34 57  1  0  0  0  0
 34 80  1  0  0  0  0
 35 37  2  0  0  0  0
 36 37  1  0  0  0  0
 38 76  1  0  0  0  0
 38 82  2  0  0  0  0
 39 58  1  0  0  0  0
 39 78  1  0  0  0  0
 39 83  2  0  0  0  0
 40 68  1  0  0  0  0
 40 73  1  0  0  0  0
 40 84  2  0  0  0  0
 41 69  1  0  0  0  0
 41 79  1  0  0  0  0
 41 85  2  0  0  0  0
 42 74  1  0  0  0  0
 42 77  1  0  0  0  0
 42 86  2  0  0  0  0
 43 46  1  0  0  0  0
 44 58  1  0  0  0  0
 45 73  1  0  0  0  0
 46 50  1  0  0  0  0
 47 49  1  0  0  0  0
 47 51  1  0  0  0  0
 48 52  1  0  0  0  0
 48 53  1  0  0  0  0
 49 55  1  0  0  0  0
 50 56  1  0  0  0  0
 51 57  1  0  0  0  0
 52 59  1  0  0  0  0
 53 74  1  0  0  0  0
 54 59  1  0  0  0  0
 54 74  1  0  0  0  0
 55 80  1  0  0  0  0
 56 78  1  0  0  0  0
 57 88  1  0  0  0  0
 58 73  1  0  0  0  0
 59 72  1  0  0  0  0
 61 69  1  0  0  0  0
 62 70  1  0  0  0  0
 63 70  1  0  0  0  0
 64 70  1  0  0  0  0
 65 81  1  0  0  0  0
 66 80  1  0  0  0  0
 67 91  1  0  0  0  0
 68 70  1  0  0  0  0
 68 79  1  0  0  0  0
 69 81  1  0  0  0  0
 71 72  1  0  0  0  0
M  CHG  2  80   1  81   1
M  ISO  4  42 100  57 101  77 100  88 101
M  END
> <Batch ID>
0044

> <Smiles>
C=CC=C1N(Cc2cc([100NH:0][100C:0](=O)N3CCCC(n4nc(-c5ccc(Oc6ccc(F)cc6F)cc5)c(C(N)=O)c4N)C3)cc(CF)c2C)CCCC[101CH:1]1[101O:1]c1ccc2c(c1)CN(C(=O)C(NC(=O)C(C)NC)C(C)(C)C)C(C(=O)NC1CCCc3ccccc31)C2

> <Shape>
0.318

> <Color>
0.078

> <Negative vol penalty>
0.000

$$$$

  -OEChem-04042322183D

 87 96  0     1  0  0  0  0  0999 V2000
  -21.1148  -37.4109   19.9274 C   0  0  0  0  0  0  0  0  0  0  0  0
  -21.3125  -36.3632   19.0338 C   0  0  0  0  0  0  0  0  0  0  0  0
  -22.7314  -10.4442   20.3289 C   0  0  0  0  0  0  0  0  0  0  0  0
  -24.5709   -8.9466   20.7875 C   0  0  0  0  0  0  0  0  0  0  0  0
  -22.0033  -37.6006   20.9850 C   0  0  0  0  0  0  0  0  0  0  0  0
  -22.3996  -35.5052   19.1966 C   0  0  0  0  0  0  0  0  0  0  0  0
  -24.3161  -28.6733   18.2122 C   0  0  0  0  0  0  0  0  0  0  0  0
  -28.4402  -20.8894   20.5313 C   0  0  0  0  0  0  0  0  0  0  0  0
  -28.6396  -19.5275   20.7573 C   0  0  0  0  0  0  0  0  0  0  0  0
  -21.8337   -9.4853   20.7981 C   0  0  0  0  0  0  0  0  0  0  0  0
  -23.6732   -7.9876   21.2567 C   0  0  0  0  0  0  0  0  0  0  0  0
  -25.3171  -27.9113   17.6112 C   0  0  0  0  0  0  0  0  0  0  0  0
  -21.9068   -7.4007   24.0774 C   0  0  0  0  0  0  0  0  0  0  0  0
  -22.2238   -6.7457   25.2673 C   0  0  0  0  0  0  0  0  0  0  0  0
  -26.7419  -28.2877   19.5210 C   0  0  0  0  0  0  0  0  0  0  0  0
  -22.2131   -4.6280   24.1046 C   0  0  0  0  0  0  0  0  0  0  0  0
  -24.1000  -10.1748   20.3236 C   0  0  0  0  0  0  0  0  0  0  0  0
  -25.0722  -11.7288   18.5494 C   0  0  0  0  0  0  0  0  0  0  0  0
  -23.0964  -36.7387   21.1665 C   0  0  0  0  0  0  0  0  0  0  0  0
  -24.5249  -29.2582   19.4695 C   0  0  0  0  0  0  0  0  0  0  0  0
  -23.3044  -35.6844   20.2568 C   0  0  0  0  0  0  0  0  0  0  0  0
  -25.7410  -29.0545   20.1370 C   0  0  0  0  0  0  0  0  0  0  0  0
  -27.6698  -21.3111   19.4477 C   0  0  0  0  0  0  0  0  0  0  0  0
  -27.0989  -20.3709   18.5899 C   0  0  0  0  0  0  0  0  0  0  0  0
  -28.0687  -18.5873   19.8996 C   0  0  0  0  0  0  0  0  0  0  0  0
  -22.3045   -8.2570   21.2620 C   0  0  0  0  0  0  0  0  0  0  0  0
  -26.5313  -27.7208   18.2643 C   0  0  0  0  0  0  0  0  0  0  0  0
  -21.7428   -6.6693   22.9009 C   0  0  0  0  0  0  0  0  0  0  0  0
  -22.3770   -5.3594   25.2810 C   0  0  0  0  0  0  0  0  0  0  0  0
  -21.8960   -5.2830   22.9145 C   0  0  0  0  0  0  0  0  0  0  0  0
  -27.2983  -19.0090   18.8159 C   0  0  0  0  0  0  0  0  0  0  0  0
  -25.0278  -11.1648   19.8385 C   0  0  0  0  0  0  0  0  0  0  0  0
  -26.1255  -12.6091   18.5959 C   0  0  0  0  0  0  0  0  0  0  0  0
  -27.7197  -24.5556   17.5861 C   0  0  0  0  0  0  0  0  0  0  0  0
  -27.0411  -24.4875   16.4288 C   0  0  0  0  0  0  0  0  0  0  0  0
  -24.2362  -11.4793   17.4117 C   0  0  0  0  0  0  0  0  0  0  0  0
  -24.6003  -32.2385   20.5722 C   0  0  0  0  0  0  0  0  0  0  0  0
  -24.8524  -30.7547   23.4458 C   0  0  0  0  0  0  0  0  0  0  0  0
  -26.6238  -27.9172   24.7978 C   0  0  0  0  0  0  0  0  0  0  0  0
  -29.0108  -16.6210   21.1615 C   0  0  0  0  0  0  0  0  0  0  0  0
  -24.0565  -37.0121   22.2970 C   0  0  0  0  0  0  0  0  0  0  0  0
  -23.4252  -30.0552   20.1161 C   0  0  0  0  0  0  0  0  0  0  0  0
  -26.0076  -29.6441   21.4970 C   0  0  0  0  0  0  0  0  0  0  0  0
  -24.9716  -35.8330   22.6175 C   0  0  0  0  0  0  0  0  0  0  0  0
  -29.7221  -13.2602   22.0977 C   0  0  0  0  0  0  0  0  0  0  0  0
  -30.0155  -24.6954   19.2976 C   0  0  0  0  0  0  0  0  0  0  0  0
  -25.5609  -35.2510   21.3366 C   0  0  0  0  0  0  0  0  0  0  0  0
  -29.4374  -25.9756   18.7049 C   0  0  0  0  0  0  0  0  0  0  0  0
  -28.5679  -12.4619   21.4873 C   0  0  0  0  0  0  0  0  0  0  0  0
  -29.2592  -14.6210   22.6152 C   0  0  0  0  0  0  0  0  0  0  0  0
  -27.3737  -14.6417   21.0298 C   0  0  0  0  0  0  0  0  0  0  0  0
  -29.7555  -23.4956   18.3926 C   0  0  0  0  0  0  0  0  0  0  0  0
  -24.4578  -34.7175   20.4145 C   0  0  1  0  0  0  0  0  0  0  0  0
  -27.9521  -25.8206   18.3815 C   0  0  1  0  0  0  0  0  0  1  0  0
  -23.9359  -31.0313   21.1714 C   0  0  1  0  0  0  0  0  0  0  0  0
  -27.8036  -13.2903   20.4360 C   0  0  2  0  0  0  0  0  0  0  0  0
  -26.2705  -20.8030   17.4245 C   0  0  0  0  0  0  0  0  0  0  0  0
  -26.0666  -26.4153   26.7294 C   0  0  0  0  0  0  0  0  0  0  0  0
  -26.6138  -32.6554   25.0567 C   0  0  0  0  0  0  0  0  0  0  0  0
  -27.4848  -30.6723   26.3125 C   0  0  0  0  0  0  0  0  0  0  0  0
  -25.0621  -31.2548   26.4298 C   0  0  0  0  0  0  0  0  0  0  0  0
  -26.7929  -25.4916   23.1106 C   0  0  0  0  0  0  0  0  0  0  0  0
  -27.4699  -22.7813   19.2252 C   0  0  0  0  0  0  0  0  0  0  0  0
  -25.9973  -30.2653   24.2994 C   0  0  1  0  0  0  0  0  0  0  0  0
  -26.0239  -26.5879   25.2191 C   0  0  2  0  0  0  0  0  0  0  0  0
  -26.2915  -31.2132   25.4963 C   0  0  0  0  0  0  0  0  0  0  0  0
  -25.9774  -11.6462   20.6450 N   0  0  0  0  0  0  0  0  0  0  0  0
  -26.6285  -12.5220   19.8606 N   0  0  0  0  0  0  0  0  0  0  0  0
  -24.9036  -30.4207   22.0850 N   0  0  0  0  0  0  0  0  0  0  0  0
  -28.5470  -15.3507   21.5640 N   0  0  0  0  0  0  0  0  0  0  0  0
  -26.6612  -13.4414   17.6779 N   0  0  0  0  0  0  0  0  0  0  0  0
  -24.6105  -10.4682   16.5163 N   0  0  0  0  0  0  0  0  0  0  0  0
  -28.2733  -17.2046   20.1319 N   0  0  0  0  0  0  0  0  0  0  0  0
  -23.9824  -33.4342   20.8852 N   0  0  0  0  0  0  0  0  0  0  0  0
  -25.6623  -28.8994   24.6873 N   0  0  0  0  0  0  0  0  0  0  0  0
  -28.2865  -23.3210   18.0833 N   0  3  1  0  0  0  0  0  0  0  0  0
  -26.7734  -25.4606   24.5958 N   0  3  0  0  0  0  0  0  0  0  0  0
  -23.1969  -12.1447   17.1867 O   0  0  0  0  0  0  0  0  0  0  0  0
  -25.6004  -32.0958   19.8786 O   0  0  0  0  0  0  0  0  0  0  0  0
  -23.9425  -31.4033   23.9684 O   0  0  0  0  0  0  0  0  0  0  0  0
  -27.8257  -28.0700   24.5913 O   0  0  0  0  0  0  0  0  0  0  0  0
  -30.0065  -17.1401   21.6725 O   0  0  0  0  0  0  0  0  0  0  0  0
  -21.4289   -7.3211   21.7202 O   0  0  0  0  0  0  0  0  0  0  0  0
  -27.5102  -26.9781   17.6796 O   0  0  0  0  0  0  0  0  0  1  0  0
  -22.6830   -4.7307   26.4235 F   0  0  0  0  0  0  0  0  0  0  0  0
  -21.7410   -4.5751   21.7873 F   0  0  0  0  0  0  0  0  0  0  0  0
  -26.7488  -18.1055   17.9901 F   0  0  0  0  0  0  0  0  0  0  0  0
  1  2  1  0  0  0  0
  1  5  2  0  0  0  0
  2  6  2  0  0  0  0
  3 10  2  0  0  0  0
  3 17  1  0  0  0  0
  4 11  1  0  0  0  0
  4 17  2  0  0  0  0
  5 19  1  0  0  0  0
  6 21  1  0  0  0  0
  7 12  2  0  0  0  0
  7 20  1  0  0  0  0
  8  9  2  0  0  0  0
  8 23  1  0  0  0  0
  9 25  1  0  0  0  0
 10 26  1  0  0  0  0
 11 26  2  0  0  0  0
 12 27  1  0  0  0  0
 13 14  2  0  0  0  0
 13 28  1  0  0  0  0
 14 29  1  0  0  0  0
 15 22  1  0  0  0  0
 15 27  2  0  0  0  0
 16 29  2  0  0  0  0
 16 30  1  0  0  0  0
 17 32  1  0  0  0  0
 18 32  1  0  0  0  0
 18 33  2  0  0  0  0
 18 36  1  0  0  0  0
 19 21  2  0  0  0  0
 19 41  1  0  0  0  0
 20 22  2  0  0  0  0
 20 42  1  0  0  0  0
 21 53  1  0  0  0  0
 22 43  1  0  0  0  0
 23 24  2  0  0  0  0
 23 63  1  0  0  0  0
 24 31  1  0  0  0  0
 24 57  1  0  0  0  0
 25 31  2  0  0  0  0
 25 73  1  0  0  0  0
 26 83  1  0  0  0  0
 27 84  1  0  0  0  0
 28 30  2  0  0  0  0
 28 83  1  0  0  0  0
 29 85  1  0  0  0  0
 30 86  1  0  0  0  0
 31 87  1  0  0  0  0
 32 67  2  0  0  0  0
 33 68  1  0  0  0  0
 33 71  1  0  0  0  0
 34 35  2  0  0  0  0
 34 54  1  0  0  0  0
 34 76  1  0  0  0  0
 36 72  1  0  0  0  0
 36 78  2  0  0  0  0
 37 55  1  0  0  0  0
 37 74  1  0  0  0  0
 37 79  2  0  0  0  0
 38 64  1  0  0  0  0
 38 69  1  0  0  0  0
 38 80  2  0  0  0  0
 39 65  1  0  0  0  0
 39 75  1  0  0  0  0
 39 81  2  0  0  0  0
 40 70  1  0  0  0  0
 40 73  1  0  0  0  0
 40 82  2  0  0  0  0
 41 44  1  0  0  0  0
 42 55  1  0  0  0  0
 43 69  1  0  0  0  0
 44 47  1  0  0  0  0
 45 49  1  0  0  0  0
 45 50  1  0  0  0  0
 46 48  1  0  0  0  0
 46 52  1  0  0  0  0
 47 53  1  0  0  0  0
 48 54  1  0  0  0  0
 49 56  1  0  0  0  0
 50 70  1  0  0  0  0
 51 56  1  0  0  0  0
 51 70  1  0  0  0  0
 52 76  1  0  0  0  0
 53 74  1  0  0  0  0
 54 84  1  0  0  0  0
 55 69  1  0  0  0  0
 56 68  1  0  0  0  0
 58 65  1  0  0  0  0
 59 66  1  0  0  0  0
 60 66  1  0  0  0  0
 61 66  1  0  0  0  0
 62 77  1  0  0  0  0
 63 76  1  0  0  0  0
 64 66  1  0  0  0  0
 64 75  1  0  0  0  0
 65 77  1  0  0  0  0
 67 68  1  0  0  0  0
M  CHG  2  76   1  77   1
M  ISO  4  40 100  54 101  73 100  84 101
M  END
> <Batch ID>
0044

> <Smiles>
C=C1N(Cc2ccc([100NH:0][100C:0](=O)N3CCCC(n4nc(-c5ccc(Oc6ccc(F)cc6F)cc5)c(C(N)=O)c4N)C3)c(F)c2C)CCC[101CH:1]1[101O:1]c1ccc2c(c1)CN(C(=O)C(NC(=O)C(C)NC)C(C)(C)C)C(C(=O)NC1CCCc3ccccc31)C2

> <Shape>
0.305

> <Color>
0.104

> <Negative vol penalty>
0.000

$$$$

  -OEChem-04042322183D

 86 95  0     1  0  0  0  0  0999 V2000
  -17.1353  -26.7268   20.5766 C   0  0  0  0  0  0  0  0  0  0  0  0
  -18.4302  -26.2202   20.5314 C   0  0  0  0  0  0  0  0  0  0  0  0
  -22.7610  -10.7122   21.4735 C   0  0  0  0  0  0  0  0  0  0  0  0
  -24.4956   -9.0322   21.5506 C   0  0  0  0  0  0  0  0  0  0  0  0
  -16.9292  -28.1018   20.6800 C   0  0  0  0  0  0  0  0  0  0  0  0
  -19.5198  -27.0885   20.5886 C   0  0  0  0  0  0  0  0  0  0  0  0
  -23.1318  -25.4679   23.7465 C   0  0  0  0  0  0  0  0  0  0  0  0
  -27.5530  -18.8514   23.0999 C   0  0  0  0  0  0  0  0  0  0  0  0
  -27.5370  -17.7542   22.2388 C   0  0  0  0  0  0  0  0  0  0  0  0
  -22.0330  -10.0044   22.4299 C   0  0  0  0  0  0  0  0  0  0  0  0
  -23.7676   -8.3244   22.5069 C   0  0  0  0  0  0  0  0  0  0  0  0
  -23.9723  -24.4551   23.2864 C   0  0  0  0  0  0  0  0  0  0  0  0
  -21.1140   -6.2304   22.5706 C   0  0  0  0  0  0  0  0  0  0  0  0
  -20.9991   -4.8500   22.4067 C   0  0  0  0  0  0  0  0  0  0  0  0
  -25.6659  -26.0975   22.7830 C   0  0  0  0  0  0  0  0  0  0  0  0
  -29.9265  -17.5130   22.5017 C   0  0  0  0  0  0  0  0  0  0  0  0
  -22.0835   -4.5066   24.5382 C   0  0  0  0  0  0  0  0  0  0  0  0
  -23.9923  -10.2261   21.0338 C   0  0  0  0  0  0  0  0  0  0  0  0
  -24.3380  -11.2828   18.7379 C   0  0  0  0  0  0  0  0  0  0  0  0
  -18.0169  -28.9867   20.7482 C   0  0  0  0  0  0  0  0  0  0  0  0
  -23.5486  -26.8065   23.7180 C   0  0  0  0  0  0  0  0  0  0  0  0
  -19.3280  -28.4768   20.6917 C   0  0  0  0  0  0  0  0  0  0  0  0
  -24.8298  -27.1251   23.2456 C   0  0  0  0  0  0  0  0  0  0  0  0
  -28.7558  -19.2795   23.6618 C   0  0  0  0  0  0  0  0  0  0  0  0
  -28.7237  -17.0850   21.9397 C   0  0  0  0  0  0  0  0  0  0  0  0
  -22.5363   -8.8105   22.9466 C   0  0  0  0  0  0  0  0  0  0  0  0
  -25.2384  -24.7701   22.8019 C   0  0  0  0  0  0  0  0  0  0  0  0
  -21.7137   -6.7489   23.7183 C   0  0  0  0  0  0  0  0  0  0  0  0
  -21.4838   -3.9881   23.3905 C   0  0  0  0  0  0  0  0  0  0  0  0
  -29.9425  -18.6103   23.3628 C   0  0  0  0  0  0  0  0  0  0  0  0
  -22.1984   -5.8871   24.7021 C   0  0  0  0  0  0  0  0  0  0  0  0
  -24.7446  -10.9565   20.0456 C   0  0  0  0  0  0  0  0  0  0  0  0
  -25.4008  -11.9748   18.2105 C   0  0  0  0  0  0  0  0  0  0  0  0
  -27.3568  -22.2621   23.6779 C   0  0  0  0  0  0  0  0  0  0  0  0
  -23.1095  -10.9870   18.0605 C   0  0  0  0  0  0  0  0  0  0  0  0
  -22.5292  -29.4429   22.2640 C   0  0  0  0  0  0  0  0  0  0  0  0
  -24.8174  -30.8587   24.0756 C   0  0  0  0  0  0  0  0  0  0  0  0
  -28.2057  -30.1312   25.0796 C   0  0  0  0  0  0  0  0  0  0  0  0
  -29.7955  -15.1965   20.6625 C   0  0  0  0  0  0  0  0  0  0  0  0
  -17.7441  -30.4687   20.8119 C   0  0  0  0  0  0  0  0  0  0  0  0
  -22.6403  -27.8845   24.2427 C   0  0  0  0  0  0  0  0  0  0  0  0
  -25.3326  -28.5445   23.2127 C   0  0  0  0  0  0  0  0  0  0  0  0
  -18.9541  -31.2926   21.2447 C   0  0  0  0  0  0  0  0  0  0  0  0
  -29.7514  -23.6226   22.6768 C   0  0  0  0  0  0  0  0  0  0  0  0
  -30.1627  -12.3534   18.5508 C   0  0  0  0  0  0  0  0  0  0  0  0
  -20.2001  -30.8520   20.4830 C   0  0  0  0  0  0  0  0  0  0  0  0
  -28.4157  -23.8554   22.0020 C   0  0  0  0  0  0  0  0  0  0  0  0
  -28.7763  -11.7057   18.5706 C   0  0  0  0  0  0  0  0  0  0  0  0
  -29.8279  -22.1914   23.1774 C   0  0  0  0  0  0  0  0  0  0  0  0
  -30.5315  -12.9455   19.9099 C   0  0  0  0  0  0  0  0  0  0  0  0
  -28.1541  -13.2235   20.4932 C   0  0  0  0  0  0  0  0  0  0  0  0
  -20.5358  -29.3847   20.7761 C   0  0  1  0  0  0  0  0  0  0  0  0
  -27.3067  -23.6309   23.0109 C   0  0  1  0  0  0  0  0  0  1  0  0
  -22.9718  -29.2669   23.6891 C   0  0  1  0  0  0  0  0  0  0  0  0
  -27.7115  -12.6702   19.1288 C   0  0  2  0  0  0  0  0  0  0  0  0
  -29.4939  -30.8442   27.1117 C   0  0  0  0  0  0  0  0  0  0  0  0
  -25.8049  -33.1317   22.2956 C   0  0  0  0  0  0  0  0  0  0  0  0
  -28.0545  -32.9028   23.3703 C   0  0  0  0  0  0  0  0  0  0  0  0
  -26.0742  -33.5355   24.7489 C   0  0  0  0  0  0  0  0  0  0  0  0
  -28.8363  -27.3320   25.8047 C   0  0  0  0  0  0  0  0  0  0  0  0
  -28.7682  -20.4598   24.5897 C   0  0  0  0  0  0  0  0  0  0  0  0
  -26.2850  -31.1644   23.8972 C   0  0  1  0  0  0  0  0  0  0  0  0
  -28.6772  -29.7351   26.4671 C   0  0  2  0  0  0  0  0  0  0  0  0
  -26.5424  -32.6613   23.5652 C   0  0  0  0  0  0  0  0  0  0  0  0
  -25.9701  -11.4042   20.3314 N   0  0  0  0  0  0  0  0  0  0  0  0
  -26.3428  -12.0189   19.1958 N   0  0  0  0  0  0  0  0  0  0  0  0
  -28.6285  -21.7194   23.8714 N   0  0  0  0  0  0  0  0  0  0  0  0
  -24.4051  -29.5637   23.7308 N   0  0  0  0  0  0  0  0  0  0  0  0
  -29.4789  -13.8523   20.3734 N   0  0  0  0  0  0  0  0  0  0  0  0
  -25.6122  -12.5437   17.0046 N   0  0  0  0  0  0  0  0  0  0  0  0
  -22.1235  -10.2671   18.7489 N   0  0  0  0  0  0  0  0  0  0  0  0
  -28.7078  -15.9716   21.0635 N   0  0  0  0  0  0  0  0  0  0  0  0
  -21.1733  -29.2607   22.0695 N   0  0  0  0  0  0  0  0  0  0  0  0
  -26.9493  -30.6985   25.1097 N   0  0  0  0  0  0  0  0  0  0  0  0
  -29.5220  -28.5094   26.3968 N   0  3  0  0  0  0  0  0  0  0  0  0
  -26.3144  -21.7306   24.0691 O   0  0  0  0  0  0  0  0  0  0  0  0
  -22.8990  -11.3359   16.8741 O   0  0  0  0  0  0  0  0  0  0  0  0
  -23.3563  -29.7246   21.4049 O   0  0  0  0  0  0  0  0  0  0  0  0
  -24.0660  -31.7343   24.5117 O   0  0  0  0  0  0  0  0  0  0  0  0
  -28.8856  -29.9583   24.0704 O   0  0  0  0  0  0  0  0  0  0  0  0
  -30.9416  -15.6350   20.5356 O   0  0  0  0  0  0  0  0  0  0  0  0
  -21.8263   -8.1197   23.8800 O   0  0  0  0  0  0  0  0  0  0  0  0
  -26.0605  -23.7835   22.3517 O   0  0  0  0  0  0  0  0  0  1  0  0
  -21.3720   -2.6626   23.2337 F   0  0  0  0  0  0  0  0  0  0  0  0
  -31.1031  -19.0141   23.8979 F   0  0  0  0  0  0  0  0  0  0  0  0
  -22.7744   -6.3794   25.8074 F   0  0  0  0  0  0  0  0  0  0  0  0
  1  2  1  0  0  0  0
  1  5  2  0  0  0  0
  2  6  2  0  0  0  0
  3 10  2  0  0  0  0
  3 18  1  0  0  0  0
  4 11  1  0  0  0  0
  4 18  2  0  0  0  0
  5 20  1  0  0  0  0
  6 22  1  0  0  0  0
  7 12  2  0  0  0  0
  7 21  1  0  0  0  0
  8  9  2  0  0  0  0
  8 24  1  0  0  0  0
  9 25  1  0  0  0  0
 10 26  1  0  0  0  0
 11 26  2  0  0  0  0
 12 27  1  0  0  0  0
 13 14  2  0  0  0  0
 13 28  1  0  0  0  0
 14 29  1  0  0  0  0
 15 23  1  0  0  0  0
 15 27  2  0  0  0  0
 16 25  2  0  0  0  0
 16 30  1  0  0  0  0
 17 29  2  0  0  0  0
 17 31  1  0  0  0  0
 18 32  1  0  0  0  0
 19 32  1  0  0  0  0
 19 33  2  0  0  0  0
 19 35  1  0  0  0  0
 20 22  2  0  0  0  0
 20 40  1  0  0  0  0
 21 23  2  0  0  0  0
 21 41  1  0  0  0  0
 22 52  1  0  0  0  0
 23 42  1  0  0  0  0
 24 30  2  0  0  0  0
 24 61  1  0  0  0  0
 25 72  1  0  0  0  0
 26 82  1  0  0  0  0
 27 83  1  0  0  0  0
 28 31  2  0  0  0  0
 28 82  1  0  0  0  0
 29 84  1  0  0  0  0
 30 85  1  0  0  0  0
 31 86  1  0  0  0  0
 32 65  2  0  0  0  0
 33 66  1  0  0  0  0
 33 70  1  0  0  0  0
 34 53  1  0  0  0  0
 34 67  1  0  0  0  0
 34 76  2  0  0  0  0
 35 71  1  0  0  0  0
 35 77  2  0  0  0  0
 36 54  1  0  0  0  0
 36 73  1  0  0  0  0
 36 78  2  0  0  0  0
 37 62  1  0  0  0  0
 37 68  1  0  0  0  0
 37 79  2  0  0  0  0
 38 63  1  0  0  0  0
 38 74  1  0  0  0  0
 38 80  2  0  0  0  0
 39 69  1  0  0  0  0
 39 72  1  0  0  0  0
 39 81  2  0  0  0  0
 40 43  1  0  0  0  0
 41 54  1  0  0  0  0
 42 68  1  0  0  0  0
 43 46  1  0  0  0  0
 44 47  1  0  0  0  0
 44 49  1  0  0  0  0
 45 48  1  0  0  0  0
 45 50  1  0  0  0  0
 46 52  1  0  0  0  0
 47 53  1  0  0  0  0
 48 55  1  0  0  0  0
 49 67  1  0  0  0  0
 50 69  1  0  0  0  0
 51 55  1  0  0  0  0
 51 69  1  0  0  0  0
 52 73  1  0  0  0  0
 53 83  1  0  0  0  0
 54 68  1  0  0  0  0
 55 66  1  0  0  0  0
 56 63  1  0  0  0  0
 57 64  1  0  0  0  0
 58 64  1  0  0  0  0
 59 64  1  0  0  0  0
 60 75  1  0  0  0  0
 61 67  1  0  0  0  0
 62 64  1  0  0  0  0
 62 74  1  0  0  0  0
 63 75  1  0  0  0  0
 65 66  1  0  0  0  0
M  CHG  1  75   1
M  ISO  4  39 100  53 101  72 100  83 101
M  END
> <Batch ID>
0044

> <Smiles>
CNC(C)C(=O)NC(C(=O)N1Cc2cc([101O:1][101CH:1]3CCCN(Cc4ccc([100NH:0][100C:0](=O)N5CCCC(n6nc(-c7ccc(Oc8ccc(F)cc8F)cc7)c(C(N)=O)c6N)C5)cc4F)C3=O)ccc2CC1C(=O)NC1CCCc2ccccc21)C(C)(C)C

> <Shape>
0.250

> <Color>
0.093

> <Negative vol penalty>
0.000

$$$$

  -OEChem-04042322183D

 82 90  0     1  0  0  0  0  0999 V2000
  -24.2483  -35.8179   15.8978 C   0  0  0  0  0  0  0  0  0  0  0  0
  -24.5879  -34.4708   15.8239 C   0  0  0  0  0  0  0  0  0  0  0  0
  -25.9058  -12.1874   21.2405 C   0  0  0  0  0  0  0  0  0  0  0  0
  -25.8514  -13.8134   19.4544 C   0  0  0  0  0  0  0  0  0  0  0  0
  -24.5101  -36.5388   17.0621 C   0  0  0  0  0  0  0  0  0  0  0  0
  -25.1905  -33.8441   16.9141 C   0  0  0  0  0  0  0  0  0  0  0  0
  -24.4151  -28.0427   18.7164 C   0  0  0  0  0  0  0  0  0  0  0  0
  -32.0137  -22.0441   20.7628 C   0  0  0  0  0  0  0  0  0  0  0  0
  -31.1004  -21.2718   18.6637 C   0  0  0  0  0  0  0  0  0  0  0  0
  -32.0877  -20.7268   21.2153 C   0  0  0  0  0  0  0  0  0  0  0  0
  -31.1744  -19.9544   19.1161 C   0  0  0  0  0  0  0  0  0  0  0  0
  -24.5119  -12.1387   21.2387 C   0  0  0  0  0  0  0  0  0  0  0  0
  -24.4574  -13.7647   19.4525 C   0  0  0  0  0  0  0  0  0  0  0  0
  -25.1707  -26.8887   18.5140 C   0  0  0  0  0  0  0  0  0  0  0  0
  -22.0723  -10.6967   19.3942 C   0  0  0  0  0  0  0  0  0  0  0  0
  -21.4675   -9.4410   19.4487 C   0  0  0  0  0  0  0  0  0  0  0  0
  -26.2373  -27.2192   20.6523 C   0  0  0  0  0  0  0  0  0  0  0  0
  -20.3715  -10.0584   21.5115 C   0  0  0  0  0  0  0  0  0  0  0  0
  -26.5756  -13.0248   20.3484 C   0  0  0  0  0  0  0  0  0  0  0  0
  -28.8956  -12.2771   19.5959 C   0  0  0  0  0  0  0  0  0  0  0  0
  -25.1074  -35.9182   18.1706 C   0  0  0  0  0  0  0  0  0  0  0  0
  -24.5730  -28.8010   19.8854 C   0  0  0  0  0  0  0  0  0  0  0  0
  -25.4618  -34.5577   18.0939 C   0  0  0  0  0  0  0  0  0  0  0  0
  -25.4807  -28.3811   20.8683 C   0  0  0  0  0  0  0  0  0  0  0  0
  -31.5200  -22.3166   19.4870 C   0  0  0  0  0  0  0  0  0  0  0  0
  -31.6681  -19.6819   20.3920 C   0  0  0  0  0  0  0  0  0  0  0  0
  -23.7876  -12.9273   20.3446 C   0  0  0  0  0  0  0  0  0  0  0  0
  -26.0841  -26.4783   19.4807 C   0  0  0  0  0  0  0  0  0  0  0  0
  -21.8268  -11.6333   20.3983 C   0  0  0  0  0  0  0  0  0  0  0  0
  -20.6171   -9.1219   20.5073 C   0  0  0  0  0  0  0  0  0  0  0  0
  -20.9764  -11.3142   21.4569 C   0  0  0  0  0  0  0  0  0  0  0  0
  -28.0156  -13.0760   20.3503 C   0  0  0  0  0  0  0  0  0  0  0  0
  -30.1478  -12.7134   19.9538 C   0  0  0  0  0  0  0  0  0  0  0  0
  -28.6070  -11.2339   18.6556 C   0  0  0  0  0  0  0  0  0  0  0  0
  -25.5013  -31.7735   20.5227 C   0  0  0  0  0  0  0  0  0  0  0  0
  -24.6417  -30.9782   23.5478 C   0  0  0  0  0  0  0  0  0  0  0  0
  -29.0708  -24.4887   19.0472 C   0  0  0  0  0  0  0  0  0  0  0  0
  -24.1166  -28.5237   25.8600 C   0  0  0  0  0  0  0  0  0  0  0  0
  -32.2078  -17.9001   22.0891 C   0  0  0  0  0  0  0  0  0  0  0  0
  -25.4140  -36.7502   19.3906 C   0  0  0  0  0  0  0  0  0  0  0  0
  -23.7312  -30.0287   20.1007 C   0  0  0  0  0  0  0  0  0  0  0  0
  -25.6732  -29.1487   22.1498 C   0  0  0  0  0  0  0  0  0  0  0  0
  -25.7136  -35.9188   20.6353 C   0  0  0  0  0  0  0  0  0  0  0  0
  -32.5187  -14.6966   23.6117 C   0  0  0  0  0  0  0  0  0  0  0  0
  -26.6891  -34.7940   20.3037 C   0  0  0  0  0  0  0  0  0  0  0  0
  -31.4836  -13.8432   22.8753 C   0  0  0  0  0  0  0  0  0  0  0  0
  -32.0278  -16.1279   23.8217 C   0  0  0  0  0  0  0  0  0  0  0  0
  -30.5350  -15.9587   21.8692 C   0  0  0  0  0  0  0  0  0  0  0  0
  -26.0942  -33.8363   19.2642 C   0  0  1  0  0  0  0  0  0  0  0  0
  -24.3445  -31.0065   21.0982 C   0  0  1  0  0  0  0  0  0  0  0  0
  -31.0109  -14.5263   21.5770 C   0  0  2  0  0  0  0  0  0  0  0  0
  -23.4558  -28.1841   28.2570 C   0  0  0  0  0  0  0  0  0  0  0  0
  -27.4224  -31.8648   24.4374 C   0  0  0  0  0  0  0  0  0  0  0  0
  -27.0469  -30.6434   26.5904 C   0  0  0  0  0  0  0  0  0  0  0  0
  -25.5684  -32.5537   25.9680 C   0  0  0  0  0  0  0  0  0  0  0  0
  -21.7249  -26.9551   25.0995 C   0  0  0  0  0  0  0  0  0  0  0  0
  -31.4403  -23.7346   19.0000 C   0  0  0  0  0  0  0  0  0  0  0  0
  -28.1174  -25.3131   19.8856 C   0  0  0  0  0  0  0  0  0  1  0  0
  -25.3454  -30.3597   24.7315 C   0  0  1  0  0  0  0  0  0  0  0  0
  -22.9673  -28.2729   26.8195 C   0  0  2  0  0  0  0  0  0  0  0  0
  -26.3438  -31.3418   25.4069 C   0  0  0  0  0  0  0  0  0  0  0  0
  -28.6546  -13.9533   21.1288 N   0  0  0  0  0  0  0  0  0  0  0  0
  -29.9494  -13.7082   20.8656 N   0  0  0  0  0  0  0  0  0  0  0  0
  -24.8313  -30.3457   22.3109 N   0  0  0  0  0  0  0  0  0  0  0  0
  -31.6006  -16.7123   22.5486 N   0  0  0  0  0  0  0  0  0  0  0  0
  -31.3882  -12.3393   19.5745 N   0  0  0  0  0  0  0  0  0  0  0  0
  -27.2660  -10.9126   18.4050 N   0  0  0  0  0  0  0  0  0  0  0  0
  -31.7434  -18.3436   20.8513 N   0  0  0  0  0  0  0  0  0  0  0  0
  -25.1386  -32.9452   19.8864 N   0  0  0  0  0  0  0  0  0  0  0  0
  -30.3404  -24.4520   19.6021 N   0  0  0  0  0  0  0  0  0  0  0  0
  -24.2966  -29.8694   25.6193 N   0  0  0  0  0  0  0  0  0  0  0  0
  -22.2765  -26.9973   26.4783 N   0  3  0  0  0  0  0  0  0  0  0  0
  -29.5118  -10.5942   18.0678 O   0  0  0  0  0  0  0  0  0  0  0  0
  -26.6389  -31.3354   20.6481 O   0  0  0  0  0  0  0  0  0  0  0  0
  -23.9436  -31.9812   23.7156 O   0  0  0  0  0  0  0  0  0  0  0  0
  -28.7302  -23.9336   18.0061 O   0  0  0  0  0  0  0  0  0  0  0  0
  -24.7898  -27.6167   25.3755 O   0  0  0  0  0  0  0  0  0  0  0  0
  -33.0951  -18.4663   22.7327 O   0  0  0  0  0  0  0  0  0  0  0  0
  -22.4274  -12.8798   20.3423 O   0  0  0  0  0  0  0  0  0  0  0  0
  -26.8233  -25.3526   19.2854 O   0  0  0  0  0  0  0  0  0  1  0  0
  -20.0351   -7.9165   20.5588 F   0  0  0  0  0  0  0  0  0  0  0  0
  -20.7358  -12.2102   22.4239 F   0  0  0  0  0  0  0  0  0  0  0  0
  1  2  1  0  0  0  0
  1  5  2  0  0  0  0
  2  6  2  0  0  0  0
  3 12  2  0  0  0  0
  3 19  1  0  0  0  0
  4 13  1  0  0  0  0
  4 19  2  0  0  0  0
  5 21  1  0  0  0  0
  6 23  1  0  0  0  0
  7 14  2  0  0  0  0
  7 22  1  0  0  0  0
  8 10  2  0  0  0  0
  8 25  1  0  0  0  0
  9 11  1  0  0  0  0
  9 25  2  0  0  0  0
 10 26  1  0  0  0  0
 11 26  2  0  0  0  0
 12 27  1  0  0  0  0
 13 27  2  0  0  0  0
 14 28  1  0  0  0  0
 15 16  2  0  0  0  0
 15 29  1  0  0  0  0
 16 30  1  0  0  0  0
 17 24  1  0  0  0  0
 17 28  2  0  0  0  0
 18 30  2  0  0  0  0
 18 31  1  0  0  0  0
 19 32  1  0  0  0  0
 20 32  1  0  0  0  0
 20 33  2  0  0  0  0
 20 34  1  0  0  0  0
 21 23  2  0  0  0  0
 21 40  1  0  0  0  0
 22 24  2  0  0  0  0
 22 41  1  0  0  0  0
 23 49  1  0  0  0  0
 24 42  1  0  0  0  0
 25 57  1  0  0  0  0
 26 68  1  0  0  0  0
 27 79  1  0  0  0  0
 28 80  1  0  0  0  0
 29 31  2  0  0  0  0
 29 79  1  0  0  0  0
 30 81  1  0  0  0  0
 31 82  1  0  0  0  0
 32 62  2  0  0  0  0
 33 63  1  0  0  0  0
 33 66  1  0  0  0  0
 34 67  1  0  0  0  0
 34 73  2  0  0  0  0
 35 50  1  0  0  0  0
 35 69  1  0  0  0  0
 35 74  2  0  0  0  0
 36 59  1  0  0  0  0
 36 64  1  0  0  0  0
 36 75  2  0  0  0  0
 37 58  1  0  0  0  0
 37 70  1  0  0  0  0
 37 76  2  0  0  0  0
 38 60  1  0  0  0  0
 38 71  1  0  0  0  0
 38 77  2  0  0  0  0
 39 65  1  0  0  0  0
 39 68  1  0  0  0  0
 39 78  2  0  0  0  0
 40 43  1  0  0  0  0
 41 50  1  0  0  0  0
 42 64  1  0  0  0  0
 43 45  1  0  0  0  0
 44 46  1  0  0  0  0
 44 47  1  0  0  0  0
 45 49  1  0  0  0  0
 46 51  1  0  0  0  0
 47 65  1  0  0  0  0
 48 51  1  0  0  0  0
 48 65  1  0  0  0  0
 49 69  1  0  0  0  0
 50 64  1  0  0  0  0
 51 63  1  0  0  0  0
 52 60  1  0  0  0  0
 53 61  1  0  0  0  0
 54 61  1  0  0  0  0
 55 61  1  0  0  0  0
 56 72  1  0  0  0  0
 57 70  1  0  0  0  0
 58 80  1  0  0  0  0
 59 61  1  0  0  0  0
 59 71  1  0  0  0  0
 60 72  1  0  0  0  0
 62 63  1  0  0  0  0
M  CHG  1  72   1
M  ISO  4  39 100  58 101  68 100  80 101
M  END
> <Batch ID>
0044

> <Smiles>
CNC(C)C(=O)NC(C(=O)N1Cc2cc([101O:1][101CH2:1]C(=O)NCc3ccc([100NH:0][100C:0](=O)N4CCCC(n5nc(-c6ccc(Oc7ccc(F)cc7F)cc6)c(C(N)=O)c5N)C4)cc3)ccc2CC1C(=O)NC1CCCc2ccccc21)C(C)(C)C

> <Shape>
0.263

> <Color>
0.085

> <Negative vol penalty>
0.000

$$$$

  -OEChem-04042322183D

 83 91  0     1  0  0  0  0  0999 V2000
  -41.0513  -26.3696   11.9762 C   0  0  0  0  0  0  0  0  0  0  0  0
  -40.5916  -25.2285   12.6257 C   0  0  0  0  0  0  0  0  0  0  0  0
  -23.0758   -9.8675   19.9416 C   0  0  0  0  0  0  0  0  0  0  0  0
  -23.8349   -9.8755   22.2353 C   0  0  0  0  0  0  0  0  0  0  0  0
  -41.2989  -27.5327   12.7042 C   0  0  0  0  0  0  0  0  0  0  0  0
  -40.3802  -25.2494   14.0039 C   0  0  0  0  0  0  0  0  0  0  0  0
  -36.0202  -22.2702   17.1054 C   0  0  0  0  0  0  0  0  0  0  0  0
  -22.3318   -8.7145   20.1919 C   0  0  0  0  0  0  0  0  0  0  0  0
  -23.0908   -8.7226   22.4856 C   0  0  0  0  0  0  0  0  0  0  0  0
  -36.0290  -21.0731   17.8201 C   0  0  0  0  0  0  0  0  0  0  0  0
  -19.8623   -7.9254   23.0873 C   0  0  0  0  0  0  0  0  0  0  0  0
  -19.1050   -7.8861   24.2580 C   0  0  0  0  0  0  0  0  0  0  0  0
  -36.3882  -22.3030   19.8640 C   0  0  0  0  0  0  0  0  0  0  0  0
  -32.0627  -16.6095   22.5503 C   0  0  0  0  0  0  0  0  0  0  0  0
  -31.8513  -18.3621   24.1997 C   0  0  0  0  0  0  0  0  0  0  0  0
  -29.8784  -17.4588   23.1373 C   0  0  0  0  0  0  0  0  0  0  0  0
  -20.3459   -5.9489   24.9958 C   0  0  0  0  0  0  0  0  0  0  0  0
  -23.8275  -10.4480   20.9633 C   0  0  0  0  0  0  0  0  0  0  0  0
  -24.1696  -12.9730   20.8422 C   0  0  0  0  0  0  0  0  0  0  0  0
  -41.0813  -27.5708   14.0905 C   0  0  0  0  0  0  0  0  0  0  0  0
  -36.2065  -23.4939   17.7644 C   0  0  0  0  0  0  0  0  0  0  0  0
  -40.6264  -26.4137   14.7513 C   0  0  0  0  0  0  0  0  0  0  0  0
  -36.3787  -23.5143   19.1558 C   0  0  0  0  0  0  0  0  0  0  0  0
  -32.6499  -17.4948   23.4542 C   0  0  0  0  0  0  0  0  0  0  0  0
  -30.6769  -16.5916   22.3918 C   0  0  0  0  0  0  0  0  0  0  0  0
  -22.3392   -8.1421   21.4639 C   0  0  0  0  0  0  0  0  0  0  0  0
  -36.2159  -21.0891   19.1991 C   0  0  0  0  0  0  0  0  0  0  0  0
  -20.8615   -6.9764   22.8709 C   0  0  0  0  0  0  0  0  0  0  0  0
  -19.3468   -6.8979   25.2122 C   0  0  0  0  0  0  0  0  0  0  0  0
  -21.1033   -5.9881   23.8251 C   0  0  0  0  0  0  0  0  0  0  0  0
  -30.4656  -18.3441   24.0413 C   0  0  0  0  0  0  0  0  0  0  0  0
  -24.5968  -11.6386   20.7053 C   0  0  0  0  0  0  0  0  0  0  0  0
  -25.2619  -13.7222   20.4789 C   0  0  0  0  0  0  0  0  0  0  0  0
  -22.8990  -13.4892   21.2604 C   0  0  0  0  0  0  0  0  0  0  0  0
  -38.3772  -25.8114   17.6203 C   0  0  0  0  0  0  0  0  0  0  0  0
  -36.3501  -27.3048   19.6655 C   0  0  0  0  0  0  0  0  0  0  0  0
  -35.1780  -18.6399   21.6633 C   0  0  0  0  0  0  0  0  0  0  0  0
  -33.8810  -27.0403   22.0065 C   0  0  0  0  0  0  0  0  0  0  0  0
  -30.7282  -14.7674   20.6551 C   0  0  0  0  0  0  0  0  0  0  0  0
  -41.4081  -28.8368   14.8421 C   0  0  0  0  0  0  0  0  0  0  0  0
  -36.1676  -24.7784   16.9827 C   0  0  0  0  0  0  0  0  0  0  0  0
  -36.5628  -24.8031   19.9132 C   0  0  0  0  0  0  0  0  0  0  0  0
  -40.8016  -28.8879   16.2420 C   0  0  0  0  0  0  0  0  0  0  0  0
  -29.6144  -12.3525   18.2876 C   0  0  0  0  0  0  0  0  0  0  0  0
  -41.0363  -27.5703   16.9739 C   0  0  0  0  0  0  0  0  0  0  0  0
  -28.1746  -12.0613   18.7168 C   0  0  0  0  0  0  0  0  0  0  0  0
  -30.5291  -12.5818   19.4895 C   0  0  0  0  0  0  0  0  0  0  0  0
  -28.6217  -13.3071   20.8697 C   0  0  0  0  0  0  0  0  0  0  0  0
  -40.3615  -26.4044   16.2412 C   0  0  1  0  0  0  0  0  0  0  0  0
  -36.8808  -25.9284   17.6872 C   0  0  1  0  0  0  0  0  0  0  0  0
  -27.6493  -13.1334   19.6916 C   0  0  2  0  0  0  0  0  0  0  0  0
  -32.4513  -28.4330   23.5277 C   0  0  0  0  0  0  0  0  0  0  0  0
  -38.7260  -27.6916   21.5404 C   0  0  0  0  0  0  0  0  0  0  0  0
  -37.1038  -28.2003   23.3782 C   0  0  0  0  0  0  0  0  0  0  0  0
  -37.2040  -29.6681   21.3637 C   0  0  0  0  0  0  0  0  0  0  0  0
  -31.3900  -26.1136   20.7045 C   0  0  0  0  0  0  0  0  0  0  0  0
  -34.1415  -17.5146   23.6242 C   0  0  0  0  0  0  0  0  0  0  0  0
  -35.7684  -19.9711   21.2499 C   0  0  0  0  0  0  0  0  0  1  0  0
  -36.1932  -27.3592   21.1659 C   0  0  1  0  0  0  0  0  0  0  0  0
  -32.5592  -27.7701   22.1632 C   0  0  2  0  0  0  0  0  0  0  0  0
  -37.3052  -28.2052   21.8478 C   0  0  0  0  0  0  0  0  0  0  0  0
  -25.8618  -11.5425   20.2875 N   0  0  0  0  0  0  0  0  0  0  0  0
  -26.2388  -12.8259   20.1587 N   0  0  0  0  0  0  0  0  0  0  0  0
  -36.5235  -26.0320   19.1035 N   0  0  0  0  0  0  0  0  0  0  0  0
  -29.9699  -13.6131   20.3661 N   0  0  0  0  0  0  0  0  0  0  0  0
  -25.4725  -15.0536   20.4053 N   0  0  0  0  0  0  0  0  0  0  0  0
  -21.8869  -12.5802   21.5977 N   0  0  0  0  0  0  0  0  0  0  0  0
  -30.0806  -15.6929   21.4728 N   0  0  0  0  0  0  0  0  0  0  0  0
  -38.9381  -26.3993   16.5026 N   0  0  0  0  0  0  0  0  0  0  0  0
  -34.7439  -18.6585   22.9795 N   0  0  0  0  0  0  0  0  0  0  0  0
  -34.8386  -27.8388   21.4176 N   0  0  0  0  0  0  0  0  0  0  0  0
  -31.4215  -26.8196   22.0113 N   0  3  0  0  0  0  0  0  0  0  0  0
  -22.6628  -14.7198   21.3170 O   0  0  0  0  0  0  0  0  0  0  0  0
  -38.9787  -25.2321   18.5171 O   0  0  0  0  0  0  0  0  0  0  0  0
  -36.3128  -28.3524   19.0152 O   0  0  0  0  0  0  0  0  0  0  0  0
  -35.1079  -17.6790   20.9018 O   0  0  0  0  0  0  0  0  0  0  0  0
  -34.0485  -25.8794   22.3734 O   0  0  0  0  0  0  0  0  0  0  0  0
  -31.8574  -14.9358   20.1878 O   0  0  0  0  0  0  0  0  0  0  0  0
  -21.6131   -7.0172   21.7085 O   0  0  0  0  0  0  0  0  0  0  0  0
  -36.2256  -19.9221   19.8990 O   0  0  0  0  0  0  0  0  0  1  0  0
  -18.6204   -6.8612   26.3371 F   0  0  0  0  0  0  0  0  0  0  0  0
  -22.0626   -5.0745   23.6233 F   0  0  0  0  0  0  0  0  0  0  0  0
  -29.4802  -19.4154   24.9597 Cl  0  0  0  0  0  0  0  0  0  0  0  0
  1  2  1  0  0  0  0
  1  5  2  0  0  0  0
  2  6  2  0  0  0  0
  3  8  2  0  0  0  0
  3 18  1  0  0  0  0
  4  9  1  0  0  0  0
  4 18  2  0  0  0  0
  5 20  1  0  0  0  0
  6 22  1  0  0  0  0
  7 10  2  0  0  0  0
  7 21  1  0  0  0  0
  8 26  1  0  0  0  0
  9 26  2  0  0  0  0
 10 27  1  0  0  0  0
 11 12  2  0  0  0  0
 11 28  1  0  0  0  0
 12 29  1  0  0  0  0
 13 23  1  0  0  0  0
 13 27  2  0  0  0  0
 14 24  2  0  0  0  0
 14 25  1  0  0  0  0
 15 24  1  0  0  0  0
 15 31  2  0  0  0  0
 16 25  2  0  0  0  0
 16 31  1  0  0  0  0
 17 29  2  0  0  0  0
 17 30  1  0  0  0  0
 18 32  1  0  0  0  0
 19 32  1  0  0  0  0
 19 33  2  0  0  0  0
 19 34  1  0  0  0  0
 20 22  2  0  0  0  0
 20 40  1  0  0  0  0
 21 23  2  0  0  0  0
 21 41  1  0  0  0  0
 22 49  1  0  0  0  0
 23 42  1  0  0  0  0
 24 57  1  0  0  0  0
 25 68  1  0  0  0  0
 26 79  1  0  0  0  0
 27 80  1  0  0  0  0
 28 30  2  0  0  0  0
 28 79  1  0  0  0  0
 29 81  1  0  0  0  0
 30 82  1  0  0  0  0
 31 83  1  0  0  0  0
 32 62  2  0  0  0  0
 33 63  1  0  0  0  0
 33 66  1  0  0  0  0
 34 67  1  0  0  0  0
 34 73  2  0  0  0  0
 35 50  1  0  0  0  0
 35 69  1  0  0  0  0
 35 74  2  0  0  0  0
 36 59  1  0  0  0  0
 36 64  1  0  0  0  0
 36 75  2  0  0  0  0
 37 58  1  0  0  0  0
 37 70  1  0  0  0  0
 37 76  2  0  0  0  0
 38 60  1  0  0  0  0
 38 71  1  0  0  0  0
 38 77  2  0  0  0  0
 39 65  1  0  0  0  0
 39 68  1  0  0  0  0
 39 78  2  0  0  0  0
 40 43  1  0  0  0  0
 41 50  1  0  0  0  0
 42 64  1  0  0  0  0
 43 45  1  0  0  0  0
 44 46  1  0  0  0  0
 44 47  1  0  0  0  0
 45 49  1  0  0  0  0
 46 51  1  0  0  0  0
 47 65  1  0  0  0  0
 48 51  1  0  0  0  0
 48 65  1  0  0  0  0
 49 69  1  0  0  0  0
 50 64  1  0  0  0  0
 51 63  1  0  0  0  0
 52 60  1  0  0  0  0
 53 61  1  0  0  0  0
 54 61  1  0  0  0  0
 55 61  1  0  0  0  0
 56 72  1  0  0  0  0
 57 70  1  0  0  0  0
 58 80  1  0  0  0  0
 59 61  1  0  0  0  0
 59 71  1  0  0  0  0
 60 72  1  0  0  0  0
 62 63  1  0  0  0  0
M  CHG  1  72   1
M  ISO  4  39 100  58 101  68 100  80 101
M  END
> <Batch ID>
0044

> <Smiles>
CNC(C)C(=O)NC(C(=O)N1Cc2cc([101O:1][101CH2:1]C(=O)NCc3cc(Cl)cc([100NH:0][100C:0](=O)N4CCCC(n5nc(-c6ccc(Oc7ccc(F)cc7F)cc6)c(C(N)=O)c5N)C4)c3)ccc2CC1C(=O)NC1CCCc2ccccc21)C(C)(C)C

> <Shape>
0.173

> <Color>
0.191

> <Negative vol penalty>
0.000

$$$$

  -OEChem-04042322183D

 86 95  0     1  0  0  0  0  0999 V2000
  -22.0554   -8.4144   21.2642 C   0  0  0  0  0  0  0  0  0  0  0  0
  -22.5637   -9.0347   22.3999 C   0  0  0  0  0  0  0  0  0  0  0  0
  -19.8931  -28.4088   23.4575 C   0  0  0  0  0  0  0  0  0  0  0  0
  -21.1910  -26.5131   22.7101 C   0  0  0  0  0  0  0  0  0  0  0  0
  -22.6253   -8.6730   20.0194 C   0  0  0  0  0  0  0  0  0  0  0  0
  -23.6343   -9.9227   22.2897 C   0  0  0  0  0  0  0  0  0  0  0  0
  -29.1682  -16.0993   23.0815 C   0  0  0  0  0  0  0  0  0  0  0  0
  -30.7722  -25.1586   19.9704 C   0  0  0  0  0  0  0  0  0  0  0  0
  -30.0414  -26.2667   20.3988 C   0  0  0  0  0  0  0  0  0  0  0  0
  -18.7310  -27.8000   22.9837 C   0  0  0  0  0  0  0  0  0  0  0  0
  -20.0289  -25.9043   22.2363 C   0  0  0  0  0  0  0  0  0  0  0  0
  -29.9038  -16.8775   22.1887 C   0  0  0  0  0  0  0  0  0  0  0  0
  -17.4209  -24.1806   23.5199 C   0  0  0  0  0  0  0  0  0  0  0  0
  -17.2363  -22.8282   23.8070 C   0  0  0  0  0  0  0  0  0  0  0  0
  -27.9884  -17.0005   20.7274 C   0  0  0  0  0  0  0  0  0  0  0  0
  -29.6773  -23.7927   21.6355 C   0  0  0  0  0  0  0  0  0  0  0  0
  -17.1723  -22.3351   21.4427 C   0  0  0  0  0  0  0  0  0  0  0  0
  -21.1231  -27.7654   23.3207 C   0  0  0  0  0  0  0  0  0  0  0  0
  -22.6037  -28.7778   25.1346 C   0  0  0  0  0  0  0  0  0  0  0  0
  -23.7114   -9.5552   19.8964 C   0  0  0  0  0  0  0  0  0  0  0  0
  -27.8384  -15.7561   22.7983 C   0  0  0  0  0  0  0  0  0  0  0  0
  -24.2077  -10.2151   21.0389 C   0  0  0  0  0  0  0  0  0  0  0  0
  -27.2374  -16.2199   21.6195 C   0  0  0  0  0  0  0  0  0  0  0  0
  -30.5902  -23.9215   20.5887 C   0  0  0  0  0  0  0  0  0  0  0  0
  -28.9465  -24.9008   22.0639 C   0  0  0  0  0  0  0  0  0  0  0  0
  -29.1285  -26.1378   21.4456 C   0  0  0  0  0  0  0  0  0  0  0  0
  -18.7989  -26.5478   22.3731 C   0  0  0  0  0  0  0  0  0  0  0  0
  -29.3148  -17.3258   21.0100 C   0  0  0  0  0  0  0  0  0  0  0  0
  -17.4811  -24.6103   22.1942 C   0  0  0  0  0  0  0  0  0  0  0  0
  -17.1121  -21.9054   22.7684 C   0  0  0  0  0  0  0  0  0  0  0  0
  -17.3568  -23.6876   21.1556 C   0  0  0  0  0  0  0  0  0  0  0  0
  -22.3240  -28.3940   23.8094 C   0  0  0  0  0  0  0  0  0  0  0  0
  -23.8623  -29.3245   25.0754 C   0  0  0  0  0  0  0  0  0  0  0  0
  -30.5402  -20.4210   20.3297 C   0  0  0  0  0  0  0  0  0  0  0  0
  -21.7980  -28.6514   26.3138 C   0  0  0  0  0  0  0  0  0  0  0  0
  -26.2762  -13.0271   22.3338 C   0  0  0  0  0  0  0  0  0  0  0  0
  -23.6820  -14.9738   22.2788 C   0  0  0  0  0  0  0  0  0  0  0  0
  -22.8370  -18.1966   20.8944 C   0  0  0  0  0  0  0  0  0  0  0  0
  -28.4704  -28.5676   21.3474 C   0  0  0  0  0  0  0  0  0  0  0  0
  -24.2848   -9.8047   18.5237 C   0  0  0  0  0  0  0  0  0  0  0  0
  -27.0502  -14.9383   23.7844 C   0  0  0  0  0  0  0  0  0  0  0  0
  -25.8065  -15.8963   21.2784 C   0  0  0  0  0  0  0  0  0  0  0  0
  -25.6850  -10.4080   18.5650 C   0  0  0  0  0  0  0  0  0  0  0  0
  -28.7709  -20.8708   18.0375 C   0  0  0  0  0  0  0  0  0  0  0  0
  -26.8072  -31.6285   22.0831 C   0  0  0  0  0  0  0  0  0  0  0  0
  -25.7104  -11.5984   19.5121 C   0  0  0  0  0  0  0  0  0  0  0  0
  -29.2326  -19.4669   18.3679 C   0  0  0  0  0  0  0  0  0  0  0  0
  -25.4969  -31.1815   22.7354 C   0  0  0  0  0  0  0  0  0  0  0  0
  -29.8716  -21.8620   18.3705 C   0  0  0  0  0  0  0  0  0  0  0  0
  -27.2311  -30.6860   20.9581 C   0  0  0  0  0  0  0  0  0  0  0  0
  -25.9908  -28.8201   21.9825 C   0  0  0  0  0  0  0  0  0  0  0  0
  -25.3913  -11.1612   20.9474 C   0  0  1  0  0  0  0  0  0  0  0  0
  -29.5338  -19.3822   19.8513 C   0  0  1  0  0  0  0  0  0  1  0  0
  -25.8636  -14.2188   23.1507 C   0  0  1  0  0  0  0  0  0  0  0  0
  -25.5569  -29.7024   23.1645 C   0  0  2  0  0  0  0  0  0  0  0  0
  -27.9777  -24.7343   23.1896 C   0  0  0  0  0  0  0  0  0  0  0  0
  -21.1585  -19.9050   21.6438 C   0  0  0  0  0  0  0  0  0  0  0  0
  -21.8254  -13.6007   20.2844 C   0  0  0  0  0  0  0  0  0  0  0  0
  -20.9204  -15.8557   19.6806 C   0  0  0  0  0  0  0  0  0  0  0  0
  -20.6614  -14.9915   22.0064 C   0  0  0  0  0  0  0  0  0  0  0  0
  -24.8926  -20.3205   21.0437 C   0  0  0  0  0  0  0  0  0  0  0  0
  -31.3787  -22.7294   20.1290 C   0  0  0  0  0  0  0  0  0  0  0  0
  -22.9413  -15.7379   21.2081 C   0  0  1  0  0  0  0  0  0  0  0  0
  -22.6208  -19.4876   21.6632 C   0  0  2  0  0  0  0  0  0  0  0  0
  -21.6150  -15.0410   20.7927 C   0  0  0  0  0  0  0  0  0  0  0  0
  -23.3243  -28.6734   22.9696 N   0  0  0  0  0  0  0  0  0  0  0  0
  -24.2449  -29.2386   23.7690 N   0  0  0  0  0  0  0  0  0  0  0  0
  -30.5159  -21.6500   19.6678 N   0  0  0  0  0  0  0  0  0  0  0  0
  -25.0794  -15.0884   22.2714 N   0  0  0  0  0  0  0  0  0  0  0  0
  -27.2699  -29.3032   21.4391 N   0  0  0  0  0  0  0  0  0  0  0  0
  -24.6680  -29.8656   26.0137 N   0  0  0  0  0  0  0  0  0  0  0  0
  -20.5300  -28.0658   26.1969 N   0  0  0  0  0  0  0  0  0  0  0  0
  -28.3958  -27.2753   21.8662 N   0  0  0  0  0  0  0  0  0  0  0  0
  -25.2191  -12.3371   21.7717 N   0  0  0  0  0  0  0  0  0  0  0  0
  -22.7694  -17.0936   21.7190 N   0  0  0  0  0  0  0  0  0  0  0  0
  -23.4313  -20.5872   21.0675 N   0  3  0  0  0  0  0  0  0  0  0  0
  -31.2694  -20.1720   21.2932 O   0  0  0  0  0  0  0  0  0  0  0  0
  -22.1842  -29.0608   27.4348 O   0  0  0  0  0  0  0  0  0  0  0  0
  -27.4656  -12.7548   22.2206 O   0  0  0  0  0  0  0  0  0  0  0  0
  -23.0438  -14.3057   23.0962 O   0  0  0  0  0  0  0  0  0  0  0  0
  -23.0414  -18.1691   19.6827 O   0  0  0  0  0  0  0  0  0  0  0  0
  -29.4971  -29.0578   20.8703 O   0  0  0  0  0  0  0  0  0  0  0  0
  -17.6651  -25.9533   21.9109 O   0  0  0  0  0  0  0  0  0  0  0  0
  -30.0307  -18.0850   20.1365 O   0  0  0  0  0  0  0  0  0  1  0  0
  -16.9364  -20.6064   23.0442 F   0  0  0  0  0  0  0  0  0  0  0  0
  -17.4150  -24.0943   19.8801 F   0  0  0  0  0  0  0  0  0  0  0  0
  1  2  1  0  0  0  0
  1  5  2  0  0  0  0
  2  6  2  0  0  0  0
  3 10  2  0  0  0  0
  3 18  1  0  0  0  0
  4 11  1  0  0  0  0
  4 18  2  0  0  0  0
  5 20  1  0  0  0  0
  6 22  1  0  0  0  0
  7 12  2  0  0  0  0
  7 21  1  0  0  0  0
  8  9  2  0  0  0  0
  8 24  1  0  0  0  0
  9 26  1  0  0  0  0
 10 27  1  0  0  0  0
 11 27  2  0  0  0  0
 12 28  1  0  0  0  0
 13 14  2  0  0  0  0
 13 29  1  0  0  0  0
 14 30  1  0  0  0  0
 15 23  1  0  0  0  0
 15 28  2  0  0  0  0
 16 24  2  0  0  0  0
 16 25  1  0  0  0  0
 17 30  2  0  0  0  0
 17 31  1  0  0  0  0
 18 32  1  0  0  0  0
 19 32  1  0  0  0  0
 19 33  2  0  0  0  0
 19 35  1  0  0  0  0
 20 22  2  0  0  0  0
 20 40  1  0  0  0  0
 21 23  2  0  0  0  0
 21 41  1  0  0  0  0
 22 52  1  0  0  0  0
 23 42  1  0  0  0  0
 24 62  1  0  0  0  0
 25 26  2  0  0  0  0
 25 56  1  0  0  0  0
 26 73  1  0  0  0  0
 27 83  1  0  0  0  0
 28 84  1  0  0  0  0
 29 31  2  0  0  0  0
 29 83  1  0  0  0  0
 30 85  1  0  0  0  0
 31 86  1  0  0  0  0
 32 66  2  0  0  0  0
 33 67  1  0  0  0  0
 33 71  1  0  0  0  0
 34 53  1  0  0  0  0
 34 68  1  0  0  0  0
 34 77  2  0  0  0  0
 35 72  1  0  0  0  0
 35 78  2  0  0  0  0
 36 54  1  0  0  0  0
 36 74  1  0  0  0  0
 36 79  2  0  0  0  0
 37 63  1  0  0  0  0
 37 69  1  0  0  0  0
 37 80  2  0  0  0  0
 38 64  1  0  0  0  0
 38 75  1  0  0  0  0
 38 81  2  0  0  0  0
 39 70  1  0  0  0  0
 39 73  1  0  0  0  0
 39 82  2  0  0  0  0
 40 43  1  0  0  0  0
 41 54  1  0  0  0  0
 42 69  1  0  0  0  0
 43 46  1  0  0  0  0
 44 47  1  0  0  0  0
 44 49  1  0  0  0  0
 45 48  1  0  0  0  0
 45 50  1  0  0  0  0
 46 52  1  0  0  0  0
 47 53  1  0  0  0  0
 48 55  1  0  0  0  0
 49 68  1  0  0  0  0
 50 70  1  0  0  0  0
 51 55  1  0  0  0  0
 51 70  1  0  0  0  0
 52 74  1  0  0  0  0
 53 84  1  0  0  0  0
 54 69  1  0  0  0  0
 55 67  1  0  0  0  0
 57 64  1  0  0  0  0
 58 65  1  0  0  0  0
 59 65  1  0  0  0  0
 60 65  1  0  0  0  0
 61 76  1  0  0  0  0
 62 68  1  0  0  0  0
 63 65  1  0  0  0  0
 63 75  1  0  0  0  0
 64 76  1  0  0  0  0
 66 67  1  0  0  0  0
M  CHG  1  76   1
M  ISO  4  39 100  53 101  73 100  84 101
M  END
> <Batch ID>
0044

> <Smiles>
CNC(C)C(=O)NC(C(=O)N1Cc2cc([101O:1][101CH:1]3CCCN(Cc4ccc([100NH:0][100C:0](=O)N5CCCC(n6nc(-c7ccc(Oc8ccc(F)cc8F)cc7)c(C(N)=O)c6N)C5)c(C)c4)C3=O)ccc2CC1C(=O)NC1CCCc2ccccc21)C(C)(C)C

> <Shape>
0.231

> <Color>
0.060

> <Negative vol penalty>
0.000

$$$$

  -OEChem-04042322183D

 89 98  0     1  0  0  0  0  0999 V2000
  -22.0130  -34.9153   15.5508 C   0  0  0  0  0  0  0  0  0  0  0  0
  -22.8611  -33.8132   15.5896 C   0  0  0  0  0  0  0  0  0  0  0  0
  -23.8730  -10.1274   22.6014 C   0  0  0  0  0  0  0  0  0  0  0  0
  -22.0833  -10.8213   21.1344 C   0  0  0  0  0  0  0  0  0  0  0  0
  -21.9140  -35.7566   16.6581 C   0  0  0  0  0  0  0  0  0  0  0  0
  -23.6117  -33.5525   16.7355 C   0  0  0  0  0  0  0  0  0  0  0  0
  -25.1141  -28.0563   18.9806 C   0  0  0  0  0  0  0  0  0  0  0  0
  -23.5173   -8.7931   22.4045 C   0  0  0  0  0  0  0  0  0  0  0  0
  -21.7275   -9.4870   20.9374 C   0  0  0  0  0  0  0  0  0  0  0  0
  -26.2734  -27.2880   18.8825 C   0  0  0  0  0  0  0  0  0  0  0  0
  -21.1585   -6.6519   23.5339 C   0  0  0  0  0  0  0  0  0  0  0  0
  -21.0967   -5.8259   24.6562 C   0  0  0  0  0  0  0  0  0  0  0  0
  -27.0221  -28.1576   21.0043 C   0  0  0  0  0  0  0  0  0  0  0  0
  -28.6707  -19.9513   24.5408 C   0  0  0  0  0  0  0  0  0  0  0  0
  -27.8613  -20.3058   21.8946 C   0  0  0  0  0  0  0  0  0  0  0  0
  -22.7910   -4.3955   23.6968 C   0  0  0  0  0  0  0  0  0  0  0  0
  -23.1560  -11.1415   21.9665 C   0  0  0  0  0  0  0  0  0  0  0  0
  -23.5506  -13.2209   23.3905 C   0  0  0  0  0  0  0  0  0  0  0  0
  -22.6564  -35.5006   17.8217 C   0  0  0  0  0  0  0  0  0  0  0  0
  -24.9049  -28.8908   20.0880 C   0  0  0  0  0  0  0  0  0  0  0  0
  -23.5236  -34.3919   17.8590 C   0  0  0  0  0  0  0  0  0  0  0  0
  -25.8582  -28.9336   21.1154 C   0  0  0  0  0  0  0  0  0  0  0  0
  -28.5263  -21.2380   24.0220 C   0  0  0  0  0  0  0  0  0  0  0  0
  -28.4104  -18.8418   23.7364 C   0  0  0  0  0  0  0  0  0  0  0  0
  -28.1216  -21.4153   22.6990 C   0  0  0  0  0  0  0  0  0  0  0  0
  -28.0057  -19.0190   22.4134 C   0  0  0  0  0  0  0  0  0  0  0  0
  -22.4445   -8.4729   21.5724 C   0  0  0  0  0  0  0  0  0  0  0  0
  -27.2289  -27.3407   19.8930 C   0  0  0  0  0  0  0  0  0  0  0  0
  -22.0365   -6.3496   22.4930 C   0  0  0  0  0  0  0  0  0  0  0  0
  -21.9130   -4.6978   24.7377 C   0  0  0  0  0  0  0  0  0  0  0  0
  -22.8527   -5.2215   22.5744 C   0  0  0  0  0  0  0  0  0  0  0  0
  -23.5227  -12.5199   22.1700 C   0  0  0  0  0  0  0  0  0  0  0  0
  -23.9621  -14.4863   23.0504 C   0  0  0  0  0  0  0  0  0  0  0  0
  -28.6575  -24.2275   20.2909 C   0  0  0  0  0  0  0  0  0  0  0  0
  -28.1651  -22.1640   17.2935 C   0  0  0  0  0  0  0  0  0  0  0  0
  -28.3748  -23.8738   19.0262 C   0  0  0  0  0  0  0  0  0  0  0  0
  -28.4468  -22.5156   18.5530 C   0  0  0  0  0  0  0  0  0  0  0  0
  -23.2329  -12.7685   24.7135 C   0  0  0  0  0  0  0  0  0  0  0  0
  -24.5501  -32.0223   20.5017 C   0  0  0  0  0  0  0  0  0  0  0  0
  -23.9371  -31.1539   23.5664 C   0  0  0  0  0  0  0  0  0  0  0  0
  -25.2785  -28.8084   25.9573 C   0  0  0  0  0  0  0  0  0  0  0  0
  -27.3268  -17.9255   20.2478 C   0  0  0  0  0  0  0  0  0  0  0  0
  -22.5519  -36.4651   18.9764 C   0  0  0  0  0  0  0  0  0  0  0  0
  -23.6368  -29.6930   20.1916 C   0  0  0  0  0  0  0  0  0  0  0  0
  -25.6718  -29.7978   22.3347 C   0  0  0  0  0  0  0  0  0  0  0  0
  -23.0985  -35.9068   20.2878 C   0  0  0  0  0  0  0  0  0  0  0  0
  -24.4788  -16.6746   18.5154 C   0  0  0  0  0  0  0  0  0  0  0  0
  -30.3019  -24.9079   22.5386 C   0  0  0  0  0  0  0  0  0  0  0  0
  -24.4538  -35.2441   20.0622 C   0  0  0  0  0  0  0  0  0  0  0  0
  -29.9013  -25.9899   21.5420 C   0  0  0  0  0  0  0  0  0  0  0  0
  -23.9785  -15.5398   19.4121 C   0  0  0  0  0  0  0  0  0  0  0  0
  -26.0043  -16.7546   18.4999 C   0  0  0  0  0  0  0  0  0  0  0  0
  -26.1351  -15.6957   20.7204 C   0  0  0  0  0  0  0  0  0  0  0  0
  -30.3701  -23.5366   21.8746 C   0  0  0  0  0  0  0  0  0  0  0  0
  -24.3353  -34.0618   19.0928 C   0  0  1  0  0  0  0  0  0  0  0  0
  -28.5954  -25.6387   20.8309 C   0  0  1  0  0  0  0  0  0  1  0  0
  -23.7663  -30.8982   21.1179 C   0  0  1  0  0  0  0  0  0  0  0  0
  -24.6029  -15.6164   20.8192 C   0  0  2  0  0  0  0  0  0  0  0  0
  -28.8109  -22.4107   24.9019 C   0  0  0  0  0  0  0  0  0  0  0  0
  -28.5732  -17.4751   24.3184 C   0  0  0  0  0  0  0  0  0  0  0  0
  -24.1902  -27.6648   27.9080 C   0  0  0  0  0  0  0  0  0  0  0  0
  -25.0558  -33.4852   25.1860 C   0  0  0  0  0  0  0  0  0  0  0  0
  -25.5480  -31.8725   27.0367 C   0  0  0  0  0  0  0  0  0  0  0  0
  -23.1938  -32.2405   26.2986 C   0  0  0  0  0  0  0  0  0  0  0  0
  -26.0319  -26.1277   24.9548 C   0  0  0  0  0  0  0  0  0  0  0  0
  -27.9598  -22.7895   22.1192 C   0  0  0  0  0  0  0  0  0  0  0  0
  -24.7727  -30.9472   24.8065 C   0  0  1  0  0  0  0  0  0  0  0  0
  -24.6147  -27.5365   26.4533 C   0  0  2  0  0  0  0  0  0  0  0  0
  -24.6533  -32.1322   25.8059 C   0  0  0  0  0  0  0  0  0  0  0  0
  -23.8873  -13.2773   21.1320 N   0  0  0  0  0  0  0  0  0  0  0  0
  -24.1482  -14.4673   21.6994 N   0  0  0  0  0  0  0  0  0  0  0  0
  -24.4184  -30.5684   22.3868 N   0  0  0  0  0  0  0  0  0  0  0  0
  -26.5247  -16.8290   19.8669 N   0  0  0  0  0  0  0  0  0  0  0  0
  -24.1794  -15.6024   23.7782 N   0  0  0  0  0  0  0  0  0  0  0  0
  -21.9115  -12.8945   25.1634 N   0  0  0  0  0  0  0  0  0  0  0  0
  -27.7365  -17.9047   21.5806 N   0  0  0  0  0  0  0  0  0  0  0  0
  -23.7829  -32.9075   19.7686 N   0  0  0  0  0  0  0  0  0  0  0  0
  -24.3721  -29.6574   25.3584 N   0  0  0  0  0  0  0  0  0  0  0  0
  -29.0757  -23.1704   21.1856 N   0  3  1  0  0  0  0  0  0  0  0  0
  -25.5522  -26.3838   26.3372 N   0  3  0  0  0  0  0  0  0  0  0  0
  -24.0988  -12.2825   25.4800 O   0  0  0  0  0  0  0  0  0  0  0  0
  -25.7611  -32.0830   20.6794 O   0  0  0  0  0  0  0  0  0  0  0  0
  -22.8919  -31.8047   23.6429 O   0  0  0  0  0  0  0  0  0  0  0  0
  -26.4802  -29.0285   26.0914 O   0  0  0  0  0  0  0  0  0  0  0  0
  -27.6056  -18.8311   19.4578 O   0  0  0  0  0  0  0  0  0  0  0  0
  -22.0972   -7.1711   21.3798 O   0  0  0  0  0  0  0  0  0  0  0  0
  -28.3616  -26.5922   19.7995 O   0  0  0  0  0  0  0  0  0  1  0  0
  -21.8547   -3.9056   25.8162 F   0  0  0  0  0  0  0  0  0  0  0  0
  -23.6990   -4.9267   21.5781 F   0  0  0  0  0  0  0  0  0  0  0  0
  1  2  1  0  0  0  0
  1  5  2  0  0  0  0
  2  6  2  0  0  0  0
  3  8  2  0  0  0  0
  3 17  1  0  0  0  0
  4  9  1  0  0  0  0
  4 17  2  0  0  0  0
  5 19  1  0  0  0  0
  6 21  1  0  0  0  0
  7 10  2  0  0  0  0
  7 20  1  0  0  0  0
  8 27  1  0  0  0  0
  9 27  2  0  0  0  0
 10 28  1  0  0  0  0
 11 12  2  0  0  0  0
 11 29  1  0  0  0  0
 12 30  1  0  0  0  0
 13 22  1  0  0  0  0
 13 28  2  0  0  0  0
 14 23  1  0  0  0  0
 14 24  2  0  0  0  0
 15 25  1  0  0  0  0
 15 26  2  0  0  0  0
 16 30  2  0  0  0  0
 16 31  1  0  0  0  0
 17 32  1  0  0  0  0
 18 32  1  0  0  0  0
 18 33  2  0  0  0  0
 18 38  1  0  0  0  0
 19 21  2  0  0  0  0
 19 43  1  0  0  0  0
 20 22  2  0  0  0  0
 20 44  1  0  0  0  0
 21 55  1  0  0  0  0
 22 45  1  0  0  0  0
 23 25  2  0  0  0  0
 23 59  1  0  0  0  0
 24 26  1  0  0  0  0
 24 60  1  0  0  0  0
 25 66  1  0  0  0  0
 26 76  1  0  0  0  0
 27 86  1  0  0  0  0
 28 87  1  0  0  0  0
 29 31  2  0  0  0  0
 29 86  1  0  0  0  0
 30 88  1  0  0  0  0
 31 89  1  0  0  0  0
 32 70  2  0  0  0  0
 33 71  1  0  0  0  0
 33 74  1  0  0  0  0
 34 36  2  0  0  0  0
 34 56  1  0  0  0  0
 34 79  1  0  0  0  0
 35 37  2  0  0  0  0
 36 37  1  0  0  0  0
 38 75  1  0  0  0  0
 38 81  2  0  0  0  0
 39 57  1  0  0  0  0
 39 77  1  0  0  0  0
 39 82  2  0  0  0  0
 40 67  1  0  0  0  0
 40 72  1  0  0  0  0
 40 83  2  0  0  0  0
 41 68  1  0  0  0  0
 41 78  1  0  0  0  0
 41 84  2  0  0  0  0
 42 73  1  0  0  0  0
 42 76  1  0  0  0  0
 42 85  2  0  0  0  0
 43 46  1  0  0  0  0
 44 57  1  0  0  0  0
 45 72  1  0  0  0  0
 46 49  1  0  0  0  0
 47 51  1  0  0  0  0
 47 52  1  0  0  0  0
 48 50  1  0  0  0  0
 48 54  1  0  0  0  0
 49 55  1  0  0  0  0
 50 56  1  0  0  0  0
 51 58  1  0  0  0  0
 52 73  1  0  0  0  0
 53 58  1  0  0  0  0
 53 73  1  0  0  0  0
 54 79  1  0  0  0  0
 55 77  1  0  0  0  0
 56 87  1  0  0  0  0
 57 72  1  0  0  0  0
 58 71  1  0  0  0  0
 61 68  1  0  0  0  0
 62 69  1  0  0  0  0
 63 69  1  0  0  0  0
 64 69  1  0  0  0  0
 65 80  1  0  0  0  0
 66 79  1  0  0  0  0
 67 69  1  0  0  0  0
 67 78  1  0  0  0  0
 68 80  1  0  0  0  0
 70 71  1  0  0  0  0
M  CHG  2  79   1  80   1
M  ISO  4  42 100  56 101  76 100  87 101
M  END
> <Batch ID>
0044

> <Smiles>
C=CC=C1N(Cc2cc([100NH:0][100C:0](=O)N3CCCC(n4nc(-c5ccc(Oc6ccc(F)cc6F)cc5)c(C(N)=O)c4N)C3)c(C)cc2C)CCC[101CH:1]1[101O:1]c1ccc2c(c1)CN(C(=O)C(NC(=O)C(C)NC)C(C)(C)C)C(C(=O)NC1CCCc3ccccc31)C2

> <Shape>
0.239

> <Color>
0.103

> <Negative vol penalty>
0.000

$$$$

  -OEChem-04042322183D

 85 93  0     1  0  0  0  0  0999 V2000
  -23.5354   -8.0155   21.6655 C   0  0  0  0  0  0  0  0  0  0  0  0
  -24.4118   -9.0532   21.3645 C   0  0  0  0  0  0  0  0  0  0  0  0
  -21.2006  -28.2929   19.4986 C   0  0  0  0  0  0  0  0  0  0  0  0
  -22.0404  -26.6125   21.0178 C   0  0  0  0  0  0  0  0  0  0  0  0
  -22.1595   -8.2405   21.6518 C   0  0  0  0  0  0  0  0  0  0  0  0
  -23.9126  -10.3163   21.0486 C   0  0  0  0  0  0  0  0  0  0  0  0
  -26.4450  -15.7227   22.4139 C   0  0  0  0  0  0  0  0  0  0  0  0
  -29.1336  -22.8822   22.3222 C   0  0  0  0  0  0  0  0  0  0  0  0
  -20.0224  -27.5628   19.3423 C   0  0  0  0  0  0  0  0  0  0  0  0
  -20.8622  -25.8823   20.8615 C   0  0  0  0  0  0  0  0  0  0  0  0
  -27.2288  -16.6054   21.6722 C   0  0  0  0  0  0  0  0  0  0  0  0
  -17.9274  -23.7550   21.1429 C   0  0  0  0  0  0  0  0  0  0  0  0
  -17.3277  -23.2366   22.2906 C   0  0  0  0  0  0  0  0  0  0  0  0
  -29.6028  -23.2791   23.5743 C   0  0  0  0  0  0  0  0  0  0  0  0
  -25.2565  -17.8760   21.1113 C   0  0  0  0  0  0  0  0  0  0  0  0
  -30.7188  -25.1657   22.5581 C   0  0  0  0  0  0  0  0  0  0  0  0
  -17.0905  -25.4718   23.1763 C   0  0  0  0  0  0  0  0  0  0  0  0
  -22.2096  -27.8177   20.3364 C   0  0  0  0  0  0  0  0  0  0  0  0
  -23.6889  -29.5683   21.4564 C   0  0  0  0  0  0  0  0  0  0  0  0
  -21.6436   -9.5094   21.3451 C   0  0  0  0  0  0  0  0  0  0  0  0
  -25.0572  -15.9041   22.5011 C   0  0  0  0  0  0  0  0  0  0  0  0
  -22.5285  -10.5581   21.0295 C   0  0  0  0  0  0  0  0  0  0  0  0
  -24.4576  -16.9957   21.8569 C   0  0  0  0  0  0  0  0  0  0  0  0
  -29.4570  -23.6270   21.1880 C   0  0  0  0  0  0  0  0  0  0  0  0
  -30.2496  -24.7687   21.3060 C   0  0  0  0  0  0  0  0  0  0  0  0
  -19.8532  -26.3576   20.0237 C   0  0  0  0  0  0  0  0  0  0  0  0
  -26.6343  -17.6806   21.0183 C   0  0  0  0  0  0  0  0  0  0  0  0
  -18.1087  -25.1318   21.0119 C   0  0  0  0  0  0  0  0  0  0  0  0
  -16.9092  -24.0950   23.3073 C   0  0  0  0  0  0  0  0  0  0  0  0
  -17.6902  -25.9902   22.0286 C   0  0  0  0  0  0  0  0  0  0  0  0
  -30.3954  -24.4208   23.6923 C   0  0  0  0  0  0  0  0  0  0  0  0
  -23.4271  -28.5712   20.4978 C   0  0  0  0  0  0  0  0  0  0  0  0
  -24.9753  -29.9702   21.1913 C   0  0  0  0  0  0  0  0  0  0  0  0
  -22.8449  -30.0850   22.4939 C   0  0  0  0  0  0  0  0  0  0  0  0
  -22.5141  -14.2021   21.6413 C   0  0  0  0  0  0  0  0  0  0  0  0
  -20.9028  -16.5494   23.1958 C   0  0  0  0  0  0  0  0  0  0  0  0
  -28.1343  -20.8204   20.0655 C   0  0  0  0  0  0  0  0  0  0  0  0
  -20.8478  -19.7715   24.3190 C   0  0  0  0  0  0  0  0  0  0  0  0
  -29.6328  -27.2694   18.5713 C   0  0  0  0  0  0  0  0  0  0  0  0
  -20.1473   -9.6924   21.2968 C   0  0  0  0  0  0  0  0  0  0  0  0
  -24.2292  -14.9584   23.3272 C   0  0  0  0  0  0  0  0  0  0  0  0
  -22.9746  -17.2464   21.9358 C   0  0  0  0  0  0  0  0  0  0  0  0
  -19.7115  -11.1553   21.3180 C   0  0  0  0  0  0  0  0  0  0  0  0
  -28.1174  -30.3421   17.6025 C   0  0  0  0  0  0  0  0  0  0  0  0
  -20.5394  -11.9732   20.3318 C   0  0  0  0  0  0  0  0  0  0  0  0
  -26.7671  -30.3267   18.3212 C   0  0  0  0  0  0  0  0  0  0  0  0
  -28.5203  -28.9476   17.1282 C   0  0  0  0  0  0  0  0  0  0  0  0
  -27.1630  -27.8952   18.8957 C   0  0  0  0  0  0  0  0  0  0  0  0
  -22.0262  -11.9486   20.7062 C   0  0  1  0  0  0  0  0  0  0  0  0
  -22.7578  -14.9447   22.9246 C   0  0  1  0  0  0  0  0  0  0  0  0
  -26.7404  -29.2699   19.4417 C   0  0  2  0  0  0  0  0  0  0  0  0
  -19.3797  -21.4139   25.5209 C   0  0  0  0  0  0  0  0  0  0  0  0
  -19.2410  -16.9138   20.6629 C   0  0  0  0  0  0  0  0  0  0  0  0
  -18.4830  -19.1242   21.5618 C   0  0  0  0  0  0  0  0  0  0  0  0
  -17.9347  -17.0248   22.7926 C   0  0  0  0  0  0  0  0  0  0  0  0
  -26.5241  -22.7327   20.0102 C   0  0  0  0  0  0  0  0  0  0  0  0
  -22.7960  -20.0743   26.5263 C   0  0  0  0  0  0  0  0  0  0  0  0
  -28.9413  -23.1800   19.8506 C   0  0  0  0  0  0  0  0  0  0  0  0
  -30.6100  -25.5810   20.1054 C   0  0  0  0  0  0  0  0  0  0  0  0
  -26.9448  -19.8939   20.2055 C   0  0  0  0  0  0  0  0  0  1  0  0
  -20.3131  -17.8823   22.8027 C   0  0  1  0  0  0  0  0  0  0  0  0
  -20.4692  -20.3628   25.6650 C   0  0  2  0  0  0  0  0  0  0  0  0
  -19.0207  -17.7307   21.9517 C   0  0  0  0  0  0  0  0  0  0  0  0
  -24.4638  -28.3531   19.6843 N   0  0  0  0  0  0  0  0  0  0  0  0
  -25.3895  -29.2189   20.1310 N   0  0  0  0  0  0  0  0  0  0  0  0
  -22.2068  -16.2902   22.7506 N   0  0  0  0  0  0  0  0  0  0  0  0
  -28.4759  -27.9933   18.2388 N   0  0  0  0  0  0  0  0  0  0  0  0
  -25.7811  -30.8896   21.7639 N   0  0  0  0  0  0  0  0  0  0  0  0
  -21.5521  -29.5602   22.6269 N   0  0  0  0  0  0  0  0  0  0  0  0
  -22.2848  -12.8497   21.8087 N   0  0  0  0  0  0  0  0  0  0  0  0
  -20.1280  -18.6284   24.0426 N   0  0  0  0  0  0  0  0  0  0  0  0
  -29.5061  -26.3910   19.6405 N   0  0  0  0  0  0  0  0  0  0  0  0
  -27.8762  -22.1888   19.9790 N   0  0  0  0  0  0  0  0  0  0  0  0
  -21.6557  -21.0000   26.3030 N   0  3  0  0  0  0  0  0  0  0  0  0
  -23.2200  -30.9969   23.2693 O   0  0  0  0  0  0  0  0  0  0  0  0
  -22.5312  -14.8113   20.5781 O   0  0  0  0  0  0  0  0  0  0  0  0
  -20.2339  -15.7700   23.8789 O   0  0  0  0  0  0  0  0  0  0  0  0
  -29.2677  -20.3310   20.0419 O   0  0  0  0  0  0  0  0  0  0  0  0
  -21.6946  -20.2756   23.5845 O   0  0  0  0  0  0  0  0  0  0  0  0
  -30.7009  -27.4003   17.9640 O   0  0  0  0  0  0  0  0  0  0  0  0
  -18.7036  -25.6450   19.8715 O   0  0  0  0  0  0  0  0  0  0  0  0
  -27.3970  -18.5433   20.2931 O   0  0  0  0  0  0  0  0  0  1  0  0
  -16.3319  -23.5971   24.4087 F   0  0  0  0  0  0  0  0  0  0  0  0
  -17.8607  -27.3139   21.9079 F   0  0  0  0  0  0  0  0  0  0  0  0
  -30.9755  -24.9090   25.2369 Cl  0  0  0  0  0  0  0  0  0  0  0  0
  1  2  1  0  0  0  0
  1  5  2  0  0  0  0
  2  6  2  0  0  0  0
  3  9  2  0  0  0  0
  3 18  1  0  0  0  0
  4 10  1  0  0  0  0
  4 18  2  0  0  0  0
  5 20  1  0  0  0  0
  6 22  1  0  0  0  0
  7 11  2  0  0  0  0
  7 21  1  0  0  0  0
  8 14  2  0  0  0  0
  8 24  1  0  0  0  0
  9 26  1  0  0  0  0
 10 26  2  0  0  0  0
 11 27  1  0  0  0  0
 12 13  2  0  0  0  0
 12 28  1  0  0  0  0
 13 29  1  0  0  0  0
 14 31  1  0  0  0  0
 15 23  1  0  0  0  0
 15 27  2  0  0  0  0
 16 25  1  0  0  0  0
 16 31  2  0  0  0  0
 17 29  2  0  0  0  0
 17 30  1  0  0  0  0
 18 32  1  0  0  0  0
 19 32  1  0  0  0  0
 19 33  2  0  0  0  0
 19 34  1  0  0  0  0
 20 22  2  0  0  0  0
 20 40  1  0  0  0  0
 21 23  2  0  0  0  0
 21 41  1  0  0  0  0
 22 49  1  0  0  0  0
 23 42  1  0  0  0  0
 24 25  2  0  0  0  0
 24 58  1  0  0  0  0
 25 59  1  0  0  0  0
 26 81  1  0  0  0  0
 27 82  1  0  0  0  0
 28 30  2  0  0  0  0
 28 81  1  0  0  0  0
 29 83  1  0  0  0  0
 30 84  1  0  0  0  0
 31 85  1  0  0  0  0
 32 64  2  0  0  0  0
 33 65  1  0  0  0  0
 33 68  1  0  0  0  0
 34 69  1  0  0  0  0
 34 75  2  0  0  0  0
 35 50  1  0  0  0  0
 35 70  1  0  0  0  0
 35 76  2  0  0  0  0
 36 61  1  0  0  0  0
 36 66  1  0  0  0  0
 36 77  2  0  0  0  0
 37 60  1  0  0  0  0
 37 73  1  0  0  0  0
 37 78  2  0  0  0  0
 38 62  1  0  0  0  0
 38 71  1  0  0  0  0
 38 79  2  0  0  0  0
 39 67  1  0  0  0  0
 39 72  1  0  0  0  0
 39 80  2  0  0  0  0
 40 43  1  0  0  0  0
 41 50  1  0  0  0  0
 42 66  1  0  0  0  0
 43 45  1  0  0  0  0
 44 46  1  0  0  0  0
 44 47  1  0  0  0  0
 45 49  1  0  0  0  0
 46 51  1  0  0  0  0
 47 67  1  0  0  0  0
 48 51  1  0  0  0  0
 48 67  1  0  0  0  0
 49 70  1  0  0  0  0
 50 66  1  0  0  0  0
 51 65  1  0  0  0  0
 52 62  1  0  0  0  0
 53 63  1  0  0  0  0
 54 63  1  0  0  0  0
 55 63  1  0  0  0  0
 56 73  1  0  0  0  0
 57 74  1  0  0  0  0
 58 73  1  0  0  0  0
 59 72  1  0  0  0  0
 60 82  1  0  0  0  0
 61 63  1  0  0  0  0
 61 71  1  0  0  0  0
 62 74  1  0  0  0  0
 64 65  1  0  0  0  0
M  CHG  1  74   1
M  ISO  4  39 100  60 101  72 100  82 101
M  END
> <Batch ID>
0044

> <Smiles>
CNC(C)C(=O)NC(C(=O)N1Cc2cc([101O:1][101CH2:1]C(=O)N(C)Cc3ccc(Cl)cc3C[100NH:0][100C:0](=O)N3CCCC(n4nc(-c5ccc(Oc6ccc(F)cc6F)cc5)c(C(N)=O)c4N)C3)ccc2CC1C(=O)NC1CCCc2ccccc21)C(C)(C)C

> <Shape>
0.198

> <Color>
0.103

> <Negative vol penalty>
0.000

$$$$

  -OEChem-04042322183D

 84 92  0     1  0  0  0  0  0999 V2000
  -22.0670  -28.2374   25.1462 C   0  0  0  0  0  0  0  0  0  0  0  0
  -22.0332  -26.8474   25.1907 C   0  0  0  0  0  0  0  0  0  0  0  0
  -29.8535  -23.8366   19.2959 C   0  0  0  0  0  0  0  0  0  0  0  0
  -27.7645  -23.3709   20.4166 C   0  0  0  0  0  0  0  0  0  0  0  0
  -21.6826  -28.9061   23.9847 C   0  0  0  0  0  0  0  0  0  0  0  0
  -21.6139  -26.1252   24.0740 C   0  0  0  0  0  0  0  0  0  0  0  0
  -23.7057  -20.6780   22.2143 C   0  0  0  0  0  0  0  0  0  0  0  0
  -24.1502  -11.9193   20.1295 C   0  0  0  0  0  0  0  0  0  0  0  0
  -29.2976  -24.9878   18.7379 C   0  0  0  0  0  0  0  0  0  0  0  0
  -27.2085  -24.5221   19.8587 C   0  0  0  0  0  0  0  0  0  0  0  0
  -23.2201  -19.3813   22.3773 C   0  0  0  0  0  0  0  0  0  0  0  0
  -25.3501  -27.5316   19.0175 C   0  0  0  0  0  0  0  0  0  0  0  0
  -24.6025  -28.3619   19.8525 C   0  0  0  0  0  0  0  0  0  0  0  0
  -25.1527  -11.5819   19.2203 C   0  0  0  0  0  0  0  0  0  0  0  0
  -22.1639  -19.5111   20.2125 C   0  0  0  0  0  0  0  0  0  0  0  0
  -25.8131  -12.8385   21.6219 C   0  0  0  0  0  0  0  0  0  0  0  0
  -26.5369  -28.6848   21.2635 C   0  0  0  0  0  0  0  0  0  0  0  0
  -29.0870  -23.0281   20.1352 C   0  0  0  0  0  0  0  0  0  0  0  0
  -30.3424  -21.7320   21.9384 C   0  0  0  0  0  0  0  0  0  0  0  0
  -21.2676  -28.1915   22.8500 C   0  0  0  0  0  0  0  0  0  0  0  0
  -23.4144  -21.4062   21.0519 C   0  0  0  0  0  0  0  0  0  0  0  0
  -21.2223  -26.7850   22.8966 C   0  0  0  0  0  0  0  0  0  0  0  0
  -22.6491  -20.8159   20.0360 C   0  0  0  0  0  0  0  0  0  0  0  0
  -24.4804  -12.5477   21.3303 C   0  0  0  0  0  0  0  0  0  0  0  0
  -26.8156  -12.5010   20.7127 C   0  0  0  0  0  0  0  0  0  0  0  0
  -27.9751  -25.3306   19.0193 C   0  0  0  0  0  0  0  0  0  0  0  0
  -22.4467  -18.7987   21.3776 C   0  0  0  0  0  0  0  0  0  0  0  0
  -26.6912  -27.2778   19.3056 C   0  0  0  0  0  0  0  0  0  0  0  0
  -25.1958  -28.9385   20.9755 C   0  0  0  0  0  0  0  0  0  0  0  0
  -27.2845  -27.8545   20.4286 C   0  0  0  0  0  0  0  0  0  0  0  0
  -26.4854  -11.8727   19.5119 C   0  0  0  0  0  0  0  0  0  0  0  0
  -29.6605  -21.8386   20.7114 C   0  0  0  0  0  0  0  0  0  0  0  0
  -30.6847  -20.4048   22.0268 C   0  0  0  0  0  0  0  0  0  0  0  0
  -30.6396  -22.7423   22.9113 C   0  0  0  0  0  0  0  0  0  0  0  0
  -21.8664  -24.1116   20.4286 C   0  0  0  0  0  0  0  0  0  0  0  0
  -22.9612  -23.5888   17.4202 C   0  0  0  0  0  0  0  0  0  0  0  0
  -22.5987  -15.2157   21.8312 C   0  0  0  0  0  0  0  0  0  0  0  0
  -24.0794  -21.3595   15.0906 C   0  0  0  0  0  0  0  0  0  0  0  0
  -28.5469  -15.2761   20.7867 C   0  0  0  0  0  0  0  0  0  0  0  0
  -20.8164  -28.9598   21.6331 C   0  0  0  0  0  0  0  0  0  0  0  0
  -23.9680  -22.7941   20.8797 C   0  0  0  0  0  0  0  0  0  0  0  0
  -22.3250  -21.5479   18.7602 C   0  0  0  0  0  0  0  0  0  0  0  0
  -20.7420  -28.1083   20.3682 C   0  0  0  0  0  0  0  0  0  0  0  0
  -31.1920  -16.7121   18.7772 C   0  0  0  0  0  0  0  0  0  0  0  0
  -20.0322  -26.7887   20.6540 C   0  0  0  0  0  0  0  0  0  0  0  0
  -31.1295  -18.1817   19.1974 C   0  0  0  0  0  0  0  0  0  0  0  0
  -29.7967  -16.0993   18.7004 C   0  0  0  0  0  0  0  0  0  0  0  0
  -28.9368  -17.6889   20.3760 C   0  0  0  0  0  0  0  0  0  0  0  0
  -20.7971  -25.9656   21.6975 C   0  0  1  0  0  0  0  0  0  0  0  0
  -23.1795  -23.6319   19.8779 C   0  0  1  0  0  0  0  0  0  0  0  0
  -30.3175  -18.3597   20.4939 C   0  0  2  0  0  0  0  0  0  0  0  0
  -24.8624  -21.2241   12.7103 C   0  0  0  0  0  0  0  0  0  0  0  0
  -20.0776  -23.8553   16.4590 C   0  0  0  0  0  0  0  0  0  0  0  0
  -20.7719  -22.7919   14.3014 C   0  0  0  0  0  0  0  0  0  0  0  0
  -21.7723  -24.9691   14.9954 C   0  0  0  0  0  0  0  0  0  0  0  0
  -26.7386  -20.3446   15.9013 C   0  0  0  0  0  0  0  0  0  0  0  0
  -23.4010  -12.9105   22.3088 C   0  0  0  0  0  0  0  0  0  0  0  0
  -28.2310  -12.8304   21.0620 C   0  0  0  0  0  0  0  0  0  0  0  0
  -22.7534  -16.6386   22.3240 C   0  0  0  0  0  0  0  0  0  1  0  0
  -22.4440  -22.8542   16.2070 C   0  0  1  0  0  0  0  0  0  0  0  0
  -25.2807  -21.3894   14.1631 C   0  0  2  0  0  0  0  0  0  0  0  0
  -21.2708  -23.6043   15.5155 C   0  0  0  0  0  0  0  0  0  0  0  0
  -29.5740  -20.6721   20.0666 N   0  0  0  0  0  0  0  0  0  0  0  0
  -30.2061  -19.8199   20.8915 N   0  0  0  0  0  0  0  0  0  0  0  0
  -22.8840  -22.9048   18.6417 N   0  0  0  0  0  0  0  0  0  0  0  0
  -29.0839  -16.2866   19.9720 N   0  0  0  0  0  0  0  0  0  0  0  0
  -31.3455  -19.6927   22.9642 N   0  0  0  0  0  0  0  0  0  0  0  0
  -30.2147  -24.0546   22.6630 N   0  0  0  0  0  0  0  0  0  0  0  0
  -21.9429  -25.3213   21.0922 N   0  0  0  0  0  0  0  0  0  0  0  0
  -23.3655  -14.3305   22.5725 N   0  0  0  0  0  0  0  0  0  0  0  0
  -23.5986  -22.6267   15.3447 N   0  0  0  0  0  0  0  0  0  0  0  0
  -28.7229  -13.9759   20.3294 N   0  0  0  0  0  0  0  0  0  0  0  0
  -26.2282  -20.2918   14.5072 N   0  3  0  0  0  0  0  0  0  0  0  0
  -31.2778  -22.4921   23.9618 O   0  0  0  0  0  0  0  0  0  0  0  0
  -20.8583  -23.4351   20.2626 O   0  0  0  0  0  0  0  0  0  0  0  0
  -23.4233  -24.7248   17.2879 O   0  0  0  0  0  0  0  0  0  0  0  0
  -21.8749  -14.9150   20.8858 O   0  0  0  0  0  0  0  0  0  0  0  0
  -23.6117  -20.3162   15.5415 O   0  0  0  0  0  0  0  0  0  0  0  0
  -27.9584  -15.5145   21.8469 O   0  0  0  0  0  0  0  0  0  0  0  0
  -27.4323  -26.4539   18.4752 O   0  0  0  0  0  0  0  0  0  0  0  0
  -21.9709  -17.5334   21.5345 O   0  0  0  0  0  0  0  0  0  1  0  0
  -24.4781  -29.7371   21.7764 F   0  0  0  0  0  0  0  0  0  0  0  0
  -28.5728  -27.6153   20.7098 F   0  0  0  0  0  0  0  0  0  0  0  0
  -27.6990  -11.4408   18.3631 Cl  0  0  0  0  0  0  0  0  0  0  0  0
  1  2  1  0  0  0  0
  1  5  2  0  0  0  0
  2  6  2  0  0  0  0
  3  9  2  0  0  0  0
  3 18  1  0  0  0  0
  4 10  1  0  0  0  0
  4 18  2  0  0  0  0
  5 20  1  0  0  0  0
  6 22  1  0  0  0  0
  7 11  2  0  0  0  0
  7 21  1  0  0  0  0
  8 14  2  0  0  0  0
  8 24  1  0  0  0  0
  9 26  1  0  0  0  0
 10 26  2  0  0  0  0
 11 27  1  0  0  0  0
 12 13  2  0  0  0  0
 12 28  1  0  0  0  0
 13 29  1  0  0  0  0
 14 31  1  0  0  0  0
 15 23  1  0  0  0  0
 15 27  2  0  0  0  0
 16 24  2  0  0  0  0
 16 25  1  0  0  0  0
 17 29  2  0  0  0  0
 17 30  1  0  0  0  0
 18 32  1  0  0  0  0
 19 32  1  0  0  0  0
 19 33  2  0  0  0  0
 19 34  1  0  0  0  0
 20 22  2  0  0  0  0
 20 40  1  0  0  0  0
 21 23  2  0  0  0  0
 21 41  1  0  0  0  0
 22 49  1  0  0  0  0
 23 42  1  0  0  0  0
 24 57  1  0  0  0  0
 25 31  2  0  0  0  0
 25 58  1  0  0  0  0
 26 80  1  0  0  0  0
 27 81  1  0  0  0  0
 28 30  2  0  0  0  0
 28 80  1  0  0  0  0
 29 82  1  0  0  0  0
 30 83  1  0  0  0  0
 31 84  1  0  0  0  0
 32 63  2  0  0  0  0
 33 64  1  0  0  0  0
 33 67  1  0  0  0  0
 34 68  1  0  0  0  0
 34 74  2  0  0  0  0
 35 50  1  0  0  0  0
 35 69  1  0  0  0  0
 35 75  2  0  0  0  0
 36 60  1  0  0  0  0
 36 65  1  0  0  0  0
 36 76  2  0  0  0  0
 37 59  1  0  0  0  0
 37 70  1  0  0  0  0
 37 77  2  0  0  0  0
 38 61  1  0  0  0  0
 38 71  1  0  0  0  0
 38 78  2  0  0  0  0
 39 66  1  0  0  0  0
 39 72  1  0  0  0  0
 39 79  2  0  0  0  0
 40 43  1  0  0  0  0
 41 50  1  0  0  0  0
 42 65  1  0  0  0  0
 43 45  1  0  0  0  0
 44 46  1  0  0  0  0
 44 47  1  0  0  0  0
 45 49  1  0  0  0  0
 46 51  1  0  0  0  0
 47 66  1  0  0  0  0
 48 51  1  0  0  0  0
 48 66  1  0  0  0  0
 49 69  1  0  0  0  0
 50 65  1  0  0  0  0
 51 64  1  0  0  0  0
 52 61  1  0  0  0  0
 53 62  1  0  0  0  0
 54 62  1  0  0  0  0
 55 62  1  0  0  0  0
 56 73  1  0  0  0  0
 57 70  1  0  0  0  0
 58 72  1  0  0  0  0
 59 81  1  0  0  0  0
 60 62  1  0  0  0  0
 60 71  1  0  0  0  0
 61 73  1  0  0  0  0
 63 64  1  0  0  0  0
M  CHG  1  73   1
M  ISO  4  39 100  59 101  72 100  81 101
M  END
> <Batch ID>
0044

> <Smiles>
CNC(C)C(=O)NC(C(=O)N1Cc2cc([101O:1][101CH2:1]C(=O)NCc3ccc(Cl)c(C[100NH:0][100C:0](=O)N4CCCC(n5nc(-c6ccc(Oc7ccc(F)cc7F)cc6)c(C(N)=O)c5N)C4)c3)ccc2CC1C(=O)NC1CCCc2ccccc21)C(C)(C)C

> <Shape>
0.203

> <Color>
0.064

> <Negative vol penalty>
0.000

$$$$

  -OEChem-04042322183D

 87 96  0     1  0  0  0  0  0999 V2000
  -18.6935  -32.3743   19.8333 C   0  0  0  0  0  0  0  0  0  0  0  0
  -19.9666  -31.9574   19.4579 C   0  0  0  0  0  0  0  0  0  0  0  0
  -25.3575  -14.8333   19.9377 C   0  0  0  0  0  0  0  0  0  0  0  0
  -24.5891  -15.9548   21.9349 C   0  0  0  0  0  0  0  0  0  0  0  0
  -18.2580  -32.1865   21.1444 C   0  0  0  0  0  0  0  0  0  0  0  0
  -20.8054  -31.3534   20.3938 C   0  0  0  0  0  0  0  0  0  0  0  0
  -24.8643  -26.8860   19.3579 C   0  0  0  0  0  0  0  0  0  0  0  0
  -32.3928  -22.2561   17.8835 C   0  0  0  0  0  0  0  0  0  0  0  0
  -24.3844  -13.8499   20.1155 C   0  0  0  0  0  0  0  0  0  0  0  0
  -23.6160  -14.9715   22.1127 C   0  0  0  0  0  0  0  0  0  0  0  0
  -26.2435  -26.9004   19.1546 C   0  0  0  0  0  0  0  0  0  0  0  0
  -23.9438  -11.0998   22.0305 C   0  0  0  0  0  0  0  0  0  0  0  0
  -24.3311   -9.7694   21.8706 C   0  0  0  0  0  0  0  0  0  0  0  0
  -33.4602  -22.6087   18.7093 C   0  0  0  0  0  0  0  0  0  0  0  0
  -26.5872  -26.4219   21.4938 C   0  0  0  0  0  0  0  0  0  0  0  0
  -31.6921  -24.5669   17.8025 C   0  0  0  0  0  0  0  0  0  0  0  0
  -22.7244   -9.5163   20.0841 C   0  0  0  0  0  0  0  0  0  0  0  0
  -25.4599  -15.8857   20.8474 C   0  0  0  0  0  0  0  0  0  0  0  0
  -27.8607  -16.7193   20.6257 C   0  0  0  0  0  0  0  0  0  0  0  0
  -19.0883  -31.5711   22.0944 C   0  0  0  0  0  0  0  0  0  0  0  0
  -24.3355  -26.6498   20.6350 C   0  0  0  0  0  0  0  0  0  0  0  0
  -20.3811  -31.1584   21.7192 C   0  0  0  0  0  0  0  0  0  0  0  0
  -25.2009  -26.4025   21.7102 C   0  0  0  0  0  0  0  0  0  0  0  0
  -31.5088  -23.2353   17.4300 C   0  0  0  0  0  0  0  0  0  0  0  0
  -32.7595  -24.9195   18.6284 C   0  0  0  0  0  0  0  0  0  0  0  0
  -23.5136  -13.9190   21.2030 C   0  0  0  0  0  0  0  0  0  0  0  0
  -27.1052  -26.6712   20.2232 C   0  0  0  0  0  0  0  0  0  0  0  0
  -22.9467  -11.6385   21.2173 C   0  0  0  0  0  0  0  0  0  0  0  0
  -23.7215   -8.9777   20.8974 C   0  0  0  0  0  0  0  0  0  0  0  0
  -22.3371  -10.8468   20.2441 C   0  0  0  0  0  0  0  0  0  0  0  0
  -33.6435  -23.9403   19.0818 C   0  0  0  0  0  0  0  0  0  0  0  0
  -26.4653  -16.9016   20.6646 C   0  0  0  0  0  0  0  0  0  0  0  0
  -28.3665  -17.9815   20.4322 C   0  0  0  0  0  0  0  0  0  0  0  0
  -31.3920  -26.3188   20.9354 C   0  0  0  0  0  0  0  0  0  0  0  0
  -28.6307  -15.5166   20.7531 C   0  0  0  0  0  0  0  0  0  0  0  0
  -22.5450  -28.3165   22.6648 C   0  0  0  0  0  0  0  0  0  0  0  0
  -22.5736  -25.5480   24.3551 C   0  0  0  0  0  0  0  0  0  0  0  0
  -24.1334  -22.5929   25.0487 C   0  0  0  0  0  0  0  0  0  0  0  0
  -28.2542  -22.9260   17.8466 C   0  0  0  0  0  0  0  0  0  0  0  0
  -18.5913  -31.4324   23.5116 C   0  0  0  0  0  0  0  0  0  0  0  0
  -22.8449  -26.6111   20.8324 C   0  0  0  0  0  0  0  0  0  0  0  0
  -24.6832  -26.1238   23.0968 C   0  0  0  0  0  0  0  0  0  0  0  0
  -30.2116  -26.9450   21.6585 C   0  0  0  0  0  0  0  0  0  0  0  0
  -19.4020  -30.4453   24.3475 C   0  0  0  0  0  0  0  0  0  0  0  0
  -26.1099  -22.5030   20.6573 C   0  0  0  0  0  0  0  0  0  0  0  0
  -20.8962  -30.6885   24.1605 C   0  0  0  0  0  0  0  0  0  0  0  0
  -26.1215  -20.9931   20.9023 C   0  0  0  0  0  0  0  0  0  0  0  0
  -29.9215  -28.5782   19.8090 C   0  0  0  0  0  0  0  0  0  0  0  0
  -26.1604  -22.8333   19.1672 C   0  0  0  0  0  0  0  0  0  0  0  0
  -30.9167  -27.8066   18.9598 C   0  0  0  0  0  0  0  0  0  0  0  0
  -27.2859  -20.6965   18.6763 C   0  0  0  0  0  0  0  0  0  0  0  0
  -21.3110  -30.4768   22.6994 C   0  0  1  0  0  0  0  0  0  0  0  0
  -22.4265  -26.8698   22.2765 C   0  0  1  0  0  0  0  0  0  0  0  0
  -27.2926  -20.3146   20.1664 C   0  0  2  0  0  0  0  0  0  0  0  0
  -29.2039  -27.6445   20.7646 C   0  0  1  0  0  0  0  0  0  1  0  0
  -24.4769  -20.3230   26.0620 C   0  0  0  0  0  0  0  0  0  0  0  0
  -23.5602  -27.1648   26.7473 C   0  0  0  0  0  0  0  0  0  0  0  0
  -24.2428  -25.0137   27.8312 C   0  0  0  0  0  0  0  0  0  0  0  0
  -21.8425  -25.4321   27.2963 C   0  0  0  0  0  0  0  0  0  0  0  0
  -22.7177  -21.2560   22.8200 C   0  0  0  0  0  0  0  0  0  0  0  0
  -32.9224  -26.3635   19.0057 C   0  0  0  0  0  0  0  0  0  0  0  0
  -30.3674  -22.8578   16.5470 C   0  0  0  0  0  0  0  0  0  0  0  0
  -23.4657  -24.9535   25.4180 C   0  0  1  0  0  0  0  0  0  0  0  0
  -23.6031  -21.1745   25.1541 C   0  0  2  0  0  0  0  0  0  0  0  0
  -23.2879  -25.6482   26.7975 C   0  0  0  0  0  0  0  0  0  0  0  0
  -26.1076  -18.1789   20.5085 N   0  0  0  0  0  0  0  0  0  0  0  0
  -27.2855  -18.8108   20.3697 N   0  0  0  0  0  0  0  0  0  0  0  0
  -31.7567  -26.8772   19.7128 N   0  0  0  0  0  0  0  0  0  0  0  0
  -23.2181  -26.1027   23.2404 N   0  0  0  0  0  0  0  0  0  0  0  0
  -27.2942  -22.1604   18.5288 N   0  0  0  0  0  0  0  0  0  0  0  0
  -29.6261  -18.4519   20.3112 N   0  0  0  0  0  0  0  0  0  0  0  0
  -29.0451  -15.1209   22.0322 N   0  0  0  0  0  0  0  0  0  0  0  0
  -21.4128  -29.0640   22.4026 N   0  0  0  0  0  0  0  0  0  0  0  0
  -23.1879  -23.5214   25.4298 N   0  0  0  0  0  0  0  0  0  0  0  0
  -29.2995  -22.2103   17.2759 N   0  0  0  0  0  0  0  0  0  0  0  0
  -23.5612  -20.5358   23.8083 N   0  3  0  0  0  0  0  0  0  0  0  0
  -32.0134  -25.4076   21.4902 O   0  0  0  0  0  0  0  0  0  0  0  0
  -28.9562  -14.8225   19.7602 O   0  0  0  0  0  0  0  0  0  0  0  0
  -23.5861  -28.7240   23.1666 O   0  0  0  0  0  0  0  0  0  0  0  0
  -21.3496  -25.5149   24.5050 O   0  0  0  0  0  0  0  0  0  0  0  0
  -25.2738  -22.8513   24.6700 O   0  0  0  0  0  0  0  0  0  0  0  0
  -28.1876  -24.1567   17.7576 O   0  0  0  0  0  0  0  0  0  0  0  0
  -22.5638  -12.9597   21.3767 O   0  0  0  0  0  0  0  0  0  0  0  0
  -28.4519  -26.6853   20.0277 O   0  0  0  0  0  0  0  0  0  1  0  0
  -24.0946   -7.7006   20.7430 F   0  0  0  0  0  0  0  0  0  0  0  0
  -21.3794  -11.3590   19.4590 F   0  0  0  0  0  0  0  0  0  0  0  0
  -34.9752  -24.3396   20.1046 Cl  0  0  0  0  0  0  0  0  0  0  0  0
  1  2  1  0  0  0  0
  1  5  2  0  0  0  0
  2  6  2  0  0  0  0
  3  9  2  0  0  0  0
  3 18  1  0  0  0  0
  4 10  1  0  0  0  0
  4 18  2  0  0  0  0
  5 20  1  0  0  0  0
  6 22  1  0  0  0  0
  7 11  2  0  0  0  0
  7 21  1  0  0  0  0
  8 14  2  0  0  0  0
  8 24  1  0  0  0  0
  9 26  1  0  0  0  0
 10 26  2  0  0  0  0
 11 27  1  0  0  0  0
 12 13  2  0  0  0  0
 12 28  1  0  0  0  0
 13 29  1  0  0  0  0
 14 31  1  0  0  0  0
 15 23  1  0  0  0  0
 15 27  2  0  0  0  0
 16 24  2  0  0  0  0
 16 25  1  0  0  0  0
 17 29  2  0  0  0  0
 17 30  1  0  0  0  0
 18 32  1  0  0  0  0
 19 32  1  0  0  0  0
 19 33  2  0  0  0  0
 19 35  1  0  0  0  0
 20 22  2  0  0  0  0
 20 40  1  0  0  0  0
 21 23  2  0  0  0  0
 21 41  1  0  0  0  0
 22 52  1  0  0  0  0
 23 42  1  0  0  0  0
 24 62  1  0  0  0  0
 25 31  2  0  0  0  0
 25 61  1  0  0  0  0
 26 83  1  0  0  0  0
 27 84  1  0  0  0  0
 28 30  2  0  0  0  0
 28 83  1  0  0  0  0
 29 85  1  0  0  0  0
 30 86  1  0  0  0  0
 31 87  1  0  0  0  0
 32 66  2  0  0  0  0
 33 67  1  0  0  0  0
 33 71  1  0  0  0  0
 34 43  1  0  0  0  0
 34 68  1  0  0  0  0
 34 77  2  0  0  0  0
 35 72  1  0  0  0  0
 35 78  2  0  0  0  0
 36 53  1  0  0  0  0
 36 73  1  0  0  0  0
 36 79  2  0  0  0  0
 37 63  1  0  0  0  0
 37 69  1  0  0  0  0
 37 80  2  0  0  0  0
 38 64  1  0  0  0  0
 38 74  1  0  0  0  0
 38 81  2  0  0  0  0
 39 70  1  0  0  0  0
 39 75  1  0  0  0  0
 39 82  2  0  0  0  0
 40 44  1  0  0  0  0
 41 53  1  0  0  0  0
 42 69  1  0  0  0  0
 43 55  1  0  0  0  0
 44 46  1  0  0  0  0
 45 47  1  0  0  0  0
 45 49  1  0  0  0  0
 46 52  1  0  0  0  0
 47 54  1  0  0  0  0
 48 50  1  0  0  0  0
 48 55  1  0  0  0  0
 49 70  1  0  0  0  0
 50 68  1  0  0  0  0
 51 54  1  0  0  0  0
 51 70  1  0  0  0  0
 52 73  1  0  0  0  0
 53 69  1  0  0  0  0
 54 67  1  0  0  0  0
 55 84  1  0  0  0  0
 56 64  1  0  0  0  0
 57 65  1  0  0  0  0
 58 65  1  0  0  0  0
 59 65  1  0  0  0  0
 60 76  1  0  0  0  0
 61 68  1  0  0  0  0
 62 75  1  0  0  0  0
 63 65  1  0  0  0  0
 63 74  1  0  0  0  0
 64 76  1  0  0  0  0
 66 67  1  0  0  0  0
M  CHG  1  76   1
M  ISO  4  39 100  55 101  75 100  84 101
M  END
> <Batch ID>
0044

> <Smiles>
CNC(C)C(=O)NC(C(=O)N1Cc2cc([101O:1][101CH:1]3CCN(Cc4cc(C[100NH:0][100C:0](=O)N5CCCC(n6nc(-c7ccc(Oc8ccc(F)cc8F)cc7)c(C(N)=O)c6N)C5)ccc4Cl)C(=O)C3)ccc2CC1C(=O)NC1CCCc2ccccc21)C(C)(C)C

> <Shape>
0.206

> <Color>
0.069

> <Negative vol penalty>
0.000

$$$$

  -OEChem-04042322183D

 85 93  0     1  0  0  0  0  0999 V2000
  -24.6093  -11.3330   20.0962 C   0  0  0  0  0  0  0  0  0  0  0  0
  -23.8549  -12.4931   19.9532 C   0  0  0  0  0  0  0  0  0  0  0  0
  -30.8939  -27.0542   20.6367 C   0  0  0  0  0  0  0  0  0  0  0  0
  -30.7511  -28.3572   22.6661 C   0  0  0  0  0  0  0  0  0  0  0  0
  -25.8405  -11.3796   20.7489 C   0  0  0  0  0  0  0  0  0  0  0  0
  -24.3308  -13.7003   20.4638 C   0  0  0  0  0  0  0  0  0  0  0  0
  -23.5316  -19.2804   18.0700 C   0  0  0  0  0  0  0  0  0  0  0  0
  -32.2763  -27.2386   20.6155 C   0  0  0  0  0  0  0  0  0  0  0  0
  -32.1336  -28.5416   22.6450 C   0  0  0  0  0  0  0  0  0  0  0  0
  -22.6325  -20.3056   18.3603 C   0  0  0  0  0  0  0  0  0  0  0  0
  -34.9860  -25.9449   22.1700 C   0  0  0  0  0  0  0  0  0  0  0  0
  -35.7843  -24.8329   21.9023 C   0  0  0  0  0  0  0  0  0  0  0  0
  -24.2864  -21.3476   19.7739 C   0  0  0  0  0  0  0  0  0  0  0  0
  -18.5172  -26.2842   22.0013 C   0  0  0  0  0  0  0  0  0  0  0  0
  -19.0508  -28.6357   22.1513 C   0  0  0  0  0  0  0  0  0  0  0  0
  -36.6862  -25.9483   19.9582 C   0  0  0  0  0  0  0  0  0  0  0  0
  -30.1313  -27.6136   21.6620 C   0  0  0  0  0  0  0  0  0  0  0  0
  -27.9939  -26.3786   22.3056 C   0  0  0  0  0  0  0  0  0  0  0  0
  -26.3362  -12.5897   21.2592 C   0  0  0  0  0  0  0  0  0  0  0  0
  -24.8133  -19.2753   18.6391 C   0  0  0  0  0  0  0  0  0  0  0  0
  -25.5691  -13.7628   21.1251 C   0  0  0  0  0  0  0  0  0  0  0  0
  -25.2008  -20.3225   19.4872 C   0  0  0  0  0  0  0  0  0  0  0  0
  -19.5782  -25.9888   22.8572 C   0  0  0  0  0  0  0  0  0  0  0  0
  -20.1119  -28.3403   23.0073 C   0  0  0  0  0  0  0  0  0  0  0  0
  -20.3755  -27.0168   23.3602 C   0  0  0  0  0  0  0  0  0  0  0  0
  -32.8962  -27.9823   21.6196 C   0  0  0  0  0  0  0  0  0  0  0  0
  -23.0088  -21.3379   19.2146 C   0  0  0  0  0  0  0  0  0  0  0  0
  -35.0378  -27.0587   21.3318 C   0  0  0  0  0  0  0  0  0  0  0  0
  -36.6344  -24.8346   20.7964 C   0  0  0  0  0  0  0  0  0  0  0  0
  -35.8879  -27.0604   20.2260 C   0  0  0  0  0  0  0  0  0  0  0  0
  -18.2535  -27.6076   21.6483 C   0  0  0  0  0  0  0  0  0  0  0  0
  -28.7031  -27.4239   21.6841 C   0  0  0  0  0  0  0  0  0  0  0  0
  -26.6748  -26.6522   22.0381 C   0  0  0  0  0  0  0  0  0  0  0  0
  -28.4837  -25.2604   23.0575 C   0  0  0  0  0  0  0  0  0  0  0  0
  -26.3954  -17.3237   20.5863 C   0  0  0  0  0  0  0  0  0  0  0  0
  -28.8647  -19.3314   19.9586 C   0  0  0  0  0  0  0  0  0  0  0  0
  -20.8993  -23.4318   21.2719 C   0  0  0  0  0  0  0  0  0  0  0  0
  -29.9005  -22.4345   18.9865 C   0  0  0  0  0  0  0  0  0  0  0  0
  -22.4228  -30.2509   21.6982 C   0  0  0  0  0  0  0  0  0  0  0  0
  -27.6506  -12.5816   21.9986 C   0  0  0  0  0  0  0  0  0  0  0  0
  -25.7807  -18.1763   18.2948 C   0  0  0  0  0  0  0  0  0  0  0  0
  -26.5722  -20.3743   20.1078 C   0  0  0  0  0  0  0  0  0  0  0  0
  -28.2554  -13.9713   22.1812 C   0  0  0  0  0  0  0  0  0  0  0  0
  -24.5823  -30.0024   18.8783 C   0  0  0  0  0  0  0  0  0  0  0  0
  -27.1958  -14.9550   22.6674 C   0  0  0  0  0  0  0  0  0  0  0  0
  -25.7903  -29.2291   19.4098 C   0  0  0  0  0  0  0  0  0  0  0  0
  -24.0114  -30.9503   19.9308 C   0  0  0  0  0  0  0  0  0  0  0  0
  -24.8912  -29.5436   21.7532 C   0  0  0  0  0  0  0  0  0  0  0  0
  -26.0628  -15.0961   21.6436 C   0  0  1  0  0  0  0  0  0  0  0  0
  -26.8815  -18.0012   19.3364 C   0  0  1  0  0  0  0  0  0  0  0  0
  -25.4674  -28.5337   20.7460 C   0  0  2  0  0  0  0  0  0  0  0  0
  -21.5139  -26.7001   24.2773 C   0  0  0  0  0  0  0  0  0  0  0  0
  -31.9792  -23.7875   18.6049 C   0  0  0  0  0  0  0  0  0  0  0  0
  -29.2060  -19.6529   22.9735 C   0  0  0  0  0  0  0  0  0  0  0  0
  -30.6064  -21.6800   22.5286 C   0  0  0  0  0  0  0  0  0  0  0  0
  -31.3469  -19.4478   21.6972 C   0  0  0  0  0  0  0  0  0  0  0  0
  -29.2558  -22.8323   16.1256 C   0  0  0  0  0  0  0  0  0  0  0  0
  -19.8409  -24.5562   23.2216 C   0  0  0  0  0  0  0  0  0  0  0  0
  -20.9509  -29.4592   23.5328 C   0  0  0  0  0  0  0  0  0  0  0  0
  -22.2509  -22.9603   20.7796 C   0  0  0  0  0  0  0  0  0  1  0  0
  -29.3944  -20.6013   20.5796 C   0  0  1  0  0  0  0  0  0  0  0  0
  -30.9382  -22.8778   17.9712 C   0  0  2  0  0  0  0  0  0  0  0  0
  -30.1119  -20.3438   21.9347 C   0  0  0  0  0  0  0  0  0  0  0  0
  -27.9010  -28.2963   21.0681 N   0  0  0  0  0  0  0  0  0  0  0  0
  -26.6741  -27.7998   21.3012 N   0  0  0  0  0  0  0  0  0  0  0  0
  -27.4801  -19.2734   19.7455 N   0  0  0  0  0  0  0  0  0  0  0  0
  -23.7253  -30.2282   21.1729 N   0  0  0  0  0  0  0  0  0  0  0  0
  -25.5269  -26.0206   22.3638 N   0  0  0  0  0  0  0  0  0  0  0  0
  -29.8676  -25.1307   23.2372 N   0  0  0  0  0  0  0  0  0  0  0  0
  -26.4758  -15.9448   20.5465 N   0  0  0  0  0  0  0  0  0  0  0  0
  -20.9871  -24.0221   22.5229 N   0  0  0  0  0  0  0  0  0  0  0  0
  -30.2365  -21.2301   19.5677 N   0  0  0  0  0  0  0  0  0  0  0  0
  -22.2361  -29.5356   22.8747 N   0  0  0  0  0  0  0  0  0  0  0  0
  -30.2863  -23.6169   16.8532 N   0  3  0  0  0  0  0  0  0  0  0  0
  -27.7178  -24.3927   23.5413 O   0  0  0  0  0  0  0  0  0  0  0  0
  -25.9796  -18.0019   21.5185 O   0  0  0  0  0  0  0  0  0  0  0  0
  -29.6512  -18.4272   19.6665 O   0  0  0  0  0  0  0  0  0  0  0  0
  -19.8687  -23.2923   20.6190 O   0  0  0  0  0  0  0  0  0  0  0  0
  -28.8944  -23.0927   19.2416 O   0  0  0  0  0  0  0  0  0  0  0  0
  -21.4937  -30.8589   21.1558 O   0  0  0  0  0  0  0  0  0  0  0  0
  -34.2452  -28.1622   21.5994 O   0  0  0  0  0  0  0  0  0  0  0  0
  -22.1329  -22.3395   19.5002 O   0  0  0  0  0  0  0  0  0  1  0  0
  -37.4021  -23.7672   20.5404 F   0  0  0  0  0  0  0  0  0  0  0  0
  -35.9428  -28.1279   19.4178 F   0  0  0  0  0  0  0  0  0  0  0  0
  -16.9444  -27.9724   20.5920 Cl  0  0  0  0  0  0  0  0  0  0  0  0
  1  2  1  0  0  0  0
  1  5  2  0  0  0  0
  2  6  2  0  0  0  0
  3  8  2  0  0  0  0
  3 17  1  0  0  0  0
  4  9  1  0  0  0  0
  4 17  2  0  0  0  0
  5 19  1  0  0  0  0
  6 21  1  0  0  0  0
  7 10  2  0  0  0  0
  7 20  1  0  0  0  0
  8 26  1  0  0  0  0
  9 26  2  0  0  0  0
 10 27  1  0  0  0  0
 11 12  2  0  0  0  0
 11 28  1  0  0  0  0
 12 29  1  0  0  0  0
 13 22  1  0  0  0  0
 13 27  2  0  0  0  0
 14 23  1  0  0  0  0
 14 31  2  0  0  0  0
 15 24  2  0  0  0  0
 15 31  1  0  0  0  0
 16 29  2  0  0  0  0
 16 30  1  0  0  0  0
 17 32  1  0  0  0  0
 18 32  1  0  0  0  0
 18 33  2  0  0  0  0
 18 34  1  0  0  0  0
 19 21  2  0  0  0  0
 19 40  1  0  0  0  0
 20 22  2  0  0  0  0
 20 41  1  0  0  0  0
 21 49  1  0  0  0  0
 22 42  1  0  0  0  0
 23 25  2  0  0  0  0
 23 58  1  0  0  0  0
 24 25  1  0  0  0  0
 24 59  1  0  0  0  0
 25 52  1  0  0  0  0
 26 81  1  0  0  0  0
 27 82  1  0  0  0  0
 28 30  2  0  0  0  0
 28 81  1  0  0  0  0
 29 83  1  0  0  0  0
 30 84  1  0  0  0  0
 31 85  1  0  0  0  0
 32 64  2  0  0  0  0
 33 65  1  0  0  0  0
 33 68  1  0  0  0  0
 34 69  1  0  0  0  0
 34 75  2  0  0  0  0
 35 50  1  0  0  0  0
 35 70  1  0  0  0  0
 35 76  2  0  0  0  0
 36 61  1  0  0  0  0
 36 66  1  0  0  0  0
 36 77  2  0  0  0  0
 37 60  1  0  0  0  0
 37 71  1  0  0  0  0
 37 78  2  0  0  0  0
 38 62  1  0  0  0  0
 38 72  1  0  0  0  0
 38 79  2  0  0  0  0
 39 67  1  0  0  0  0
 39 73  1  0  0  0  0
 39 80  2  0  0  0  0
 40 43  1  0  0  0  0
 41 50  1  0  0  0  0
 42 66  1  0  0  0  0
 43 45  1  0  0  0  0
 44 46  1  0  0  0  0
 44 47  1  0  0  0  0
 45 49  1  0  0  0  0
 46 51  1  0  0  0  0
 47 67  1  0  0  0  0
 48 51  1  0  0  0  0
 48 67  1  0  0  0  0
 49 70  1  0  0  0  0
 50 66  1  0  0  0  0
 51 65  1  0  0  0  0
 53 62  1  0  0  0  0
 54 63  1  0  0  0  0
 55 63  1  0  0  0  0
 56 63  1  0  0  0  0
 57 74  1  0  0  0  0
 58 71  1  0  0  0  0
 59 73  1  0  0  0  0
 60 82  1  0  0  0  0
 61 63  1  0  0  0  0
 61 72  1  0  0  0  0
 62 74  1  0  0  0  0
 64 65  1  0  0  0  0
M  CHG  1  74   1
M  ISO  4  39 100  60 101  73 100  82 101
M  END
> <Batch ID>
0044

> <Smiles>
CNC(C)C(=O)NC(C(=O)N1Cc2cc([101O:1][101CH2:1]C(=O)NCc3cc(Cl)cc(C[100NH:0][100C:0](=O)N4CCCC(n5nc(-c6ccc(Oc7ccc(F)cc7F)cc6)c(C(N)=O)c5N)C4)c3C)ccc2CC1C(=O)NC1CCCc2ccccc21)C(C)(C)C

> <Shape>
0.223

> <Color>
0.081

> <Negative vol penalty>
0.000

$$$$

  -OEChem-04042322183D

 84 92  0     1  0  0  0  0  0999 V2000
  -32.8403  -34.5304   17.0626 C   0  0  0  0  0  0  0  0  0  0  0  0
  -32.7058  -33.4923   17.9790 C   0  0  0  0  0  0  0  0  0  0  0  0
  -24.2324   -9.4015   19.9261 C   0  0  0  0  0  0  0  0  0  0  0  0
  -24.5554   -9.7992   22.2872 C   0  0  0  0  0  0  0  0  0  0  0  0
  -32.0116  -35.6482   17.1506 C   0  0  0  0  0  0  0  0  0  0  0  0
  -31.7431  -33.5720   18.9846 C   0  0  0  0  0  0  0  0  0  0  0  0
  -29.1666  -29.2497   19.5544 C   0  0  0  0  0  0  0  0  0  0  0  0
  -29.9549  -20.0750   23.8421 C   0  0  0  0  0  0  0  0  0  0  0  0
  -29.8277  -18.9951   22.9685 C   0  0  0  0  0  0  0  0  0  0  0  0
  -23.8973   -8.0746   20.1954 C   0  0  0  0  0  0  0  0  0  0  0  0
  -24.2202   -8.4722   22.5565 C   0  0  0  0  0  0  0  0  0  0  0  0
  -29.7976  -28.2193   20.2500 C   0  0  0  0  0  0  0  0  0  0  0  0
  -21.4071   -6.6152   22.7980 C   0  0  0  0  0  0  0  0  0  0  0  0
  -20.5276   -6.3718   23.8529 C   0  0  0  0  0  0  0  0  0  0  0  0
  -28.5441  -28.7957   22.2289 C   0  0  0  0  0  0  0  0  0  0  0  0
  -27.5520  -20.1704   24.0740 C   0  0  0  0  0  0  0  0  0  0  0  0
  -22.2173   -5.0422   24.9549 C   0  0  0  0  0  0  0  0  0  0  0  0
  -24.5615  -10.2638   20.9720 C   0  0  0  0  0  0  0  0  0  0  0  0
  -24.0342  -12.7360   20.6286 C   0  0  0  0  0  0  0  0  0  0  0  0
  -31.0318  -35.7372   18.1519 C   0  0  0  0  0  0  0  0  0  0  0  0
  -28.2261  -30.0692   20.1949 C   0  0  0  0  0  0  0  0  0  0  0  0
  -30.9014  -34.6926   19.0869 C   0  0  0  0  0  0  0  0  0  0  0  0
  -27.9007  -29.8342   21.5384 C   0  0  0  0  0  0  0  0  0  0  0  0
  -28.8170  -20.6627   24.3949 C   0  0  0  0  0  0  0  0  0  0  0  0
  -28.5627  -18.5029   22.6476 C   0  0  0  0  0  0  0  0  0  0  0  0
  -23.8912   -7.6099   21.5106 C   0  0  0  0  0  0  0  0  0  0  0  0
  -29.4886  -27.9940   21.5883 C   0  0  0  0  0  0  0  0  0  0  0  0
  -22.6917   -6.0720   22.8215 C   0  0  0  0  0  0  0  0  0  0  0  0
  -20.9327   -5.5853   24.9314 C   0  0  0  0  0  0  0  0  0  0  0  0
  -23.0968   -5.2856   23.9000 C   0  0  0  0  0  0  0  0  0  0  0  0
  -27.4248  -19.0905   23.2004 C   0  0  0  0  0  0  0  0  0  0  0  0
  -24.9084  -11.6345   20.6944 C   0  0  0  0  0  0  0  0  0  0  0  0
  -24.8482  -13.8035   20.3383 C   0  0  0  0  0  0  0  0  0  0  0  0
  -29.8300  -24.9730   23.4858 C   0  0  0  0  0  0  0  0  0  0  0  0
  -29.3235  -26.0008   22.8009 C   0  0  0  0  0  0  0  0  0  1  0  0
  -22.6134  -12.7894   20.8135 C   0  0  0  0  0  0  0  0  0  0  0  0
  -28.9239  -23.9307   24.0369 C   0  0  0  0  0  0  0  0  0  0  0  0
  -28.0356  -33.1725   20.8559 C   0  0  0  0  0  0  0  0  0  0  0  0
  -25.0619  -32.3748   21.8771 C   0  0  0  0  0  0  0  0  0  0  0  0
  -22.9507  -29.9625   23.0479 C   0  0  0  0  0  0  0  0  0  0  0  0
  -29.5192  -16.7264   21.1391 C   0  0  0  0  0  0  0  0  0  0  0  0
  -30.1910  -36.9865   18.2358 C   0  0  0  0  0  0  0  0  0  0  0  0
  -27.5346  -31.1594   19.4232 C   0  0  0  0  0  0  0  0  0  0  0  0
  -26.8831  -30.6727   22.2663 C   0  0  0  0  0  0  0  0  0  0  0  0
  -28.9451  -36.8251   19.1029 C   0  0  0  0  0  0  0  0  0  0  0  0
  -29.7035  -13.9521   18.9150 C   0  0  0  0  0  0  0  0  0  0  0  0
  -29.2962  -36.1394   20.4195 C   0  0  0  0  0  0  0  0  0  0  0  0
  -28.4005  -13.1925   19.1743 C   0  0  0  0  0  0  0  0  0  0  0  0
  -30.2740  -14.5539   20.1980 C   0  0  0  0  0  0  0  0  0  0  0  0
  -28.0346  -14.6277   21.2220 C   0  0  0  0  0  0  0  0  0  0  0  0
  -29.8524  -34.7311   20.1769 C   0  0  1  0  0  0  0  0  0  0  0  0
  -26.9708  -32.2592   20.3176 C   0  0  1  0  0  0  0  0  0  0  0  0
  -27.3877  -14.0586   19.9487 C   0  0  2  0  0  0  0  0  0  0  0  0
  -20.5908  -29.6205   23.8299 C   0  0  0  0  0  0  0  0  0  0  0  0
  -25.7494  -33.7156   24.5304 C   0  0  0  0  0  0  0  0  0  0  0  0
  -23.7914  -32.5374   25.5533 C   0  0  0  0  0  0  0  0  0  0  0  0
  -23.4341  -34.1697   23.7011 C   0  0  0  0  0  0  0  0  0  0  0  0
  -22.3954  -28.0139   20.8908 C   0  0  0  0  0  0  0  0  0  0  0  0
  -28.9546  -21.8252   25.3350 C   0  0  0  0  0  0  0  0  0  0  0  0
  -24.4680  -31.9202   23.1885 C   0  0  1  0  0  0  0  0  0  0  0  0
  -21.5399  -29.5754   22.6425 C   0  0  2  0  0  0  0  0  0  0  0  0
  -24.3814  -33.0710   24.2304 C   0  0  0  0  0  0  0  0  0  0  0  0
  -26.1803  -11.9711   20.4642 N   0  0  0  0  0  0  0  0  0  0  0  0
  -26.1112  -13.2962   20.2509 N   0  0  0  0  0  0  0  0  0  0  0  0
  -26.2389  -31.7305   21.4704 N   0  0  0  0  0  0  0  0  0  0  0  0
  -29.2599  -15.3648   20.8756 N   0  0  0  0  0  0  0  0  0  0  0  0
  -24.5997  -15.1172   20.1518 N   0  0  0  0  0  0  0  0  0  0  0  0
  -21.9325  -11.5999   21.1062 N   0  0  0  0  0  0  0  0  0  0  0  0
  -28.4692  -17.4040   21.7580 N   0  0  0  0  0  0  0  0  0  0  0  0
  -29.6216  -22.9457   24.7146 N   0  0  0  0  0  0  0  0  0  0  0  0
  -28.7784  -33.8079   19.8792 N   0  0  0  0  0  0  0  0  0  0  0  0
  -23.1833  -31.3092   22.8648 N   0  0  0  0  0  0  0  0  0  0  0  0
  -21.5230  -28.1957   22.0794 N   0  3  0  0  0  0  0  0  0  0  0  0
  -21.9646  -13.8576   20.7056 O   0  0  0  0  0  0  0  0  0  0  0  0
  -27.7066  -23.9672   23.8888 O   0  0  0  0  0  0  0  0  0  0  0  0
  -28.1723  -33.2929   22.0677 O   0  0  0  0  0  0  0  0  0  0  0  0
  -24.4982  -33.2636   21.2338 O   0  0  0  0  0  0  0  0  0  0  0  0
  -23.7637  -29.1521   23.4869 O   0  0  0  0  0  0  0  0  0  0  0  0
  -30.5832  -17.2593   20.8135 O   0  0  0  0  0  0  0  0  0  0  0  0
  -23.5640   -6.3152   21.7738 O   0  0  0  0  0  0  0  0  0  0  0  0
  -30.1035  -26.9893   22.2697 O   0  0  0  0  0  0  0  0  0  1  0  0
  -20.0885   -5.3530   25.9451 F   0  0  0  0  0  0  0  0  0  0  0  0
  -24.3300   -4.7620   23.9287 F   0  0  0  0  0  0  0  0  0  0  0  0
  -25.8393  -18.5127   22.8295 Cl  0  0  0  0  0  0  0  0  0  0  0  0
  1  2  1  0  0  0  0
  1  5  2  0  0  0  0
  2  6  2  0  0  0  0
  3 10  2  0  0  0  0
  3 18  1  0  0  0  0
  4 11  1  0  0  0  0
  4 18  2  0  0  0  0
  5 20  1  0  0  0  0
  6 22  1  0  0  0  0
  7 12  2  0  0  0  0
  7 21  1  0  0  0  0
  8  9  2  0  0  0  0
  8 24  1  0  0  0  0
  9 25  1  0  0  0  0
 10 26  1  0  0  0  0
 11 26  2  0  0  0  0
 12 27  1  0  0  0  0
 13 14  2  0  0  0  0
 13 28  1  0  0  0  0
 14 29  1  0  0  0  0
 15 23  1  0  0  0  0
 15 27  2  0  0  0  0
 16 24  2  0  0  0  0
 16 31  1  0  0  0  0
 17 29  2  0  0  0  0
 17 30  1  0  0  0  0
 18 32  1  0  0  0  0
 19 32  1  0  0  0  0
 19 33  2  0  0  0  0
 19 36  1  0  0  0  0
 20 22  2  0  0  0  0
 20 42  1  0  0  0  0
 21 23  2  0  0  0  0
 21 43  1  0  0  0  0
 22 51  1  0  0  0  0
 23 44  1  0  0  0  0
 24 59  1  0  0  0  0
 25 31  2  0  0  0  0
 25 69  1  0  0  0  0
 26 80  1  0  0  0  0
 27 81  1  0  0  0  0
 28 30  2  0  0  0  0
 28 80  1  0  0  0  0
 29 82  1  0  0  0  0
 30 83  1  0  0  0  0
 31 84  1  0  0  0  0
 32 63  2  0  0  0  0
 33 64  1  0  0  0  0
 33 67  1  0  0  0  0
 34 35  2  0  0  0  0
 34 37  1  0  0  0  0
 35 81  1  0  0  0  0
 36 68  1  0  0  0  0
 36 74  2  0  0  0  0
 37 70  1  0  0  0  0
 37 75  2  0  0  0  0
 38 52  1  0  0  0  0
 38 71  1  0  0  0  0
 38 76  2  0  0  0  0
 39 60  1  0  0  0  0
 39 65  1  0  0  0  0
 39 77  2  0  0  0  0
 40 61  1  0  0  0  0
 40 72  1  0  0  0  0
 40 78  2  0  0  0  0
 41 66  1  0  0  0  0
 41 69  1  0  0  0  0
 41 79  2  0  0  0  0
 42 45  1  0  0  0  0
 43 52  1  0  0  0  0
 44 65  1  0  0  0  0
 45 47  1  0  0  0  0
 46 48  1  0  0  0  0
 46 49  1  0  0  0  0
 47 51  1  0  0  0  0
 48 53  1  0  0  0  0
 49 66  1  0  0  0  0
 50 53  1  0  0  0  0
 50 66  1  0  0  0  0
 51 71  1  0  0  0  0
 52 65  1  0  0  0  0
 53 64  1  0  0  0  0
 54 61  1  0  0  0  0
 55 62  1  0  0  0  0
 56 62  1  0  0  0  0
 57 62  1  0  0  0  0
 58 73  1  0  0  0  0
 59 70  1  0  0  0  0
 60 62  1  0  0  0  0
 60 72  1  0  0  0  0
 61 73  1  0  0  0  0
 63 64  1  0  0  0  0
M  CHG  1  73   1
M  ISO  4  35 101  41 100  69 100  81 101
M  END
> <Batch ID>
0044

> <Smiles>
CNC(C)C(=O)NC(C(=O)N1Cc2cc([101O:1][101CH:1]=CC(=O)NCc3ccc([100NH:0][100C:0](=O)N4CCCC(n5nc(-c6ccc(Oc7ccc(F)cc7F)cc6)c(C(N)=O)c5N)C4)c(Cl)c3)ccc2CC1C(=O)NC1CCCc2ccccc21)C(C)(C)C

> <Shape>
0.250

> <Color>
0.115

> <Negative vol penalty>
0.000

$$$$

  -OEChem-04042322183D

 87 96  0     1  0  0  0  0  0999 V2000
  -23.9317  -38.0754   24.0751 C   0  0  0  0  0  0  0  0  0  0  0  0
  -24.0777  -37.5018   22.8171 C   0  0  0  0  0  0  0  0  0  0  0  0
  -23.7344   -8.4130   19.0972 C   0  0  0  0  0  0  0  0  0  0  0  0
  -24.6220   -8.8753   21.2962 C   0  0  0  0  0  0  0  0  0  0  0  0
  -24.2801  -37.3499   25.2124 C   0  0  0  0  0  0  0  0  0  0  0  0
  -24.5609  -36.1983   22.6966 C   0  0  0  0  0  0  0  0  0  0  0  0
  -26.9122  -29.5323   19.0555 C   0  0  0  0  0  0  0  0  0  0  0  0
  -25.0739  -19.8462   18.0030 C   0  0  0  0  0  0  0  0  0  0  0  0
  -25.6473  -18.5769   18.0786 C   0  0  0  0  0  0  0  0  0  0  0  0
  -22.6159   -7.8124   19.6749 C   0  0  0  0  0  0  0  0  0  0  0  0
  -23.5035   -8.2747   21.8739 C   0  0  0  0  0  0  0  0  0  0  0  0
  -27.6576  -28.3683   19.2382 C   0  0  0  0  0  0  0  0  0  0  0  0
  -21.0545   -6.5434   23.9270 C   0  0  0  0  0  0  0  0  0  0  0  0
  -21.2667   -5.6626   24.9875 C   0  0  0  0  0  0  0  0  0  0  0  0
  -26.3261  -27.8270   21.1756 C   0  0  0  0  0  0  0  0  0  0  0  0
  -22.6100   -4.2582   23.5522 C   0  0  0  0  0  0  0  0  0  0  0  0
  -24.7375   -8.9444   19.9078 C   0  0  0  0  0  0  0  0  0  0  0  0
  -26.8272   -8.9657   18.4449 C   0  0  0  0  0  0  0  0  0  0  0  0
  -24.7794  -36.0415   25.1042 C   0  0  0  0  0  0  0  0  0  0  0  0
  -25.8735  -29.8584   19.9394 C   0  0  0  0  0  0  0  0  0  0  0  0
  -24.8954  -35.4412   23.8340 C   0  0  0  0  0  0  0  0  0  0  0  0
  -25.5674  -28.9944   21.0004 C   0  0  0  0  0  0  0  0  0  0  0  0
  -25.8822  -20.9814   18.0636 C   0  0  0  0  0  0  0  0  0  0  0  0
  -27.2639  -20.8474   18.1999 C   0  0  0  0  0  0  0  0  0  0  0  0
  -27.0290  -18.4429   18.2150 C   0  0  0  0  0  0  0  0  0  0  0  0
  -22.5004   -7.7433   21.0633 C   0  0  0  0  0  0  0  0  0  0  0  0
  -27.3665  -27.5169   20.3001 C   0  0  0  0  0  0  0  0  0  0  0  0
  -21.6200   -6.2816   22.6790 C   0  0  0  0  0  0  0  0  0  0  0  0
  -22.0445   -4.5200   24.8001 C   0  0  0  0  0  0  0  0  0  0  0  0
  -22.3978   -5.1390   22.4916 C   0  0  0  0  0  0  0  0  0  0  0  0
  -27.8373  -19.5781   18.2756 C   0  0  0  0  0  0  0  0  0  0  0  0
  -25.8935   -9.5645   19.3117 C   0  0  0  0  0  0  0  0  0  0  0  0
  -27.7251   -9.9662   18.1633 C   0  0  0  0  0  0  0  0  0  0  0  0
  -27.8886  -24.3232   19.2647 C   0  0  0  0  0  0  0  0  0  0  0  0
  -26.8783   -7.6250   17.9393 C   0  0  0  0  0  0  0  0  0  0  0  0
  -25.3019  -32.2617   21.9396 C   0  0  0  0  0  0  0  0  0  0  0  0
  -22.4382  -30.7781   22.2868 C   0  0  0  0  0  0  0  0  0  0  0  0
  -21.2517  -27.3860   22.6079 C   0  0  0  0  0  0  0  0  0  0  0  0
  -26.8884  -15.9202   18.2431 C   0  0  0  0  0  0  0  0  0  0  0  0
  -25.1337  -35.2988   26.3684 C   0  0  0  0  0  0  0  0  0  0  0  0
  -25.0616  -31.1042   19.7129 C   0  0  0  0  0  0  0  0  0  0  0  0
  -24.4492  -29.2887   21.9655 C   0  0  0  0  0  0  0  0  0  0  0  0
  -26.0466  -34.1027   26.1193 C   0  0  0  0  0  0  0  0  0  0  0  0
  -26.8622  -23.1116   21.7275 C   0  0  0  0  0  0  0  0  0  0  0  0
  -29.0441  -13.8840   20.6785 C   0  0  0  0  0  0  0  0  0  0  0  0
  -25.4871  -33.2477   24.9920 C   0  0  0  0  0  0  0  0  0  0  0  0
  -27.5491  -24.4601   21.7815 C   0  0  0  0  0  0  0  0  0  0  0  0
  -29.0251  -12.5337   19.9658 C   0  0  0  0  0  0  0  0  0  0  0  0
  -27.5067  -22.2530   20.6540 C   0  0  0  0  0  0  0  0  0  0  0  0
  -28.7651  -15.0422   19.7289 C   0  0  0  0  0  0  0  0  0  0  0  0
  -26.8846  -13.5557   19.0149 C   0  0  0  0  0  0  0  0  0  0  0  0
  -25.4477  -34.0360   23.6767 C   0  0  1  0  0  0  0  0  0  0  0  0
  -27.3878  -25.1507   20.4416 C   0  0  1  0  0  0  0  0  0  1  0  0
  -24.3606  -31.5980   20.9747 C   0  0  1  0  0  0  0  0  0  0  0  0
  -27.9303  -12.4373   18.8848 C   0  0  2  0  0  0  0  0  0  0  0  0
  -25.2406  -22.3281   17.9803 C   0  0  0  0  0  0  0  0  0  0  0  0
  -19.0388  -26.3677   22.0050 C   0  0  0  0  0  0  0  0  0  0  0  0
  -21.7163  -31.3342   25.1988 C   0  0  0  0  0  0  0  0  0  0  0  0
  -20.4863  -29.1539   25.2375 C   0  0  0  0  0  0  0  0  0  0  0  0
  -19.7560  -30.9685   23.6896 C   0  0  0  0  0  0  0  0  0  0  0  0
  -22.5301  -25.3325   20.9026 C   0  0  0  0  0  0  0  0  0  0  0  0
  -28.1141  -22.0832   18.2627 C   0  0  0  0  0  0  0  0  0  0  0  0
  -21.8925  -29.7080   23.2012 C   0  0  1  0  0  0  0  0  0  0  0  0
  -20.4789  -26.5915   21.5705 C   0  0  2  0  0  0  0  0  0  0  0  0
  -20.9903  -30.2921   24.3248 C   0  0  0  0  0  0  0  0  0  0  0  0
  -26.1724  -10.8460   19.5643 N   0  0  0  0  0  0  0  0  0  0  0  0
  -27.2917  -11.0607   18.8521 N   0  0  0  0  0  0  0  0  0  0  0  0
  -27.7499  -22.9391   19.3840 N   0  0  0  0  0  0  0  0  0  0  0  0
  -23.6882  -30.5220   21.7057 N   0  0  0  0  0  0  0  0  0  0  0  0
  -27.5154  -14.8800   18.9719 N   0  0  0  0  0  0  0  0  0  0  0  0
  -28.8353  -10.0077   17.3964 N   0  0  0  0  0  0  0  0  0  0  0  0
  -27.5838   -6.6610   18.6723 N   0  0  0  0  0  0  0  0  0  0  0  0
  -27.5744  -17.1367   18.2895 N   0  0  0  0  0  0  0  0  0  0  0  0
  -24.7228  -33.2687   22.6880 N   0  0  0  0  0  0  0  0  0  0  0  0
  -21.2230  -28.7384   22.3408 N   0  0  0  0  0  0  0  0  0  0  0  0
  -21.1169  -25.2620   21.3553 N   0  3  0  0  0  0  0  0  0  0  0  0
  -28.3224  -24.8875   18.2569 O   0  0  0  0  0  0  0  0  0  0  0  0
  -26.3290   -7.2955   16.8608 O   0  0  0  0  0  0  0  0  0  0  0  0
  -26.4669  -31.8869   22.0017 O   0  0  0  0  0  0  0  0  0  0  0  0
  -21.7764  -31.8002   22.0896 O   0  0  0  0  0  0  0  0  0  0  0  0
  -21.8205  -26.8598   23.5618 O   0  0  0  0  0  0  0  0  0  0  0  0
  -25.8393  -15.7353   17.6227 O   0  0  0  0  0  0  0  0  0  0  0  0
  -21.4090   -7.1575   21.6274 O   0  0  0  0  0  0  0  0  0  0  0  0
  -28.0928  -26.3805   20.4811 O   0  0  0  0  0  0  0  0  0  1  0  0
  -22.2495   -3.6750   25.8190 F   0  0  0  0  0  0  0  0  0  0  0  0
  -22.9446   -4.8828   21.2954 F   0  0  0  0  0  0  0  0  0  0  0  0
  -29.5554  -19.4137   18.4456 Cl  0  0  0  0  0  0  0  0  0  0  0  0
  1  2  1  0  0  0  0
  1  5  2  0  0  0  0
  2  6  2  0  0  0  0
  3 10  2  0  0  0  0
  3 17  1  0  0  0  0
  4 11  1  0  0  0  0
  4 17  2  0  0  0  0
  5 19  1  0  0  0  0
  6 21  1  0  0  0  0
  7 12  2  0  0  0  0
  7 20  1  0  0  0  0
  8  9  1  0  0  0  0
  8 23  2  0  0  0  0
  9 25  2  0  0  0  0
 10 26  1  0  0  0  0
 11 26  2  0  0  0  0
 12 27  1  0  0  0  0
 13 14  2  0  0  0  0
 13 28  1  0  0  0  0
 14 29  1  0  0  0  0
 15 22  1  0  0  0  0
 15 27  2  0  0  0  0
 16 29  2  0  0  0  0
 16 30  1  0  0  0  0
 17 32  1  0  0  0  0
 18 32  1  0  0  0  0
 18 33  2  0  0  0  0
 18 35  1  0  0  0  0
 19 21  2  0  0  0  0
 19 40  1  0  0  0  0
 20 22  2  0  0  0  0
 20 41  1  0  0  0  0
 21 52  1  0  0  0  0
 22 42  1  0  0  0  0
 23 24  1  0  0  0  0
 23 56  1  0  0  0  0
 24 31  2  0  0  0  0
 24 62  1  0  0  0  0
 25 31  1  0  0  0  0
 25 73  1  0  0  0  0
 26 83  1  0  0  0  0
 27 84  1  0  0  0  0
 28 30  2  0  0  0  0
 28 83  1  0  0  0  0
 29 85  1  0  0  0  0
 30 86  1  0  0  0  0
 31 87  1  0  0  0  0
 32 66  2  0  0  0  0
 33 67  1  0  0  0  0
 33 71  1  0  0  0  0
 34 53  1  0  0  0  0
 34 68  1  0  0  0  0
 34 77  2  0  0  0  0
 35 72  1  0  0  0  0
 35 78  2  0  0  0  0
 36 54  1  0  0  0  0
 36 74  1  0  0  0  0
 36 79  2  0  0  0  0
 37 63  1  0  0  0  0
 37 69  1  0  0  0  0
 37 80  2  0  0  0  0
 38 64  1  0  0  0  0
 38 75  1  0  0  0  0
 38 81  2  0  0  0  0
 39 70  1  0  0  0  0
 39 73  1  0  0  0  0
 39 82  2  0  0  0  0
 40 43  1  0  0  0  0
 41 54  1  0  0  0  0
 42 69  1  0  0  0  0
 43 46  1  0  0  0  0
 44 47  1  0  0  0  0
 44 49  1  0  0  0  0
 45 48  1  0  0  0  0
 45 50  1  0  0  0  0
 46 52  1  0  0  0  0
 47 53  1  0  0  0  0
 48 55  1  0  0  0  0
 49 68  1  0  0  0  0
 50 70  1  0  0  0  0
 51 55  1  0  0  0  0
 51 70  1  0  0  0  0
 52 74  1  0  0  0  0
 53 84  1  0  0  0  0
 54 69  1  0  0  0  0
 55 67  1  0  0  0  0
 57 64  1  0  0  0  0
 58 65  1  0  0  0  0
 59 65  1  0  0  0  0
 60 65  1  0  0  0  0
 61 76  1  0  0  0  0
 62 68  1  0  0  0  0
 63 65  1  0  0  0  0
 63 75  1  0  0  0  0
 64 76  1  0  0  0  0
 66 67  1  0  0  0  0
M  CHG  1  76   1
M  ISO  4  39 100  53 101  73 100  84 101
M  END
> <Batch ID>
0044

> <Smiles>
CNC(C)C(=O)NC(C(=O)N1Cc2cc([101O:1][101CH:1]3CCCN(Cc4c(C)ccc([100NH:0][100C:0](=O)N5CCCC(n6nc(-c7ccc(Oc8ccc(F)cc8F)cc7)c(C(N)=O)c6N)C5)c4Cl)C3=O)ccc2CC1C(=O)NC1CCCc2ccccc21)C(C)(C)C

> <Shape>
0.302

> <Color>
0.104

> <Negative vol penalty>
0.000

$$$$

  -OEChem-04042322183D

 82 90  0     1  0  0  0  0  0999 V2000
  -28.8474  -32.7453   27.9311 C   0  0  0  0  0  0  0  0  0  0  0  0
  -28.9579  -31.3616   28.0235 C   0  0  0  0  0  0  0  0  0  0  0  0
  -22.9509   -9.8470   20.0465 C   0  0  0  0  0  0  0  0  0  0  0  0
  -23.4777  -10.1381   22.3863 C   0  0  0  0  0  0  0  0  0  0  0  0
  -28.1578  -33.3188   26.8636 C   0  0  0  0  0  0  0  0  0  0  0  0
  -28.3778  -30.5504   27.0488 C   0  0  0  0  0  0  0  0  0  0  0  0
  -30.5304  -25.2201   24.9371 C   0  0  0  0  0  0  0  0  0  0  0  0
  -22.1302   -8.7653   20.3659 C   0  0  0  0  0  0  0  0  0  0  0  0
  -22.6570   -9.0565   22.7057 C   0  0  0  0  0  0  0  0  0  0  0  0
  -30.2187  -23.8958   25.2419 C   0  0  0  0  0  0  0  0  0  0  0  0
  -20.9845   -6.1476   24.1027 C   0  0  0  0  0  0  0  0  0  0  0  0
  -21.4726   -5.2099   25.0126 C   0  0  0  0  0  0  0  0  0  0  0  0
  -31.7292  -18.4933   24.0488 C   0  0  0  0  0  0  0  0  0  0  0  0
  -28.7106  -23.8240   23.3605 C   0  0  0  0  0  0  0  0  0  0  0  0
  -31.9565  -16.5299   22.6594 C   0  0  0  0  0  0  0  0  0  0  0  0
  -23.3272   -4.7427   23.5364 C   0  0  0  0  0  0  0  0  0  0  0  0
  -23.6247  -10.5334   21.0567 C   0  0  0  0  0  0  0  0  0  0  0  0
  -30.3630  -18.5324   23.7702 C   0  0  0  0  0  0  0  0  0  0  0  0
  -29.7936  -17.5702   22.9362 C   0  0  0  0  0  0  0  0  0  0  0  0
  -24.1002  -13.0053   20.6430 C   0  0  0  0  0  0  0  0  0  0  0  0
  -27.5773  -32.5145   25.8702 C   0  0  0  0  0  0  0  0  0  0  0  0
  -29.9253  -25.8608   23.8463 C   0  0  0  0  0  0  0  0  0  0  0  0
  -27.6787  -31.1136   25.9677 C   0  0  0  0  0  0  0  0  0  0  0  0
  -29.0182  -25.1557   23.0424 C   0  0  0  0  0  0  0  0  0  0  0  0
  -30.5903  -16.5689   22.3808 C   0  0  0  0  0  0  0  0  0  0  0  0
  -21.9832   -8.3700   21.6955 C   0  0  0  0  0  0  0  0  0  0  0  0
  -29.3065  -23.1984   24.4553 C   0  0  0  0  0  0  0  0  0  0  0  0
  -21.6677   -6.3829   22.9095 C   0  0  0  0  0  0  0  0  0  0  0  0
  -22.6440   -4.5075   24.7295 C   0  0  0  0  0  0  0  0  0  0  0  0
  -22.8391   -5.6805   22.6264 C   0  0  0  0  0  0  0  0  0  0  0  0
  -32.5259  -17.4921   23.4934 C   0  0  0  0  0  0  0  0  0  0  0  0
  -24.4731  -11.6505   20.7274 C   0  0  0  0  0  0  0  0  0  0  0  0
  -25.2585  -13.6597   20.3016 C   0  0  0  0  0  0  0  0  0  0  0  0
  -27.8494  -18.2362   21.5975 C   0  0  0  0  0  0  0  0  0  0  0  0
  -29.5661  -19.6090   24.3821 C   0  0  0  0  0  0  0  0  0  0  0  0
  -28.3614  -17.6046   22.6389 C   0  0  0  0  0  0  0  0  0  0  0  0
  -29.7545  -20.9192   24.1809 C   0  0  0  0  0  0  0  0  0  1  0  0
  -22.8210  -13.6176   20.8543 C   0  0  0  0  0  0  0  0  0  0  0  0
  -28.0262  -28.3860   23.4994 C   0  0  0  0  0  0  0  0  0  0  0  0
  -28.4875  -27.8103   20.3406 C   0  0  0  0  0  0  0  0  0  0  0  0
  -29.2830  -25.5730   17.8894 C   0  0  0  0  0  0  0  0  0  0  0  0
  -30.7246  -14.5262   20.9127 C   0  0  0  0  0  0  0  0  0  0  0  0
  -26.8012  -33.1784   24.7605 C   0  0  0  0  0  0  0  0  0  0  0  0
  -30.2923  -27.2813   23.5149 C   0  0  0  0  0  0  0  0  0  0  0  0
  -28.3564  -25.7916   21.8483 C   0  0  0  0  0  0  0  0  0  0  0  0
  -26.5365  -32.2613   23.5692 C   0  0  0  0  0  0  0  0  0  0  0  0
  -29.7351  -11.8542   18.7776 C   0  0  0  0  0  0  0  0  0  0  0  0
  -26.0358  -30.9008   24.0438 C   0  0  0  0  0  0  0  0  0  0  0  0
  -28.2472  -11.6745   19.0876 C   0  0  0  0  0  0  0  0  0  0  0  0
  -30.5359  -12.2115   20.0285 C   0  0  0  0  0  0  0  0  0  0  0  0
  -28.5385  -13.1833   21.0940 C   0  0  0  0  0  0  0  0  0  0  0  0
  -27.0843  -30.2010   24.9170 C   0  0  1  0  0  0  0  0  0  0  0  0
  -29.2285  -27.9957   22.6871 C   0  0  1  0  0  0  0  0  0  0  0  0
  -27.6806  -12.8863   19.8532 C   0  0  2  0  0  0  0  0  0  0  0  0
  -29.5405  -25.3870   15.4001 C   0  0  0  0  0  0  0  0  0  0  0  0
  -25.4522  -27.7756   20.0317 C   0  0  0  0  0  0  0  0  0  0  0  0
  -25.7610  -26.6697   17.8068 C   0  0  0  0  0  0  0  0  0  0  0  0
  -26.6740  -28.9581   18.1977 C   0  0  0  0  0  0  0  0  0  0  0  0
  -32.1397  -24.8359   18.1234 C   0  0  0  0  0  0  0  0  0  0  0  0
  -27.7927  -26.9734   19.2938 C   0  0  1  0  0  0  0  0  0  0  0  0
  -30.2460  -25.6609   16.7192 C   0  0  2  0  0  0  0  0  0  0  0  0
  -26.4308  -27.5825   18.8561 C   0  0  0  0  0  0  0  0  0  0  0  0
  -25.7671  -11.4543   20.4610 N   0  0  0  0  0  0  0  0  0  0  0  0
  -26.2174  -12.6945   20.2057 N   0  0  0  0  0  0  0  0  0  0  0  0
  -28.7432  -27.1844   21.5689 N   0  0  0  0  0  0  0  0  0  0  0  0
  -29.9434  -13.3708   20.6991 N   0  0  0  0  0  0  0  0  0  0  0  0
  -25.5401  -14.9607   20.0770 N   0  0  0  0  0  0  0  0  0  0  0  0
  -21.7372  -12.7987   21.1995 N   0  0  0  0  0  0  0  0  0  0  0  0
  -30.0450  -15.5759   21.5297 N   0  0  0  0  0  0  0  0  0  0  0  0
  -28.1281  -29.6296   24.0933 N   0  0  0  0  0  0  0  0  0  0  0  0
  -28.7492  -26.8045   18.2053 N   0  0  0  0  0  0  0  0  0  0  0  0
  -31.3466  -24.6689   16.8784 N   0  3  0  0  0  0  0  0  0  0  0  0
  -22.6408  -14.8521   20.7244 O   0  0  0  0  0  0  0  0  0  0  0  0
  -27.0759  -27.6166   23.5801 O   0  0  0  0  0  0  0  0  0  0  0  0
  -28.7986  -28.9742   20.0757 O   0  0  0  0  0  0  0  0  0  0  0  0
  -29.0268  -24.5168   18.4633 O   0  0  0  0  0  0  0  0  0  0  0  0
  -31.9017  -14.5900   20.5486 O   0  0  0  0  0  0  0  0  0  0  0  0
  -21.1823   -7.3147   22.0075 O   0  0  0  0  0  0  0  0  0  0  0  0
  -29.0001  -21.9060   24.7509 O   0  0  0  0  0  0  0  0  0  1  0  0
  -23.1134   -3.6081   25.6041 F   0  0  0  0  0  0  0  0  0  0  0  0
  -23.5004   -5.9030   21.4823 F   0  0  0  0  0  0  0  0  0  0  0  0
  -34.2118  -17.4434   23.8373 Cl  0  0  0  0  0  0  0  0  0  0  0  0
  1  2  1  0  0  0  0
  1  5  2  0  0  0  0
  2  6  2  0  0  0  0
  3  8  2  0  0  0  0
  3 17  1  0  0  0  0
  4  9  1  0  0  0  0
  4 17  2  0  0  0  0
  5 21  1  0  0  0  0
  6 23  1  0  0  0  0
  7 10  2  0  0  0  0
  7 22  1  0  0  0  0
  8 26  1  0  0  0  0
  9 26  2  0  0  0  0
 10 27  1  0  0  0  0
 11 12  2  0  0  0  0
 11 28  1  0  0  0  0
 12 29  1  0  0  0  0
 13 18  2  0  0  0  0
 13 31  1  0  0  0  0
 14 24  1  0  0  0  0
 14 27  2  0  0  0  0
 15 25  1  0  0  0  0
 15 31  2  0  0  0  0
 16 29  2  0  0  0  0
 16 30  1  0  0  0  0
 17 32  1  0  0  0  0
 18 19  1  0  0  0  0
 18 35  1  0  0  0  0
 19 25  2  0  0  0  0
 19 36  1  0  0  0  0
 20 32  1  0  0  0  0
 20 33  2  0  0  0  0
 20 38  1  0  0  0  0
 21 23  2  0  0  0  0
 21 43  1  0  0  0  0
 22 24  2  0  0  0  0
 22 44  1  0  0  0  0
 23 52  1  0  0  0  0
 24 45  1  0  0  0  0
 25 69  1  0  0  0  0
 26 78  1  0  0  0  0
 27 79  1  0  0  0  0
 28 30  2  0  0  0  0
 28 78  1  0  0  0  0
 29 80  1  0  0  0  0
 30 81  1  0  0  0  0
 31 82  1  0  0  0  0
 32 63  2  0  0  0  0
 33 64  1  0  0  0  0
 33 67  1  0  0  0  0
 34 36  2  0  0  0  0
 35 37  2  0  0  0  0
 37 79  1  0  0  0  0
 38 68  1  0  0  0  0
 38 73  2  0  0  0  0
 39 53  1  0  0  0  0
 39 70  1  0  0  0  0
 39 74  2  0  0  0  0
 40 60  1  0  0  0  0
 40 65  1  0  0  0  0
 40 75  2  0  0  0  0
 41 61  1  0  0  0  0
 41 71  1  0  0  0  0
 41 76  2  0  0  0  0
 42 66  1  0  0  0  0
 42 69  1  0  0  0  0
 42 77  2  0  0  0  0
 43 46  1  0  0  0  0
 44 53  1  0  0  0  0
 45 65  1  0  0  0  0
 46 48  1  0  0  0  0
 47 49  1  0  0  0  0
 47 50  1  0  0  0  0
 48 52  1  0  0  0  0
 49 54  1  0  0  0  0
 50 66  1  0  0  0  0
 51 54  1  0  0  0  0
 51 66  1  0  0  0  0
 52 70  1  0  0  0  0
 53 65  1  0  0  0  0
 54 64  1  0  0  0  0
 55 61  1  0  0  0  0
 56 62  1  0  0  0  0
 57 62  1  0  0  0  0
 58 62  1  0  0  0  0
 59 72  1  0  0  0  0
 60 62  1  0  0  0  0
 60 71  1  0  0  0  0
 61 72  1  0  0  0  0
 63 64  1  0  0  0  0
M  CHG  1  72   1
M  ISO  4  37 101  42 100  69 100  79 101
M  END
> <Batch ID>
0044

> <Smiles>
C=Cc1c(C=[101CH:1][101O:1]c2ccc3c(c2)CN(C(=O)C(NC(=O)C(C)NC)C(C)(C)C)C(C(=O)NC2CCCc4ccccc42)C3)cc(Cl)cc1[100NH:0][100C:0](=O)N1CCCC(n2nc(-c3ccc(Oc4ccc(F)cc4F)cc3)c(C(N)=O)c2N)C1

> <Shape>
0.306

> <Color>
0.184

> <Negative vol penalty>
0.000

$$$$

  -OEChem-04042322183D

 88 97  0     1  0  0  0  0  0999 V2000
  -27.3883  -36.6335   27.0844 C   0  0  0  0  0  0  0  0  0  0  0  0
  -26.1891  -36.0146   27.4223 C   0  0  0  0  0  0  0  0  0  0  0  0
  -23.7896   -9.8760   21.7015 C   0  0  0  0  0  0  0  0  0  0  0  0
  -21.6459  -10.8289   21.1240 C   0  0  0  0  0  0  0  0  0  0  0  0
  -27.9106  -36.4847   25.8003 C   0  0  0  0  0  0  0  0  0  0  0  0
  -25.5109  -35.2474   26.4758 C   0  0  0  0  0  0  0  0  0  0  0  0
  -23.1829  -27.7980   26.8139 C   0  0  0  0  0  0  0  0  0  0  0  0
  -20.6186  -19.5139   19.3710 C   0  0  0  0  0  0  0  0  0  0  0  0
  -23.2142   -8.6061   21.7422 C   0  0  0  0  0  0  0  0  0  0  0  0
  -21.0704   -9.5589   21.1647 C   0  0  0  0  0  0  0  0  0  0  0  0
  -22.8615  -26.4458   26.6933 C   0  0  0  0  0  0  0  0  0  0  0  0
  -21.3287   -6.7939   23.8835 C   0  0  0  0  0  0  0  0  0  0  0  0
  -21.6560   -5.9692   24.9597 C   0  0  0  0  0  0  0  0  0  0  0  0
  -21.2545  -20.3855   18.4869 C   0  0  0  0  0  0  0  0  0  0  0  0
  -23.0638  -26.6012   24.2886 C   0  0  0  0  0  0  0  0  0  0  0  0
  -20.6468  -21.2241   21.0773 C   0  0  0  0  0  0  0  0  0  0  0  0
  -22.5616   -4.3328   23.4303 C   0  0  0  0  0  0  0  0  0  0  0  0
  -23.0054  -10.9875   21.3924 C   0  0  0  0  0  0  0  0  0  0  0  0
  -24.6479  -12.7321   20.5171 C   0  0  0  0  0  0  0  0  0  0  0  0
  -27.2434  -35.7074   24.8405 C   0  0  0  0  0  0  0  0  0  0  0  0
  -23.4614  -28.5541   25.6719 C   0  0  0  0  0  0  0  0  0  0  0  0
  -26.0241  -35.0891   25.1773 C   0  0  0  0  0  0  0  0  0  0  0  0
  -23.3986  -27.9530   24.4040 C   0  0  0  0  0  0  0  0  0  0  0  0
  -20.3148  -19.9333   20.6662 C   0  0  0  0  0  0  0  0  0  0  0  0
  -21.2827  -22.0957   20.1932 C   0  0  0  0  0  0  0  0  0  0  0  0
  -21.8546   -8.4475   21.4738 C   0  0  0  0  0  0  0  0  0  0  0  0
  -22.8019  -25.8490   25.4338 C   0  0  0  0  0  0  0  0  0  0  0  0
  -21.6177   -6.3881   22.5806 C   0  0  0  0  0  0  0  0  0  0  0  0
  -22.2725   -4.7386   24.7331 C   0  0  0  0  0  0  0  0  0  0  0  0
  -22.2342   -5.1575   22.3540 C   0  0  0  0  0  0  0  0  0  0  0  0
  -21.5865  -21.6764   18.8980 C   0  0  0  0  0  0  0  0  0  0  0  0
  -23.5991  -12.2997   21.3507 C   0  0  0  0  0  0  0  0  0  0  0  0
  -24.8405  -14.0476   20.8620 C   0  0  0  0  0  0  0  0  0  0  0  0
  -22.0885  -23.9845   23.0446 C   0  0  0  0  0  0  0  0  0  0  0  0
  -25.3824  -12.0093   19.5202 C   0  0  0  0  0  0  0  0  0  0  0  0
  -24.4250  -31.8897   24.2502 C   0  0  0  0  0  0  0  0  0  0  0  0
  -25.9663  -29.7654   22.6622 C   0  0  0  0  0  0  0  0  0  0  0  0
  -27.7913  -27.1548   21.4410 C   0  0  0  0  0  0  0  0  0  0  0  0
  -21.2672  -18.1899   23.2959 C   0  0  0  0  0  0  0  0  0  0  0  0
  -27.8229  -35.6144   23.4512 C   0  0  0  0  0  0  0  0  0  0  0  0
  -23.7518  -30.0284   25.7498 C   0  0  0  0  0  0  0  0  0  0  0  0
  -23.6719  -28.8136   23.2008 C   0  0  0  0  0  0  0  0  0  0  0  0
  -27.2332  -34.4778   22.6201 C   0  0  0  0  0  0  0  0  0  0  0  0
  -24.2845  -21.6179   23.8018 C   0  0  0  0  0  0  0  0  0  0  0  0
  -23.9738  -21.5037   22.3128 C   0  0  0  0  0  0  0  0  0  0  0  0
  -24.3965  -17.0532   24.5579 C   0  0  0  0  0  0  0  0  0  0  0  0
  -25.7123  -34.4651   22.7361 C   0  0  0  0  0  0  0  0  0  0  0  0
  -23.2297  -22.3570   24.6195 C   0  0  0  0  0  0  0  0  0  0  0  0
  -24.6416  -15.7451   23.8038 C   0  0  0  0  0  0  0  0  0  0  0  0
  -23.8316  -22.8526   21.6177 C   0  0  0  0  0  0  0  0  0  0  0  0
  -22.9175  -17.2475   24.8849 C   0  0  0  0  0  0  0  0  0  0  0  0
  -22.2542  -15.8408   22.9731 C   0  0  0  0  0  0  0  0  0  0  0  0
  -25.2715  -34.2285   24.1857 C   0  0  1  0  0  0  0  0  0  0  0  0
  -23.0503  -23.8208   24.2178 C   0  0  2  0  0  0  0  0  0  1  0  0
  -24.7703  -30.4993   24.6962 C   0  0  1  0  0  0  0  0  0  0  0  0
  -23.7239  -15.6275   22.5720 C   0  0  2  0  0  0  0  0  0  0  0  0
  -29.5831  -26.6157   19.7688 C   0  0  0  0  0  0  0  0  0  0  0  0
  -23.9273  -30.0033   20.4061 C   0  0  0  0  0  0  0  0  0  0  0  0
  -25.4319  -28.5871   18.9924 C   0  0  0  0  0  0  0  0  0  0  0  0
  -26.2251  -30.8010   19.8244 C   0  0  0  0  0  0  0  0  0  0  0  0
  -29.6207  -26.1656   23.5466 C   0  0  0  0  0  0  0  0  0  0  0  0
  -21.6225  -23.4768   20.6740 C   0  0  0  0  0  0  0  0  0  0  0  0
  -19.6350  -19.0008   21.6115 C   0  0  0  0  0  0  0  0  0  0  0  0
  -26.0031  -28.8743   21.4464 C   0  0  1  0  0  0  0  0  0  0  0  0
  -29.2827  -26.9878   21.2124 C   0  0  2  0  0  0  0  0  0  0  0  0
  -25.3875  -29.5569   20.1925 C   0  0  0  0  0  0  0  0  0  0  0  0
  -23.1565  -13.2623   22.1640 N   0  0  0  0  0  0  0  0  0  0  0  0
  -23.9310  -14.3127   21.8432 N   0  0  0  0  0  0  0  0  0  0  0  0
  -22.5117  -23.4491   21.8284 N   0  0  0  0  0  0  0  0  0  0  0  0
  -24.8205  -29.6946   23.4638 N   0  0  0  0  0  0  0  0  0  0  0  0
  -22.1022  -17.1255   23.6740 N   0  0  0  0  0  0  0  0  0  0  0  0
  -25.6975  -14.9918   20.4187 N   0  0  0  0  0  0  0  0  0  0  0  0
  -24.9049  -12.0163   18.2025 N   0  0  0  0  0  0  0  0  0  0  0  0
  -25.3991  -32.8288   24.5307 N   0  0  0  0  0  0  0  0  0  0  0  0
  -27.3939  -28.4655   21.2819 N   0  0  0  0  0  0  0  0  0  0  0  0
  -20.5334  -17.9946   22.1322 N   0  0  0  0  0  0  0  0  0  0  0  0
  -29.8256  -25.9177   22.0963 N   0  3  0  0  0  0  0  0  0  0  0  0
  -21.0069  -24.5579   23.1980 O   0  0  0  0  0  0  0  0  0  0  0  0
  -26.4220  -11.3626   19.7930 O   0  0  0  0  0  0  0  0  0  0  0  0
  -23.3543  -32.0964   23.6911 O   0  0  0  0  0  0  0  0  0  0  0  0
  -26.9235  -30.5092   22.8940 O   0  0  0  0  0  0  0  0  0  0  0  0
  -27.0521  -26.2158   21.7279 O   0  0  0  0  0  0  0  0  0  0  0  0
  -21.1861  -19.2387   23.9442 O   0  0  0  0  0  0  0  0  0  0  0  0
  -21.2929   -7.2084   21.5133 O   0  0  0  0  0  0  0  0  0  0  0  0
  -22.4919  -24.5275   25.3236 O   0  0  0  0  0  0  0  0  0  1  0  0
  -22.5881   -3.9474   25.7668 F   0  0  0  0  0  0  0  0  0  0  0  0
  -22.5155   -4.7628   21.1047 F   0  0  0  0  0  0  0  0  0  0  0  0
  -22.3725  -22.7273   17.7769 Cl  0  0  0  0  0  0  0  0  0  0  0  0
  1  2  1  0  0  0  0
  1  5  2  0  0  0  0
  2  6  2  0  0  0  0
  3  9  2  0  0  0  0
  3 18  1  0  0  0  0
  4 10  1  0  0  0  0
  4 18  2  0  0  0  0
  5 20  1  0  0  0  0
  6 22  1  0  0  0  0
  7 11  2  0  0  0  0
  7 21  1  0  0  0  0
  8 14  2  0  0  0  0
  8 24  1  0  0  0  0
  9 26  1  0  0  0  0
 10 26  2  0  0  0  0
 11 27  1  0  0  0  0
 12 13  2  0  0  0  0
 12 28  1  0  0  0  0
 13 29  1  0  0  0  0
 14 31  1  0  0  0  0
 15 23  1  0  0  0  0
 15 27  2  0  0  0  0
 16 24  2  0  0  0  0
 16 25  1  0  0  0  0
 17 29  2  0  0  0  0
 17 30  1  0  0  0  0
 18 32  1  0  0  0  0
 19 32  1  0  0  0  0
 19 33  2  0  0  0  0
 19 35  1  0  0  0  0
 20 22  2  0  0  0  0
 20 40  1  0  0  0  0
 21 23  2  0  0  0  0
 21 41  1  0  0  0  0
 22 53  1  0  0  0  0
 23 42  1  0  0  0  0
 24 63  1  0  0  0  0
 25 31  2  0  0  0  0
 25 62  1  0  0  0  0
 26 84  1  0  0  0  0
 27 85  1  0  0  0  0
 28 30  2  0  0  0  0
 28 84  1  0  0  0  0
 29 86  1  0  0  0  0
 30 87  1  0  0  0  0
 31 88  1  0  0  0  0
 32 67  2  0  0  0  0
 33 68  1  0  0  0  0
 33 72  1  0  0  0  0
 34 54  1  0  0  0  0
 34 69  1  0  0  0  0
 34 78  2  0  0  0  0
 35 73  1  0  0  0  0
 35 79  2  0  0  0  0
 36 55  1  0  0  0  0
 36 74  1  0  0  0  0
 36 80  2  0  0  0  0
 37 64  1  0  0  0  0
 37 70  1  0  0  0  0
 37 81  2  0  0  0  0
 38 65  1  0  0  0  0
 38 75  1  0  0  0  0
 38 82  2  0  0  0  0
 39 71  1  0  0  0  0
 39 76  1  0  0  0  0
 39 83  2  0  0  0  0
 40 43  1  0  0  0  0
 41 55  1  0  0  0  0
 42 70  1  0  0  0  0
 43 47  1  0  0  0  0
 44 45  1  0  0  0  0
 44 48  1  0  0  0  0
 45 50  1  0  0  0  0
 46 49  1  0  0  0  0
 46 51  1  0  0  0  0
 47 53  1  0  0  0  0
 48 54  1  0  0  0  0
 49 56  1  0  0  0  0
 50 69  1  0  0  0  0
 51 71  1  0  0  0  0
 52 56  1  0  0  0  0
 52 71  1  0  0  0  0
 53 74  1  0  0  0  0
 54 85  1  0  0  0  0
 55 70  1  0  0  0  0
 56 68  1  0  0  0  0
 57 65  1  0  0  0  0
 58 66  1  0  0  0  0
 59 66  1  0  0  0  0
 60 66  1  0  0  0  0
 61 77  1  0  0  0  0
 62 69  1  0  0  0  0
 63 76  1  0  0  0  0
 64 66  1  0  0  0  0
 64 75  1  0  0  0  0
 65 77  1  0  0  0  0
 67 68  1  0  0  0  0
M  CHG  1  77   1
M  ISO  4  39 100  54 101  76 100  85 101
M  END
> <Batch ID>
0044

> <Smiles>
CNC(C)C(=O)NC(C(=O)N1Cc2cc([101O:1][101CH:1]3CCCCN(Cc4cc(C[100NH:0][100C:0](=O)N5CCCC(n6nc(-c7ccc(Oc8ccc(F)cc8F)cc7)c(C(N)=O)c6N)C5)ccc4Cl)C3=O)ccc2CC1C(=O)NC1CCCc2ccccc21)C(C)(C)C

> <Shape>
0.225

> <Color>
0.109

> <Negative vol penalty>
0.000

$$$$

  -OEChem-04042322183D

 91100  0     1  0  0  0  0  0999 V2000
  -25.7209  -38.8040   21.6536 C   0  0  0  0  0  0  0  0  0  0  0  0
  -26.4293  -37.8814   20.8905 C   0  0  0  0  0  0  0  0  0  0  0  0
  -24.4375   -7.6585   19.8439 C   0  0  0  0  0  0  0  0  0  0  0  0
  -22.8905   -9.5109   19.7321 C   0  0  0  0  0  0  0  0  0  0  0  0
  -25.1129  -38.4033   22.8426 C   0  0  0  0  0  0  0  0  0  0  0  0
  -26.5311  -36.5576   21.3167 C   0  0  0  0  0  0  0  0  0  0  0  0
  -26.9539  -29.8831   18.7496 C   0  0  0  0  0  0  0  0  0  0  0  0
  -23.4722   -6.8918   20.4966 C   0  0  0  0  0  0  0  0  0  0  0  0
  -21.9252   -8.7442   20.3847 C   0  0  0  0  0  0  0  0  0  0  0  0
  -27.7389  -28.7359   18.8562 C   0  0  0  0  0  0  0  0  0  0  0  0
  -22.2099   -6.6086   23.6192 C   0  0  0  0  0  0  0  0  0  0  0  0
  -22.6124   -5.8735   24.7342 C   0  0  0  0  0  0  0  0  0  0  0  0
  -27.3726  -23.6590   21.8139 C   0  0  0  0  0  0  0  0  0  0  0  0
  -26.5810  -28.1395   20.8866 C   0  0  0  0  0  0  0  0  0  0  0  0
  -27.3597  -17.5635   21.9601 C   0  0  0  0  0  0  0  0  0  0  0  0
  -26.6898  -25.0672   19.5046 C   0  0  0  0  0  0  0  0  0  0  0  0
  -25.3792  -17.2040   20.6240 C   0  0  0  0  0  0  0  0  0  0  0  0
  -21.9395   -3.8320   23.6311 C   0  0  0  0  0  0  0  0  0  0  0  0
  -24.1466   -8.9681   19.4617 C   0  0  0  0  0  0  0  0  0  0  0  0
  -26.3799  -23.1684   20.9657 C   0  0  0  0  0  0  0  0  0  0  0  0
  -25.5019  -19.0999   22.1165 C   0  0  0  0  0  0  0  0  0  0  0  0
  -25.3581   -9.8564   17.3999 C   0  0  0  0  0  0  0  0  0  0  0  0
  -25.1992  -37.0717   23.2786 C   0  0  0  0  0  0  0  0  0  0  0  0
  -25.9824  -30.1733   19.7183 C   0  0  0  0  0  0  0  0  0  0  0  0
  -25.9249  -36.1389   22.5133 C   0  0  0  0  0  0  0  0  0  0  0  0
  -25.7832  -29.2897   20.7887 C   0  0  0  0  0  0  0  0  0  0  0  0
  -28.0240  -24.8537   21.5074 C   0  0  0  0  0  0  0  0  0  0  0  0
  -26.7814  -18.7076   22.5096 C   0  0  0  0  0  0  0  0  0  0  0  0
  -26.0385  -23.8726   19.8110 C   0  0  0  0  0  0  0  0  0  0  0  0
  -26.6587  -16.8117   21.0172 C   0  0  0  0  0  0  0  0  0  0  0  0
  -22.2161   -7.4346   20.7670 C   0  0  0  0  0  0  0  0  0  0  0  0
  -27.5545  -27.8653   19.9263 C   0  0  0  0  0  0  0  0  0  0  0  0
  -21.6722   -5.9554   22.5102 C   0  0  0  0  0  0  0  0  0  0  0  0
  -27.6826  -25.5579   20.3528 C   0  0  0  0  0  0  0  0  0  1  0  0
  -22.4772   -4.4852   24.7402 C   0  0  0  0  0  0  0  0  0  0  0  0
  -21.5371   -4.5672   22.5161 C   0  0  0  0  0  0  0  0  0  0  0  0
  -24.8007  -18.3481   21.1736 C   0  0  0  0  0  0  0  0  0  0  0  0
  -25.1435   -9.7608   18.7879 C   0  0  0  0  0  0  0  0  0  0  0  0
  -26.4111  -10.7294   17.2746 C   0  0  0  0  0  0  0  0  0  0  0  0
  -25.7172  -21.9174   21.3086 C   0  0  0  0  0  0  0  0  0  0  0  0
  -24.9009  -20.3237   22.7146 C   0  0  0  0  0  0  0  0  0  0  0  0
  -24.6672   -9.2138   16.3204 C   0  0  0  0  0  0  0  0  0  0  0  0
  -25.5169  -32.5384   21.7903 C   0  0  0  0  0  0  0  0  0  0  0  0
  -22.7264  -30.9806   22.3460 C   0  0  0  0  0  0  0  0  0  0  0  0
  -20.9716  -28.0553   22.2456 C   0  0  0  0  0  0  0  0  0  0  0  0
  -28.5068  -15.1221   20.7411 C   0  0  0  0  0  0  0  0  0  0  0  0
  -24.5654  -36.6963   24.5947 C   0  0  0  0  0  0  0  0  0  0  0  0
  -25.1255  -31.4011   19.5746 C   0  0  0  0  0  0  0  0  0  0  0  0
  -24.7397  -29.5452   21.8443 C   0  0  0  0  0  0  0  0  0  0  0  0
  -24.4045  -35.1903   24.7856 C   0  0  0  0  0  0  0  0  0  0  0  0
  -30.3016  -12.2635   19.6080 C   0  0  0  0  0  0  0  0  0  0  0  0
  -25.6910  -34.4637   24.4066 C   0  0  0  0  0  0  0  0  0  0  0  0
  -29.2023  -11.3084   19.1372 C   0  0  0  0  0  0  0  0  0  0  0  0
  -29.8764  -13.0513   20.8458 C   0  0  0  0  0  0  0  0  0  0  0  0
  -27.4986  -12.8075   20.2493 C   0  0  0  0  0  0  0  0  0  0  0  0
  -26.0369  -34.6883   22.9297 C   0  0  1  0  0  0  0  0  0  0  0  0
  -24.5169  -31.8629   20.8951 C   0  0  1  0  0  0  0  0  0  0  0  0
  -27.8560  -12.0390   18.9666 C   0  0  2  0  0  0  0  0  0  0  0  0
  -29.0849  -25.3644   22.4257 C   0  0  0  0  0  0  0  0  0  0  0  0
  -27.5586  -19.4917   23.5170 C   0  0  0  0  0  0  0  0  0  0  0  0
  -24.9795  -23.3693   18.8852 C   0  0  0  0  0  0  0  0  0  0  0  0
  -18.7247  -27.0859   22.8013 C   0  0  0  0  0  0  0  0  0  0  0  0
  -23.4630  -30.9770   25.3070 C   0  0  0  0  0  0  0  0  0  0  0  0
  -21.7199  -29.2162   25.6670 C   0  0  0  0  0  0  0  0  0  0  0  0
  -21.0581  -31.4714   24.8308 C   0  0  0  0  0  0  0  0  0  0  0  0
  -20.4663  -27.3108   19.4261 C   0  0  0  0  0  0  0  0  0  0  0  0
  -22.2816  -29.8868   23.2866 C   0  0  1  0  0  0  0  0  0  0  0  0
  -19.5832  -27.7309   21.7245 C   0  0  2  0  0  0  0  0  0  0  0  0
  -22.1517  -30.3838   24.7542 C   0  0  0  0  0  0  0  0  0  0  0  0
  -25.9921  -10.5128   19.4939 N   0  0  0  0  0  0  0  0  0  0  0  0
  -25.5495  -21.5225   22.5399 N   0  0  0  0  0  0  0  0  0  0  0  0
  -26.7502  -11.0892   18.5457 N   0  0  0  0  0  0  0  0  0  0  0  0
  -23.9313  -30.7622   21.6631 N   0  0  0  0  0  0  0  0  0  0  0  0
  -28.5952  -13.7201   20.6091 N   0  0  0  0  0  0  0  0  0  0  0  0
  -27.0707  -11.2165   16.2022 N   0  0  0  0  0  0  0  0  0  0  0  0
  -23.6088   -8.3474   16.6261 N   0  0  0  0  0  0  0  0  0  0  0  0
  -27.2469  -15.6494   20.4596 N   0  0  0  0  0  0  0  0  0  0  0  0
  -25.2106  -33.8534   22.0844 N   0  0  0  0  0  0  0  0  0  0  0  0
  -21.0477  -29.3448   22.7280 N   0  0  0  0  0  0  0  0  0  0  0  0
  -23.7832  -20.3048   23.3507 N   0  3  0  0  0  0  0  0  0  0  0  0
  -19.6696  -26.7942   20.5686 N   0  3  0  0  0  0  0  0  0  0  0  0
  -24.9899   -9.3895   15.1210 O   0  0  0  0  0  0  0  0  0  0  0  0
  -26.4932  -31.9125   22.1861 O   0  0  0  0  0  0  0  0  0  0  0  0
  -22.0269  -31.9883   22.2164 O   0  0  0  0  0  0  0  0  0  0  0  0
  -21.8952  -27.2445   22.2300 O   0  0  0  0  0  0  0  0  0  0  0  0
  -29.4841  -15.8075   21.0525 O   0  0  0  0  0  0  0  0  0  0  0  0
  -21.2739   -6.6866   21.4037 O   0  0  0  0  0  0  0  0  0  0  0  0
  -28.3198  -26.7452   20.0331 O   0  0  0  0  0  0  0  0  0  1  0  0
  -22.8652   -3.7792   25.8103 F   0  0  0  0  0  0  0  0  0  0  0  0
  -21.0223   -3.9340   21.4531 F   0  0  0  0  0  0  0  0  0  0  0  0
  -23.2129  -18.7941   20.6586 Cl  0  0  0  0  0  0  0  0  0  0  0  0
  1  2  1  0  0  0  0
  1  5  2  0  0  0  0
  2  6  2  0  0  0  0
  3  8  2  0  0  0  0
  3 19  1  0  0  0  0
  4  9  1  0  0  0  0
  4 19  2  0  0  0  0
  5 23  1  0  0  0  0
  6 25  1  0  0  0  0
  7 10  2  0  0  0  0
  7 24  1  0  0  0  0
  8 31  1  0  0  0  0
  9 31  2  0  0  0  0
 10 32  1  0  0  0  0
 11 12  2  0  0  0  0
 11 33  1  0  0  0  0
 12 35  1  0  0  0  0
 13 20  2  0  0  0  0
 13 27  1  0  0  0  0
 14 26  1  0  0  0  0
 14 32  2  0  0  0  0
 15 28  2  0  0  0  0
 15 30  1  0  0  0  0
 16 29  2  0  0  0  0
 16 34  1  0  0  0  0
 17 30  2  0  0  0  0
 17 37  1  0  0  0  0
 18 35  2  0  0  0  0
 18 36  1  0  0  0  0
 19 38  1  0  0  0  0
 20 29  1  0  0  0  0
 20 40  1  0  0  0  0
 21 28  1  0  0  0  0
 21 37  2  0  0  0  0
 21 41  1  0  0  0  0
 22 38  1  0  0  0  0
 22 39  2  0  0  0  0
 22 42  1  0  0  0  0
 23 25  2  0  0  0  0
 23 47  1  0  0  0  0
 24 26  2  0  0  0  0
 24 48  1  0  0  0  0
 25 56  1  0  0  0  0
 26 49  1  0  0  0  0
 27 34  2  0  0  0  0
 27 59  1  0  0  0  0
 28 60  1  0  0  0  0
 29 61  1  0  0  0  0
 30 77  1  0  0  0  0
 31 87  1  0  0  0  0
 32 88  1  0  0  0  0
 33 36  2  0  0  0  0
 33 87  1  0  0  0  0
 34 88  1  0  0  0  0
 35 89  1  0  0  0  0
 36 90  1  0  0  0  0
 37 91  1  0  0  0  0
 38 70  2  0  0  0  0
 39 72  1  0  0  0  0
 39 75  1  0  0  0  0
 40 71  2  0  0  0  0
 41 71  1  0  0  0  0
 41 80  2  0  0  0  0
 42 76  1  0  0  0  0
 42 82  2  0  0  0  0
 43 57  1  0  0  0  0
 43 78  1  0  0  0  0
 43 83  2  0  0  0  0
 44 67  1  0  0  0  0
 44 73  1  0  0  0  0
 44 84  2  0  0  0  0
 45 68  1  0  0  0  0
 45 79  1  0  0  0  0
 45 85  2  0  0  0  0
 46 74  1  0  0  0  0
 46 77  1  0  0  0  0
 46 86  2  0  0  0  0
 47 50  1  0  0  0  0
 48 57  1  0  0  0  0
 49 73  1  0  0  0  0
 50 52  1  0  0  0  0
 51 53  1  0  0  0  0
 51 54  1  0  0  0  0
 52 56  1  0  0  0  0
 53 58  1  0  0  0  0
 54 74  1  0  0  0  0
 55 58  1  0  0  0  0
 55 74  1  0  0  0  0
 56 78  1  0  0  0  0
 57 73  1  0  0  0  0
 58 72  1  0  0  0  0
 62 68  1  0  0  0  0
 63 69  1  0  0  0  0
 64 69  1  0  0  0  0
 65 69  1  0  0  0  0
 66 81  1  0  0  0  0
 67 69  1  0  0  0  0
 67 79  1  0  0  0  0
 68 81  1  0  0  0  0
 70 72  1  0  0  0  0
M  CHG  2  80   1  81   1
M  ISO  4  34 101  46 100  77 100  88 101
M  END
> <Batch ID>
0044

> <Smiles>
CNC(C)C(=O)NC(C(=O)N1Cc2cc([101O:1][101c:1]3cc(C)c(C=NC(=N)c4c(C)cc([100NH:0][100C:0](=O)N5CCCC(n6nc(-c7ccc(Oc8ccc(F)cc8F)cc7)c(C(N)=O)c6N)C5)cc4Cl)cc3C)ccc2CC1C(=O)NC1CCCc2ccccc21)C(C)(C)C

> <Shape>
0.271

> <Color>
0.105

> <Negative vol penalty>
0.000

$$$$

  -OEChem-04042322183D

 82 90  0     1  0  0  0  0  0999 V2000
  -31.0566  -29.3510   18.6889 C   0  0  0  0  0  0  0  0  0  0  0  0
  -29.9160  -28.8038   19.2678 C   0  0  0  0  0  0  0  0  0  0  0  0
  -22.0058  -14.5674   22.4466 C   0  0  0  0  0  0  0  0  0  0  0  0
  -23.4132  -15.6324   20.7967 C   0  0  0  0  0  0  0  0  0  0  0  0
  -20.7144  -27.5693   23.2147 C   0  0  0  0  0  0  0  0  0  0  0  0
  -31.8706  -28.5635   17.8759 C   0  0  0  0  0  0  0  0  0  0  0  0
  -29.5883  -27.4689   19.0330 C   0  0  0  0  0  0  0  0  0  0  0  0
  -28.2010  -25.0379   23.2533 C   0  0  0  0  0  0  0  0  0  0  0  0
  -22.0312  -13.3859   21.7056 C   0  0  0  0  0  0  0  0  0  0  0  0
  -23.4386  -14.4508   20.0557 C   0  0  0  0  0  0  0  0  0  0  0  0
  -26.9083  -25.2651   23.7233 C   0  0  0  0  0  0  0  0  0  0  0  0
  -24.1595  -10.8075   21.2007 C   0  0  0  0  0  0  0  0  0  0  0  0
  -24.3743   -9.6142   21.8904 C   0  0  0  0  0  0  0  0  0  0  0  0
  -19.6257  -28.4324   23.3380 C   0  0  0  0  0  0  0  0  0  0  0  0
  -26.1891  -23.1869   22.7319 C   0  0  0  0  0  0  0  0  0  0  0  0
  -18.3635  -27.0596   21.8020 C   0  0  0  0  0  0  0  0  0  0  0  0
  -22.2387   -8.7858   21.1223 C   0  0  0  0  0  0  0  0  0  0  0  0
  -22.6968  -15.6906   21.9921 C   0  0  0  0  0  0  0  0  0  0  0  0
  -20.6278  -26.4513   22.3851 C   0  0  0  0  0  0  0  0  0  0  0  0
  -23.5668  -17.2989   23.7710 C   0  0  0  0  0  0  0  0  0  0  0  0
  -31.5580  -27.2157   17.6389 C   0  0  0  0  0  0  0  0  0  0  0  0
  -28.4956  -23.8869   22.5085 C   0  0  0  0  0  0  0  0  0  0  0  0
  -30.3982  -26.6630   18.2150 C   0  0  0  0  0  0  0  0  0  0  0  0
  -27.4869  -22.9462   22.2558 C   0  0  0  0  0  0  0  0  0  0  0  0
  -19.4523  -26.1965   21.6787 C   0  0  0  0  0  0  0  0  0  0  0  0
  -22.7476  -13.3276   20.5102 C   0  0  0  0  0  0  0  0  0  0  0  0
  -25.9014  -24.3410   23.4601 C   0  0  0  0  0  0  0  0  0  0  0  0
  -22.9842  -10.9899   20.4719 C   0  0  0  0  0  0  0  0  0  0  0  0
  -23.4139   -8.6034   21.8512 C   0  0  0  0  0  0  0  0  0  0  0  0
  -22.0238   -9.9791   20.4326 C   0  0  0  0  0  0  0  0  0  0  0  0
  -18.4502  -28.1776   22.6316 C   0  0  0  0  0  0  0  0  0  0  0  0
  -22.6706  -16.9116   22.7568 C   0  0  0  0  0  0  0  0  0  0  0  0
  -23.1136  -18.5300   24.1779 C   0  0  0  0  0  0  0  0  0  0  0  0
  -21.7943  -25.5594   22.2766 C   0  0  0  0  0  0  0  0  0  0  0  0
  -22.3716  -24.9118   23.3007 C   0  0  0  0  0  0  0  0  0  0  0  0
  -24.7070  -16.6077   24.2981 C   0  0  0  0  0  0  0  0  0  0  0  0
  -29.5355  -23.3301   19.5569 C   0  0  0  0  0  0  0  0  0  0  0  0
  -29.6373  -20.2571   20.5904 C   0  0  0  0  0  0  0  0  0  0  0  0
  -28.4923  -17.8942   22.7705 C   0  0  0  0  0  0  0  0  0  0  0  0
  -20.0087  -22.7000   21.3804 C   0  0  0  0  0  0  0  0  0  0  0  0
  -32.4426  -26.4169   16.7147 C   0  0  0  0  0  0  0  0  0  0  0  0
  -29.9011  -23.6433   22.0316 C   0  0  0  0  0  0  0  0  0  0  0  0
  -27.7559  -21.6846   21.4782 C   0  0  0  0  0  0  0  0  0  0  0  0
  -32.2283  -24.9091   16.8187 C   0  0  0  0  0  0  0  0  0  0  0  0
  -19.1041  -21.1225   24.5094 C   0  0  0  0  0  0  0  0  0  0  0  0
  -30.7390  -24.5794   16.8050 C   0  0  0  0  0  0  0  0  0  0  0  0
  -20.0130  -19.8920   24.5036 C   0  0  0  0  0  0  0  0  0  0  0  0
  -18.5899  -21.4366   23.1076 C   0  0  0  0  0  0  0  0  0  0  0  0
  -20.5684  -20.3885   22.0777 C   0  0  0  0  0  0  0  0  0  0  0  0
  -30.0228  -25.2122   18.0041 C   0  0  1  0  0  0  0  0  0  0  0  0
  -29.9721  -22.6888   20.8436 C   0  0  1  0  0  0  0  0  0  0  0  0
  -21.1392  -20.0322   23.4624 C   0  0  2  0  0  0  0  0  0  0  0  0
  -28.7326  -15.4634   23.3459 C   0  0  0  0  0  0  0  0  0  0  0  0
  -27.9330  -19.5181   18.1698 C   0  0  0  0  0  0  0  0  0  0  0  0
  -27.4207  -17.3355   19.2843 C   0  0  0  0  0  0  0  0  0  0  0  0
  -29.7736  -17.9042   18.6816 C   0  0  0  0  0  0  0  0  0  0  0  0
  -29.4701  -18.5161   25.4937 C   0  0  0  0  0  0  0  0  0  0  0  0
  -19.3246  -25.0084   20.7800 C   0  0  0  0  0  0  0  0  0  0  0  0
  -23.5655  -24.0258   23.1432 C   0  0  0  0  0  0  0  0  0  1  0  0
  -28.6639  -19.1033   20.6111 C   0  0  1  0  0  0  0  0  0  0  0  0
  -29.2227  -16.8754   23.6267 C   0  0  2  0  0  0  0  0  0  0  0  0
  -28.4420  -18.4899   19.1997 C   0  0  0  0  0  0  0  0  0  0  0  0
  -21.7198  -17.8227   22.5332 N   0  0  0  0  0  0  0  0  0  0  0  0
  -22.0161  -18.7948   23.4127 N   0  0  0  0  0  0  0  0  0  0  0  0
  -29.1447  -21.4948   21.0278 N   0  0  0  0  0  0  0  0  0  0  0  0
  -19.7122  -21.5759   22.1690 N   0  0  0  0  0  0  0  0  0  0  0  0
  -23.5508  -19.4010   25.1120 N   0  0  0  0  0  0  0  0  0  0  0  0
  -25.0320  -15.3524   23.7662 N   0  0  0  0  0  0  0  0  0  0  0  0
  -30.2730  -24.4445   19.2051 N   0  0  0  0  0  0  0  0  0  0  0  0
  -29.1717  -18.1586   21.6001 N   0  0  0  0  0  0  0  0  0  0  0  0
  -19.1452  -23.7795   21.5208 N   0  0  0  0  0  0  0  0  0  0  0  0
  -29.0112  -17.1674   25.0728 N   0  3  0  0  0  0  0  0  0  0  0  0
  -25.4068  -17.0816   25.2250 O   0  0  0  0  0  0  0  0  0  0  0  0
  -28.5998  -22.8487   18.9289 O   0  0  0  0  0  0  0  0  0  0  0  0
  -30.7941  -20.0656   20.2073 O   0  0  0  0  0  0  0  0  0  0  0  0
  -27.4240  -18.4017   23.1046 O   0  0  0  0  0  0  0  0  0  0  0  0
  -20.9753  -22.7408   20.6115 O   0  0  0  0  0  0  0  0  0  0  0  0
  -22.7727  -12.1748   19.7871 O   0  0  0  0  0  0  0  0  0  0  0  0
  -24.6385  -24.5606   23.9171 O   0  0  0  0  0  0  0  0  0  1  0  0
  -23.6211   -7.4570   22.5122 F   0  0  0  0  0  0  0  0  0  0  0  0
  -20.8934  -10.1481   19.7332 F   0  0  0  0  0  0  0  0  0  0  0  0
  -17.1071  -29.2431   22.7842 Cl  0  0  0  0  0  0  0  0  0  0  0  0
  1  2  1  0  0  0  0
  1  6  2  0  0  0  0
  2  7  2  0  0  0  0
  3  9  2  0  0  0  0
  3 18  1  0  0  0  0
  4 10  1  0  0  0  0
  4 18  2  0  0  0  0
  5 14  2  0  0  0  0
  5 19  1  0  0  0  0
  6 21  1  0  0  0  0
  7 23  1  0  0  0  0
  8 11  2  0  0  0  0
  8 22  1  0  0  0  0
  9 26  1  0  0  0  0
 10 26  2  0  0  0  0
 11 27  1  0  0  0  0
 12 13  2  0  0  0  0
 12 28  1  0  0  0  0
 13 29  1  0  0  0  0
 14 31  1  0  0  0  0
 15 24  1  0  0  0  0
 15 27  2  0  0  0  0
 16 25  1  0  0  0  0
 16 31  2  0  0  0  0
 17 29  2  0  0  0  0
 17 30  1  0  0  0  0
 18 32  1  0  0  0  0
 19 25  2  0  0  0  0
 19 34  1  0  0  0  0
 20 32  1  0  0  0  0
 20 33  2  0  0  0  0
 20 36  1  0  0  0  0
 21 23  2  0  0  0  0
 21 41  1  0  0  0  0
 22 24  2  0  0  0  0
 22 42  1  0  0  0  0
 23 50  1  0  0  0  0
 24 43  1  0  0  0  0
 25 58  1  0  0  0  0
 26 78  1  0  0  0  0
 27 79  1  0  0  0  0
 28 30  2  0  0  0  0
 28 78  1  0  0  0  0
 29 80  1  0  0  0  0
 30 81  1  0  0  0  0
 31 82  1  0  0  0  0
 32 63  2  0  0  0  0
 33 64  1  0  0  0  0
 33 67  1  0  0  0  0
 34 35  2  0  0  0  0
 35 59  1  0  0  0  0
 36 68  1  0  0  0  0
 36 73  2  0  0  0  0
 37 51  1  0  0  0  0
 37 69  1  0  0  0  0
 37 74  2  0  0  0  0
 38 60  1  0  0  0  0
 38 65  1  0  0  0  0
 38 75  2  0  0  0  0
 39 61  1  0  0  0  0
 39 70  1  0  0  0  0
 39 76  2  0  0  0  0
 40 66  1  0  0  0  0
 40 71  1  0  0  0  0
 40 77  2  0  0  0  0
 41 44  1  0  0  0  0
 42 51  1  0  0  0  0
 43 65  1  0  0  0  0
 44 46  1  0  0  0  0
 45 47  1  0  0  0  0
 45 48  1  0  0  0  0
 46 50  1  0  0  0  0
 47 52  1  0  0  0  0
 48 66  1  0  0  0  0
 49 52  1  0  0  0  0
 49 66  1  0  0  0  0
 50 69  1  0  0  0  0
 51 65  1  0  0  0  0
 52 64  1  0  0  0  0
 53 61  1  0  0  0  0
 54 62  1  0  0  0  0
 55 62  1  0  0  0  0
 56 62  1  0  0  0  0
 57 72  1  0  0  0  0
 58 71  1  0  0  0  0
 59 79  1  0  0  0  0
 60 62  1  0  0  0  0
 60 70  1  0  0  0  0
 61 72  1  0  0  0  0
 63 64  1  0  0  0  0
M  CHG  1  72   1
M  ISO  4  40 100  59 101  71 100  79 101
M  END
> <Batch ID>
0044

> <Smiles>
CNC(C)C(=O)NC(C(=O)N1Cc2cc([101O:1][101CH2:1]C=Cc3ccc(Cl)cc3C[100NH:0][100C:0](=O)N3CCCC(n4nc(-c5ccc(Oc6ccc(F)cc6F)cc5)c(C(N)=O)c4N)C3)ccc2CC1C(=O)NC1CCCc2ccccc21)C(C)(C)C

> <Shape>
0.213

> <Color>
0.049

> <Negative vol penalty>
0.000

$$$$

  -OEChem-04042322183D

 86 94  0     1  0  0  0  0  0999 V2000
  -17.8783  -33.0584   22.4656 C   0  0  0  0  0  0  0  0  0  0  0  0
  -19.0987  -33.0977   21.7988 C   0  0  0  0  0  0  0  0  0  0  0  0
  -25.7622  -13.8672   21.1710 C   0  0  0  0  0  0  0  0  0  0  0  0
  -25.2310  -14.3347   18.8609 C   0  0  0  0  0  0  0  0  0  0  0  0
  -17.6759  -32.1378   23.4929 C   0  0  0  0  0  0  0  0  0  0  0  0
  -20.1178  -32.2171   22.1598 C   0  0  0  0  0  0  0  0  0  0  0  0
  -25.5920  -28.5563   19.3405 C   0  0  0  0  0  0  0  0  0  0  0  0
  -30.3892  -23.5696   15.0241 C   0  0  0  0  0  0  0  0  0  0  0  0
  -24.7038  -12.9607   21.2309 C   0  0  0  0  0  0  0  0  0  0  0  0
  -24.1726  -13.4282   18.9209 C   0  0  0  0  0  0  0  0  0  0  0  0
  -26.9575  -28.3464   19.5278 C   0  0  0  0  0  0  0  0  0  0  0  0
  -24.0898   -9.7806   20.2600 C   0  0  0  0  0  0  0  0  0  0  0  0
  -24.3260   -8.5476   20.8679 C   0  0  0  0  0  0  0  0  0  0  0  0
  -29.7453  -22.3636   14.7475 C   0  0  0  0  0  0  0  0  0  0  0  0
  -26.4671  -26.7457   21.2645 C   0  0  0  0  0  0  0  0  0  0  0  0
  -28.6093  -24.1715   16.5430 C   0  0  0  0  0  0  0  0  0  0  0  0
  -22.6027   -9.0194   22.4942 C   0  0  0  0  0  0  0  0  0  0  0  0
  -26.0258  -14.5543   19.9860 C   0  0  0  0  0  0  0  0  0  0  0  0
  -28.4517  -15.2196   19.5618 C   0  0  0  0  0  0  0  0  0  0  0  0
  -18.6897  -31.2390   23.8602 C   0  0  0  0  0  0  0  0  0  0  0  0
  -24.6524  -27.8694   20.1227 C   0  0  0  0  0  0  0  0  0  0  0  0
  -19.9292  -31.2845   23.1940 C   0  0  0  0  0  0  0  0  0  0  0  0
  -25.0902  -26.9467   21.0835 C   0  0  0  0  0  0  0  0  0  0  0  0
  -29.8212  -24.4736   15.9219 C   0  0  0  0  0  0  0  0  0  0  0  0
  -27.9654  -22.9654   16.2664 C   0  0  0  0  0  0  0  0  0  0  0  0
  -23.9090  -12.7412   20.1059 C   0  0  0  0  0  0  0  0  0  0  0  0
  -27.3953  -27.4431   20.4919 C   0  0  0  0  0  0  0  0  0  0  0  0
  -23.1101  -10.6331   20.7691 C   0  0  0  0  0  0  0  0  0  0  0  0
  -23.5824   -8.1670   21.9850 C   0  0  0  0  0  0  0  0  0  0  0  0
  -22.3665  -10.2525   21.8862 C   0  0  0  0  0  0  0  0  0  0  0  0
  -28.5334  -22.0615   15.3686 C   0  0  0  0  0  0  0  0  0  0  0  0
  -27.1186  -15.4913   19.9236 C   0  0  0  0  0  0  0  0  0  0  0  0
  -29.0882  -16.4327   19.6601 C   0  0  0  0  0  0  0  0  0  0  0  0
  -29.0603  -13.9814   19.1718 C   0  0  0  0  0  0  0  0  0  0  0  0
  -22.4065  -28.7290   22.2013 C   0  0  0  0  0  0  0  0  0  0  0  0
  -21.6787  -25.5687   22.1282 C   0  0  0  0  0  0  0  0  0  0  0  0
  -31.6233  -25.4839   18.4293 C   0  0  0  0  0  0  0  0  0  0  0  0
  -22.7104  -22.3712   21.5295 C   0  0  0  0  0  0  0  0  0  0  0  0
  -27.1577  -22.0900   19.3140 C   0  0  0  0  0  0  0  0  0  0  0  0
  -18.4406  -30.2936   25.0087 C   0  0  0  0  0  0  0  0  0  0  0  0
  -23.1824  -28.0872   19.8900 C   0  0  0  0  0  0  0  0  0  0  0  0
  -24.1217  -26.1690   21.9352 C   0  0  0  0  0  0  0  0  0  0  0  0
  -19.4418  -29.1434   25.0789 C   0  0  0  0  0  0  0  0  0  0  0  0
  -28.8925  -20.5825   22.0333 C   0  0  0  0  0  0  0  0  0  0  0  0
  -20.8656  -29.6639   24.9094 C   0  0  0  0  0  0  0  0  0  0  0  0
  -28.7549  -19.0822   21.7683 C   0  0  0  0  0  0  0  0  0  0  0  0
  -27.6329  -21.3450   21.6282 C   0  0  0  0  0  0  0  0  0  0  0  0
  -27.0488  -19.6111   19.9771 C   0  0  0  0  0  0  0  0  0  0  0  0
  -21.0505  -30.3289   23.5400 C   0  0  1  0  0  0  0  0  0  0  0  0
  -22.3250  -27.7148   21.0956 C   0  0  1  0  0  0  0  0  0  0  0  0
  -28.3152  -18.8070   20.3177 C   0  0  2  0  0  0  0  0  0  0  0  0
  -32.8740  -25.2063   19.1744 C   0  0  0  0  0  0  0  0  0  0  0  0
  -21.9026  -19.9962   21.5931 C   0  0  0  0  0  0  0  0  0  0  0  0
  -21.9195  -25.5709   25.1699 C   0  0  0  0  0  0  0  0  0  0  0  0
  -22.0514  -23.0719   25.0916 C   0  0  0  0  0  0  0  0  0  0  0  0
  -20.0020  -24.2371   24.2761 C   0  0  0  0  0  0  0  0  0  0  0  0
  -23.1687  -22.0155   18.6274 C   0  0  0  0  0  0  0  0  0  0  0  0
  -26.6692  -22.6789   16.9531 C   0  0  0  0  0  0  0  0  0  0  0  0
  -30.5135  -25.7698   16.2188 C   0  0  0  0  0  0  0  0  0  0  0  0
  -30.5304  -25.6536   20.6319 C   0  0  0  0  0  0  0  0  0  0  0  0
  -29.1280  -25.9436   21.1282 C   0  0  0  0  0  0  0  0  0  1  0  0
  -22.1219  -24.3514   22.9032 C   0  0  1  0  0  0  0  0  0  0  0  0
  -22.0790  -21.2407   20.7372 C   0  0  2  0  0  0  0  0  0  0  0  0
  -21.5422  -24.3238   24.3456 C   0  0  0  0  0  0  0  0  0  0  0  0
  -26.9189  -16.7761   20.2290 N   0  0  0  0  0  0  0  0  0  0  0  0
  -28.1349  -17.3226   20.0595 N   0  0  0  0  0  0  0  0  0  0  0  0
  -22.6949  -26.4216   21.6744 N   0  0  0  0  0  0  0  0  0  0  0  0
  -27.2709  -21.0413   20.2416 N   0  0  0  0  0  0  0  0  0  0  0  0
  -30.3648  -16.8144   19.4430 N   0  0  0  0  0  0  0  0  0  0  0  0
  -28.2618  -12.8305   19.1233 N   0  0  0  0  0  0  0  0  0  0  0  0
  -21.1985  -29.3262   22.5070 N   0  0  0  0  0  0  0  0  0  0  0  0
  -30.5302  -25.6912   19.1712 N   0  0  0  0  0  0  0  0  0  0  0  0
  -21.7582  -23.1955   22.0908 N   0  0  0  0  0  0  0  0  0  0  0  0
  -26.8170  -21.7145   18.0202 N   0  0  0  0  0  0  0  0  0  0  0  0
  -31.6610  -25.5102   17.0942 N   0  3  0  0  0  0  0  0  0  0  0  0
  -22.9319  -20.8892   19.5667 N   0  3  0  0  0  0  0  0  0  0  0  0
  -30.2798  -13.8947   18.8909 O   0  0  0  0  0  0  0  0  0  0  0  0
  -23.4852  -28.9521   22.7383 O   0  0  0  0  0  0  0  0  0  0  0  0
  -20.4757  -25.7523   21.9265 O   0  0  0  0  0  0  0  0  0  0  0  0
  -23.9267  -22.5071   21.6426 O   0  0  0  0  0  0  0  0  0  0  0  0
  -27.3514  -23.2727   19.6151 O   0  0  0  0  0  0  0  0  0  0  0  0
  -22.8763  -11.8565   20.1640 O   0  0  0  0  0  0  0  0  0  0  0  0
  -28.7276  -27.2368   20.6771 O   0  0  0  0  0  0  0  0  0  1  0  0
  -23.8082   -6.9823   22.5678 F   0  0  0  0  0  0  0  0  0  0  0  0
  -21.4232  -11.0666   22.3792 F   0  0  0  0  0  0  0  0  0  0  0  0
  -27.7654  -20.5599   15.0022 Cl  0  0  0  0  0  0  0  0  0  0  0  0
  1  2  1  0  0  0  0
  1  5  2  0  0  0  0
  2  6  2  0  0  0  0
  3  9  2  0  0  0  0
  3 18  1  0  0  0  0
  4 10  1  0  0  0  0
  4 18  2  0  0  0  0
  5 20  1  0  0  0  0
  6 22  1  0  0  0  0
  7 11  2  0  0  0  0
  7 21  1  0  0  0  0
  8 14  2  0  0  0  0
  8 24  1  0  0  0  0
  9 26  1  0  0  0  0
 10 26  2  0  0  0  0
 11 27  1  0  0  0  0
 12 13  2  0  0  0  0
 12 28  1  0  0  0  0
 13 29  1  0  0  0  0
 14 31  1  0  0  0  0
 15 23  1  0  0  0  0
 15 27  2  0  0  0  0
 16 24  2  0  0  0  0
 16 25  1  0  0  0  0
 17 29  2  0  0  0  0
 17 30  1  0  0  0  0
 18 32  1  0  0  0  0
 19 32  1  0  0  0  0
 19 33  2  0  0  0  0
 19 34  1  0  0  0  0
 20 22  2  0  0  0  0
 20 40  1  0  0  0  0
 21 23  2  0  0  0  0
 21 41  1  0  0  0  0
 22 49  1  0  0  0  0
 23 42  1  0  0  0  0
 24 59  1  0  0  0  0
 25 31  2  0  0  0  0
 25 58  1  0  0  0  0
 26 82  1  0  0  0  0
 27 83  1  0  0  0  0
 28 30  2  0  0  0  0
 28 82  1  0  0  0  0
 29 84  1  0  0  0  0
 30 85  1  0  0  0  0
 31 86  1  0  0  0  0
 32 65  2  0  0  0  0
 33 66  1  0  0  0  0
 33 69  1  0  0  0  0
 34 70  1  0  0  0  0
 34 77  2  0  0  0  0
 35 50  1  0  0  0  0
 35 71  1  0  0  0  0
 35 78  2  0  0  0  0
 36 62  1  0  0  0  0
 36 67  1  0  0  0  0
 36 79  2  0  0  0  0
 37 52  1  0  0  0  0
 37 72  1  0  0  0  0
 37 75  2  0  0  0  0
 38 63  1  0  0  0  0
 38 73  1  0  0  0  0
 38 80  2  0  0  0  0
 39 68  1  0  0  0  0
 39 74  1  0  0  0  0
 39 81  2  0  0  0  0
 40 43  1  0  0  0  0
 41 50  1  0  0  0  0
 42 67  1  0  0  0  0
 43 45  1  0  0  0  0
 44 46  1  0  0  0  0
 44 47  1  0  0  0  0
 45 49  1  0  0  0  0
 46 51  1  0  0  0  0
 47 68  1  0  0  0  0
 48 51  1  0  0  0  0
 48 68  1  0  0  0  0
 49 71  1  0  0  0  0
 50 67  1  0  0  0  0
 51 66  1  0  0  0  0
 53 63  1  0  0  0  0
 54 64  1  0  0  0  0
 55 64  1  0  0  0  0
 56 64  1  0  0  0  0
 57 76  1  0  0  0  0
 58 74  1  0  0  0  0
 59 75  1  0  0  0  0
 60 61  1  0  0  0  0
 60 72  1  0  0  0  0
 61 83  1  0  0  0  0
 62 64  1  0  0  0  0
 62 73  1  0  0  0  0
 63 76  1  0  0  0  0
 65 66  1  0  0  0  0
M  CHG  2  75   1  76   1
M  ISO  4  39 100  61 101  74 100  83 101
M  END
> <Batch ID>
0044

> <Smiles>
CNC(C)C(=O)NC(C(=O)N1Cc2cc([101O:1][101CH2:1]CN=C(C)NCc3ccc(Cl)c(C[100NH:0][100C:0](=O)N4CCCC(n5nc(-c6ccc(Oc7ccc(F)cc7F)cc6)c(C(N)=O)c5N)C4)c3)ccc2CC1C(=O)NC1CCCc2ccccc21)C(C)(C)C

> <Shape>
0.235

> <Color>
0.083

> <Negative vol penalty>
0.000

$$$$

  -OEChem-04042322183D

 86 95  0     1  0  0  0  0  0999 V2000
  -22.0625   -8.3931   21.2595 C   0  0  0  0  0  0  0  0  0  0  0  0
  -22.5722   -9.0112   22.3957 C   0  0  0  0  0  0  0  0  0  0  0  0
  -19.8809  -28.4474   23.4468 C   0  0  0  0  0  0  0  0  0  0  0  0
  -21.1723  -26.5416   22.7139 C   0  0  0  0  0  0  0  0  0  0  0  0
  -22.6297   -8.6555   20.0142 C   0  0  0  0  0  0  0  0  0  0  0  0
  -23.6414   -9.9009   22.2856 C   0  0  0  0  0  0  0  0  0  0  0  0
  -29.1689  -16.0827   23.0823 C   0  0  0  0  0  0  0  0  0  0  0  0
  -30.7556  -25.1515   19.9902 C   0  0  0  0  0  0  0  0  0  0  0  0
  -30.0230  -26.2575   20.4211 C   0  0  0  0  0  0  0  0  0  0  0  0
  -18.7173  -27.8406   22.9744 C   0  0  0  0  0  0  0  0  0  0  0  0
  -20.0086  -25.9348   22.2415 C   0  0  0  0  0  0  0  0  0  0  0  0
  -29.9017  -16.8640   22.1900 C   0  0  0  0  0  0  0  0  0  0  0  0
  -17.3907  -24.2301   23.5304 C   0  0  0  0  0  0  0  0  0  0  0  0
  -17.1999  -22.8803   23.8255 C   0  0  0  0  0  0  0  0  0  0  0  0
  -27.9834  -16.9882   20.7326 C   0  0  0  0  0  0  0  0  0  0  0  0
  -29.6637  -23.7804   21.6530 C   0  0  0  0  0  0  0  0  0  0  0  0
  -17.1386  -22.3728   21.4642 C   0  0  0  0  0  0  0  0  0  0  0  0
  -21.1085  -27.7980   23.3165 C   0  0  0  0  0  0  0  0  0  0  0  0
  -22.5897  -28.8154   25.1272 C   0  0  0  0  0  0  0  0  0  0  0  0
  -23.7144   -9.5394   19.8913 C   0  0  0  0  0  0  0  0  0  0  0  0
  -27.8389  -15.7385   22.8008 C   0  0  0  0  0  0  0  0  0  0  0  0
  -24.2121  -10.1971   21.0346 C   0  0  0  0  0  0  0  0  0  0  0  0
  -27.2351  -16.2045   21.6242 C   0  0  0  0  0  0  0  0  0  0  0  0
  -30.5759  -23.9129   20.6061 C   0  0  0  0  0  0  0  0  0  0  0  0
  -29.1107  -26.1249   21.4679 C   0  0  0  0  0  0  0  0  0  0  0  0
  -18.7811  -26.5843   22.3718 C   0  0  0  0  0  0  0  0  0  0  0  0
  -29.3099  -17.3145   21.0135 C   0  0  0  0  0  0  0  0  0  0  0  0
  -17.4554  -24.6514   22.2022 C   0  0  0  0  0  0  0  0  0  0  0  0
  -17.0738  -21.9516   22.7924 C   0  0  0  0  0  0  0  0  0  0  0  0
  -17.3294  -23.7227   21.1691 C   0  0  0  0  0  0  0  0  0  0  0  0
  -28.9311  -24.8864   22.0839 C   0  0  0  0  0  0  0  0  0  0  0  0
  -22.3111  -28.4245   23.8038 C   0  0  0  0  0  0  0  0  0  0  0  0
  -23.8508  -29.3564   25.0671 C   0  0  0  0  0  0  0  0  0  0  0  0
  -30.5300  -20.4129   20.3385 C   0  0  0  0  0  0  0  0  0  0  0  0
  -21.7811  -28.6997   26.3054 C   0  0  0  0  0  0  0  0  0  0  0  0
  -26.2794  -13.0086   22.3325 C   0  0  0  0  0  0  0  0  0  0  0  0
  -23.6826  -14.9520   22.2872 C   0  0  0  0  0  0  0  0  0  0  0  0
  -22.8307  -18.1772   20.9124 C   0  0  0  0  0  0  0  0  0  0  0  0
  -28.4631  -28.5568   21.3533 C   0  0  0  0  0  0  0  0  0  0  0  0
  -24.2849   -9.7931   18.5182 C   0  0  0  0  0  0  0  0  0  0  0  0
  -27.0537  -14.9172   23.7863 C   0  0  0  0  0  0  0  0  0  0  0  0
  -25.8040  -15.8798   21.2850 C   0  0  0  0  0  0  0  0  0  0  0  0
  -25.6844  -10.3980   18.5583 C   0  0  0  0  0  0  0  0  0  0  0  0
  -28.7557  -20.8662   18.0508 C   0  0  0  0  0  0  0  0  0  0  0  0
  -26.8114  -31.6293   22.0666 C   0  0  0  0  0  0  0  0  0  0  0  0
  -25.7100  -11.5861   19.5083 C   0  0  0  0  0  0  0  0  0  0  0  0
  -29.2199  -19.4621   18.3769 C   0  0  0  0  0  0  0  0  0  0  0  0
  -25.4979  -31.1919   22.7190 C   0  0  0  0  0  0  0  0  0  0  0  0
  -29.8558  -21.8579   18.3842 C   0  0  0  0  0  0  0  0  0  0  0  0
  -27.2336  -30.6779   20.9483 C   0  0  0  0  0  0  0  0  0  0  0  0
  -25.9833  -28.8237   21.9818 C   0  0  0  0  0  0  0  0  0  0  0  0
  -25.3942  -11.1450   20.9431 C   0  0  1  0  0  0  0  0  0  0  0  0
  -29.5241  -19.3740   19.8595 C   0  0  1  0  0  0  0  0  0  1  0  0
  -25.8668  -14.1978   23.1531 C   0  0  1  0  0  0  0  0  0  0  0  0
  -25.5508  -29.7152   23.1573 C   0  0  2  0  0  0  0  0  0  0  0  0
  -21.1515  -19.8815   21.6693 C   0  0  0  0  0  0  0  0  0  0  0  0
  -21.8240  -13.5815   20.2929 C   0  0  0  0  0  0  0  0  0  0  0  0
  -20.9149  -15.8368   19.6965 C   0  0  0  0  0  0  0  0  0  0  0  0
  -20.6615  -14.9666   22.0206 C   0  0  0  0  0  0  0  0  0  0  0  0
  -24.8839  -20.3034   21.0631 C   0  0  0  0  0  0  0  0  0  0  0  0
  -31.3651  -22.7230   20.1420 C   0  0  0  0  0  0  0  0  0  0  0  0
  -22.9388  -15.7179   21.2198 C   0  0  1  0  0  0  0  0  0  0  0  0
  -22.6144  -19.4660   21.6848 C   0  0  2  0  0  0  0  0  0  0  0  0
  -21.6126  -15.0202   20.8052 C   0  0  0  0  0  0  0  0  0  0  0  0
  -23.3143  -28.6945   22.9643 N   0  0  0  0  0  0  0  0  0  0  0  0
  -24.2356  -29.2608   23.7621 N   0  0  0  0  0  0  0  0  0  0  0  0
  -30.5028  -21.6436   19.6798 N   0  0  0  0  0  0  0  0  0  0  0  0
  -25.0798  -15.0685   22.2775 N   0  0  0  0  0  0  0  0  0  0  0  0
  -27.2656  -29.2981   21.4380 N   0  0  0  0  0  0  0  0  0  0  0  0
  -24.6568  -29.8999   26.0037 N   0  0  0  0  0  0  0  0  0  0  0  0
  -20.5108  -28.1188   26.1896 N   0  0  0  0  0  0  0  0  0  0  0  0
  -28.3820  -27.2681   21.8800 N   0  0  0  0  0  0  0  0  0  0  0  0
  -25.2221  -12.3186   21.7707 N   0  0  0  0  0  0  0  0  0  0  0  0
  -22.7661  -17.0720   21.7344 N   0  0  0  0  0  0  0  0  0  0  0  0
  -23.4223  -20.5681   21.0903 N   0  3  0  0  0  0  0  0  0  0  0  0
  -31.2614  -20.1626   21.3001 O   0  0  0  0  0  0  0  0  0  0  0  0
  -22.1667  -29.1144   27.4247 O   0  0  0  0  0  0  0  0  0  0  0  0
  -27.4689  -12.7381   22.2163 O   0  0  0  0  0  0  0  0  0  0  0  0
  -23.0468  -14.2811   23.1041 O   0  0  0  0  0  0  0  0  0  0  0  0
  -23.0329  -18.1530   19.7003 O   0  0  0  0  0  0  0  0  0  0  0  0
  -29.4928  -29.0396   20.8752 O   0  0  0  0  0  0  0  0  0  0  0  0
  -17.6457  -25.9917   21.9109 O   0  0  0  0  0  0  0  0  0  0  0  0
  -30.0231  -18.0768   20.1405 O   0  0  0  0  0  0  0  0  0  1  0  0
  -16.8921  -20.6552   23.0759 F   0  0  0  0  0  0  0  0  0  0  0  0
  -17.3919  -24.1212   19.8912 F   0  0  0  0  0  0  0  0  0  0  0  0
  -27.8123  -24.6782   23.3839 Cl  0  0  0  0  0  0  0  0  0  0  0  0
  1  2  1  0  0  0  0
  1  5  2  0  0  0  0
  2  6  2  0  0  0  0
  3 10  2  0  0  0  0
  3 18  1  0  0  0  0
  4 11  1  0  0  0  0
  4 18  2  0  0  0  0
  5 20  1  0  0  0  0
  6 22  1  0  0  0  0
  7 12  2  0  0  0  0
  7 21  1  0  0  0  0
  8  9  2  0  0  0  0
  8 24  1  0  0  0  0
  9 25  1  0  0  0  0
 10 26  1  0  0  0  0
 11 26  2  0  0  0  0
 12 27  1  0  0  0  0
 13 14  2  0  0  0  0
 13 28  1  0  0  0  0
 14 29  1  0  0  0  0
 15 23  1  0  0  0  0
 15 27  2  0  0  0  0
 16 24  2  0  0  0  0
 16 31  1  0  0  0  0
 17 29  2  0  0  0  0
 17 30  1  0  0  0  0
 18 32  1  0  0  0  0
 19 32  1  0  0  0  0
 19 33  2  0  0  0  0
 19 35  1  0  0  0  0
 20 22  2  0  0  0  0
 20 40  1  0  0  0  0
 21 23  2  0  0  0  0
 21 41  1  0  0  0  0
 22 52  1  0  0  0  0
 23 42  1  0  0  0  0
 24 61  1  0  0  0  0
 25 31  2  0  0  0  0
 25 72  1  0  0  0  0
 26 82  1  0  0  0  0
 27 83  1  0  0  0  0
 28 30  2  0  0  0  0
 28 82  1  0  0  0  0
 29 84  1  0  0  0  0
 30 85  1  0  0  0  0
 31 86  1  0  0  0  0
 32 65  2  0  0  0  0
 33 66  1  0  0  0  0
 33 70  1  0  0  0  0
 34 53  1  0  0  0  0
 34 67  1  0  0  0  0
 34 76  2  0  0  0  0
 35 71  1  0  0  0  0
 35 77  2  0  0  0  0
 36 54  1  0  0  0  0
 36 73  1  0  0  0  0
 36 78  2  0  0  0  0
 37 62  1  0  0  0  0
 37 68  1  0  0  0  0
 37 79  2  0  0  0  0
 38 63  1  0  0  0  0
 38 74  1  0  0  0  0
 38 80  2  0  0  0  0
 39 69  1  0  0  0  0
 39 72  1  0  0  0  0
 39 81  2  0  0  0  0
 40 43  1  0  0  0  0
 41 54  1  0  0  0  0
 42 68  1  0  0  0  0
 43 46  1  0  0  0  0
 44 47  1  0  0  0  0
 44 49  1  0  0  0  0
 45 48  1  0  0  0  0
 45 50  1  0  0  0  0
 46 52  1  0  0  0  0
 47 53  1  0  0  0  0
 48 55  1  0  0  0  0
 49 67  1  0  0  0  0
 50 69  1  0  0  0  0
 51 55  1  0  0  0  0
 51 69  1  0  0  0  0
 52 73  1  0  0  0  0
 53 83  1  0  0  0  0
 54 68  1  0  0  0  0
 55 66  1  0  0  0  0
 56 63  1  0  0  0  0
 57 64  1  0  0  0  0
 58 64  1  0  0  0  0
 59 64  1  0  0  0  0
 60 75  1  0  0  0  0
 61 67  1  0  0  0  0
 62 64  1  0  0  0  0
 62 74  1  0  0  0  0
 63 75  1  0  0  0  0
 65 66  1  0  0  0  0
M  CHG  1  75   1
M  ISO  4  39 100  53 101  72 100  83 101
M  END
> <Batch ID>
0044

> <Smiles>
CNC(C)C(=O)NC(C(=O)N1Cc2cc([101O:1][101CH:1]3CCCN(Cc4ccc([100NH:0][100C:0](=O)N5CCCC(n6nc(-c7ccc(Oc8ccc(F)cc8F)cc7)c(C(N)=O)c6N)C5)c(Cl)c4)C3=O)ccc2CC1C(=O)NC1CCCc2ccccc21)C(C)(C)C

> <Shape>
0.232

> <Color>
0.060

> <Negative vol penalty>
0.000

$$$$

  -OEChem-04042322183D

 86 95  0     1  0  0  0  0  0999 V2000
  -16.6950  -30.0015   23.7032 C   0  0  0  0  0  0  0  0  0  0  0  0
  -17.0954  -28.6939   23.9589 C   0  0  0  0  0  0  0  0  0  0  0  0
  -32.6926  -17.4509   23.4230 C   0  0  0  0  0  0  0  0  0  0  0  0
  -22.6540  -10.2052   20.2635 C   0  0  0  0  0  0  0  0  0  0  0  0
  -24.3068   -9.4939   21.8758 C   0  0  0  0  0  0  0  0  0  0  0  0
  -17.5149  -30.8471   22.9572 C   0  0  0  0  0  0  0  0  0  0  0  0
  -18.3156  -28.2309   23.4677 C   0  0  0  0  0  0  0  0  0  0  0  0
  -23.6587  -23.7521   25.1133 C   0  0  0  0  0  0  0  0  0  0  0  0
  -31.9253  -18.2955   24.2252 C   0  0  0  0  0  0  0  0  0  0  0  0
  -32.0692  -16.5974   22.5127 C   0  0  0  0  0  0  0  0  0  0  0  0
  -21.9257   -9.0383   20.4953 C   0  0  0  0  0  0  0  0  0  0  0  0
  -23.5785   -8.3270   22.1076 C   0  0  0  0  0  0  0  0  0  0  0  0
  -24.3849  -22.6950   24.5667 C   0  0  0  0  0  0  0  0  0  0  0  0
  -19.7897   -7.8587   22.8360 C   0  0  0  0  0  0  0  0  0  0  0  0
  -18.4093   -7.9774   22.9970 C   0  0  0  0  0  0  0  0  0  0  0  0
  -25.7551  -24.2695   23.3573 C   0  0  0  0  0  0  0  0  0  0  0  0
  -18.0628   -6.5347   21.0903 C   0  0  0  0  0  0  0  0  0  0  0  0
  -23.8446  -10.4329   20.9538 C   0  0  0  0  0  0  0  0  0  0  0  0
  -24.1634  -12.9634   20.9039 C   0  0  0  0  0  0  0  0  0  0  0  0
  -18.7501  -30.3972   22.4648 C   0  0  0  0  0  0  0  0  0  0  0  0
  -23.9687  -25.0777   24.7770 C   0  0  0  0  0  0  0  0  0  0  0  0
  -19.1521  -29.0709   22.7132 C   0  0  0  0  0  0  0  0  0  0  0  0
  -25.0329  -25.3418   23.9030 C   0  0  0  0  0  0  0  0  0  0  0  0
  -30.5346  -18.2866   24.1171 C   0  0  0  0  0  0  0  0  0  0  0  0
  -29.9113  -17.4330   23.2068 C   0  0  0  0  0  0  0  0  0  0  0  0
  -30.6786  -16.5884   22.4046 C   0  0  0  0  0  0  0  0  0  0  0  0
  -22.3879   -8.0993   21.4173 C   0  0  0  0  0  0  0  0  0  0  0  0
  -25.4314  -22.9534   23.6863 C   0  0  0  0  0  0  0  0  0  0  0  0
  -20.3067   -7.0781   21.8020 C   0  0  0  0  0  0  0  0  0  0  0  0
  -17.5458   -7.3154   22.1242 C   0  0  0  0  0  0  0  0  0  0  0  0
  -19.4433   -6.4161   20.9292 C   0  0  0  0  0  0  0  0  0  0  0  0
  -24.5976  -11.6378   20.7144 C   0  0  0  0  0  0  0  0  0  0  0  0
  -25.2402  -13.7332   20.5374 C   0  0  0  0  0  0  0  0  0  0  0  0
  -27.8514  -20.6170   24.1924 C   0  0  0  0  0  0  0  0  0  0  0  0
  -22.8996  -13.4551   21.3697 C   0  0  0  0  0  0  0  0  0  0  0  0
  -22.4125  -27.4517   23.3466 C   0  0  0  0  0  0  0  0  0  0  0  0
  -25.0446  -29.1567   24.1756 C   0  0  0  0  0  0  0  0  0  0  0  0
  -28.6151  -28.6390   24.2080 C   0  0  0  0  0  0  0  0  0  0  0  0
  -30.7007  -14.8201   20.6104 C   0  0  0  0  0  0  0  0  0  0  0  0
  -19.5807  -31.3335   21.6233 C   0  0  0  0  0  0  0  0  0  0  0  0
  -23.1930  -26.2079   25.3960 C   0  0  0  0  0  0  0  0  0  0  0  0
  -25.4190  -26.7479   23.5256 C   0  0  0  0  0  0  0  0  0  0  0  0
  -21.0288  -30.8804   21.4568 C   0  0  0  0  0  0  0  0  0  0  0  0
  -29.8195  -21.7978   22.3340 C   0  0  0  0  0  0  0  0  0  0  0  0
  -29.5470  -12.4710   18.1963 C   0  0  0  0  0  0  0  0  0  0  0  0
  -21.0869  -29.3979   21.1022 C   0  0  0  0  0  0  0  0  0  0  0  0
  -28.3121  -21.9073   22.1121 C   0  0  0  0  0  0  0  0  0  0  0  0
  -28.1208  -12.1539   18.6518 C   0  0  0  0  0  0  0  0  0  0  0  0
  -30.1867  -21.3095   23.7325 C   0  0  0  0  0  0  0  0  0  0  0  0
  -30.4898  -12.6705   19.3817 C   0  0  0  0  0  0  0  0  0  0  0  0
  -28.6120  -13.3355   20.8312 C   0  0  0  0  0  0  0  0  0  0  0  0
  -20.4799  -28.5395   22.2185 C   0  0  1  0  0  0  0  0  0  0  0  0
  -27.5317  -21.8899   23.4203 C   0  0  1  0  0  0  0  0  0  1  0  0
  -23.2644  -27.4972   24.5835 C   0  0  1  0  0  0  0  0  0  0  0  0
  -27.6116  -13.1903   19.6727 C   0  0  2  0  0  0  0  0  0  0  0  0
  -28.4189  -17.4271   23.0943 C   0  0  0  0  0  0  0  0  0  0  0  0
  -30.3997  -29.6668   25.6418 C   0  0  0  0  0  0  0  0  0  0  0  0
  -25.3283  -31.1535   21.8860 C   0  0  0  0  0  0  0  0  0  0  0  0
  -27.8040  -31.1219   22.2577 C   0  0  0  0  0  0  0  0  0  0  0  0
  -26.2832  -31.9230   24.0656 C   0  0  0  0  0  0  0  0  0  0  0  0
  -29.5956  -25.9893   25.0892 C   0  0  0  0  0  0  0  0  0  0  0  0
  -29.7327  -19.2058   24.9924 C   0  0  0  0  0  0  0  0  0  0  0  0
  -26.3739  -29.4548   23.5252 C   0  0  1  0  0  0  0  0  0  0  0  0
  -29.4966  -28.4616   25.4310 C   0  0  2  0  0  0  0  0  0  0  0  0
  -26.4332  -30.8892   22.9282 C   0  0  0  0  0  0  0  0  0  0  0  0
  -25.8524  -11.5659   20.2624 N   0  0  0  0  0  0  0  0  0  0  0  0
  -26.2159  -12.8560   20.1648 N   0  0  0  0  0  0  0  0  0  0  0  0
  -29.2216  -20.3496   24.2559 N   0  0  0  0  0  0  0  0  0  0  0  0
  -24.6264  -27.8187   24.1522 N   0  0  0  0  0  0  0  0  0  0  0  0
  -29.9446  -13.6689   20.3041 N   0  0  0  0  0  0  0  0  0  0  0  0
  -25.4383  -15.0680   20.5007 N   0  0  0  0  0  0  0  0  0  0  0  0
  -21.9036  -12.5272   21.7033 N   0  0  0  0  0  0  0  0  0  0  0  0
  -30.0665  -15.7138   21.4728 N   0  0  0  0  0  0  0  0  0  0  0  0
  -21.4127  -28.4052   23.3168 N   0  0  0  0  0  0  0  0  0  0  0  0
  -27.3919  -29.1852   24.5348 N   0  0  0  0  0  0  0  0  0  0  0  0
  -30.3542  -27.2522   25.2803 N   0  3  0  0  0  0  0  0  0  0  0  0
  -26.9723  -19.9262   24.7043 O   0  0  0  0  0  0  0  0  0  0  0  0
  -22.6552  -14.6812   21.4710 O   0  0  0  0  0  0  0  0  0  0  0  0
  -22.6459  -26.6146   22.4826 O   0  0  0  0  0  0  0  0  0  0  0  0
  -24.4043  -30.0761   24.6919 O   0  0  0  0  0  0  0  0  0  0  0  0
  -28.9769  -28.3279   23.0753 O   0  0  0  0  0  0  0  0  0  0  0  0
  -31.8165  -15.0130   20.1207 O   0  0  0  0  0  0  0  0  0  0  0  0
  -21.6774   -6.9607   21.6439 O   0  0  0  0  0  0  0  0  0  0  0  0
  -26.1415  -21.9234   23.1508 O   0  0  0  0  0  0  0  0  0  1  0  0
  -16.2202   -7.4282   22.2799 F   0  0  0  0  0  0  0  0  0  0  0  0
  -19.9340   -5.6638   19.9347 F   0  0  0  0  0  0  0  0  0  0  0  0
  1  2  1  0  0  0  0
  1  6  2  0  0  0  0
  2  7  2  0  0  0  0
  3  9  2  0  0  0  0
  3 10  1  0  0  0  0
  4 11  2  0  0  0  0
  4 18  1  0  0  0  0
  5 12  1  0  0  0  0
  5 18  2  0  0  0  0
  6 20  1  0  0  0  0
  7 22  1  0  0  0  0
  8 13  2  0  0  0  0
  8 21  1  0  0  0  0
  9 24  1  0  0  0  0
 10 26  2  0  0  0  0
 11 27  1  0  0  0  0
 12 27  2  0  0  0  0
 13 28  1  0  0  0  0
 14 15  2  0  0  0  0
 14 29  1  0  0  0  0
 15 30  1  0  0  0  0
 16 23  1  0  0  0  0
 16 28  2  0  0  0  0
 17 30  2  0  0  0  0
 17 31  1  0  0  0  0
 18 32  1  0  0  0  0
 19 32  1  0  0  0  0
 19 33  2  0  0  0  0
 19 35  1  0  0  0  0
 20 22  2  0  0  0  0
 20 40  1  0  0  0  0
 21 23  2  0  0  0  0
 21 41  1  0  0  0  0
 22 52  1  0  0  0  0
 23 42  1  0  0  0  0
 24 25  2  0  0  0  0
 24 62  1  0  0  0  0
 25 26  1  0  0  0  0
 25 56  1  0  0  0  0
 26 73  1  0  0  0  0
 27 83  1  0  0  0  0
 28 84  1  0  0  0  0
 29 31  2  0  0  0  0
 29 83  1  0  0  0  0
 30 85  1  0  0  0  0
 31 86  1  0  0  0  0
 32 66  2  0  0  0  0
 33 67  1  0  0  0  0
 33 71  1  0  0  0  0
 34 53  1  0  0  0  0
 34 68  1  0  0  0  0
 34 77  2  0  0  0  0
 35 72  1  0  0  0  0
 35 78  2  0  0  0  0
 36 54  1  0  0  0  0
 36 74  1  0  0  0  0
 36 79  2  0  0  0  0
 37 63  1  0  0  0  0
 37 69  1  0  0  0  0
 37 80  2  0  0  0  0
 38 64  1  0  0  0  0
 38 75  1  0  0  0  0
 38 81  2  0  0  0  0
 39 70  1  0  0  0  0
 39 73  1  0  0  0  0
 39 82  2  0  0  0  0
 40 43  1  0  0  0  0
 41 54  1  0  0  0  0
 42 69  1  0  0  0  0
 43 46  1  0  0  0  0
 44 47  1  0  0  0  0
 44 49  1  0  0  0  0
 45 48  1  0  0  0  0
 45 50  1  0  0  0  0
 46 52  1  0  0  0  0
 47 53  1  0  0  0  0
 48 55  1  0  0  0  0
 49 68  1  0  0  0  0
 50 70  1  0  0  0  0
 51 55  1  0  0  0  0
 51 70  1  0  0  0  0
 52 74  1  0  0  0  0
 53 84  1  0  0  0  0
 54 69  1  0  0  0  0
 55 67  1  0  0  0  0
 57 64  1  0  0  0  0
 58 65  1  0  0  0  0
 59 65  1  0  0  0  0
 60 65  1  0  0  0  0
 61 76  1  0  0  0  0
 62 68  1  0  0  0  0
 63 65  1  0  0  0  0
 63 75  1  0  0  0  0
 64 76  1  0  0  0  0
 66 67  1  0  0  0  0
M  CHG  1  76   1
M  ISO  4  39 100  53 101  73 100  84 101
M  END
> <Batch ID>
0044

> <Smiles>
CNC(C)C(=O)NC(C(=O)N1Cc2cc([101O:1][101CH:1]3CCCN(Cc4cccc([100NH:0][100C:0](=O)N5CCCC(n6nc(-c7ccc(Oc8ccc(F)cc8F)cc7)c(C(N)=O)c6N)C5)c4C)C3=O)ccc2CC1C(=O)NC1CCCc2ccccc21)C(C)(C)C

> <Shape>
0.266

> <Color>
0.218

> <Negative vol penalty>
0.000

$$$$

  -OEChem-04042322183D

 87 96  0     1  0  0  0  0  0999 V2000
  -17.0471  -28.1230   19.9349 C   0  0  0  0  0  0  0  0  0  0  0  0
  -18.2900  -27.6934   19.4810 C   0  0  0  0  0  0  0  0  0  0  0  0
  -22.6035  -13.8097   22.5875 C   0  0  0  0  0  0  0  0  0  0  0  0
  -23.8200  -11.9635   23.5615 C   0  0  0  0  0  0  0  0  0  0  0  0
  -16.9671  -29.1314   20.8944 C   0  0  0  0  0  0  0  0  0  0  0  0
  -19.4537  -28.2727   19.9856 C   0  0  0  0  0  0  0  0  0  0  0  0
  -22.9942  -24.8384   21.1323 C   0  0  0  0  0  0  0  0  0  0  0  0
  -31.8143  -19.2590   20.8263 C   0  0  0  0  0  0  0  0  0  0  0  0
  -31.4052  -17.9455   20.5962 C   0  0  0  0  0  0  0  0  0  0  0  0
  -21.7994  -13.8800   23.7250 C   0  0  0  0  0  0  0  0  0  0  0  0
  -23.0160  -12.0339   24.6991 C   0  0  0  0  0  0  0  0  0  0  0  0
  -23.7281  -24.3029   20.0746 C   0  0  0  0  0  0  0  0  0  0  0  0
  -19.9121  -11.0598   25.6203 C   0  0  0  0  0  0  0  0  0  0  0  0
  -19.4149   -9.8637   26.1374 C   0  0  0  0  0  0  0  0  0  0  0  0
  -25.5463  -25.8041   20.5841 C   0  0  0  0  0  0  0  0  0  0  0  0
  -20.5513  -10.2940   28.2256 C   0  0  0  0  0  0  0  0  0  0  0  0
  -23.6138  -12.8513   22.5057 C   0  0  0  0  0  0  0  0  0  0  0  0
  -24.0264  -12.5380   20.0078 C   0  0  0  0  0  0  0  0  0  0  0  0
  -18.1306  -29.7167   21.4181 C   0  0  0  0  0  0  0  0  0  0  0  0
  -23.5275  -25.8700   21.9183 C   0  0  0  0  0  0  0  0  0  0  0  0
  -19.3892  -29.2908   20.9521 C   0  0  0  0  0  0  0  0  0  0  0  0
  -24.8182  -26.3492   21.6527 C   0  0  0  0  0  0  0  0  0  0  0  0
  -30.9002  -20.3056   20.7050 C   0  0  0  0  0  0  0  0  0  0  0  0
  -29.5770  -20.0387   20.3535 C   0  0  0  0  0  0  0  0  0  0  0  0
  -29.1678  -18.7252   20.1234 C   0  0  0  0  0  0  0  0  0  0  0  0
  -30.0819  -17.6786   20.2447 C   0  0  0  0  0  0  0  0  0  0  0  0
  -22.0057  -12.9922   24.7809 C   0  0  0  0  0  0  0  0  0  0  0  0
  -25.0031  -24.7878   19.7986 C   0  0  0  0  0  0  0  0  0  0  0  0
  -20.7291  -11.8731   26.4058 C   0  0  0  0  0  0  0  0  0  0  0  0
  -19.7344   -9.4808   27.4401 C   0  0  0  0  0  0  0  0  0  0  0  0
  -21.0486  -11.4902   27.7084 C   0  0  0  0  0  0  0  0  0  0  0  0
  -24.4444  -12.7777   21.3306 C   0  0  0  0  0  0  0  0  0  0  0  0
  -25.1853  -12.5660   19.2712 C   0  0  0  0  0  0  0  0  0  0  0  0
  -27.0072  -22.2024   18.7074 C   0  0  0  0  0  0  0  0  0  0  0  0
  -25.9527  -21.4947   18.2696 C   0  0  0  0  0  0  0  0  0  0  0  0
  -22.7085  -12.3103   19.4912 C   0  0  0  0  0  0  0  0  0  0  0  0
  -22.7063  -28.8797   22.5270 C   0  0  0  0  0  0  0  0  0  0  0  0
  -25.1612  -28.7120   24.6407 C   0  0  0  0  0  0  0  0  0  0  0  0
  -28.4981  -27.3411   24.6975 C   0  0  0  0  0  0  0  0  0  0  0  0
  -30.4863  -15.1963   20.0996 C   0  0  0  0  0  0  0  0  0  0  0  0
  -17.9927  -30.8363   22.4192 C   0  0  0  0  0  0  0  0  0  0  0  0
  -22.7338  -26.4184   23.0722 C   0  0  0  0  0  0  0  0  0  0  0  0
  -25.4442  -27.4416   22.4793 C   0  0  0  0  0  0  0  0  0  0  0  0
  -19.2828  -31.1377   23.1775 C   0  0  0  0  0  0  0  0  0  0  0  0
  -29.8833  -11.7165   19.6475 C   0  0  0  0  0  0  0  0  0  0  0  0
  -29.4292  -23.7247   18.5177 C   0  0  0  0  0  0  0  0  0  0  0  0
  -20.4629  -31.2145   22.2139 C   0  0  0  0  0  0  0  0  0  0  0  0
  -28.0839  -24.4251   18.3624 C   0  0  0  0  0  0  0  0  0  0  0  0
  -28.3810  -11.5729   19.9014 C   0  0  0  0  0  0  0  0  0  0  0  0
  -30.5175  -12.7564   20.5695 C   0  0  0  0  0  0  0  0  0  0  0  0
  -28.3650  -13.9295   20.8143 C   0  0  0  0  0  0  0  0  0  0  0  0
  -29.3541  -22.2686   18.0702 C   0  0  0  0  0  0  0  0  0  0  0  0
  -20.6748  -29.8775   21.4935 C   0  0  1  0  0  0  0  0  0  0  0  0
  -26.9722  -23.6662   19.0854 C   0  0  1  0  0  0  0  0  0  1  0  0
  -23.1712  -27.8202   23.4857 C   0  0  1  0  0  0  0  0  0  0  0  0
  -27.6700  -12.9399   19.8648 C   0  0  2  0  0  0  0  0  0  0  0  0
  -31.3644  -21.7028   20.9569 C   0  0  0  0  0  0  0  0  0  0  0  0
  -27.7473  -18.4411   19.7464 C   0  0  0  0  0  0  0  0  0  0  0  0
  -29.9010  -26.5418   26.6186 C   0  0  0  0  0  0  0  0  0  0  0  0
  -26.2968  -31.5439   24.6125 C   0  0  0  0  0  0  0  0  0  0  0  0
  -28.5463  -30.5723   25.1259 C   0  0  0  0  0  0  0  0  0  0  0  0
  -26.6695  -30.2917   26.7450 C   0  0  0  0  0  0  0  0  0  0  0  0
  -28.8973  -24.6861   23.4524 C   0  0  0  0  0  0  0  0  0  0  0  0
  -28.5961  -21.1666   20.2239 C   0  0  0  0  0  0  0  0  0  0  0  0
  -26.6446  -28.9858   24.5802 C   0  0  1  0  0  0  0  0  0  0  0  0
  -28.9712  -26.1336   25.4866 C   0  0  2  0  0  0  0  0  0  0  0  0
  -27.0248  -30.3400   25.2430 C   0  0  0  0  0  0  0  0  0  0  0  0
  -25.7656  -12.9456   21.4315 N   0  0  0  0  0  0  0  0  0  0  0  0
  -26.1879  -12.8110   20.1628 N   0  0  0  0  0  0  0  0  0  0  0  0
  -24.6259  -27.9498   23.5927 N   0  0  0  0  0  0  0  0  0  0  0  0
  -29.7943  -14.0267   20.4788 N   0  0  0  0  0  0  0  0  0  0  0  0
  -25.4344  -12.4047   17.9542 N   0  0  0  0  0  0  0  0  0  0  0  0
  -22.2349  -10.9928   19.4257 N   0  0  0  0  0  0  0  0  0  0  0  0
  -29.6883  -16.3368   20.0158 N   0  0  0  0  0  0  0  0  0  0  0  0
  -21.3347  -28.9314   22.3675 N   0  0  0  0  0  0  0  0  0  0  0  0
  -27.2985  -27.8251   25.1749 N   0  0  0  0  0  0  0  0  0  0  0  0
  -28.2708  -21.5033   18.7947 N   0  3  1  0  0  0  0  0  0  0  0  0
  -29.7013  -25.1870   24.5968 N   0  3  0  0  0  0  0  0  0  0  0  0
  -21.9789  -13.2459   19.0841 O   0  0  0  0  0  0  0  0  0  0  0  0
  -23.5309  -29.5982   21.9742 O   0  0  0  0  0  0  0  0  0  0  0  0
  -24.5031  -29.1519   25.5867 O   0  0  0  0  0  0  0  0  0  0  0  0
  -29.1314  -27.8104   23.7546 O   0  0  0  0  0  0  0  0  0  0  0  0
  -31.6923  -15.1815   19.8399 O   0  0  0  0  0  0  0  0  0  0  0  0
  -21.2214  -13.0607   25.8912 O   0  0  0  0  0  0  0  0  0  0  0  0
  -25.7213  -24.2674   18.7665 O   0  0  0  0  0  0  0  0  0  1  0  0
  -19.2555   -8.3328   27.9371 F   0  0  0  0  0  0  0  0  0  0  0  0
  -21.8320  -12.2679   28.4682 F   0  0  0  0  0  0  0  0  0  0  0  0
  1  2  1  0  0  0  0
  1  5  2  0  0  0  0
  2  6  2  0  0  0  0
  3 10  2  0  0  0  0
  3 17  1  0  0  0  0
  4 11  1  0  0  0  0
  4 17  2  0  0  0  0
  5 19  1  0  0  0  0
  6 21  1  0  0  0  0
  7 12  2  0  0  0  0
  7 20  1  0  0  0  0
  8  9  1  0  0  0  0
  8 23  2  0  0  0  0
  9 26  2  0  0  0  0
 10 27  1  0  0  0  0
 11 27  2  0  0  0  0
 12 28  1  0  0  0  0
 13 14  2  0  0  0  0
 13 29  1  0  0  0  0
 14 30  1  0  0  0  0
 15 22  1  0  0  0  0
 15 28  2  0  0  0  0
 16 30  2  0  0  0  0
 16 31  1  0  0  0  0
 17 32  1  0  0  0  0
 18 32  1  0  0  0  0
 18 33  2  0  0  0  0
 18 36  1  0  0  0  0
 19 21  2  0  0  0  0
 19 41  1  0  0  0  0
 20 22  2  0  0  0  0
 20 42  1  0  0  0  0
 21 53  1  0  0  0  0
 22 43  1  0  0  0  0
 23 24  1  0  0  0  0
 23 57  1  0  0  0  0
 24 25  2  0  0  0  0
 24 64  1  0  0  0  0
 25 26  1  0  0  0  0
 25 58  1  0  0  0  0
 26 74  1  0  0  0  0
 27 84  1  0  0  0  0
 28 85  1  0  0  0  0
 29 31  2  0  0  0  0
 29 84  1  0  0  0  0
 30 86  1  0  0  0  0
 31 87  1  0  0  0  0
 32 68  2  0  0  0  0
 33 69  1  0  0  0  0
 33 72  1  0  0  0  0
 34 35  2  0  0  0  0
 34 54  1  0  0  0  0
 34 77  1  0  0  0  0
 36 73  1  0  0  0  0
 36 79  2  0  0  0  0
 37 55  1  0  0  0  0
 37 75  1  0  0  0  0
 37 80  2  0  0  0  0
 38 65  1  0  0  0  0
 38 70  1  0  0  0  0
 38 81  2  0  0  0  0
 39 66  1  0  0  0  0
 39 76  1  0  0  0  0
 39 82  2  0  0  0  0
 40 71  1  0  0  0  0
 40 74  1  0  0  0  0
 40 83  2  0  0  0  0
 41 44  1  0  0  0  0
 42 55  1  0  0  0  0
 43 70  1  0  0  0  0
 44 47  1  0  0  0  0
 45 49  1  0  0  0  0
 45 50  1  0  0  0  0
 46 48  1  0  0  0  0
 46 52  1  0  0  0  0
 47 53  1  0  0  0  0
 48 54  1  0  0  0  0
 49 56  1  0  0  0  0
 50 71  1  0  0  0  0
 51 56  1  0  0  0  0
 51 71  1  0  0  0  0
 52 77  1  0  0  0  0
 53 75  1  0  0  0  0
 54 85  1  0  0  0  0
 55 70  1  0  0  0  0
 56 69  1  0  0  0  0
 59 66  1  0  0  0  0
 60 67  1  0  0  0  0
 61 67  1  0  0  0  0
 62 67  1  0  0  0  0
 63 78  1  0  0  0  0
 64 77  1  0  0  0  0
 65 67  1  0  0  0  0
 65 76  1  0  0  0  0
 66 78  1  0  0  0  0
 68 69  1  0  0  0  0
M  CHG  2  77   1  78   1
M  ISO  4  40 100  54 101  74 100  85 101
M  END
> <Batch ID>
0044

> <Smiles>
C=C1N(Cc2c(C)ccc([100NH:0][100C:0](=O)N3CCCC(n4nc(-c5ccc(Oc6ccc(F)cc6F)cc5)c(C(N)=O)c4N)C3)c2C)CCC[101CH:1]1[101O:1]c1ccc2c(c1)CN(C(=O)C(NC(=O)C(C)NC)C(C)(C)C)C(C(=O)NC1CCCc3ccccc31)C2

> <Shape>
0.211

> <Color>
0.072

> <Negative vol penalty>
0.000

$$$$

  -OEChem-04042322183D

 88 96  0     1  0  0  0  0  0999 V2000
  -24.2973  -24.8895   36.9279 C   0  0  0  0  0  0  0  0  0  0  0  0
  -24.6589  -24.3743   35.6872 C   0  0  0  0  0  0  0  0  0  0  0  0
  -23.0794   -9.8616   19.9441 C   0  0  0  0  0  0  0  0  0  0  0  0
  -23.8358   -9.8792   22.2386 C   0  0  0  0  0  0  0  0  0  0  0  0
  -23.0085  -25.3823   37.1281 C   0  0  0  0  0  0  0  0  0  0  0  0
  -23.7314  -24.3506   34.6462 C   0  0  0  0  0  0  0  0  0  0  0  0
  -24.8739  -25.1224   28.6793 C   0  0  0  0  0  0  0  0  0  0  0  0
  -22.3377   -8.7078   20.1975 C   0  0  0  0  0  0  0  0  0  0  0  0
  -23.0940   -8.7254   22.4920 C   0  0  0  0  0  0  0  0  0  0  0  0
  -25.0402  -24.2179   27.6314 C   0  0  0  0  0  0  0  0  0  0  0  0
  -19.8667   -7.9228   23.0927 C   0  0  0  0  0  0  0  0  0  0  0  0
  -19.1081   -7.8858   24.2626 C   0  0  0  0  0  0  0  0  0  0  0  0
  -22.7184  -24.4899   27.0361 C   0  0  0  0  0  0  0  0  0  0  0  0
  -31.6073  -18.3652   20.0432 C   0  0  0  0  0  0  0  0  0  0  0  0
  -20.3527   -5.9540   25.0085 C   0  0  0  0  0  0  0  0  0  0  0  0
  -30.2027  -20.0642   19.0545 C   0  0  0  0  0  0  0  0  0  0  0  0
  -23.8285  -10.4473   20.9647 C   0  0  0  0  0  0  0  0  0  0  0  0
  -24.1649  -12.9727   20.8353 C   0  0  0  0  0  0  0  0  0  0  0  0
  -22.0677  -25.3735   36.0862 C   0  0  0  0  0  0  0  0  0  0  0  0
  -23.6238  -25.7101   28.9205 C   0  0  0  0  0  0  0  0  0  0  0  0
  -22.4284  -24.8425   34.8331 C   0  0  0  0  0  0  0  0  0  0  0  0
  -22.5395  -25.4035   28.0861 C   0  0  0  0  0  0  0  0  0  0  0  0
  -30.5721  -18.0134   20.9094 C   0  0  0  0  0  0  0  0  0  0  0  0
  -29.3522  -18.6869   20.8480 C   0  0  0  0  0  0  0  0  0  0  0  0
  -22.3450   -8.1397   21.4714 C   0  0  0  0  0  0  0  0  0  0  0  0
  -23.9617  -23.8993   26.8115 C   0  0  0  0  0  0  0  0  0  0  0  0
  -20.8683   -6.9754   22.8807 C   0  0  0  0  0  0  0  0  0  0  0  0
  -19.3511   -6.9014   25.2206 C   0  0  0  0  0  0  0  0  0  0  0  0
  -21.1113   -5.9910   23.8386 C   0  0  0  0  0  0  0  0  0  0  0  0
  -31.4227  -19.3906   19.1158 C   0  0  0  0  0  0  0  0  0  0  0  0
  -29.1675  -19.7124   19.9206 C   0  0  0  0  0  0  0  0  0  0  0  0
  -24.5953  -11.6388   20.7034 C   0  0  0  0  0  0  0  0  0  0  0  0
  -25.2560  -13.7231   20.4707 C   0  0  0  0  0  0  0  0  0  0  0  0
  -22.8927  -13.4873   21.2503 C   0  0  0  0  0  0  0  0  0  0  0  0
  -21.5638  -25.6868   31.3413 C   0  0  0  0  0  0  0  0  0  0  0  0
  -20.0079  -27.8811   29.5285 C   0  0  0  0  0  0  0  0  0  0  0  0
  -26.8746  -19.9284   23.1013 C   0  0  0  0  0  0  0  0  0  0  0  0
  -19.4161  -29.1853   26.4308 C   0  0  0  0  0  0  0  0  0  0  0  0
  -30.7372  -14.7550   20.6634 C   0  0  0  0  0  0  0  0  0  0  0  0
  -20.6722  -25.8737   36.3640 C   0  0  0  0  0  0  0  0  0  0  0  0
  -23.4674  -26.7043   30.0384 C   0  0  0  0  0  0  0  0  0  0  0  0
  -21.1817  -26.0225   28.2904 C   0  0  0  0  0  0  0  0  0  0  0  0
  -19.8637  -26.1563   35.1004 C   0  0  0  0  0  0  0  0  0  0  0  0
  -29.6085  -12.3587   18.2842 C   0  0  0  0  0  0  0  0  0  0  0  0
  -19.9998  -25.0036   34.1106 C   0  0  0  0  0  0  0  0  0  0  0  0
  -28.1710  -12.0635   18.7161 C   0  0  0  0  0  0  0  0  0  0  0  0
  -30.5233  -12.5862   19.4856 C   0  0  0  0  0  0  0  0  0  0  0  0
  -28.6178  -13.3185   20.8665 C   0  0  0  0  0  0  0  0  0  0  0  0
  -21.4580  -24.8223   33.6720 C   0  0  1  0  0  0  0  0  0  0  0  0
  -22.0239  -26.8509   30.5100 C   0  0  1  0  0  0  0  0  0  0  0  0
  -27.6458  -13.1372   19.6881 C   0  0  2  0  0  0  0  0  0  0  0  0
  -18.0671  -30.9482   25.2605 C   0  0  0  0  0  0  0  0  0  0  0  0
  -17.5161  -26.1383   29.7806 C   0  0  0  0  0  0  0  0  0  0  0  0
  -16.5191  -27.4085   27.8673 C   0  0  0  0  0  0  0  0  0  0  0  0
  -17.0957  -28.5951   29.9844 C   0  0  0  0  0  0  0  0  0  0  0  0
  -29.2667  -19.4887   23.6897 C   0  0  0  0  0  0  0  0  0  0  0  0
  -21.8474  -30.5723   25.4696 C   0  0  0  0  0  0  0  0  0  0  0  0
  -30.7964  -16.9105   21.8920 C   0  0  0  0  0  0  0  0  0  0  0  0
  -28.2484  -18.2962   21.7878 C   0  0  0  0  0  0  0  0  0  0  0  0
  -26.8656  -20.9013   24.2598 C   0  0  0  0  0  0  0  0  0  0  0  0
  -25.4227  -22.4509   25.6094 C   0  0  0  0  0  0  0  0  0  1  0  0
  -18.9518  -27.8228   28.4513 C   0  0  1  0  0  0  0  0  0  0  0  0
  -19.3926  -30.6177   25.9286 C   0  0  2  0  0  0  0  0  0  0  0  0
  -17.5456  -27.4779   29.0180 C   0  0  0  0  0  0  0  0  0  0  0  0
  -25.8610  -11.5441   20.2874 N   0  0  0  0  0  0  0  0  0  0  0  0
  -26.2353  -12.8280   20.1547 N   0  0  0  0  0  0  0  0  0  0  0  0
  -21.0776  -26.9838   29.4006 N   0  0  0  0  0  0  0  0  0  0  0  0
  -29.9691  -13.6170   20.3668 N   0  0  0  0  0  0  0  0  0  0  0  0
  -25.4636  -15.0548   20.3928 N   0  0  0  0  0  0  0  0  0  0  0  0
  -21.8823  -12.5772   21.5896 N   0  0  0  0  0  0  0  0  0  0  0  0
  -21.8194  -25.8243   32.6923 N   0  0  0  0  0  0  0  0  0  0  0  0
  -19.0158  -29.0991   27.7474 N   0  0  0  0  0  0  0  0  0  0  0  0
  -30.1347  -15.6858   21.5009 N   0  0  0  0  0  0  0  0  0  0  0  0
  -28.0831  -19.2642   22.8694 N   0  0  0  0  0  0  0  0  0  0  0  0
  -20.4853  -30.8377   24.9393 N   0  3  0  0  0  0  0  0  0  0  0  0
  -25.5235  -21.5143   24.4435 N   0  3  0  0  0  0  0  0  0  0  0  0
  -22.6536  -14.7176   21.3025 O   0  0  0  0  0  0  0  0  0  0  0  0
  -21.0161  -24.7350   30.7974 O   0  0  0  0  0  0  0  0  0  0  0  0
  -19.8917  -28.6978   30.4456 O   0  0  0  0  0  0  0  0  0  0  0  0
  -25.8596  -19.7556   22.4215 O   0  0  0  0  0  0  0  0  0  0  0  0
  -19.7521  -28.2373   25.7245 O   0  0  0  0  0  0  0  0  0  0  0  0
  -31.8734  -14.9312   20.2108 O   0  0  0  0  0  0  0  0  0  0  0  0
  -21.6211   -7.0139   21.7190 O   0  0  0  0  0  0  0  0  0  0  0  0
  -24.1211  -23.0162   25.7884 O   0  0  0  0  0  0  0  0  0  1  0  0
  -18.6235   -6.8669   26.3447 F   0  0  0  0  0  0  0  0  0  0  0  0
  -22.0729   -5.0788   23.6410 F   0  0  0  0  0  0  0  0  0  0  0  0
  -32.7016  -19.8246   18.0489 Cl  0  0  0  0  0  0  0  0  0  0  0  0
  -27.6729  -20.5702   19.8132 Cl  0  0  0  0  0  0  0  0  0  0  0  0
  1  2  1  0  0  0  0
  1  5  2  0  0  0  0
  2  6  2  0  0  0  0
  3  8  2  0  0  0  0
  3 17  1  0  0  0  0
  4  9  1  0  0  0  0
  4 17  2  0  0  0  0
  5 19  1  0  0  0  0
  6 21  1  0  0  0  0
  7 10  2  0  0  0  0
  7 20  1  0  0  0  0
  8 25  1  0  0  0  0
  9 25  2  0  0  0  0
 10 26  1  0  0  0  0
 11 12  2  0  0  0  0
 11 27  1  0  0  0  0
 12 28  1  0  0  0  0
 13 22  1  0  0  0  0
 13 26  2  0  0  0  0
 14 23  1  0  0  0  0
 14 30  2  0  0  0  0
 15 28  2  0  0  0  0
 15 29  1  0  0  0  0
 16 30  1  0  0  0  0
 16 31  2  0  0  0  0
 17 32  1  0  0  0  0
 18 32  1  0  0  0  0
 18 33  2  0  0  0  0
 18 34  1  0  0  0  0
 19 21  2  0  0  0  0
 19 40  1  0  0  0  0
 20 22  2  0  0  0  0
 20 41  1  0  0  0  0
 21 49  1  0  0  0  0
 22 42  1  0  0  0  0
 23 24  2  0  0  0  0
 23 58  1  0  0  0  0
 24 31  1  0  0  0  0
 24 59  1  0  0  0  0
 25 83  1  0  0  0  0
 26 84  1  0  0  0  0
 27 29  2  0  0  0  0
 27 83  1  0  0  0  0
 28 85  1  0  0  0  0
 29 86  1  0  0  0  0
 30 87  1  0  0  0  0
 31 88  1  0  0  0  0
 32 65  2  0  0  0  0
 33 66  1  0  0  0  0
 33 69  1  0  0  0  0
 34 70  1  0  0  0  0
 34 77  2  0  0  0  0
 35 50  1  0  0  0  0
 35 71  1  0  0  0  0
 35 78  2  0  0  0  0
 36 62  1  0  0  0  0
 36 67  1  0  0  0  0
 36 79  2  0  0  0  0
 37 60  1  0  0  0  0
 37 74  1  0  0  0  0
 37 80  2  0  0  0  0
 38 63  1  0  0  0  0
 38 72  1  0  0  0  0
 38 81  2  0  0  0  0
 39 68  1  0  0  0  0
 39 73  1  0  0  0  0
 39 82  2  0  0  0  0
 40 43  1  0  0  0  0
 41 50  1  0  0  0  0
 42 67  1  0  0  0  0
 43 45  1  0  0  0  0
 44 46  1  0  0  0  0
 44 47  1  0  0  0  0
 45 49  1  0  0  0  0
 46 51  1  0  0  0  0
 47 68  1  0  0  0  0
 48 51  1  0  0  0  0
 48 68  1  0  0  0  0
 49 71  1  0  0  0  0
 50 67  1  0  0  0  0
 51 66  1  0  0  0  0
 52 63  1  0  0  0  0
 53 64  1  0  0  0  0
 54 64  1  0  0  0  0
 55 64  1  0  0  0  0
 56 74  1  0  0  0  0
 57 75  1  0  0  0  0
 58 73  1  0  0  0  0
 59 74  1  0  0  0  0
 60 76  1  0  0  0  0
 61 76  1  0  0  0  0
 61 84  1  0  0  0  0
 62 64  1  0  0  0  0
 62 72  1  0  0  0  0
 63 75  1  0  0  0  0
 65 66  1  0  0  0  0
M  CHG  2  75   1  76   1
M  ISO  4  39 100  61 101  73 100  84 101
M  END
> <Batch ID>
0044

> <Smiles>
CNC(C)C(=O)NC(C(=O)N1Cc2cc([101O:1][101CH2:1]NCC(=O)N(C)Cc3c(Cl)cc(Cl)cc3C[100NH:0][100C:0](=O)N3CCCC(n4nc(-c5ccc(Oc6ccc(F)cc6F)cc5)c(C(N)=O)c4N)C3)ccc2CC1C(=O)NC1CCCc2ccccc21)C(C)(C)C

> <Shape>
0.200

> <Color>
0.187

> <Negative vol penalty>
0.000

$$$$

  -OEChem-04042322183D

 87 96  0     1  0  0  0  0  0999 V2000
  -16.5265  -29.0339   23.3521 C   0  0  0  0  0  0  0  0  0  0  0  0
  -17.3543  -29.1353   22.2386 C   0  0  0  0  0  0  0  0  0  0  0  0
  -26.2187  -13.1787   20.2574 C   0  0  0  0  0  0  0  0  0  0  0  0
  -25.2223  -14.6054   21.9334 C   0  0  0  0  0  0  0  0  0  0  0  0
  -17.0714  -29.1064   24.6334 C   0  0  0  0  0  0  0  0  0  0  0  0
  -18.7275  -29.3104   22.4058 C   0  0  0  0  0  0  0  0  0  0  0  0
  -24.9830  -27.6324   19.3448 C   0  0  0  0  0  0  0  0  0  0  0  0
  -28.6353  -24.9793   16.6139 C   0  0  0  0  0  0  0  0  0  0  0  0
  -25.6440  -12.0628   20.8656 C   0  0  0  0  0  0  0  0  0  0  0  0
  -24.6476  -13.4894   22.5417 C   0  0  0  0  0  0  0  0  0  0  0  0
  -26.1582  -28.2336   18.8962 C   0  0  0  0  0  0  0  0  0  0  0  0
  -22.6112  -10.5720   20.9775 C   0  0  0  0  0  0  0  0  0  0  0  0
  -21.9928   -9.6314   20.1539 C   0  0  0  0  0  0  0  0  0  0  0  0
  -27.4362  -24.2796   16.7486 C   0  0  0  0  0  0  0  0  0  0  0  0
  -26.9980  -28.2654   21.1574 C   0  0  0  0  0  0  0  0  0  0  0  0
  -29.4977  -23.8812   18.5856 C   0  0  0  0  0  0  0  0  0  0  0  0
  -23.5220   -7.9354   20.9428 C   0  0  0  0  0  0  0  0  0  0  0  0
  -26.0079  -14.4501   20.7913 C   0  0  0  0  0  0  0  0  0  0  0  0
  -26.3942  -16.0556   18.8470 C   0  0  0  0  0  0  0  0  0  0  0  0
  -18.4533  -29.2728   24.8164 C   0  0  0  0  0  0  0  0  0  0  0  0
  -24.8017  -27.3526   20.7069 C   0  0  0  0  0  0  0  0  0  0  0  0
  -19.2913  -29.3866   23.6907 C   0  0  0  0  0  0  0  0  0  0  0  0
  -25.8207  -27.6582   21.6204 C   0  0  0  0  0  0  0  0  0  0  0  0
  -29.6661  -24.7801   17.5323 C   0  0  0  0  0  0  0  0  0  0  0  0
  -28.2986  -23.1815   18.7204 C   0  0  0  0  0  0  0  0  0  0  0  0
  -24.8585  -12.2181   22.0078 C   0  0  0  0  0  0  0  0  0  0  0  0
  -27.1647  -28.5529   19.8029 C   0  0  0  0  0  0  0  0  0  0  0  0
  -23.6850  -10.1945   21.7837 C   0  0  0  0  0  0  0  0  0  0  0  0
  -22.4482   -8.3130   20.1366 C   0  0  0  0  0  0  0  0  0  0  0  0
  -24.1404   -8.8761   21.7664 C   0  0  0  0  0  0  0  0  0  0  0  0
  -27.2678  -23.3807   17.8019 C   0  0  0  0  0  0  0  0  0  0  0  0
  -26.6017  -15.6032   20.1638 C   0  0  0  0  0  0  0  0  0  0  0  0
  -27.1796  -17.1775   18.7416 C   0  0  0  0  0  0  0  0  0  0  0  0
  -30.5567  -27.8760   18.0539 C   0  0  0  0  0  0  0  0  0  0  0  0
  -25.5656  -15.5106   17.8116 C   0  0  0  0  0  0  0  0  0  0  0  0
  -22.7390  -28.2933   22.9349 C   0  0  0  0  0  0  0  0  0  0  0  0
  -24.2702  -26.0723   24.7363 C   0  0  0  0  0  0  0  0  0  0  0  0
  -27.0948  -24.2396   25.2929 C   0  0  0  0  0  0  0  0  0  0  0  0
  -29.1038  -21.9858   20.7863 C   0  0  0  0  0  0  0  0  0  0  0  0
  -18.9903  -29.3930   26.2206 C   0  0  0  0  0  0  0  0  0  0  0  0
  -23.5393  -26.6794   21.1711 C   0  0  0  0  0  0  0  0  0  0  0  0
  -25.6837  -27.3599   23.0903 C   0  0  0  0  0  0  0  0  0  0  0  0
  -20.5023  -29.2038   26.3127 C   0  0  0  0  0  0  0  0  0  0  0  0
  -32.1945  -27.3659   20.4867 C   0  0  0  0  0  0  0  0  0  0  0  0
  -30.7445  -19.0051   21.8356 C   0  0  0  0  0  0  0  0  0  0  0  0
  -21.2087  -30.0154   25.2315 C   0  0  0  0  0  0  0  0  0  0  0  0
  -32.0422  -28.7403   19.8524 C   0  0  0  0  0  0  0  0  0  0  0  0
  -29.7959  -17.8916   21.3859 C   0  0  0  0  0  0  0  0  0  0  0  0
  -31.5248  -26.2470   19.6935 C   0  0  0  0  0  0  0  0  0  0  0  0
  -29.9830  -20.2382   22.3187 C   0  0  0  0  0  0  0  0  0  0  0  0
  -28.0388  -19.6487   20.9252 C   0  0  0  0  0  0  0  0  0  0  0  0
  -20.7890  -29.5522   23.8312 C   0  0  1  0  0  0  0  0  0  0  0  0
  -30.6964  -28.9134   19.1565 C   0  0  2  0  0  0  0  0  0  0  0  0
  -23.2493  -26.9088   22.6512 C   0  0  1  0  0  0  0  0  0  0  0  0
  -28.7601  -18.4101   20.3691 C   0  0  2  0  0  0  0  0  0  0  0  0
  -28.5803  -22.5130   26.3463 C   0  0  0  0  0  0  0  0  0  0  0  0
  -24.7149  -28.2534   26.8231 C   0  0  0  0  0  0  0  0  0  0  0  0
  -26.4526  -26.7923   27.8785 C   0  0  0  0  0  0  0  0  0  0  0  0
  -24.0821  -26.0239   27.7629 C   0  0  0  0  0  0  0  0  0  0  0  0
  -26.1669  -22.1362   23.4291 C   0  0  0  0  0  0  0  0  0  0  0  0
  -30.9568  -25.5331   17.3867 C   0  0  0  0  0  0  0  0  0  0  0  0
  -29.5030  -28.8646   20.1045 C   0  0  0  0  0  0  0  0  0  1  0  0
  -25.4710  -26.0807   25.6511 C   0  0  1  0  0  0  0  0  0  0  0  0
  -27.2981  -22.7604   25.5668 C   0  0  2  0  0  0  0  0  0  0  0  0
  -25.1823  -26.7951   27.0015 C   0  0  0  0  0  0  0  0  0  0  0  0
  -27.4523  -16.3745   20.8460 N   0  0  0  0  0  0  0  0  0  0  0  0
  -27.7864  -17.3229   19.9544 N   0  0  0  0  0  0  0  0  0  0  0  0
  -31.0689  -26.6142   18.3549 N   0  0  0  0  0  0  0  0  0  0  0  0
  -24.4282  -26.7068   23.4960 N   0  0  0  0  0  0  0  0  0  0  0  0
  -29.0232  -20.6751   21.3024 N   0  0  0  0  0  0  0  0  0  0  0  0
  -27.4035  -18.0438   17.7308 N   0  0  0  0  0  0  0  0  0  0  0  0
  -24.2387  -15.9516   17.7161 N   0  0  0  0  0  0  0  0  0  0  0  0
  -28.1597  -22.2770   19.8022 N   0  0  0  0  0  0  0  0  0  0  0  0
  -21.4696  -28.3242   23.4800 N   0  0  0  0  0  0  0  0  0  0  0  0
  -25.8894  -24.6898   25.7884 N   0  0  0  0  0  0  0  0  0  0  0  0
  -27.3730  -22.0020   24.2861 N   0  3  0  0  0  0  0  0  0  0  0  0
  -30.0044  -28.1743   16.9934 O   0  0  0  0  0  0  0  0  0  0  0  0
  -25.9846  -14.6456   17.0055 O   0  0  0  0  0  0  0  0  0  0  0  0
  -23.4452  -29.2616   22.6796 O   0  0  0  0  0  0  0  0  0  0  0  0
  -23.2326  -25.5167   25.1055 O   0  0  0  0  0  0  0  0  0  0  0  0
  -27.9242  -24.9278   24.7021 O   0  0  0  0  0  0  0  0  0  0  0  0
  -29.9654  -22.7818   21.1684 O   0  0  0  0  0  0  0  0  0  0  0  0
  -24.2974  -11.1294   22.6014 O   0  0  0  0  0  0  0  0  0  0  0  0
  -28.3125  -29.1403   19.3677 O   0  0  0  0  0  0  0  0  0  1  0  0
  -21.8532   -7.4095   19.3468 F   0  0  0  0  0  0  0  0  0  0  0  0
  -25.1708   -8.5072   22.5396 F   0  0  0  0  0  0  0  0  0  0  0  0
  -25.7665  -22.5357   17.9312 Cl  0  0  0  0  0  0  0  0  0  0  0  0
  1  2  1  0  0  0  0
  1  5  2  0  0  0  0
  2  6  2  0  0  0  0
  3  9  2  0  0  0  0
  3 18  1  0  0  0  0
  4 10  1  0  0  0  0
  4 18  2  0  0  0  0
  5 20  1  0  0  0  0
  6 22  1  0  0  0  0
  7 11  2  0  0  0  0
  7 21  1  0  0  0  0
  8 14  2  0  0  0  0
  8 24  1  0  0  0  0
  9 26  1  0  0  0  0
 10 26  2  0  0  0  0
 11 27  1  0  0  0  0
 12 13  2  0  0  0  0
 12 28  1  0  0  0  0
 13 29  1  0  0  0  0
 14 31  1  0  0  0  0
 15 23  1  0  0  0  0
 15 27  2  0  0  0  0
 16 24  2  0  0  0  0
 16 25  1  0  0  0  0
 17 29  2  0  0  0  0
 17 30  1  0  0  0  0
 18 32  1  0  0  0  0
 19 32  1  0  0  0  0
 19 33  2  0  0  0  0
 19 35  1  0  0  0  0
 20 22  2  0  0  0  0
 20 40  1  0  0  0  0
 21 23  2  0  0  0  0
 21 41  1  0  0  0  0
 22 52  1  0  0  0  0
 23 42  1  0  0  0  0
 24 61  1  0  0  0  0
 25 31  2  0  0  0  0
 25 73  1  0  0  0  0
 26 83  1  0  0  0  0
 27 84  1  0  0  0  0
 28 30  2  0  0  0  0
 28 83  1  0  0  0  0
 29 85  1  0  0  0  0
 30 86  1  0  0  0  0
 31 87  1  0  0  0  0
 32 66  2  0  0  0  0
 33 67  1  0  0  0  0
 33 71  1  0  0  0  0
 34 53  1  0  0  0  0
 34 68  1  0  0  0  0
 34 77  2  0  0  0  0
 35 72  1  0  0  0  0
 35 78  2  0  0  0  0
 36 54  1  0  0  0  0
 36 74  1  0  0  0  0
 36 79  2  0  0  0  0
 37 63  1  0  0  0  0
 37 69  1  0  0  0  0
 37 80  2  0  0  0  0
 38 64  1  0  0  0  0
 38 75  1  0  0  0  0
 38 81  2  0  0  0  0
 39 70  1  0  0  0  0
 39 73  1  0  0  0  0
 39 82  2  0  0  0  0
 40 43  1  0  0  0  0
 41 54  1  0  0  0  0
 42 69  1  0  0  0  0
 43 46  1  0  0  0  0
 44 47  1  0  0  0  0
 44 49  1  0  0  0  0
 45 48  1  0  0  0  0
 45 50  1  0  0  0  0
 46 52  1  0  0  0  0
 47 53  1  0  0  0  0
 48 55  1  0  0  0  0
 49 68  1  0  0  0  0
 50 70  1  0  0  0  0
 51 55  1  0  0  0  0
 51 70  1  0  0  0  0
 52 74  1  0  0  0  0
 53 62  1  0  0  0  0
 54 69  1  0  0  0  0
 55 67  1  0  0  0  0
 56 64  1  0  0  0  0
 57 65  1  0  0  0  0
 58 65  1  0  0  0  0
 59 65  1  0  0  0  0
 60 76  1  0  0  0  0
 61 68  1  0  0  0  0
 62 84  1  0  0  0  0
 63 65  1  0  0  0  0
 63 75  1  0  0  0  0
 64 76  1  0  0  0  0
 66 67  1  0  0  0  0
M  CHG  1  76   1
M  ISO  4  39 100  62 101  73 100  84 101
M  END
> <Batch ID>
0044

> <Smiles>
CNC(C)C(=O)NC(C(=O)N1Cc2cc([101O:1][101CH2:1]C3CCCN(Cc4ccc(Cl)c([100NH:0][100C:0](=O)N5CCCC(n6nc(-c7ccc(Oc8ccc(F)cc8F)cc7)c(C(N)=O)c6N)C5)c4)C3=O)ccc2CC1C(=O)NC1CCCc2ccccc21)C(C)(C)C

> <Shape>
0.240

> <Color>
0.073

> <Negative vol penalty>
0.000

$$$$

  -OEChem-04042322183D

 87 95  0     1  0  0  0  0  0999 V2000
  -29.0500  -24.4098   17.7247 C   0  0  0  0  0  0  0  0  0  0  0  0
  -27.8129  -24.5769   18.3388 C   0  0  0  0  0  0  0  0  0  0  0  0
  -29.7752  -19.3635   22.8034 C   0  0  0  0  0  0  0  0  0  0  0  0
  -27.7100  -19.2177   21.5582 C   0  0  0  0  0  0  0  0  0  0  0  0
  -30.1744  -25.0554   18.2375 C   0  0  0  0  0  0  0  0  0  0  0  0
  -27.6997  -25.3888   19.4669 C   0  0  0  0  0  0  0  0  0  0  0  0
  -23.6795  -28.4609   19.2537 C   0  0  0  0  0  0  0  0  0  0  0  0
  -30.4224  -18.6190   21.8173 C   0  0  0  0  0  0  0  0  0  0  0  0
  -28.3572  -18.4732   20.5720 C   0  0  0  0  0  0  0  0  0  0  0  0
  -22.4350  -27.9016   19.5402 C   0  0  0  0  0  0  0  0  0  0  0  0
  -30.4142  -19.0625   17.9563 C   0  0  0  0  0  0  0  0  0  0  0  0
  -30.1710  -19.4024   16.6256 C   0  0  0  0  0  0  0  0  0  0  0  0
  -22.5470  -28.8105   21.7719 C   0  0  0  0  0  0  0  0  0  0  0  0
  -19.6062  -19.9407   25.2491 C   0  0  0  0  0  0  0  0  0  0  0  0
  -19.8670  -17.9826   23.2792 C   0  0  0  0  0  0  0  0  0  0  0  0
  -29.3060  -17.1839   16.2170 C   0  0  0  0  0  0  0  0  0  0  0  0
  -28.4189  -19.6628   22.6739 C   0  0  0  0  0  0  0  0  0  0  0  0
  -27.6157  -21.8315   23.7505 C   0  0  0  0  0  0  0  0  0  0  0  0
  -30.0731  -25.8833   19.3667 C   0  0  0  0  0  0  0  0  0  0  0  0
  -24.3733  -29.1911   20.2293 C   0  0  0  0  0  0  0  0  0  0  0  0
  -28.8240  -26.0450   19.9960 C   0  0  0  0  0  0  0  0  0  0  0  0
  -23.7991  -29.3801   21.4945 C   0  0  0  0  0  0  0  0  0  0  0  0
  -19.0431  -20.1402   23.9886 C   0  0  0  0  0  0  0  0  0  0  0  0
  -20.2997  -18.7622   25.5246 C   0  0  0  0  0  0  0  0  0  0  0  0
  -19.1735  -19.1611   23.0037 C   0  0  0  0  0  0  0  0  0  0  0  0
  -29.7134  -18.1739   20.7016 C   0  0  0  0  0  0  0  0  0  0  0  0
  -21.8698  -28.0739   20.8004 C   0  0  0  0  0  0  0  0  0  0  0  0
  -30.1033  -17.7832   18.4174 C   0  0  0  0  0  0  0  0  0  0  0  0
  -29.6169  -18.4632   15.7559 C   0  0  0  0  0  0  0  0  0  0  0  0
  -29.5492  -16.8440   17.5477 C   0  0  0  0  0  0  0  0  0  0  0  0
  -20.4301  -17.7832   24.5397 C   0  0  0  0  0  0  0  0  0  0  0  0
  -27.7497  -20.4313   23.6925 C   0  0  0  0  0  0  0  0  0  0  0  0
  -26.9038  -22.0609   24.9025 C   0  0  0  0  0  0  0  0  0  0  0  0
  -19.6213  -24.3062   21.6950 C   0  0  0  0  0  0  0  0  0  0  0  0
  -19.3616  -25.5439   21.2517 C   0  0  0  0  0  0  0  0  0  0  0  0
  -28.0919  -22.8351   22.8440 C   0  0  0  0  0  0  0  0  0  0  0  0
  -18.6275  -23.5848   22.5371 C   0  0  0  0  0  0  0  0  0  0  0  0
  -27.1616  -28.8594   21.7189 C   0  0  0  0  0  0  0  0  0  0  0  0
  -26.4121  -31.7691   22.9414 C   0  0  0  0  0  0  0  0  0  0  0  0
  -23.9936  -34.0411   23.7384 C   0  0  0  0  0  0  0  0  0  0  0  0
  -23.0709  -18.7168   28.0612 C   0  0  0  0  0  0  0  0  0  0  0  0
  -31.3252  -26.5227   19.9127 C   0  0  0  0  0  0  0  0  0  0  0  0
  -25.7028  -29.8106   19.8960 C   0  0  0  0  0  0  0  0  0  0  0  0
  -24.4939  -30.1727   22.5703 C   0  0  0  0  0  0  0  0  0  0  0  0
  -31.0505  -27.6639   20.8887 C   0  0  0  0  0  0  0  0  0  0  0  0
  -26.0885  -20.1988   29.2337 C   0  0  0  0  0  0  0  0  0  0  0  0
  -29.9857  -27.2553   21.9017 C   0  0  0  0  0  0  0  0  0  0  0  0
  -26.8443  -20.5528   27.9517 C   0  0  0  0  0  0  0  0  0  0  0  0
  -25.3175  -18.8884   29.0907 C   0  0  0  0  0  0  0  0  0  0  0  0
  -25.1648  -19.1818   26.6485 C   0  0  0  0  0  0  0  0  0  0  0  0
  -28.6563  -26.9373   21.2067 C   0  0  1  0  0  0  0  0  0  0  0  0
  -26.5531  -30.1001   21.1291 C   0  0  1  0  0  0  0  0  0  0  0  0
  -25.9125  -20.5239   26.7253 C   0  0  2  0  0  0  0  0  0  0  0  0
  -18.5814  -19.3540   21.6461 C   0  0  0  0  0  0  0  0  0  0  0  0
  -23.6842  -36.3125   24.7595 C   0  0  0  0  0  0  0  0  0  0  0  0
  -26.8632  -30.5809   25.7153 C   0  0  0  0  0  0  0  0  0  0  0  0
  -25.6473  -32.5461   26.6785 C   0  0  0  0  0  0  0  0  0  0  0  0
  -27.7677  -32.8925   25.4109 C   0  0  0  0  0  0  0  0  0  0  0  0
  -22.8083  -35.1249   21.2526 C   0  0  0  0  0  0  0  0  0  0  0  0
  -18.3030  -21.4171   23.7133 C   0  0  0  0  0  0  0  0  0  0  0  0
  -20.8882  -18.5871   26.8873 C   0  0  0  0  0  0  0  0  0  0  0  0
  -20.3092  -26.3248   20.3993 C   0  0  0  0  0  0  0  0  0  1  0  0
  -25.6651  -32.2569   24.1591 C   0  0  1  0  0  0  0  0  0  0  0  0
  -23.8836  -35.5312   23.4701 C   0  0  2  0  0  0  0  0  0  0  0  0
  -26.4733  -32.0525   25.4715 C   0  0  0  0  0  0  0  0  0  0  0  0
  -27.1697  -19.8146   24.7256 N   0  0  0  0  0  0  0  0  0  0  0  0
  -26.6644  -20.8320   25.4437 N   0  0  0  0  0  0  0  0  0  0  0  0
  -25.7946  -30.7533   22.1979 N   0  0  0  0  0  0  0  0  0  0  0  0
  -24.4515  -18.9268   27.9098 N   0  0  0  0  0  0  0  0  0  0  0  0
  -26.4657  -23.1918   25.4954 N   0  0  0  0  0  0  0  0  0  0  0  0
  -28.8058  -22.4260   21.7094 N   0  0  0  0  0  0  0  0  0  0  0  0
  -19.0756  -22.3246   22.8948 N   0  0  0  0  0  0  0  0  0  0  0  0
  -27.9705  -28.1591   20.8444 N   0  0  0  0  0  0  0  0  0  0  0  0
  -25.3056  -33.6447   23.8887 N   0  0  0  0  0  0  0  0  0  0  0  0
  -22.3217  -18.7763   26.8925 N   0  0  0  0  0  0  0  0  0  0  0  0
  -22.7310  -35.8113   22.5678 N   0  3  0  0  0  0  0  0  0  0  0  0
  -27.9046  -24.0593   23.0431 O   0  0  0  0  0  0  0  0  0  0  0  0
  -17.5519  -24.0800   22.8571 O   0  0  0  0  0  0  0  0  0  0  0  0
  -26.9168  -28.5604   22.8818 O   0  0  0  0  0  0  0  0  0  0  0  0
  -27.5000  -32.2758   22.6561 O   0  0  0  0  0  0  0  0  0  0  0  0
  -23.0134  -33.3033   23.8114 O   0  0  0  0  0  0  0  0  0  0  0  0
  -22.5442  -18.4982   29.1574 O   0  0  0  0  0  0  0  0  0  0  0  0
  -30.3447  -17.4476   19.7390 O   0  0  0  0  0  0  0  0  0  0  0  0
  -20.6555  -27.5286   21.0828 O   0  0  0  0  0  0  0  0  0  1  0  0
  -29.3819  -18.7902   14.4784 F   0  0  0  0  0  0  0  0  0  0  0  0
  -29.2474  -15.6138   17.9852 F   0  0  0  0  0  0  0  0  0  0  0  0
  -21.2812  -16.3127   24.8440 Cl  0  0  0  0  0  0  0  0  0  0  0  0
  1  2  1  0  0  0  0
  1  5  2  0  0  0  0
  2  6  2  0  0  0  0
  3  8  2  0  0  0  0
  3 17  1  0  0  0  0
  4  9  1  0  0  0  0
  4 17  2  0  0  0  0
  5 19  1  0  0  0  0
  6 21  1  0  0  0  0
  7 10  2  0  0  0  0
  7 20  1  0  0  0  0
  8 26  1  0  0  0  0
  9 26  2  0  0  0  0
 10 27  1  0  0  0  0
 11 12  2  0  0  0  0
 11 28  1  0  0  0  0
 12 29  1  0  0  0  0
 13 22  1  0  0  0  0
 13 27  2  0  0  0  0
 14 23  1  0  0  0  0
 14 24  2  0  0  0  0
 15 25  1  0  0  0  0
 15 31  2  0  0  0  0
 16 29  2  0  0  0  0
 16 30  1  0  0  0  0
 17 32  1  0  0  0  0
 18 32  1  0  0  0  0
 18 33  2  0  0  0  0
 18 36  1  0  0  0  0
 19 21  2  0  0  0  0
 19 42  1  0  0  0  0
 20 22  2  0  0  0  0
 20 43  1  0  0  0  0
 21 51  1  0  0  0  0
 22 44  1  0  0  0  0
 23 25  2  0  0  0  0
 23 60  1  0  0  0  0
 24 31  1  0  0  0  0
 24 61  1  0  0  0  0
 25 54  1  0  0  0  0
 26 83  1  0  0  0  0
 27 84  1  0  0  0  0
 28 30  2  0  0  0  0
 28 83  1  0  0  0  0
 29 85  1  0  0  0  0
 30 86  1  0  0  0  0
 31 87  1  0  0  0  0
 32 66  2  0  0  0  0
 33 67  1  0  0  0  0
 33 70  1  0  0  0  0
 34 35  2  0  0  0  0
 34 37  1  0  0  0  0
 35 62  1  0  0  0  0
 36 71  1  0  0  0  0
 36 77  2  0  0  0  0
 37 72  1  0  0  0  0
 37 78  2  0  0  0  0
 38 52  1  0  0  0  0
 38 73  1  0  0  0  0
 38 79  2  0  0  0  0
 39 63  1  0  0  0  0
 39 68  1  0  0  0  0
 39 80  2  0  0  0  0
 40 64  1  0  0  0  0
 40 74  1  0  0  0  0
 40 81  2  0  0  0  0
 41 69  1  0  0  0  0
 41 75  1  0  0  0  0
 41 82  2  0  0  0  0
 42 45  1  0  0  0  0
 43 52  1  0  0  0  0
 44 68  1  0  0  0  0
 45 47  1  0  0  0  0
 46 48  1  0  0  0  0
 46 49  1  0  0  0  0
 47 51  1  0  0  0  0
 48 53  1  0  0  0  0
 49 69  1  0  0  0  0
 50 53  1  0  0  0  0
 50 69  1  0  0  0  0
 51 73  1  0  0  0  0
 52 68  1  0  0  0  0
 53 67  1  0  0  0  0
 55 64  1  0  0  0  0
 56 65  1  0  0  0  0
 57 65  1  0  0  0  0
 58 65  1  0  0  0  0
 59 76  1  0  0  0  0
 60 72  1  0  0  0  0
 61 75  1  0  0  0  0
 62 84  1  0  0  0  0
 63 65  1  0  0  0  0
 63 74  1  0  0  0  0
 64 76  1  0  0  0  0
 66 67  1  0  0  0  0
M  CHG  1  76   1
M  ISO  4  41 100  62 101  75 100  84 101
M  END
> <Batch ID>
0044

> <Smiles>
CNC(C)C(=O)NC(C(=O)N1Cc2cc([101O:1][101CH2:1]C=CC(=O)NCc3cc(C[100NH:0][100C:0](=O)N4CCCC(n5nc(-c6ccc(Oc7ccc(F)cc7F)cc6)c(C(N)=O)c5N)C4)c(Cl)cc3C)ccc2CC1C(=O)NC1CCCc2ccccc21)C(C)(C)C

> <Shape>
0.222

> <Color>
0.062

> <Negative vol penalty>
0.000

$$$$

  -OEChem-04042322183D

 86 95  0     1  0  0  0  0  0999 V2000
  -22.7607   -8.1967   21.0958 C   0  0  0  0  0  0  0  0  0  0  0  0
  -23.6077   -8.7811   20.1596 C   0  0  0  0  0  0  0  0  0  0  0  0
  -25.3655  -26.9944   19.8285 C   0  0  0  0  0  0  0  0  0  0  0  0
  -27.3772  -28.3323   19.8464 C   0  0  0  0  0  0  0  0  0  0  0  0
  -22.2168   -8.9699   22.1206 C   0  0  0  0  0  0  0  0  0  0  0  0
  -23.9103  -10.1395   20.2470 C   0  0  0  0  0  0  0  0  0  0  0  0
  -28.8407  -11.0786   19.5732 C   0  0  0  0  0  0  0  0  0  0  0  0
  -29.1565  -17.6460   13.5060 C   0  0  0  0  0  0  0  0  0  0  0  0
  -29.5551  -18.9027   13.9612 C   0  0  0  0  0  0  0  0  0  0  0  0
  -24.6021  -28.1392   20.0571 C   0  0  0  0  0  0  0  0  0  0  0  0
  -26.6138  -29.4771   20.0749 C   0  0  0  0  0  0  0  0  0  0  0  0
  -29.3185  -11.0638   18.2635 C   0  0  0  0  0  0  0  0  0  0  0  0
  -23.8007  -30.1156   22.6793 C   0  0  0  0  0  0  0  0  0  0  0  0
  -22.7937  -30.0407   23.6414 C   0  0  0  0  0  0  0  0  0  0  0  0
  -29.2307  -13.4739   18.2106 C   0  0  0  0  0  0  0  0  0  0  0  0
  -28.1251  -17.1985   15.6445 C   0  0  0  0  0  0  0  0  0  0  0  0
  -21.1464  -30.5836   21.9595 C   0  0  0  0  0  0  0  0  0  0  0  0
  -26.7531  -27.0910   19.7232 C   0  0  0  0  0  0  0  0  0  0  0  0
  -27.6231  -24.7641   20.3033 C   0  0  0  0  0  0  0  0  0  0  0  0
  -22.5206  -10.3363   22.2263 C   0  0  0  0  0  0  0  0  0  0  0  0
  -28.5435  -12.2927   20.2087 C   0  0  0  0  0  0  0  0  0  0  0  0
  -23.3689  -10.9320   21.2734 C   0  0  0  0  0  0  0  0  0  0  0  0
  -28.7517  -13.5015   19.5293 C   0  0  0  0  0  0  0  0  0  0  0  0
  -28.4414  -16.7938   14.3477 C   0  0  0  0  0  0  0  0  0  0  0  0
  -28.5238  -18.4553   16.0997 C   0  0  0  0  0  0  0  0  0  0  0  0
  -29.2387  -19.3074   15.2580 C   0  0  0  0  0  0  0  0  0  0  0  0
  -25.2262  -29.3806   20.1802 C   0  0  0  0  0  0  0  0  0  0  0  0
  -29.5108  -12.2614   17.5810 C   0  0  0  0  0  0  0  0  0  0  0  0
  -23.4807  -30.4246   21.3572 C   0  0  0  0  0  0  0  0  0  0  0  0
  -21.4665  -30.2746   23.2815 C   0  0  0  0  0  0  0  0  0  0  0  0
  -22.1535  -30.6586   20.9973 C   0  0  0  0  0  0  0  0  0  0  0  0
  -27.5423  -25.9087   19.4877 C   0  0  0  0  0  0  0  0  0  0  0  0
  -28.4987  -23.9350   19.6458 C   0  0  0  0  0  0  0  0  0  0  0  0
  -29.8145  -13.9976   14.6171 C   0  0  0  0  0  0  0  0  0  0  0  0
  -30.9854  -14.5403   14.9895 C   0  0  0  0  0  0  0  0  0  0  0  0
  -26.9655  -24.4761   21.5444 C   0  0  0  0  0  0  0  0  0  0  0  0
  -25.9135  -13.6073   21.4167 C   0  0  0  0  0  0  0  0  0  0  0  0
  -27.9839  -15.8989   22.4088 C   0  0  0  0  0  0  0  0  0  0  0  0
  -30.8284  -17.6480   21.0425 C   0  0  0  0  0  0  0  0  0  0  0  0
  -30.3683  -21.5418   14.9788 C   0  0  0  0  0  0  0  0  0  0  0  0
  -21.8711  -11.1417   23.3236 C   0  0  0  0  0  0  0  0  0  0  0  0
  -28.0542  -12.2929   21.6310 C   0  0  0  0  0  0  0  0  0  0  0  0
  -28.4670  -14.8327   20.1738 C   0  0  0  0  0  0  0  0  0  0  0  0
  -22.5395  -12.4927   23.5650 C   0  0  0  0  0  0  0  0  0  0  0  0
  -31.5453  -24.8234   15.7023 C   0  0  0  0  0  0  0  0  0  0  0  0
  -28.0338  -12.3496   13.0897 C   0  0  0  0  0  0  0  0  0  0  0  0
  -22.7923  -13.2072   22.2412 C   0  0  0  0  0  0  0  0  0  0  0  0
  -28.7768  -11.7551   14.2809 C   0  0  0  0  0  0  0  0  0  0  0  0
  -30.6154  -25.3041   16.8187 C   0  0  0  0  0  0  0  0  0  0  0  0
  -30.8040  -23.9694   14.6752 C   0  0  0  0  0  0  0  0  0  0  0  0
  -29.1185  -23.3222   16.3513 C   0  0  0  0  0  0  0  0  0  0  0  0
  -28.8219  -13.4905   12.4547 C   0  0  0  0  0  0  0  0  0  0  0  0
  -23.7407  -12.3970   21.3492 C   0  0  1  0  0  0  0  0  0  0  0  0
  -29.1430  -12.8295   15.3038 C   0  0  1  0  0  0  0  0  0  1  0  0
  -27.2966  -13.5640   22.0022 C   0  0  1  0  0  0  0  0  0  0  0  0
  -29.8338  -24.1325   17.4447 C   0  0  2  0  0  0  0  0  0  0  0  0
  -28.1737  -18.8614   17.4947 C   0  0  0  0  0  0  0  0  0  0  0  0
  -32.7931  -18.7114   22.1857 C   0  0  0  0  0  0  0  0  0  0  0  0
  -26.3154  -18.4497   22.2701 C   0  0  0  0  0  0  0  0  0  0  0  0
  -28.4188  -19.7160   21.7800 C   0  0  0  0  0  0  0  0  0  0  0  0
  -28.1697  -18.5060   23.9472 C   0  0  0  0  0  0  0  0  0  0  0  0
  -32.7583  -16.0676   19.4497 C   0  0  0  0  0  0  0  0  0  0  0  0
  -28.0149  -15.4411   13.8588 C   0  0  0  0  0  0  0  0  0  0  0  0
  -28.5197  -17.1824   21.8218 C   0  0  1  0  0  0  0  0  0  0  0  0
  -32.2805  -17.4815   21.4526 C   0  0  2  0  0  0  0  0  0  0  0  0
  -27.8479  -18.4418   22.4382 C   0  0  0  0  0  0  0  0  0  0  0  0
  -28.3058  -25.8184   18.3955 N   0  0  0  0  0  0  0  0  0  0  0  0
  -28.8748  -24.6073   18.5202 N   0  0  0  0  0  0  0  0  0  0  0  0
  -27.9842  -14.7802   21.5637 N   0  0  0  0  0  0  0  0  0  0  0  0
  -30.0904  -22.8771   15.3403 N   0  0  0  0  0  0  0  0  0  0  0  0
  -28.9760  -22.7038   19.9263 N   0  0  0  0  0  0  0  0  0  0  0  0
  -26.0982  -25.4381   22.0800 N   0  0  0  0  0  0  0  0  0  0  0  0
  -29.6527  -20.5879   15.7017 N   0  0  0  0  0  0  0  0  0  0  0  0
  -25.1087  -12.5500   21.7959 N   0  0  0  0  0  0  0  0  0  0  0  0
  -29.9681  -17.1349   21.9900 N   0  0  0  0  0  0  0  0  0  0  0  0
  -29.1715  -14.5691   13.4540 N   0  3  1  0  0  0  0  0  0  0  0  0
  -33.1355  -17.2595   20.2524 N   0  3  0  0  0  0  0  0  0  0  0  0
  -27.1543  -23.4044   22.1684 O   0  0  0  0  0  0  0  0  0  0  0  0
  -25.5993  -14.5323   20.6768 O   0  0  0  0  0  0  0  0  0  0  0  0
  -27.5867  -15.8875   23.5766 O   0  0  0  0  0  0  0  0  0  0  0  0
  -30.4910  -18.1834   19.9889 O   0  0  0  0  0  0  0  0  0  0  0  0
  -31.2012  -21.2641   14.1122 O   0  0  0  0  0  0  0  0  0  0  0  0
  -24.4816  -30.4979   20.4030 O   0  0  0  0  0  0  0  0  0  0  0  0
  -29.9765  -12.2498   16.3024 O   0  0  0  0  0  0  0  0  0  1  0  0
  -20.4993  -30.2011   24.2053 F   0  0  0  0  0  0  0  0  0  0  0  0
  -21.8398  -30.9547   19.7286 F   0  0  0  0  0  0  0  0  0  0  0  0
  1  2  1  0  0  0  0
  1  5  2  0  0  0  0
  2  6  2  0  0  0  0
  3 10  2  0  0  0  0
  3 18  1  0  0  0  0
  4 11  1  0  0  0  0
  4 18  2  0  0  0  0
  5 20  1  0  0  0  0
  6 22  1  0  0  0  0
  7 12  2  0  0  0  0
  7 21  1  0  0  0  0
  8  9  2  0  0  0  0
  8 24  1  0  0  0  0
  9 26  1  0  0  0  0
 10 27  1  0  0  0  0
 11 27  2  0  0  0  0
 12 28  1  0  0  0  0
 13 14  2  0  0  0  0
 13 29  1  0  0  0  0
 14 30  1  0  0  0  0
 15 23  1  0  0  0  0
 15 28  2  0  0  0  0
 16 24  2  0  0  0  0
 16 25  1  0  0  0  0
 17 30  2  0  0  0  0
 17 31  1  0  0  0  0
 18 32  1  0  0  0  0
 19 32  1  0  0  0  0
 19 33  2  0  0  0  0
 19 36  1  0  0  0  0
 20 22  2  0  0  0  0
 20 41  1  0  0  0  0
 21 23  2  0  0  0  0
 21 42  1  0  0  0  0
 22 53  1  0  0  0  0
 23 43  1  0  0  0  0
 24 63  1  0  0  0  0
 25 26  2  0  0  0  0
 25 57  1  0  0  0  0
 26 73  1  0  0  0  0
 27 83  1  0  0  0  0
 28 84  1  0  0  0  0
 29 31  2  0  0  0  0
 29 83  1  0  0  0  0
 30 85  1  0  0  0  0
 31 86  1  0  0  0  0
 32 67  2  0  0  0  0
 33 68  1  0  0  0  0
 33 71  1  0  0  0  0
 34 35  2  0  0  0  0
 34 54  1  0  0  0  0
 34 76  1  0  0  0  0
 36 72  1  0  0  0  0
 36 78  2  0  0  0  0
 37 55  1  0  0  0  0
 37 74  1  0  0  0  0
 37 79  2  0  0  0  0
 38 64  1  0  0  0  0
 38 69  1  0  0  0  0
 38 80  2  0  0  0  0
 39 65  1  0  0  0  0
 39 75  1  0  0  0  0
 39 81  2  0  0  0  0
 40 70  1  0  0  0  0
 40 73  1  0  0  0  0
 40 82  2  0  0  0  0
 41 44  1  0  0  0  0
 42 55  1  0  0  0  0
 43 69  1  0  0  0  0
 44 47  1  0  0  0  0
 45 49  1  0  0  0  0
 45 50  1  0  0  0  0
 46 48  1  0  0  0  0
 46 52  1  0  0  0  0
 47 53  1  0  0  0  0
 48 54  1  0  0  0  0
 49 56  1  0  0  0  0
 50 70  1  0  0  0  0
 51 56  1  0  0  0  0
 51 70  1  0  0  0  0
 52 76  1  0  0  0  0
 53 74  1  0  0  0  0
 54 84  1  0  0  0  0
 55 69  1  0  0  0  0
 56 68  1  0  0  0  0
 58 65  1  0  0  0  0
 59 66  1  0  0  0  0
 60 66  1  0  0  0  0
 61 66  1  0  0  0  0
 62 77  1  0  0  0  0
 63 76  1  0  0  0  0
 64 66  1  0  0  0  0
 64 75  1  0  0  0  0
 65 77  1  0  0  0  0
 67 68  1  0  0  0  0
M  CHG  2  76   1  77   1
M  ISO  4  40 100  54 101  73 100  84 101
M  END
> <Batch ID>
0044

> <Smiles>
C=C1N(Cc2ccc([100NH:0][100C:0](=O)N3CCCC(n4nc(-c5ccc(Oc6ccc(F)cc6F)cc5)c(C(N)=O)c4N)C3)c(C)c2)CCC[101CH:1]1[101O:1]c1ccc2c(c1)CN(C(=O)C(NC(=O)C(C)NC)C(C)(C)C)C(C(=O)NC1CCCc3ccccc31)C2

> <Shape>
0.246

> <Color>
0.077

> <Negative vol penalty>
0.000

$$$$

  -OEChem-04042322183D

 87 96  0     1  0  0  0  0  0999 V2000
  -24.2316  -18.4918   23.2489 C   0  0  0  0  0  0  0  0  0  0  0  0
  -24.4762  -19.8204   22.9169 C   0  0  0  0  0  0  0  0  0  0  0  0
  -25.0452  -13.5519   21.0758 C   0  0  0  0  0  0  0  0  0  0  0  0
  -26.9002  -12.8094   19.7176 C   0  0  0  0  0  0  0  0  0  0  0  0
  -22.9911  -17.9211   22.9673 C   0  0  0  0  0  0  0  0  0  0  0  0
  -23.4808  -20.5789   22.3019 C   0  0  0  0  0  0  0  0  0  0  0  0
  -23.0290  -25.1988   24.3259 C   0  0  0  0  0  0  0  0  0  0  0  0
  -28.4516  -25.0076   19.4554 C   0  0  0  0  0  0  0  0  0  0  0  0
  -26.1543  -24.5240   20.0260 C   0  0  0  0  0  0  0  0  0  0  0  0
  -28.8423  -23.7785   19.9865 C   0  0  0  0  0  0  0  0  0  0  0  0
  -26.5449  -23.2948   20.5571 C   0  0  0  0  0  0  0  0  0  0  0  0
  -24.7885  -12.2321   21.4468 C   0  0  0  0  0  0  0  0  0  0  0  0
  -26.6436  -11.4895   20.0887 C   0  0  0  0  0  0  0  0  0  0  0  0
  -23.9755  -26.1524   23.9536 C   0  0  0  0  0  0  0  0  0  0  0  0
  -23.2977   -9.5124   20.1032 C   0  0  0  0  0  0  0  0  0  0  0  0
  -21.9718   -9.0800   20.0814 C   0  0  0  0  0  0  0  0  0  0  0  0
  -22.4034  -27.0907   22.3829 C   0  0  0  0  0  0  0  0  0  0  0  0
  -22.0934   -8.5880   22.4436 C   0  0  0  0  0  0  0  0  0  0  0  0
  -26.1010  -13.8406   20.2111 C   0  0  0  0  0  0  0  0  0  0  0  0
  -25.4957  -16.0823   19.1546 C   0  0  0  0  0  0  0  0  0  0  0  0
  -21.9766  -18.6757   22.3573 C   0  0  0  0  0  0  0  0  0  0  0  0
  -21.7642  -25.1772   23.7207 C   0  0  0  0  0  0  0  0  0  0  0  0
  -22.2259  -20.0174   22.0106 C   0  0  0  0  0  0  0  0  0  0  0  0
  -21.4417  -26.1374   22.7511 C   0  0  0  0  0  0  0  0  0  0  0  0
  -27.1076  -25.3804   19.4752 C   0  0  0  0  0  0  0  0  0  0  0  0
  -27.8890  -22.9220   20.5374 C   0  0  0  0  0  0  0  0  0  0  0  0
  -25.5877  -11.2009   20.9533 C   0  0  0  0  0  0  0  0  0  0  0  0
  -23.6637  -27.0968   22.9799 C   0  0  0  0  0  0  0  0  0  0  0  0
  -24.0216   -9.4825   21.2952 C   0  0  0  0  0  0  0  0  0  0  0  0
  -21.3696   -8.6179   21.2516 C   0  0  0  0  0  0  0  0  0  0  0  0
  -23.4194   -9.0204   22.4654 C   0  0  0  0  0  0  0  0  0  0  0  0
  -26.3663  -15.2038   19.8270 C   0  0  0  0  0  0  0  0  0  0  0  0
  -26.2136  -17.2463   19.0272 C   0  0  0  0  0  0  0  0  0  0  0  0
  -26.6428  -29.1107   19.1778 C   0  0  0  0  0  0  0  0  0  0  0  0
  -29.9454  -30.2422   18.0388 C   0  0  0  0  0  0  0  0  0  0  0  0
  -27.6017  -29.8700   18.6267 C   0  0  0  0  0  0  0  0  0  0  0  0
  -28.9897  -29.4846   18.5885 C   0  0  0  0  0  0  0  0  0  0  0  0
  -24.1578  -15.8656   18.6871 C   0  0  0  0  0  0  0  0  0  0  0  0
  -20.1604  -23.0805   21.9500 C   0  0  0  0  0  0  0  0  0  0  0  0
  -17.7560  -25.2334   22.2756 C   0  0  0  0  0  0  0  0  0  0  0  0
  -17.4075  -28.8236   22.1983 C   0  0  0  0  0  0  0  0  0  0  0  0
  -29.5769  -21.1505   21.1363 C   0  0  0  0  0  0  0  0  0  0  0  0
  -20.6678  -18.0017   22.0296 C   0  0  0  0  0  0  0  0  0  0  0  0
  -20.7451  -24.1587   24.1526 C   0  0  0  0  0  0  0  0  0  0  0  0
  -20.0910  -26.1697   22.0855 C   0  0  0  0  0  0  0  0  0  0  0  0
  -25.1947  -29.5175   19.2153 C   0  0  0  0  0  0  0  0  0  0  0  0
  -19.5398  -18.9815   21.7163 C   0  0  0  0  0  0  0  0  0  0  0  0
  -24.6465  -29.3967   20.6320 C   0  0  0  0  0  0  0  0  0  0  0  0
  -31.1137  -18.2025   19.8616 C   0  0  0  0  0  0  0  0  0  0  0  0
  -20.0220  -20.0597   20.7510 C   0  0  0  0  0  0  0  0  0  0  0  0
  -29.9440  -17.2318   19.6837 C   0  0  0  0  0  0  0  0  0  0  0  0
  -30.9428  -19.0748   21.1040 C   0  0  0  0  0  0  0  0  0  0  0  0
  -28.4942  -18.8208   21.0103 C   0  0  0  0  0  0  0  0  0  0  0  0
  -26.4902  -27.7682   21.1918 C   0  0  0  0  0  0  0  0  0  0  0  0
  -21.1630  -20.8797   21.3651 C   0  0  1  0  0  0  0  0  0  0  0  0
  -19.6673  -23.9093   23.1022 C   0  0  1  0  0  0  0  0  0  0  0  0
  -28.5897  -17.9657   19.7362 C   0  0  2  0  0  0  0  0  0  0  0  0
  -24.9891  -28.0400   21.2474 C   0  0  1  0  0  0  0  0  0  1  0  0
  -15.7223  -30.3233   23.2976 C   0  0  0  0  0  0  0  0  0  0  0  0
  -16.2553  -25.0043   19.6288 C   0  0  0  0  0  0  0  0  0  0  0  0
  -15.6315  -27.4185   19.8535 C   0  0  0  0  0  0  0  0  0  0  0  0
  -14.8584  -25.7686   21.5572 C   0  0  0  0  0  0  0  0  0  0  0  0
  -19.5193  -30.4222   23.5188 C   0  0  0  0  0  0  0  0  0  0  0  0
  -26.6875  -26.7026   18.9039 C   0  0  0  0  0  0  0  0  0  0  0  0
  -17.2939  -26.4450   21.5027 C   0  0  1  0  0  0  0  0  0  0  0  0
  -17.1222  -29.7346   23.3786 C   0  0  2  0  0  0  0  0  0  0  0  0
  -16.0371  -26.1511   20.6358 C   0  0  0  0  0  0  0  0  0  0  0  0
  -27.5470  -15.7619   20.1070 N   0  0  0  0  0  0  0  0  0  0  0  0
  -27.4235  -17.0036   19.6080 N   0  0  0  0  0  0  0  0  0  0  0  0
  -19.1308  -25.1493   22.5374 N   0  0  0  0  0  0  0  0  0  0  0  0
  -29.6392  -19.7419   21.0831 N   0  0  0  0  0  0  0  0  0  0  0  0
  -25.9216  -18.4435   18.4760 N   0  0  0  0  0  0  0  0  0  0  0  0
  -23.9756  -15.3739   17.3874 N   0  0  0  0  0  0  0  0  0  0  0  0
  -28.2855  -21.6732   21.0767 N   0  0  0  0  0  0  0  0  0  0  0  0
  -20.6418  -21.8380   22.3160 N   0  0  0  0  0  0  0  0  0  0  0  0
  -17.1076  -27.5084   22.4840 N   0  0  0  0  0  0  0  0  0  0  0  0
  -27.0395  -27.8657   19.7895 N   0  3  1  0  0  0  0  0  0  0  0  0
  -18.1024  -30.8565   23.4158 N   0  3  0  0  0  0  0  0  0  0  0  0
  -23.1531  -16.1165   19.3950 O   0  0  0  0  0  0  0  0  0  0  0  0
  -20.1068  -23.5341   20.8128 O   0  0  0  0  0  0  0  0  0  0  0  0
  -16.9266  -24.3961   22.6400 O   0  0  0  0  0  0  0  0  0  0  0  0
  -17.8486  -29.2378   21.1285 O   0  0  0  0  0  0  0  0  0  0  0  0
  -30.5958  -21.8431   21.2006 O   0  0  0  0  0  0  0  0  0  0  0  0
  -25.3377   -9.9129   21.3154 O   0  0  0  0  0  0  0  0  0  0  0  0
  -24.5859  -28.0282   22.6142 O   0  0  0  0  0  0  0  0  0  1  0  0
  -20.0958   -8.2041   21.2308 F   0  0  0  0  0  0  0  0  0  0  0  0
  -24.1093   -8.9905   23.6138 F   0  0  0  0  0  0  0  0  0  0  0  0
  1  2  1  0  0  0  0
  1  5  2  0  0  0  0
  2  6  2  0  0  0  0
  3 12  2  0  0  0  0
  3 19  1  0  0  0  0
  4 13  1  0  0  0  0
  4 19  2  0  0  0  0
  5 21  1  0  0  0  0
  6 23  1  0  0  0  0
  7 14  2  0  0  0  0
  7 22  1  0  0  0  0
  8 10  2  0  0  0  0
  8 25  1  0  0  0  0
  9 11  1  0  0  0  0
  9 25  2  0  0  0  0
 10 26  1  0  0  0  0
 11 26  2  0  0  0  0
 12 27  1  0  0  0  0
 13 27  2  0  0  0  0
 14 28  1  0  0  0  0
 15 16  2  0  0  0  0
 15 29  1  0  0  0  0
 16 30  1  0  0  0  0
 17 24  1  0  0  0  0
 17 28  2  0  0  0  0
 18 30  2  0  0  0  0
 18 31  1  0  0  0  0
 19 32  1  0  0  0  0
 20 32  1  0  0  0  0
 20 33  2  0  0  0  0
 20 38  1  0  0  0  0
 21 23  2  0  0  0  0
 21 43  1  0  0  0  0
 22 24  2  0  0  0  0
 22 44  1  0  0  0  0
 23 55  1  0  0  0  0
 24 45  1  0  0  0  0
 25 64  1  0  0  0  0
 26 74  1  0  0  0  0
 27 84  1  0  0  0  0
 28 85  1  0  0  0  0
 29 31  2  0  0  0  0
 29 84  1  0  0  0  0
 30 86  1  0  0  0  0
 31 87  1  0  0  0  0
 32 68  2  0  0  0  0
 33 69  1  0  0  0  0
 33 72  1  0  0  0  0
 34 36  2  0  0  0  0
 34 46  1  0  0  0  0
 34 77  1  0  0  0  0
 35 37  2  0  0  0  0
 36 37  1  0  0  0  0
 38 73  1  0  0  0  0
 38 79  2  0  0  0  0
 39 56  1  0  0  0  0
 39 75  1  0  0  0  0
 39 80  2  0  0  0  0
 40 65  1  0  0  0  0
 40 70  1  0  0  0  0
 40 81  2  0  0  0  0
 41 66  1  0  0  0  0
 41 76  1  0  0  0  0
 41 82  2  0  0  0  0
 42 71  1  0  0  0  0
 42 74  1  0  0  0  0
 42 83  2  0  0  0  0
 43 47  1  0  0  0  0
 44 56  1  0  0  0  0
 45 70  1  0  0  0  0
 46 48  1  0  0  0  0
 47 50  1  0  0  0  0
 48 58  1  0  0  0  0
 49 51  1  0  0  0  0
 49 52  1  0  0  0  0
 50 55  1  0  0  0  0
 51 57  1  0  0  0  0
 52 71  1  0  0  0  0
 53 57  1  0  0  0  0
 53 71  1  0  0  0  0
 54 58  1  0  0  0  0
 54 77  1  0  0  0  0
 55 75  1  0  0  0  0
 56 70  1  0  0  0  0
 57 69  1  0  0  0  0
 58 85  1  0  0  0  0
 59 66  1  0  0  0  0
 60 67  1  0  0  0  0
 61 67  1  0  0  0  0
 62 67  1  0  0  0  0
 63 78  1  0  0  0  0
 64 77  1  0  0  0  0
 65 67  1  0  0  0  0
 65 76  1  0  0  0  0
 66 78  1  0  0  0  0
 68 69  1  0  0  0  0
M  CHG  2  77   1  78   1
M  ISO  4  42 100  58 101  74 100  85 101
M  END
> <Batch ID>
0044

> <Smiles>
C=CC=C1CC[101CH:1]([101O:1]c2ccc3c(c2)CN(C(=O)C(NC(=O)C(C)NC)C(C)(C)C)C(C(=O)NC2CCCc4ccccc42)C3)CN1Cc1ccc([100NH:0][100C:0](=O)N2CCCC(n3nc(-c4ccc(Oc5ccc(F)cc5F)cc4)c(C(N)=O)c3N)C2)cc1

> <Shape>
0.226

> <Color>
0.044

> <Negative vol penalty>
0.000

$$$$

  -OEChem-04042322183D

 84 92  0     1  0  0  0  0  0999 V2000
  -16.6135  -29.0897   23.7652 C   0  0  0  0  0  0  0  0  0  0  0  0
  -17.2282  -28.4519   22.6924 C   0  0  0  0  0  0  0  0  0  0  0  0
  -28.0715   -9.9772   21.4740 C   0  0  0  0  0  0  0  0  0  0  0  0
  -26.2519  -11.2877   20.5747 C   0  0  0  0  0  0  0  0  0  0  0  0
  -17.2233  -30.1928   24.3613 C   0  0  0  0  0  0  0  0  0  0  0  0
  -18.4525  -28.9176   22.2143 C   0  0  0  0  0  0  0  0  0  0  0  0
  -21.7463  -25.1728   21.3355 C   0  0  0  0  0  0  0  0  0  0  0  0
  -27.4091  -21.5624   21.2982 C   0  0  0  0  0  0  0  0  0  0  0  0
  -28.3226  -20.5126   21.2039 C   0  0  0  0  0  0  0  0  0  0  0  0
  -27.1555   -9.1586   22.1345 C   0  0  0  0  0  0  0  0  0  0  0  0
  -25.3359  -10.4689   21.2351 C   0  0  0  0  0  0  0  0  0  0  0  0
  -21.5764  -24.4375   20.1632 C   0  0  0  0  0  0  0  0  0  0  0  0
  -23.9510   -7.4186   20.7900 C   0  0  0  0  0  0  0  0  0  0  0  0
  -22.8352   -6.9870   20.0729 C   0  0  0  0  0  0  0  0  0  0  0  0
  -26.8347  -19.3533   19.6942 C   0  0  0  0  0  0  0  0  0  0  0  0
  -23.3244  -25.7238   19.1101 C   0  0  0  0  0  0  0  0  0  0  0  0
  -21.3868   -8.0727   21.6731 C   0  0  0  0  0  0  0  0  0  0  0  0
  -27.6198  -11.0419   20.6941 C   0  0  0  0  0  0  0  0  0  0  0  0
  -25.9211  -20.4031   19.7885 C   0  0  0  0  0  0  0  0  0  0  0  0
  -29.0810  -11.7133   18.7138 C   0  0  0  0  0  0  0  0  0  0  0  0
  -18.4604  -30.6663   23.8964 C   0  0  0  0  0  0  0  0  0  0  0  0
  -22.7006  -26.1982   21.4005 C   0  0  0  0  0  0  0  0  0  0  0  0
  -19.0787  -30.0289   22.8039 C   0  0  0  0  0  0  0  0  0  0  0  0
  -23.5062  -26.4690   20.2852 C   0  0  0  0  0  0  0  0  0  0  0  0
  -26.2082  -21.5077   20.5905 C   0  0  0  0  0  0  0  0  0  0  0  0
  -28.0354  -19.4081   20.4019 C   0  0  0  0  0  0  0  0  0  0  0  0
  -25.7877   -9.4043   22.0150 C   0  0  0  0  0  0  0  0  0  0  0  0
  -22.3635  -24.7148   19.0494 C   0  0  0  0  0  0  0  0  0  0  0  0
  -23.7848   -8.1771   21.9487 C   0  0  0  0  0  0  0  0  0  0  0  0
  -21.5531   -7.3141   20.5144 C   0  0  0  0  0  0  0  0  0  0  0  0
  -22.5027   -8.5042   22.3903 C   0  0  0  0  0  0  0  0  0  0  0  0
  -28.5655  -11.8883   20.0121 C   0  0  0  0  0  0  0  0  0  0  0  0
  -29.9328  -12.7761   18.5365 C   0  0  0  0  0  0  0  0  0  0  0  0
  -24.6557  -20.3261   19.0313 C   0  0  0  0  0  0  0  0  0  0  0  0
  -28.8136  -10.6824   17.7539 C   0  0  0  0  0  0  0  0  0  0  0  0
  -22.5903  -29.3377   21.8852 C   0  0  0  0  0  0  0  0  0  0  0  0
  -25.8221  -29.0581   21.8858 C   0  0  0  0  0  0  0  0  0  0  0  0
  -28.5777  -27.2951   20.9137 C   0  0  0  0  0  0  0  0  0  0  0  0
  -30.2004  -18.2390   20.9428 C   0  0  0  0  0  0  0  0  0  0  0  0
  -19.0581  -31.8911   24.5424 C   0  0  0  0  0  0  0  0  0  0  0  0
  -22.8899  -26.9643   22.6809 C   0  0  0  0  0  0  0  0  0  0  0  0
  -24.5588  -27.5460   20.3100 C   0  0  0  0  0  0  0  0  0  0  0  0
  -20.5358  -32.0919   24.2166 C   0  0  0  0  0  0  0  0  0  0  0  0
  -32.7574  -15.7618   20.9944 C   0  0  0  0  0  0  0  0  0  0  0  0
  -20.7826  -31.9093   22.7224 C   0  0  0  0  0  0  0  0  0  0  0  0
  -32.0207  -14.4725   20.6242 C   0  0  0  0  0  0  0  0  0  0  0  0
  -31.8978  -16.6761   21.8655 C   0  0  0  0  0  0  0  0  0  0  0  0
  -29.8321  -15.6934   20.9510 C   0  0  0  0  0  0  0  0  0  0  0  0
  -20.4189  -30.4891   22.2726 C   0  0  1  0  0  0  0  0  0  0  0  0
  -23.5381  -28.3292   22.4703 C   0  0  1  0  0  0  0  0  0  0  0  0
  -30.6341  -14.7693   20.0201 C   0  0  2  0  0  0  0  0  0  0  0  0
  -25.2466  -22.6446   20.7071 C   0  0  0  0  0  0  0  0  0  0  0  0
  -31.0002  -26.6579   20.7619 C   0  0  0  0  0  0  0  0  0  0  0  0
  -25.8855  -31.2328   19.7465 C   0  0  0  0  0  0  0  0  0  0  0  0
  -28.2435  -30.5640   19.2356 C   0  0  0  0  0  0  0  0  0  0  0  0
  -27.6594  -31.4396   21.4973 C   0  0  0  0  0  0  0  0  0  0  0  0
  -28.3955  -25.5747   23.3149 C   0  0  0  0  0  0  0  0  0  0  0  0
  -23.2376  -22.4871   16.3564 C   0  0  0  0  0  0  0  0  0  0  0  0
  -23.1776  -21.3099   17.3155 C   0  0  0  0  0  0  0  0  0  0  0  0
  -23.3488  -23.8252   17.0761 C   0  0  0  0  0  0  0  0  0  1  0  0
  -26.9008  -29.1215   20.8316 C   0  0  1  0  0  0  0  0  0  0  0  0
  -29.8035  -26.8369   21.6831 C   0  0  2  0  0  0  0  0  0  0  0  0
  -27.1512  -30.5704   20.3263 C   0  0  0  0  0  0  0  0  0  0  0  0
  -29.0496  -12.9764   20.6168 N   0  0  0  0  0  0  0  0  0  0  0  0
  -29.8782  -13.4948   19.6944 N   0  0  0  0  0  0  0  0  0  0  0  0
  -24.7015  -28.2716   21.5830 N   0  0  0  0  0  0  0  0  0  0  0  0
  -30.6015  -16.9166   21.2278 N   0  0  0  0  0  0  0  0  0  0  0  0
  -30.7158  -13.1565   17.5047 N   0  0  0  0  0  0  0  0  0  0  0  0
  -23.8313  -19.3103   19.2874 N   0  0  0  0  0  0  0  0  0  0  0  0
  -27.9122   -9.6660   18.0987 N   0  0  0  0  0  0  0  0  0  0  0  0
  -28.9639  -18.3419   20.3064 N   0  0  0  0  0  0  0  0  0  0  0  0
  -21.4603  -29.5574   22.6495 N   0  0  0  0  0  0  0  0  0  0  0  0
  -28.0758  -28.4792   21.4108 N   0  0  0  0  0  0  0  0  0  0  0  0
  -24.3969  -21.2763   18.1235 N   0  3  0  0  0  0  0  0  0  0  0  0
  -29.5338  -25.5375   22.3611 N   0  3  0  0  0  0  0  0  0  0  0  0
  -29.3703  -10.6541   16.6302 O   0  0  0  0  0  0  0  0  0  0  0  0
  -22.8647  -29.8777   20.8199 O   0  0  0  0  0  0  0  0  0  0  0  0
  -25.9715  -29.6776   22.9420 O   0  0  0  0  0  0  0  0  0  0  0  0
  -28.1143  -26.6674   19.9641 O   0  0  0  0  0  0  0  0  0  0  0  0
  -30.9144  -19.2070   21.2167 O   0  0  0  0  0  0  0  0  0  0  0  0
  -24.8936   -8.6055   22.6592 O   0  0  0  0  0  0  0  0  0  0  0  0
  -22.1993  -23.9990   17.9037 O   0  0  0  0  0  0  0  0  0  1  0  0
  -20.4817   -6.9009   19.8248 F   0  0  0  0  0  0  0  0  0  0  0  0
  -22.3367   -9.2337   23.5021 F   0  0  0  0  0  0  0  0  0  0  0  0
  1  2  1  0  0  0  0
  1  5  2  0  0  0  0
  2  6  2  0  0  0  0
  3 10  2  0  0  0  0
  3 18  1  0  0  0  0
  4 11  1  0  0  0  0
  4 18  2  0  0  0  0
  5 21  1  0  0  0  0
  6 23  1  0  0  0  0
  7 12  2  0  0  0  0
  7 22  1  0  0  0  0
  8  9  2  0  0  0  0
  8 25  1  0  0  0  0
  9 26  1  0  0  0  0
 10 27  1  0  0  0  0
 11 27  2  0  0  0  0
 12 28  1  0  0  0  0
 13 14  2  0  0  0  0
 13 29  1  0  0  0  0
 14 30  1  0  0  0  0
 15 19  1  0  0  0  0
 15 26  2  0  0  0  0
 16 24  1  0  0  0  0
 16 28  2  0  0  0  0
 17 30  2  0  0  0  0
 17 31  1  0  0  0  0
 18 32  1  0  0  0  0
 19 25  2  0  0  0  0
 19 34  1  0  0  0  0
 20 32  1  0  0  0  0
 20 33  2  0  0  0  0
 20 35  1  0  0  0  0
 21 23  2  0  0  0  0
 21 40  1  0  0  0  0
 22 24  2  0  0  0  0
 22 41  1  0  0  0  0
 23 49  1  0  0  0  0
 24 42  1  0  0  0  0
 25 52  1  0  0  0  0
 26 71  1  0  0  0  0
 27 81  1  0  0  0  0
 28 82  1  0  0  0  0
 29 31  2  0  0  0  0
 29 81  1  0  0  0  0
 30 83  1  0  0  0  0
 31 84  1  0  0  0  0
 32 64  2  0  0  0  0
 33 65  1  0  0  0  0
 33 68  1  0  0  0  0
 34 69  1  0  0  0  0
 34 74  2  0  0  0  0
 35 70  1  0  0  0  0
 35 76  2  0  0  0  0
 36 50  1  0  0  0  0
 36 72  1  0  0  0  0
 36 77  2  0  0  0  0
 37 61  1  0  0  0  0
 37 66  1  0  0  0  0
 37 78  2  0  0  0  0
 38 62  1  0  0  0  0
 38 73  1  0  0  0  0
 38 79  2  0  0  0  0
 39 67  1  0  0  0  0
 39 71  1  0  0  0  0
 39 80  2  0  0  0  0
 40 43  1  0  0  0  0
 41 50  1  0  0  0  0
 42 66  1  0  0  0  0
 43 45  1  0  0  0  0
 44 46  1  0  0  0  0
 44 47  1  0  0  0  0
 45 49  1  0  0  0  0
 46 51  1  0  0  0  0
 47 67  1  0  0  0  0
 48 51  1  0  0  0  0
 48 67  1  0  0  0  0
 49 72  1  0  0  0  0
 50 66  1  0  0  0  0
 51 65  1  0  0  0  0
 53 62  1  0  0  0  0
 54 63  1  0  0  0  0
 55 63  1  0  0  0  0
 56 63  1  0  0  0  0
 57 75  1  0  0  0  0
 58 59  1  0  0  0  0
 58 60  1  0  0  0  0
 59 74  1  0  0  0  0
 60 82  1  0  0  0  0
 61 63  1  0  0  0  0
 61 73  1  0  0  0  0
 62 75  1  0  0  0  0
 64 65  1  0  0  0  0
M  CHG  2  74   1  75   1
M  ISO  4  39 100  60 101  71 100  82 101
M  END
> <Batch ID>
0044

> <Smiles>
CNC(C)C(=O)NC(C(=O)N1Cc2cc([101O:1][101CH2:1]CCNC(=N)c3cc([100NH:0][100C:0](=O)N4CCCC(n5nc(-c6ccc(Oc7ccc(F)cc7F)cc6)c(C(N)=O)c5N)C4)ccc3C)ccc2CC1C(=O)NC1CCCc2ccccc21)C(C)(C)C

> <Shape>
0.276

> <Color>
0.070

> <Negative vol penalty>
0.000

$$$$

  -OEChem-04042322183D

 88 97  0     1  0  0  0  0  0999 V2000
  -25.3670  -31.0945   24.4628 C   0  0  0  0  0  0  0  0  0  0  0  0
  -25.6264  -29.7395   24.2838 C   0  0  0  0  0  0  0  0  0  0  0  0
  -27.7017  -23.4819   21.3342 C   0  0  0  0  0  0  0  0  0  0  0  0
  -29.6078  -23.4121   19.8513 C   0  0  0  0  0  0  0  0  0  0  0  0
  -24.0801  -31.5193   24.7903 C   0  0  0  0  0  0  0  0  0  0  0  0
  -24.5992  -28.8084   24.4332 C   0  0  0  0  0  0  0  0  0  0  0  0
  -23.8582  -23.6074   21.2858 C   0  0  0  0  0  0  0  0  0  0  0  0
  -25.9357  -11.5112   20.9363 C   0  0  0  0  0  0  0  0  0  0  0  0
  -27.6708  -24.8724   21.2292 C   0  0  0  0  0  0  0  0  0  0  0  0
  -29.5769  -24.8027   19.7462 C   0  0  0  0  0  0  0  0  0  0  0  0
  -24.1708  -22.2808   21.5792 C   0  0  0  0  0  0  0  0  0  0  0  0
  -26.5923  -27.1790   19.0044 C   0  0  0  0  0  0  0  0  0  0  0  0
  -25.3530  -27.7865   18.8032 C   0  0  0  0  0  0  0  0  0  0  0  0
  -24.6640  -11.4997   21.5091 C   0  0  0  0  0  0  0  0  0  0  0  0
  -21.9119  -21.9246   22.3471 C   0  0  0  0  0  0  0  0  0  0  0  0
  -25.6246  -29.0224   20.8614 C   0  0  0  0  0  0  0  0  0  0  0  0
  -28.6702  -22.7517   20.6454 C   0  0  0  0  0  0  0  0  0  0  0  0
  -28.8767  -20.5552   21.9261 C   0  0  0  0  0  0  0  0  0  0  0  0
  -23.0344  -30.5938   24.9343 C   0  0  0  0  0  0  0  0  0  0  0  0
  -22.5709  -24.1064   21.5314 C   0  0  0  0  0  0  0  0  0  0  0  0
  -23.2974  -29.2211   24.7643 C   0  0  0  0  0  0  0  0  0  0  0  0
  -21.5847  -23.2573   22.0535 C   0  0  0  0  0  0  0  0  0  0  0  0
  -26.4285  -12.6797   20.3554 C   0  0  0  0  0  0  0  0  0  0  0  0
  -24.3777  -13.8253   20.9201 C   0  0  0  0  0  0  0  0  0  0  0  0
  -25.6495  -13.8368   20.3473 C   0  0  0  0  0  0  0  0  0  0  0  0
  -28.6084  -25.5328   20.4351 C   0  0  0  0  0  0  0  0  0  0  0  0
  -23.1984  -21.4399   22.1127 C   0  0  0  0  0  0  0  0  0  0  0  0
  -27.3478  -27.4931   20.1342 C   0  0  0  0  0  0  0  0  0  0  0  0
  -24.8691  -28.7082   19.7316 C   0  0  0  0  0  0  0  0  0  0  0  0
  -26.8640  -28.4148   21.0626 C   0  0  0  0  0  0  0  0  0  0  0  0
  -23.8850  -12.6568   21.5010 C   0  0  0  0  0  0  0  0  0  0  0  0
  -28.7030  -21.3153   20.7540 C   0  0  0  0  0  0  0  0  0  0  0  0
  -28.8325  -19.2506   21.4989 C   0  0  0  0  0  0  0  0  0  0  0  0
  -24.3892  -17.3242   21.4626 C   0  0  0  0  0  0  0  0  0  0  0  0
  -29.0613  -20.9895   23.2799 C   0  0  0  0  0  0  0  0  0  0  0  0
  -21.3659  -26.3876   23.3883 C   0  0  0  0  0  0  0  0  0  0  0  0
  -18.6128  -25.6551   21.8370 C   0  0  0  0  0  0  0  0  0  0  0  0
  -16.7980  -23.3565   20.0849 C   0  0  0  0  0  0  0  0  0  0  0  0
  -26.5475  -15.2042   18.4315 C   0  0  0  0  0  0  0  0  0  0  0  0
  -21.6702  -31.0964   25.3355 C   0  0  0  0  0  0  0  0  0  0  0  0
  -22.2422  -25.5326   21.1844 C   0  0  0  0  0  0  0  0  0  0  0  0
  -20.1821  -23.7386   22.3168 C   0  0  0  0  0  0  0  0  0  0  0  0
  -20.5550  -30.0792   25.1076 C   0  0  0  0  0  0  0  0  0  0  0  0
  -24.5223  -16.5574   24.2878 C   0  0  0  0  0  0  0  0  0  0  0  0
  -28.9269  -17.3100   16.8248 C   0  0  0  0  0  0  0  0  0  0  0  0
  -20.9677  -28.7080   25.6331 C   0  0  0  0  0  0  0  0  0  0  0  0
  -24.3649  -18.0178   23.9121 C   0  0  0  0  0  0  0  0  0  0  0  0
  -29.0950  -18.4772   17.8002 C   0  0  0  0  0  0  0  0  0  0  0  0
  -23.7833  -15.6904   23.2869 C   0  0  0  0  0  0  0  0  0  0  0  0
  -27.4840  -16.8098   16.7823 C   0  0  0  0  0  0  0  0  0  0  0  0
  -27.0727  -17.6412   19.0645 C   0  0  0  0  0  0  0  0  0  0  0  0
  -22.2040  -28.1828   24.8934 C   0  0  1  0  0  0  0  0  0  0  0  0
  -24.9747  -18.2465   22.5345 C   0  0  2  0  0  0  0  0  0  0  0  0
  -21.0419  -26.0736   21.9550 C   0  0  1  0  0  0  0  0  0  0  0  0
  -28.5226  -18.1370   19.1902 C   0  0  2  0  0  0  0  0  0  0  0  0
  -27.7952  -12.6602   19.7512 C   0  0  0  0  0  0  0  0  0  0  0  0
  -14.5669  -23.0336   18.9826 C   0  0  0  0  0  0  0  0  0  0  0  0
  -17.3178  -25.2785   24.5740 C   0  0  0  0  0  0  0  0  0  0  0  0
  -15.4422  -24.0660   23.4423 C   0  0  0  0  0  0  0  0  0  0  0  0
  -15.8872  -26.4591   22.8965 C   0  0  0  0  0  0  0  0  0  0  0  0
  -18.0394  -22.9434   17.4303 C   0  0  0  0  0  0  0  0  0  0  0  0
  -23.5464  -15.0754   20.9054 C   0  0  0  0  0  0  0  0  0  0  0  0
  -24.8345  -19.7140   22.1310 C   0  0  0  0  0  0  0  0  0  1  0  0
  -17.4824  -24.6814   22.0675 C   0  0  1  0  0  0  0  0  0  0  0  0
  -16.0117  -23.4679   18.7912 C   0  0  2  0  0  0  0  0  0  0  0  0
  -16.5593  -25.1124   23.2420 C   0  0  0  0  0  0  0  0  0  0  0  0
  -28.5594  -20.5568   19.6640 N   0  0  0  0  0  0  0  0  0  0  0  0
  -28.6429  -19.3064   20.1494 N   0  0  0  0  0  0  0  0  0  0  0  0
  -24.0080  -16.0488   21.8866 N   0  0  0  0  0  0  0  0  0  0  0  0
  -19.9115  -25.1428   21.9668 N   0  0  0  0  0  0  0  0  0  0  0  0
  -27.0108  -16.5033   18.1339 N   0  0  0  0  0  0  0  0  0  0  0  0
  -28.9379  -18.0725   22.1497 N   0  0  0  0  0  0  0  0  0  0  0  0
  -30.3673  -21.2068   23.7397 N   0  0  0  0  0  0  0  0  0  0  0  0
  -26.1539  -15.0220   19.7568 N   0  0  0  0  0  0  0  0  0  0  0  0
  -21.8345  -27.6716   23.5909 N   0  0  0  0  0  0  0  0  0  0  0  0
  -16.7958  -24.5428   20.7877 N   0  0  0  0  0  0  0  0  0  0  0  0
  -16.6244  -22.6108   17.7372 N   0  3  0  0  0  0  0  0  0  0  0  0
  -24.3586  -17.6848   20.2826 O   0  0  0  0  0  0  0  0  0  0  0  0
  -28.0975  -21.1636   24.0638 O   0  0  0  0  0  0  0  0  0  0  0  0
  -21.2015  -25.5289   24.2469 O   0  0  0  0  0  0  0  0  0  0  0  0
  -18.3532  -26.8251   21.5453 O   0  0  0  0  0  0  0  0  0  0  0  0
  -17.3551  -22.3196   20.4386 O   0  0  0  0  0  0  0  0  0  0  0  0
  -26.5288  -14.3111   17.5806 O   0  0  0  0  0  0  0  0  0  0  0  0
  -28.5784  -26.8897   20.3321 O   0  0  0  0  0  0  0  0  0  0  0  0
  -23.5010  -20.1448   22.4006 O   0  0  0  0  0  0  0  0  0  1  0  0
  -23.6796  -29.2927   19.5375 F   0  0  0  0  0  0  0  0  0  0  0  0
  -27.5858  -28.7215   22.1492 F   0  0  0  0  0  0  0  0  0  0  0  0
  -22.3157  -12.5986   22.2188 Cl  0  0  0  0  0  0  0  0  0  0  0  0
  1  2  1  0  0  0  0
  1  5  2  0  0  0  0
  2  6  2  0  0  0  0
  3  9  2  0  0  0  0
  3 17  1  0  0  0  0
  4 10  1  0  0  0  0
  4 17  2  0  0  0  0
  5 19  1  0  0  0  0
  6 21  1  0  0  0  0
  7 11  2  0  0  0  0
  7 20  1  0  0  0  0
  8 14  1  0  0  0  0
  8 23  2  0  0  0  0
  9 26  1  0  0  0  0
 10 26  2  0  0  0  0
 11 27  1  0  0  0  0
 12 13  2  0  0  0  0
 12 28  1  0  0  0  0
 13 29  1  0  0  0  0
 14 31  2  0  0  0  0
 15 22  1  0  0  0  0
 15 27  2  0  0  0  0
 16 29  2  0  0  0  0
 16 30  1  0  0  0  0
 17 32  1  0  0  0  0
 18 32  1  0  0  0  0
 18 33  2  0  0  0  0
 18 35  1  0  0  0  0
 19 21  2  0  0  0  0
 19 40  1  0  0  0  0
 20 22  2  0  0  0  0
 20 41  1  0  0  0  0
 21 52  1  0  0  0  0
 22 42  1  0  0  0  0
 23 25  1  0  0  0  0
 23 56  1  0  0  0  0
 24 25  2  0  0  0  0
 24 31  1  0  0  0  0
 24 62  1  0  0  0  0
 25 74  1  0  0  0  0
 26 84  1  0  0  0  0
 27 85  1  0  0  0  0
 28 30  2  0  0  0  0
 28 84  1  0  0  0  0
 29 86  1  0  0  0  0
 30 87  1  0  0  0  0
 31 88  1  0  0  0  0
 32 67  2  0  0  0  0
 33 68  1  0  0  0  0
 33 72  1  0  0  0  0
 34 53  1  0  0  0  0
 34 69  1  0  0  0  0
 34 78  2  0  0  0  0
 35 73  1  0  0  0  0
 35 79  2  0  0  0  0
 36 54  1  0  0  0  0
 36 75  1  0  0  0  0
 36 80  2  0  0  0  0
 37 64  1  0  0  0  0
 37 70  1  0  0  0  0
 37 81  2  0  0  0  0
 38 65  1  0  0  0  0
 38 76  1  0  0  0  0
 38 82  2  0  0  0  0
 39 71  1  0  0  0  0
 39 74  1  0  0  0  0
 39 83  2  0  0  0  0
 40 43  1  0  0  0  0
 41 54  1  0  0  0  0
 42 70  1  0  0  0  0
 43 46  1  0  0  0  0
 44 47  1  0  0  0  0
 44 49  1  0  0  0  0
 45 48  1  0  0  0  0
 45 50  1  0  0  0  0
 46 52  1  0  0  0  0
 47 53  1  0  0  0  0
 48 55  1  0  0  0  0
 49 69  1  0  0  0  0
 50 71  1  0  0  0  0
 51 55  1  0  0  0  0
 51 71  1  0  0  0  0
 52 75  1  0  0  0  0
 53 63  1  0  0  0  0
 54 70  1  0  0  0  0
 55 68  1  0  0  0  0
 57 65  1  0  0  0  0
 58 66  1  0  0  0  0
 59 66  1  0  0  0  0
 60 66  1  0  0  0  0
 61 77  1  0  0  0  0
 62 69  1  0  0  0  0
 63 85  1  0  0  0  0
 64 66  1  0  0  0  0
 64 76  1  0  0  0  0
 65 77  1  0  0  0  0
 67 68  1  0  0  0  0
M  CHG  1  77   1
M  ISO  4  39 100  63 101  74 100  85 101
M  END
> <Batch ID>
0044

> <Smiles>
CNC(C)C(=O)NC(C(=O)N1Cc2cc([101O:1][101CH2:1]C3CCCN(Cc4c(Cl)ccc(C)c4[100NH:0][100C:0](=O)N4CCCC(n5nc(-c6ccc(Oc7ccc(F)cc7F)cc6)c(C(N)=O)c5N)C4)C3=O)ccc2CC1C(=O)NC1CCCc2ccccc21)C(C)(C)C

> <Shape>
0.228

> <Color>
0.068

> <Negative vol penalty>
0.000

$$$$
