
  -OEChem-04042322213D

 86 95  0     1  0  0  0  0  0999 V2000
  -17.3478  -30.2460   23.6977 C   0  0  0  0  0  0  0  0  0  0  0  0
  -18.3486  -29.9729   24.6233 C   0  0  0  0  0  0  0  0  0  0  0  0
  -21.2011  -14.8103   21.2702 C   0  0  0  0  0  0  0  0  0  0  0  0
  -23.5695  -14.3347   21.3087 C   0  0  0  0  0  0  0  0  0  0  0  0
  -17.1729  -29.4081   22.5984 C   0  0  0  0  0  0  0  0  0  0  0  0
  -19.1825  -28.8687   24.4436 C   0  0  0  0  0  0  0  0  0  0  0  0
  -25.4562  -23.3932   24.1942 C   0  0  0  0  0  0  0  0  0  0  0  0
  -32.2044  -17.7225   17.6306 C   0  0  0  0  0  0  0  0  0  0  0  0
  -31.4707  -17.7888   18.8150 C   0  0  0  0  0  0  0  0  0  0  0  0
  -20.9341  -13.5174   21.7202 C   0  0  0  0  0  0  0  0  0  0  0  0
  -23.3025  -13.0417   21.7588 C   0  0  0  0  0  0  0  0  0  0  0  0
  -25.8979  -22.4494   23.2680 C   0  0  0  0  0  0  0  0  0  0  0  0
  -22.2781  -10.1046   20.4343 C   0  0  0  0  0  0  0  0  0  0  0  0
  -22.9664   -9.0528   19.8296 C   0  0  0  0  0  0  0  0  0  0  0  0
  -25.4209  -23.9930   21.4766 C   0  0  0  0  0  0  0  0  0  0  0  0
  -30.2102  -18.2346   16.3665 C   0  0  0  0  0  0  0  0  0  0  0  0
  -23.9169   -8.4464   21.9664 C   0  0  0  0  0  0  0  0  0  0  0  0
  -22.5188  -15.2190   21.0644 C   0  0  0  0  0  0  0  0  0  0  0  0
  -22.4556  -17.7635   21.2347 C   0  0  0  0  0  0  0  0  0  0  0  0
  -17.9974  -28.2862   22.4126 C   0  0  0  0  0  0  0  0  0  0  0  0
  -24.9825  -24.6421   23.7671 C   0  0  0  0  0  0  0  0  0  0  0  0
  -19.0373  -28.0246   23.3278 C   0  0  0  0  0  0  0  0  0  0  0  0
  -24.9762  -24.9519   22.3996 C   0  0  0  0  0  0  0  0  0  0  0  0
  -31.5742  -17.9454   16.4064 C   0  0  0  0  0  0  0  0  0  0  0  0
  -30.1067  -18.0781   18.7752 C   0  0  0  0  0  0  0  0  0  0  0  0
  -29.4765  -18.3009   17.5509 C   0  0  0  0  0  0  0  0  0  0  0  0
  -21.9848  -12.6331   21.9646 C   0  0  0  0  0  0  0  0  0  0  0  0
  -25.8776  -22.7481   21.9088 C   0  0  0  0  0  0  0  0  0  0  0  0
  -22.4093  -10.3273   21.8050 C   0  0  0  0  0  0  0  0  0  0  0  0
  -23.7858   -8.2237   20.5956 C   0  0  0  0  0  0  0  0  0  0  0  0
  -23.2286   -9.4982   22.5711 C   0  0  0  0  0  0  0  0  0  0  0  0
  -22.7952  -16.5543   20.5989 C   0  0  0  0  0  0  0  0  0  0  0  0
  -22.9360  -18.7392   20.3959 C   0  0  0  0  0  0  0  0  0  0  0  0
  -27.7348  -19.9422   20.6555 C   0  0  0  0  0  0  0  0  0  0  0  0
  -21.7675  -17.9850   22.4729 C   0  0  0  0  0  0  0  0  0  0  0  0
  -22.2053  -26.1755   23.9658 C   0  0  0  0  0  0  0  0  0  0  0  0
  -23.9024  -28.6133   22.6624 C   0  0  0  0  0  0  0  0  0  0  0  0
  -26.3930  -29.0034   20.0813 C   0  0  0  0  0  0  0  0  0  0  0  0
  -27.3302  -18.8419   16.3480 C   0  0  0  0  0  0  0  0  0  0  0  0
  -17.7691  -27.4173   21.2009 C   0  0  0  0  0  0  0  0  0  0  0  0
  -24.5346  -25.6592   24.7806 C   0  0  0  0  0  0  0  0  0  0  0  0
  -24.4963  -26.2858   21.8909 C   0  0  0  0  0  0  0  0  0  0  0  0
  -18.4034  -26.0364   21.3316 C   0  0  0  0  0  0  0  0  0  0  0  0
  -30.0044  -21.7911   20.2661 C   0  0  0  0  0  0  0  0  0  0  0  0
  -23.8918  -19.5693   15.7773 C   0  0  0  0  0  0  0  0  0  0  0  0
  -19.8514  -26.1697   21.7789 C   0  0  0  0  0  0  0  0  0  0  0  0
  -28.5507  -22.2597   20.2456 C   0  0  0  0  0  0  0  0  0  0  0  0
  -23.1902  -18.9941   17.0097 C   0  0  0  0  0  0  0  0  0  0  0  0
  -30.1710  -20.3741   20.8078 C   0  0  0  0  0  0  0  0  0  0  0  0
  -25.0658  -18.6978   15.3346 C   0  0  0  0  0  0  0  0  0  0  0  0
  -25.3424  -17.8179   17.6190 C   0  0  0  0  0  0  0  0  0  0  0  0
  -19.9365  -26.8119   23.1693 C   0  0  1  0  0  0  0  0  0  0  0  0
  -27.6503  -21.3914   21.1150 C   0  0  1  0  0  0  0  0  0  1  0  0
  -23.5912  -26.7073   24.1986 C   0  0  1  0  0  0  0  0  0  0  0  0
  -24.1932  -18.6956   18.1412 C   0  0  2  0  0  0  0  0  0  0  0  0
  -32.3596  -17.8743   15.1404 C   0  0  0  0  0  0  0  0  0  0  0  0
  -28.1877  -30.7336   19.7939 C   0  0  0  0  0  0  0  0  0  0  0  0
  -21.8412  -30.0444   20.9265 C   0  0  0  0  0  0  0  0  0  0  0  0
  -23.7001  -30.7029   19.3841 C   0  0  0  0  0  0  0  0  0  0  0  0
  -23.7026  -31.4983   21.7484 C   0  0  0  0  0  0  0  0  0  0  0  0
  -28.5130  -26.9448   19.9170 C   0  0  0  0  0  0  0  0  0  0  0  0
  -29.3420  -18.1422   20.0657 C   0  0  0  0  0  0  0  0  0  0  0  0
  -24.2094  -29.0706   21.2568 C   0  0  1  0  0  0  0  0  0  0  0  0
  -27.8625  -29.3292   20.2782 C   0  0  2  0  0  0  0  0  0  0  0  0
  -23.3585  -30.3016   20.8350 C   0  0  0  0  0  0  0  0  0  0  0  0
  -23.4413  -16.7421   19.4451 N   0  0  0  0  0  0  0  0  0  0  0  0
  -23.5115  -18.0808   19.3493 N   0  0  0  0  0  0  0  0  0  0  0  0
  -29.0492  -19.5108   20.4569 N   0  0  0  0  0  0  0  0  0  0  0  0
  -24.0625  -27.2445   22.9205 N   0  0  0  0  0  0  0  0  0  0  0  0
  -25.9761  -18.4606   16.4571 N   0  0  0  0  0  0  0  0  0  0  0  0
  -22.9181  -20.0876   20.4588 N   0  0  0  0  0  0  0  0  0  0  0  0
  -21.3424  -16.8710   23.2096 N   0  0  0  0  0  0  0  0  0  0  0  0
  -28.0921  -18.5967   17.4899 N   0  0  0  0  0  0  0  0  0  0  0  0
  -21.3198  -27.1117   23.4669 N   0  0  0  0  0  0  0  0  0  0  0  0
  -25.6502  -29.2943   21.2059 N   0  0  0  0  0  0  0  0  0  0  0  0
  -28.7125  -28.3639   19.5254 N   0  3  0  0  0  0  0  0  0  0  0  0
  -26.7320  -19.2483   20.4971 O   0  0  0  0  0  0  0  0  0  0  0  0
  -21.5219  -19.1368   22.9049 O   0  0  0  0  0  0  0  0  0  0  0  0
  -21.9581  -25.0022   24.2187 O   0  0  0  0  0  0  0  0  0  0  0  0
  -23.5409  -29.4413   23.5023 O   0  0  0  0  0  0  0  0  0  0  0  0
  -25.9479  -28.5407   19.0332 O   0  0  0  0  0  0  0  0  0  0  0  0
  -27.7744  -19.3736   15.3272 O   0  0  0  0  0  0  0  0  0  0  0  0
  -21.7246  -11.3714   22.4040 O   0  0  0  0  0  0  0  0  0  0  0  0
  -26.3076  -21.8284   21.0026 O   0  0  0  0  0  0  0  0  0  1  0  0
  -24.4455   -7.2128   20.0151 F   0  0  0  0  0  0  0  0  0  0  0  0
  -23.3577   -9.7065   23.8885 F   0  0  0  0  0  0  0  0  0  0  0  0
  1  2  1  0  0  0  0
  1  5  2  0  0  0  0
  2  6  2  0  0  0  0
  3 10  2  0  0  0  0
  3 18  1  0  0  0  0
  4 11  1  0  0  0  0
  4 18  2  0  0  0  0
  5 20  1  0  0  0  0
  6 22  1  0  0  0  0
  7 12  2  0  0  0  0
  7 21  1  0  0  0  0
  8  9  2  0  0  0  0
  8 24  1  0  0  0  0
  9 25  1  0  0  0  0
 10 27  1  0  0  0  0
 11 27  2  0  0  0  0
 12 28  1  0  0  0  0
 13 14  2  0  0  0  0
 13 29  1  0  0  0  0
 14 30  1  0  0  0  0
 15 23  1  0  0  0  0
 15 28  2  0  0  0  0
 16 24  2  0  0  0  0
 16 26  1  0  0  0  0
 17 30  2  0  0  0  0
 17 31  1  0  0  0  0
 18 32  1  0  0  0  0
 19 32  1  0  0  0  0
 19 33  2  0  0  0  0
 19 35  1  0  0  0  0
 20 22  2  0  0  0  0
 20 40  1  0  0  0  0
 21 23  2  0  0  0  0
 21 41  1  0  0  0  0
 22 52  1  0  0  0  0
 23 42  1  0  0  0  0
 24 56  1  0  0  0  0
 25 26  2  0  0  0  0
 25 62  1  0  0  0  0
 26 73  1  0  0  0  0
 27 83  1  0  0  0  0
 28 84  1  0  0  0  0
 29 31  2  0  0  0  0
 29 83  1  0  0  0  0
 30 85  1  0  0  0  0
 31 86  1  0  0  0  0
 32 66  2  0  0  0  0
 33 67  1  0  0  0  0
 33 71  1  0  0  0  0
 34 53  1  0  0  0  0
 34 68  1  0  0  0  0
 34 77  2  0  0  0  0
 35 72  1  0  0  0  0
 35 78  2  0  0  0  0
 36 54  1  0  0  0  0
 36 74  1  0  0  0  0
 36 79  2  0  0  0  0
 37 63  1  0  0  0  0
 37 69  1  0  0  0  0
 37 80  2  0  0  0  0
 38 64  1  0  0  0  0
 38 75  1  0  0  0  0
 38 81  2  0  0  0  0
 39 70  1  0  0  0  0
 39 73  1  0  0  0  0
 39 82  2  0  0  0  0
 40 43  1  0  0  0  0
 41 54  1  0  0  0  0
 42 69  1  0  0  0  0
 43 46  1  0  0  0  0
 44 47  1  0  0  0  0
 44 49  1  0  0  0  0
 45 48  1  0  0  0  0
 45 50  1  0  0  0  0
 46 52  1  0  0  0  0
 47 53  1  0  0  0  0
 48 55  1  0  0  0  0
 49 68  1  0  0  0  0
 50 70  1  0  0  0  0
 51 55  1  0  0  0  0
 51 70  1  0  0  0  0
 52 74  1  0  0  0  0
 53 84  1  0  0  0  0
 54 69  1  0  0  0  0
 55 67  1  0  0  0  0
 57 64  1  0  0  0  0
 58 65  1  0  0  0  0
 59 65  1  0  0  0  0
 60 65  1  0  0  0  0
 61 76  1  0  0  0  0
 62 68  1  0  0  0  0
 63 65  1  0  0  0  0
 63 75  1  0  0  0  0
 64 76  1  0  0  0  0
 66 67  1  0  0  0  0
M  CHG  1  76   1
M  ISO  4  39 100  53 101  73 100  84 101
M  END
> <Batch ID>
0045

> <Smiles>
CNC(C)C(=O)NC(C(=O)N1Cc2cc([101O:1][101CH:1]3CCCN(Cc4ccc(C)cc4[100NH:0][100C:0](=O)N4CCCC(n5nc(-c6ccc(Oc7ccc(F)cc7F)cc6)c(C(N)=O)c5N)C4)C3=O)ccc2CC1C(=O)NC1CCCc2ccccc21)C(C)(C)C

> <Shape>
0.228

> <Color>
0.056

> <Negative vol penalty>
0.000

$$$$

  -OEChem-04042322213D

 83 91  0     1  0  0  0  0  0999 V2000
  -18.7313  -27.0391   25.9742 C   0  0  0  0  0  0  0  0  0  0  0  0
  -19.9648  -26.5486   25.5579 C   0  0  0  0  0  0  0  0  0  0  0  0
  -24.5069   -9.2481   21.1146 C   0  0  0  0  0  0  0  0  0  0  0  0
  -22.5298  -10.5473   20.6243 C   0  0  0  0  0  0  0  0  0  0  0  0
  -17.9826  -27.8518   25.1240 C   0  0  0  0  0  0  0  0  0  0  0  0
  -20.4498  -26.8696   24.2905 C   0  0  0  0  0  0  0  0  0  0  0  0
  -26.2948  -27.7863   22.7090 C   0  0  0  0  0  0  0  0  0  0  0  0
  -28.2455  -20.8011   17.7018 C   0  0  0  0  0  0  0  0  0  0  0  0
  -27.1752  -20.0361   17.2383 C   0  0  0  0  0  0  0  0  0  0  0  0
  -23.7079   -8.1434   21.4092 C   0  0  0  0  0  0  0  0  0  0  0  0
  -21.7308   -9.4425   20.9189 C   0  0  0  0  0  0  0  0  0  0  0  0
  -27.2442  -26.9613   22.1074 C   0  0  0  0  0  0  0  0  0  0  0  0
  -21.8103   -7.0590   23.9875 C   0  0  0  0  0  0  0  0  0  0  0  0
  -22.1126   -6.3297   25.1374 C   0  0  0  0  0  0  0  0  0  0  0  0
  -26.7030  -27.9153   19.9589 C   0  0  0  0  0  0  0  0  0  0  0  0
  -27.9214  -19.9086   19.9234 C   0  0  0  0  0  0  0  0  0  0  0  0
  -22.4738   -4.3565   23.7910 C   0  0  0  0  0  0  0  0  0  0  0  0
  -23.9178  -10.4501   20.7222 C   0  0  0  0  0  0  0  0  0  0  0  0
  -25.2825  -11.9412   19.1660 C   0  0  0  0  0  0  0  0  0  0  0  0
  -18.4631  -28.1908   23.8493 C   0  0  0  0  0  0  0  0  0  0  0  0
  -25.5334  -28.6757   21.9372 C   0  0  0  0  0  0  0  0  0  0  0  0
  -19.7062  -27.6865   23.4219 C   0  0  0  0  0  0  0  0  0  0  0  0
  -25.7464  -28.7523   20.5534 C   0  0  0  0  0  0  0  0  0  0  0  0
  -28.6186  -20.7373   19.0443 C   0  0  0  0  0  0  0  0  0  0  0  0
  -26.4779  -19.2074   18.1173 C   0  0  0  0  0  0  0  0  0  0  0  0
  -26.8510  -19.1437   19.4599 C   0  0  0  0  0  0  0  0  0  0  0  0
  -22.3199   -8.2405   21.3114 C   0  0  0  0  0  0  0  0  0  0  0  0
  -27.4464  -27.0237   20.7318 C   0  0  0  0  0  0  0  0  0  0  0  0
  -21.8396   -6.4371   22.7393 C   0  0  0  0  0  0  0  0  0  0  0  0
  -22.4444   -4.9785   25.0392 C   0  0  0  0  0  0  0  0  0  0  0  0
  -22.1714   -5.0858   22.6410 C   0  0  0  0  0  0  0  0  0  0  0  0
  -24.7426  -11.5918   20.4182 C   0  0  0  0  0  0  0  0  0  0  0  0
  -25.9827  -13.0985   19.4048 C   0  0  0  0  0  0  0  0  0  0  0  0
  -25.1619  -11.2790   17.9000 C   0  0  0  0  0  0  0  0  0  0  0  0
  -22.4348  -29.0242   21.3200 C   0  0  0  0  0  0  0  0  0  0  0  0
  -23.4382  -31.7066   19.7968 C   0  0  0  0  0  0  0  0  0  0  0  0
  -29.0641  -23.9383   19.7261 C   0  0  0  0  0  0  0  0  0  0  0  0
  -25.9731  -33.3761   18.2367 C   0  0  0  0  0  0  0  0  0  0  0  0
  -26.4121  -18.1402   21.7285 C   0  0  0  0  0  0  0  0  0  0  0  0
  -17.5965  -29.0338   22.9474 C   0  0  0  0  0  0  0  0  0  0  0  0
  -24.5321  -29.5779   22.6049 C   0  0  0  0  0  0  0  0  0  0  0  0
  -24.9693  -29.7046   19.6830 C   0  0  0  0  0  0  0  0  0  0  0  0
  -18.3515  -29.6335   21.7639 C   0  0  0  0  0  0  0  0  0  0  0  0
  -27.2523  -15.3406   23.7617 C   0  0  0  0  0  0  0  0  0  0  0  0
  -19.2210  -28.5746   21.0935 C   0  0  0  0  0  0  0  0  0  0  0  0
  -26.7187  -14.1445   22.9701 C   0  0  0  0  0  0  0  0  0  0  0  0
  -26.3342  -16.5556   23.6412 C   0  0  0  0  0  0  0  0  0  0  0  0
  -25.4757  -15.7582   21.4741 C   0  0  0  0  0  0  0  0  0  0  0  0
  -20.2774  -28.0328   22.0640 C   0  0  1  0  0  0  0  0  0  0  0  0
  -23.4514  -30.0797   21.6521 C   0  0  1  0  0  0  0  0  0  0  0  0
  -26.4002  -14.5304   21.5123 C   0  0  2  0  0  0  0  0  0  0  0  0
  -25.3349  -18.3999   17.5932 C   0  0  0  0  0  0  0  0  0  0  0  0
  -26.4805  -35.5349   17.0622 C   0  0  0  0  0  0  0  0  0  0  0  0
  -21.9515  -30.7090   17.3261 C   0  0  0  0  0  0  0  0  0  0  0  0
  -23.2500  -32.3602   15.9638 C   0  0  0  0  0  0  0  0  0  0  0  0
  -21.7198  -33.1603   17.7640 C   0  0  0  0  0  0  0  0  0  0  0  0
  -28.0366  -34.1087   20.2278 C   0  0  0  0  0  0  0  0  0  0  0  0
  -29.7710  -21.5609   19.5423 C   0  0  0  0  0  0  0  0  0  0  0  0
  -28.6189  -24.9547   20.7558 C   0  0  0  0  0  0  0  0  0  1  0  0
  -23.8932  -32.0332   18.3949 C   0  0  1  0  0  0  0  0  0  0  0  0
  -26.4895  -34.7953   18.3910 C   0  0  2  0  0  0  0  0  0  0  0  0
  -22.7171  -32.0462   17.3781 C   0  0  0  0  0  0  0  0  0  0  0  0
  -25.0717  -12.4569   21.3812 N   0  0  0  0  0  0  0  0  0  0  0  0
  -25.8260  -13.3614   20.7339 N   0  0  0  0  0  0  0  0  0  0  0  0
  -23.9972  -30.5616   20.3817 N   0  0  0  0  0  0  0  0  0  0  0  0
  -26.0801  -16.8647   22.2323 N   0  0  0  0  0  0  0  0  0  0  0  0
  -26.7110  -13.9066   18.6055 N   0  0  0  0  0  0  0  0  0  0  0  0
  -24.4056  -10.1010   17.8316 N   0  0  0  0  0  0  0  0  0  0  0  0
  -26.1556  -18.3074   20.3681 N   0  0  0  0  0  0  0  0  0  0  0  0
  -21.3695  -28.9728   22.1986 N   0  0  0  0  0  0  0  0  0  0  0  0
  -29.3279  -22.7061   20.3033 N   0  0  0  0  0  0  0  0  0  0  0  0
  -24.6192  -33.2955   18.4850 N   0  0  0  0  0  0  0  0  0  0  0  0
  -27.8851  -34.7848   18.9136 N   0  3  0  0  0  0  0  0  0  0  0  0
  -25.7220  -11.7100   16.8637 O   0  0  0  0  0  0  0  0  0  0  0  0
  -22.6037  -28.3103   20.3384 O   0  0  0  0  0  0  0  0  0  0  0  0
  -22.6224  -32.4445   20.3551 O   0  0  0  0  0  0  0  0  0  0  0  0
  -29.1700  -24.2048   18.5321 O   0  0  0  0  0  0  0  0  0  0  0  0
  -26.6976  -32.4341   17.9234 O   0  0  0  0  0  0  0  0  0  0  0  0
  -26.9141  -19.0103   22.4447 O   0  0  0  0  0  0  0  0  0  0  0  0
  -21.5400   -7.1627   21.5985 O   0  0  0  0  0  0  0  0  0  0  0  0
  -28.3720  -26.2191   20.1421 O   0  0  0  0  0  0  0  0  0  1  0  0
  -22.7362   -4.2786   26.1433 F   0  0  0  0  0  0  0  0  0  0  0  0
  -22.2024   -4.4831   21.4445 F   0  0  0  0  0  0  0  0  0  0  0  0
  1  2  1  0  0  0  0
  1  5  2  0  0  0  0
  2  6  2  0  0  0  0
  3 10  2  0  0  0  0
  3 18  1  0  0  0  0
  4 11  1  0  0  0  0
  4 18  2  0  0  0  0
  5 20  1  0  0  0  0
  6 22  1  0  0  0  0
  7 12  2  0  0  0  0
  7 21  1  0  0  0  0
  8  9  2  0  0  0  0
  8 24  1  0  0  0  0
  9 25  1  0  0  0  0
 10 27  1  0  0  0  0
 11 27  2  0  0  0  0
 12 28  1  0  0  0  0
 13 14  2  0  0  0  0
 13 29  1  0  0  0  0
 14 30  1  0  0  0  0
 15 23  1  0  0  0  0
 15 28  2  0  0  0  0
 16 24  2  0  0  0  0
 16 26  1  0  0  0  0
 17 30  2  0  0  0  0
 17 31  1  0  0  0  0
 18 32  1  0  0  0  0
 19 32  1  0  0  0  0
 19 33  2  0  0  0  0
 19 34  1  0  0  0  0
 20 22  2  0  0  0  0
 20 40  1  0  0  0  0
 21 23  2  0  0  0  0
 21 41  1  0  0  0  0
 22 49  1  0  0  0  0
 23 42  1  0  0  0  0
 24 58  1  0  0  0  0
 25 26  2  0  0  0  0
 25 52  1  0  0  0  0
 26 69  1  0  0  0  0
 27 80  1  0  0  0  0
 28 81  1  0  0  0  0
 29 31  2  0  0  0  0
 29 80  1  0  0  0  0
 30 82  1  0  0  0  0
 31 83  1  0  0  0  0
 32 63  2  0  0  0  0
 33 64  1  0  0  0  0
 33 67  1  0  0  0  0
 34 68  1  0  0  0  0
 34 74  2  0  0  0  0
 35 50  1  0  0  0  0
 35 70  1  0  0  0  0
 35 75  2  0  0  0  0
 36 60  1  0  0  0  0
 36 65  1  0  0  0  0
 36 76  2  0  0  0  0
 37 59  1  0  0  0  0
 37 71  1  0  0  0  0
 37 77  2  0  0  0  0
 38 61  1  0  0  0  0
 38 72  1  0  0  0  0
 38 78  2  0  0  0  0
 39 66  1  0  0  0  0
 39 69  1  0  0  0  0
 39 79  2  0  0  0  0
 40 43  1  0  0  0  0
 41 50  1  0  0  0  0
 42 65  1  0  0  0  0
 43 45  1  0  0  0  0
 44 46  1  0  0  0  0
 44 47  1  0  0  0  0
 45 49  1  0  0  0  0
 46 51  1  0  0  0  0
 47 66  1  0  0  0  0
 48 51  1  0  0  0  0
 48 66  1  0  0  0  0
 49 70  1  0  0  0  0
 50 65  1  0  0  0  0
 51 64  1  0  0  0  0
 53 61  1  0  0  0  0
 54 62  1  0  0  0  0
 55 62  1  0  0  0  0
 56 62  1  0  0  0  0
 57 73  1  0  0  0  0
 58 71  1  0  0  0  0
 59 81  1  0  0  0  0
 60 62  1  0  0  0  0
 60 72  1  0  0  0  0
 61 73  1  0  0  0  0
 63 64  1  0  0  0  0
M  CHG  1  73   1
M  ISO  4  39 100  59 101  69 100  81 101
M  END
> <Batch ID>
0045

> <Smiles>
CNC(C)C(=O)NC(C(=O)N1Cc2cc([101O:1][101CH2:1]C(=O)NCc3ccc(C)c([100NH:0][100C:0](=O)N4CCCC(n5nc(-c6ccc(Oc7ccc(F)cc7F)cc6)c(C(N)=O)c5N)C4)c3)ccc2CC1C(=O)NC1CCCc2ccccc21)C(C)(C)C

> <Shape>
0.253

> <Color>
0.131

> <Negative vol penalty>
0.000

$$$$

  -OEChem-04042322213D

 88 97  0     1  0  0  0  0  0999 V2000
  -29.3815  -33.1708   16.3032 C   0  0  0  0  0  0  0  0  0  0  0  0
  -29.2788  -31.9075   16.8766 C   0  0  0  0  0  0  0  0  0  0  0  0
  -22.7350  -10.9314   21.2904 C   0  0  0  0  0  0  0  0  0  0  0  0
  -24.4872   -9.2857   21.5325 C   0  0  0  0  0  0  0  0  0  0  0  0
  -29.0997  -34.3051   17.0634 C   0  0  0  0  0  0  0  0  0  0  0  0
  -28.8952  -31.7777   18.2109 C   0  0  0  0  0  0  0  0  0  0  0  0
  -25.4503  -28.1297   18.8961 C   0  0  0  0  0  0  0  0  0  0  0  0
  -21.9675  -10.2535   22.2375 C   0  0  0  0  0  0  0  0  0  0  0  0
  -23.7197   -8.6078   22.4797 C   0  0  0  0  0  0  0  0  0  0  0  0
  -25.9103  -26.8137   18.9079 C   0  0  0  0  0  0  0  0  0  0  0  0
  -21.0969   -6.4743   22.4965 C   0  0  0  0  0  0  0  0  0  0  0  0
  -21.0109   -5.0864   22.3879 C   0  0  0  0  0  0  0  0  0  0  0  0
  -25.8434  -26.8183   21.3193 C   0  0  0  0  0  0  0  0  0  0  0  0
  -27.0745  -19.6447   20.7881 C   0  0  0  0  0  0  0  0  0  0  0  0
  -29.4374  -18.3594   20.0484 C   0  0  0  0  0  0  0  0  0  0  0  0
  -21.9853   -4.8540   24.5864 C   0  0  0  0  0  0  0  0  0  0  0  0
  -23.9948  -10.4474   20.9378 C   0  0  0  0  0  0  0  0  0  0  0  0
  -24.4468  -11.4093   18.6187 C   0  0  0  0  0  0  0  0  0  0  0  0
  -28.7031  -34.1888   18.4049 C   0  0  0  0  0  0  0  0  0  0  0  0
  -25.1934  -28.8047   20.0981 C   0  0  0  0  0  0  0  0  0  0  0  0
  -28.6091  -32.9116   18.9901 C   0  0  0  0  0  0  0  0  0  0  0  0
  -25.3778  -28.1420   21.3200 C   0  0  0  0  0  0  0  0  0  0  0  0
  -27.2455  -18.2878   21.0620 C   0  0  0  0  0  0  0  0  0  0  0  0
  -29.2664  -19.7164   19.7745 C   0  0  0  0  0  0  0  0  0  0  0  0
  -28.0850  -20.3590   20.1443 C   0  0  0  0  0  0  0  0  0  0  0  0
  -28.4269  -17.6451   20.6922 C   0  0  0  0  0  0  0  0  0  0  0  0
  -22.4598   -9.0918   22.8322 C   0  0  0  0  0  0  0  0  0  0  0  0
  -26.1097  -26.1587   20.1197 C   0  0  0  0  0  0  0  0  0  0  0  0
  -21.6272   -7.0521   23.6500 C   0  0  0  0  0  0  0  0  0  0  0  0
  -21.4551   -4.2762   23.4328 C   0  0  0  0  0  0  0  0  0  0  0  0
  -22.0714   -6.2420   24.6950 C   0  0  0  0  0  0  0  0  0  0  0  0
  -24.7879  -11.1468   19.9591 C   0  0  0  0  0  0  0  0  0  0  0  0
  -25.5260  -12.0955   18.1178 C   0  0  0  0  0  0  0  0  0  0  0  0
  -28.7303  -22.7525   20.3794 C   0  0  0  0  0  0  0  0  0  0  0  0
  -23.2604  -11.0637   17.8915 C   0  0  0  0  0  0  0  0  0  0  0  0
  -29.4798  -22.6688   21.4963 C   0  0  0  0  0  0  0  0  0  0  0  0
  -26.3680  -31.3996   21.5089 C   0  0  0  0  0  0  0  0  0  0  0  0
  -23.9832  -30.8465   23.6371 C   0  0  0  0  0  0  0  0  0  0  0  0
  -21.8333  -28.6126   25.0633 C   0  0  0  0  0  0  0  0  0  0  0  0
  -29.7370  -15.4937   20.6523 C   0  0  0  0  0  0  0  0  0  0  0  0
  -28.4547  -35.4460   19.2002 C   0  0  0  0  0  0  0  0  0  0  0  0
  -24.6721  -30.2153   20.0677 C   0  0  0  0  0  0  0  0  0  0  0  0
  -25.0973  -28.8155   22.6376 C   0  0  0  0  0  0  0  0  0  0  0  0
  -28.7619  -24.0630   19.6110 C   0  0  0  0  0  0  0  0  0  0  0  0
  -27.6921  -35.2037   20.5001 C   0  0  0  0  0  0  0  0  0  0  0  0
  -30.2570  -12.5683   18.6904 C   0  0  0  0  0  0  0  0  0  0  0  0
  -28.2838  -34.0162   21.2528 C   0  0  0  0  0  0  0  0  0  0  0  0
  -28.8810  -11.8989   18.6660 C   0  0  0  0  0  0  0  0  0  0  0  0
  -26.7734  -23.3115   18.2933 C   0  0  0  0  0  0  0  0  0  0  0  0
  -30.5445  -13.2249   20.0395 C   0  0  0  0  0  0  0  0  0  0  0  0
  -26.6401  -22.0646   19.1645 C   0  0  0  0  0  0  0  0  0  0  0  0
  -28.1357  -13.4879   20.4844 C   0  0  0  0  0  0  0  0  0  0  0  0
  -28.1721  -32.7287   20.4274 C   0  0  1  0  0  0  0  0  0  0  0  0
  -24.9335  -30.9770   21.3634 C   0  0  1  0  0  0  0  0  0  0  0  0
  -27.7743  -12.8687   19.1244 C   0  0  2  0  0  0  0  0  0  0  0  0
  -27.3999  -24.4696   19.0576 C   0  0  1  0  0  0  0  0  0  1  0  0
  -26.1461  -17.5474   21.7520 C   0  0  0  0  0  0  0  0  0  0  0  0
  -30.3648  -20.4576   19.0840 C   0  0  0  0  0  0  0  0  0  0  0  0
  -29.5199  -21.4236   22.3261 C   0  0  0  0  0  0  0  0  0  0  0  0
  -30.3150  -23.8166   21.9716 C   0  0  0  0  0  0  0  0  0  0  0  0
  -20.0296  -28.4480   26.8003 C   0  0  0  0  0  0  0  0  0  0  0  0
  -26.0972  -30.9230   25.8359 C   0  0  0  0  0  0  0  0  0  0  0  0
  -24.4431  -29.8342   27.3678 C   0  0  0  0  0  0  0  0  0  0  0  0
  -23.9566  -32.0838   26.4059 C   0  0  0  0  0  0  0  0  0  0  0  0
  -19.8216  -27.7722   23.0619 C   0  0  0  0  0  0  0  0  0  0  0  0
  -23.8512  -30.0476   24.9111 C   0  0  1  0  0  0  0  0  0  0  0  0
  -20.3404  -28.6808   25.3299 C   0  0  2  0  0  0  0  0  0  0  0  0
  -24.5943  -30.7098   26.1056 C   0  0  0  0  0  0  0  0  0  0  0  0
  -25.9899  -11.6270   20.2887 N   0  0  0  0  0  0  0  0  0  0  0  0
  -26.4135  -12.1980   19.1483 N   0  0  0  0  0  0  0  0  0  0  0  0
  -27.8930  -21.7443   19.8728 N   0  0  0  0  0  0  0  0  0  0  0  0
  -24.5951  -30.1970   22.5557 N   0  0  0  0  0  0  0  0  0  0  0  0
  -29.4558  -14.1331   20.4066 N   0  0  0  0  0  0  0  0  0  0  0  0
  -25.7929  -12.6150   16.9007 N   0  0  0  0  0  0  0  0  0  0  0  0
  -23.2262   -9.8383   17.2122 N   0  0  0  0  0  0  0  0  0  0  0  0
  -28.6185  -16.2671   20.9610 N   0  0  0  0  0  0  0  0  0  0  0  0
  -26.8233  -32.2073   20.4843 N   0  0  0  0  0  0  0  0  0  0  0  0
  -22.4210  -29.8583   25.1279 N   0  0  0  0  0  0  0  0  0  0  0  0
  -19.6235  -27.6485   24.5290 N   0  3  0  0  0  0  0  0  0  0  0  0
  -22.2664  -11.8266   17.8319 O   0  0  0  0  0  0  0  0  0  0  0  0
  -27.0136  -31.0222   22.4797 O   0  0  0  0  0  0  0  0  0  0  0  0
  -23.5525  -32.0019   23.6004 O   0  0  0  0  0  0  0  0  0  0  0  0
  -22.4200  -27.5592   24.8255 O   0  0  0  0  0  0  0  0  0  0  0  0
  -30.8818  -15.9455   20.5665 O   0  0  0  0  0  0  0  0  0  0  0  0
  -21.7113   -8.4303   23.7566 O   0  0  0  0  0  0  0  0  0  0  0  0
  -26.5593  -24.8743   20.1340 O   0  0  0  0  0  0  0  0  0  1  0  0
  -21.3710   -2.9434   23.3291 F   0  0  0  0  0  0  0  0  0  0  0  0
  -22.5807   -6.7913   25.8061 F   0  0  0  0  0  0  0  0  0  0  0  0
  1  2  1  0  0  0  0
  1  5  2  0  0  0  0
  2  6  2  0  0  0  0
  3  8  2  0  0  0  0
  3 17  1  0  0  0  0
  4  9  1  0  0  0  0
  4 17  2  0  0  0  0
  5 19  1  0  0  0  0
  6 21  1  0  0  0  0
  7 10  2  0  0  0  0
  7 20  1  0  0  0  0
  8 27  1  0  0  0  0
  9 27  2  0  0  0  0
 10 28  1  0  0  0  0
 11 12  2  0  0  0  0
 11 29  1  0  0  0  0
 12 30  1  0  0  0  0
 13 22  1  0  0  0  0
 13 28  2  0  0  0  0
 14 23  2  0  0  0  0
 14 25  1  0  0  0  0
 15 24  1  0  0  0  0
 15 26  2  0  0  0  0
 16 30  2  0  0  0  0
 16 31  1  0  0  0  0
 17 32  1  0  0  0  0
 18 32  1  0  0  0  0
 18 33  2  0  0  0  0
 18 35  1  0  0  0  0
 19 21  2  0  0  0  0
 19 41  1  0  0  0  0
 20 22  2  0  0  0  0
 20 42  1  0  0  0  0
 21 53  1  0  0  0  0
 22 43  1  0  0  0  0
 23 26  1  0  0  0  0
 23 57  1  0  0  0  0
 24 25  2  0  0  0  0
 24 58  1  0  0  0  0
 25 71  1  0  0  0  0
 26 76  1  0  0  0  0
 27 85  1  0  0  0  0
 28 86  1  0  0  0  0
 29 31  2  0  0  0  0
 29 85  1  0  0  0  0
 30 87  1  0  0  0  0
 31 88  1  0  0  0  0
 32 69  2  0  0  0  0
 33 70  1  0  0  0  0
 33 74  1  0  0  0  0
 34 36  2  0  0  0  0
 34 44  1  0  0  0  0
 34 71  1  0  0  0  0
 35 75  1  0  0  0  0
 35 80  2  0  0  0  0
 36 59  1  0  0  0  0
 36 60  1  0  0  0  0
 37 54  1  0  0  0  0
 37 77  1  0  0  0  0
 37 81  2  0  0  0  0
 38 66  1  0  0  0  0
 38 72  1  0  0  0  0
 38 82  2  0  0  0  0
 39 67  1  0  0  0  0
 39 78  1  0  0  0  0
 39 83  2  0  0  0  0
 40 73  1  0  0  0  0
 40 76  1  0  0  0  0
 40 84  2  0  0  0  0
 41 45  1  0  0  0  0
 42 54  1  0  0  0  0
 43 72  1  0  0  0  0
 44 56  1  0  0  0  0
 45 47  1  0  0  0  0
 46 48  1  0  0  0  0
 46 50  1  0  0  0  0
 47 53  1  0  0  0  0
 48 55  1  0  0  0  0
 49 51  1  0  0  0  0
 49 56  1  0  0  0  0
 50 73  1  0  0  0  0
 51 71  1  0  0  0  0
 52 55  1  0  0  0  0
 52 73  1  0  0  0  0
 53 77  1  0  0  0  0
 54 72  1  0  0  0  0
 55 70  1  0  0  0  0
 56 86  1  0  0  0  0
 61 67  1  0  0  0  0
 62 68  1  0  0  0  0
 63 68  1  0  0  0  0
 64 68  1  0  0  0  0
 65 79  1  0  0  0  0
 66 68  1  0  0  0  0
 66 78  1  0  0  0  0
 67 79  1  0  0  0  0
 69 70  1  0  0  0  0
M  CHG  1  79   1
M  ISO  4  40 100  56 101  76 100  86 101
M  END
> <Batch ID>
0045

> <Smiles>
CNC(C)C(=O)NC(C(=O)N1Cc2cc([101O:1][101CH:1]3CCN(c4cc(C)c([100NH:0][100C:0](=O)N5CCCC(n6nc(-c7ccc(Oc8ccc(F)cc8F)cc7)c(C(N)=O)c6N)C5)cc4C)C(=C(C)C)C3)ccc2CC1C(=O)NC1CCCc2ccccc21)C(C)(C)C

> <Shape>
0.301

> <Color>
0.104

> <Negative vol penalty>
0.000

$$$$

  -OEChem-04042322213D

 87 96  0     1  0  0  0  0  0999 V2000
  -16.5321  -29.8995   22.8467 C   0  0  0  0  0  0  0  0  0  0  0  0
  -17.5171  -30.7362   23.3618 C   0  0  0  0  0  0  0  0  0  0  0  0
  -27.1347  -15.9297   22.9281 C   0  0  0  0  0  0  0  0  0  0  0  0
  -24.8335  -16.5190   22.4876 C   0  0  0  0  0  0  0  0  0  0  0  0
  -16.8518  -28.5939   22.4763 C   0  0  0  0  0  0  0  0  0  0  0  0
  -18.8222  -30.2673   23.5077 C   0  0  0  0  0  0  0  0  0  0  0  0
  -25.6223  -32.5011   23.2157 C   0  0  0  0  0  0  0  0  0  0  0  0
  -27.0311  -14.8600   22.0389 C   0  0  0  0  0  0  0  0  0  0  0  0
  -24.7298  -15.4493   21.5983 C   0  0  0  0  0  0  0  0  0  0  0  0
  -26.7932  -32.4894   23.9724 C   0  0  0  0  0  0  0  0  0  0  0  0
  -25.7587  -11.7287   22.0476 C   0  0  0  0  0  0  0  0  0  0  0  0
  -26.2839  -10.5003   22.4486 C   0  0  0  0  0  0  0  0  0  0  0  0
  -27.2466  -30.2410   23.2252 C   0  0  0  0  0  0  0  0  0  0  0  0
  -31.6464  -24.5031   28.1451 C   0  0  0  0  0  0  0  0  0  0  0  0
  -30.1259  -25.8161   26.2095 C   0  0  0  0  0  0  0  0  0  0  0  0
  -27.7898  -10.5274   20.5596 C   0  0  0  0  0  0  0  0  0  0  0  0
  -26.0359  -16.7591   23.1525 C   0  0  0  0  0  0  0  0  0  0  0  0
  -26.4520  -17.8018   25.4432 C   0  0  0  0  0  0  0  0  0  0  0  0
  -18.1635  -28.1119   22.6088 C   0  0  0  0  0  0  0  0  0  0  0  0
  -25.2485  -31.3769   22.4654 C   0  0  0  0  0  0  0  0  0  0  0  0
  -19.1594  -28.9536   23.1400 C   0  0  0  0  0  0  0  0  0  0  0  0
  -26.0718  -30.2419   22.4578 C   0  0  0  0  0  0  0  0  0  0  0  0
  -32.0249  -25.7705   27.7025 C   0  0  0  0  0  0  0  0  0  0  0  0
  -30.5077  -23.8921   27.6199 C   0  0  0  0  0  0  0  0  0  0  0  0
  -31.2646  -26.4270   26.7347 C   0  0  0  0  0  0  0  0  0  0  0  0
  -29.7475  -24.5486   26.6521 C   0  0  0  0  0  0  0  0  0  0  0  0
  -25.8286  -14.6199   21.3740 C   0  0  0  0  0  0  0  0  0  0  0  0
  -27.6041  -31.3583   23.9795 C   0  0  0  0  0  0  0  0  0  0  0  0
  -26.2491  -12.3564   20.9025 C   0  0  0  0  0  0  0  0  0  0  0  0
  -27.2994   -9.8996   21.7046 C   0  0  0  0  0  0  0  0  0  0  0  0
  -27.2647  -11.7558   20.1585 C   0  0  0  0  0  0  0  0  0  0  0  0
  -26.1421  -17.8639   24.0714 C   0  0  0  0  0  0  0  0  0  0  0  0
  -26.4290  -19.1103   25.8600 C   0  0  0  0  0  0  0  0  0  0  0  0
  -30.0071  -29.4195   25.3977 C   0  0  0  0  0  0  0  0  0  0  0  0
  -26.7355  -16.6631   26.2671 C   0  0  0  0  0  0  0  0  0  0  0  0
  -22.7713  -29.3853   22.4912 C   0  0  0  0  0  0  0  0  0  0  0  0
  -24.1899  -28.2059   19.8231 C   0  0  0  0  0  0  0  0  0  0  0  0
  -27.5474  -27.4461   18.7426 C   0  0  0  0  0  0  0  0  0  0  0  0
  -27.7339  -24.4752   25.1401 C   0  0  0  0  0  0  0  0  0  0  0  0
  -18.4509  -26.6782   22.2391 C   0  0  0  0  0  0  0  0  0  0  0  0
  -23.9961  -31.4150   21.6333 C   0  0  0  0  0  0  0  0  0  0  0  0
  -25.7257  -29.0165   21.6533 C   0  0  0  0  0  0  0  0  0  0  0  0
  -19.9386  -26.3778   22.0756 C   0  0  0  0  0  0  0  0  0  0  0  0
  -29.1806  -30.0026   28.1479 C   0  0  0  0  0  0  0  0  0  0  0  0
  -24.7993  -23.2874   23.5108 C   0  0  0  0  0  0  0  0  0  0  0  0
  -20.7325  -26.9633   23.2391 C   0  0  0  0  0  0  0  0  0  0  0  0
  -28.9951  -31.0483   27.0684 C   0  0  0  0  0  0  0  0  0  0  0  0
  -24.9126  -21.7654   23.6243 C   0  0  0  0  0  0  0  0  0  0  0  0
  -30.4414  -29.2029   27.8728 C   0  0  0  0  0  0  0  0  0  0  0  0
  -26.1617  -23.9426   23.2909 C   0  0  0  0  0  0  0  0  0  0  0  0
  -27.3055  -22.0543   24.3842 C   0  0  0  0  0  0  0  0  0  0  0  0
  -20.5919  -28.4894   23.2903 C   0  0  1  0  0  0  0  0  0  0  0  0
  -28.8507  -30.3546   25.7281 C   0  0  1  0  0  0  0  0  0  1  0  0
  -23.4486  -30.0275   21.3137 C   0  0  1  0  0  0  0  0  0  0  0  0
  -25.9666  -21.3552   24.6713 C   0  0  2  0  0  0  0  0  0  0  0  0
  -33.2480  -26.4046   28.2789 C   0  0  0  0  0  0  0  0  0  0  0  0
  -30.1258  -22.5340   28.1126 C   0  0  0  0  0  0  0  0  0  0  0  0
  -28.5439  -27.3759   16.4405 C   0  0  0  0  0  0  0  0  0  0  0  0
  -23.5262  -25.2301   19.9411 C   0  0  0  0  0  0  0  0  0  0  0  0
  -25.6811  -24.7734   18.7512 C   0  0  0  0  0  0  0  0  0  0  0  0
  -23.9046  -26.1239   17.6363 C   0  0  0  0  0  0  0  0  0  0  0  0
  -29.6784  -29.3626   19.4806 C   0  0  0  0  0  0  0  0  0  0  0  0
  -31.6526  -27.7915   26.2428 C   0  0  0  0  0  0  0  0  0  0  0  0
  -25.2195  -27.1380   19.5428 C   0  0  1  0  0  0  0  0  0  0  0  0
  -28.3608  -28.1996   17.7058 C   0  0  2  0  0  0  0  0  0  0  0  0
  -24.5826  -25.8307   18.9924 C   0  0  0  0  0  0  0  0  0  0  0  0
  -25.9371  -19.1130   23.6451 N   0  0  0  0  0  0  0  0  0  0  0  0
  -26.1185  -19.8479   24.7555 N   0  0  0  0  0  0  0  0  0  0  0  0
  -30.6054  -28.7755   26.4824 N   0  0  0  0  0  0  0  0  0  0  0  0
  -24.4877  -29.1003   20.8609 N   0  0  0  0  0  0  0  0  0  0  0  0
  -27.1074  -23.5110   24.3225 N   0  0  0  0  0  0  0  0  0  0  0  0
  -26.6443  -19.6905   27.0598 N   0  0  0  0  0  0  0  0  0  0  0  0
  -26.7172  -15.3914   25.6784 N   0  0  0  0  0  0  0  0  0  0  0  0
  -28.5875  -23.9447   26.1067 N   0  0  0  0  0  0  0  0  0  0  0  0
  -21.4328  -29.1084   22.2882 N   0  0  0  0  0  0  0  0  0  0  0  0
  -26.2040  -27.7437   18.6528 N   0  0  0  0  0  0  0  0  0  0  0  0
  -29.7081  -28.5344   18.2477 N   0  3  0  0  0  0  0  0  0  0  0  0
  -30.3196  -29.2206   24.2208 O   0  0  0  0  0  0  0  0  0  0  0  0
  -26.9810  -16.7689   27.4927 O   0  0  0  0  0  0  0  0  0  0  0  0
  -23.4157  -29.1566   23.5081 O   0  0  0  0  0  0  0  0  0  0  0  0
  -23.1627  -28.2494   19.1415 O   0  0  0  0  0  0  0  0  0  0  0  0
  -28.0526  -26.6682   19.5489 O   0  0  0  0  0  0  0  0  0  0  0  0
  -27.5074  -25.6811   25.0113 O   0  0  0  0  0  0  0  0  0  0  0  0
  -25.7272  -13.5763   20.5060 O   0  0  0  0  0  0  0  0  0  0  0  0
  -28.7472  -31.3441   24.7177 O   0  0  0  0  0  0  0  0  0  1  0  0
  -27.8047   -8.7207   22.0907 F   0  0  0  0  0  0  0  0  0  0  0  0
  -27.7406  -12.3546   19.0582 F   0  0  0  0  0  0  0  0  0  0  0  0
  1  2  1  0  0  0  0
  1  5  2  0  0  0  0
  2  6  2  0  0  0  0
  3  8  2  0  0  0  0
  3 17  1  0  0  0  0
  4  9  1  0  0  0  0
  4 17  2  0  0  0  0
  5 19  1  0  0  0  0
  6 21  1  0  0  0  0
  7 10  2  0  0  0  0
  7 20  1  0  0  0  0
  8 27  1  0  0  0  0
  9 27  2  0  0  0  0
 10 28  1  0  0  0  0
 11 12  2  0  0  0  0
 11 29  1  0  0  0  0
 12 30  1  0  0  0  0
 13 22  1  0  0  0  0
 13 28  2  0  0  0  0
 14 23  1  0  0  0  0
 14 24  2  0  0  0  0
 15 25  1  0  0  0  0
 15 26  2  0  0  0  0
 16 30  2  0  0  0  0
 16 31  1  0  0  0  0
 17 32  1  0  0  0  0
 18 32  1  0  0  0  0
 18 33  2  0  0  0  0
 18 35  1  0  0  0  0
 19 21  2  0  0  0  0
 19 40  1  0  0  0  0
 20 22  2  0  0  0  0
 20 41  1  0  0  0  0
 21 52  1  0  0  0  0
 22 42  1  0  0  0  0
 23 25  2  0  0  0  0
 23 56  1  0  0  0  0
 24 26  1  0  0  0  0
 24 57  1  0  0  0  0
 25 63  1  0  0  0  0
 26 74  1  0  0  0  0
 27 84  1  0  0  0  0
 28 85  1  0  0  0  0
 29 31  2  0  0  0  0
 29 84  1  0  0  0  0
 30 86  1  0  0  0  0
 31 87  1  0  0  0  0
 32 67  2  0  0  0  0
 33 68  1  0  0  0  0
 33 72  1  0  0  0  0
 34 53  1  0  0  0  0
 34 69  1  0  0  0  0
 34 78  2  0  0  0  0
 35 73  1  0  0  0  0
 35 79  2  0  0  0  0
 36 54  1  0  0  0  0
 36 75  1  0  0  0  0
 36 80  2  0  0  0  0
 37 64  1  0  0  0  0
 37 70  1  0  0  0  0
 37 81  2  0  0  0  0
 38 65  1  0  0  0  0
 38 76  1  0  0  0  0
 38 82  2  0  0  0  0
 39 71  1  0  0  0  0
 39 74  1  0  0  0  0
 39 83  2  0  0  0  0
 40 43  1  0  0  0  0
 41 54  1  0  0  0  0
 42 70  1  0  0  0  0
 43 46  1  0  0  0  0
 44 47  1  0  0  0  0
 44 49  1  0  0  0  0
 45 48  1  0  0  0  0
 45 50  1  0  0  0  0
 46 52  1  0  0  0  0
 47 53  1  0  0  0  0
 48 55  1  0  0  0  0
 49 69  1  0  0  0  0
 50 71  1  0  0  0  0
 51 55  1  0  0  0  0
 51 71  1  0  0  0  0
 52 75  1  0  0  0  0
 53 85  1  0  0  0  0
 54 70  1  0  0  0  0
 55 68  1  0  0  0  0
 58 65  1  0  0  0  0
 59 66  1  0  0  0  0
 60 66  1  0  0  0  0
 61 66  1  0  0  0  0
 62 77  1  0  0  0  0
 63 69  1  0  0  0  0
 64 66  1  0  0  0  0
 64 76  1  0  0  0  0
 65 77  1  0  0  0  0
 67 68  1  0  0  0  0
M  CHG  1  77   1
M  ISO  4  39 100  53 101  74 100  85 101
M  END
> <Batch ID>
0045

> <Smiles>
CNC(C)C(=O)NC(C(=O)N1Cc2cc([101O:1][101CH:1]3CCCN(Cc4cc([100NH:0][100C:0](=O)N5CCCC(n6nc(-c7ccc(Oc8ccc(F)cc8F)cc7)c(C(N)=O)c6N)C5)c(C)cc4C)C3=O)ccc2CC1C(=O)NC1CCCc2ccccc21)C(C)(C)C

> <Shape>
0.205

> <Color>
0.097

> <Negative vol penalty>
0.000

$$$$

  -OEChem-04042322213D

 87 96  0     1  0  0  0  0  0999 V2000
  -25.0984  -33.9375   20.2409 C   0  0  0  0  0  0  0  0  0  0  0  0
  -25.6523  -33.0628   19.3131 C   0  0  0  0  0  0  0  0  0  0  0  0
  -23.3087  -10.2141   22.2374 C   0  0  0  0  0  0  0  0  0  0  0  0
  -23.6029   -9.5276   19.9397 C   0  0  0  0  0  0  0  0  0  0  0  0
  -25.4943  -33.8745   21.5753 C   0  0  0  0  0  0  0  0  0  0  0  0
  -26.5934  -32.1170   19.7213 C   0  0  0  0  0  0  0  0  0  0  0  0
  -31.4222  -25.4136   20.7936 C   0  0  0  0  0  0  0  0  0  0  0  0
  -22.5644   -9.0610   22.4866 C   0  0  0  0  0  0  0  0  0  0  0  0
  -22.8587   -8.3745   20.1889 C   0  0  0  0  0  0  0  0  0  0  0  0
  -31.9595  -24.7591   21.9012 C   0  0  0  0  0  0  0  0  0  0  0  0
  -19.4143   -7.9638   21.9414 C   0  0  0  0  0  0  0  0  0  0  0  0
  -18.2308   -8.1014   22.6666 C   0  0  0  0  0  0  0  0  0  0  0  0
  -29.8943  -25.1035   23.0992 C   0  0  0  0  0  0  0  0  0  0  0  0
  -30.4919  -18.3506   24.0467 C   0  0  0  0  0  0  0  0  0  0  0  0
  -32.0581  -16.6025   22.5388 C   0  0  0  0  0  0  0  0  0  0  0  0
  -19.0963   -6.6128   24.3613 C   0  0  0  0  0  0  0  0  0  0  0  0
  -23.8279  -10.4474   20.9639 C   0  0  0  0  0  0  0  0  0  0  0  0
  -24.1678  -12.9727   20.8416 C   0  0  0  0  0  0  0  0  0  0  0  0
  -26.4499  -32.9354   21.9969 C   0  0  0  0  0  0  0  0  0  0  0  0
  -30.1185  -25.9285   20.8345 C   0  0  0  0  0  0  0  0  0  0  0  0
  -26.9882  -32.0217   21.0680 C   0  0  0  0  0  0  0  0  0  0  0  0
  -29.3418  -25.7620   21.9900 C   0  0  0  0  0  0  0  0  0  0  0  0
  -31.8791  -18.3551   24.1921 C   0  0  0  0  0  0  0  0  0  0  0  0
  -29.8877  -17.4720   23.1473 C   0  0  0  0  0  0  0  0  0  0  0  0
  -32.6622  -17.4811   23.4382 C   0  0  0  0  0  0  0  0  0  0  0  0
  -30.6709  -16.5980   22.3934 C   0  0  0  0  0  0  0  0  0  0  0  0
  -22.3395   -8.1412   21.4624 C   0  0  0  0  0  0  0  0  0  0  0  0
  -31.1966  -24.6065   23.0552 C   0  0  0  0  0  0  0  0  0  0  0  0
  -20.4388   -7.1507   22.4260 C   0  0  0  0  0  0  0  0  0  0  0  0
  -18.0718   -7.4259   23.8766 C   0  0  0  0  0  0  0  0  0  0  0  0
  -20.2798   -6.4752   23.6360 C   0  0  0  0  0  0  0  0  0  0  0  0
  -24.5963  -11.6387   20.7057 C   0  0  0  0  0  0  0  0  0  0  0  0
  -25.2597  -13.7227   20.4786 C   0  0  0  0  0  0  0  0  0  0  0  0
  -31.9706  -21.6025   24.4415 C   0  0  0  0  0  0  0  0  0  0  0  0
  -22.8965  -13.4880   21.2587 C   0  0  0  0  0  0  0  0  0  0  0  0
  -28.8439  -28.8299   20.5870 C   0  0  0  0  0  0  0  0  0  0  0  0
  -26.0500  -27.1832   20.6587 C   0  0  0  0  0  0  0  0  0  0  0  0
  -24.6881  -24.3860   22.4857 C   0  0  0  0  0  0  0  0  0  0  0  0
  -30.7249  -14.7729   20.6577 C   0  0  0  0  0  0  0  0  0  0  0  0
  -26.8363  -32.9058   23.4547 C   0  0  0  0  0  0  0  0  0  0  0  0
  -29.5440  -26.6085   19.6220 C   0  0  0  0  0  0  0  0  0  0  0  0
  -27.9298  -26.2786   22.0777 C   0  0  0  0  0  0  0  0  0  0  0  0
  -28.1526  -32.1775   23.7061 C   0  0  0  0  0  0  0  0  0  0  0  0
  -29.9202  -21.7762   26.5278 C   0  0  0  0  0  0  0  0  0  0  0  0
  -29.6148  -12.3558   18.2908 C   0  0  0  0  0  0  0  0  0  0  0  0
  -28.1426  -30.8282   23.0034 C   0  0  0  0  0  0  0  0  0  0  0  0
  -30.5760  -23.0392   26.0099 C   0  0  0  0  0  0  0  0  0  0  0  0
  -28.1749  -12.0635   18.7193 C   0  0  0  0  0  0  0  0  0  0  0  0
  -30.9276  -20.6404   26.5268 C   0  0  0  0  0  0  0  0  0  0  0  0
  -30.5285  -12.5866   19.4932 C   0  0  0  0  0  0  0  0  0  0  0  0
  -28.6196  -13.3109   20.8718 C   0  0  0  0  0  0  0  0  0  0  0  0
  -28.0360  -31.0049   21.4834 C   0  0  1  0  0  0  0  0  0  0  0  0
  -31.0459  -22.8043   24.5878 C   0  0  1  0  0  0  0  0  0  1  0  0
  -28.3871  -27.5457   19.9545 C   0  0  1  0  0  0  0  0  0  0  0  0
  -27.6481  -13.1356   19.6931 C   0  0  2  0  0  0  0  0  0  0  0  0
  -28.3997  -17.4890   23.0119 C   0  0  0  0  0  0  0  0  0  0  0  0
  -34.1492  -17.4678   23.5772 C   0  0  0  0  0  0  0  0  0  0  0  0
  -22.9142  -22.7292   21.8487 C   0  0  0  0  0  0  0  0  0  0  0  0
  -24.1589  -29.0867   22.1113 C   0  0  0  0  0  0  0  0  0  0  0  0
  -22.9362  -27.0878   22.9932 C   0  0  0  0  0  0  0  0  0  0  0  0
  -23.0365  -27.5021   20.5354 C   0  0  0  0  0  0  0  0  0  0  0  0
  -26.4858  -22.0906   22.9941 C   0  0  0  0  0  0  0  0  0  0  0  0
  -32.5068  -19.3093   25.1666 C   0  0  0  0  0  0  0  0  0  0  0  0
  -25.1123  -26.7154   21.7454 C   0  0  1  0  0  0  0  0  0  0  0  0
  -24.4084  -22.9959   21.9436 C   0  0  2  0  0  0  0  0  0  0  0  0
  -23.8388  -27.6012   21.8511 C   0  0  0  0  0  0  0  0  0  0  0  0
  -25.8616  -11.5434   20.2888 N   0  0  0  0  0  0  0  0  0  0  0  0
  -26.2376  -12.8272   20.1595 N   0  0  0  0  0  0  0  0  0  0  0  0
  -31.7305  -20.5340   25.3074 N   0  0  0  0  0  0  0  0  0  0  0  0
  -27.4152  -26.9418   20.8682 N   0  0  0  0  0  0  0  0  0  0  0  0
  -29.9678  -13.6178   20.3689 N   0  0  0  0  0  0  0  0  0  0  0  0
  -25.4691  -15.0543   20.4044 N   0  0  0  0  0  0  0  0  0  0  0  0
  -21.8849  -12.5783   21.5959 N   0  0  0  0  0  0  0  0  0  0  0  0
  -30.0759  -15.6983   21.4745 N   0  0  0  0  0  0  0  0  0  0  0  0
  -27.8193  -29.7123   20.8719 N   0  0  0  0  0  0  0  0  0  0  0  0
  -24.8405  -25.3084   21.4722 N   0  0  0  0  0  0  0  0  0  0  0  0
  -25.0149  -21.9626   22.8298 N   0  3  0  0  0  0  0  0  0  0  0  0
  -32.8250  -21.5893   23.5516 O   0  0  0  0  0  0  0  0  0  0  0  0
  -22.6592  -14.7184   21.3145 O   0  0  0  0  0  0  0  0  0  0  0  0
  -30.0373  -29.0064   20.8021 O   0  0  0  0  0  0  0  0  0  0  0  0
  -25.5876  -27.7358   19.6575 O   0  0  0  0  0  0  0  0  0  0  0  0
  -24.7602  -24.6300   23.6882 O   0  0  0  0  0  0  0  0  0  0  0  0
  -31.8543  -14.9421   20.1911 O   0  0  0  0  0  0  0  0  0  0  0  0
  -21.6135   -7.0158   21.7053 O   0  0  0  0  0  0  0  0  0  0  0  0
  -31.7189  -23.9686   24.1378 O   0  0  0  0  0  0  0  0  0  1  0  0
  -16.9358   -7.5593   24.5737 F   0  0  0  0  0  0  0  0  0  0  0  0
  -21.2610   -5.6936   24.1074 F   0  0  0  0  0  0  0  0  0  0  0  0
  1  2  1  0  0  0  0
  1  5  2  0  0  0  0
  2  6  2  0  0  0  0
  3  8  2  0  0  0  0
  3 17  1  0  0  0  0
  4  9  1  0  0  0  0
  4 17  2  0  0  0  0
  5 19  1  0  0  0  0
  6 21  1  0  0  0  0
  7 10  2  0  0  0  0
  7 20  1  0  0  0  0
  8 27  1  0  0  0  0
  9 27  2  0  0  0  0
 10 28  1  0  0  0  0
 11 12  2  0  0  0  0
 11 29  1  0  0  0  0
 12 30  1  0  0  0  0
 13 22  1  0  0  0  0
 13 28  2  0  0  0  0
 14 23  1  0  0  0  0
 14 24  2  0  0  0  0
 15 25  1  0  0  0  0
 15 26  2  0  0  0  0
 16 30  2  0  0  0  0
 16 31  1  0  0  0  0
 17 32  1  0  0  0  0
 18 32  1  0  0  0  0
 18 33  2  0  0  0  0
 18 35  1  0  0  0  0
 19 21  2  0  0  0  0
 19 40  1  0  0  0  0
 20 22  2  0  0  0  0
 20 41  1  0  0  0  0
 21 52  1  0  0  0  0
 22 42  1  0  0  0  0
 23 25  2  0  0  0  0
 23 63  1  0  0  0  0
 24 26  1  0  0  0  0
 24 56  1  0  0  0  0
 25 57  1  0  0  0  0
 26 74  1  0  0  0  0
 27 84  1  0  0  0  0
 28 85  1  0  0  0  0
 29 31  2  0  0  0  0
 29 84  1  0  0  0  0
 30 86  1  0  0  0  0
 31 87  1  0  0  0  0
 32 67  2  0  0  0  0
 33 68  1  0  0  0  0
 33 72  1  0  0  0  0
 34 53  1  0  0  0  0
 34 69  1  0  0  0  0
 34 78  2  0  0  0  0
 35 73  1  0  0  0  0
 35 79  2  0  0  0  0
 36 54  1  0  0  0  0
 36 75  1  0  0  0  0
 36 80  2  0  0  0  0
 37 64  1  0  0  0  0
 37 70  1  0  0  0  0
 37 81  2  0  0  0  0
 38 65  1  0  0  0  0
 38 76  1  0  0  0  0
 38 82  2  0  0  0  0
 39 71  1  0  0  0  0
 39 74  1  0  0  0  0
 39 83  2  0  0  0  0
 40 43  1  0  0  0  0
 41 54  1  0  0  0  0
 42 70  1  0  0  0  0
 43 46  1  0  0  0  0
 44 47  1  0  0  0  0
 44 49  1  0  0  0  0
 45 48  1  0  0  0  0
 45 50  1  0  0  0  0
 46 52  1  0  0  0  0
 47 53  1  0  0  0  0
 48 55  1  0  0  0  0
 49 69  1  0  0  0  0
 50 71  1  0  0  0  0
 51 55  1  0  0  0  0
 51 71  1  0  0  0  0
 52 75  1  0  0  0  0
 53 85  1  0  0  0  0
 54 70  1  0  0  0  0
 55 68  1  0  0  0  0
 58 65  1  0  0  0  0
 59 66  1  0  0  0  0
 60 66  1  0  0  0  0
 61 66  1  0  0  0  0
 62 77  1  0  0  0  0
 63 69  1  0  0  0  0
 64 66  1  0  0  0  0
 64 76  1  0  0  0  0
 65 77  1  0  0  0  0
 67 68  1  0  0  0  0
M  CHG  1  77   1
M  ISO  4  39 100  53 101  74 100  85 101
M  END
> <Batch ID>
0045

> <Smiles>
CNC(C)C(=O)NC(C(=O)N1Cc2cc([101O:1][101CH:1]3CCCN(Cc4cc(C)c([100NH:0][100C:0](=O)N5CCCC(n6nc(-c7ccc(Oc8ccc(F)cc8F)cc7)c(C(N)=O)c6N)C5)cc4C)C3=O)ccc2CC1C(=O)NC1CCCc2ccccc21)C(C)(C)C

> <Shape>
0.249

> <Color>
0.191

> <Negative vol penalty>
0.000

$$$$

  -OEChem-04042322213D

 86 95  0     1  0  0  0  0  0999 V2000
  -18.1365  -27.3301   22.5503 C   0  0  0  0  0  0  0  0  0  0  0  0
  -18.8040  -28.2564   21.7570 C   0  0  0  0  0  0  0  0  0  0  0  0
  -24.5949  -11.9291   20.6892 C   0  0  0  0  0  0  0  0  0  0  0  0
  -25.9081  -12.9239   22.4564 C   0  0  0  0  0  0  0  0  0  0  0  0
  -18.8519  -26.5499   23.4562 C   0  0  0  0  0  0  0  0  0  0  0  0
  -20.1886  -28.3945   21.8609 C   0  0  0  0  0  0  0  0  0  0  0  0
  -28.3375  -29.6086   20.6270 C   0  0  0  0  0  0  0  0  0  0  0  0
  -24.9809  -10.6590   21.1174 C   0  0  0  0  0  0  0  0  0  0  0  0
  -26.2941  -11.6538   22.8846 C   0  0  0  0  0  0  0  0  0  0  0  0
  -29.5016  -29.0024   21.0973 C   0  0  0  0  0  0  0  0  0  0  0  0
  -24.1369   -8.4955   23.5750 C   0  0  0  0  0  0  0  0  0  0  0  0
  -23.1492   -7.5151   23.6690 C   0  0  0  0  0  0  0  0  0  0  0  0
  -28.4455  -26.8418   20.9089 C   0  0  0  0  0  0  0  0  0  0  0  0
  -30.0026  -21.6087   25.1042 C   0  0  0  0  0  0  0  0  0  0  0  0
  -28.1208  -20.3059   24.3306 C   0  0  0  0  0  0  0  0  0  0  0  0
  -29.6590  -21.2706   22.7368 C   0  0  0  0  0  0  0  0  0  0  0  0
  -24.3414   -6.1599   22.0630 C   0  0  0  0  0  0  0  0  0  0  0  0
  -25.0585  -13.0616   21.3587 C   0  0  0  0  0  0  0  0  0  0  0  0
  -23.3506  -14.8832   20.8366 C   0  0  0  0  0  0  0  0  0  0  0  0
  -20.2443  -26.6880   23.5795 C   0  0  0  0  0  0  0  0  0  0  0  0
  -27.2131  -28.8355   20.3039 C   0  0  0  0  0  0  0  0  0  0  0  0
  -20.9315  -27.5994   22.7523 C   0  0  0  0  0  0  0  0  0  0  0  0
  -27.2692  -27.4404   20.4323 C   0  0  0  0  0  0  0  0  0  0  0  0
  -28.8626  -20.8529   25.3776 C   0  0  0  0  0  0  0  0  0  0  0  0
  -30.4008  -21.8176   23.7838 C   0  0  0  0  0  0  0  0  0  0  0  0
  -28.5190  -20.5148   23.0102 C   0  0  0  0  0  0  0  0  0  0  0  0
  -25.8304  -10.5213   22.2151 C   0  0  0  0  0  0  0  0  0  0  0  0
  -29.5548  -27.6191   21.2411 C   0  0  0  0  0  0  0  0  0  0  0  0
  -25.2269   -8.3081   22.7249 C   0  0  0  0  0  0  0  0  0  0  0  0
  -23.2514   -6.3473   22.9130 C   0  0  0  0  0  0  0  0  0  0  0  0
  -25.3291   -7.1404   21.9689 C   0  0  0  0  0  0  0  0  0  0  0  0
  -24.6606  -14.3740   20.9165 C   0  0  0  0  0  0  0  0  0  0  0  0
  -23.5079  -16.1626   20.3625 C   0  0  0  0  0  0  0  0  0  0  0  0
  -30.9025  -24.8106   22.5978 C   0  0  0  0  0  0  0  0  0  0  0  0
  -22.1031  -14.2558   21.1620 C   0  0  0  0  0  0  0  0  0  0  0  0
  -24.2287  -28.6565   21.3833 C   0  0  0  0  0  0  0  0  0  0  0  0
  -23.8670  -26.6022   18.8990 C   0  0  0  0  0  0  0  0  0  0  0  0
  -25.7703  -23.9346   17.3894 C   0  0  0  0  0  0  0  0  0  0  0  0
  -28.0227  -20.0707   20.5806 C   0  0  0  0  0  0  0  0  0  0  0  0
  -20.9699  -25.8126   24.5706 C   0  0  0  0  0  0  0  0  0  0  0  0
  -25.9740  -29.5023   19.7725 C   0  0  0  0  0  0  0  0  0  0  0  0
  -26.0963  -26.5637   20.0798 C   0  0  0  0  0  0  0  0  0  0  0  0
  -22.3573  -26.3385   24.9242 C   0  0  0  0  0  0  0  0  0  0  0  0
  -31.4476  -26.0489   25.1972 C   0  0  0  0  0  0  0  0  0  0  0  0
  -26.4291  -18.8194   17.6528 C   0  0  0  0  0  0  0  0  0  0  0  0
  -23.1274  -26.6680   23.6542 C   0  0  0  0  0  0  0  0  0  0  0  0
  -31.4951  -26.8892   23.9382 C   0  0  0  0  0  0  0  0  0  0  0  0
  -25.6706  -17.5873   18.1514 C   0  0  0  0  0  0  0  0  0  0  0  0
  -31.9368  -24.6444   24.8922 C   0  0  0  0  0  0  0  0  0  0  0  0
  -27.7731  -18.9828   18.3604 C   0  0  0  0  0  0  0  0  0  0  0  0
  -26.9483  -17.7477   20.3260 C   0  0  0  0  0  0  0  0  0  0  0  0
  -22.4331  -27.7886   22.8697 C   0  0  1  0  0  0  0  0  0  0  0  0
  -30.5842  -26.2702   22.8964 C   0  0  1  0  0  0  0  0  0  1  0  0
  -24.7151  -28.6616   19.9616 C   0  0  1  0  0  0  0  0  0  0  0  0
  -25.5596  -17.5777   19.6887 C   0  0  2  0  0  0  0  0  0  0  0  0
  -28.4368  -20.6298   26.7894 C   0  0  0  0  0  0  0  0  0  0  0  0
  -25.7722  -23.0605   15.0371 C   0  0  0  0  0  0  0  0  0  0  0  0
  -21.8313  -24.5887   19.9535 C   0  0  0  0  0  0  0  0  0  0  0  0
  -22.9077  -22.8495   18.5095 C   0  0  0  0  0  0  0  0  0  0  0  0
  -21.8466  -24.8517   17.4665 C   0  0  0  0  0  0  0  0  0  0  0  0
  -28.6905  -24.3330   17.1204 C   0  0  0  0  0  0  0  0  0  0  0  0
  -31.6280  -22.6311   23.4897 C   0  0  0  0  0  0  0  0  0  0  0  0
  -24.0323  -25.1136   18.7100 C   0  0  1  0  0  0  0  0  0  0  0  0
  -26.4679  -23.9660   16.0415 C   0  0  2  0  0  0  0  0  0  0  0  0
  -22.6698  -24.3652   18.6791 C   0  0  0  0  0  0  0  0  0  0  0  0
  -25.5821  -15.2577   20.5244 N   0  0  0  0  0  0  0  0  0  0  0  0
  -24.8502  -16.3351   20.1935 N   0  0  0  0  0  0  0  0  0  0  0  0
  -31.3918  -24.0576   23.6668 N   0  0  0  0  0  0  0  0  0  0  0  0
  -24.9052  -27.2633   19.5704 N   0  0  0  0  0  0  0  0  0  0  0  0
  -27.5892  -18.9689   19.8133 N   0  0  0  0  0  0  0  0  0  0  0  0
  -22.6275  -17.1456   20.0777 N   0  0  0  0  0  0  0  0  0  0  0  0
  -22.1221  -12.9371   21.6364 N   0  0  0  0  0  0  0  0  0  0  0  0
  -27.7655  -19.9590   21.9466 N   0  0  0  0  0  0  0  0  0  0  0  0
  -23.0715  -27.9270   21.5793 N   0  0  0  0  0  0  0  0  0  0  0  0
  -24.8358  -24.9419   17.5044 N   0  0  0  0  0  0  0  0  0  0  0  0
  -27.8818  -23.5159   16.1795 N   0  3  0  0  0  0  0  0  0  0  0  0
  -30.6631  -24.3456   21.4804 O   0  0  0  0  0  0  0  0  0  0  0  0
  -21.0029  -14.8414   21.0202 O   0  0  0  0  0  0  0  0  0  0  0  0
  -24.8575  -29.2678   22.2392 O   0  0  0  0  0  0  0  0  0  0  0  0
  -22.8573  -27.1590   18.4607 O   0  0  0  0  0  0  0  0  0  0  0  0
  -26.0259  -23.0977   18.2524 O   0  0  0  0  0  0  0  0  0  0  0  0
  -28.5564  -21.0539   20.0605 O   0  0  0  0  0  0  0  0  0  0  0  0
  -26.2071   -9.2820   22.6333 O   0  0  0  0  0  0  0  0  0  0  0  0
  -30.6896  -27.0249   21.7005 O   0  0  0  0  0  0  0  0  0  1  0  0
  -22.3036   -5.4053   23.0046 F   0  0  0  0  0  0  0  0  0  0  0  0
  -26.3745   -6.9542   21.1514 F   0  0  0  0  0  0  0  0  0  0  0  0
  1  2  1  0  0  0  0
  1  5  2  0  0  0  0
  2  6  2  0  0  0  0
  3  8  2  0  0  0  0
  3 18  1  0  0  0  0
  4  9  1  0  0  0  0
  4 18  2  0  0  0  0
  5 20  1  0  0  0  0
  6 22  1  0  0  0  0
  7 10  2  0  0  0  0
  7 21  1  0  0  0  0
  8 27  1  0  0  0  0
  9 27  2  0  0  0  0
 10 28  1  0  0  0  0
 11 12  2  0  0  0  0
 11 29  1  0  0  0  0
 12 30  1  0  0  0  0
 13 23  1  0  0  0  0
 13 28  2  0  0  0  0
 14 24  2  0  0  0  0
 14 25  1  0  0  0  0
 15 24  1  0  0  0  0
 15 26  2  0  0  0  0
 16 25  2  0  0  0  0
 16 26  1  0  0  0  0
 17 30  2  0  0  0  0
 17 31  1  0  0  0  0
 18 32  1  0  0  0  0
 19 32  1  0  0  0  0
 19 33  2  0  0  0  0
 19 35  1  0  0  0  0
 20 22  2  0  0  0  0
 20 40  1  0  0  0  0
 21 23  2  0  0  0  0
 21 41  1  0  0  0  0
 22 52  1  0  0  0  0
 23 42  1  0  0  0  0
 24 56  1  0  0  0  0
 25 62  1  0  0  0  0
 26 73  1  0  0  0  0
 27 83  1  0  0  0  0
 28 84  1  0  0  0  0
 29 31  2  0  0  0  0
 29 83  1  0  0  0  0
 30 85  1  0  0  0  0
 31 86  1  0  0  0  0
 32 66  2  0  0  0  0
 33 67  1  0  0  0  0
 33 71  1  0  0  0  0
 34 53  1  0  0  0  0
 34 68  1  0  0  0  0
 34 77  2  0  0  0  0
 35 72  1  0  0  0  0
 35 78  2  0  0  0  0
 36 54  1  0  0  0  0
 36 74  1  0  0  0  0
 36 79  2  0  0  0  0
 37 63  1  0  0  0  0
 37 69  1  0  0  0  0
 37 80  2  0  0  0  0
 38 64  1  0  0  0  0
 38 75  1  0  0  0  0
 38 81  2  0  0  0  0
 39 70  1  0  0  0  0
 39 73  1  0  0  0  0
 39 82  2  0  0  0  0
 40 43  1  0  0  0  0
 41 54  1  0  0  0  0
 42 69  1  0  0  0  0
 43 46  1  0  0  0  0
 44 47  1  0  0  0  0
 44 49  1  0  0  0  0
 45 48  1  0  0  0  0
 45 50  1  0  0  0  0
 46 52  1  0  0  0  0
 47 53  1  0  0  0  0
 48 55  1  0  0  0  0
 49 68  1  0  0  0  0
 50 70  1  0  0  0  0
 51 55  1  0  0  0  0
 51 70  1  0  0  0  0
 52 74  1  0  0  0  0
 53 84  1  0  0  0  0
 54 69  1  0  0  0  0
 55 67  1  0  0  0  0
 57 64  1  0  0  0  0
 58 65  1  0  0  0  0
 59 65  1  0  0  0  0
 60 65  1  0  0  0  0
 61 76  1  0  0  0  0
 62 68  1  0  0  0  0
 63 65  1  0  0  0  0
 63 75  1  0  0  0  0
 64 76  1  0  0  0  0
 66 67  1  0  0  0  0
M  CHG  1  76   1
M  ISO  4  39 100  53 101  73 100  84 101
M  END
> <Batch ID>
0045

> <Smiles>
CNC(C)C(=O)NC(C(=O)N1Cc2cc([101O:1][101CH:1]3CCCN(Cc4cc(C)cc([100NH:0][100C:0](=O)N5CCCC(n6nc(-c7ccc(Oc8ccc(F)cc8F)cc7)c(C(N)=O)c6N)C5)c4)C3=O)ccc2CC1C(=O)NC1CCCc2ccccc21)C(C)(C)C

> <Shape>
0.210

> <Color>
0.084

> <Negative vol penalty>
0.000

$$$$

  -OEChem-04042322213D

 85 93  0     1  0  0  0  0  0999 V2000
  -31.2160  -22.8642   24.8867 C   0  0  0  0  0  0  0  0  0  0  0  0
  -30.5326  -23.5278   23.8728 C   0  0  0  0  0  0  0  0  0  0  0  0
  -25.2313  -13.3278   22.1049 C   0  0  0  0  0  0  0  0  0  0  0  0
  -26.7667  -13.2178   20.2428 C   0  0  0  0  0  0  0  0  0  0  0  0
  -27.8077  -24.1150   16.2375 C   0  0  0  0  0  0  0  0  0  0  0  0
  -30.6443  -22.7518   26.1533 C   0  0  0  0  0  0  0  0  0  0  0  0
  -29.2765  -24.0785   24.1247 C   0  0  0  0  0  0  0  0  0  0  0  0
  -28.7873  -28.7489   22.2293 C   0  0  0  0  0  0  0  0  0  0  0  0
  -24.3887  -12.4197   21.4638 C   0  0  0  0  0  0  0  0  0  0  0  0
  -25.9241  -12.3097   19.6017 C   0  0  0  0  0  0  0  0  0  0  0  0
  -28.5527  -28.8588   20.8594 C   0  0  0  0  0  0  0  0  0  0  0  0
  -24.2468   -9.0788   20.9628 C   0  0  0  0  0  0  0  0  0  0  0  0
  -28.7799  -23.1148   16.2279 C   0  0  0  0  0  0  0  0  0  0  0  0
  -23.7219   -8.0336   21.7228 C   0  0  0  0  0  0  0  0  0  0  0  0
  -26.2029  -29.1887   21.2944 C   0  0  0  0  0  0  0  0  0  0  0  0
  -21.4842   -8.8061   21.2396 C   0  0  0  0  0  0  0  0  0  0  0  0
  -26.4203  -13.7269   21.4944 C   0  0  0  0  0  0  0  0  0  0  0  0
  -27.4746  -24.7525   17.4327 C   0  0  0  0  0  0  0  0  0  0  0  0
  -28.3442  -14.3690   23.0416 C   0  0  0  0  0  0  0  0  0  0  0  0
  -29.3849  -23.3098   26.4236 C   0  0  0  0  0  0  0  0  0  0  0  0
  -27.7281  -28.8474   23.1430 C   0  0  0  0  0  0  0  0  0  0  0  0
  -28.6869  -23.9723   25.3959 C   0  0  0  0  0  0  0  0  0  0  0  0
  -26.4272  -29.0823   22.6756 C   0  0  0  0  0  0  0  0  0  0  0  0
  -28.1137  -24.3897   18.6183 C   0  0  0  0  0  0  0  0  0  0  0  0
  -29.0858  -23.3894   18.6087 C   0  0  0  0  0  0  0  0  0  0  0  0
  -24.7351  -11.9107   20.2122 C   0  0  0  0  0  0  0  0  0  0  0  0
  -27.2599  -29.0758   20.3916 C   0  0  0  0  0  0  0  0  0  0  0  0
  -23.3905   -9.9877   20.3413 C   0  0  0  0  0  0  0  0  0  0  0  0
  -22.3406   -7.8973   21.8612 C   0  0  0  0  0  0  0  0  0  0  0  0
  -29.4189  -22.7520   17.4135 C   0  0  0  0  0  0  0  0  0  0  0  0
  -22.0092   -9.8514   20.4796 C   0  0  0  0  0  0  0  0  0  0  0  0
  -27.2909  -14.6653   22.1558 C   0  0  0  0  0  0  0  0  0  0  0  0
  -28.8554  -15.5954   23.3896 C   0  0  0  0  0  0  0  0  0  0  0  0
  -26.4424  -25.8083   17.4181 C   0  0  0  0  0  0  0  0  0  0  0  0
  -28.8182  -13.0988   23.5080 C   0  0  0  0  0  0  0  0  0  0  0  0
  -26.4334  -26.8988   25.2948 C   0  0  0  0  0  0  0  0  0  0  0  0
  -24.6925  -29.5282   26.0550 C   0  0  0  0  0  0  0  0  0  0  0  0
  -23.4139  -32.5381   25.0789 C   0  0  0  0  0  0  0  0  0  0  0  0
  -28.8750  -20.7890   20.5821 C   0  0  0  0  0  0  0  0  0  0  0  0
  -28.7868  -23.1217   27.7953 C   0  0  0  0  0  0  0  0  0  0  0  0
  -28.0018  -28.7534   24.6191 C   0  0  0  0  0  0  0  0  0  0  0  0
  -25.2585  -29.2158   23.6163 C   0  0  0  0  0  0  0  0  0  0  0  0
  -27.6163  -24.0583   28.0831 C   0  0  0  0  0  0  0  0  0  0  0  0
  -27.5735  -20.1780   23.9033 C   0  0  0  0  0  0  0  0  0  0  0  0
  -26.6479  -24.0802   26.9047 C   0  0  0  0  0  0  0  0  0  0  0  0
  -27.4557  -18.6528   23.9080 C   0  0  0  0  0  0  0  0  0  0  0  0
  -27.2121  -20.7561   22.5382 C   0  0  0  0  0  0  0  0  0  0  0  0
  -27.8839  -18.6724   21.4067 C   0  0  0  0  0  0  0  0  0  0  0  0
  -27.3333  -24.6045   25.6371 C   0  0  1  0  0  0  0  0  0  0  0  0
  -26.7725  -28.3563   25.4306 C   0  0  1  0  0  0  0  0  0  0  0  0
  -28.2580  -18.0253   22.7526 C   0  0  2  0  0  0  0  0  0  0  0  0
  -27.7578  -25.0741   19.9001 C   0  0  0  0  0  0  0  0  0  0  0  0
  -22.0004  -34.4394   25.9061 C   0  0  0  0  0  0  0  0  0  0  0  0
  -22.1891  -27.8221   25.6916 C   0  0  0  0  0  0  0  0  0  0  0  0
  -20.8493  -29.9345   25.5867 C   0  0  0  0  0  0  0  0  0  0  0  0
  -22.1218  -29.3681   27.6562 C   0  0  0  0  0  0  0  0  0  0  0  0
  -25.6224  -34.4791   24.7417 C   0  0  0  0  0  0  0  0  0  0  0  0
  -29.7831  -22.9844   19.8662 C   0  0  0  0  0  0  0  0  0  0  0  0
  -25.9001  -28.2050   17.1765 C   0  0  0  0  0  0  0  0  0  0  0  0
  -25.7521  -28.7545   18.5808 C   0  0  0  0  0  0  0  0  0  1  0  0
  -23.3791  -30.1113   25.5925 C   0  0  1  0  0  0  0  0  0  0  0  0
  -23.4134  -33.8985   25.7525 C   0  0  2  0  0  0  0  0  0  0  0  0
  -22.1563  -29.3046   26.1137 C   0  0  0  0  0  0  0  0  0  0  0  0
  -27.1406  -15.9770   21.9538 N   0  0  0  0  0  0  0  0  0  0  0  0
  -28.1062  -16.5159   22.7176 N   0  0  0  0  0  0  0  0  0  0  0  0
  -25.5762  -29.1102   25.0499 N   0  0  0  0  0  0  0  0  0  0  0  0
  -28.0241  -20.1302   21.4851 N   0  0  0  0  0  0  0  0  0  0  0  0
  -29.8682  -15.9655   24.2018 N   0  0  0  0  0  0  0  0  0  0  0  0
  -25.1734  -25.4488   17.6119 N   0  0  0  0  0  0  0  0  0  0  0  0
  -28.1793  -11.9383   23.0507 N   0  0  0  0  0  0  0  0  0  0  0  0
  -27.4487  -26.0463   25.6844 N   0  0  0  0  0  0  0  0  0  0  0  0
  -23.3883  -31.5121   25.9998 N   0  0  0  0  0  0  0  0  0  0  0  0
  -28.9459  -22.1699   20.7187 N   0  0  0  0  0  0  0  0  0  0  0  0
  -26.8288  -27.0725   17.2092 N   0  3  0  0  0  0  0  0  0  0  0  0
  -24.2055  -34.8737   24.9510 N   0  3  0  0  0  0  0  0  0  0  0  0
  -29.7694  -12.9968   24.3194 O   0  0  0  0  0  0  0  0  0  0  0  0
  -25.3316  -26.5719   24.8696 O   0  0  0  0  0  0  0  0  0  0  0  0
  -24.9288  -29.4533   27.2634 O   0  0  0  0  0  0  0  0  0  0  0  0
  -23.4312  -32.3994   23.8578 O   0  0  0  0  0  0  0  0  0  0  0  0
  -29.5279  -20.1900   19.7207 O   0  0  0  0  0  0  0  0  0  0  0  0
  -23.9132  -11.0244   19.5864 O   0  0  0  0  0  0  0  0  0  0  0  0
  -27.0280  -29.1828   19.0550 O   0  0  0  0  0  0  0  0  0  1  0  0
  -21.8366   -6.8926   22.5898 F   0  0  0  0  0  0  0  0  0  0  0  0
  -30.3522  -21.7900   17.3931 F   0  0  0  0  0  0  0  0  0  0  0  0
  -21.1815  -10.7207   19.8839 F   0  0  0  0  0  0  0  0  0  0  0  0
  1  2  1  0  0  0  0
  1  6  2  0  0  0  0
  2  7  2  0  0  0  0
  3  9  2  0  0  0  0
  3 17  1  0  0  0  0
  4 10  1  0  0  0  0
  4 17  2  0  0  0  0
  5 13  2  0  0  0  0
  5 18  1  0  0  0  0
  6 20  1  0  0  0  0
  7 22  1  0  0  0  0
  8 11  2  0  0  0  0
  8 21  1  0  0  0  0
  9 26  1  0  0  0  0
 10 26  2  0  0  0  0
 11 27  1  0  0  0  0
 12 14  2  0  0  0  0
 12 28  1  0  0  0  0
 13 30  1  0  0  0  0
 14 29  1  0  0  0  0
 15 23  1  0  0  0  0
 15 27  2  0  0  0  0
 16 29  2  0  0  0  0
 16 31  1  0  0  0  0
 17 32  1  0  0  0  0
 18 24  2  0  0  0  0
 18 34  1  0  0  0  0
 19 32  1  0  0  0  0
 19 33  2  0  0  0  0
 19 35  1  0  0  0  0
 20 22  2  0  0  0  0
 20 40  1  0  0  0  0
 21 23  2  0  0  0  0
 21 41  1  0  0  0  0
 22 49  1  0  0  0  0
 23 42  1  0  0  0  0
 24 25  1  0  0  0  0
 24 52  1  0  0  0  0
 25 30  2  0  0  0  0
 25 58  1  0  0  0  0
 26 81  1  0  0  0  0
 27 82  1  0  0  0  0
 28 31  2  0  0  0  0
 28 81  1  0  0  0  0
 29 83  1  0  0  0  0
 30 84  1  0  0  0  0
 31 85  1  0  0  0  0
 32 64  2  0  0  0  0
 33 65  1  0  0  0  0
 33 68  1  0  0  0  0
 34 69  1  0  0  0  0
 34 74  2  0  0  0  0
 35 70  1  0  0  0  0
 35 76  2  0  0  0  0
 36 50  1  0  0  0  0
 36 71  1  0  0  0  0
 36 77  2  0  0  0  0
 37 61  1  0  0  0  0
 37 66  1  0  0  0  0
 37 78  2  0  0  0  0
 38 62  1  0  0  0  0
 38 72  1  0  0  0  0
 38 79  2  0  0  0  0
 39 67  1  0  0  0  0
 39 73  1  0  0  0  0
 39 80  2  0  0  0  0
 40 43  1  0  0  0  0
 41 50  1  0  0  0  0
 42 66  1  0  0  0  0
 43 45  1  0  0  0  0
 44 46  1  0  0  0  0
 44 47  1  0  0  0  0
 45 49  1  0  0  0  0
 46 51  1  0  0  0  0
 47 67  1  0  0  0  0
 48 51  1  0  0  0  0
 48 67  1  0  0  0  0
 49 71  1  0  0  0  0
 50 66  1  0  0  0  0
 51 65  1  0  0  0  0
 53 62  1  0  0  0  0
 54 63  1  0  0  0  0
 55 63  1  0  0  0  0
 56 63  1  0  0  0  0
 57 75  1  0  0  0  0
 58 73  1  0  0  0  0
 59 60  1  0  0  0  0
 59 74  1  0  0  0  0
 60 82  1  0  0  0  0
 61 63  1  0  0  0  0
 61 72  1  0  0  0  0
 62 75  1  0  0  0  0
 64 65  1  0  0  0  0
M  CHG  2  74   1  75   1
M  ISO  4  39 100  60 101  73 100  82 101
M  END
> <Batch ID>
0045

> <Smiles>
CNC(C)C(=O)NC(C(=O)N1Cc2cc([101O:1][101CH2:1]CNC(=N)c3ccc(F)c(C[100NH:0][100C:0](=O)N4CCCC(n5nc(-c6ccc(Oc7ccc(F)cc7F)cc6)c(C(N)=O)c5N)C4)c3C)ccc2CC1C(=O)NC1CCCc2ccccc21)C(C)(C)C

> <Shape>
0.190

> <Color>
0.066

> <Negative vol penalty>
0.000

$$$$

  -OEChem-04042322213D

 86 94  0     1  0  0  0  0  0999 V2000
  -28.6103  -26.0629   15.7630 C   0  0  0  0  0  0  0  0  0  0  0  0
  -27.5666  -25.9125   16.6704 C   0  0  0  0  0  0  0  0  0  0  0  0
  -26.1371  -13.3854   19.7603 C   0  0  0  0  0  0  0  0  0  0  0  0
  -24.9011  -13.2954   21.8342 C   0  0  0  0  0  0  0  0  0  0  0  0
  -29.7139  -26.8474   16.0954 C   0  0  0  0  0  0  0  0  0  0  0  0
  -27.6264  -26.5457   17.9113 C   0  0  0  0  0  0  0  0  0  0  0  0
  -23.2599  -28.7849   19.1622 C   0  0  0  0  0  0  0  0  0  0  0  0
  -26.0421  -11.9988   19.6434 C   0  0  0  0  0  0  0  0  0  0  0  0
  -24.8060  -11.9087   21.7173 C   0  0  0  0  0  0  0  0  0  0  0  0
  -22.2374  -27.9652   19.6378 C   0  0  0  0  0  0  0  0  0  0  0  0
  -22.9442   -9.6780   19.9917 C   0  0  0  0  0  0  0  0  0  0  0  0
  -21.7043   -9.0913   20.2445 C   0  0  0  0  0  0  0  0  0  0  0  0
  -24.2933  -23.9076   27.0758 C   0  0  0  0  0  0  0  0  0  0  0  0
  -22.7852  -28.6038   21.8986 C   0  0  0  0  0  0  0  0  0  0  0  0
  -26.3264  -22.7548   26.4636 C   0  0  0  0  0  0  0  0  0  0  0  0
  -22.6822   -7.7955   22.0339 C   0  0  0  0  0  0  0  0  0  0  0  0
  -25.5667  -14.0338   20.8557 C   0  0  0  0  0  0  0  0  0  0  0  0
  -23.6362  -23.3239   25.9928 C   0  0  0  0  0  0  0  0  0  0  0  0
  -24.7621  -16.4254   20.4810 C   0  0  0  0  0  0  0  0  0  0  0  0
  -29.7828  -27.4984   17.3372 C   0  0  0  0  0  0  0  0  0  0  0  0
  -24.0612  -29.5130   20.0534 C   0  0  0  0  0  0  0  0  0  0  0  0
  -28.7326  -27.3386   18.2612 C   0  0  0  0  0  0  0  0  0  0  0  0
  -23.8156  -29.4340   21.4316 C   0  0  0  0  0  0  0  0  0  0  0  0
  -24.3241  -22.4556   25.1451 C   0  0  0  0  0  0  0  0  0  0  0  0
  -25.6692  -22.1711   25.3805 C   0  0  0  0  0  0  0  0  0  0  0  0
  -25.3765  -11.2604   20.6219 C   0  0  0  0  0  0  0  0  0  0  0  0
  -22.0017  -27.8723   21.0064 C   0  0  0  0  0  0  0  0  0  0  0  0
  -24.0532   -9.3234   20.7599 C   0  0  0  0  0  0  0  0  0  0  0  0
  -21.5732   -8.1501   21.2656 C   0  0  0  0  0  0  0  0  0  0  0  0
  -23.9222   -8.3822   21.7810 C   0  0  0  0  0  0  0  0  0  0  0  0
  -25.6385  -23.6231   27.3112 C   0  0  0  0  0  0  0  0  0  0  0  0
  -25.6650  -15.4662   20.9773 C   0  0  0  0  0  0  0  0  0  0  0  0
  -25.3018  -17.6314   20.8560 C   0  0  0  0  0  0  0  0  0  0  0  0
  -22.2121  -23.6402   25.7636 C   0  0  0  0  0  0  0  0  0  0  0  0
  -23.5442  -16.2426   19.7467 C   0  0  0  0  0  0  0  0  0  0  0  0
  -27.1583  -29.5506   20.7676 C   0  0  0  0  0  0  0  0  0  0  0  0
  -26.3076  -32.0919   22.5951 C   0  0  0  0  0  0  0  0  0  0  0  0
  -23.8563  -33.7407   24.3037 C   0  0  0  0  0  0  0  0  0  0  0  0
  -27.7254  -20.9165   24.6425 C   0  0  0  0  0  0  0  0  0  0  0  0
  -31.0177  -28.2976   17.6703 C   0  0  0  0  0  0  0  0  0  0  0  0
  -25.1429  -30.4135   19.5228 C   0  0  0  0  0  0  0  0  0  0  0  0
  -24.6344  -30.2110   22.4288 C   0  0  0  0  0  0  0  0  0  0  0  0
  -30.8323  -29.2384   18.8581 C   0  0  0  0  0  0  0  0  0  0  0  0
  -29.8487  -18.7499   22.7787 C   0  0  0  0  0  0  0  0  0  0  0  0
  -30.1474  -28.5129   20.0119 C   0  0  0  0  0  0  0  0  0  0  0  0
  -28.8753  -17.7813   22.1030 C   0  0  0  0  0  0  0  0  0  0  0  0
  -29.3883  -19.1274   24.1855 C   0  0  0  0  0  0  0  0  0  0  0  0
  -27.0404  -18.6684   23.5974 C   0  0  0  0  0  0  0  0  0  0  0  0
  -28.7494  -28.0296   19.6075 C   0  0  1  0  0  0  0  0  0  0  0  0
  -26.2298  -30.7118   20.5510 C   0  0  1  0  0  0  0  0  0  0  0  0
  -27.4283  -18.3099   22.1536 C   0  0  2  0  0  0  0  0  0  0  0  0
  -23.6153  -21.8312   23.9839 C   0  0  0  0  0  0  0  0  0  0  0  0
  -23.4723  -35.7699   25.7293 C   0  0  0  0  0  0  0  0  0  0  0  0
  -20.9198  -24.1688   21.8023 C   0  0  0  0  0  0  0  0  0  0  0  0
  -27.6492  -30.6890   24.9493 C   0  0  0  0  0  0  0  0  0  0  0  0
  -26.4349  -32.2518   26.4827 C   0  0  0  0  0  0  0  0  0  0  0  0
  -28.0683  -33.1515   24.8258 C   0  0  0  0  0  0  0  0  0  0  0  0
  -21.9072  -34.8652   22.3814 C   0  0  0  0  0  0  0  0  0  0  0  0
  -20.4887  -24.5744   24.2623 C   0  0  0  0  0  0  0  0  0  0  0  0
  -21.1873  -26.4939   22.7649 C   0  0  0  0  0  0  0  0  0  1  0  0
  -25.8382  -32.2761   24.0180 C   0  0  1  0  0  0  0  0  0  0  0  0
  -23.4475  -35.2026   24.3185 C   0  0  2  0  0  0  0  0  0  0  0  0
  -20.4236  -25.1675   22.8530 C   0  0  1  0  0  0  0  0  0  0  0  0
  -26.9833  -32.0758   25.0505 C   0  0  0  0  0  0  0  0  0  0  0  0
  -26.7000  -16.0154   21.6185 N   0  0  0  0  0  0  0  0  0  0  0  0
  -26.4507  -17.3329   21.5277 N   0  0  0  0  0  0  0  0  0  0  0  0
  -25.6845  -31.0727   21.8612 N   0  0  0  0  0  0  0  0  0  0  0  0
  -28.0107  -19.6236   24.1549 N   0  0  0  0  0  0  0  0  0  0  0  0
  -24.9011  -18.9075   20.6734 N   0  0  0  0  0  0  0  0  0  0  0  0
  -21.3392  -23.3391   26.7250 N   0  0  0  0  0  0  0  0  0  0  0  0
  -23.1353  -14.9364   19.4454 N   0  0  0  0  0  0  0  0  0  0  0  0
  -26.3869  -21.2920   24.5320 N   0  0  0  0  0  0  0  0  0  0  0  0
  -27.8098  -29.1301   19.6238 N   0  0  0  0  0  0  0  0  0  0  0  0
  -25.2074  -33.5905   24.0728 N   0  0  0  0  0  0  0  0  0  0  0  0
  -21.8656  -24.2109   24.6032 N   0  3  0  0  0  0  0  0  0  0  0  0
  -22.0699  -35.3608   23.7724 N   0  3  0  0  0  0  0  0  0  0  0  0
  -22.8480  -17.2097   19.3547 O   0  0  0  0  0  0  0  0  0  0  0  0
  -27.2762  -29.0724   21.8897 O   0  0  0  0  0  0  0  0  0  0  0  0
  -27.1896  -32.8300   22.1490 O   0  0  0  0  0  0  0  0  0  0  0  0
  -23.0577  -32.8239   24.4830 O   0  0  0  0  0  0  0  0  0  0  0  0
  -28.6084  -21.6479   25.0977 O   0  0  0  0  0  0  0  0  0  0  0  0
  -25.2834   -9.9073   20.5081 O   0  0  0  0  0  0  0  0  0  0  0  0
  -21.0047  -27.0725   21.4733 O   0  0  0  0  0  0  0  0  0  1  0  0
  -20.3821   -7.5880   21.5093 F   0  0  0  0  0  0  0  0  0  0  0  0
  -24.9837   -8.0384   22.5231 F   0  0  0  0  0  0  0  0  0  0  0  0
  -26.4492  -24.3434   28.6476 Cl  0  0  0  0  0  0  0  0  0  0  0  0
  1  2  1  0  0  0  0
  1  5  2  0  0  0  0
  2  6  2  0  0  0  0
  3  8  2  0  0  0  0
  3 17  1  0  0  0  0
  4  9  1  0  0  0  0
  4 17  2  0  0  0  0
  5 20  1  0  0  0  0
  6 22  1  0  0  0  0
  7 10  2  0  0  0  0
  7 21  1  0  0  0  0
  8 26  1  0  0  0  0
  9 26  2  0  0  0  0
 10 27  1  0  0  0  0
 11 12  2  0  0  0  0
 11 28  1  0  0  0  0
 12 29  1  0  0  0  0
 13 18  1  0  0  0  0
 13 31  2  0  0  0  0
 14 23  1  0  0  0  0
 14 27  2  0  0  0  0
 15 25  2  0  0  0  0
 15 31  1  0  0  0  0
 16 29  2  0  0  0  0
 16 30  1  0  0  0  0
 17 32  1  0  0  0  0
 18 24  2  0  0  0  0
 18 34  1  0  0  0  0
 19 32  1  0  0  0  0
 19 33  2  0  0  0  0
 19 35  1  0  0  0  0
 20 22  2  0  0  0  0
 20 40  1  0  0  0  0
 21 23  2  0  0  0  0
 21 41  1  0  0  0  0
 22 49  1  0  0  0  0
 23 42  1  0  0  0  0
 24 25  1  0  0  0  0
 24 52  1  0  0  0  0
 25 72  1  0  0  0  0
 26 82  1  0  0  0  0
 27 83  1  0  0  0  0
 28 30  2  0  0  0  0
 28 82  1  0  0  0  0
 29 84  1  0  0  0  0
 30 85  1  0  0  0  0
 31 86  1  0  0  0  0
 32 65  2  0  0  0  0
 33 66  1  0  0  0  0
 33 69  1  0  0  0  0
 34 70  1  0  0  0  0
 34 75  2  0  0  0  0
 35 71  1  0  0  0  0
 35 77  2  0  0  0  0
 36 50  1  0  0  0  0
 36 73  1  0  0  0  0
 36 78  2  0  0  0  0
 37 61  1  0  0  0  0
 37 67  1  0  0  0  0
 37 79  2  0  0  0  0
 38 62  1  0  0  0  0
 38 74  1  0  0  0  0
 38 80  2  0  0  0  0
 39 68  1  0  0  0  0
 39 72  1  0  0  0  0
 39 81  2  0  0  0  0
 40 43  1  0  0  0  0
 41 50  1  0  0  0  0
 42 67  1  0  0  0  0
 43 45  1  0  0  0  0
 44 46  1  0  0  0  0
 44 47  1  0  0  0  0
 45 49  1  0  0  0  0
 46 51  1  0  0  0  0
 47 68  1  0  0  0  0
 48 51  1  0  0  0  0
 48 68  1  0  0  0  0
 49 73  1  0  0  0  0
 50 67  1  0  0  0  0
 51 66  1  0  0  0  0
 53 62  1  0  0  0  0
 54 63  1  0  0  0  0
 55 64  1  0  0  0  0
 56 64  1  0  0  0  0
 57 64  1  0  0  0  0
 58 76  1  0  0  0  0
 59 63  1  0  0  0  0
 59 75  1  0  0  0  0
 60 63  1  0  0  0  0
 60 83  1  0  0  0  0
 61 64  1  0  0  0  0
 61 74  1  0  0  0  0
 62 76  1  0  0  0  0
 65 66  1  0  0  0  0
M  CHG  2  75   1  76   1
M  ISO  4  39 100  60 101  72 100  83 101
M  END
> <Batch ID>
0045

> <Smiles>
CNC(C)C(=O)NC(C(=O)N1Cc2cc([101O:1][101CH2:1]C(C)CNC(=N)c3cc(Cl)cc([100NH:0][100C:0](=O)N4CCCC(n5nc(-c6ccc(Oc7ccc(F)cc7F)cc6)c(C(N)=O)c5N)C4)c3C)ccc2CC1C(=O)NC1CCCc2ccccc21)C(C)(C)C

> <Shape>
0.235

> <Color>
0.077

> <Negative vol penalty>
0.000

$$$$

  -OEChem-04042322213D

 86 94  0     1  0  0  0  0  0999 V2000
  -26.6704  -37.3067   23.5371 C   0  0  0  0  0  0  0  0  0  0  0  0
  -27.3425  -36.1985   23.0315 C   0  0  0  0  0  0  0  0  0  0  0  0
  -26.7551  -12.9031   20.7664 C   0  0  0  0  0  0  0  0  0  0  0  0
  -25.6344  -14.0632   18.9678 C   0  0  0  0  0  0  0  0  0  0  0  0
  -25.5221  -37.1321   24.3083 C   0  0  0  0  0  0  0  0  0  0  0  0
  -26.8673  -34.9149   23.2979 C   0  0  0  0  0  0  0  0  0  0  0  0
  -27.0962  -30.0580   19.5745 C   0  0  0  0  0  0  0  0  0  0  0  0
  -26.1338  -22.9141   17.6063 C   0  0  0  0  0  0  0  0  0  0  0  0
  -26.0094  -11.7568   20.4918 C   0  0  0  0  0  0  0  0  0  0  0  0
  -24.8887  -12.9169   18.6931 C   0  0  0  0  0  0  0  0  0  0  0  0
  -27.9689  -28.9733   19.5004 C   0  0  0  0  0  0  0  0  0  0  0  0
  -22.8876  -10.6120   21.0987 C   0  0  0  0  0  0  0  0  0  0  0  0
  -22.3289   -9.9290   22.1789 C   0  0  0  0  0  0  0  0  0  0  0  0
  -25.0408  -22.9881   16.7430 C   0  0  0  0  0  0  0  0  0  0  0  0
  -26.4379  -27.6591   20.8226 C   0  0  0  0  0  0  0  0  0  0  0  0
  -23.5422  -22.6962   18.6154 C   0  0  0  0  0  0  0  0  0  0  0  0
  -23.5829   -7.9531   21.5783 C   0  0  0  0  0  0  0  0  0  0  0  0
  -26.5676  -14.0564   20.0045 C   0  0  0  0  0  0  0  0  0  0  0  0
  -28.5843  -15.5960   19.7398 C   0  0  0  0  0  0  0  0  0  0  0  0
  -25.0271  -35.8461   24.5762 C   0  0  0  0  0  0  0  0  0  0  0  0
  -25.8909  -29.9547   20.2836 C   0  0  0  0  0  0  0  0  0  0  0  0
  -25.7120  -34.7229   24.0746 C   0  0  0  0  0  0  0  0  0  0  0  0
  -25.5505  -28.7432   20.9021 C   0  0  0  0  0  0  0  0  0  0  0  0
  -25.9311  -22.7311   18.9742 C   0  0  0  0  0  0  0  0  0  0  0  0
  -24.6353  -22.6222   19.4787 C   0  0  0  0  0  0  0  0  0  0  0  0
  -25.0762  -11.7637   19.4551 C   0  0  0  0  0  0  0  0  0  0  0  0
  -27.6412  -27.7744   20.1269 C   0  0  0  0  0  0  0  0  0  0  0  0
  -23.7940   -9.9655   20.2582 C   0  0  0  0  0  0  0  0  0  0  0  0
  -22.6765   -8.5996   22.4187 C   0  0  0  0  0  0  0  0  0  0  0  0
  -24.1416   -8.6361   20.4980 C   0  0  0  0  0  0  0  0  0  0  0  0
  -23.7449  -22.8792   17.2475 C   0  0  0  0  0  0  0  0  0  0  0  0
  -27.3372  -15.2410   20.2881 C   0  0  0  0  0  0  0  0  0  0  0  0
  -28.8871  -16.8003   20.3267 C   0  0  0  0  0  0  0  0  0  0  0  0
  -29.3963  -14.8996   18.7852 C   0  0  0  0  0  0  0  0  0  0  0  0
  -24.6469  -31.4155   22.8179 C   0  0  0  0  0  0  0  0  0  0  0  0
  -22.0216  -29.6734   22.0464 C   0  0  0  0  0  0  0  0  0  0  0  0
  -28.7677  -24.4464   19.3076 C   0  0  0  0  0  0  0  0  0  0  0  0
  -20.7220  -26.9192   20.5062 C   0  0  0  0  0  0  0  0  0  0  0  0
  -25.5170  -21.1259   22.7315 C   0  0  0  0  0  0  0  0  0  0  0  0
  -23.8090  -35.7055   25.4544 C   0  0  0  0  0  0  0  0  0  0  0  0
  -24.9480  -31.1257   20.3316 C   0  0  0  0  0  0  0  0  0  0  0  0
  -24.2592  -28.5743   21.6587 C   0  0  0  0  0  0  0  0  0  0  0  0
  -23.1586  -34.3266   25.3776 C   0  0  0  0  0  0  0  0  0  0  0  0
  -28.1303  -19.3105   24.3288 C   0  0  0  0  0  0  0  0  0  0  0  0
  -24.2153  -33.2314   25.4821 C   0  0  0  0  0  0  0  0  0  0  0  0
  -28.3359  -18.0937   23.4249 C   0  0  0  0  0  0  0  0  0  0  0  0
  -26.6586  -19.7091   24.4126 C   0  0  0  0  0  0  0  0  0  0  0  0
  -26.2059  -18.7080   22.2065 C   0  0  0  0  0  0  0  0  0  0  0  0
  -25.2136  -33.3155   24.3211 C   0  0  1  0  0  0  0  0  0  0  0  0
  -23.9854  -31.0696   21.5138 C   0  0  1  0  0  0  0  0  0  0  0  0
  -27.6811  -18.3024   22.0462 C   0  0  2  0  0  0  0  0  0  0  0  0
  -30.0794  -21.4231   19.3605 C   0  0  0  0  0  0  0  0  0  0  0  0
  -18.5463  -25.7445   20.0778 C   0  0  0  0  0  0  0  0  0  0  0  0
  -22.0147  -28.6440   24.9187 C   0  0  0  0  0  0  0  0  0  0  0  0
  -20.4698  -26.8151   24.1858 C   0  0  0  0  0  0  0  0  0  0  0  0
  -19.7541  -29.1978   24.0036 C   0  0  0  0  0  0  0  0  0  0  0  0
  -21.0106  -27.2068   17.5748 C   0  0  0  0  0  0  0  0  0  0  0  0
  -27.1229  -22.6535   19.8840 C   0  0  0  0  0  0  0  0  0  0  0  0
  -24.3938  -22.4243   20.9394 C   0  0  0  0  0  0  0  0  0  0  0  0
  -27.9102  -25.4117   20.0987 C   0  0  0  0  0  0  0  0  0  1  0  0
  -29.0771  -22.1011   18.4897 C   0  0  0  0  0  0  0  0  0  0  0  0
  -21.5024  -28.3036   22.4111 C   0  0  1  0  0  0  0  0  0  0  0  0
  -19.5525  -26.7564   19.5522 C   0  0  2  0  0  0  0  0  0  0  0  0
  -20.9605  -28.2436   23.8673 C   0  0  0  0  0  0  0  0  0  0  0  0
  -26.8793  -16.1464   21.1567 N   0  0  0  0  0  0  0  0  0  0  0  0
  -27.8438  -17.0822   21.1588 N   0  0  0  0  0  0  0  0  0  0  0  0
  -23.3734  -29.7500   21.6824 N   0  0  0  0  0  0  0  0  0  0  0  0
  -26.0980  -19.8932   23.0717 N   0  0  0  0  0  0  0  0  0  0  0  0
  -29.9413  -17.6350   20.2072 N   0  0  0  0  0  0  0  0  0  0  0  0
  -28.9355  -13.6748   18.2833 N   0  0  0  0  0  0  0  0  0  0  0  0
  -24.6335  -32.7650   23.1149 N   0  0  0  0  0  0  0  0  0  0  0  0
  -20.5178  -27.9557   21.3924 N   0  0  0  0  0  0  0  0  0  0  0  0
  -25.0154  -21.2182   21.4389 N   0  0  0  0  0  0  0  0  0  0  0  0
  -28.3393  -23.1209   19.2307 N   0  0  0  0  0  0  0  0  0  0  0  0
  -20.0320  -26.2935   18.2192 N   0  3  0  0  0  0  0  0  0  0  0  0
  -30.5055  -15.3421   18.4013 O   0  0  0  0  0  0  0  0  0  0  0  0
  -25.1321  -30.5239   23.5044 O   0  0  0  0  0  0  0  0  0  0  0  0
  -21.2541  -30.6387   22.0762 O   0  0  0  0  0  0  0  0  0  0  0  0
  -29.7926  -24.8710   18.7652 O   0  0  0  0  0  0  0  0  0  0  0  0
  -21.7156  -26.1966   20.4714 O   0  0  0  0  0  0  0  0  0  0  0  0
  -25.4551  -22.0759   23.5193 O   0  0  0  0  0  0  0  0  0  0  0  0
  -24.3485  -10.6452   19.1866 O   0  0  0  0  0  0  0  0  0  0  0  0
  -28.4914  -26.7143   20.0567 O   0  0  0  0  0  0  0  0  0  1  0  0
  -22.1410   -7.9443   23.4570 F   0  0  0  0  0  0  0  0  0  0  0  0
  -25.0127   -8.0102   19.6948 F   0  0  0  0  0  0  0  0  0  0  0  0
  -22.3969  -22.9688   16.1820 Cl  0  0  0  0  0  0  0  0  0  0  0  0
  1  2  1  0  0  0  0
  1  5  2  0  0  0  0
  2  6  2  0  0  0  0
  3  9  2  0  0  0  0
  3 18  1  0  0  0  0
  4 10  1  0  0  0  0
  4 18  2  0  0  0  0
  5 20  1  0  0  0  0
  6 22  1  0  0  0  0
  7 11  2  0  0  0  0
  7 21  1  0  0  0  0
  8 14  2  0  0  0  0
  8 24  1  0  0  0  0
  9 26  1  0  0  0  0
 10 26  2  0  0  0  0
 11 27  1  0  0  0  0
 12 13  2  0  0  0  0
 12 28  1  0  0  0  0
 13 29  1  0  0  0  0
 14 31  1  0  0  0  0
 15 23  1  0  0  0  0
 15 27  2  0  0  0  0
 16 25  1  0  0  0  0
 16 31  2  0  0  0  0
 17 29  2  0  0  0  0
 17 30  1  0  0  0  0
 18 32  1  0  0  0  0
 19 32  1  0  0  0  0
 19 33  2  0  0  0  0
 19 34  1  0  0  0  0
 20 22  2  0  0  0  0
 20 40  1  0  0  0  0
 21 23  2  0  0  0  0
 21 41  1  0  0  0  0
 22 49  1  0  0  0  0
 23 42  1  0  0  0  0
 24 25  2  0  0  0  0
 24 58  1  0  0  0  0
 25 59  1  0  0  0  0
 26 82  1  0  0  0  0
 27 83  1  0  0  0  0
 28 30  2  0  0  0  0
 28 82  1  0  0  0  0
 29 84  1  0  0  0  0
 30 85  1  0  0  0  0
 31 86  1  0  0  0  0
 32 65  2  0  0  0  0
 33 66  1  0  0  0  0
 33 69  1  0  0  0  0
 34 70  1  0  0  0  0
 34 76  2  0  0  0  0
 35 50  1  0  0  0  0
 35 71  1  0  0  0  0
 35 77  2  0  0  0  0
 36 62  1  0  0  0  0
 36 67  1  0  0  0  0
 36 78  2  0  0  0  0
 37 60  1  0  0  0  0
 37 74  1  0  0  0  0
 37 79  2  0  0  0  0
 38 63  1  0  0  0  0
 38 72  1  0  0  0  0
 38 80  2  0  0  0  0
 39 68  1  0  0  0  0
 39 73  1  0  0  0  0
 39 81  2  0  0  0  0
 40 43  1  0  0  0  0
 41 50  1  0  0  0  0
 42 67  1  0  0  0  0
 43 45  1  0  0  0  0
 44 46  1  0  0  0  0
 44 47  1  0  0  0  0
 45 49  1  0  0  0  0
 46 51  1  0  0  0  0
 47 68  1  0  0  0  0
 48 51  1  0  0  0  0
 48 68  1  0  0  0  0
 49 71  1  0  0  0  0
 50 67  1  0  0  0  0
 51 66  1  0  0  0  0
 52 61  1  0  0  0  0
 53 63  1  0  0  0  0
 54 64  1  0  0  0  0
 55 64  1  0  0  0  0
 56 64  1  0  0  0  0
 57 75  1  0  0  0  0
 58 74  1  0  0  0  0
 59 73  1  0  0  0  0
 60 83  1  0  0  0  0
 61 74  1  0  0  0  0
 62 64  1  0  0  0  0
 62 72  1  0  0  0  0
 63 75  1  0  0  0  0
 65 66  1  0  0  0  0
M  CHG  1  75   1
M  ISO  4  39 100  60 101  73 100  83 101
M  END
> <Batch ID>
0045

> <Smiles>
CCN(Cc1ccc(Cl)cc1C[100NH:0][100C:0](=O)N1CCCC(n2nc(-c3ccc(Oc4ccc(F)cc4F)cc3)c(C(N)=O)c2N)C1)C(=O)[101CH2:1][101O:1]c1ccc2c(c1)CN(C(=O)C(NC(=O)C(C)NC)C(C)(C)C)C(C(=O)NC1CCCc3ccccc31)C2

> <Shape>
0.283

> <Color>
0.093

> <Negative vol penalty>
0.000

$$$$

  -OEChem-04042322213D

 85 93  0     1  0  0  0  0  0999 V2000
  -19.7649   -8.1889   20.0200 C   0  0  0  0  0  0  0  0  0  0  0  0
  -19.4925   -9.5018   20.3908 C   0  0  0  0  0  0  0  0  0  0  0  0
  -28.8773  -26.1315   20.1226 C   0  0  0  0  0  0  0  0  0  0  0  0
  -26.9249  -25.6952   18.7681 C   0  0  0  0  0  0  0  0  0  0  0  0
  -21.0538   -7.6776   20.1662 C   0  0  0  0  0  0  0  0  0  0  0  0
  -20.5087  -10.3039   20.9090 C   0  0  0  0  0  0  0  0  0  0  0  0
  -21.2184  -16.3319   20.0936 C   0  0  0  0  0  0  0  0  0  0  0  0
  -18.1912  -28.4478   23.5962 C   0  0  0  0  0  0  0  0  0  0  0  0
  -29.3576  -24.8523   19.8425 C   0  0  0  0  0  0  0  0  0  0  0  0
  -27.4052  -24.4159   18.4879 C   0  0  0  0  0  0  0  0  0  0  0  0
  -20.8896  -17.4308   20.8861 C   0  0  0  0  0  0  0  0  0  0  0  0
  -30.9237  -21.5711   19.7750 C   0  0  0  0  0  0  0  0  0  0  0  0
  -31.4367  -20.8229   20.8345 C   0  0  0  0  0  0  0  0  0  0  0  0
  -17.4911  -27.3338   24.0592 C   0  0  0  0  0  0  0  0  0  0  0  0
  -23.1387  -17.4679   21.7573 C   0  0  0  0  0  0  0  0  0  0  0  0
  -29.2984  -20.9406   21.9529 C   0  0  0  0  0  0  0  0  0  0  0  0
  -27.6609  -26.5530   19.5854 C   0  0  0  0  0  0  0  0  0  0  0  0
  -27.4071  -29.0527   19.1445 C   0  0  0  0  0  0  0  0  0  0  0  0
  -22.0884   -8.4768   20.6774 C   0  0  0  0  0  0  0  0  0  0  0  0
  -22.5090  -15.7851   20.1352 C   0  0  0  0  0  0  0  0  0  0  0  0
  -21.8123   -9.8024   21.0634 C   0  0  0  0  0  0  0  0  0  0  0  0
  -23.4821  -16.3637   20.9624 C   0  0  0  0  0  0  0  0  0  0  0  0
  -19.1510  -28.3016   22.5946 C   0  0  0  0  0  0  0  0  0  0  0  0
  -19.4107  -27.0413   22.0562 C   0  0  0  0  0  0  0  0  0  0  0  0
  -18.7106  -25.9272   22.5193 C   0  0  0  0  0  0  0  0  0  0  0  0
  -28.6216  -23.9945   19.0251 C   0  0  0  0  0  0  0  0  0  0  0  0
  -21.8490  -17.9972   21.7203 C   0  0  0  0  0  0  0  0  0  0  0  0
  -29.5981  -22.0042   19.8044 C   0  0  0  0  0  0  0  0  0  0  0  0
  -30.6241  -20.5076   21.9235 C   0  0  0  0  0  0  0  0  0  0  0  0
  -28.7854  -21.6889   20.8934 C   0  0  0  0  0  0  0  0  0  0  0  0
  -17.7508  -26.0735   23.5208 C   0  0  0  0  0  0  0  0  0  0  0  0
  -27.1640  -27.8741   19.8749 C   0  0  0  0  0  0  0  0  0  0  0  0
  -26.7168  -30.0264   19.8242 C   0  0  0  0  0  0  0  0  0  0  0  0
  -28.1870  -29.2498   17.9576 C   0  0  0  0  0  0  0  0  0  0  0  0
  -23.7240  -12.9623   20.9470 C   0  0  0  0  0  0  0  0  0  0  0  0
  -26.4808  -14.2690   19.8448 C   0  0  0  0  0  0  0  0  0  0  0  0
  -28.2843  -17.0865   19.1696 C   0  0  0  0  0  0  0  0  0  0  0  0
  -21.9502  -29.8718   23.4445 C   0  0  0  0  0  0  0  0  0  0  0  0
  -23.4548   -7.8654   20.8612 C   0  0  0  0  0  0  0  0  0  0  0  0
  -22.8553  -14.6162   19.2541 C   0  0  0  0  0  0  0  0  0  0  0  0
  -24.8878  -15.8267   21.0285 C   0  0  0  0  0  0  0  0  0  0  0  0
  -24.5609   -8.8970   21.0683 C   0  0  0  0  0  0  0  0  0  0  0  0
  -25.1809  -31.1564   24.2122 C   0  0  0  0  0  0  0  0  0  0  0  0
  -24.1298   -9.9440   22.0904 C   0  0  0  0  0  0  0  0  0  0  0  0
  -26.0774  -30.5672   23.1218 C   0  0  0  0  0  0  0  0  0  0  0  0
  -24.0965  -30.1718   24.6444 C   0  0  0  0  0  0  0  0  0  0  0  0
  -24.1708  -29.0447   22.4540 C   0  0  0  0  0  0  0  0  0  0  0  0
  -22.8936  -10.7113   21.6063 C   0  0  1  0  0  0  0  0  0  0  0  0
  -24.0554  -13.8217   19.7599 C   0  0  1  0  0  0  0  0  0  0  0  0
  -25.2452  -30.0214   21.9458 C   0  0  2  0  0  0  0  0  0  0  0  0
  -20.4421  -26.8936   20.9811 C   0  0  0  0  0  0  0  0  0  0  0  0
  -30.5201  -17.8355   18.3108 C   0  0  0  0  0  0  0  0  0  0  0  0
  -27.7511  -13.5364   22.5205 C   0  0  0  0  0  0  0  0  0  0  0  0
  -29.6222  -15.1111   21.9841 C   0  0  0  0  0  0  0  0  0  0  0  0
  -29.2067  -13.1287   20.5282 C   0  0  0  0  0  0  0  0  0  0  0  0
  -27.0586  -18.5114   16.8835 C   0  0  0  0  0  0  0  0  0  0  0  0
  -19.8849  -29.5111   22.1164 C   0  0  0  0  0  0  0  0  0  0  0  0
  -19.7423  -22.3547   21.9907 C   0  0  0  0  0  0  0  0  0  0  0  0
  -20.8054  -21.3730   22.4858 C   0  0  0  0  0  0  0  0  0  0  0  0
  -19.9734  -23.7754   22.4992 C   0  0  0  0  0  0  0  0  0  0  0  0
  -20.5297  -19.9565   21.9974 C   0  0  0  0  0  0  0  0  0  1  0  0
  -27.5991  -15.0786   20.4554 C   0  0  1  0  0  0  0  0  0  0  0  0
  -29.0815  -17.5032   17.9467 C   0  0  2  0  0  0  0  0  0  0  0  0
  -28.5179  -14.2229   21.3725 C   0  0  0  0  0  0  0  0  0  0  0  0
  -26.3806  -28.0782   20.9373 N   0  0  0  0  0  0  0  0  0  0  0  0
  -26.1256  -29.3964   20.8795 N   0  0  0  0  0  0  0  0  0  0  0  0
  -25.1758  -14.6788   20.1528 N   0  0  0  0  0  0  0  0  0  0  0  0
  -23.3429  -29.6934   23.4828 N   0  0  0  0  0  0  0  0  0  0  0  0
  -26.5641  -31.3515   19.6161 N   0  0  0  0  0  0  0  0  0  0  0  0
  -28.8300  -28.1418   17.3891 N   0  0  0  0  0  0  0  0  0  0  0  0
  -18.9765  -24.6797   21.9775 N   0  0  0  0  0  0  0  0  0  0  0  0
  -23.2675  -11.7002   20.6180 N   0  0  0  0  0  0  0  0  0  0  0  0
  -28.2938  -15.7187   19.3436 N   0  0  0  0  0  0  0  0  0  0  0  0
  -21.3139  -29.3952   22.3049 N   0  0  0  0  0  0  0  0  0  0  0  0
  -28.4677  -18.7042   17.3129 N   0  3  0  0  0  0  0  0  0  0  0  0
  -28.3234  -30.3780   17.4266 O   0  0  0  0  0  0  0  0  0  0  0  0
  -23.8728  -13.4104   22.0778 O   0  0  0  0  0  0  0  0  0  0  0  0
  -26.7550  -13.3127   19.1154 O   0  0  0  0  0  0  0  0  0  0  0  0
  -27.7136  -17.8938   19.8996 O   0  0  0  0  0  0  0  0  0  0  0  0
  -21.3212  -30.4204   24.3557 O   0  0  0  0  0  0  0  0  0  0  0  0
  -29.0901  -22.7463   18.7514 O   0  0  0  0  0  0  0  0  0  0  0  0
  -21.5305  -19.0694   22.4954 O   0  0  0  0  0  0  0  0  0  1  0  0
  -31.1163  -19.7878   22.9401 F   0  0  0  0  0  0  0  0  0  0  0  0
  -27.5108  -22.1011   20.9267 F   0  0  0  0  0  0  0  0  0  0  0  0
  -16.8592  -24.7225   24.1255 Cl  0  0  0  0  0  0  0  0  0  0  0  0
  1  2  1  0  0  0  0
  1  5  2  0  0  0  0
  2  6  2  0  0  0  0
  3  9  2  0  0  0  0
  3 17  1  0  0  0  0
  4 10  1  0  0  0  0
  4 17  2  0  0  0  0
  5 19  1  0  0  0  0
  6 21  1  0  0  0  0
  7 11  2  0  0  0  0
  7 20  1  0  0  0  0
  8 14  1  0  0  0  0
  8 23  2  0  0  0  0
  9 26  1  0  0  0  0
 10 26  2  0  0  0  0
 11 27  1  0  0  0  0
 12 13  2  0  0  0  0
 12 28  1  0  0  0  0
 13 29  1  0  0  0  0
 14 31  2  0  0  0  0
 15 22  1  0  0  0  0
 15 27  2  0  0  0  0
 16 29  2  0  0  0  0
 16 30  1  0  0  0  0
 17 32  1  0  0  0  0
 18 32  1  0  0  0  0
 18 33  2  0  0  0  0
 18 34  1  0  0  0  0
 19 21  2  0  0  0  0
 19 39  1  0  0  0  0
 20 22  2  0  0  0  0
 20 40  1  0  0  0  0
 21 48  1  0  0  0  0
 22 41  1  0  0  0  0
 23 24  1  0  0  0  0
 23 57  1  0  0  0  0
 24 25  2  0  0  0  0
 24 51  1  0  0  0  0
 25 31  1  0  0  0  0
 25 71  1  0  0  0  0
 26 81  1  0  0  0  0
 27 82  1  0  0  0  0
 28 30  2  0  0  0  0
 28 81  1  0  0  0  0
 29 83  1  0  0  0  0
 30 84  1  0  0  0  0
 31 85  1  0  0  0  0
 32 65  2  0  0  0  0
 33 66  1  0  0  0  0
 33 69  1  0  0  0  0
 34 70  1  0  0  0  0
 34 76  2  0  0  0  0
 35 49  1  0  0  0  0
 35 72  1  0  0  0  0
 35 77  2  0  0  0  0
 36 62  1  0  0  0  0
 36 67  1  0  0  0  0
 36 78  2  0  0  0  0
 37 63  1  0  0  0  0
 37 73  1  0  0  0  0
 37 79  2  0  0  0  0
 38 68  1  0  0  0  0
 38 74  1  0  0  0  0
 38 80  2  0  0  0  0
 39 42  1  0  0  0  0
 40 49  1  0  0  0  0
 41 67  1  0  0  0  0
 42 44  1  0  0  0  0
 43 45  1  0  0  0  0
 43 46  1  0  0  0  0
 44 48  1  0  0  0  0
 45 50  1  0  0  0  0
 46 68  1  0  0  0  0
 47 50  1  0  0  0  0
 47 68  1  0  0  0  0
 48 72  1  0  0  0  0
 49 67  1  0  0  0  0
 50 66  1  0  0  0  0
 52 63  1  0  0  0  0
 53 64  1  0  0  0  0
 54 64  1  0  0  0  0
 55 64  1  0  0  0  0
 56 75  1  0  0  0  0
 57 74  1  0  0  0  0
 58 59  1  0  0  0  0
 58 60  1  0  0  0  0
 59 61  1  0  0  0  0
 60 71  1  0  0  0  0
 61 82  1  0  0  0  0
 62 64  1  0  0  0  0
 62 73  1  0  0  0  0
 63 75  1  0  0  0  0
 65 66  1  0  0  0  0
M  CHG  1  75   1
M  ISO  4  38 100  61 101  74 100  82 101
M  END
> <Batch ID>
0045

> <Smiles>
CNC(C)C(=O)NC(C(=O)N1Cc2cc([101O:1][101CH2:1]CCCNc3c(Cl)ccc(C[100NH:0][100C:0](=O)N4CCCC(n5nc(-c6ccc(Oc7ccc(F)cc7F)cc6)c(C(N)=O)c5N)C4)c3C)ccc2CC1C(=O)NC1CCCc2ccccc21)C(C)(C)C

> <Shape>
0.286

> <Color>
0.070

> <Negative vol penalty>
0.000

$$$$

  -OEChem-04042322213D

 85 93  0     1  0  0  0  0  0999 V2000
  -25.5855   -8.1750   26.1929 C   0  0  0  0  0  0  0  0  0  0  0  0
  -26.6027   -8.9691   25.6730 C   0  0  0  0  0  0  0  0  0  0  0  0
  -23.1223  -30.8862   21.2607 C   0  0  0  0  0  0  0  0  0  0  0  0
  -22.7741  -28.8546   22.5211 C   0  0  0  0  0  0  0  0  0  0  0  0
  -24.4356   -7.9366   25.4413 C   0  0  0  0  0  0  0  0  0  0  0  0
  -26.4710   -9.5243   24.4006 C   0  0  0  0  0  0  0  0  0  0  0  0
  -28.5558  -14.9691   22.5262 C   0  0  0  0  0  0  0  0  0  0  0  0
  -21.7513  -30.9709   21.0185 C   0  0  0  0  0  0  0  0  0  0  0  0
  -21.4030  -28.9393   22.2789 C   0  0  0  0  0  0  0  0  0  0  0  0
  -29.6971  -15.3434   21.8184 C   0  0  0  0  0  0  0  0  0  0  0  0
  -18.7643  -30.6710   23.4867 C   0  0  0  0  0  0  0  0  0  0  0  0
  -17.9029  -30.4463   24.5606 C   0  0  0  0  0  0  0  0  0  0  0  0
  -29.3779  -22.4673   20.2026 C   0  0  0  0  0  0  0  0  0  0  0  0
  -28.4240  -15.3293   19.7695 C   0  0  0  0  0  0  0  0  0  0  0  0
  -28.0771  -22.6917   22.2261 C   0  0  0  0  0  0  0  0  0  0  0  0
  -16.9076  -28.5919   23.3742 C   0  0  0  0  0  0  0  0  0  0  0  0
  -23.6337  -29.8280   22.0120 C   0  0  0  0  0  0  0  0  0  0  0  0
  -29.2524  -21.0801   20.2757 C   0  0  0  0  0  0  0  0  0  0  0  0
  -25.7577  -30.2910   23.3469 C   0  0  0  0  0  0  0  0  0  0  0  0
  -24.2856   -8.4971   24.1631 C   0  0  0  0  0  0  0  0  0  0  0  0
  -27.3404  -14.7611   21.8582 C   0  0  0  0  0  0  0  0  0  0  0  0
  -25.3186   -9.2921   23.6308 C   0  0  0  0  0  0  0  0  0  0  0  0
  -27.2680  -14.9548   20.4714 C   0  0  0  0  0  0  0  0  0  0  0  0
  -27.9516  -21.3044   22.2992 C   0  0  0  0  0  0  0  0  0  0  0  0
  -28.5393  -20.4986   21.3240 C   0  0  0  0  0  0  0  0  0  0  0  0
  -28.7903  -23.2732   21.1778 C   0  0  0  0  0  0  0  0  0  0  0  0
  -20.8916  -29.9975   21.5276 C   0  0  0  0  0  0  0  0  0  0  0  0
  -29.6321  -15.5208   20.4395 C   0  0  0  0  0  0  0  0  0  0  0  0
  -18.6973  -29.8562   22.3565 C   0  0  0  0  0  0  0  0  0  0  0  0
  -16.9746  -29.4068   24.5043 C   0  0  0  0  0  0  0  0  0  0  0  0
  -17.7690  -28.8166   22.3003 C   0  0  0  0  0  0  0  0  0  0  0  0
  -25.0500  -29.7396   22.2621 C   0  0  0  0  0  0  0  0  0  0  0  0
  -27.0637  -29.9284   23.1248 C   0  0  0  0  0  0  0  0  0  0  0  0
  -29.8821  -20.2470   19.2316 C   0  0  0  0  0  0  0  0  0  0  0  0
  -25.2775  -31.0621   24.4562 C   0  0  0  0  0  0  0  0  0  0  0  0
  -25.4002  -12.2761   21.4531 C   0  0  0  0  0  0  0  0  0  0  0  0
  -23.4964  -14.4896   20.0397 C   0  0  0  0  0  0  0  0  0  0  0  0
  -23.2407  -17.4902   18.4341 C   0  0  0  0  0  0  0  0  0  0  0  0
  -29.5955  -25.4188   20.1317 C   0  0  0  0  0  0  0  0  0  0  0  0
  -23.0450   -8.1725   23.3691 C   0  0  0  0  0  0  0  0  0  0  0  0
  -26.1120  -14.3835   22.6398 C   0  0  0  0  0  0  0  0  0  0  0  0
  -25.9826  -14.7638   19.7100 C   0  0  0  0  0  0  0  0  0  0  0  0
  -22.8210   -9.1044   22.1810 C   0  0  0  0  0  0  0  0  0  0  0  0
  -30.1127  -28.8978   19.5785 C   0  0  0  0  0  0  0  0  0  0  0  0
  -24.1153   -9.2881   21.3951 C   0  0  0  0  0  0  0  0  0  0  0  0
  -28.9409  -29.5590   20.3078 C   0  0  0  0  0  0  0  0  0  0  0  0
  -29.7004  -27.5840   18.9169 C   0  0  0  0  0  0  0  0  0  0  0  0
  -27.8691  -27.2817   20.5368 C   0  0  0  0  0  0  0  0  0  0  0  0
  -25.2019   -9.9323   22.2645 C   0  0  1  0  0  0  0  0  0  0  0  0
  -25.0486  -13.6982   21.7872 C   0  0  1  0  0  0  0  0  0  0  0  0
  -28.2513  -28.5757   21.2739 C   0  0  2  0  0  0  0  0  0  0  0  0
  -27.1842  -20.7063   23.4327 C   0  0  0  0  0  0  0  0  0  0  0  0
  -28.4032  -19.0108   21.4036 C   0  0  0  0  0  0  0  0  0  0  0  0
  -21.5588  -19.0158   17.3659 C   0  0  0  0  0  0  0  0  0  0  0  0
  -23.3775  -12.6515   17.6072 C   0  0  0  0  0  0  0  0  0  0  0  0
  -22.5194  -14.5882   16.2727 C   0  0  0  0  0  0  0  0  0  0  0  0
  -21.2018  -13.7282   18.2084 C   0  0  0  0  0  0  0  0  0  0  0  0
  -23.8417  -19.6755   20.3373 C   0  0  0  0  0  0  0  0  0  0  0  0
  -32.4399  -17.5533   19.4243 C   0  0  0  0  0  0  0  0  0  0  0  0
  -31.5030  -18.4742   18.6605 C   0  0  0  0  0  0  0  0  0  0  0  0
  -31.7085  -16.6802   20.4362 C   0  0  0  0  0  0  0  0  0  1  0  0
  -23.3332  -15.0193   18.6355 C   0  0  1  0  0  0  0  0  0  0  0  0
  -22.3068  -18.6684   18.6437 C   0  0  2  0  0  0  0  0  0  0  0  0
  -22.6328  -13.9986   17.6947 C   0  0  0  0  0  0  0  0  0  0  0  0
  -25.8408  -29.0771   21.4137 N   0  0  0  0  0  0  0  0  0  0  0  0
  -27.0591  -29.2100   21.9654 N   0  0  0  0  0  0  0  0  0  0  0  0
  -24.8105  -14.3886   20.5180 N   0  0  0  0  0  0  0  0  0  0  0  0
  -29.0580  -26.7013   19.8932 N   0  0  0  0  0  0  0  0  0  0  0  0
  -28.2041  -30.1571   23.8100 N   0  0  0  0  0  0  0  0  0  0  0  0
  -29.4961  -20.4254   17.9682 N   0  0  0  0  0  0  0  0  0  0  0  0
  -23.9066  -31.3440   24.5304 N   0  0  0  0  0  0  0  0  0  0  0  0
  -28.9201  -24.6823   21.1043 N   0  0  0  0  0  0  0  0  0  0  0  0
  -24.9710  -11.3555   22.3900 N   0  0  0  0  0  0  0  0  0  0  0  0
  -22.6355  -16.2946   18.7588 N   0  0  0  0  0  0  0  0  0  0  0  0
  -30.8073  -19.3521   19.6018 N   0  3  0  0  0  0  0  0  0  0  0  0
  -23.0761  -19.8683   19.0789 N   0  3  0  0  0  0  0  0  0  0  0  0
  -26.0439  -31.5024   25.3464 O   0  0  0  0  0  0  0  0  0  0  0  0
  -26.0141  -12.0319   20.4210 O   0  0  0  0  0  0  0  0  0  0  0  0
  -22.4943  -14.1837   20.6909 O   0  0  0  0  0  0  0  0  0  0  0  0
  -24.3909  -17.6174   18.0200 O   0  0  0  0  0  0  0  0  0  0  0  0
  -30.5987  -25.0148   19.5379 O   0  0  0  0  0  0  0  0  0  0  0  0
  -19.5537  -30.0800   21.2916 O   0  0  0  0  0  0  0  0  0  0  0  0
  -30.7448  -15.8855   19.7462 O   0  0  0  0  0  0  0  0  0  1  0  0
  -16.1485  -29.1901   25.5362 F   0  0  0  0  0  0  0  0  0  0  0  0
  -17.7008  -28.0297   21.2177 F   0  0  0  0  0  0  0  0  0  0  0  0
  1  2  1  0  0  0  0
  1  5  2  0  0  0  0
  2  6  2  0  0  0  0
  3  8  2  0  0  0  0
  3 17  1  0  0  0  0
  4  9  1  0  0  0  0
  4 17  2  0  0  0  0
  5 20  1  0  0  0  0
  6 22  1  0  0  0  0
  7 10  2  0  0  0  0
  7 21  1  0  0  0  0
  8 27  1  0  0  0  0
  9 27  2  0  0  0  0
 10 28  1  0  0  0  0
 11 12  2  0  0  0  0
 11 29  1  0  0  0  0
 12 30  1  0  0  0  0
 13 18  1  0  0  0  0
 13 26  2  0  0  0  0
 14 23  1  0  0  0  0
 14 28  2  0  0  0  0
 15 24  2  0  0  0  0
 15 26  1  0  0  0  0
 16 30  2  0  0  0  0
 16 31  1  0  0  0  0
 17 32  1  0  0  0  0
 18 25  2  0  0  0  0
 18 34  1  0  0  0  0
 19 32  1  0  0  0  0
 19 33  2  0  0  0  0
 19 35  1  0  0  0  0
 20 22  2  0  0  0  0
 20 40  1  0  0  0  0
 21 23  2  0  0  0  0
 21 41  1  0  0  0  0
 22 49  1  0  0  0  0
 23 42  1  0  0  0  0
 24 25  1  0  0  0  0
 24 52  1  0  0  0  0
 25 53  1  0  0  0  0
 26 72  1  0  0  0  0
 27 82  1  0  0  0  0
 28 83  1  0  0  0  0
 29 31  2  0  0  0  0
 29 82  1  0  0  0  0
 30 84  1  0  0  0  0
 31 85  1  0  0  0  0
 32 65  2  0  0  0  0
 33 66  1  0  0  0  0
 33 69  1  0  0  0  0
 34 70  1  0  0  0  0
 34 75  2  0  0  0  0
 35 71  1  0  0  0  0
 35 77  2  0  0  0  0
 36 50  1  0  0  0  0
 36 73  1  0  0  0  0
 36 78  2  0  0  0  0
 37 62  1  0  0  0  0
 37 67  1  0  0  0  0
 37 79  2  0  0  0  0
 38 63  1  0  0  0  0
 38 74  1  0  0  0  0
 38 80  2  0  0  0  0
 39 68  1  0  0  0  0
 39 72  1  0  0  0  0
 39 81  2  0  0  0  0
 40 43  1  0  0  0  0
 41 50  1  0  0  0  0
 42 67  1  0  0  0  0
 43 45  1  0  0  0  0
 44 46  1  0  0  0  0
 44 47  1  0  0  0  0
 45 49  1  0  0  0  0
 46 51  1  0  0  0  0
 47 68  1  0  0  0  0
 48 51  1  0  0  0  0
 48 68  1  0  0  0  0
 49 73  1  0  0  0  0
 50 67  1  0  0  0  0
 51 66  1  0  0  0  0
 54 63  1  0  0  0  0
 55 64  1  0  0  0  0
 56 64  1  0  0  0  0
 57 64  1  0  0  0  0
 58 76  1  0  0  0  0
 59 60  1  0  0  0  0
 59 61  1  0  0  0  0
 60 75  1  0  0  0  0
 61 83  1  0  0  0  0
 62 64  1  0  0  0  0
 62 74  1  0  0  0  0
 63 76  1  0  0  0  0
 65 66  1  0  0  0  0
M  CHG  2  75   1  76   1
M  ISO  4  39 100  61 101  72 100  83 101
M  END
> <Batch ID>
0045

> <Smiles>
CNC(C)C(=O)NC(C(=O)N1Cc2cc([101O:1][101CH2:1]CCNC(=N)c3cc([100NH:0][100C:0](=O)N4CCCC(n5nc(-c6ccc(Oc7ccc(F)cc7F)cc6)c(C(N)=O)c5N)C4)cc(C)c3C)ccc2CC1C(=O)NC1CCCc2ccccc21)C(C)(C)C

> <Shape>
0.277

> <Color>
0.069

> <Negative vol penalty>
0.000

$$$$

  -OEChem-04042322213D

 90 99  0     1  0  0  0  0  0999 V2000
  -27.8143  -20.3093   23.3295 C   0  0  0  0  0  0  0  0  0  0  0  0
  -21.1346  -30.5871   24.8146 C   0  0  0  0  0  0  0  0  0  0  0  0
  -21.9298  -29.4507   24.7064 C   0  0  0  0  0  0  0  0  0  0  0  0
  -23.5965  -10.9179   23.3104 C   0  0  0  0  0  0  0  0  0  0  0  0
  -24.5512   -9.2744   21.8190 C   0  0  0  0  0  0  0  0  0  0  0  0
  -20.6003  -31.1742   23.6684 C   0  0  0  0  0  0  0  0  0  0  0  0
  -22.1903  -28.9002   23.4521 C   0  0  0  0  0  0  0  0  0  0  0  0
  -27.0615  -27.6533   22.8513 C   0  0  0  0  0  0  0  0  0  0  0  0
  -23.1472   -9.8970   24.1479 C   0  0  0  0  0  0  0  0  0  0  0  0
  -24.1020   -8.2534   22.6565 C   0  0  0  0  0  0  0  0  0  0  0  0
  -27.4952  -26.4721   23.4517 C   0  0  0  0  0  0  0  0  0  0  0  0
  -21.1946   -6.6479   23.2890 C   0  0  0  0  0  0  0  0  0  0  0  0
  -20.5781   -5.5466   22.6952 C   0  0  0  0  0  0  0  0  0  0  0  0
  -27.3262  -25.3382   21.3292 C   0  0  0  0  0  0  0  0  0  0  0  0
  -30.6151  -18.0042   24.2252 C   0  0  0  0  0  0  0  0  0  0  0  0
  -30.8294  -18.7929   21.9516 C   0  0  0  0  0  0  0  0  0  0  0  0
  -22.2754   -4.0975   23.6206 C   0  0  0  0  0  0  0  0  0  0  0  0
  -24.2984  -10.6066   22.1459 C   0  0  0  0  0  0  0  0  0  0  0  0
  -23.9781  -12.6268   20.6215 C   0  0  0  0  0  0  0  0  0  0  0  0
  -20.8623  -30.6363   22.3986 C   0  0  0  0  0  0  0  0  0  0  0  0
  -26.7460  -27.6832   21.4852 C   0  0  0  0  0  0  0  0  0  0  0  0
  -21.6579  -29.4799   22.2879 C   0  0  0  0  0  0  0  0  0  0  0  0
  -26.8912  -26.5217   20.7133 C   0  0  0  0  0  0  0  0  0  0  0  0
  -30.8289  -19.0465   23.3232 C   0  0  0  0  0  0  0  0  0  0  0  0
  -30.4017  -16.7082   23.7555 C   0  0  0  0  0  0  0  0  0  0  0  0
  -30.6160  -17.4969   21.4819 C   0  0  0  0  0  0  0  0  0  0  0  0
  -30.4021  -16.4546   22.3839 C   0  0  0  0  0  0  0  0  0  0  0  0
  -23.4000   -8.5647   23.8210 C   0  0  0  0  0  0  0  0  0  0  0  0
  -27.6248  -25.3136   22.6913 C   0  0  0  0  0  0  0  0  0  0  0  0
  -22.3516   -6.4740   24.0486 C   0  0  0  0  0  0  0  0  0  0  0  0
  -21.1185   -4.2714   22.8610 C   0  0  0  0  0  0  0  0  0  0  0  0
  -22.8920   -5.1988   24.2144 C   0  0  0  0  0  0  0  0  0  0  0  0
  -24.7622  -11.6608   21.2800 C   0  0  0  0  0  0  0  0  0  0  0  0
  -24.8851  -13.3918   19.9297 C   0  0  0  0  0  0  0  0  0  0  0  0
  -28.8076  -21.1536   23.2766 C   0  0  0  0  0  0  0  0  0  0  0  0
  -26.8237  -19.4669   23.3830 C   0  0  0  0  0  0  0  0  0  0  0  0
  -22.5568  -12.8158   20.6340 C   0  0  0  0  0  0  0  0  0  0  0  0
  -24.1164  -28.2823   19.8031 C   0  0  0  0  0  0  0  0  0  0  0  0
  -26.1423  -28.0357   17.2818 C   0  0  0  0  0  0  0  0  0  0  0  0
  -28.8800  -25.8994   16.3026 C   0  0  0  0  0  0  0  0  0  0  0  0
  -30.6873  -14.5707   20.7358 C   0  0  0  0  0  0  0  0  0  0  0  0
  -20.2239  -31.2783   21.1924 C   0  0  0  0  0  0  0  0  0  0  0  0
  -26.3052  -28.9719   20.8470 C   0  0  0  0  0  0  0  0  0  0  0  0
  -26.5847  -26.5060   19.2388 C   0  0  0  0  0  0  0  0  0  0  0  0
  -28.9461  -22.1918   22.1899 C   0  0  0  0  0  0  0  0  0  0  0  0
  -20.8552  -30.8518   19.8696 C   0  0  0  0  0  0  0  0  0  0  0  0
  -29.1889  -13.1281   17.8460 C   0  0  0  0  0  0  0  0  0  0  0  0
  -21.0395  -29.3381   19.8296 C   0  0  0  0  0  0  0  0  0  0  0  0
  -27.8100  -12.6815   18.3372 C   0  0  0  0  0  0  0  0  0  0  0  0
  -30.3102  -23.5277   23.8639 C   0  0  0  0  0  0  0  0  0  0  0  0
  -30.2623  -12.9335   18.9154 C   0  0  0  0  0  0  0  0  0  0  0  0
  -28.5805  -13.0954   20.7083 C   0  0  0  0  0  0  0  0  0  0  0  0
  -30.0107  -22.4709   24.9250 C   0  0  0  0  0  0  0  0  0  0  0  0
  -21.9835  -28.8677   20.9428 C   0  0  1  0  0  0  0  0  0  0  0  0
  -25.5191  -28.7612   19.5566 C   0  0  1  0  0  0  0  0  0  0  0  0
  -27.4549  -13.3327   19.6883 C   0  0  2  0  0  0  0  0  0  0  0  0
  -29.2465  -23.5753   22.7668 C   0  0  2  0  0  0  0  0  0  1  0  0
  -30.1760  -15.6123   24.7464 C   0  0  0  0  0  0  0  0  0  0  0  0
  -25.7040  -19.4018   22.3992 C   0  0  0  0  0  0  0  0  0  0  0  0
  -30.0993  -18.4568   19.2240 C   0  0  0  0  0  0  0  0  0  0  0  0
  -30.8459  -26.3480   14.8089 C   0  0  0  0  0  0  0  0  0  0  0  0
  -24.3869  -26.8329   15.0952 C   0  0  0  0  0  0  0  0  0  0  0  0
  -26.4298  -25.7287   14.1593 C   0  0  0  0  0  0  0  0  0  0  0  0
  -26.2938  -28.2176   14.2582 C   0  0  0  0  0  0  0  0  0  0  0  0
  -30.8061  -25.1094   18.4061 C   0  0  0  0  0  0  0  0  0  0  0  0
  -30.6217  -17.2564   20.0067 C   0  0  0  0  0  0  0  0  0  0  0  0
  -31.0587  -20.4404   23.8284 C   0  0  0  0  0  0  0  0  0  0  0  0
  -26.6154  -26.9080   16.3967 C   0  0  1  0  0  0  0  0  0  0  0  0
  -30.3498  -26.2747   16.2446 C   0  0  2  0  0  0  0  0  0  0  0  0
  -25.9236  -26.9172   15.0043 C   0  0  0  0  0  0  0  0  0  0  0  0
  -26.0669  -11.7974   21.0290 N   0  0  0  0  0  0  0  0  0  0  0  0
  -26.1096  -12.8581   20.2049 N   0  0  0  0  0  0  0  0  0  0  0  0
  -26.1510  -27.7893   18.6620 N   0  0  0  0  0  0  0  0  0  0  0  0
  -29.8593  -13.5806   20.1659 N   0  0  0  0  0  0  0  0  0  0  0  0
  -24.7466  -14.4622   19.1188 N   0  0  0  0  0  0  0  0  0  0  0  0
  -21.7862  -12.1538   19.6685 N   0  0  0  0  0  0  0  0  0  0  0  0
  -30.1853  -15.1382   21.9065 N   0  0  0  0  0  0  0  0  0  0  0  0
  -23.3600  -29.1348   20.5846 N   0  0  0  0  0  0  0  0  0  0  0  0
  -28.0694  -27.0141   16.3423 N   0  0  0  0  0  0  0  0  0  0  0  0
  -29.8019  -21.1034   24.3208 N   0  3  2  0  0  0  0  0  0  0  0  0
  -31.1707  -25.2678   16.9747 N   0  3  0  0  0  0  0  0  0  0  0  0
  -21.9888  -13.5630   21.4662 O   0  0  0  0  0  0  0  0  0  0  0  0
  -23.7471  -27.2190   19.3188 O   0  0  0  0  0  0  0  0  0  0  0  0
  -25.7852  -29.0988   16.7679 O   0  0  0  0  0  0  0  0  0  0  0  0
  -28.4898  -24.7340   16.3082 O   0  0  0  0  0  0  0  0  0  0  0  0
  -31.7494  -14.9109   20.2084 O   0  0  0  0  0  0  0  0  0  0  0  0
  -22.9620   -7.5683   24.6382 O   0  0  0  0  0  0  0  0  0  0  0  0
  -28.0472  -24.1592   23.2750 O   0  0  0  0  0  0  0  0  0  1  0  0
  -20.5255   -3.2137   22.2919 F   0  0  0  0  0  0  0  0  0  0  0  0
  -24.0026   -5.0253   24.9439 F   0  0  0  0  0  0  0  0  0  0  0  0
  1 35  2  0  0  0  0
  1 36  2  0  0  0  0
  2  3  1  0  0  0  0
  2  6  2  0  0  0  0
  3  7  2  0  0  0  0
  4  9  2  0  0  0  0
  4 18  1  0  0  0  0
  5 10  1  0  0  0  0
  5 18  2  0  0  0  0
  6 20  1  0  0  0  0
  7 22  1  0  0  0  0
  8 11  2  0  0  0  0
  8 21  1  0  0  0  0
  9 28  1  0  0  0  0
 10 28  2  0  0  0  0
 11 29  1  0  0  0  0
 12 13  2  0  0  0  0
 12 30  1  0  0  0  0
 13 31  1  0  0  0  0
 14 23  1  0  0  0  0
 14 29  2  0  0  0  0
 15 24  1  0  0  0  0
 15 25  2  0  0  0  0
 16 24  2  0  0  0  0
 16 26  1  0  0  0  0
 17 31  2  0  0  0  0
 17 32  1  0  0  0  0
 18 33  1  0  0  0  0
 19 33  1  0  0  0  0
 19 34  2  0  0  0  0
 19 37  1  0  0  0  0
 20 22  2  0  0  0  0
 20 42  1  0  0  0  0
 21 23  2  0  0  0  0
 21 43  1  0  0  0  0
 22 54  1  0  0  0  0
 23 44  1  0  0  0  0
 24 67  1  0  0  0  0
 25 27  1  0  0  0  0
 25 58  1  0  0  0  0
 26 27  2  0  0  0  0
 26 66  1  0  0  0  0
 27 77  1  0  0  0  0
 28 87  1  0  0  0  0
 29 88  1  0  0  0  0
 30 32  2  0  0  0  0
 30 87  1  0  0  0  0
 31 89  1  0  0  0  0
 32 90  1  0  0  0  0
 33 71  2  0  0  0  0
 34 72  1  0  0  0  0
 34 75  1  0  0  0  0
 35 45  1  0  0  0  0
 35 80  1  0  0  0  0
 36 59  1  0  0  0  0
 37 76  1  0  0  0  0
 37 82  2  0  0  0  0
 38 55  1  0  0  0  0
 38 78  1  0  0  0  0
 38 83  2  0  0  0  0
 39 68  1  0  0  0  0
 39 73  1  0  0  0  0
 39 84  2  0  0  0  0
 40 69  1  0  0  0  0
 40 79  1  0  0  0  0
 40 85  2  0  0  0  0
 41 74  1  0  0  0  0
 41 77  1  0  0  0  0
 41 86  2  0  0  0  0
 42 46  1  0  0  0  0
 43 55  1  0  0  0  0
 44 73  1  0  0  0  0
 45 57  1  0  0  0  0
 46 48  1  0  0  0  0
 47 49  1  0  0  0  0
 47 51  1  0  0  0  0
 48 54  1  0  0  0  0
 49 56  1  0  0  0  0
 50 53  1  0  0  0  0
 50 57  1  0  0  0  0
 51 74  1  0  0  0  0
 52 56  1  0  0  0  0
 52 74  1  0  0  0  0
 53 80  1  0  0  0  0
 54 78  1  0  0  0  0
 55 73  1  0  0  0  0
 56 72  1  0  0  0  0
 57 88  1  0  0  0  0
 60 66  1  0  0  0  0
 61 69  1  0  0  0  0
 62 70  1  0  0  0  0
 63 70  1  0  0  0  0
 64 70  1  0  0  0  0
 65 81  1  0  0  0  0
 67 80  1  0  0  0  0
 68 70  1  0  0  0  0
 68 79  1  0  0  0  0
 69 81  1  0  0  0  0
 71 72  1  0  0  0  0
M  CHG  2  80   1  81   1
M  ISO  4  41 100  57 101  77 100  88 101
M  END
> <Batch ID>
0045

> <Smiles>
CC=C=C1C[101CH:1]([101O:1]c2ccc3c(c2)CN(C(=O)C(NC(=O)C(C)NC)C(C)(C)C)C(C(=O)NC2CCCc4ccccc42)C3)CCN1Cc1cc(C)c([100NH:0][100C:0](=O)N2CCCC(n3nc(-c4ccc(Oc5ccc(F)cc5F)cc4)c(C(N)=O)c3N)C2)c(CC)c1

> <Shape>
0.264

> <Color>
0.100

> <Negative vol penalty>
0.000

$$$$

  -OEChem-04042322213D

 86 95  0     1  0  0  0  0  0999 V2000
  -16.8981  -30.4307   23.5416 C   0  0  0  0  0  0  0  0  0  0  0  0
  -18.1458  -31.0458   23.5233 C   0  0  0  0  0  0  0  0  0  0  0  0
  -28.1558  -12.8405   18.5754 C   0  0  0  0  0  0  0  0  0  0  0  0
  -29.2231  -14.0430   20.3787 C   0  0  0  0  0  0  0  0  0  0  0  0
  -16.8001  -29.0505   23.3701 C   0  0  0  0  0  0  0  0  0  0  0  0
  -19.2963  -30.2809   23.3346 C   0  0  0  0  0  0  0  0  0  0  0  0
  -25.8211  -30.6418   20.3998 C   0  0  0  0  0  0  0  0  0  0  0  0
  -30.4671  -23.3258   23.8210 C   0  0  0  0  0  0  0  0  0  0  0  0
  -29.6733  -22.2086   24.0800 C   0  0  0  0  0  0  0  0  0  0  0  0
  -28.9758  -11.7399   18.8240 C   0  0  0  0  0  0  0  0  0  0  0  0
  -30.0431  -12.9424   20.6274 C   0  0  0  0  0  0  0  0  0  0  0  0
  -27.1605  -30.4275   20.7222 C   0  0  0  0  0  0  0  0  0  0  0  0
  -32.1559  -10.8040   18.1642 C   0  0  0  0  0  0  0  0  0  0  0  0
  -32.7434  -10.1736   17.0674 C   0  0  0  0  0  0  0  0  0  0  0  0
  -26.8635  -28.0615   20.3573 C   0  0  0  0  0  0  0  0  0  0  0  0
  -30.0214  -23.0947   21.4577 C   0  0  0  0  0  0  0  0  0  0  0  0
  -31.6242   -8.1138   17.6520 C   0  0  0  0  0  0  0  0  0  0  0  0
  -28.2795  -13.9921   19.3527 C   0  0  0  0  0  0  0  0  0  0  0  0
  -26.0270  -15.1720   19.1486 C   0  0  0  0  0  0  0  0  0  0  0  0
  -17.9492  -28.2695   23.1695 C   0  0  0  0  0  0  0  0  0  0  0  0
  -24.9887  -29.5645   20.0638 C   0  0  0  0  0  0  0  0  0  0  0  0
  -19.2137  -28.8888   23.1616 C   0  0  0  0  0  0  0  0  0  0  0  0
  -25.5146  -28.2651   20.0286 C   0  0  0  0  0  0  0  0  0  0  0  0
  -30.6412  -23.7689   22.5098 C   0  0  0  0  0  0  0  0  0  0  0  0
  -29.0535  -21.5343   23.0279 C   0  0  0  0  0  0  0  0  0  0  0  0
  -29.2275  -21.9774   21.7168 C   0  0  0  0  0  0  0  0  0  0  0  0
  -29.9194  -11.7908   19.8500 C   0  0  0  0  0  0  0  0  0  0  0  0
  -27.6811  -29.1369   20.7038 C   0  0  0  0  0  0  0  0  0  0  0  0
  -31.3026  -10.0893   19.0050 C   0  0  0  0  0  0  0  0  0  0  0  0
  -32.4775   -8.8285   16.8113 C   0  0  0  0  0  0  0  0  0  0  0  0
  -31.0368   -8.7442   18.7488 C   0  0  0  0  0  0  0  0  0  0  0  0
  -27.4331  -15.1296   19.0961 C   0  0  0  0  0  0  0  0  0  0  0  0
  -25.7103  -16.4692   18.8267 C   0  0  0  0  0  0  0  0  0  0  0  0
  -30.0072  -26.8450   21.6425 C   0  0  0  0  0  0  0  0  0  0  0  0
  -25.0908  -14.1319   19.4606 C   0  0  0  0  0  0  0  0  0  0  0  0
  -22.3527  -28.2942   21.3053 C   0  0  0  0  0  0  0  0  0  0  0  0
  -22.4458  -26.4595   18.6318 C   0  0  0  0  0  0  0  0  0  0  0  0
  -24.9638  -24.7333   16.7090 C   0  0  0  0  0  0  0  0  0  0  0  0
  -28.6863  -21.6308   19.2809 C   0  0  0  0  0  0  0  0  0  0  0  0
  -17.7970  -26.7750   23.0359 C   0  0  0  0  0  0  0  0  0  0  0  0
  -23.5529  -29.8155   19.6925 C   0  0  0  0  0  0  0  0  0  0  0  0
  -24.6679  -27.0769   19.6548 C   0  0  0  0  0  0  0  0  0  0  0  0
  -19.0343  -26.0851   22.4673 C   0  0  0  0  0  0  0  0  0  0  0  0
  -30.3671  -27.9672   24.3255 C   0  0  0  0  0  0  0  0  0  0  0  0
  -27.3344  -20.2065   16.3109 C   0  0  0  0  0  0  0  0  0  0  0  0
  -20.2945  -26.5915   23.1618 C   0  0  0  0  0  0  0  0  0  0  0  0
  -30.0099  -28.8786   23.1700 C   0  0  0  0  0  0  0  0  0  0  0  0
  -27.0727  -18.7483   16.6947 C   0  0  0  0  0  0  0  0  0  0  0  0
  -31.2598  -26.8428   23.8318 C   0  0  0  0  0  0  0  0  0  0  0  0
  -28.6081  -20.7441   16.9608 C   0  0  0  0  0  0  0  0  0  0  0  0
  -28.4184  -19.1180   18.8017 C   0  0  0  0  0  0  0  0  0  0  0  0
  -20.4828  -28.0963   22.9347 C   0  0  1  0  0  0  0  0  0  0  0  0
  -29.2562  -28.0794   22.1252 C   0  0  1  0  0  0  0  0  0  1  0  0
  -22.6673  -28.5854   19.8652 C   0  0  1  0  0  0  0  0  0  0  0  0
  -27.1113  -18.5522   18.2230 C   0  0  2  0  0  0  0  0  0  0  0  0
  -28.2095  -20.3400   23.3349 C   0  0  0  0  0  0  0  0  0  0  0  0
  -25.0217  -24.1164   14.2773 C   0  0  0  0  0  0  0  0  0  0  0  0
  -21.3034  -23.7934   19.5788 C   0  0  0  0  0  0  0  0  0  0  0  0
  -22.7452  -22.6517   17.8800 C   0  0  0  0  0  0  0  0  0  0  0  0
  -20.9853  -24.2582   17.1421 C   0  0  0  0  0  0  0  0  0  0  0  0
  -27.5472  -26.1180   16.3000 C   0  0  0  0  0  0  0  0  0  0  0  0
  -31.4957  -24.9717   22.2320 C   0  0  0  0  0  0  0  0  0  0  0  0
  -23.0736  -25.1368   18.2642 C   0  0  1  0  0  0  0  0  0  0  0  0
  -25.4752  -25.1143   15.3315 C   0  0  2  0  0  0  0  0  0  0  0  0
  -22.0384  -23.9770   18.2360 C   0  0  0  0  0  0  0  0  0  0  0  0
  -27.9725  -16.3062   18.7665 N   0  0  0  0  0  0  0  0  0  0  0  0
  -26.8997  -17.1002   18.6091 N   0  0  0  0  0  0  0  0  0  0  0  0
  -30.8207  -26.2134   22.5852 N   0  0  0  0  0  0  0  0  0  0  0  0
  -23.2686  -27.3730   19.3059 N   0  0  0  0  0  0  0  0  0  0  0  0
  -28.5720  -20.5275   18.4088 N   0  0  0  0  0  0  0  0  0  0  0  0
  -24.5333  -17.1201   18.7114 N   0  0  0  0  0  0  0  0  0  0  0  0
  -25.5860  -12.8575   19.7686 N   0  0  0  0  0  0  0  0  0  0  0  0
  -28.6057  -21.3063   20.6347 N   0  0  0  0  0  0  0  0  0  0  0  0
  -21.0055  -28.3458   21.6085 N   0  0  0  0  0  0  0  0  0  0  0  0
  -23.7654  -25.3511   16.9978 N   0  0  0  0  0  0  0  0  0  0  0  0
  -26.9648  -25.1592   15.3261 N   0  3  0  0  0  0  0  0  0  0  0  0
  -29.8257  -26.4239   20.4971 O   0  0  0  0  0  0  0  0  0  0  0  0
  -23.8510  -14.3227   19.4500 O   0  0  0  0  0  0  0  0  0  0  0  0
  -23.2646  -28.0400   22.0835 O   0  0  0  0  0  0  0  0  0  0  0  0
  -21.2709  -26.6772   18.3255 O   0  0  0  0  0  0  0  0  0  0  0  0
  -25.5652  -23.9616   17.4529 O   0  0  0  0  0  0  0  0  0  0  0  0
  -28.8169  -22.7821   18.8573 O   0  0  0  0  0  0  0  0  0  0  0  0
  -30.7196  -10.7169   20.0931 O   0  0  0  0  0  0  0  0  0  0  0  0
  -28.9879  -28.9248   21.0187 O   0  0  0  0  0  0  0  0  0  1  0  0
  -33.0405   -8.2236   15.7571 F   0  0  0  0  0  0  0  0  0  0  0  0
  -30.2169   -8.0528   19.5523 F   0  0  0  0  0  0  0  0  0  0  0  0
  1  2  1  0  0  0  0
  1  5  2  0  0  0  0
  2  6  2  0  0  0  0
  3 10  2  0  0  0  0
  3 18  1  0  0  0  0
  4 11  1  0  0  0  0
  4 18  2  0  0  0  0
  5 20  1  0  0  0  0
  6 22  1  0  0  0  0
  7 12  2  0  0  0  0
  7 21  1  0  0  0  0
  8  9  2  0  0  0  0
  8 24  1  0  0  0  0
  9 25  1  0  0  0  0
 10 27  1  0  0  0  0
 11 27  2  0  0  0  0
 12 28  1  0  0  0  0
 13 14  2  0  0  0  0
 13 29  1  0  0  0  0
 14 30  1  0  0  0  0
 15 23  1  0  0  0  0
 15 28  2  0  0  0  0
 16 24  2  0  0  0  0
 16 26  1  0  0  0  0
 17 30  2  0  0  0  0
 17 31  1  0  0  0  0
 18 32  1  0  0  0  0
 19 32  1  0  0  0  0
 19 33  2  0  0  0  0
 19 35  1  0  0  0  0
 20 22  2  0  0  0  0
 20 40  1  0  0  0  0
 21 23  2  0  0  0  0
 21 41  1  0  0  0  0
 22 52  1  0  0  0  0
 23 42  1  0  0  0  0
 24 62  1  0  0  0  0
 25 26  2  0  0  0  0
 25 56  1  0  0  0  0
 26 73  1  0  0  0  0
 27 83  1  0  0  0  0
 28 84  1  0  0  0  0
 29 31  2  0  0  0  0
 29 83  1  0  0  0  0
 30 85  1  0  0  0  0
 31 86  1  0  0  0  0
 32 66  2  0  0  0  0
 33 67  1  0  0  0  0
 33 71  1  0  0  0  0
 34 53  1  0  0  0  0
 34 68  1  0  0  0  0
 34 77  2  0  0  0  0
 35 72  1  0  0  0  0
 35 78  2  0  0  0  0
 36 54  1  0  0  0  0
 36 74  1  0  0  0  0
 36 79  2  0  0  0  0
 37 63  1  0  0  0  0
 37 69  1  0  0  0  0
 37 80  2  0  0  0  0
 38 64  1  0  0  0  0
 38 75  1  0  0  0  0
 38 81  2  0  0  0  0
 39 70  1  0  0  0  0
 39 73  1  0  0  0  0
 39 82  2  0  0  0  0
 40 43  1  0  0  0  0
 41 54  1  0  0  0  0
 42 69  1  0  0  0  0
 43 46  1  0  0  0  0
 44 47  1  0  0  0  0
 44 49  1  0  0  0  0
 45 48  1  0  0  0  0
 45 50  1  0  0  0  0
 46 52  1  0  0  0  0
 47 53  1  0  0  0  0
 48 55  1  0  0  0  0
 49 68  1  0  0  0  0
 50 70  1  0  0  0  0
 51 55  1  0  0  0  0
 51 70  1  0  0  0  0
 52 74  1  0  0  0  0
 53 84  1  0  0  0  0
 54 69  1  0  0  0  0
 55 67  1  0  0  0  0
 57 64  1  0  0  0  0
 58 65  1  0  0  0  0
 59 65  1  0  0  0  0
 60 65  1  0  0  0  0
 61 76  1  0  0  0  0
 62 68  1  0  0  0  0
 63 65  1  0  0  0  0
 63 75  1  0  0  0  0
 64 76  1  0  0  0  0
 66 67  1  0  0  0  0
M  CHG  1  76   1
M  ISO  4  39 100  53 101  73 100  84 101
M  END
> <Batch ID>
0045

> <Smiles>
CNC(C)C(=O)NC(C(=O)N1Cc2cc([101O:1][101CH:1]3CCCN(Cc4ccc(C)c([100NH:0][100C:0](=O)N5CCCC(n6nc(-c7ccc(Oc8ccc(F)cc8F)cc7)c(C(N)=O)c6N)C5)c4)C3=O)ccc2CC1C(=O)NC1CCCc2ccccc21)C(C)(C)C

> <Shape>
0.241

> <Color>
0.084

> <Negative vol penalty>
0.000

$$$$

  -OEChem-04042322213D

 86 95  0     1  0  0  0  0  0999 V2000
  -30.1324  -13.0803   19.0243 C   0  0  0  0  0  0  0  0  0  0  0  0
  -29.2462  -13.7612   18.1958 C   0  0  0  0  0  0  0  0  0  0  0  0
  -18.7761  -28.3675   23.3649 C   0  0  0  0  0  0  0  0  0  0  0  0
  -27.8211  -23.2069   18.5770 C   0  0  0  0  0  0  0  0  0  0  0  0
  -29.0352  -23.6693   20.6139 C   0  0  0  0  0  0  0  0  0  0  0  0
  -29.6933  -12.5749   20.2473 C   0  0  0  0  0  0  0  0  0  0  0  0
  -27.9199  -13.9360   18.5893 C   0  0  0  0  0  0  0  0  0  0  0  0
  -23.7570  -20.5008   19.3649 C   0  0  0  0  0  0  0  0  0  0  0  0
  -19.6418  -29.0966   22.5497 C   0  0  0  0  0  0  0  0  0  0  0  0
  -18.7620  -26.9743   23.2973 C   0  0  0  0  0  0  0  0  0  0  0  0
  -28.0360  -21.8408   18.7589 C   0  0  0  0  0  0  0  0  0  0  0  0
  -29.2501  -22.3031   20.7959 C   0  0  0  0  0  0  0  0  0  0  0  0
  -22.9663  -21.6030   19.6904 C   0  0  0  0  0  0  0  0  0  0  0  0
  -27.5024  -19.6358   21.9145 C   0  0  0  0  0  0  0  0  0  0  0  0
  -27.2968  -19.1134   23.1914 C   0  0  0  0  0  0  0  0  0  0  0  0
  -21.7421  -20.2658   21.2906 C   0  0  0  0  0  0  0  0  0  0  0  0
  -29.6013  -18.3918   23.2671 C   0  0  0  0  0  0  0  0  0  0  0  0
  -28.3208  -24.1212   19.5045 C   0  0  0  0  0  0  0  0  0  0  0  0
  -28.5141  -26.3203   18.2261 C   0  0  0  0  0  0  0  0  0  0  0  0
  -28.3634  -12.7520   20.6603 C   0  0  0  0  0  0  0  0  0  0  0  0
  -23.5531  -19.2793   20.0129 C   0  0  0  0  0  0  0  0  0  0  0  0
  -27.4623  -13.4313   19.8184 C   0  0  0  0  0  0  0  0  0  0  0  0
  -22.5392  -19.1615   20.9777 C   0  0  0  0  0  0  0  0  0  0  0  0
  -20.4933  -28.4325   21.6667 C   0  0  0  0  0  0  0  0  0  0  0  0
  -20.4791  -27.0393   21.5990 C   0  0  0  0  0  0  0  0  0  0  0  0
  -19.6135  -26.3102   22.4143 C   0  0  0  0  0  0  0  0  0  0  0  0
  -28.7504  -21.3889   19.8684 C   0  0  0  0  0  0  0  0  0  0  0  0
  -21.9612  -21.4857   20.6507 C   0  0  0  0  0  0  0  0  0  0  0  0
  -28.7574  -19.5361   21.3139 C   0  0  0  0  0  0  0  0  0  0  0  0
  -28.3463  -18.4914   23.8677 C   0  0  0  0  0  0  0  0  0  0  0  0
  -29.8069  -18.9141   21.9902 C   0  0  0  0  0  0  0  0  0  0  0  0
  -28.0996  -25.5326   19.3167 C   0  0  0  0  0  0  0  0  0  0  0  0
  -28.0623  -27.5829   18.5232 C   0  0  0  0  0  0  0  0  0  0  0  0
  -20.7320  -24.1094   22.6523 C   0  0  0  0  0  0  0  0  0  0  0  0
  -29.2422  -25.9444   17.0496 C   0  0  0  0  0  0  0  0  0  0  0  0
  -24.6071  -15.7007   20.4108 C   0  0  0  0  0  0  0  0  0  0  0  0
  -24.0086  -16.7712   23.2226 C   0  0  0  0  0  0  0  0  0  0  0  0
  -23.6565  -18.4520   26.1702 C   0  0  0  0  0  0  0  0  0  0  0  0
  -23.5846  -29.6121   21.9413 C   0  0  0  0  0  0  0  0  0  0  0  0
  -27.9232  -12.1467   21.9697 C   0  0  0  0  0  0  0  0  0  0  0  0
  -24.3402  -18.0495   19.6501 C   0  0  0  0  0  0  0  0  0  0  0  0
  -22.3330  -17.8189   21.6242 C   0  0  0  0  0  0  0  0  0  0  0  0
  -26.5958  -12.7006   22.4811 C   0  0  0  0  0  0  0  0  0  0  0  0
  -18.3160  -22.8234   21.6101 C   0  0  0  0  0  0  0  0  0  0  0  0
  -27.0402  -30.4157   22.2409 C   0  0  0  0  0  0  0  0  0  0  0  0
  -25.5652  -12.7395   21.3572 C   0  0  0  0  0  0  0  0  0  0  0  0
  -19.3210  -21.9896   22.3768 C   0  0  0  0  0  0  0  0  0  0  0  0
  -27.7409  -29.3264   21.4271 C   0  0  0  0  0  0  0  0  0  0  0  0
  -18.2662  -24.2243   22.1959 C   0  0  0  0  0  0  0  0  0  0  0  0
  -25.8190  -29.8713   22.9788 C   0  0  0  0  0  0  0  0  0  0  0  0
  -25.5448  -28.0763   21.3125 C   0  0  0  0  0  0  0  0  0  0  0  0
  -26.0221  -13.6629   20.2214 C   0  0  1  0  0  0  0  0  0  0  0  0
  -20.6886  -22.6340   22.2940 C   0  0  1  0  0  0  0  0  0  1  0  0
  -24.6186  -17.1337   20.8555 C   0  0  1  0  0  0  0  0  0  0  0  0
  -26.7499  -28.5896   20.5060 C   0  0  2  0  0  0  0  0  0  0  0  0
  -21.3947  -26.3313   20.6501 C   0  0  0  0  0  0  0  0  0  0  0  0
  -23.7603  -18.1146   28.6547 C   0  0  0  0  0  0  0  0  0  0  0  0
  -21.2889  -15.3925   23.1453 C   0  0  0  0  0  0  0  0  0  0  0  0
  -21.0228  -15.9376   25.5744 C   0  0  0  0  0  0  0  0  0  0  0  0
  -22.8859  -14.4567   24.8270 C   0  0  0  0  0  0  0  0  0  0  0  0
  -25.8651  -20.4007   26.4593 C   0  0  0  0  0  0  0  0  0  0  0  0
  -21.4102  -29.2374   20.8051 C   0  0  0  0  0  0  0  0  0  0  0  0
  -22.9928  -16.9323   24.3251 C   0  0  1  0  0  0  0  0  0  0  0  0
  -24.5343  -18.5115   27.4072 C   0  0  2  0  0  0  0  0  0  0  0  0
  -22.0523  -15.7004   24.4489 C   0  0  0  0  0  0  0  0  0  0  0  0
  -27.4357  -26.2358   20.2380 N   0  0  0  0  0  0  0  0  0  0  0  0
  -27.4297  -27.4788   19.7270 N   0  0  0  0  0  0  0  0  0  0  0  0
  -19.5822  -24.8645   22.3614 N   0  0  0  0  0  0  0  0  0  0  0  0
  -23.6336  -17.2120   21.9476 N   0  0  0  0  0  0  0  0  0  0  0  0
  -24.9187  -29.1859   22.0485 N   0  0  0  0  0  0  0  0  0  0  0  0
  -28.1486  -28.7609   17.8696 N   0  0  0  0  0  0  0  0  0  0  0  0
  -30.6418  -26.0123   17.0799 N   0  0  0  0  0  0  0  0  0  0  0  0
  -25.8135  -15.0489   20.5818 N   0  0  0  0  0  0  0  0  0  0  0  0
  -23.7490  -17.2309   25.5365 N   0  0  0  0  0  0  0  0  0  0  0  0
  -22.8008  -28.9125   21.0319 N   0  0  0  0  0  0  0  0  0  0  0  0
  -25.0631  -19.8912   27.6013 N   0  3  0  0  0  0  0  0  0  0  0  0
  -21.7799  -24.5588   23.1261 O   0  0  0  0  0  0  0  0  0  0  0  0
  -28.6681  -25.5753   15.9972 O   0  0  0  0  0  0  0  0  0  0  0  0
  -23.5794  -15.2200   19.9478 O   0  0  0  0  0  0  0  0  0  0  0  0
  -25.1036  -16.2635   23.4808 O   0  0  0  0  0  0  0  0  0  0  0  0
  -22.9557  -19.3933   25.8048 O   0  0  0  0  0  0  0  0  0  0  0  0
  -23.1273  -30.5503   22.6028 O   0  0  0  0  0  0  0  0  0  0  0  0
  -28.9601  -20.0559   20.0464 O   0  0  0  0  0  0  0  0  0  0  0  0
  -21.1959  -22.5670   20.9669 O   0  0  0  0  0  0  0  0  0  1  0  0
  -28.1491  -17.9912   25.0945 F   0  0  0  0  0  0  0  0  0  0  0  0
  -31.0151  -18.8164   21.4188 F   0  0  0  0  0  0  0  0  0  0  0  0
  1  2  1  0  0  0  0
  1  6  2  0  0  0  0
  2  7  2  0  0  0  0
  3  9  1  0  0  0  0
  3 10  2  0  0  0  0
  4 11  2  0  0  0  0
  4 18  1  0  0  0  0
  5 12  1  0  0  0  0
  5 18  2  0  0  0  0
  6 20  1  0  0  0  0
  7 22  1  0  0  0  0
  8 13  2  0  0  0  0
  8 21  1  0  0  0  0
  9 24  2  0  0  0  0
 10 26  1  0  0  0  0
 11 27  1  0  0  0  0
 12 27  2  0  0  0  0
 13 28  1  0  0  0  0
 14 15  2  0  0  0  0
 14 29  1  0  0  0  0
 15 30  1  0  0  0  0
 16 23  1  0  0  0  0
 16 28  2  0  0  0  0
 17 30  2  0  0  0  0
 17 31  1  0  0  0  0
 18 32  1  0  0  0  0
 19 32  1  0  0  0  0
 19 33  2  0  0  0  0
 19 35  1  0  0  0  0
 20 22  2  0  0  0  0
 20 40  1  0  0  0  0
 21 23  2  0  0  0  0
 21 41  1  0  0  0  0
 22 52  1  0  0  0  0
 23 42  1  0  0  0  0
 24 25  1  0  0  0  0
 24 62  1  0  0  0  0
 25 26  2  0  0  0  0
 25 56  1  0  0  0  0
 26 68  1  0  0  0  0
 27 83  1  0  0  0  0
 28 84  1  0  0  0  0
 29 31  2  0  0  0  0
 29 83  1  0  0  0  0
 30 85  1  0  0  0  0
 31 86  1  0  0  0  0
 32 66  2  0  0  0  0
 33 67  1  0  0  0  0
 33 71  1  0  0  0  0
 34 53  1  0  0  0  0
 34 68  1  0  0  0  0
 34 77  2  0  0  0  0
 35 72  1  0  0  0  0
 35 78  2  0  0  0  0
 36 54  1  0  0  0  0
 36 73  1  0  0  0  0
 36 79  2  0  0  0  0
 37 63  1  0  0  0  0
 37 69  1  0  0  0  0
 37 80  2  0  0  0  0
 38 64  1  0  0  0  0
 38 74  1  0  0  0  0
 38 81  2  0  0  0  0
 39 70  1  0  0  0  0
 39 75  1  0  0  0  0
 39 82  2  0  0  0  0
 40 43  1  0  0  0  0
 41 54  1  0  0  0  0
 42 69  1  0  0  0  0
 43 46  1  0  0  0  0
 44 47  1  0  0  0  0
 44 49  1  0  0  0  0
 45 48  1  0  0  0  0
 45 50  1  0  0  0  0
 46 52  1  0  0  0  0
 47 53  1  0  0  0  0
 48 55  1  0  0  0  0
 49 68  1  0  0  0  0
 50 70  1  0  0  0  0
 51 55  1  0  0  0  0
 51 70  1  0  0  0  0
 52 73  1  0  0  0  0
 53 84  1  0  0  0  0
 54 69  1  0  0  0  0
 55 67  1  0  0  0  0
 57 64  1  0  0  0  0
 58 65  1  0  0  0  0
 59 65  1  0  0  0  0
 60 65  1  0  0  0  0
 61 76  1  0  0  0  0
 62 75  1  0  0  0  0
 63 65  1  0  0  0  0
 63 74  1  0  0  0  0
 64 76  1  0  0  0  0
 66 67  1  0  0  0  0
M  CHG  1  76   1
M  ISO  4  39 100  53 101  75 100  84 101
M  END
> <Batch ID>
0045

> <Smiles>
CNC(C)C(=O)NC(C(=O)N1Cc2cc([101O:1][101CH:1]3CCCN(c4cccc(C[100NH:0][100C:0](=O)N5CCCC(n6nc(-c7ccc(Oc8ccc(F)cc8F)cc7)c(C(N)=O)c6N)C5)c4C)C3=O)ccc2CC1C(=O)NC1CCCc2ccccc21)C(C)(C)C

> <Shape>
0.222

> <Color>
0.072

> <Negative vol penalty>
0.000

$$$$

  -OEChem-04042322213D

 84 92  0     1  0  0  0  0  0999 V2000
  -24.4753  -35.4921   21.3484 C   0  0  0  0  0  0  0  0  0  0  0  0
  -25.2837  -34.3611   21.4000 C   0  0  0  0  0  0  0  0  0  0  0  0
  -23.4480  -11.8640   20.9272 C   0  0  0  0  0  0  0  0  0  0  0  0
  -25.7912  -11.5777   21.4416 C   0  0  0  0  0  0  0  0  0  0  0  0
  -23.1915  -35.4553   21.8911 C   0  0  0  0  0  0  0  0  0  0  0  0
  -24.8092  -33.1929   21.9953 C   0  0  0  0  0  0  0  0  0  0  0  0
  -25.8287  -29.0611   19.2504 C   0  0  0  0  0  0  0  0  0  0  0  0
  -31.1248  -18.7897   20.7113 C   0  0  0  0  0  0  0  0  0  0  0  0
  -31.4730  -19.7304   21.6806 C   0  0  0  0  0  0  0  0  0  0  0  0
  -23.3174  -10.4860   20.7549 C   0  0  0  0  0  0  0  0  0  0  0  0
  -25.6606  -10.1997   21.2694 C   0  0  0  0  0  0  0  0  0  0  0  0
  -27.1274  -28.5581   19.3153 C   0  0  0  0  0  0  0  0  0  0  0  0
  -22.2851   -7.0075   20.5331 C   0  0  0  0  0  0  0  0  0  0  0  0
  -21.1803   -6.3833   21.1122 C   0  0  0  0  0  0  0  0  0  0  0  0
  -26.3931  -26.8815   20.8865 C   0  0  0  0  0  0  0  0  0  0  0  0
  -30.9566  -20.5492   19.0642 C   0  0  0  0  0  0  0  0  0  0  0  0
  -21.9062   -7.1231   23.2946 C   0  0  0  0  0  0  0  0  0  0  0  0
  -24.6849  -12.4099   21.2704 C   0  0  0  0  0  0  0  0  0  0  0  0
  -24.6480  -14.5616   22.6403 C   0  0  0  0  0  0  0  0  0  0  0  0
  -22.6975  -34.2831   22.4848 C   0  0  0  0  0  0  0  0  0  0  0  0
  -24.8030  -28.4840   20.0128 C   0  0  0  0  0  0  0  0  0  0  0  0
  -23.5181  -33.1407   22.5477 C   0  0  0  0  0  0  0  0  0  0  0  0
  -25.0817  -27.3774   20.8276 C   0  0  0  0  0  0  0  0  0  0  0  0
  -30.8666  -19.1992   19.4031 C   0  0  0  0  0  0  0  0  0  0  0  0
  -31.5630  -21.0805   21.3417 C   0  0  0  0  0  0  0  0  0  0  0  0
  -31.3048  -21.4899   20.0335 C   0  0  0  0  0  0  0  0  0  0  0  0
  -24.4237   -9.6539   20.9261 C   0  0  0  0  0  0  0  0  0  0  0  0
  -27.4103  -27.4700   20.1356 C   0  0  0  0  0  0  0  0  0  0  0  0
  -23.2006   -7.6893   21.3348 C   0  0  0  0  0  0  0  0  0  0  0  0
  -20.9908   -6.4411   22.4929 C   0  0  0  0  0  0  0  0  0  0  0  0
  -23.0111   -7.7472   22.7155 C   0  0  0  0  0  0  0  0  0  0  0  0
  -24.8205  -13.8333   21.4479 C   0  0  0  0  0  0  0  0  0  0  0  0
  -24.8866  -15.8663   22.2833 C   0  0  0  0  0  0  0  0  0  0  0  0
  -24.3029  -14.1000   23.9531 C   0  0  0  0  0  0  0  0  0  0  0  0
  -22.8829  -29.5072   22.3300 C   0  0  0  0  0  0  0  0  0  0  0  0
  -21.5088  -26.5941   21.9452 C   0  0  0  0  0  0  0  0  0  0  0  0
  -30.0920  -25.0457   19.8532 C   0  0  0  0  0  0  0  0  0  0  0  0
  -21.8218  -23.3570   20.9110 C   0  0  0  0  0  0  0  0  0  0  0  0
  -28.0684  -18.3700   17.8722 C   0  0  0  0  0  0  0  0  0  0  0  0
  -21.3207  -34.3056   23.1000 C   0  0  0  0  0  0  0  0  0  0  0  0
  -23.4019  -29.0215   19.9112 C   0  0  0  0  0  0  0  0  0  0  0  0
  -24.0118  -26.7090   21.6505 C   0  0  0  0  0  0  0  0  0  0  0  0
  -20.7554  -32.9153   23.3791 C   0  0  0  0  0  0  0  0  0  0  0  0
  -24.6032  -18.8369   18.5435 C   0  0  0  0  0  0  0  0  0  0  0  0
  -21.8023  -32.0405   24.0613 C   0  0  0  0  0  0  0  0  0  0  0  0
  -24.2504  -17.6732   19.4716 C   0  0  0  0  0  0  0  0  0  0  0  0
  -25.6225  -18.4245   17.4838 C   0  0  0  0  0  0  0  0  0  0  0  0
  -26.4986  -16.6417   18.9425 C   0  0  0  0  0  0  0  0  0  0  0  0
  -23.0300  -31.8472   23.1630 C   0  0  1  0  0  0  0  0  0  0  0  0
  -22.5413  -28.6794   21.1235 C   0  0  1  0  0  0  0  0  0  0  0  0
  -25.5161  -17.0238   20.0627 C   0  0  2  0  0  0  0  0  0  0  0  0
  -31.9364  -22.0694   22.3968 C   0  0  0  0  0  0  0  0  0  0  0  0
  -20.5397  -21.2052   20.7578 C   0  0  0  0  0  0  0  0  0  0  0  0
  -21.8826  -26.1607   24.9423 C   0  0  0  0  0  0  0  0  0  0  0  0
  -21.4862  -23.7172   24.5677 C   0  0  0  0  0  0  0  0  0  0  0  0
  -19.6903  -25.3658   24.0387 C   0  0  0  0  0  0  0  0  0  0  0  0
  -22.0634  -23.2883   17.9622 C   0  0  0  0  0  0  0  0  0  0  0  0
  -30.4939  -18.1933   18.3671 C   0  0  0  0  0  0  0  0  0  0  0  0
  -31.3950  -22.9375   19.6456 C   0  0  0  0  0  0  0  0  0  0  0  0
  -28.8189  -25.5833   20.4709 C   0  0  0  0  0  0  0  0  0  1  0  0
  -21.7228  -25.2240   22.5417 C   0  0  1  0  0  0  0  0  0  0  0  0
  -20.9330  -22.4872   20.0404 C   0  0  2  0  0  0  0  0  0  0  0  0
  -21.2163  -25.1305   24.0087 C   0  0  0  0  0  0  0  0  0  0  0  0
  -25.1436  -14.6108   20.4110 N   0  0  0  0  0  0  0  0  0  0  0  0
  -25.1759  -15.8412   20.9507 N   0  0  0  0  0  0  0  0  0  0  0  0
  -22.6589  -27.2752   21.5220 N   0  0  0  0  0  0  0  0  0  0  0  0
  -26.7992  -17.8172   18.1101 N   0  0  0  0  0  0  0  0  0  0  0  0
  -24.8749  -17.0210   22.9825 N   0  0  0  0  0  0  0  0  0  0  0  0
  -24.0924  -12.7277   24.1450 N   0  0  0  0  0  0  0  0  0  0  0  0
  -22.7536  -30.8688   22.1330 N   0  0  0  0  0  0  0  0  0  0  0  0
  -30.2600  -23.6957   20.1187 N   0  0  0  0  0  0  0  0  0  0  0  0
  -21.0892  -24.2781   21.6294 N   0  0  0  0  0  0  0  0  0  0  0  0
  -29.1290  -17.7375   18.5092 N   0  0  0  0  0  0  0  0  0  0  0  0
  -21.6396  -22.1227   18.7800 N   0  3  0  0  0  0  0  0  0  0  0  0
  -24.1687  -14.8833   24.9237 O   0  0  0  0  0  0  0  0  0  0  0  0
  -23.2361  -28.9517   23.3637 O   0  0  0  0  0  0  0  0  0  0  0  0
  -20.3627  -27.0406   21.8516 O   0  0  0  0  0  0  0  0  0  0  0  0
  -30.8623  -25.7468   19.2026 O   0  0  0  0  0  0  0  0  0  0  0  0
  -23.0435  -23.2293   20.9527 O   0  0  0  0  0  0  0  0  0  0  0  0
  -28.2428  -19.3574   17.1500 O   0  0  0  0  0  0  0  0  0  0  0  0
  -24.2966   -8.3091   20.7583 O   0  0  0  0  0  0  0  0  0  0  0  0
  -28.6772  -26.9774   20.2013 O   0  0  0  0  0  0  0  0  0  1  0  0
  -19.9289   -5.8431   23.0487 F   0  0  0  0  0  0  0  0  0  0  0  0
  -23.8866   -8.4018   23.4907 F   0  0  0  0  0  0  0  0  0  0  0  0
  1  2  1  0  0  0  0
  1  5  2  0  0  0  0
  2  6  2  0  0  0  0
  3 10  2  0  0  0  0
  3 18  1  0  0  0  0
  4 11  1  0  0  0  0
  4 18  2  0  0  0  0
  5 20  1  0  0  0  0
  6 22  1  0  0  0  0
  7 12  2  0  0  0  0
  7 21  1  0  0  0  0
  8  9  2  0  0  0  0
  8 24  1  0  0  0  0
  9 25  1  0  0  0  0
 10 27  1  0  0  0  0
 11 27  2  0  0  0  0
 12 28  1  0  0  0  0
 13 14  2  0  0  0  0
 13 29  1  0  0  0  0
 14 30  1  0  0  0  0
 15 23  1  0  0  0  0
 15 28  2  0  0  0  0
 16 24  2  0  0  0  0
 16 26  1  0  0  0  0
 17 30  2  0  0  0  0
 17 31  1  0  0  0  0
 18 32  1  0  0  0  0
 19 32  1  0  0  0  0
 19 33  2  0  0  0  0
 19 34  1  0  0  0  0
 20 22  2  0  0  0  0
 20 40  1  0  0  0  0
 21 23  2  0  0  0  0
 21 41  1  0  0  0  0
 22 49  1  0  0  0  0
 23 42  1  0  0  0  0
 24 58  1  0  0  0  0
 25 26  2  0  0  0  0
 25 52  1  0  0  0  0
 26 59  1  0  0  0  0
 27 81  1  0  0  0  0
 28 82  1  0  0  0  0
 29 31  2  0  0  0  0
 29 81  1  0  0  0  0
 30 83  1  0  0  0  0
 31 84  1  0  0  0  0
 32 64  2  0  0  0  0
 33 65  1  0  0  0  0
 33 68  1  0  0  0  0
 34 69  1  0  0  0  0
 34 75  2  0  0  0  0
 35 50  1  0  0  0  0
 35 70  1  0  0  0  0
 35 76  2  0  0  0  0
 36 61  1  0  0  0  0
 36 66  1  0  0  0  0
 36 77  2  0  0  0  0
 37 60  1  0  0  0  0
 37 71  1  0  0  0  0
 37 78  2  0  0  0  0
 38 62  1  0  0  0  0
 38 72  1  0  0  0  0
 38 79  2  0  0  0  0
 39 67  1  0  0  0  0
 39 73  1  0  0  0  0
 39 80  2  0  0  0  0
 40 43  1  0  0  0  0
 41 50  1  0  0  0  0
 42 66  1  0  0  0  0
 43 45  1  0  0  0  0
 44 46  1  0  0  0  0
 44 47  1  0  0  0  0
 45 49  1  0  0  0  0
 46 51  1  0  0  0  0
 47 67  1  0  0  0  0
 48 51  1  0  0  0  0
 48 67  1  0  0  0  0
 49 70  1  0  0  0  0
 50 66  1  0  0  0  0
 51 65  1  0  0  0  0
 53 62  1  0  0  0  0
 54 63  1  0  0  0  0
 55 63  1  0  0  0  0
 56 63  1  0  0  0  0
 57 74  1  0  0  0  0
 58 73  1  0  0  0  0
 59 71  1  0  0  0  0
 60 82  1  0  0  0  0
 61 63  1  0  0  0  0
 61 72  1  0  0  0  0
 62 74  1  0  0  0  0
 64 65  1  0  0  0  0
M  CHG  1  74   1
M  ISO  4  39 100  60 101  73 100  82 101
M  END
> <Batch ID>
0045

> <Smiles>
CNC(C)C(=O)NC(C(=O)N1Cc2cc([101O:1][101CH2:1]C(=O)NCc3cc(C[100NH:0][100C:0](=O)N4CCCC(n5nc(-c6ccc(Oc7ccc(F)cc7F)cc6)c(C(N)=O)c5N)C4)ccc3C)ccc2CC1C(=O)NC1CCCc2ccccc21)C(C)(C)C

> <Shape>
0.218

> <Color>
0.082

> <Negative vol penalty>
0.000

$$$$

  -OEChem-04042322213D

 86 95  0     1  0  0  0  0  0999 V2000
  -16.5633  -29.4958   24.0742 C   0  0  0  0  0  0  0  0  0  0  0  0
  -16.9582  -28.6760   23.0218 C   0  0  0  0  0  0  0  0  0  0  0  0
  -27.1889  -12.9975   20.3367 C   0  0  0  0  0  0  0  0  0  0  0  0
  -27.5165  -13.6055   22.6519 C   0  0  0  0  0  0  0  0  0  0  0  0
  -17.3960  -30.5289   24.5019 C   0  0  0  0  0  0  0  0  0  0  0  0
  -18.1857  -28.8897   22.3957 C   0  0  0  0  0  0  0  0  0  0  0  0
  -23.4968  -25.3340   19.1608 C   0  0  0  0  0  0  0  0  0  0  0  0
  -30.5685  -22.7453   17.0111 C   0  0  0  0  0  0  0  0  0  0  0  0
  -31.0560  -21.8256   17.9395 C   0  0  0  0  0  0  0  0  0  0  0  0
  -25.8748  -12.6257   20.6203 C   0  0  0  0  0  0  0  0  0  0  0  0
  -26.2023  -13.2337   22.9355 C   0  0  0  0  0  0  0  0  0  0  0  0
  -24.2307  -25.3387   17.9755 C   0  0  0  0  0  0  0  0  0  0  0  0
  -24.2763   -9.9890   22.0048 C   0  0  0  0  0  0  0  0  0  0  0  0
  -23.8162   -8.7832   21.4756 C   0  0  0  0  0  0  0  0  0  0  0  0
  -25.6220  -27.1042   18.8511 C   0  0  0  0  0  0  0  0  0  0  0  0
  -30.2719  -20.0096   16.5524 C   0  0  0  0  0  0  0  0  0  0  0  0
  -22.0849   -9.9693   20.2786 C   0  0  0  0  0  0  0  0  0  0  0  0
  -28.0098  -13.4874   21.3525 C   0  0  0  0  0  0  0  0  0  0  0  0
  -30.3904  -13.0522   20.5458 C   0  0  0  0  0  0  0  0  0  0  0  0
  -18.6386  -30.7494   23.8871 C   0  0  0  0  0  0  0  0  0  0  0  0
  -23.8136  -26.2232   20.1977 C   0  0  0  0  0  0  0  0  0  0  0  0
  -19.0352  -29.9277   22.8147 C   0  0  0  0  0  0  0  0  0  0  0  0
  -24.8922  -27.1069   20.0496 C   0  0  0  0  0  0  0  0  0  0  0  0
  -29.9326  -22.2972   15.8533 C   0  0  0  0  0  0  0  0  0  0  0  0
  -29.7843  -20.9293   15.6239 C   0  0  0  0  0  0  0  0  0  0  0  0
  -30.9078  -20.4578   17.7102 C   0  0  0  0  0  0  0  0  0  0  0  0
  -25.3815  -12.7438   21.9196 C   0  0  0  0  0  0  0  0  0  0  0  0
  -25.2917  -26.2259   17.8193 C   0  0  0  0  0  0  0  0  0  0  0  0
  -23.6407  -11.1849   21.6710 C   0  0  0  0  0  0  0  0  0  0  0  0
  -22.7205   -8.7734   20.6124 C   0  0  0  0  0  0  0  0  0  0  0  0
  -22.5450  -11.1751   20.8078 C   0  0  0  0  0  0  0  0  0  0  0  0
  -29.3675  -13.8711   21.0604 C   0  0  0  0  0  0  0  0  0  0  0  0
  -31.4800  -13.8829   20.4501 C   0  0  0  0  0  0  0  0  0  0  0  0
  -27.7071  -24.6722   16.0037 C   0  0  0  0  0  0  0  0  0  0  0  0
  -30.3585  -11.6645   20.1864 C   0  0  0  0  0  0  0  0  0  0  0  0
  -22.2832  -28.5879   21.6709 C   0  0  0  0  0  0  0  0  0  0  0  0
  -24.9032  -28.5702   23.5833 C   0  0  0  0  0  0  0  0  0  0  0  0
  -28.4722  -28.2561   23.1576 C   0  0  0  0  0  0  0  0  0  0  0  0
  -32.0619  -19.7996   19.8505 C   0  0  0  0  0  0  0  0  0  0  0  0
  -19.4837  -31.9084   24.3531 C   0  0  0  0  0  0  0  0  0  0  0  0
  -23.0290  -26.1871   21.4805 C   0  0  0  0  0  0  0  0  0  0  0  0
  -25.2857  -28.0678   21.1406 C   0  0  0  0  0  0  0  0  0  0  0  0
  -20.9340  -31.8328   23.8826 C   0  0  0  0  0  0  0  0  0  0  0  0
  -29.6472  -26.8496   16.2899 C   0  0  0  0  0  0  0  0  0  0  0  0
  -33.4046  -17.7813   22.4584 C   0  0  0  0  0  0  0  0  0  0  0  0
  -20.9963  -31.4855   22.3986 C   0  0  0  0  0  0  0  0  0  0  0  0
  -28.1656  -27.1610   16.2577 C   0  0  0  0  0  0  0  0  0  0  0  0
  -32.6190  -16.4728   22.3451 C   0  0  0  0  0  0  0  0  0  0  0  0
  -29.9403  -25.6673   15.3836 C   0  0  0  0  0  0  0  0  0  0  0  0
  -32.5295  -18.9962   22.1551 C   0  0  0  0  0  0  0  0  0  0  0  0
  -31.0238  -17.6305   20.7633 C   0  0  0  0  0  0  0  0  0  0  0  0
  -20.3703  -30.1124   22.1265 C   0  0  1  0  0  0  0  0  0  0  0  0
  -27.3965  -25.9561   16.7627 C   0  0  1  0  0  0  0  0  0  1  0  0
  -23.1150  -27.4895   22.2704 C   0  0  1  0  0  0  0  0  0  0  0  0
  -31.8793  -16.3745   20.9965 C   0  0  2  0  0  0  0  0  0  0  0  0
  -29.1089  -20.4263   14.3905 C   0  0  0  0  0  0  0  0  0  0  0  0
  -30.2343  -27.4072   24.7297 C   0  0  0  0  0  0  0  0  0  0  0  0
  -25.2261  -31.5068   24.3463 C   0  0  0  0  0  0  0  0  0  0  0  0
  -27.6954  -31.1232   24.5002 C   0  0  0  0  0  0  0  0  0  0  0  0
  -26.1463  -29.8879   26.0158 C   0  0  0  0  0  0  0  0  0  0  0  0
  -29.4356  -26.2676   21.1886 C   0  0  0  0  0  0  0  0  0  0  0  0
  -29.4154  -23.3061   14.8690 C   0  0  0  0  0  0  0  0  0  0  0  0
  -26.2433  -29.2652   23.5673 C   0  0  1  0  0  0  0  0  0  0  0  0
  -29.3335  -27.0698   23.5518 C   0  0  2  0  0  0  0  0  0  0  0  0
  -26.3137  -30.4400   24.5833 C   0  0  0  0  0  0  0  0  0  0  0  0
  -29.7712  -15.1258   21.2766 N   0  0  0  0  0  0  0  0  0  0  0  0
  -31.0599  -15.1015   20.8961 N   0  0  0  0  0  0  0  0  0  0  0  0
  -29.0105  -24.5449   15.5200 N   0  0  0  0  0  0  0  0  0  0  0  0
  -24.4841  -27.9986   22.3736 N   0  0  0  0  0  0  0  0  0  0  0  0
  -31.8639  -18.8345   20.8606 N   0  0  0  0  0  0  0  0  0  0  0  0
  -32.7468  -13.6827   20.0289 N   0  0  0  0  0  0  0  0  0  0  0  0
  -29.1577  -10.9600   20.3478 N   0  0  0  0  0  0  0  0  0  0  0  0
  -31.4047  -19.5231   18.6521 N   0  0  0  0  0  0  0  0  0  0  0  0
  -21.2850  -29.0562   22.5038 N   0  0  0  0  0  0  0  0  0  0  0  0
  -27.2444  -28.2265   23.7845 N   0  0  0  0  0  0  0  0  0  0  0  0
  -30.1923  -26.6505   22.4083 N   0  3  0  0  0  0  0  0  0  0  0  0
  -26.8467  -23.7937   15.9041 O   0  0  0  0  0  0  0  0  0  0  0  0
  -31.3695  -11.0630   19.7509 O   0  0  0  0  0  0  0  0  0  0  0  0
  -22.5298  -28.9823   20.5371 O   0  0  0  0  0  0  0  0  0  0  0  0
  -24.2556  -28.5295   24.6324 O   0  0  0  0  0  0  0  0  0  0  0  0
  -28.8520  -29.1242   22.3748 O   0  0  0  0  0  0  0  0  0  0  0  0
  -32.7848  -20.7838   20.0261 O   0  0  0  0  0  0  0  0  0  0  0  0
  -24.0991  -12.3812   22.1966 O   0  0  0  0  0  0  0  0  0  0  0  0
  -26.0093  -26.2331   16.6631 O   0  0  0  0  0  0  0  0  0  1  0  0
  -22.2797   -7.6156   20.1031 F   0  0  0  0  0  0  0  0  0  0  0  0
  -21.9310  -12.3209   20.4825 F   0  0  0  0  0  0  0  0  0  0  0  0
  1  2  1  0  0  0  0
  1  5  2  0  0  0  0
  2  6  2  0  0  0  0
  3 10  2  0  0  0  0
  3 18  1  0  0  0  0
  4 11  1  0  0  0  0
  4 18  2  0  0  0  0
  5 20  1  0  0  0  0
  6 22  1  0  0  0  0
  7 12  2  0  0  0  0
  7 21  1  0  0  0  0
  8  9  2  0  0  0  0
  8 24  1  0  0  0  0
  9 26  1  0  0  0  0
 10 27  1  0  0  0  0
 11 27  2  0  0  0  0
 12 28  1  0  0  0  0
 13 14  2  0  0  0  0
 13 29  1  0  0  0  0
 14 30  1  0  0  0  0
 15 23  1  0  0  0  0
 15 28  2  0  0  0  0
 16 25  1  0  0  0  0
 16 26  2  0  0  0  0
 17 30  2  0  0  0  0
 17 31  1  0  0  0  0
 18 32  1  0  0  0  0
 19 32  1  0  0  0  0
 19 33  2  0  0  0  0
 19 35  1  0  0  0  0
 20 22  2  0  0  0  0
 20 40  1  0  0  0  0
 21 23  2  0  0  0  0
 21 41  1  0  0  0  0
 22 52  1  0  0  0  0
 23 42  1  0  0  0  0
 24 25  2  0  0  0  0
 24 62  1  0  0  0  0
 25 56  1  0  0  0  0
 26 73  1  0  0  0  0
 27 83  1  0  0  0  0
 28 84  1  0  0  0  0
 29 31  2  0  0  0  0
 29 83  1  0  0  0  0
 30 85  1  0  0  0  0
 31 86  1  0  0  0  0
 32 66  2  0  0  0  0
 33 67  1  0  0  0  0
 33 71  1  0  0  0  0
 34 53  1  0  0  0  0
 34 68  1  0  0  0  0
 34 77  2  0  0  0  0
 35 72  1  0  0  0  0
 35 78  2  0  0  0  0
 36 54  1  0  0  0  0
 36 74  1  0  0  0  0
 36 79  2  0  0  0  0
 37 63  1  0  0  0  0
 37 69  1  0  0  0  0
 37 80  2  0  0  0  0
 38 64  1  0  0  0  0
 38 75  1  0  0  0  0
 38 81  2  0  0  0  0
 39 70  1  0  0  0  0
 39 73  1  0  0  0  0
 39 82  2  0  0  0  0
 40 43  1  0  0  0  0
 41 54  1  0  0  0  0
 42 69  1  0  0  0  0
 43 46  1  0  0  0  0
 44 47  1  0  0  0  0
 44 49  1  0  0  0  0
 45 48  1  0  0  0  0
 45 50  1  0  0  0  0
 46 52  1  0  0  0  0
 47 53  1  0  0  0  0
 48 55  1  0  0  0  0
 49 68  1  0  0  0  0
 50 70  1  0  0  0  0
 51 55  1  0  0  0  0
 51 70  1  0  0  0  0
 52 74  1  0  0  0  0
 53 84  1  0  0  0  0
 54 69  1  0  0  0  0
 55 67  1  0  0  0  0
 57 64  1  0  0  0  0
 58 65  1  0  0  0  0
 59 65  1  0  0  0  0
 60 65  1  0  0  0  0
 61 76  1  0  0  0  0
 62 68  1  0  0  0  0
 63 65  1  0  0  0  0
 63 75  1  0  0  0  0
 64 76  1  0  0  0  0
 66 67  1  0  0  0  0
M  CHG  1  76   1
M  ISO  4  39 100  53 101  73 100  84 101
M  END
> <Batch ID>
0045

> <Smiles>
CNC(C)C(=O)NC(C(=O)N1Cc2cc([101O:1][101CH:1]3CCCN(Cc4ccc([100NH:0][100C:0](=O)N5CCCC(n6nc(-c7ccc(Oc8ccc(F)cc8F)cc7)c(C(N)=O)c6N)C5)cc4C)C3=O)ccc2CC1C(=O)NC1CCCc2ccccc21)C(C)(C)C

> <Shape>
0.250

> <Color>
0.058

> <Negative vol penalty>
0.000

$$$$

  -OEChem-04042322213D

 86 95  0     1  0  0  0  0  0999 V2000
  -22.0554   -8.4144   21.2642 C   0  0  0  0  0  0  0  0  0  0  0  0
  -22.5637   -9.0347   22.3999 C   0  0  0  0  0  0  0  0  0  0  0  0
  -19.8931  -28.4088   23.4575 C   0  0  0  0  0  0  0  0  0  0  0  0
  -21.1910  -26.5131   22.7101 C   0  0  0  0  0  0  0  0  0  0  0  0
  -22.6253   -8.6730   20.0194 C   0  0  0  0  0  0  0  0  0  0  0  0
  -23.6343   -9.9227   22.2897 C   0  0  0  0  0  0  0  0  0  0  0  0
  -29.1682  -16.0993   23.0815 C   0  0  0  0  0  0  0  0  0  0  0  0
  -30.7722  -25.1586   19.9704 C   0  0  0  0  0  0  0  0  0  0  0  0
  -30.0414  -26.2667   20.3988 C   0  0  0  0  0  0  0  0  0  0  0  0
  -18.7310  -27.8000   22.9837 C   0  0  0  0  0  0  0  0  0  0  0  0
  -20.0289  -25.9043   22.2363 C   0  0  0  0  0  0  0  0  0  0  0  0
  -29.9038  -16.8775   22.1887 C   0  0  0  0  0  0  0  0  0  0  0  0
  -17.4209  -24.1806   23.5199 C   0  0  0  0  0  0  0  0  0  0  0  0
  -17.2363  -22.8282   23.8070 C   0  0  0  0  0  0  0  0  0  0  0  0
  -27.9884  -17.0005   20.7274 C   0  0  0  0  0  0  0  0  0  0  0  0
  -29.6773  -23.7927   21.6355 C   0  0  0  0  0  0  0  0  0  0  0  0
  -17.1723  -22.3351   21.4427 C   0  0  0  0  0  0  0  0  0  0  0  0
  -21.1231  -27.7654   23.3207 C   0  0  0  0  0  0  0  0  0  0  0  0
  -22.6037  -28.7778   25.1346 C   0  0  0  0  0  0  0  0  0  0  0  0
  -23.7114   -9.5552   19.8964 C   0  0  0  0  0  0  0  0  0  0  0  0
  -27.8384  -15.7561   22.7983 C   0  0  0  0  0  0  0  0  0  0  0  0
  -24.2077  -10.2151   21.0389 C   0  0  0  0  0  0  0  0  0  0  0  0
  -27.2374  -16.2199   21.6195 C   0  0  0  0  0  0  0  0  0  0  0  0
  -30.5902  -23.9215   20.5887 C   0  0  0  0  0  0  0  0  0  0  0  0
  -28.9465  -24.9008   22.0639 C   0  0  0  0  0  0  0  0  0  0  0  0
  -29.1285  -26.1378   21.4456 C   0  0  0  0  0  0  0  0  0  0  0  0
  -18.7989  -26.5478   22.3731 C   0  0  0  0  0  0  0  0  0  0  0  0
  -29.3148  -17.3258   21.0100 C   0  0  0  0  0  0  0  0  0  0  0  0
  -17.4811  -24.6103   22.1942 C   0  0  0  0  0  0  0  0  0  0  0  0
  -17.1121  -21.9054   22.7684 C   0  0  0  0  0  0  0  0  0  0  0  0
  -17.3568  -23.6876   21.1556 C   0  0  0  0  0  0  0  0  0  0  0  0
  -22.3240  -28.3940   23.8094 C   0  0  0  0  0  0  0  0  0  0  0  0
  -23.8623  -29.3245   25.0754 C   0  0  0  0  0  0  0  0  0  0  0  0
  -30.5402  -20.4210   20.3297 C   0  0  0  0  0  0  0  0  0  0  0  0
  -21.7980  -28.6514   26.3138 C   0  0  0  0  0  0  0  0  0  0  0  0
  -26.2762  -13.0271   22.3338 C   0  0  0  0  0  0  0  0  0  0  0  0
  -23.6820  -14.9738   22.2788 C   0  0  0  0  0  0  0  0  0  0  0  0
  -22.8370  -18.1966   20.8944 C   0  0  0  0  0  0  0  0  0  0  0  0
  -28.4704  -28.5676   21.3474 C   0  0  0  0  0  0  0  0  0  0  0  0
  -24.2848   -9.8047   18.5237 C   0  0  0  0  0  0  0  0  0  0  0  0
  -27.0502  -14.9383   23.7844 C   0  0  0  0  0  0  0  0  0  0  0  0
  -25.8065  -15.8963   21.2784 C   0  0  0  0  0  0  0  0  0  0  0  0
  -25.6850  -10.4080   18.5650 C   0  0  0  0  0  0  0  0  0  0  0  0
  -28.7709  -20.8708   18.0375 C   0  0  0  0  0  0  0  0  0  0  0  0
  -26.8072  -31.6285   22.0831 C   0  0  0  0  0  0  0  0  0  0  0  0
  -25.7104  -11.5984   19.5121 C   0  0  0  0  0  0  0  0  0  0  0  0
  -29.2326  -19.4669   18.3679 C   0  0  0  0  0  0  0  0  0  0  0  0
  -25.4969  -31.1815   22.7354 C   0  0  0  0  0  0  0  0  0  0  0  0
  -29.8716  -21.8620   18.3705 C   0  0  0  0  0  0  0  0  0  0  0  0
  -27.2311  -30.6860   20.9581 C   0  0  0  0  0  0  0  0  0  0  0  0
  -25.9908  -28.8201   21.9825 C   0  0  0  0  0  0  0  0  0  0  0  0
  -25.3913  -11.1612   20.9474 C   0  0  1  0  0  0  0  0  0  0  0  0
  -29.5338  -19.3822   19.8513 C   0  0  1  0  0  0  0  0  0  1  0  0
  -25.8636  -14.2188   23.1507 C   0  0  1  0  0  0  0  0  0  0  0  0
  -25.5569  -29.7024   23.1645 C   0  0  2  0  0  0  0  0  0  0  0  0
  -27.9777  -24.7343   23.1896 C   0  0  0  0  0  0  0  0  0  0  0  0
  -21.1585  -19.9050   21.6438 C   0  0  0  0  0  0  0  0  0  0  0  0
  -21.8254  -13.6007   20.2844 C   0  0  0  0  0  0  0  0  0  0  0  0
  -20.9204  -15.8557   19.6806 C   0  0  0  0  0  0  0  0  0  0  0  0
  -20.6614  -14.9915   22.0064 C   0  0  0  0  0  0  0  0  0  0  0  0
  -24.8926  -20.3205   21.0437 C   0  0  0  0  0  0  0  0  0  0  0  0
  -31.3787  -22.7294   20.1290 C   0  0  0  0  0  0  0  0  0  0  0  0
  -22.9413  -15.7379   21.2081 C   0  0  1  0  0  0  0  0  0  0  0  0
  -22.6208  -19.4876   21.6632 C   0  0  2  0  0  0  0  0  0  0  0  0
  -21.6150  -15.0410   20.7927 C   0  0  0  0  0  0  0  0  0  0  0  0
  -23.3243  -28.6734   22.9696 N   0  0  0  0  0  0  0  0  0  0  0  0
  -24.2449  -29.2386   23.7690 N   0  0  0  0  0  0  0  0  0  0  0  0
  -30.5159  -21.6500   19.6678 N   0  0  0  0  0  0  0  0  0  0  0  0
  -25.0794  -15.0884   22.2714 N   0  0  0  0  0  0  0  0  0  0  0  0
  -27.2699  -29.3032   21.4391 N   0  0  0  0  0  0  0  0  0  0  0  0
  -24.6680  -29.8656   26.0137 N   0  0  0  0  0  0  0  0  0  0  0  0
  -20.5300  -28.0658   26.1969 N   0  0  0  0  0  0  0  0  0  0  0  0
  -28.3958  -27.2753   21.8662 N   0  0  0  0  0  0  0  0  0  0  0  0
  -25.2191  -12.3371   21.7717 N   0  0  0  0  0  0  0  0  0  0  0  0
  -22.7694  -17.0936   21.7190 N   0  0  0  0  0  0  0  0  0  0  0  0
  -23.4313  -20.5872   21.0675 N   0  3  0  0  0  0  0  0  0  0  0  0
  -31.2694  -20.1720   21.2932 O   0  0  0  0  0  0  0  0  0  0  0  0
  -22.1842  -29.0608   27.4348 O   0  0  0  0  0  0  0  0  0  0  0  0
  -27.4656  -12.7548   22.2206 O   0  0  0  0  0  0  0  0  0  0  0  0
  -23.0438  -14.3057   23.0962 O   0  0  0  0  0  0  0  0  0  0  0  0
  -23.0414  -18.1691   19.6827 O   0  0  0  0  0  0  0  0  0  0  0  0
  -29.4971  -29.0578   20.8703 O   0  0  0  0  0  0  0  0  0  0  0  0
  -17.6651  -25.9533   21.9109 O   0  0  0  0  0  0  0  0  0  0  0  0
  -30.0307  -18.0850   20.1365 O   0  0  0  0  0  0  0  0  0  1  0  0
  -16.9364  -20.6064   23.0442 F   0  0  0  0  0  0  0  0  0  0  0  0
  -17.4150  -24.0943   19.8801 F   0  0  0  0  0  0  0  0  0  0  0  0
  1  2  1  0  0  0  0
  1  5  2  0  0  0  0
  2  6  2  0  0  0  0
  3 10  2  0  0  0  0
  3 18  1  0  0  0  0
  4 11  1  0  0  0  0
  4 18  2  0  0  0  0
  5 20  1  0  0  0  0
  6 22  1  0  0  0  0
  7 12  2  0  0  0  0
  7 21  1  0  0  0  0
  8  9  2  0  0  0  0
  8 24  1  0  0  0  0
  9 26  1  0  0  0  0
 10 27  1  0  0  0  0
 11 27  2  0  0  0  0
 12 28  1  0  0  0  0
 13 14  2  0  0  0  0
 13 29  1  0  0  0  0
 14 30  1  0  0  0  0
 15 23  1  0  0  0  0
 15 28  2  0  0  0  0
 16 24  2  0  0  0  0
 16 25  1  0  0  0  0
 17 30  2  0  0  0  0
 17 31  1  0  0  0  0
 18 32  1  0  0  0  0
 19 32  1  0  0  0  0
 19 33  2  0  0  0  0
 19 35  1  0  0  0  0
 20 22  2  0  0  0  0
 20 40  1  0  0  0  0
 21 23  2  0  0  0  0
 21 41  1  0  0  0  0
 22 52  1  0  0  0  0
 23 42  1  0  0  0  0
 24 62  1  0  0  0  0
 25 26  2  0  0  0  0
 25 56  1  0  0  0  0
 26 73  1  0  0  0  0
 27 83  1  0  0  0  0
 28 84  1  0  0  0  0
 29 31  2  0  0  0  0
 29 83  1  0  0  0  0
 30 85  1  0  0  0  0
 31 86  1  0  0  0  0
 32 66  2  0  0  0  0
 33 67  1  0  0  0  0
 33 71  1  0  0  0  0
 34 53  1  0  0  0  0
 34 68  1  0  0  0  0
 34 77  2  0  0  0  0
 35 72  1  0  0  0  0
 35 78  2  0  0  0  0
 36 54  1  0  0  0  0
 36 74  1  0  0  0  0
 36 79  2  0  0  0  0
 37 63  1  0  0  0  0
 37 69  1  0  0  0  0
 37 80  2  0  0  0  0
 38 64  1  0  0  0  0
 38 75  1  0  0  0  0
 38 81  2  0  0  0  0
 39 70  1  0  0  0  0
 39 73  1  0  0  0  0
 39 82  2  0  0  0  0
 40 43  1  0  0  0  0
 41 54  1  0  0  0  0
 42 69  1  0  0  0  0
 43 46  1  0  0  0  0
 44 47  1  0  0  0  0
 44 49  1  0  0  0  0
 45 48  1  0  0  0  0
 45 50  1  0  0  0  0
 46 52  1  0  0  0  0
 47 53  1  0  0  0  0
 48 55  1  0  0  0  0
 49 68  1  0  0  0  0
 50 70  1  0  0  0  0
 51 55  1  0  0  0  0
 51 70  1  0  0  0  0
 52 74  1  0  0  0  0
 53 84  1  0  0  0  0
 54 69  1  0  0  0  0
 55 67  1  0  0  0  0
 57 64  1  0  0  0  0
 58 65  1  0  0  0  0
 59 65  1  0  0  0  0
 60 65  1  0  0  0  0
 61 76  1  0  0  0  0
 62 68  1  0  0  0  0
 63 65  1  0  0  0  0
 63 75  1  0  0  0  0
 64 76  1  0  0  0  0
 66 67  1  0  0  0  0
M  CHG  1  76   1
M  ISO  4  39 100  53 101  73 100  84 101
M  END
> <Batch ID>
0045

> <Smiles>
CNC(C)C(=O)NC(C(=O)N1Cc2cc([101O:1][101CH:1]3CCCN(Cc4ccc([100NH:0][100C:0](=O)N5CCCC(n6nc(-c7ccc(Oc8ccc(F)cc8F)cc7)c(C(N)=O)c6N)C5)c(C)c4)C3=O)ccc2CC1C(=O)NC1CCCc2ccccc21)C(C)(C)C

> <Shape>
0.231

> <Color>
0.060

> <Negative vol penalty>
0.000

$$$$

  -OEChem-04042322213D

 88 97  0     1  0  0  0  0  0999 V2000
  -18.8734  -33.5826   21.9912 C   0  0  0  0  0  0  0  0  0  0  0  0
  -20.1694  -33.3827   21.5265 C   0  0  0  0  0  0  0  0  0  0  0  0
  -27.3556  -11.6465   20.4115 C   0  0  0  0  0  0  0  0  0  0  0  0
  -26.5147  -13.2482   18.8102 C   0  0  0  0  0  0  0  0  0  0  0  0
  -18.3576  -32.7586   22.9906 C   0  0  0  0  0  0  0  0  0  0  0  0
  -20.9506  -32.3592   22.0617 C   0  0  0  0  0  0  0  0  0  0  0  0
  -25.0864  -28.9506   19.0981 C   0  0  0  0  0  0  0  0  0  0  0  0
  -26.2700  -10.8117   20.1466 C   0  0  0  0  0  0  0  0  0  0  0  0
  -25.4291  -12.4134   18.5452 C   0  0  0  0  0  0  0  0  0  0  0  0
  -26.4755  -29.0284   19.0089 C   0  0  0  0  0  0  0  0  0  0  0  0
  -23.5290   -8.4220   20.1540 C   0  0  0  0  0  0  0  0  0  0  0  0
  -22.8714   -7.8461   21.2409 C   0  0  0  0  0  0  0  0  0  0  0  0
  -26.6743  -27.4035   20.7808 C   0  0  0  0  0  0  0  0  0  0  0  0
  -31.5612  -22.2026   21.8067 C   0  0  0  0  0  0  0  0  0  0  0  0
  -29.2465  -22.8945   21.7916 C   0  0  0  0  0  0  0  0  0  0  0  0
  -22.3457  -10.0464   22.0889 C   0  0  0  0  0  0  0  0  0  0  0  0
  -27.4779  -12.8648   19.7434 C   0  0  0  0  0  0  0  0  0  0  0  0
  -29.9637  -13.4284   19.8469 C   0  0  0  0  0  0  0  0  0  0  0  0
  -19.1296  -31.7184   23.5316 C   0  0  0  0  0  0  0  0  0  0  0  0
  -24.4798  -28.1054   20.0383 C   0  0  0  0  0  0  0  0  0  0  0  0
  -20.4451  -31.5214   23.0703 C   0  0  0  0  0  0  0  0  0  0  0  0
  -25.2772  -27.3149   20.8782 C   0  0  0  0  0  0  0  0  0  0  0  0
  -30.5480  -23.0199   21.3057 C   0  0  0  0  0  0  0  0  0  0  0  0
  -31.2729  -21.2598   22.7936 C   0  0  0  0  0  0  0  0  0  0  0  0
  -28.9582  -21.9518   22.7785 C   0  0  0  0  0  0  0  0  0  0  0  0
  -29.9715  -21.1345   23.2795 C   0  0  0  0  0  0  0  0  0  0  0  0
  -25.3068  -11.1951   19.2134 C   0  0  0  0  0  0  0  0  0  0  0  0
  -27.2697  -28.2570   19.8523 C   0  0  0  0  0  0  0  0  0  0  0  0
  -23.5950   -9.8103   20.0345 C   0  0  0  0  0  0  0  0  0  0  0  0
  -22.2797   -8.6582   22.2083 C   0  0  0  0  0  0  0  0  0  0  0  0
  -23.0033  -10.6224   21.0020 C   0  0  0  0  0  0  0  0  0  0  0  0
  -28.5988  -13.7279   20.0170 C   0  0  0  0  0  0  0  0  0  0  0  0
  -30.6176  -14.5691   20.2439 C   0  0  0  0  0  0  0  0  0  0  0  0
  -29.5874  -26.1563   20.0118 C   0  0  0  0  0  0  0  0  0  0  0  0
  -30.5850  -12.2266   19.3722 C   0  0  0  0  0  0  0  0  0  0  0  0
  -22.5583  -28.5383   22.5332 C   0  0  0  0  0  0  0  0  0  0  0  0
  -22.4934  -25.2951   22.5513 C   0  0  0  0  0  0  0  0  0  0  0  0
  -24.0200  -22.3621   21.7066 C   0  0  0  0  0  0  0  0  0  0  0  0
  -29.2820  -18.8444   23.9662 C   0  0  0  0  0  0  0  0  0  0  0  0
  -18.5454  -30.8836   24.6436 C   0  0  0  0  0  0  0  0  0  0  0  0
  -22.9799  -28.0129   20.1038 C   0  0  0  0  0  0  0  0  0  0  0  0
  -24.6751  -26.3766   21.8908 C   0  0  0  0  0  0  0  0  0  0  0  0
  -19.3066  -29.5843   24.8941 C   0  0  0  0  0  0  0  0  0  0  0  0
  -31.6042  -27.3045   21.8379 C   0  0  0  0  0  0  0  0  0  0  0  0
  -30.0646  -19.3053   20.5284 C   0  0  0  0  0  0  0  0  0  0  0  0
  -20.8085  -29.8465   24.9434 C   0  0  0  0  0  0  0  0  0  0  0  0
  -30.7199  -28.1702   20.9423 C   0  0  0  0  0  0  0  0  0  0  0  0
  -29.8976  -17.8861   19.9863 C   0  0  0  0  0  0  0  0  0  0  0  0
  -31.1345  -25.8551   21.9249 C   0  0  0  0  0  0  0  0  0  0  0  0
  -28.9969  -19.6506   21.5671 C   0  0  0  0  0  0  0  0  0  0  0  0
  -28.7356  -17.2565   22.1367 C   0  0  0  0  0  0  0  0  0  0  0  0
  -21.3149  -30.4060   23.6085 C   0  0  1  0  0  0  0  0  0  0  0  0
  -29.3728  -27.5193   20.6559 C   0  0  1  0  0  0  0  0  0  1  0  0
  -22.4708  -27.5025   21.4482 C   0  0  1  0  0  0  0  0  0  0  0  0
  -29.8297  -16.8616   21.1326 C   0  0  1  0  0  0  0  0  0  0  0  0
  -32.3796  -20.3982   23.3102 C   0  0  0  0  0  0  0  0  0  0  0  0
  -27.5543  -21.8413   23.2796 C   0  0  0  0  0  0  0  0  0  0  0  0
  -23.7443  -19.8744   21.8878 C   0  0  0  0  0  0  0  0  0  0  0  0
  -23.3212  -25.4196   25.4854 C   0  0  0  0  0  0  0  0  0  0  0  0
  -23.9441  -22.9990   25.3401 C   0  0  0  0  0  0  0  0  0  0  0  0
  -21.5802  -23.7014   24.9646 C   0  0  0  0  0  0  0  0  0  0  0  0
  -30.0144  -20.4752   25.6923 C   0  0  0  0  0  0  0  0  0  0  0  0
  -23.9623  -22.0376   18.7655 C   0  0  0  0  0  0  0  0  0  0  0  0
  -30.8581  -24.0344   20.2433 C   0  0  0  0  0  0  0  0  0  0  0  0
  -23.3199  -24.2129   23.2029 C   0  0  1  0  0  0  0  0  0  0  0  0
  -23.4905  -21.1078   21.0352 C   0  0  2  0  0  0  0  0  0  0  0  0
  -23.0530  -24.1022   24.7306 C   0  0  0  0  0  0  0  0  0  0  0  0
  -28.3962  -14.9621   20.4859 N   0  0  0  0  0  0  0  0  0  0  0  0
  -29.6426  -15.4482   20.6137 N   0  0  0  0  0  0  0  0  0  0  0  0
  -30.5469  -25.3866   20.6751 N   0  0  0  0  0  0  0  0  0  0  0  0
  -23.2040  -26.3263   21.9207 N   0  0  0  0  0  0  0  0  0  0  0  0
  -28.9415  -18.6246   22.6181 N   0  0  0  0  0  0  0  0  0  0  0  0
  -31.9258  -14.8959   20.3094 N   0  0  0  0  0  0  0  0  0  0  0  0
  -30.8251  -12.0965   17.9975 N   0  0  0  0  0  0  0  0  0  0  0  0
  -21.4414  -29.3459   22.6315 N   0  0  0  0  0  0  0  0  0  0  0  0
  -23.0483  -22.9879   22.4586 N   0  0  0  0  0  0  0  0  0  0  0  0
  -29.6728  -20.1587   24.3012 N   0  0  0  0  0  0  0  0  0  0  0  0
  -24.1504  -20.9096   19.7138 N   0  3  0  0  0  0  0  0  0  0  0  0
  -28.9566  -25.7972   19.0191 O   0  0  0  0  0  0  0  0  0  0  0  0
  -30.9025  -11.2887   20.1423 O   0  0  0  0  0  0  0  0  0  0  0  0
  -23.5641  -28.5992   23.2306 O   0  0  0  0  0  0  0  0  0  0  0  0
  -21.2626  -25.2244   22.5938 O   0  0  0  0  0  0  0  0  0  0  0  0
  -25.1806  -22.7460   21.5800 O   0  0  0  0  0  0  0  0  0  0  0  0
  -29.2168  -17.9430   24.8106 O   0  0  0  0  0  0  0  0  0  0  0  0
  -24.2475  -10.3806   18.9544 O   0  0  0  0  0  0  0  0  0  0  0  0
  -28.6259  -28.3315   19.7677 O   0  0  0  0  0  0  0  0  0  1  0  0
  -21.6470   -8.1049   23.2512 F   0  0  0  0  0  0  0  0  0  0  0  0
  -23.0624  -11.9567   20.8920 F   0  0  0  0  0  0  0  0  0  0  0  0
  1  2  1  0  0  0  0
  1  5  2  0  0  0  0
  2  6  2  0  0  0  0
  3  8  2  0  0  0  0
  3 17  1  0  0  0  0
  4  9  1  0  0  0  0
  4 17  2  0  0  0  0
  5 19  1  0  0  0  0
  6 21  1  0  0  0  0
  7 10  2  0  0  0  0
  7 20  1  0  0  0  0
  8 27  1  0  0  0  0
  9 27  2  0  0  0  0
 10 28  1  0  0  0  0
 11 12  2  0  0  0  0
 11 29  1  0  0  0  0
 12 30  1  0  0  0  0
 13 22  1  0  0  0  0
 13 28  2  0  0  0  0
 14 23  1  0  0  0  0
 14 24  2  0  0  0  0
 15 23  2  0  0  0  0
 15 25  1  0  0  0  0
 16 30  2  0  0  0  0
 16 31  1  0  0  0  0
 17 32  1  0  0  0  0
 18 32  1  0  0  0  0
 18 33  2  0  0  0  0
 18 35  1  0  0  0  0
 19 21  2  0  0  0  0
 19 40  1  0  0  0  0
 20 22  2  0  0  0  0
 20 41  1  0  0  0  0
 21 52  1  0  0  0  0
 22 42  1  0  0  0  0
 23 64  1  0  0  0  0
 24 26  1  0  0  0  0
 24 56  1  0  0  0  0
 25 26  2  0  0  0  0
 25 57  1  0  0  0  0
 26 77  1  0  0  0  0
 27 85  1  0  0  0  0
 28 86  1  0  0  0  0
 29 31  2  0  0  0  0
 29 85  1  0  0  0  0
 30 87  1  0  0  0  0
 31 88  1  0  0  0  0
 32 68  2  0  0  0  0
 33 69  1  0  0  0  0
 33 73  1  0  0  0  0
 34 53  1  0  0  0  0
 34 70  1  0  0  0  0
 34 79  2  0  0  0  0
 35 74  1  0  0  0  0
 35 80  2  0  0  0  0
 36 54  1  0  0  0  0
 36 75  1  0  0  0  0
 36 81  2  0  0  0  0
 37 65  1  0  0  0  0
 37 71  1  0  0  0  0
 37 82  2  0  0  0  0
 38 66  1  0  0  0  0
 38 76  1  0  0  0  0
 38 83  2  0  0  0  0
 39 72  1  0  0  0  0
 39 77  1  0  0  0  0
 39 84  2  0  0  0  0
 40 43  1  0  0  0  0
 41 54  1  0  0  0  0
 42 71  1  0  0  0  0
 43 46  1  0  0  0  0
 44 47  1  0  0  0  0
 44 49  1  0  0  0  0
 45 48  1  0  0  0  0
 45 50  1  0  0  0  0
 46 52  1  0  0  0  0
 47 53  1  0  0  0  0
 48 55  1  0  0  0  0
 49 70  1  0  0  0  0
 50 72  1  0  0  0  0
 51 55  1  0  0  0  0
 51 72  1  0  0  0  0
 52 75  1  0  0  0  0
 53 86  1  0  0  0  0
 54 71  1  0  0  0  0
 55 69  1  0  0  0  0
 58 66  1  0  0  0  0
 59 67  1  0  0  0  0
 60 67  1  0  0  0  0
 61 67  1  0  0  0  0
 62 77  1  0  0  0  0
 63 78  1  0  0  0  0
 64 70  1  0  0  0  0
 65 67  1  0  0  0  0
 65 76  1  0  0  0  0
 66 78  1  0  0  0  0
 68 69  1  0  0  0  0
M  CHG  1  78   1
M  ISO  4  39 100  53 101  77 100  86 101
M  END
> <Batch ID>
0045

> <Smiles>
CNC(C)C(=O)NC(C(=O)N1Cc2cc([101O:1][101CH:1]3CCCN(Cc4cc(C)c([100N:0](C)[100C:0](=O)N5CCCC(n6nc(-c7ccc(Oc8ccc(F)cc8F)cc7)c(C(N)=O)c6N)C5)c(C)c4)C3=O)ccc2CC1C(=O)NC1CCCc2ccccc21)C(C)(C)C

> <Shape>
0.239

> <Color>
0.098

> <Negative vol penalty>
0.000

$$$$

  -OEChem-04042322213D

 95104  0     1  0  0  0  0  0999 V2000
  -28.5266  -18.8362   28.8081 C   0  0  0  0  0  0  0  0  0  0  0  0
  -28.1287  -19.9542   28.0820 C   0  0  0  0  0  0  0  0  0  0  0  0
  -26.5509  -15.2172   20.7992 C   0  0  0  0  0  0  0  0  0  0  0  0
  -25.4450  -15.4392   18.6627 C   0  0  0  0  0  0  0  0  0  0  0  0
  -29.5383  -18.0117   28.3176 C   0  0  0  0  0  0  0  0  0  0  0  0
  -28.7432  -20.2490   26.8655 C   0  0  0  0  0  0  0  0  0  0  0  0
  -26.1203  -22.7428   21.9252 C   0  0  0  0  0  0  0  0  0  0  0  0
  -27.6173  -14.5657   20.1796 C   0  0  0  0  0  0  0  0  0  0  0  0
  -26.5115  -14.7878   18.0430 C   0  0  0  0  0  0  0  0  0  0  0  0
  -26.0889  -24.0489   21.4384 C   0  0  0  0  0  0  0  0  0  0  0  0
  -28.2997  -11.4726   19.0000 C   0  0  0  0  0  0  0  0  0  0  0  0
  -28.7973  -10.3211   19.6099 C   0  0  0  0  0  0  0  0  0  0  0  0
  -27.9388  -23.5418   19.9756 C   0  0  0  0  0  0  0  0  0  0  0  0
  -20.4655  -26.5825   23.6402 C   0  0  0  0  0  0  0  0  0  0  0  0
  -18.8129  -27.8317   22.3972 C   0  0  0  0  0  0  0  0  0  0  0  0
  -18.6823  -25.4213   22.4963 C   0  0  0  0  0  0  0  0  0  0  0  0
  -30.9633  -11.3700   19.8228 C   0  0  0  0  0  0  0  0  0  0  0  0
  -25.4647  -15.6539   20.0408 C   0  0  0  0  0  0  0  0  0  0  0  0
  -23.5280  -15.8169   21.6931 C   0  0  0  0  0  0  0  0  0  0  0  0
  -30.1588  -18.2911   27.0898 C   0  0  0  0  0  0  0  0  0  0  0  0
  -27.0699  -21.8280   21.4479 C   0  0  0  0  0  0  0  0  0  0  0  0
  -29.7651  -19.4283   26.3588 C   0  0  0  0  0  0  0  0  0  0  0  0
  -27.9785  -22.2239   20.4561 C   0  0  0  0  0  0  0  0  0  0  0  0
  -19.9582  -27.8024   23.1928 C   0  0  0  0  0  0  0  0  0  0  0  0
  -19.8276  -25.3920   23.2919 C   0  0  0  0  0  0  0  0  0  0  0  0
  -27.5976  -14.3510   18.8015 C   0  0  0  0  0  0  0  0  0  0  0  0
  -27.0001  -24.4494   20.4655 C   0  0  0  0  0  0  0  0  0  0  0  0
  -29.1339  -12.5728   18.8015 C   0  0  0  0  0  0  0  0  0  0  0  0
  -30.1291  -10.2698   20.0214 C   0  0  0  0  0  0  0  0  0  0  0  0
  -30.4657  -12.5215   19.2129 C   0  0  0  0  0  0  0  0  0  0  0  0
  -18.1749  -26.6412   22.0489 C   0  0  0  0  0  0  0  0  0  0  0  0
  -24.3625  -16.3264   20.6804 C   0  0  0  0  0  0  0  0  0  0  0  0
  -22.6455  -16.8360   21.9560 C   0  0  0  0  0  0  0  0  0  0  0  0
  -24.2891  -29.0704   20.4147 C   0  0  0  0  0  0  0  0  0  0  0  0
  -23.5486  -14.5368   22.3386 C   0  0  0  0  0  0  0  0  0  0  0  0
  -22.7257  -29.3273   22.2308 C   0  0  0  0  0  0  0  0  0  0  0  0
  -29.4559  -20.1843   22.7552 C   0  0  0  0  0  0  0  0  0  0  0  0
  -29.6164  -18.8281   19.8129 C   0  0  0  0  0  0  0  0  0  0  0  0
  -28.9722  -19.0735   16.4705 C   0  0  0  0  0  0  0  0  0  0  0  0
  -21.6453  -22.1225   22.9559 C   0  0  0  0  0  0  0  0  0  0  0  0
  -31.2804  -17.3973   26.6232 C   0  0  0  0  0  0  0  0  0  0  0  0
  -27.0733  -20.4151   21.9640 C   0  0  0  0  0  0  0  0  0  0  0  0
  -29.0047  -21.2744   19.8961 C   0  0  0  0  0  0  0  0  0  0  0  0
  -31.6222  -17.5698   25.1454 C   0  0  0  0  0  0  0  0  0  0  0  0
  -25.0765  -31.8670   20.7148 C   0  0  0  0  0  0  0  0  0  0  0  0
  -26.3238  -31.2752   21.3707 C   0  0  0  0  0  0  0  0  0  0  0  0
  -21.7633  -21.1532   19.4710 C   0  0  0  0  0  0  0  0  0  0  0  0
  -31.7256  -19.0497   24.7907 C   0  0  0  0  0  0  0  0  0  0  0  0
  -23.7866  -31.4261   21.3982 C   0  0  0  0  0  0  0  0  0  0  0  0
  -22.3859  -19.7589   19.5641 C   0  0  0  0  0  0  0  0  0  0  0  0
  -26.1328  -29.8575   21.8854 C   0  0  0  0  0  0  0  0  0  0  0  0
  -22.3782  -22.1026   20.4951 C   0  0  0  0  0  0  0  0  0  0  0  0
  -22.9255  -20.2283   21.9989 C   0  0  0  0  0  0  0  0  0  0  0  0
  -30.3905  -19.7674   25.0231 C   0  0  1  0  0  0  0  0  0  0  0  0
  -23.3070  -30.0142   21.0333 C   0  0  1  0  0  0  0  0  0  0  0  0
  -28.4156  -19.7144   21.7781 C   0  0  1  0  0  0  0  0  0  0  0  0
  -22.3302  -19.2154   21.0041 C   0  0  2  0  0  0  0  0  0  0  0  0
  -29.2525  -17.8224   14.3133 C   0  0  0  0  0  0  0  0  0  0  0  0
  -27.4015  -26.7611   22.1228 C   0  0  0  0  0  0  0  0  0  0  0  0
  -32.5756  -19.5705   19.7696 C   0  0  0  0  0  0  0  0  0  0  0  0
  -32.5666  -19.1771   17.2971 C   0  0  0  0  0  0  0  0  0  0  0  0
  -32.0563  -17.3000   18.8588 C   0  0  0  0  0  0  0  0  0  0  0  0
  -24.5860  -27.3316   18.7430 C   0  0  0  0  0  0  0  0  0  0  0  0
  -26.0489  -18.9569   16.0239 C   0  0  0  0  0  0  0  0  0  0  0  0
  -20.6445  -29.0835   23.5694 C   0  0  0  0  0  0  0  0  0  0  0  0
  -20.3701  -24.0883   23.7723 C   0  0  0  0  0  0  0  0  0  0  0  0
  -26.4997  -28.0720   20.1407 C   0  0  0  0  0  0  0  0  0  0  0  0
  -30.3517  -19.1382   18.5314 C   0  0  1  0  0  0  0  0  0  0  0  0
  -28.3350  -18.1019   15.4935 C   0  0  2  0  0  0  0  0  0  0  0  0
  -26.5198  -26.7411   20.8818 C   0  0  1  0  0  0  0  0  0  1  0  0
  -31.8696  -18.8151   18.6260 C   0  0  0  0  0  0  0  0  0  0  0  0
  -24.0391  -17.5724   20.3240 N   0  0  0  0  0  0  0  0  0  0  0  0
  -22.9915  -17.8543   21.1172 N   0  0  0  0  0  0  0  0  0  0  0  0
  -25.5764  -29.0121   20.8114 N   0  0  0  0  0  0  0  0  0  0  0  0
  -28.9721  -19.9055   20.4372 N   0  0  0  0  0  0  0  0  0  0  0  0
  -22.2761  -21.5346   21.8469 N   0  0  0  0  0  0  0  0  0  0  0  0
  -21.6152  -16.9515   22.8205 N   0  0  0  0  0  0  0  0  0  0  0  0
  -22.7909  -13.4964   21.7838 N   0  0  0  0  0  0  0  0  0  0  0  0
  -29.4686  -19.4814   23.9449 N   0  0  0  0  0  0  0  0  0  0  0  0
  -21.3999  -29.6364   22.4681 N   0  0  0  0  0  0  0  0  0  0  0  0
  -29.6518  -18.4164   17.4743 N   0  0  0  0  0  0  0  0  0  0  0  0
  -21.0608  -23.3626   22.7295 N   0  0  0  0  0  0  0  0  0  0  0  0
  -23.7703  -28.3056   19.4510 N   0  3  0  0  0  0  0  0  0  0  0  0
  -27.0541  -18.6572   14.9719 N   0  3  0  0  0  0  0  0  0  0  0  0
  -24.2062  -14.3264   23.3859 O   0  0  0  0  0  0  0  0  0  0  0  0
  -23.4262  -28.5701   22.8923 O   0  0  0  0  0  0  0  0  0  0  0  0
  -30.1934  -21.1147   22.4517 O   0  0  0  0  0  0  0  0  0  0  0  0
  -29.6080  -17.6710   20.2404 O   0  0  0  0  0  0  0  0  0  0  0  0
  -28.8797  -20.2934   16.3528 O   0  0  0  0  0  0  0  0  0  0  0  0
  -21.6014  -21.5797   24.0652 O   0  0  0  0  0  0  0  0  0  0  0  0
  -28.6381  -13.7156   18.1965 O   0  0  0  0  0  0  0  0  0  0  0  0
  -26.9720  -25.7238   19.9891 O   0  0  0  0  0  0  0  0  0  1  0  0
  -30.6064   -9.1645   20.6084 F   0  0  0  0  0  0  0  0  0  0  0  0
  -31.2716  -13.5757   19.0259 F   0  0  0  0  0  0  0  0  0  0  0  0
  -16.7624  -26.6773   21.0662 Cl  0  0  0  0  0  0  0  0  0  0  0  0
  1  2  1  0  0  0  0
  1  5  2  0  0  0  0
  2  6  2  0  0  0  0
  3  8  2  0  0  0  0
  3 18  1  0  0  0  0
  4  9  1  0  0  0  0
  4 18  2  0  0  0  0
  5 20  1  0  0  0  0
  6 22  1  0  0  0  0
  7 10  2  0  0  0  0
  7 21  1  0  0  0  0
  8 26  1  0  0  0  0
  9 26  2  0  0  0  0
 10 27  1  0  0  0  0
 11 12  2  0  0  0  0
 11 28  1  0  0  0  0
 12 29  1  0  0  0  0
 13 23  1  0  0  0  0
 13 27  2  0  0  0  0
 14 24  2  0  0  0  0
 14 25  1  0  0  0  0
 15 24  1  0  0  0  0
 15 31  2  0  0  0  0
 16 25  2  0  0  0  0
 16 31  1  0  0  0  0
 17 29  2  0  0  0  0
 17 30  1  0  0  0  0
 18 32  1  0  0  0  0
 19 32  1  0  0  0  0
 19 33  2  0  0  0  0
 19 35  1  0  0  0  0
 20 22  2  0  0  0  0
 20 41  1  0  0  0  0
 21 23  2  0  0  0  0
 21 42  1  0  0  0  0
 22 54  1  0  0  0  0
 23 43  1  0  0  0  0
 24 65  1  0  0  0  0
 25 66  1  0  0  0  0
 26 91  1  0  0  0  0
 27 92  1  0  0  0  0
 28 30  2  0  0  0  0
 28 91  1  0  0  0  0
 29 93  1  0  0  0  0
 30 94  1  0  0  0  0
 31 95  1  0  0  0  0
 32 72  2  0  0  0  0
 33 73  1  0  0  0  0
 33 77  1  0  0  0  0
 34 55  1  0  0  0  0
 34 74  1  0  0  0  0
 34 83  2  0  0  0  0
 35 78  1  0  0  0  0
 35 85  2  0  0  0  0
 36 55  1  0  0  0  0
 36 80  1  0  0  0  0
 36 86  2  0  0  0  0
 37 56  1  0  0  0  0
 37 79  1  0  0  0  0
 37 87  2  0  0  0  0
 38 68  1  0  0  0  0
 38 75  1  0  0  0  0
 38 88  2  0  0  0  0
 39 69  1  0  0  0  0
 39 81  1  0  0  0  0
 39 89  2  0  0  0  0
 40 76  1  0  0  0  0
 40 82  1  0  0  0  0
 40 90  2  0  0  0  0
 41 44  1  0  0  0  0
 42 56  1  0  0  0  0
 43 75  1  0  0  0  0
 44 48  1  0  0  0  0
 45 46  1  0  0  0  0
 45 49  1  0  0  0  0
 46 51  1  0  0  0  0
 47 50  1  0  0  0  0
 47 52  1  0  0  0  0
 48 54  1  0  0  0  0
 49 55  1  0  0  0  0
 50 57  1  0  0  0  0
 51 74  1  0  0  0  0
 52 76  1  0  0  0  0
 53 57  1  0  0  0  0
 53 76  1  0  0  0  0
 54 79  1  0  0  0  0
 56 75  1  0  0  0  0
 57 73  1  0  0  0  0
 58 69  1  0  0  0  0
 59 70  1  0  0  0  0
 60 71  1  0  0  0  0
 61 71  1  0  0  0  0
 62 71  1  0  0  0  0
 63 83  1  0  0  0  0
 64 84  1  0  0  0  0
 65 80  1  0  0  0  0
 66 82  1  0  0  0  0
 67 70  1  0  0  0  0
 67 74  1  0  0  0  0
 68 71  1  0  0  0  0
 68 81  1  0  0  0  0
 69 84  1  0  0  0  0
 70 92  1  0  0  0  0
 72 73  1  0  0  0  0
M  CHG  2  83   1  84   1
M  ISO  4  40 100  70 101  82 100  92 101
M  END
> <Batch ID>
0045

> <Smiles>
CN=C1C(C(=O)NCc2cc(Cl)cc(C[100NH:0][100C:0](=O)N3CCCC(n4nc(-c5ccc(Oc6ccc(F)cc6F)cc5)c(C(N)=O)c4N)C3)c2)CCCCN1C[101CH:1](C)[101O:1]c1ccc2c(c1)CN(C(=O)C(NC(=O)C(C)NC)C(C)(C)C)C(C(=O)NC1CCCc3ccccc31)C2

> <Shape>
0.231

> <Color>
0.072

> <Negative vol penalty>
0.000

$$$$

  -OEChem-04042322213D

 87 96  0     1  0  0  0  0  0999 V2000
  -17.4765  -25.2554   21.4117 C   0  0  0  0  0  0  0  0  0  0  0  0
  -18.7853  -25.0631   20.9808 C   0  0  0  0  0  0  0  0  0  0  0  0
  -23.1777  -13.4039   22.9602 C   0  0  0  0  0  0  0  0  0  0  0  0
  -23.4522  -12.5268   20.7258 C   0  0  0  0  0  0  0  0  0  0  0  0
  -17.1481  -26.3879   22.1558 C   0  0  0  0  0  0  0  0  0  0  0  0
  -19.7662  -26.0038   21.2928 C   0  0  0  0  0  0  0  0  0  0  0  0
  -24.0701  -23.8659   22.8898 C   0  0  0  0  0  0  0  0  0  0  0  0
  -22.7586  -12.1488   23.4014 C   0  0  0  0  0  0  0  0  0  0  0  0
  -23.0332  -11.2717   21.1671 C   0  0  0  0  0  0  0  0  0  0  0  0
  -24.9100  -23.3229   21.9185 C   0  0  0  0  0  0  0  0  0  0  0  0
  -24.3579   -8.6514   22.8404 C   0  0  0  0  0  0  0  0  0  0  0  0
  -25.0912   -7.5411   22.4221 C   0  0  0  0  0  0  0  0  0  0  0  0
  -26.2895  -25.2995   22.0150 C   0  0  0  0  0  0  0  0  0  0  0  0
  -31.3698  -18.9202   24.6255 C   0  0  0  0  0  0  0  0  0  0  0  0
  -31.1910  -20.6122   22.9103 C   0  0  0  0  0  0  0  0  0  0  0  0
  -23.1173   -6.6366   21.3625 C   0  0  0  0  0  0  0  0  0  0  0  0
  -23.5244  -13.5930   21.6223 C   0  0  0  0  0  0  0  0  0  0  0  0
  -23.2278  -16.0928   21.2098 C   0  0  0  0  0  0  0  0  0  0  0  0
  -18.1275  -27.3381   22.4853 C   0  0  0  0  0  0  0  0  0  0  0  0
  -24.3279  -25.1366   23.4241 C   0  0  0  0  0  0  0  0  0  0  0  0
  -19.4503  -27.1507   22.0408 C   0  0  0  0  0  0  0  0  0  0  0  0
  -25.4528  -25.8553   22.9949 C   0  0  0  0  0  0  0  0  0  0  0  0
  -31.5527  -20.2372   24.2042 C   0  0  0  0  0  0  0  0  0  0  0  0
  -30.8253  -17.9780   23.7528 C   0  0  0  0  0  0  0  0  0  0  0  0
  -30.6465  -19.6700   22.0376 C   0  0  0  0  0  0  0  0  0  0  0  0
  -30.4637  -18.3529   22.4589 C   0  0  0  0  0  0  0  0  0  0  0  0
  -22.6864  -11.0827   22.5049 C   0  0  0  0  0  0  0  0  0  0  0  0
  -26.0183  -24.0410   21.4788 C   0  0  0  0  0  0  0  0  0  0  0  0
  -23.0042   -8.7544   22.5198 C   0  0  0  0  0  0  0  0  0  0  0  0
  -24.4709   -6.5337   21.6832 C   0  0  0  0  0  0  0  0  0  0  0  0
  -22.3840   -7.7470   21.7809 C   0  0  0  0  0  0  0  0  0  0  0  0
  -23.9568  -14.8894   21.1658 C   0  0  0  0  0  0  0  0  0  0  0  0
  -24.0725  -17.0263   20.6606 C   0  0  0  0  0  0  0  0  0  0  0  0
  -28.5216  -21.8329   20.8447 C   0  0  0  0  0  0  0  0  0  0  0  0
  -21.9053  -16.3445   21.7032 C   0  0  0  0  0  0  0  0  0  0  0  0
  -22.7717  -27.9078   23.4718 C   0  0  0  0  0  0  0  0  0  0  0  0
  -25.2005  -28.7926   25.4315 C   0  0  0  0  0  0  0  0  0  0  0  0
  -28.7766  -28.3332   25.5657 C   0  0  0  0  0  0  0  0  0  0  0  0
  -30.0187  -17.3705   20.1822 C   0  0  0  0  0  0  0  0  0  0  0  0
  -17.7150  -28.5700   23.2513 C   0  0  0  0  0  0  0  0  0  0  0  0
  -23.4273  -25.6968   24.4906 C   0  0  0  0  0  0  0  0  0  0  0  0
  -25.7850  -27.2148   23.5515 C   0  0  0  0  0  0  0  0  0  0  0  0
  -18.8903  -29.3312   23.8592 C   0  0  0  0  0  0  0  0  0  0  0  0
  -30.5194  -23.9030   20.2874 C   0  0  0  0  0  0  0  0  0  0  0  0
  -27.6604  -17.4391   17.5156 C   0  0  0  0  0  0  0  0  0  0  0  0
  -20.0066  -29.4978   22.8330 C   0  0  0  0  0  0  0  0  0  0  0  0
  -29.0619  -24.1569   19.9641 C   0  0  0  0  0  0  0  0  0  0  0  0
  -26.3750  -16.9083   18.1546 C   0  0  0  0  0  0  0  0  0  0  0  0
  -30.8435  -22.4364   20.0660 C   0  0  0  0  0  0  0  0  0  0  0  0
  -28.8990  -16.7287   18.0587 C   0  0  0  0  0  0  0  0  0  0  0  0
  -27.7334  -16.1904   20.1612 C   0  0  0  0  0  0  0  0  0  0  0  0
  -20.5474  -28.1361   22.3803 C   0  0  1  0  0  0  0  0  0  0  0  0
  -28.1980  -23.3209   20.8877 C   0  0  1  0  0  0  0  0  0  1  0  0
  -23.4962  -27.2174   24.5926 C   0  0  1  0  0  0  0  0  0  0  0  0
  -26.4639  -16.9206   19.6933 C   0  0  2  0  0  0  0  0  0  0  0  0
  -32.1351  -21.2444   25.1371 C   0  0  0  0  0  0  0  0  0  0  0  0
  -30.6420  -16.5745   24.2330 C   0  0  0  0  0  0  0  0  0  0  0  0
  -30.3475  -28.3198   27.5226 C   0  0  0  0  0  0  0  0  0  0  0  0
  -25.5783  -31.7490   24.7782 C   0  0  0  0  0  0  0  0  0  0  0  0
  -28.0039  -31.4922   25.3429 C   0  0  0  0  0  0  0  0  0  0  0  0
  -26.2693  -31.0952   27.0911 C   0  0  0  0  0  0  0  0  0  0  0  0
  -29.8308  -25.6621   24.8495 C   0  0  0  0  0  0  0  0  0  0  0  0
  -30.2667  -20.1039   20.6513 C   0  0  0  0  0  0  0  0  0  0  0  0
  -26.5651  -29.4068   25.2326 C   0  0  1  0  0  0  0  0  0  0  0  0
  -29.5456  -27.4698   26.5494 C   0  0  2  0  0  0  0  0  0  0  0  0
  -26.5921  -30.9195   25.5912 C   0  0  0  0  0  0  0  0  0  0  0  0
  -25.1711  -15.0414   20.6307 N   0  0  0  0  0  0  0  0  0  0  0  0
  -25.2116  -16.3514   20.3334 N   0  0  0  0  0  0  0  0  0  0  0  0
  -29.8575  -21.5014   20.6104 N   0  0  0  0  0  0  0  0  0  0  0  0
  -24.8706  -27.7225   24.5877 N   0  0  0  0  0  0  0  0  0  0  0  0
  -28.9180  -16.7845   19.5220 N   0  0  0  0  0  0  0  0  0  0  0  0
  -23.9444  -18.3503   20.4303 N   0  0  0  0  0  0  0  0  0  0  0  0
  -20.8269  -16.2227   20.8163 N   0  0  0  0  0  0  0  0  0  0  0  0
  -29.9104  -17.3961   21.5722 N   0  0  0  0  0  0  0  0  0  0  0  0
  -21.4312  -27.5841   23.3847 N   0  0  0  0  0  0  0  0  0  0  0  0
  -27.4960  -28.5925   26.0063 N   0  0  0  0  0  0  0  0  0  0  0  0
  -30.4875  -26.5713   25.8238 N   0  3  0  0  0  0  0  0  0  0  0  0
  -27.6368  -21.0046   21.0756 O   0  0  0  0  0  0  0  0  0  0  0  0
  -21.6879  -16.6838   22.8911 O   0  0  0  0  0  0  0  0  0  0  0  0
  -23.3833  -28.6783   22.7410 O   0  0  0  0  0  0  0  0  0  0  0  0
  -24.4575  -29.2409   26.3082 O   0  0  0  0  0  0  0  0  0  0  0  0
  -29.2644  -28.7401   24.5136 O   0  0  0  0  0  0  0  0  0  0  0  0
  -30.9736  -17.8414   19.5590 O   0  0  0  0  0  0  0  0  0  0  0  0
  -22.2778   -9.8578   22.9351 O   0  0  0  0  0  0  0  0  0  0  0  0
  -26.8393  -23.5136   20.5304 O   0  0  0  0  0  0  0  0  0  1  0  0
  -25.1756   -5.4682   21.2803 F   0  0  0  0  0  0  0  0  0  0  0  0
  -21.0841   -7.8409   21.4688 F   0  0  0  0  0  0  0  0  0  0  0  0
  1  2  1  0  0  0  0
  1  5  2  0  0  0  0
  2  6  2  0  0  0  0
  3  8  2  0  0  0  0
  3 17  1  0  0  0  0
  4  9  1  0  0  0  0
  4 17  2  0  0  0  0
  5 19  1  0  0  0  0
  6 21  1  0  0  0  0
  7 10  2  0  0  0  0
  7 20  1  0  0  0  0
  8 27  1  0  0  0  0
  9 27  2  0  0  0  0
 10 28  1  0  0  0  0
 11 12  2  0  0  0  0
 11 29  1  0  0  0  0
 12 30  1  0  0  0  0
 13 22  1  0  0  0  0
 13 28  2  0  0  0  0
 14 23  1  0  0  0  0
 14 24  2  0  0  0  0
 15 23  2  0  0  0  0
 15 25  1  0  0  0  0
 16 30  2  0  0  0  0
 16 31  1  0  0  0  0
 17 32  1  0  0  0  0
 18 32  1  0  0  0  0
 18 33  2  0  0  0  0
 18 35  1  0  0  0  0
 19 21  2  0  0  0  0
 19 40  1  0  0  0  0
 20 22  2  0  0  0  0
 20 41  1  0  0  0  0
 21 52  1  0  0  0  0
 22 42  1  0  0  0  0
 23 56  1  0  0  0  0
 24 26  1  0  0  0  0
 24 57  1  0  0  0  0
 25 26  2  0  0  0  0
 25 63  1  0  0  0  0
 26 74  1  0  0  0  0
 27 84  1  0  0  0  0
 28 85  1  0  0  0  0
 29 31  2  0  0  0  0
 29 84  1  0  0  0  0
 30 86  1  0  0  0  0
 31 87  1  0  0  0  0
 32 67  2  0  0  0  0
 33 68  1  0  0  0  0
 33 72  1  0  0  0  0
 34 53  1  0  0  0  0
 34 69  1  0  0  0  0
 34 78  2  0  0  0  0
 35 73  1  0  0  0  0
 35 79  2  0  0  0  0
 36 54  1  0  0  0  0
 36 75  1  0  0  0  0
 36 80  2  0  0  0  0
 37 64  1  0  0  0  0
 37 70  1  0  0  0  0
 37 81  2  0  0  0  0
 38 65  1  0  0  0  0
 38 76  1  0  0  0  0
 38 82  2  0  0  0  0
 39 71  1  0  0  0  0
 39 74  1  0  0  0  0
 39 83  2  0  0  0  0
 40 43  1  0  0  0  0
 41 54  1  0  0  0  0
 42 70  1  0  0  0  0
 43 46  1  0  0  0  0
 44 47  1  0  0  0  0
 44 49  1  0  0  0  0
 45 48  1  0  0  0  0
 45 50  1  0  0  0  0
 46 52  1  0  0  0  0
 47 53  1  0  0  0  0
 48 55  1  0  0  0  0
 49 69  1  0  0  0  0
 50 71  1  0  0  0  0
 51 55  1  0  0  0  0
 51 71  1  0  0  0  0
 52 75  1  0  0  0  0
 53 85  1  0  0  0  0
 54 70  1  0  0  0  0
 55 68  1  0  0  0  0
 58 65  1  0  0  0  0
 59 66  1  0  0  0  0
 60 66  1  0  0  0  0
 61 66  1  0  0  0  0
 62 77  1  0  0  0  0
 63 69  1  0  0  0  0
 64 66  1  0  0  0  0
 64 76  1  0  0  0  0
 65 77  1  0  0  0  0
 67 68  1  0  0  0  0
M  CHG  1  77   1
M  ISO  4  39 100  53 101  74 100  85 101
M  END
> <Batch ID>
0045

> <Smiles>
CNC(C)C(=O)NC(C(=O)N1Cc2cc([101O:1][101CH:1]3CCCN(Cc4cc(C)cc(C)c4[100NH:0][100C:0](=O)N4CCCC(n5nc(-c6ccc(Oc7ccc(F)cc7F)cc6)c(C(N)=O)c5N)C4)C3=O)ccc2CC1C(=O)NC1CCCc2ccccc21)C(C)(C)C

> <Shape>
0.239

> <Color>
0.071

> <Negative vol penalty>
0.000

$$$$

  -OEChem-04042322213D

 85 93  0     1  0  0  0  0  0999 V2000
  -26.9047  -25.4120   25.3529 C   0  0  0  0  0  0  0  0  0  0  0  0
  -25.7851  -25.0069   24.6333 C   0  0  0  0  0  0  0  0  0  0  0  0
  -29.6160  -27.6818   18.4999 C   0  0  0  0  0  0  0  0  0  0  0  0
  -29.1075  -26.1580   20.3046 C   0  0  0  0  0  0  0  0  0  0  0  0
  -18.1906  -26.7457   20.6776 C   0  0  0  0  0  0  0  0  0  0  0  0
  -28.1379  -24.8036   25.1222 C   0  0  0  0  0  0  0  0  0  0  0  0
  -25.8983  -23.9940   23.6817 C   0  0  0  0  0  0  0  0  0  0  0  0
  -22.1413  -20.6122   23.9881 C   0  0  0  0  0  0  0  0  0  0  0  0
  -18.7168  -27.9340   21.1841 C   0  0  0  0  0  0  0  0  0  0  0  0
  -30.9356  -27.2299   18.4901 C   0  0  0  0  0  0  0  0  0  0  0  0
  -30.4271  -25.7060   20.2947 C   0  0  0  0  0  0  0  0  0  0  0  0
  -20.9107  -20.9765   23.4434 C   0  0  0  0  0  0  0  0  0  0  0  0
  -33.5721  -23.8938   20.5029 C   0  0  0  0  0  0  0  0  0  0  0  0
  -33.7874  -22.5174   20.5712 C   0  0  0  0  0  0  0  0  0  0  0  0
  -21.4117  -19.6891   21.4658 C   0  0  0  0  0  0  0  0  0  0  0  0
  -32.5406  -22.2208   18.5231 C   0  0  0  0  0  0  0  0  0  0  0  0
  -28.7020  -27.1459   19.4072 C   0  0  0  0  0  0  0  0  0  0  0  0
  -18.4381  -25.5387   21.3316 C   0  0  0  0  0  0  0  0  0  0  0  0
  -26.2577  -27.0972   18.6785 C   0  0  0  0  0  0  0  0  0  0  0  0
  -28.2642  -23.7761   24.1741 C   0  0  0  0  0  0  0  0  0  0  0  0
  -23.0225  -19.7911   23.2699 C   0  0  0  0  0  0  0  0  0  0  0  0
  -27.1345  -23.3722   23.4371 C   0  0  0  0  0  0  0  0  0  0  0  0
  -22.6518  -19.3137   22.0047 C   0  0  0  0  0  0  0  0  0  0  0  0
  -19.4906  -27.9154   22.3445 C   0  0  0  0  0  0  0  0  0  0  0  0
  -19.2118  -25.5201   22.4920 C   0  0  0  0  0  0  0  0  0  0  0  0
  -19.7381  -26.7085   22.9985 C   0  0  0  0  0  0  0  0  0  0  0  0
  -31.3411  -26.2420   19.3875 C   0  0  0  0  0  0  0  0  0  0  0  0
  -20.5470  -20.5173   22.1809 C   0  0  0  0  0  0  0  0  0  0  0  0
  -32.8409  -24.4338   19.4448 C   0  0  0  0  0  0  0  0  0  0  0  0
  -33.2718  -21.6809   19.5813 C   0  0  0  0  0  0  0  0  0  0  0  0
  -32.3252  -23.5972   18.4549 C   0  0  0  0  0  0  0  0  0  0  0  0
  -27.3389  -27.6128   19.4182 C   0  0  0  0  0  0  0  0  0  0  0  0
  -25.1894  -27.8809   19.0404 C   0  0  0  0  0  0  0  0  0  0  0  0
  -17.8703  -24.2939   20.7761 C   0  0  0  0  0  0  0  0  0  0  0  0
  -26.2223  -26.0073   17.7477 C   0  0  0  0  0  0  0  0  0  0  0  0
  -25.9608  -20.1313   22.1061 C   0  0  0  0  0  0  0  0  0  0  0  0
  -25.6235  -16.9844   21.3950 C   0  0  0  0  0  0  0  0  0  0  0  0
  -23.5289  -14.3653   20.7628 C   0  0  0  0  0  0  0  0  0  0  0  0
  -22.1644  -30.4860   22.9402 C   0  0  0  0  0  0  0  0  0  0  0  0
  -29.6276  -23.1809   23.9259 C   0  0  0  0  0  0  0  0  0  0  0  0
  -24.3349  -19.3854   23.8826 C   0  0  0  0  0  0  0  0  0  0  0  0
  -23.5532  -18.4133   21.2014 C   0  0  0  0  0  0  0  0  0  0  0  0
  -29.5854  -21.8574   23.1665 C   0  0  0  0  0  0  0  0  0  0  0  0
  -25.0148  -32.1993   21.6685 C   0  0  0  0  0  0  0  0  0  0  0  0
  -28.6479  -21.9595   21.9676 C   0  0  0  0  0  0  0  0  0  0  0  0
  -25.7869  -31.1153   20.9145 C   0  0  0  0  0  0  0  0  0  0  0  0
  -24.3526  -31.6473   22.9290 C   0  0  0  0  0  0  0  0  0  0  0  0
  -24.2660  -29.3839   21.9576 C   0  0  0  0  0  0  0  0  0  0  0  0
  -27.2120  -22.2598   22.4141 C   0  0  1  0  0  0  0  0  0  0  0  0
  -25.3729  -18.9639   22.8471 C   0  0  1  0  0  0  0  0  0  0  0  0
  -24.9049  -29.8803   20.6493 C   0  0  2  0  0  0  0  0  0  0  0  0
  -19.4769  -24.2247   23.1922 C   0  0  0  0  0  0  0  0  0  0  0  0
  -20.5689  -26.6912   24.2425 C   0  0  0  0  0  0  0  0  0  0  0  0
  -23.5471  -11.9252   20.1774 C   0  0  0  0  0  0  0  0  0  0  0  0
  -26.3727  -17.6821   18.5206 C   0  0  0  0  0  0  0  0  0  0  0  0
  -25.4645  -15.4575   17.8176 C   0  0  0  0  0  0  0  0  0  0  0  0
  -27.4021  -15.5730   19.3844 C   0  0  0  0  0  0  0  0  0  0  0  0
  -22.0883  -13.6403   23.2443 C   0  0  0  0  0  0  0  0  0  0  0  0
  -20.0420  -29.2020   22.8658 C   0  0  0  0  0  0  0  0  0  0  0  0
  -18.2692  -22.0404   19.8492 C   0  0  0  0  0  0  0  0  0  0  0  0
  -19.2715  -20.9678   20.2249 C   0  0  0  0  0  0  0  0  0  1  0  0
  -25.0988  -16.2058   20.2129 C   0  0  1  0  0  0  0  0  0  0  0  0
  -23.4983  -12.9469   21.3027 C   0  0  2  0  0  0  0  0  0  0  0  0
  -26.0681  -16.2481   18.9979 C   0  0  0  0  0  0  0  0  0  0  0  0
  -26.9894  -28.6443   20.1914 N   0  0  0  0  0  0  0  0  0  0  0  0
  -25.6767  -28.7833   19.9395 N   0  0  0  0  0  0  0  0  0  0  0  0
  -24.8285  -18.0498   21.8409 N   0  0  0  0  0  0  0  0  0  0  0  0
  -23.5293  -30.4788   22.6084 N   0  0  0  0  0  0  0  0  0  0  0  0
  -23.8901  -27.8793   18.6739 N   0  0  0  0  0  0  0  0  0  0  0  0
  -16.5452  -24.2034   20.6634 N   0  0  0  0  0  0  0  0  0  0  0  0
  -27.4100  -25.3087   17.4914 N   0  0  0  0  0  0  0  0  0  0  0  0
  -26.5789  -21.0609   22.9204 N   0  0  0  0  0  0  0  0  0  0  0  0
  -24.8139  -14.8617   20.7034 N   0  0  0  0  0  0  0  0  0  0  0  0
  -21.4555  -29.3417   22.5956 N   0  0  0  0  0  0  0  0  0  0  0  0
  -18.7113  -23.3173   20.4152 N   0  3  0  0  0  0  0  0  0  0  0  0
  -22.2540  -12.7192   22.0906 N   0  3  0  0  0  0  0  0  0  0  0  0
  -25.1722  -25.6736   17.1481 O   0  0  0  0  0  0  0  0  0  0  0  0
  -25.8623  -20.1840   20.8858 O   0  0  0  0  0  0  0  0  0  0  0  0
  -26.6956  -16.6549   21.9085 O   0  0  0  0  0  0  0  0  0  0  0  0
  -22.5146  -14.9710   20.4239 O   0  0  0  0  0  0  0  0  0  0  0  0
  -21.6169  -31.4437   23.4970 O   0  0  0  0  0  0  0  0  0  0  0  0
  -32.6286  -25.8005   19.3780 O   0  0  0  0  0  0  0  0  0  0  0  0
  -19.3467  -20.8719   21.6467 O   0  0  0  0  0  0  0  0  0  1  0  0
  -33.4800  -20.3593   19.6462 F   0  0  0  0  0  0  0  0  0  0  0  0
  -31.6231  -24.1102   17.4353 F   0  0  0  0  0  0  0  0  0  0  0  0
  1  2  1  0  0  0  0
  1  6  2  0  0  0  0
  2  7  2  0  0  0  0
  3 10  2  0  0  0  0
  3 17  1  0  0  0  0
  4 11  1  0  0  0  0
  4 17  2  0  0  0  0
  5  9  2  0  0  0  0
  5 18  1  0  0  0  0
  6 20  1  0  0  0  0
  7 22  1  0  0  0  0
  8 12  2  0  0  0  0
  8 21  1  0  0  0  0
  9 24  1  0  0  0  0
 10 27  1  0  0  0  0
 11 27  2  0  0  0  0
 12 28  1  0  0  0  0
 13 14  2  0  0  0  0
 13 29  1  0  0  0  0
 14 30  1  0  0  0  0
 15 23  1  0  0  0  0
 15 28  2  0  0  0  0
 16 30  2  0  0  0  0
 16 31  1  0  0  0  0
 17 32  1  0  0  0  0
 18 25  2  0  0  0  0
 18 34  1  0  0  0  0
 19 32  1  0  0  0  0
 19 33  2  0  0  0  0
 19 35  1  0  0  0  0
 20 22  2  0  0  0  0
 20 40  1  0  0  0  0
 21 23  2  0  0  0  0
 21 41  1  0  0  0  0
 22 49  1  0  0  0  0
 23 42  1  0  0  0  0
 24 26  2  0  0  0  0
 24 59  1  0  0  0  0
 25 26  1  0  0  0  0
 25 52  1  0  0  0  0
 26 53  1  0  0  0  0
 27 82  1  0  0  0  0
 28 83  1  0  0  0  0
 29 31  2  0  0  0  0
 29 82  1  0  0  0  0
 30 84  1  0  0  0  0
 31 85  1  0  0  0  0
 32 65  2  0  0  0  0
 33 66  1  0  0  0  0
 33 69  1  0  0  0  0
 34 70  1  0  0  0  0
 34 75  2  0  0  0  0
 35 71  1  0  0  0  0
 35 77  2  0  0  0  0
 36 50  1  0  0  0  0
 36 72  1  0  0  0  0
 36 78  2  0  0  0  0
 37 62  1  0  0  0  0
 37 67  1  0  0  0  0
 37 79  2  0  0  0  0
 38 63  1  0  0  0  0
 38 73  1  0  0  0  0
 38 80  2  0  0  0  0
 39 68  1  0  0  0  0
 39 74  1  0  0  0  0
 39 81  2  0  0  0  0
 40 43  1  0  0  0  0
 41 50  1  0  0  0  0
 42 67  1  0  0  0  0
 43 45  1  0  0  0  0
 44 46  1  0  0  0  0
 44 47  1  0  0  0  0
 45 49  1  0  0  0  0
 46 51  1  0  0  0  0
 47 68  1  0  0  0  0
 48 51  1  0  0  0  0
 48 68  1  0  0  0  0
 49 72  1  0  0  0  0
 50 67  1  0  0  0  0
 51 66  1  0  0  0  0
 54 63  1  0  0  0  0
 55 64  1  0  0  0  0
 56 64  1  0  0  0  0
 57 64  1  0  0  0  0
 58 76  1  0  0  0  0
 59 74  1  0  0  0  0
 60 61  1  0  0  0  0
 60 75  1  0  0  0  0
 61 83  1  0  0  0  0
 62 64  1  0  0  0  0
 62 73  1  0  0  0  0
 63 76  1  0  0  0  0
 65 66  1  0  0  0  0
M  CHG  2  75   1  76   1
M  ISO  4  39 100  61 101  74 100  83 101
M  END
> <Batch ID>
0045

> <Smiles>
CNC(C)C(=O)NC(C(=O)N1Cc2cc([101O:1][101CH2:1]CNC(=N)c3ccc(C[100NH:0][100C:0](=O)N4CCCC(n5nc(-c6ccc(Oc7ccc(F)cc7F)cc6)c(C(N)=O)c5N)C4)c(C)c3C)ccc2CC1C(=O)NC1CCCc2ccccc21)C(C)(C)C

> <Shape>
0.193

> <Color>
0.085

> <Negative vol penalty>
0.000

$$$$

  -OEChem-04042322213D

 87 96  0     1  0  0  0  0  0999 V2000
  -22.5335  -28.7993   25.8519 C   0  0  0  0  0  0  0  0  0  0  0  0
  -23.5545  -28.0119   25.3294 C   0  0  0  0  0  0  0  0  0  0  0  0
  -22.6510  -10.2096   20.2527 C   0  0  0  0  0  0  0  0  0  0  0  0
  -24.2538   -9.5404   21.9321 C   0  0  0  0  0  0  0  0  0  0  0  0
  -22.7694  -30.1425   26.1418 C   0  0  0  0  0  0  0  0  0  0  0  0
  -24.8118  -28.5677   25.0954 C   0  0  0  0  0  0  0  0  0  0  0  0
  -28.5812  -25.5899   26.6983 C   0  0  0  0  0  0  0  0  0  0  0  0
  -21.9059   -9.0577   20.5048 C   0  0  0  0  0  0  0  0  0  0  0  0
  -23.5087   -8.3885   22.1843 C   0  0  0  0  0  0  0  0  0  0  0  0
  -28.9199  -24.5028   25.8937 C   0  0  0  0  0  0  0  0  0  0  0  0
  -19.6977   -7.9779   22.8266 C   0  0  0  0  0  0  0  0  0  0  0  0
  -18.3147   -8.1138   22.9465 C   0  0  0  0  0  0  0  0  0  0  0  0
  -30.7809  -25.7513   25.0009 C   0  0  0  0  0  0  0  0  0  0  0  0
  -30.5220  -18.3528   24.0373 C   0  0  0  0  0  0  0  0  0  0  0  0
  -32.0640  -16.5874   22.5246 C   0  0  0  0  0  0  0  0  0  0  0  0
  -18.0052   -6.6090   21.0818 C   0  0  0  0  0  0  0  0  0  0  0  0
  -23.8250  -10.4509   20.9663 C   0  0  0  0  0  0  0  0  0  0  0  0
  -24.1688  -12.9754   20.8382 C   0  0  0  0  0  0  0  0  0  0  0  0
  -24.0329  -30.7126   25.9203 C   0  0  0  0  0  0  0  0  0  0  0  0
  -29.3345  -26.7717   26.6521 C   0  0  0  0  0  0  0  0  0  0  0  0
  -25.0644  -29.9202   25.3813 C   0  0  0  0  0  0  0  0  0  0  0  0
  -30.4512  -26.8510   25.8077 C   0  0  0  0  0  0  0  0  0  0  0  0
  -31.9100  -18.3454   24.1746 C   0  0  0  0  0  0  0  0  0  0  0  0
  -30.6759  -16.5946   22.3873 C   0  0  0  0  0  0  0  0  0  0  0  0
  -22.3347   -8.1472   21.4706 C   0  0  0  0  0  0  0  0  0  0  0  0
  -30.0182  -24.5844   25.0427 C   0  0  0  0  0  0  0  0  0  0  0  0
  -20.2345   -7.1576   21.8343 C   0  0  0  0  0  0  0  0  0  0  0  0
  -17.4684   -7.4293   22.0742 C   0  0  0  0  0  0  0  0  0  0  0  0
  -19.3883   -6.4732   20.9619 C   0  0  0  0  0  0  0  0  0  0  0  0
  -29.9049  -17.4773   23.1437 C   0  0  0  0  0  0  0  0  0  0  0  0
  -32.6811  -17.4628   23.4182 C   0  0  0  0  0  0  0  0  0  0  0  0
  -24.5954  -11.6404   20.7060 C   0  0  0  0  0  0  0  0  0  0  0  0
  -25.2622  -13.7229   20.4745 C   0  0  0  0  0  0  0  0  0  0  0  0
  -31.4927  -21.5254   24.9275 C   0  0  0  0  0  0  0  0  0  0  0  0
  -22.8979  -13.4936   21.2529 C   0  0  0  0  0  0  0  0  0  0  0  0
  -28.7249  -29.7912   25.8680 C   0  0  0  0  0  0  0  0  0  0  0  0
  -31.7540  -30.2687   26.9259 C   0  0  0  0  0  0  0  0  0  0  0  0
  -34.9315  -28.5798   26.6646 C   0  0  0  0  0  0  0  0  0  0  0  0
  -30.7288  -14.7653   20.6562 C   0  0  0  0  0  0  0  0  0  0  0  0
  -24.2268  -32.1810   26.2048 C   0  0  0  0  0  0  0  0  0  0  0  0
  -28.9719  -27.9258   27.5459 C   0  0  0  0  0  0  0  0  0  0  0  0
  -31.3046  -28.0899   25.7358 C   0  0  0  0  0  0  0  0  0  0  0  0
  -25.6932  -32.5987   26.2786 C   0  0  0  0  0  0  0  0  0  0  0  0
  -33.7629  -22.4246   23.3073 C   0  0  0  0  0  0  0  0  0  0  0  0
  -29.6173  -12.3440   18.2941 C   0  0  0  0  0  0  0  0  0  0  0  0
  -26.4746  -32.0134   25.1065 C   0  0  0  0  0  0  0  0  0  0  0  0
  -32.4116  -23.0884   23.1439 C   0  0  0  0  0  0  0  0  0  0  0  0
  -28.1766  -12.0549   18.7219 C   0  0  0  0  0  0  0  0  0  0  0  0
  -33.5733  -20.9515   23.6223 C   0  0  0  0  0  0  0  0  0  0  0  0
  -30.5302  -12.5763   19.4967 C   0  0  0  0  0  0  0  0  0  0  0  0
  -28.6211  -13.3069   20.8718 C   0  0  0  0  0  0  0  0  0  0  0  0
  -26.4488  -30.4805   25.1368 C   0  0  1  0  0  0  0  0  0  0  0  0
  -31.6388  -22.9620   24.4420 C   0  0  1  0  0  0  0  0  0  1  0  0
  -29.5033  -29.2634   27.0399 C   0  0  1  0  0  0  0  0  0  0  0  0
  -27.6504  -13.1303   19.6927 C   0  0  2  0  0  0  0  0  0  0  0  0
  -36.9150  -28.5885   28.2018 C   0  0  0  0  0  0  0  0  0  0  0  0
  -32.7709  -32.5159   25.1299 C   0  0  0  0  0  0  0  0  0  0  0  0
  -35.0750  -31.5645   25.3619 C   0  0  0  0  0  0  0  0  0  0  0  0
  -33.8640  -32.4003   27.3762 C   0  0  0  0  0  0  0  0  0  0  0  0
  -34.9229  -25.6282   26.8811 C   0  0  0  0  0  0  0  0  0  0  0  0
  -32.5355  -19.3036   25.1466 C   0  0  0  0  0  0  0  0  0  0  0  0
  -33.1245  -30.2385   26.2936 C   0  0  1  0  0  0  0  0  0  0  0  0
  -35.6621  -27.8416   27.7718 C   0  0  2  0  0  0  0  0  0  0  0  0
  -33.6873  -31.6638   26.0305 C   0  0  0  0  0  0  0  0  0  0  0  0
  -25.8610  -11.5422   20.2905 N   0  0  0  0  0  0  0  0  0  0  0  0
  -26.2390  -12.8251   20.1584 N   0  0  0  0  0  0  0  0  0  0  0  0
  -32.5535  -20.6669   24.6333 N   0  0  0  0  0  0  0  0  0  0  0  0
  -30.9057  -29.1938   26.6246 N   0  0  0  0  0  0  0  0  0  0  0  0
  -29.9702  -13.6106   20.3694 N   0  0  0  0  0  0  0  0  0  0  0  0
  -25.4737  -15.0539   20.3972 N   0  0  0  0  0  0  0  0  0  0  0  0
  -21.8847  -12.5863   21.5913 N   0  0  0  0  0  0  0  0  0  0  0  0
  -30.0805  -15.6936   21.4701 N   0  0  0  0  0  0  0  0  0  0  0  0
  -27.3801  -29.9787   26.1243 N   0  0  0  0  0  0  0  0  0  0  0  0
  -33.9584  -29.4184   27.1656 N   0  0  0  0  0  0  0  0  0  0  0  0
  -36.0604  -26.4811   27.3121 N   0  3  0  0  0  0  0  0  0  0  0  0
  -30.5084  -21.1999   25.5964 O   0  0  0  0  0  0  0  0  0  0  0  0
  -22.6624  -14.7245   21.3055 O   0  0  0  0  0  0  0  0  0  0  0  0
  -29.3021  -30.0134   24.8101 O   0  0  0  0  0  0  0  0  0  0  0  0
  -31.4499  -31.2077   27.6659 O   0  0  0  0  0  0  0  0  0  0  0  0
  -35.2000  -28.4304   25.4746 O   0  0  0  0  0  0  0  0  0  0  0  0
  -31.8589  -14.9316   20.1901 O   0  0  0  0  0  0  0  0  0  0  0  0
  -21.6078   -7.0232   21.7170 O   0  0  0  0  0  0  0  0  0  0  0  0
  -30.3507  -23.5251   24.2559 O   0  0  0  0  0  0  0  0  0  1  0  0
  -16.1403   -7.5587   22.1904 F   0  0  0  0  0  0  0  0  0  0  0  0
  -19.8981   -5.6828   20.0074 F   0  0  0  0  0  0  0  0  0  0  0  0
  -28.1835  -17.5188   23.0050 Cl  0  0  0  0  0  0  0  0  0  0  0  0
  -34.4008  -17.4252   23.5629 Cl  0  0  0  0  0  0  0  0  0  0  0  0
  1  2  1  0  0  0  0
  1  5  2  0  0  0  0
  2  6  2  0  0  0  0
  3  8  2  0  0  0  0
  3 17  1  0  0  0  0
  4  9  1  0  0  0  0
  4 17  2  0  0  0  0
  5 19  1  0  0  0  0
  6 21  1  0  0  0  0
  7 10  2  0  0  0  0
  7 20  1  0  0  0  0
  8 25  1  0  0  0  0
  9 25  2  0  0  0  0
 10 26  1  0  0  0  0
 11 12  2  0  0  0  0
 11 27  1  0  0  0  0
 12 28  1  0  0  0  0
 13 22  1  0  0  0  0
 13 26  2  0  0  0  0
 14 23  1  0  0  0  0
 14 30  2  0  0  0  0
 15 24  2  0  0  0  0
 15 31  1  0  0  0  0
 16 28  2  0  0  0  0
 16 29  1  0  0  0  0
 17 32  1  0  0  0  0
 18 32  1  0  0  0  0
 18 33  2  0  0  0  0
 18 35  1  0  0  0  0
 19 21  2  0  0  0  0
 19 40  1  0  0  0  0
 20 22  2  0  0  0  0
 20 41  1  0  0  0  0
 21 52  1  0  0  0  0
 22 42  1  0  0  0  0
 23 31  2  0  0  0  0
 23 61  1  0  0  0  0
 24 30  1  0  0  0  0
 24 72  1  0  0  0  0
 25 82  1  0  0  0  0
 26 83  1  0  0  0  0
 27 29  2  0  0  0  0
 27 82  1  0  0  0  0
 28 84  1  0  0  0  0
 29 85  1  0  0  0  0
 30 86  1  0  0  0  0
 31 87  1  0  0  0  0
 32 65  2  0  0  0  0
 33 66  1  0  0  0  0
 33 70  1  0  0  0  0
 34 53  1  0  0  0  0
 34 67  1  0  0  0  0
 34 76  2  0  0  0  0
 35 71  1  0  0  0  0
 35 77  2  0  0  0  0
 36 54  1  0  0  0  0
 36 73  1  0  0  0  0
 36 78  2  0  0  0  0
 37 62  1  0  0  0  0
 37 68  1  0  0  0  0
 37 79  2  0  0  0  0
 38 63  1  0  0  0  0
 38 74  1  0  0  0  0
 38 80  2  0  0  0  0
 39 69  1  0  0  0  0
 39 72  1  0  0  0  0
 39 81  2  0  0  0  0
 40 43  1  0  0  0  0
 41 54  1  0  0  0  0
 42 68  1  0  0  0  0
 43 46  1  0  0  0  0
 44 47  1  0  0  0  0
 44 49  1  0  0  0  0
 45 48  1  0  0  0  0
 45 50  1  0  0  0  0
 46 52  1  0  0  0  0
 47 53  1  0  0  0  0
 48 55  1  0  0  0  0
 49 67  1  0  0  0  0
 50 69  1  0  0  0  0
 51 55  1  0  0  0  0
 51 69  1  0  0  0  0
 52 73  1  0  0  0  0
 53 83  1  0  0  0  0
 54 68  1  0  0  0  0
 55 66  1  0  0  0  0
 56 63  1  0  0  0  0
 57 64  1  0  0  0  0
 58 64  1  0  0  0  0
 59 64  1  0  0  0  0
 60 75  1  0  0  0  0
 61 67  1  0  0  0  0
 62 64  1  0  0  0  0
 62 74  1  0  0  0  0
 63 75  1  0  0  0  0
 65 66  1  0  0  0  0
M  CHG  1  75   1
M  ISO  4  39 100  53 101  72 100  83 101
M  END
> <Batch ID>
0045

> <Smiles>
CNC(C)C(=O)NC(C(=O)N1Cc2cc([101O:1][101CH:1]3CCCN(Cc4cc(Cl)c([100NH:0][100C:0](=O)N5CCCC(n6nc(-c7ccc(Oc8ccc(F)cc8F)cc7)c(C(N)=O)c6N)C5)cc4Cl)C3=O)ccc2CC1C(=O)NC1CCCc2ccccc21)C(C)(C)C

> <Shape>
0.194

> <Color>
0.191

> <Negative vol penalty>
0.000

$$$$

  -OEChem-04042322213D

 88 97  0     1  0  0  0  0  0999 V2000
  -20.9805  -23.6782   33.0211 C   0  0  0  0  0  0  0  0  0  0  0  0
  -21.8072  -22.9296   32.1894 C   0  0  0  0  0  0  0  0  0  0  0  0
  -23.0736   -9.8698   19.9415 C   0  0  0  0  0  0  0  0  0  0  0  0
  -23.8315   -9.8779   22.2356 C   0  0  0  0  0  0  0  0  0  0  0  0
  -21.3666  -23.9377   34.3354 C   0  0  0  0  0  0  0  0  0  0  0  0
  -23.0210  -22.4411   32.6713 C   0  0  0  0  0  0  0  0  0  0  0  0
  -23.8233  -17.6117   31.3758 C   0  0  0  0  0  0  0  0  0  0  0  0
  -32.6506  -17.4927   23.4568 C   0  0  0  0  0  0  0  0  0  0  0  0
  -32.0637  -16.6067   22.5534 C   0  0  0  0  0  0  0  0  0  0  0  0
  -22.3286   -8.7175   20.1917 C   0  0  0  0  0  0  0  0  0  0  0  0
  -23.0865   -8.7255   22.4858 C   0  0  0  0  0  0  0  0  0  0  0  0
  -24.2499  -17.3648   30.0716 C   0  0  0  0  0  0  0  0  0  0  0  0
  -19.3785   -7.9243   21.6410 C   0  0  0  0  0  0  0  0  0  0  0  0
  -18.0720   -7.8787   21.1547 C   0  0  0  0  0  0  0  0  0  0  0  0
  -26.5183  -17.1432   30.8620 C   0  0  0  0  0  0  0  0  0  0  0  0
  -29.8794  -17.4579   23.1378 C   0  0  0  0  0  0  0  0  0  0  0  0
  -18.6313   -5.9342   19.8344 C   0  0  0  0  0  0  0  0  0  0  0  0
  -23.8251  -10.4501   20.9635 C   0  0  0  0  0  0  0  0  0  0  0  0
  -24.1691  -12.9749   20.8419 C   0  0  0  0  0  0  0  0  0  0  0  0
  -22.5813  -23.4439   34.8366 C   0  0  0  0  0  0  0  0  0  0  0  0
  -24.7441  -17.6371   32.4331 C   0  0  0  0  0  0  0  0  0  0  0  0
  -23.4244  -22.6954   33.9932 C   0  0  0  0  0  0  0  0  0  0  0  0
  -26.1004  -17.3882   32.1790 C   0  0  0  0  0  0  0  0  0  0  0  0
  -31.8519  -18.3613   24.2007 C   0  0  0  0  0  0  0  0  0  0  0  0
  -30.4663  -18.3438   24.0412 C   0  0  0  0  0  0  0  0  0  0  0  0
  -30.6781  -16.5893   22.3939 C   0  0  0  0  0  0  0  0  0  0  0  0
  -22.3350   -8.1453   21.4638 C   0  0  0  0  0  0  0  0  0  0  0  0
  -25.5980  -17.1333   29.8142 C   0  0  0  0  0  0  0  0  0  0  0  0
  -20.3115   -6.9748   21.2240 C   0  0  0  0  0  0  0  0  0  0  0  0
  -17.6984   -6.8837   20.2514 C   0  0  0  0  0  0  0  0  0  0  0  0
  -19.9379   -5.9798   20.3207 C   0  0  0  0  0  0  0  0  0  0  0  0
  -24.5954  -11.6401   20.7055 C   0  0  0  0  0  0  0  0  0  0  0  0
  -25.2621  -13.7232   20.4790 C   0  0  0  0  0  0  0  0  0  0  0  0
  -22.8986  -13.4920   21.2593 C   0  0  0  0  0  0  0  0  0  0  0  0
  -25.7013  -19.8337   34.5218 C   0  0  0  0  0  0  0  0  0  0  0  0
  -27.3460  -17.3445   35.7950 C   0  0  0  0  0  0  0  0  0  0  0  0
  -28.7821  -14.2829   35.3356 C   0  0  0  0  0  0  0  0  0  0  0  0
  -30.7290  -14.7646   20.6577 C   0  0  0  0  0  0  0  0  0  0  0  0
  -22.9780  -23.7903   36.2499 C   0  0  0  0  0  0  0  0  0  0  0  0
  -24.2641  -17.8785   33.8380 C   0  0  0  0  0  0  0  0  0  0  0  0
  -27.1261  -17.3844   33.2819 C   0  0  0  0  0  0  0  0  0  0  0  0
  -24.1063  -22.9196   36.7966 C   0  0  0  0  0  0  0  0  0  0  0  0
  -29.6147  -12.3499   18.2902 C   0  0  0  0  0  0  0  0  0  0  0  0
  -25.2313  -22.7992   35.7736 C   0  0  0  0  0  0  0  0  0  0  0  0
  -28.1745  -12.0598   18.7188 C   0  0  0  0  0  0  0  0  0  0  0  0
  -28.2451  -17.0421   27.6337 C   0  0  0  0  0  0  0  0  0  0  0  0
  -26.3568  -18.4551   26.7567 C   0  0  0  0  0  0  0  0  0  0  0  0
  -30.5290  -12.5789   19.4925 C   0  0  0  0  0  0  0  0  0  0  0  0
  -28.6214  -13.3059   20.8715 C   0  0  0  0  0  0  0  0  0  0  0  0
  -29.2490  -17.9205   26.9046 C   0  0  0  0  0  0  0  0  0  0  0  0
  -24.7373  -22.1272   34.4868 C   0  0  1  0  0  0  0  0  0  0  0  0
  -25.3623  -18.3902   34.7650 C   0  0  1  0  0  0  0  0  0  0  0  0
  -27.6494  -13.1325   19.6930 C   0  0  2  0  0  0  0  0  0  0  0  0
  -26.9690  -17.7975   27.9911 C   0  0  1  0  0  0  0  0  0  1  0  0
  -27.3413  -19.3562   26.0056 C   0  0  1  0  0  0  0  0  0  0  0  0
  -27.6657  -20.6405   26.7665 C   0  0  0  0  0  0  0  0  0  0  0  0
  -30.0854  -12.5161   36.5509 C   0  0  0  0  0  0  0  0  0  0  0  0
  -29.8570  -19.0672   35.6017 C   0  0  0  0  0  0  0  0  0  0  0  0
  -31.2210  -16.9908   35.9119 C   0  0  0  0  0  0  0  0  0  0  0  0
  -29.6635  -17.7382   37.7114 C   0  0  0  0  0  0  0  0  0  0  0  0
  -26.6644  -12.2607   34.9054 C   0  0  0  0  0  0  0  0  0  0  0  0
  -29.5875  -19.2702   24.8289 C   0  0  0  0  0  0  0  0  0  0  0  0
  -32.5031  -19.3003   25.1624 C   0  0  0  0  0  0  0  0  0  0  0  0
  -28.7178  -16.7503   35.5850 C   0  0  1  0  0  0  0  0  0  0  0  0
  -28.7024  -13.0012   36.1451 C   0  0  2  0  0  0  0  0  0  0  0  0
  -29.8460  -17.6386   36.1812 C   0  0  0  0  0  0  0  0  0  0  0  0
  -25.8605  -11.5430   20.2884 N   0  0  0  0  0  0  0  0  0  0  0  0
  -26.2386  -12.8262   20.1594 N   0  0  0  0  0  0  0  0  0  0  0  0
  -26.6083  -17.6317   34.6378 N   0  0  0  0  0  0  0  0  0  0  0  0
  -29.9700  -13.6108   20.3686 N   0  0  0  0  0  0  0  0  0  0  0  0
  -25.4736  -15.0544   20.4051 N   0  0  0  0  0  0  0  0  0  0  0  0
  -21.8857  -12.5838   21.5964 N   0  0  0  0  0  0  0  0  0  0  0  0
  -30.0816  -15.6908   21.4748 N   0  0  0  0  0  0  0  0  0  0  0  0
  -24.6319  -20.6958   34.6724 N   0  0  0  0  0  0  0  0  0  0  0  0
  -28.6664  -15.4002   36.1353 N   0  0  0  0  0  0  0  0  0  0  0  0
  -28.5922  -18.5449   25.6948 N   0  3  1  0  0  0  0  0  0  0  0  0
  -28.0418  -11.9271   35.3509 N   0  3  0  0  0  0  0  0  0  0  0  0
  -22.6633  -14.7228   21.3155 O   0  0  0  0  0  0  0  0  0  0  0  0
  -26.8484  -20.1426   34.2212 O   0  0  0  0  0  0  0  0  0  0  0  0
  -26.9410  -17.5398   36.9436 O   0  0  0  0  0  0  0  0  0  0  0  0
  -28.9356  -14.2921   34.1162 O   0  0  0  0  0  0  0  0  0  0  0  0
  -31.8586  -14.9321   20.1909 O   0  0  0  0  0  0  0  0  0  0  0  0
  -21.6080   -7.0210   21.7084 O   0  0  0  0  0  0  0  0  0  0  0  0
  -26.0171  -16.8927   28.5421 O   0  0  0  0  0  0  0  0  0  1  0  0
  -16.4433   -6.8391   19.7856 F   0  0  0  0  0  0  0  0  0  0  0  0
  -20.8295   -5.0643   19.9173 F   0  0  0  0  0  0  0  0  0  0  0  0
  -32.2445  -20.5905   24.8254 F   0  0  0  0  0  0  0  0  0  0  0  0
  -33.8534  -19.1567   25.1352 F   0  0  0  0  0  0  0  0  0  0  0  0
  1  2  1  0  0  0  0
  1  5  2  0  0  0  0
  2  6  2  0  0  0  0
  3 10  2  0  0  0  0
  3 18  1  0  0  0  0
  4 11  1  0  0  0  0
  4 18  2  0  0  0  0
  5 20  1  0  0  0  0
  6 22  1  0  0  0  0
  7 12  2  0  0  0  0
  7 21  1  0  0  0  0
  8  9  2  0  0  0  0
  8 24  1  0  0  0  0
  9 26  1  0  0  0  0
 10 27  1  0  0  0  0
 11 27  2  0  0  0  0
 12 28  1  0  0  0  0
 13 14  2  0  0  0  0
 13 29  1  0  0  0  0
 14 30  1  0  0  0  0
 15 23  1  0  0  0  0
 15 28  2  0  0  0  0
 16 25  1  0  0  0  0
 16 26  2  0  0  0  0
 17 30  2  0  0  0  0
 17 31  1  0  0  0  0
 18 32  1  0  0  0  0
 19 32  1  0  0  0  0
 19 33  2  0  0  0  0
 19 34  1  0  0  0  0
 20 22  2  0  0  0  0
 20 39  1  0  0  0  0
 21 23  2  0  0  0  0
 21 40  1  0  0  0  0
 22 51  1  0  0  0  0
 23 41  1  0  0  0  0
 24 25  2  0  0  0  0
 24 63  1  0  0  0  0
 25 62  1  0  0  0  0
 26 73  1  0  0  0  0
 27 83  1  0  0  0  0
 28 84  1  0  0  0  0
 29 31  2  0  0  0  0
 29 83  1  0  0  0  0
 30 85  1  0  0  0  0
 31 86  1  0  0  0  0
 32 67  2  0  0  0  0
 33 68  1  0  0  0  0
 33 71  1  0  0  0  0
 34 72  1  0  0  0  0
 34 78  2  0  0  0  0
 35 52  1  0  0  0  0
 35 74  1  0  0  0  0
 35 79  2  0  0  0  0
 36 64  1  0  0  0  0
 36 69  1  0  0  0  0
 36 80  2  0  0  0  0
 37 65  1  0  0  0  0
 37 75  1  0  0  0  0
 37 81  2  0  0  0  0
 38 70  1  0  0  0  0
 38 73  1  0  0  0  0
 38 82  2  0  0  0  0
 39 42  1  0  0  0  0
 40 52  1  0  0  0  0
 41 69  1  0  0  0  0
 42 44  1  0  0  0  0
 43 45  1  0  0  0  0
 43 48  1  0  0  0  0
 44 51  1  0  0  0  0
 45 53  1  0  0  0  0
 46 50  1  0  0  0  0
 46 54  1  0  0  0  0
 47 54  1  0  0  0  0
 47 55  1  0  0  0  0
 48 70  1  0  0  0  0
 49 53  1  0  0  0  0
 49 70  1  0  0  0  0
 50 76  1  0  0  0  0
 51 74  1  0  0  0  0
 52 69  1  0  0  0  0
 53 68  1  0  0  0  0
 54 84  1  0  0  0  0
 55 56  1  0  0  0  0
 55 76  1  0  0  0  0
 57 65  1  0  0  0  0
 58 66  1  0  0  0  0
 59 66  1  0  0  0  0
 60 66  1  0  0  0  0
 61 77  1  0  0  0  0
 62 76  1  0  0  0  0
 63 87  1  0  0  0  0
 63 88  1  0  0  0  0
 64 66  1  0  0  0  0
 64 75  1  0  0  0  0
 65 77  1  0  0  0  0
 67 68  1  0  0  0  0
M  CHG  2  76   1  77   1
M  ISO  4  38 100  54 101  73 100  84 101
M  END
> <Batch ID>
0045

> <Smiles>
CNC(C)C(=O)NC(C(=O)N1Cc2cc([101O:1][101CH:1]3CCN(Cc4cc([100NH:0][100C:0](=O)N5CCCC(n6nc(-c7ccc(Oc8ccc(F)cc8F)cc7)c(C(N)=O)c6N)C5)ccc4C(F)F)C(C)C3)ccc2CC1C(=O)NC1CCCc2ccccc21)C(C)(C)C

> <Shape>
0.144

> <Color>
0.187

> <Negative vol penalty>
0.000

$$$$

  -OEChem-04042322213D

 87 96  0     1  0  0  0  0  0999 V2000
  -18.4287  -32.9263   24.2370 C   0  0  0  0  0  0  0  0  0  0  0  0
  -19.6801  -33.0955   23.6532 C   0  0  0  0  0  0  0  0  0  0  0  0
  -24.6980  -11.9841   21.3510 C   0  0  0  0  0  0  0  0  0  0  0  0
  -25.7629  -13.3988   22.9947 C   0  0  0  0  0  0  0  0  0  0  0  0
  -18.0729  -31.6901   24.7746 C   0  0  0  0  0  0  0  0  0  0  0  0
  -20.5769  -32.0286   23.6076 C   0  0  0  0  0  0  0  0  0  0  0  0
  -25.7648  -29.2674   19.5115 C   0  0  0  0  0  0  0  0  0  0  0  0
  -25.1061  -10.8539   22.0593 C   0  0  0  0  0  0  0  0  0  0  0  0
  -26.1710  -12.2685   23.7030 C   0  0  0  0  0  0  0  0  0  0  0  0
  -27.0875  -28.8347   19.5949 C   0  0  0  0  0  0  0  0  0  0  0  0
  -24.1298   -9.1534   24.8140 C   0  0  0  0  0  0  0  0  0  0  0  0
  -23.1928   -8.1394   25.0124 C   0  0  0  0  0  0  0  0  0  0  0  0
  -26.3341  -26.7228   20.4845 C   0  0  0  0  0  0  0  0  0  0  0  0
  -29.0012  -21.8957   21.9326 C   0  0  0  0  0  0  0  0  0  0  0  0
  -27.3605  -21.1488   23.5410 C   0  0  0  0  0  0  0  0  0  0  0  0
  -24.6187   -6.5901   23.8276 C   0  0  0  0  0  0  0  0  0  0  0  0
  -25.0264  -13.2565   21.8187 C   0  0  0  0  0  0  0  0  0  0  0  0
  -23.2852  -14.8094   20.7870 C   0  0  0  0  0  0  0  0  0  0  0  0
  -18.9621  -30.6049   24.7270 C   0  0  0  0  0  0  0  0  0  0  0  0
  -24.7157  -28.4338   19.9249 C   0  0  0  0  0  0  0  0  0  0  0  0
  -20.2331  -30.7771   24.1463 C   0  0  0  0  0  0  0  0  0  0  0  0
  -24.9988  -27.1463   20.4029 C   0  0  0  0  0  0  0  0  0  0  0  0
  -29.5987  -22.6903   22.9110 C   0  0  0  0  0  0  0  0  0  0  0  0
  -29.0771  -22.7141   24.2044 C   0  0  0  0  0  0  0  0  0  0  0  0
  -27.8821  -21.1250   22.2476 C   0  0  0  0  0  0  0  0  0  0  0  0
  -25.8426  -10.9961   23.2353 C   0  0  0  0  0  0  0  0  0  0  0  0
  -27.3725  -27.5633   20.0841 C   0  0  0  0  0  0  0  0  0  0  0  0
  -25.3112   -8.8859   24.1223 C   0  0  0  0  0  0  0  0  0  0  0  0
  -23.4373   -6.8577   24.5192 C   0  0  0  0  0  0  0  0  0  0  0  0
  -25.5557   -7.6042   23.6292 C   0  0  0  0  0  0  0  0  0  0  0  0
  -27.9580  -21.9433   24.5195 C   0  0  0  0  0  0  0  0  0  0  0  0
  -24.6056  -14.4244   21.0872 C   0  0  0  0  0  0  0  0  0  0  0  0
  -23.4209  -15.9801   20.0817 C   0  0  0  0  0  0  0  0  0  0  0  0
  -29.5032  -25.3092   21.4713 C   0  0  0  0  0  0  0  0  0  0  0  0
  -22.0468  -14.1663   21.1162 C   0  0  0  0  0  0  0  0  0  0  0  0
  -22.4682  -28.6004   22.1665 C   0  0  0  0  0  0  0  0  0  0  0  0
  -21.4069  -25.8799   20.7541 C   0  0  0  0  0  0  0  0  0  0  0  0
  -22.8699  -22.8742   19.3966 C   0  0  0  0  0  0  0  0  0  0  0  0
  -27.6674  -20.1809   19.9219 C   0  0  0  0  0  0  0  0  0  0  0  0
  -18.5508  -29.3009   25.3636 C   0  0  0  0  0  0  0  0  0  0  0  0
  -23.2926  -28.9055   19.8036 C   0  0  0  0  0  0  0  0  0  0  0  0
  -23.9074  -26.2052   20.8406 C   0  0  0  0  0  0  0  0  0  0  0  0
  -19.4162  -28.1168   24.9401 C   0  0  0  0  0  0  0  0  0  0  0  0
  -30.8826  -27.2890   23.1341 C   0  0  0  0  0  0  0  0  0  0  0  0
  -26.4593  -18.2686   17.1722 C   0  0  0  0  0  0  0  0  0  0  0  0
  -20.8950  -28.4838   25.0114 C   0  0  0  0  0  0  0  0  0  0  0  0
  -30.3104  -27.6995   21.7934 C   0  0  0  0  0  0  0  0  0  0  0  0
  -25.7215  -17.1041   17.8368 C   0  0  0  0  0  0  0  0  0  0  0  0
  -31.3851  -25.8583   23.0583 C   0  0  0  0  0  0  0  0  0  0  0  0
  -27.7111  -18.6661   17.9525 C   0  0  0  0  0  0  0  0  0  0  0  0
  -26.7543  -17.7794   20.0423 C   0  0  0  0  0  0  0  0  0  0  0  0
  -21.2240  -29.6369   24.0556 C   0  0  1  0  0  0  0  0  0  0  0  0
  -29.1459  -26.7901   21.4539 C   0  0  1  0  0  0  0  0  0  1  0  0
  -22.3365  -28.1657   20.7343 C   0  0  1  0  0  0  0  0  0  0  0  0
  -25.4512  -17.3857   19.3278 C   0  0  2  0  0  0  0  0  0  0  0  0
  -29.7295  -23.5733   25.2426 C   0  0  0  0  0  0  0  0  0  0  0  0
  -22.0385  -21.3165   17.6134 C   0  0  0  0  0  0  0  0  0  0  0  0
  -20.2467  -24.2928   23.0876 C   0  0  0  0  0  0  0  0  0  0  0  0
  -20.8665  -22.1915   21.8758 C   0  0  0  0  0  0  0  0  0  0  0  0
  -19.2261  -23.7751   20.8639 C   0  0  0  0  0  0  0  0  0  0  0  0
  -25.3568  -23.1665   17.8190 C   0  0  0  0  0  0  0  0  0  0  0  0
  -30.8015  -23.5107   22.5444 C   0  0  0  0  0  0  0  0  0  0  0  0
  -21.6734  -24.4055   20.9387 C   0  0  1  0  0  0  0  0  0  0  0  0
  -22.9559  -22.4870   17.9313 C   0  0  2  0  0  0  0  0  0  0  0  0
  -20.5229  -23.6858   21.6976 C   0  0  0  0  0  0  0  0  0  0  0  0
  -25.5133  -15.2810   20.6114 N   0  0  0  0  0  0  0  0  0  0  0  0
  -24.7621  -16.2159   20.0050 N   0  0  0  0  0  0  0  0  0  0  0  0
  -30.4741  -24.9226   22.3970 N   0  0  0  0  0  0  0  0  0  0  0  0
  -22.5324  -26.7148   20.7087 N   0  0  0  0  0  0  0  0  0  0  0  0
  -27.3775  -18.9216   19.3554 N   0  0  0  0  0  0  0  0  0  0  0  0
  -22.5226  -16.8206   19.5257 N   0  0  0  0  0  0  0  0  0  0  0  0
  -22.0883  -12.9703   21.8458 N   0  0  0  0  0  0  0  0  0  0  0  0
  -27.2754  -20.3184   21.2531 N   0  0  0  0  0  0  0  0  0  0  0  0
  -21.3175  -29.1540   22.6945 N   0  0  0  0  0  0  0  0  0  0  0  0
  -21.9388  -23.8690   19.6082 N   0  0  0  0  0  0  0  0  0  0  0  0
  -24.3511  -22.0997   17.5789 N   0  3  0  0  0  0  0  0  0  0  0  0
  -28.8969  -24.5222   20.7397 O   0  0  0  0  0  0  0  0  0  0  0  0
  -20.9370  -14.6296   20.7595 O   0  0  0  0  0  0  0  0  0  0  0  0
  -23.5344  -28.4437   22.7499 O   0  0  0  0  0  0  0  0  0  0  0  0
  -20.2435  -26.2754   20.6469 O   0  0  0  0  0  0  0  0  0  0  0  0
  -23.5570  -22.3443   20.2670 O   0  0  0  0  0  0  0  0  0  0  0  0
  -28.1979  -21.0810   19.2658 O   0  0  0  0  0  0  0  0  0  0  0  0
  -26.2408   -9.8935   23.9269 O   0  0  0  0  0  0  0  0  0  0  0  0
  -28.6627  -27.1386   20.1671 O   0  0  0  0  0  0  0  0  0  1  0  0
  -22.5381   -5.8836   24.7111 F   0  0  0  0  0  0  0  0  0  0  0  0
  -26.6894   -7.3408   22.9650 F   0  0  0  0  0  0  0  0  0  0  0  0
  -27.2834  -21.9430   26.1089 Cl  0  0  0  0  0  0  0  0  0  0  0  0
  1  2  1  0  0  0  0
  1  5  2  0  0  0  0
  2  6  2  0  0  0  0
  3  8  2  0  0  0  0
  3 17  1  0  0  0  0
  4  9  1  0  0  0  0
  4 17  2  0  0  0  0
  5 19  1  0  0  0  0
  6 21  1  0  0  0  0
  7 10  2  0  0  0  0
  7 20  1  0  0  0  0
  8 26  1  0  0  0  0
  9 26  2  0  0  0  0
 10 27  1  0  0  0  0
 11 12  2  0  0  0  0
 11 28  1  0  0  0  0
 12 29  1  0  0  0  0
 13 22  1  0  0  0  0
 13 27  2  0  0  0  0
 14 23  1  0  0  0  0
 14 25  2  0  0  0  0
 15 25  1  0  0  0  0
 15 31  2  0  0  0  0
 16 29  2  0  0  0  0
 16 30  1  0  0  0  0
 17 32  1  0  0  0  0
 18 32  1  0  0  0  0
 18 33  2  0  0  0  0
 18 35  1  0  0  0  0
 19 21  2  0  0  0  0
 19 40  1  0  0  0  0
 20 22  2  0  0  0  0
 20 41  1  0  0  0  0
 21 52  1  0  0  0  0
 22 42  1  0  0  0  0
 23 24  2  0  0  0  0
 23 62  1  0  0  0  0
 24 31  1  0  0  0  0
 24 56  1  0  0  0  0
 25 73  1  0  0  0  0
 26 83  1  0  0  0  0
 27 84  1  0  0  0  0
 28 30  2  0  0  0  0
 28 83  1  0  0  0  0
 29 85  1  0  0  0  0
 30 86  1  0  0  0  0
 31 87  1  0  0  0  0
 32 66  2  0  0  0  0
 33 67  1  0  0  0  0
 33 71  1  0  0  0  0
 34 53  1  0  0  0  0
 34 68  1  0  0  0  0
 34 77  2  0  0  0  0
 35 72  1  0  0  0  0
 35 78  2  0  0  0  0
 36 54  1  0  0  0  0
 36 74  1  0  0  0  0
 36 79  2  0  0  0  0
 37 63  1  0  0  0  0
 37 69  1  0  0  0  0
 37 80  2  0  0  0  0
 38 64  1  0  0  0  0
 38 75  1  0  0  0  0
 38 81  2  0  0  0  0
 39 70  1  0  0  0  0
 39 73  1  0  0  0  0
 39 82  2  0  0  0  0
 40 43  1  0  0  0  0
 41 54  1  0  0  0  0
 42 69  1  0  0  0  0
 43 46  1  0  0  0  0
 44 47  1  0  0  0  0
 44 49  1  0  0  0  0
 45 48  1  0  0  0  0
 45 50  1  0  0  0  0
 46 52  1  0  0  0  0
 47 53  1  0  0  0  0
 48 55  1  0  0  0  0
 49 68  1  0  0  0  0
 50 70  1  0  0  0  0
 51 55  1  0  0  0  0
 51 70  1  0  0  0  0
 52 74  1  0  0  0  0
 53 84  1  0  0  0  0
 54 69  1  0  0  0  0
 55 67  1  0  0  0  0
 57 64  1  0  0  0  0
 58 65  1  0  0  0  0
 59 65  1  0  0  0  0
 60 65  1  0  0  0  0
 61 76  1  0  0  0  0
 62 68  1  0  0  0  0
 63 65  1  0  0  0  0
 63 75  1  0  0  0  0
 64 76  1  0  0  0  0
 66 67  1  0  0  0  0
M  CHG  1  76   1
M  ISO  4  39 100  53 101  73 100  84 101
M  END
> <Batch ID>
0045

> <Smiles>
CNC(C)C(=O)NC(C(=O)N1Cc2cc([101O:1][101CH:1]3CCCN(Cc4cc([100NH:0][100C:0](=O)N5CCCC(n6nc(-c7ccc(Oc8ccc(F)cc8F)cc7)c(C(N)=O)c6N)C5)cc(Cl)c4C)C3=O)ccc2CC1C(=O)NC1CCCc2ccccc21)C(C)(C)C

> <Shape>
0.182

> <Color>
0.106

> <Negative vol penalty>
0.000

$$$$

  -OEChem-04042322213D

 84 92  0     1  0  0  0  0  0999 V2000
  -23.3669  -34.9261   20.1789 C   0  0  0  0  0  0  0  0  0  0  0  0
  -24.3422  -33.9556   19.9729 C   0  0  0  0  0  0  0  0  0  0  0  0
  -23.9070   -9.6237   21.6730 C   0  0  0  0  0  0  0  0  0  0  0  0
  -24.4930  -10.8549   23.6674 C   0  0  0  0  0  0  0  0  0  0  0  0
  -23.4195  -35.7359   21.3127 C   0  0  0  0  0  0  0  0  0  0  0  0
  -25.3713  -33.7951   20.9000 C   0  0  0  0  0  0  0  0  0  0  0  0
  -26.2551  -28.9313   21.9989 C   0  0  0  0  0  0  0  0  0  0  0  0
  -29.7629  -19.7560   17.6328 C   0  0  0  0  0  0  0  0  0  0  0  0
  -29.9184  -18.5255   18.2711 C   0  0  0  0  0  0  0  0  0  0  0  0
  -23.4315   -8.5750   22.4600 C   0  0  0  0  0  0  0  0  0  0  0  0
  -24.0174   -9.8061   24.4546 C   0  0  0  0  0  0  0  0  0  0  0  0
  -26.9859  -28.1914   21.0704 C   0  0  0  0  0  0  0  0  0  0  0  0
  -20.6544   -7.8682   24.2549 C   0  0  0  0  0  0  0  0  0  0  0  0
  -19.4274   -7.3025   23.9085 C   0  0  0  0  0  0  0  0  0  0  0  0
  -28.9682  -28.4720   22.4160 C   0  0  0  0  0  0  0  0  0  0  0  0
  -28.1734  -19.1160   19.8343 C   0  0  0  0  0  0  0  0  0  0  0  0
  -20.5018   -5.1604   23.6012 C   0  0  0  0  0  0  0  0  0  0  0  0
  -24.4378  -10.7637   22.2767 C   0  0  0  0  0  0  0  0  0  0  0  0
  -24.2009  -12.9560   20.9940 C   0  0  0  0  0  0  0  0  0  0  0  0
  -24.4444  -35.5787   22.2591 C   0  0  0  0  0  0  0  0  0  0  0  0
  -26.8788  -29.4573   23.1394 C   0  0  0  0  0  0  0  0  0  0  0  0
  -25.4384  -34.6045   22.0468 C   0  0  0  0  0  0  0  0  0  0  0  0
  -28.2425  -29.2161   23.3588 C   0  0  0  0  0  0  0  0  0  0  0  0
  -28.8128  -20.6665   18.0953 C   0  0  0  0  0  0  0  0  0  0  0  0
  -28.0180  -20.3465   19.1960 C   0  0  0  0  0  0  0  0  0  0  0  0
  -29.1236  -18.2055   19.3718 C   0  0  0  0  0  0  0  0  0  0  0  0
  -23.4866   -8.6662   23.8508 C   0  0  0  0  0  0  0  0  0  0  0  0
  -28.3433  -27.9641   21.2774 C   0  0  0  0  0  0  0  0  0  0  0  0
  -21.8052   -7.0801   24.2743 C   0  0  0  0  0  0  0  0  0  0  0  0
  -19.3511   -5.9486   23.5817 C   0  0  0  0  0  0  0  0  0  0  0  0
  -21.7288   -5.7262   23.9475 C   0  0  0  0  0  0  0  0  0  0  0  0
  -24.9297  -11.8472   21.4641 C   0  0  0  0  0  0  0  0  0  0  0  0
  -25.1144  -13.6876   20.2751 C   0  0  0  0  0  0  0  0  0  0  0  0
  -29.3198  -23.0940   18.1697 C   0  0  0  0  0  0  0  0  0  0  0  0
  -22.8215  -13.2946   21.1897 C   0  0  0  0  0  0  0  0  0  0  0  0
  -27.3754  -32.3839   24.2762 C   0  0  0  0  0  0  0  0  0  0  0  0
  -29.2871  -25.0981   19.2692 C   0  0  0  0  0  0  0  0  0  0  0  0
  -28.5301  -30.7696   26.8419 C   0  0  0  0  0  0  0  0  0  0  0  0
  -29.8952  -27.8992   28.0845 C   0  0  0  0  0  0  0  0  0  0  0  0
  -30.1736  -15.9374   19.6871 C   0  0  0  0  0  0  0  0  0  0  0  0
  -24.4861  -36.5093   23.4452 C   0  0  0  0  0  0  0  0  0  0  0  0
  -26.0706  -30.2307   24.1449 C   0  0  0  0  0  0  0  0  0  0  0  0
  -28.9548  -29.7417   24.5774 C   0  0  0  0  0  0  0  0  0  0  0  0
  -25.3988  -36.0239   24.5684 C   0  0  0  0  0  0  0  0  0  0  0  0
  -29.7980  -12.5234   18.7487 C   0  0  0  0  0  0  0  0  0  0  0  0
  -26.7393  -35.5626   24.0052 C   0  0  0  0  0  0  0  0  0  0  0  0
  -28.4380  -12.1344   19.3328 C   0  0  0  0  0  0  0  0  0  0  0  0
  -30.5557  -13.4821   19.6655 C   0  0  0  0  0  0  0  0  0  0  0  0
  -28.4473  -14.2915   20.6495 C   0  0  0  0  0  0  0  0  0  0  0  0
  -26.5567  -34.3833   23.0422 C   0  0  1  0  0  0  0  0  0  0  0  0
  -26.9208  -31.1548   25.0113 C   0  0  1  0  0  0  0  0  0  0  0  0
  -27.6192  -13.3779   19.7311 C   0  0  2  0  0  0  0  0  0  0  0  0
  -26.9929  -21.3048   19.7074 C   0  0  0  0  0  0  0  0  0  0  0  0
  -30.7673  -26.8926   30.2113 C   0  0  0  0  0  0  0  0  0  0  0  0
  -31.0838  -32.4175   26.5718 C   0  0  0  0  0  0  0  0  0  0  0  0
  -32.2295  -30.7565   28.0540 C   0  0  0  0  0  0  0  0  0  0  0  0
  -30.3031  -32.0813   28.9238 C   0  0  0  0  0  0  0  0  0  0  0  0
  -27.8656  -25.7458   28.0340 C   0  0  0  0  0  0  0  0  0  0  0  0
  -28.6642  -21.9874   17.3911 C   0  0  0  0  0  0  0  0  0  0  0  0
  -28.3582  -26.2352   19.6444 C   0  0  0  0  0  0  0  0  0  1  0  0
  -29.8820  -30.2350   27.2488 C   0  0  1  0  0  0  0  0  0  0  0  0
  -29.5553  -27.0705   29.3102 C   0  0  2  0  0  0  0  0  0  0  0  0
  -30.8619  -31.3642   27.6756 C   0  0  0  0  0  0  0  0  0  0  0  0
  -26.2077  -11.8682   21.0764 N   0  0  0  0  0  0  0  0  0  0  0  0
  -28.6338  -24.1200   18.5498 N   0  0  0  0  0  0  0  0  0  0  0  0
  -26.2890  -12.9991   20.3549 N   0  0  0  0  0  0  0  0  0  0  0  0
  -28.1228  -30.4974   25.5282 N   0  0  0  0  0  0  0  0  0  0  0  0
  -29.7197  -14.6379   19.9971 N   0  0  0  0  0  0  0  0  0  0  0  0
  -25.0194  -14.8461   19.5887 N   0  0  0  0  0  0  0  0  0  0  0  0
  -22.0241  -12.4327   21.9551 N   0  0  0  0  0  0  0  0  0  0  0  0
  -29.2797  -16.9549   20.0193 N   0  0  0  0  0  0  0  0  0  0  0  0
  -26.3430  -33.1567   23.7799 N   0  0  0  0  0  0  0  0  0  0  0  0
  -29.6319  -29.2379   28.2840 N   0  0  0  0  0  0  0  0  0  0  0  0
  -29.0690  -25.7214   28.9047 N   0  3  0  0  0  0  0  0  0  0  0  0
  -22.3071  -14.3222   20.6867 O   0  0  0  0  0  0  0  0  0  0  0  0
  -28.5741  -32.6148   24.1685 O   0  0  0  0  0  0  0  0  0  0  0  0
  -30.4718  -25.1011   19.5968 O   0  0  0  0  0  0  0  0  0  0  0  0
  -27.8571  -31.3993   27.6618 O   0  0  0  0  0  0  0  0  0  0  0  0
  -30.3523  -27.4086   27.0545 O   0  0  0  0  0  0  0  0  0  0  0  0
  -31.2625  -16.1313   19.1406 O   0  0  0  0  0  0  0  0  0  0  0  0
  -23.0225   -7.6430   24.6192 O   0  0  0  0  0  0  0  0  0  0  0  0
  -29.0592  -27.2428   20.3723 O   0  0  0  0  0  0  0  0  0  1  0  0
  -18.1724   -5.4052   23.2506 F   0  0  0  0  0  0  0  0  0  0  0  0
  -22.8307   -4.9637   23.9657 F   0  0  0  0  0  0  0  0  0  0  0  0
  1  2  1  0  0  0  0
  1  5  2  0  0  0  0
  2  6  2  0  0  0  0
  3 10  2  0  0  0  0
  3 18  1  0  0  0  0
  4 11  1  0  0  0  0
  4 18  2  0  0  0  0
  5 20  1  0  0  0  0
  6 22  1  0  0  0  0
  7 12  2  0  0  0  0
  7 21  1  0  0  0  0
  8  9  2  0  0  0  0
  8 24  1  0  0  0  0
  9 26  1  0  0  0  0
 10 27  1  0  0  0  0
 11 27  2  0  0  0  0
 12 28  1  0  0  0  0
 13 14  2  0  0  0  0
 13 29  1  0  0  0  0
 14 30  1  0  0  0  0
 15 23  1  0  0  0  0
 15 28  2  0  0  0  0
 16 25  1  0  0  0  0
 16 26  2  0  0  0  0
 17 30  2  0  0  0  0
 17 31  1  0  0  0  0
 18 32  1  0  0  0  0
 19 32  1  0  0  0  0
 19 33  2  0  0  0  0
 19 35  1  0  0  0  0
 20 22  2  0  0  0  0
 20 41  1  0  0  0  0
 21 23  2  0  0  0  0
 21 42  1  0  0  0  0
 22 50  1  0  0  0  0
 23 43  1  0  0  0  0
 24 25  2  0  0  0  0
 24 59  1  0  0  0  0
 25 53  1  0  0  0  0
 26 71  1  0  0  0  0
 27 81  1  0  0  0  0
 28 82  1  0  0  0  0
 29 31  2  0  0  0  0
 29 81  1  0  0  0  0
 30 83  1  0  0  0  0
 31 84  1  0  0  0  0
 32 64  2  0  0  0  0
 33 66  1  0  0  0  0
 33 69  1  0  0  0  0
 34 59  1  0  0  0  0
 34 65  2  0  0  0  0
 35 70  1  0  0  0  0
 35 75  2  0  0  0  0
 36 51  1  0  0  0  0
 36 72  1  0  0  0  0
 36 76  2  0  0  0  0
 37 60  1  0  0  0  0
 37 65  1  0  0  0  0
 37 77  2  0  0  0  0
 38 61  1  0  0  0  0
 38 67  1  0  0  0  0
 38 78  2  0  0  0  0
 39 62  1  0  0  0  0
 39 73  1  0  0  0  0
 39 79  2  0  0  0  0
 40 68  1  0  0  0  0
 40 71  1  0  0  0  0
 40 80  2  0  0  0  0
 41 44  1  0  0  0  0
 42 51  1  0  0  0  0
 43 67  1  0  0  0  0
 44 46  1  0  0  0  0
 45 47  1  0  0  0  0
 45 48  1  0  0  0  0
 46 50  1  0  0  0  0
 47 52  1  0  0  0  0
 48 68  1  0  0  0  0
 49 52  1  0  0  0  0
 49 68  1  0  0  0  0
 50 72  1  0  0  0  0
 51 67  1  0  0  0  0
 52 66  1  0  0  0  0
 54 62  1  0  0  0  0
 55 63  1  0  0  0  0
 56 63  1  0  0  0  0
 57 63  1  0  0  0  0
 58 74  1  0  0  0  0
 60 82  1  0  0  0  0
 61 63  1  0  0  0  0
 61 73  1  0  0  0  0
 62 74  1  0  0  0  0
 64 66  1  0  0  0  0
M  CHG  1  74   1
M  ISO  4  40 100  60 101  71 100  82 101
M  END
> <Batch ID>
0045

> <Smiles>
CNC(C)C(=O)NC(C(=O)N1Cc2cc([101O:1][101CH2:1]C(=O)NC=Cc3ccc([100NH:0][100C:0](=O)N4CCCC(n5nc(-c6ccc(Oc7ccc(F)cc7F)cc6)c(C(N)=O)c5N)C4)cc3C)ccc2CC1C(=O)NC1CCCc2ccccc21)C(C)(C)C

> <Shape>
0.303

> <Color>
0.136

> <Negative vol penalty>
0.000

$$$$

  -OEChem-04042322213D

 86 94  0     1  0  0  0  0  0999 V2000
  -22.8827  -23.7635   18.2794 C   0  0  0  0  0  0  0  0  0  0  0  0
  -23.8577  -22.7769   18.1859 C   0  0  0  0  0  0  0  0  0  0  0  0
  -25.3215  -27.0784   19.7980 C   0  0  0  0  0  0  0  0  0  0  0  0
  -27.3610  -27.9736   20.7339 C   0  0  0  0  0  0  0  0  0  0  0  0
  -21.8122  -23.5994   19.1559 C   0  0  0  0  0  0  0  0  0  0  0  0
  -23.7564  -21.6204   18.9600 C   0  0  0  0  0  0  0  0  0  0  0  0
  -27.0242  -18.0493   18.0816 C   0  0  0  0  0  0  0  0  0  0  0  0
  -34.4921  -24.1411   24.6889 C   0  0  0  0  0  0  0  0  0  0  0  0
  -24.7074  -28.3220   19.9466 C   0  0  0  0  0  0  0  0  0  0  0  0
  -26.7470  -29.2172   20.8826 C   0  0  0  0  0  0  0  0  0  0  0  0
  -28.3665  -18.1500   18.4445 C   0  0  0  0  0  0  0  0  0  0  0  0
  -25.6072  -32.5324   21.8417 C   0  0  0  0  0  0  0  0  0  0  0  0
  -25.7934  -33.2074   23.0481 C   0  0  0  0  0  0  0  0  0  0  0  0
  -34.1622  -25.3439   25.3134 C   0  0  0  0  0  0  0  0  0  0  0  0
  -27.9648  -16.6805   20.3150 C   0  0  0  0  0  0  0  0  0  0  0  0
  -32.0852  -24.3764   26.0796 C   0  0  0  0  0  0  0  0  0  0  0  0
  -24.7754  -31.3660   24.2356 C   0  0  0  0  0  0  0  0  0  0  0  0
  -26.6483  -26.9042   20.1917 C   0  0  0  0  0  0  0  0  0  0  0  0
  -28.0007  -25.1537   18.9211 C   0  0  0  0  0  0  0  0  0  0  0  0
  -21.7050  -22.4457   19.9499 C   0  0  0  0  0  0  0  0  0  0  0  0
  -26.1382  -17.2708   18.8402 C   0  0  0  0  0  0  0  0  0  0  0  0
  -22.6708  -21.4254   19.8330 C   0  0  0  0  0  0  0  0  0  0  0  0
  -26.6123  -16.5695   19.9581 C   0  0  0  0  0  0  0  0  0  0  0  0
  -33.6186  -23.0559   24.7597 C   0  0  0  0  0  0  0  0  0  0  0  0
  -32.4151  -23.1736   25.4550 C   0  0  0  0  0  0  0  0  0  0  0  0
  -25.4202  -29.3914   20.4889 C   0  0  0  0  0  0  0  0  0  0  0  0
  -28.8364  -17.4679   19.5630 C   0  0  0  0  0  0  0  0  0  0  0  0
  -25.0049  -31.2742   21.8323 C   0  0  0  0  0  0  0  0  0  0  0  0
  -25.3776  -32.6242   24.2450 C   0  0  0  0  0  0  0  0  0  0  0  0
  -24.5891  -30.6910   23.0292 C   0  0  0  0  0  0  0  0  0  0  0  0
  -32.9588  -25.4616   26.0087 C   0  0  0  0  0  0  0  0  0  0  0  0
  -27.2829  -25.6197   20.0389 C   0  0  0  0  0  0  0  0  0  0  0  0
  -28.3971  -23.8862   19.2716 C   0  0  0  0  0  0  0  0  0  0  0  0
  -31.9939  -20.0680   21.3857 C   0  0  0  0  0  0  0  0  0  0  0  0
  -31.9213  -18.9960   20.5849 C   0  0  0  0  0  0  0  0  0  0  0  0
  -28.2838  -25.8080   17.6772 C   0  0  0  0  0  0  0  0  0  0  0  0
  -33.1259  -20.2180   22.3413 C   0  0  0  0  0  0  0  0  0  0  0  0
  -23.5090  -17.8643   20.5251 C   0  0  0  0  0  0  0  0  0  0  0  0
  -23.4221  -14.6329   20.7953 C   0  0  0  0  0  0  0  0  0  0  0  0
  -25.1232  -11.6748   20.7467 C   0  0  0  0  0  0  0  0  0  0  0  0
  -29.3358  -21.2212   24.5506 C   0  0  0  0  0  0  0  0  0  0  0  0
  -20.5215  -22.3161   20.8760 C   0  0  0  0  0  0  0  0  0  0  0  0
  -24.6989  -17.1511   18.4200 C   0  0  0  0  0  0  0  0  0  0  0  0
  -25.7063  -15.7043   20.7942 C   0  0  0  0  0  0  0  0  0  0  0  0
  -20.7333  -21.2736   21.9691 C   0  0  0  0  0  0  0  0  0  0  0  0
  -27.0927  -20.1729   21.9921 C   0  0  0  0  0  0  0  0  0  0  0  0
  -21.2321  -19.9730   21.3573 C   0  0  0  0  0  0  0  0  0  0  0  0
  -26.9518  -21.4079   21.1005 C   0  0  0  0  0  0  0  0  0  0  0  0
  -27.2113  -20.5519   23.4666 C   0  0  0  0  0  0  0  0  0  0  0  0
  -28.1359  -22.7600   22.8806 C   0  0  0  0  0  0  0  0  0  0  0  0
  -22.5976  -20.1729   20.6876 C   0  0  1  0  0  0  0  0  0  0  0  0
  -23.7749  -16.7415   19.5628 C   0  0  1  0  0  0  0  0  0  0  0  0
  -28.0692  -22.4312   21.3794 C   0  0  2  0  0  0  0  0  0  0  0  0
  -24.7883   -9.2049   21.0378 C   0  0  0  0  0  0  0  0  0  0  0  0
  -23.2452  -15.0155   23.8173 C   0  0  0  0  0  0  0  0  0  0  0  0
  -23.8668  -12.6055   24.0887 C   0  0  0  0  0  0  0  0  0  0  0  0
  -21.7600  -13.2226   22.9040 C   0  0  0  0  0  0  0  0  0  0  0  0
  -26.0288  -11.1092   17.9865 C   0  0  0  0  0  0  0  0  0  0  0  0
  -33.9945  -21.7716   24.0790 C   0  0  0  0  0  0  0  0  0  0  0  0
  -31.4635  -22.0257   25.5430 C   0  0  0  0  0  0  0  0  0  0  0  0
  -30.8180  -18.7824   19.5993 C   0  0  0  0  0  0  0  0  0  1  0  0
  -23.9834  -13.6262   21.7701 C   0  0  1  0  0  0  0  0  0  0  0  0
  -24.8348  -10.3584   20.0478 C   0  0  2  0  0  0  0  0  0  0  0  0
  -23.2308  -13.6352   23.1306 C   0  0  0  0  0  0  0  0  0  0  0  0
  -27.2250  -24.7213   21.0256 N   0  0  0  0  0  0  0  0  0  0  0  0
  -27.9113  -23.6781   20.5290 N   0  0  0  0  0  0  0  0  0  0  0  0
  -24.3061  -15.6243   20.3464 N   0  0  0  0  0  0  0  0  0  0  0  0
  -28.2898  -21.5236   23.6633 N   0  0  0  0  0  0  0  0  0  0  0  0
  -29.1103  -22.9406   18.6239 N   0  0  0  0  0  0  0  0  0  0  0  0
  -27.8014  -27.1094   17.4819 N   0  0  0  0  0  0  0  0  0  0  0  0
  -33.0249  -21.3857   23.0783 N   0  0  0  0  0  0  0  0  0  0  0  0
  -22.9377  -18.9801   19.9437 N   0  0  0  0  0  0  0  0  0  0  0  0
  -23.9628  -12.3386   21.0844 N   0  0  0  0  0  0  0  0  0  0  0  0
  -30.3204  -22.1939   24.6736 N   0  0  0  0  0  0  0  0  0  0  0  0
  -25.8896  -10.0672   19.0361 N   0  3  0  0  0  0  0  0  0  0  0  0
  -28.9310  -25.2490   16.7595 O   0  0  0  0  0  0  0  0  0  0  0  0
  -34.0216  -19.3855   22.4376 O   0  0  0  0  0  0  0  0  0  0  0  0
  -23.7993  -17.7279   21.7078 O   0  0  0  0  0  0  0  0  0  0  0  0
  -22.2447  -14.5389   20.4396 O   0  0  0  0  0  0  0  0  0  0  0  0
  -26.2637  -12.0725   20.9739 O   0  0  0  0  0  0  0  0  0  0  0  0
  -29.3911  -20.1605   25.1822 O   0  0  0  0  0  0  0  0  0  0  0  0
  -24.8214  -30.6050   20.6339 O   0  0  0  0  0  0  0  0  0  0  0  0
  -30.1460  -17.5650   19.9198 O   0  0  0  0  0  0  0  0  0  1  0  0
  -25.5579  -33.2718   25.4035 F   0  0  0  0  0  0  0  0  0  0  0  0
  -24.0110  -29.4821   23.0265 F   0  0  0  0  0  0  0  0  0  0  0  0
  -32.5514  -26.9460   26.7774 Cl  0  0  0  0  0  0  0  0  0  0  0  0
  1  2  1  0  0  0  0
  1  5  2  0  0  0  0
  2  6  2  0  0  0  0
  3  9  2  0  0  0  0
  3 18  1  0  0  0  0
  4 10  1  0  0  0  0
  4 18  2  0  0  0  0
  5 20  1  0  0  0  0
  6 22  1  0  0  0  0
  7 11  2  0  0  0  0
  7 21  1  0  0  0  0
  8 14  2  0  0  0  0
  8 24  1  0  0  0  0
  9 26  1  0  0  0  0
 10 26  2  0  0  0  0
 11 27  1  0  0  0  0
 12 13  2  0  0  0  0
 12 28  1  0  0  0  0
 13 29  1  0  0  0  0
 14 31  1  0  0  0  0
 15 23  1  0  0  0  0
 15 27  2  0  0  0  0
 16 25  1  0  0  0  0
 16 31  2  0  0  0  0
 17 29  2  0  0  0  0
 17 30  1  0  0  0  0
 18 32  1  0  0  0  0
 19 32  1  0  0  0  0
 19 33  2  0  0  0  0
 19 36  1  0  0  0  0
 20 22  2  0  0  0  0
 20 42  1  0  0  0  0
 21 23  2  0  0  0  0
 21 43  1  0  0  0  0
 22 51  1  0  0  0  0
 23 44  1  0  0  0  0
 24 25  2  0  0  0  0
 24 59  1  0  0  0  0
 25 60  1  0  0  0  0
 26 82  1  0  0  0  0
 27 83  1  0  0  0  0
 28 30  2  0  0  0  0
 28 82  1  0  0  0  0
 29 84  1  0  0  0  0
 30 85  1  0  0  0  0
 31 86  1  0  0  0  0
 32 65  2  0  0  0  0
 33 66  1  0  0  0  0
 33 69  1  0  0  0  0
 34 35  2  0  0  0  0
 34 37  1  0  0  0  0
 35 61  1  0  0  0  0
 36 70  1  0  0  0  0
 36 76  2  0  0  0  0
 37 71  1  0  0  0  0
 37 77  2  0  0  0  0
 38 52  1  0  0  0  0
 38 72  1  0  0  0  0
 38 78  2  0  0  0  0
 39 62  1  0  0  0  0
 39 67  1  0  0  0  0
 39 79  2  0  0  0  0
 40 63  1  0  0  0  0
 40 73  1  0  0  0  0
 40 80  2  0  0  0  0
 41 68  1  0  0  0  0
 41 74  1  0  0  0  0
 41 81  2  0  0  0  0
 42 45  1  0  0  0  0
 43 52  1  0  0  0  0
 44 67  1  0  0  0  0
 45 47  1  0  0  0  0
 46 48  1  0  0  0  0
 46 49  1  0  0  0  0
 47 51  1  0  0  0  0
 48 53  1  0  0  0  0
 49 68  1  0  0  0  0
 50 53  1  0  0  0  0
 50 68  1  0  0  0  0
 51 72  1  0  0  0  0
 52 67  1  0  0  0  0
 53 66  1  0  0  0  0
 54 63  1  0  0  0  0
 55 64  1  0  0  0  0
 56 64  1  0  0  0  0
 57 64  1  0  0  0  0
 58 75  1  0  0  0  0
 59 71  1  0  0  0  0
 60 74  1  0  0  0  0
 61 83  1  0  0  0  0
 62 64  1  0  0  0  0
 62 73  1  0  0  0  0
 63 75  1  0  0  0  0
 65 66  1  0  0  0  0
M  CHG  1  75   1
M  ISO  4  41 100  61 101  74 100  83 101
M  END
> <Batch ID>
0045

> <Smiles>
CNC(C)C(=O)NC(C(=O)N1Cc2cc([101O:1][101CH2:1]C=CC(=O)NCc3ccc(Cl)cc3C[100NH:0][100C:0](=O)N3CCCC(n4nc(-c5ccc(Oc6ccc(F)cc6F)cc5)c(C(N)=O)c4N)C3)ccc2CC1C(=O)NC1CCCc2ccccc21)C(C)(C)C

> <Shape>
0.186

> <Color>
0.086

> <Negative vol penalty>
0.000

$$$$

  -OEChem-04042322213D

 85 93  0     1  0  0  0  0  0999 V2000
  -20.2825  -25.4664   15.3647 C   0  0  0  0  0  0  0  0  0  0  0  0
  -21.5654  -24.9593   15.5447 C   0  0  0  0  0  0  0  0  0  0  0  0
  -23.1350  -10.0227   19.8691 C   0  0  0  0  0  0  0  0  0  0  0  0
  -23.9450   -9.8668   22.1400 C   0  0  0  0  0  0  0  0  0  0  0  0
  -20.0742  -26.8450   15.3541 C   0  0  0  0  0  0  0  0  0  0  0  0
  -22.6410  -25.8306   15.7131 C   0  0  0  0  0  0  0  0  0  0  0  0
  -25.7256  -24.4061   19.4683 C   0  0  0  0  0  0  0  0  0  0  0  0
  -31.7496  -17.8885   24.3114 C   0  0  0  0  0  0  0  0  0  0  0  0
  -30.8567  -16.9952   24.9031 C   0  0  0  0  0  0  0  0  0  0  0  0
  -22.4364   -8.8270   20.0362 C   0  0  0  0  0  0  0  0  0  0  0  0
  -23.2464   -8.6711   22.3071 C   0  0  0  0  0  0  0  0  0  0  0  0
  -26.6174  -23.3684   19.2007 C   0  0  0  0  0  0  0  0  0  0  0  0
  -23.6374   -5.4192   21.4686 C   0  0  0  0  0  0  0  0  0  0  0  0
  -24.3032   -4.3605   22.0863 C   0  0  0  0  0  0  0  0  0  0  0  0
  -28.3804  -24.9794   18.8605 C   0  0  0  0  0  0  0  0  0  0  0  0
  -31.8465  -16.4888   22.3445 C   0  0  0  0  0  0  0  0  0  0  0  0
  -22.6352   -4.3314   23.8340 C   0  0  0  0  0  0  0  0  0  0  0  0
  -23.8893  -10.5425   20.9210 C   0  0  0  0  0  0  0  0  0  0  0  0
  -24.1425  -13.0795   21.0058 C   0  0  0  0  0  0  0  0  0  0  0  0
  -21.1463  -27.7335   15.5321 C   0  0  0  0  0  0  0  0  0  0  0  0
  -26.1527  -25.7410   19.4232 C   0  0  0  0  0  0  0  0  0  0  0  0
  -22.4470  -27.2224   15.7036 C   0  0  0  0  0  0  0  0  0  0  0  0
  -27.4927  -26.0321   19.1304 C   0  0  0  0  0  0  0  0  0  0  0  0
  -32.2445  -17.6354   23.0320 C   0  0  0  0  0  0  0  0  0  0  0  0
  -30.4586  -15.8487   24.2156 C   0  0  0  0  0  0  0  0  0  0  0  0
  -30.9536  -15.5954   22.9363 C   0  0  0  0  0  0  0  0  0  0  0  0
  -22.4921   -8.1512   21.2551 C   0  0  0  0  0  0  0  0  0  0  0  0
  -27.9444  -23.6551   18.8939 C   0  0  0  0  0  0  0  0  0  0  0  0
  -22.4706   -5.9340   22.0335 C   0  0  0  0  0  0  0  0  0  0  0  0
  -23.8021   -3.8166   23.2690 C   0  0  0  0  0  0  0  0  0  0  0  0
  -21.9695   -5.3901   23.2162 C   0  0  0  0  0  0  0  0  0  0  0  0
  -24.6116  -11.7774   20.7489 C   0  0  0  0  0  0  0  0  0  0  0  0
  -25.2002  -13.8950   20.6854 C   0  0  0  0  0  0  0  0  0  0  0  0
  -31.3910  -21.2466   20.4339 C   0  0  0  0  0  0  0  0  0  0  0  0
  -30.8291  -21.5470   19.2551 C   0  0  0  0  0  0  0  0  0  0  0  0
  -22.8648  -13.5132   21.4908 C   0  0  0  0  0  0  0  0  0  0  0  0
  -32.0184  -19.9137   20.6504 C   0  0  0  0  0  0  0  0  0  0  0  0
  -25.3838  -28.2844   17.6785 C   0  0  0  0  0  0  0  0  0  0  0  0
  -27.3859  -29.8086   19.7256 C   0  0  0  0  0  0  0  0  0  0  0  0
  -30.0125  -29.6101   21.8955 C   0  0  0  0  0  0  0  0  0  0  0  0
  -30.9681  -14.0533   20.9443 C   0  0  0  0  0  0  0  0  0  0  0  0
  -20.8790  -29.2163   15.4659 C   0  0  0  0  0  0  0  0  0  0  0  0
  -25.1846  -26.8476   19.7405 C   0  0  0  0  0  0  0  0  0  0  0  0
  -28.0061  -27.4474   19.0891 C   0  0  0  0  0  0  0  0  0  0  0  0
  -22.0169  -30.0660   16.0257 C   0  0  0  0  0  0  0  0  0  0  0  0
  -29.2544  -13.4079   17.8908 C   0  0  0  0  0  0  0  0  0  0  0  0
  -23.3595  -29.5817   15.4873 C   0  0  0  0  0  0  0  0  0  0  0  0
  -27.8361  -13.0488   18.3399 C   0  0  0  0  0  0  0  0  0  0  0  0
  -30.3083  -12.8736   18.8591 C   0  0  0  0  0  0  0  0  0  0  0  0
  -28.6871  -12.8872   20.7141 C   0  0  0  0  0  0  0  0  0  0  0  0
  -23.6357  -28.1350   15.9143 C   0  0  1  0  0  0  0  0  0  0  0  0
  -25.6063  -28.1947   19.1617 C   0  0  1  0  0  0  0  0  0  0  0  0
  -27.5878  -13.4597   19.8045 C   0  0  2  0  0  0  0  0  0  0  0  0
  -29.5017  -14.9089   24.8745 C   0  0  0  0  0  0  0  0  0  0  0  0
  -31.4470  -31.0296   23.3870 C   0  0  0  0  0  0  0  0  0  0  0  0
  -28.8820  -30.8592   17.2827 C   0  0  0  0  0  0  0  0  0  0  0  0
  -30.7917  -31.4464   18.7915 C   0  0  0  0  0  0  0  0  0  0  0  0
  -28.5697  -32.5332   19.1143 C   0  0  0  0  0  0  0  0  0  0  0  0
  -29.1781  -28.1187   24.3118 C   0  0  0  0  0  0  0  0  0  0  0  0
  -33.2055  -18.5976   22.3958 C   0  0  0  0  0  0  0  0  0  0  0  0
  -30.1864  -22.8652   18.9657 C   0  0  0  0  0  0  0  0  0  1  0  0
  -28.8660  -30.1046   19.7518 C   0  0  1  0  0  0  0  0  0  0  0  0
  -30.2039  -30.1581   23.2982 C   0  0  2  0  0  0  0  0  0  0  0  0
  -29.2675  -31.2092   18.7339 C   0  0  0  0  0  0  0  0  0  0  0  0
  -25.8694  -11.7617   20.2997 N   0  0  0  0  0  0  0  0  0  0  0  0
  -26.1995  -13.0641   20.2718 N   0  0  0  0  0  0  0  0  0  0  0  0
  -27.0195  -28.4949   19.4004 N   0  0  0  0  0  0  0  0  0  0  0  0
  -30.0104  -13.3064   20.2262 N   0  0  0  0  0  0  0  0  0  0  0  0
  -25.3636  -15.2346   20.7198 N   0  0  0  0  0  0  0  0  0  0  0  0
  -21.8921  -12.5437   21.7705 N   0  0  0  0  0  0  0  0  0  0  0  0
  -30.5607  -14.4367   22.2217 N   0  0  0  0  0  0  0  0  0  0  0  0
  -32.5425  -19.7935   21.9262 N   0  0  0  0  0  0  0  0  0  0  0  0
  -24.0711  -28.0895   17.2937 N   0  0  0  0  0  0  0  0  0  0  0  0
  -29.1945  -30.4211   21.1375 N   0  0  0  0  0  0  0  0  0  0  0  0
  -30.3414  -29.0420   24.2761 N   0  3  0  0  0  0  0  0  0  0  0  0
  -22.5883  -14.7256   21.6554 O   0  0  0  0  0  0  0  0  0  0  0  0
  -32.0470  -19.0497   19.7801 O   0  0  0  0  0  0  0  0  0  0  0  0
  -26.3327  -28.5149   16.9380 O   0  0  0  0  0  0  0  0  0  0  0  0
  -26.5845  -30.7081   19.9911 O   0  0  0  0  0  0  0  0  0  0  0  0
  -30.5391  -28.5689   21.5095 O   0  0  0  0  0  0  0  0  0  0  0  0
  -32.0579  -14.3556   20.4515 O   0  0  0  0  0  0  0  0  0  0  0  0
  -21.8104   -6.9845   21.4186 O   0  0  0  0  0  0  0  0  0  0  0  0
  -28.8168  -22.6441   18.6317 O   0  0  0  0  0  0  0  0  0  1  0  0
  -24.4407   -2.7990   23.8613 F   0  0  0  0  0  0  0  0  0  0  0  0
  -20.8483   -5.8797   23.7630 F   0  0  0  0  0  0  0  0  0  0  0  0
  1  2  1  0  0  0  0
  1  5  2  0  0  0  0
  2  6  2  0  0  0  0
  3 10  2  0  0  0  0
  3 18  1  0  0  0  0
  4 11  1  0  0  0  0
  4 18  2  0  0  0  0
  5 20  1  0  0  0  0
  6 22  1  0  0  0  0
  7 12  2  0  0  0  0
  7 21  1  0  0  0  0
  8  9  2  0  0  0  0
  8 24  1  0  0  0  0
  9 25  1  0  0  0  0
 10 27  1  0  0  0  0
 11 27  2  0  0  0  0
 12 28  1  0  0  0  0
 13 14  2  0  0  0  0
 13 29  1  0  0  0  0
 14 30  1  0  0  0  0
 15 23  1  0  0  0  0
 15 28  2  0  0  0  0
 16 24  2  0  0  0  0
 16 26  1  0  0  0  0
 17 30  2  0  0  0  0
 17 31  1  0  0  0  0
 18 32  1  0  0  0  0
 19 32  1  0  0  0  0
 19 33  2  0  0  0  0
 19 36  1  0  0  0  0
 20 22  2  0  0  0  0
 20 42  1  0  0  0  0
 21 23  2  0  0  0  0
 21 43  1  0  0  0  0
 22 51  1  0  0  0  0
 23 44  1  0  0  0  0
 24 60  1  0  0  0  0
 25 26  2  0  0  0  0
 25 54  1  0  0  0  0
 26 71  1  0  0  0  0
 27 82  1  0  0  0  0
 28 83  1  0  0  0  0
 29 31  2  0  0  0  0
 29 82  1  0  0  0  0
 30 84  1  0  0  0  0
 31 85  1  0  0  0  0
 32 65  2  0  0  0  0
 33 66  1  0  0  0  0
 33 69  1  0  0  0  0
 34 35  2  0  0  0  0
 34 37  1  0  0  0  0
 35 61  1  0  0  0  0
 36 70  1  0  0  0  0
 36 76  2  0  0  0  0
 37 72  1  0  0  0  0
 37 77  2  0  0  0  0
 38 52  1  0  0  0  0
 38 73  1  0  0  0  0
 38 78  2  0  0  0  0
 39 62  1  0  0  0  0
 39 67  1  0  0  0  0
 39 79  2  0  0  0  0
 40 63  1  0  0  0  0
 40 74  1  0  0  0  0
 40 80  2  0  0  0  0
 41 68  1  0  0  0  0
 41 71  1  0  0  0  0
 41 81  2  0  0  0  0
 42 45  1  0  0  0  0
 43 52  1  0  0  0  0
 44 67  1  0  0  0  0
 45 47  1  0  0  0  0
 46 48  1  0  0  0  0
 46 49  1  0  0  0  0
 47 51  1  0  0  0  0
 48 53  1  0  0  0  0
 49 68  1  0  0  0  0
 50 53  1  0  0  0  0
 50 68  1  0  0  0  0
 51 73  1  0  0  0  0
 52 67  1  0  0  0  0
 53 66  1  0  0  0  0
 55 63  1  0  0  0  0
 56 64  1  0  0  0  0
 57 64  1  0  0  0  0
 58 64  1  0  0  0  0
 59 75  1  0  0  0  0
 60 72  1  0  0  0  0
 61 83  1  0  0  0  0
 62 64  1  0  0  0  0
 62 74  1  0  0  0  0
 63 75  1  0  0  0  0
 65 66  1  0  0  0  0
M  CHG  1  75   1
M  ISO  4  41 100  61 101  71 100  83 101
M  END
> <Batch ID>
0045

> <Smiles>
CNC(C)C(=O)NC(C(=O)N1Cc2cc([101O:1][101CH2:1]C=CC(=O)NCc3ccc(C)c([100NH:0][100C:0](=O)N4CCCC(n5nc(-c6ccc(Oc7ccc(F)cc7F)cc6)c(C(N)=O)c5N)C4)c3)ccc2CC1C(=O)NC1CCCc2ccccc21)C(C)(C)C

> <Shape>
0.229

> <Color>
0.200

> <Negative vol penalty>
0.000

$$$$

  -OEChem-04042322213D

 86 94  0     1  0  0  0  0  0999 V2000
  -23.2188  -26.8031   22.8599 C   0  0  0  0  0  0  0  0  0  0  0  0
  -24.3710  -26.0949   23.1859 C   0  0  0  0  0  0  0  0  0  0  0  0
  -23.0285   -9.9505   19.9425 C   0  0  0  0  0  0  0  0  0  0  0  0
  -23.8148   -9.9101   22.2266 C   0  0  0  0  0  0  0  0  0  0  0  0
  -23.2029  -27.6267   21.7350 C   0  0  0  0  0  0  0  0  0  0  0  0
  -25.5078  -26.2090   22.3864 C   0  0  0  0  0  0  0  0  0  0  0  0
  -29.7429  -26.7869   25.1020 C   0  0  0  0  0  0  0  0  0  0  0  0
  -32.8260  -17.2971   23.4219 C   0  0  0  0  0  0  0  0  0  0  0  0
  -32.1888  -16.4467   22.5184 C   0  0  0  0  0  0  0  0  0  0  0  0
  -22.2631   -8.8101   20.1858 C   0  0  0  0  0  0  0  0  0  0  0  0
  -23.0493   -8.7697   22.4699 C   0  0  0  0  0  0  0  0  0  0  0  0
  -30.2816  -25.6445   25.6924 C   0  0  0  0  0  0  0  0  0  0  0  0
  -19.3154   -8.0567   21.6611 C   0  0  0  0  0  0  0  0  0  0  0  0
  -18.0023   -8.0449   21.1907 C   0  0  0  0  0  0  0  0  0  0  0  0
  -31.8913  -25.4861   23.9028 C   0  0  0  0  0  0  0  0  0  0  0  0
  -18.5050   -6.1085   19.8361 C   0  0  0  0  0  0  0  0  0  0  0  0
  -23.8045  -10.5005   20.9629 C   0  0  0  0  0  0  0  0  0  0  0  0
  -24.1989  -13.0192   20.8726 C   0  0  0  0  0  0  0  0  0  0  0  0
  -24.3431  -27.7584   20.9268 C   0  0  0  0  0  0  0  0  0  0  0  0
  -30.2682  -27.2820   23.8998 C   0  0  0  0  0  0  0  0  0  0  0  0
  -25.5067  -27.0340   21.2488 C   0  0  0  0  0  0  0  0  0  0  0  0
  -31.3592  -26.6364   23.3005 C   0  0  0  0  0  0  0  0  0  0  0  0
  -32.0744  -18.1778   24.1998 C   0  0  0  0  0  0  0  0  0  0  0  0
  -30.6855  -18.2081   24.0742 C   0  0  0  0  0  0  0  0  0  0  0  0
  -30.0483  -17.3577   23.1707 C   0  0  0  0  0  0  0  0  0  0  0  0
  -30.7999  -16.4770   22.3927 C   0  0  0  0  0  0  0  0  0  0  0  0
  -22.2734   -8.2197   21.4495 C   0  0  0  0  0  0  0  0  0  0  0  0
  -31.3541  -24.9923   25.0913 C   0  0  0  0  0  0  0  0  0  0  0  0
  -20.2233   -7.0945   21.2189 C   0  0  0  0  0  0  0  0  0  0  0  0
  -17.5971   -7.0708   20.2783 C   0  0  0  0  0  0  0  0  0  0  0  0
  -19.8181   -6.1204   20.3064 C   0  0  0  0  0  0  0  0  0  0  0  0
  -24.5958  -11.6781   20.7120 C   0  0  0  0  0  0  0  0  0  0  0  0
  -25.3026  -13.7501   20.5065 C   0  0  0  0  0  0  0  0  0  0  0  0
  -22.9447  -13.5561   21.3134 C   0  0  0  0  0  0  0  0  0  0  0  0
  -29.1248  -27.7295   20.9680 C   0  0  0  0  0  0  0  0  0  0  0  0
  -32.0062  -29.1372   20.4799 C   0  0  0  0  0  0  0  0  0  0  0  0
  -32.3229  -21.5284   25.3977 C   0  0  0  0  0  0  0  0  0  0  0  0
  -35.2789  -29.4338   21.4010 C   0  0  0  0  0  0  0  0  0  0  0  0
  -30.7916  -14.6768   20.6304 C   0  0  0  0  0  0  0  0  0  0  0  0
  -24.2632  -28.6239   19.6942 C   0  0  0  0  0  0  0  0  0  0  0  0
  -29.6931  -28.5308   23.2898 C   0  0  0  0  0  0  0  0  0  0  0  0
  -31.9727  -27.1392   22.0202 C   0  0  0  0  0  0  0  0  0  0  0  0
  -25.6280  -28.9805   19.1108 C   0  0  0  0  0  0  0  0  0  0  0  0
  -29.5984  -12.3197   18.2435 C   0  0  0  0  0  0  0  0  0  0  0  0
  -26.5135  -27.7412   19.0280 C   0  0  0  0  0  0  0  0  0  0  0  0
  -28.1579  -12.0530   18.6861 C   0  0  0  0  0  0  0  0  0  0  0  0
  -30.5321  -12.5126   19.4372 C   0  0  0  0  0  0  0  0  0  0  0  0
  -28.6571  -13.2586   20.8504 C   0  0  0  0  0  0  0  0  0  0  0  0
  -26.7677  -27.1508   20.4203 C   0  0  1  0  0  0  0  0  0  0  0  0
  -29.9758  -28.6507   21.7954 C   0  0  1  0  0  0  0  0  0  0  0  0
  -27.6673  -13.1221   19.6820 C   0  0  2  0  0  0  0  0  0  0  0  0
  -29.8821  -19.1536   24.9101 C   0  0  0  0  0  0  0  0  0  0  0  0
  -28.5577  -17.3918   23.0376 C   0  0  0  0  0  0  0  0  0  0  0  0
  -34.9696  -20.8583   23.5511 C   0  0  0  0  0  0  0  0  0  0  0  0
  -37.3957  -30.6357   20.7913 C   0  0  0  0  0  0  0  0  0  0  0  0
  -32.3661  -27.2827   18.0838 C   0  0  0  0  0  0  0  0  0  0  0  0
  -34.8065  -27.8411   18.1065 C   0  0  0  0  0  0  0  0  0  0  0  0
  -33.1218  -29.6362   17.7042 C   0  0  0  0  0  0  0  0  0  0  0  0
  -35.4373  -30.7409   24.0516 C   0  0  0  0  0  0  0  0  0  0  0  0
  -32.7854  -19.0822   25.1646 C   0  0  0  0  0  0  0  0  0  0  0  0
  -32.4611  -22.9089   24.7911 C   0  0  0  0  0  0  0  0  0  1  0  0
  -33.5064  -20.6257   23.3853 C   0  0  0  0  0  0  0  0  0  0  0  0
  -33.3648  -28.6620   20.0245 C   0  0  1  0  0  0  0  0  0  0  0  0
  -36.1464  -30.6527   21.6582 C   0  0  2  0  0  0  0  0  0  0  0  0
  -33.4022  -28.3447   18.5029 C   0  0  0  0  0  0  0  0  0  0  0  0
  -25.8535  -11.5611   20.2775 N   0  0  0  0  0  0  0  0  0  0  0  0
  -26.2563  -12.8380   20.1619 N   0  0  0  0  0  0  0  0  0  0  0  0
  -31.3711  -28.3602   21.4591 N   0  0  0  0  0  0  0  0  0  0  0  0
  -30.0054  -13.5431   20.3348 N   0  0  0  0  0  0  0  0  0  0  0  0
  -25.5406  -15.0777   20.4488 N   0  0  0  0  0  0  0  0  0  0  0  0
  -21.9175  -12.6642   21.6504 N   0  0  0  0  0  0  0  0  0  0  0  0
  -30.1736  -15.6042   21.4688 N   0  0  0  0  0  0  0  0  0  0  0  0
  -27.7661  -27.9271   21.1239 N   0  0  0  0  0  0  0  0  0  0  0  0
  -34.3169  -29.6841   20.4453 N   0  0  0  0  0  0  0  0  0  0  0  0
  -32.8500  -20.4550   24.6789 N   0  0  0  0  0  0  0  0  0  0  0  0
  -36.5666  -30.6972   23.0874 N   0  3  0  0  0  0  0  0  0  0  0  0
  -22.7355  -14.7906   21.3900 O   0  0  0  0  0  0  0  0  0  0  0  0
  -29.6611  -26.9018   20.2407 O   0  0  0  0  0  0  0  0  0  0  0  0
  -31.5292  -30.1640   19.9903 O   0  0  0  0  0  0  0  0  0  0  0  0
  -31.7631  -21.4149   26.4925 O   0  0  0  0  0  0  0  0  0  0  0  0
  -35.4409  -28.3654   21.9865 O   0  0  0  0  0  0  0  0  0  0  0  0
  -31.9185  -14.8279   20.1518 O   0  0  0  0  0  0  0  0  0  0  0  0
  -21.5264   -7.1071   21.6874 O   0  0  0  0  0  0  0  0  0  0  0  0
  -31.8813  -23.8766   25.6651 O   0  0  0  0  0  0  0  0  0  1  0  0
  -16.3356   -7.0586   19.8279 F   0  0  0  0  0  0  0  0  0  0  0  0
  -20.6855   -5.1927   19.8789 F   0  0  0  0  0  0  0  0  0  0  0  0
  1  2  1  0  0  0  0
  1  5  2  0  0  0  0
  2  6  2  0  0  0  0
  3 10  2  0  0  0  0
  3 17  1  0  0  0  0
  4 11  1  0  0  0  0
  4 17  2  0  0  0  0
  5 19  1  0  0  0  0
  6 21  1  0  0  0  0
  7 12  2  0  0  0  0
  7 20  1  0  0  0  0
  8  9  2  0  0  0  0
  8 23  1  0  0  0  0
  9 26  1  0  0  0  0
 10 27  1  0  0  0  0
 11 27  2  0  0  0  0
 12 28  1  0  0  0  0
 13 14  2  0  0  0  0
 13 29  1  0  0  0  0
 14 30  1  0  0  0  0
 15 22  1  0  0  0  0
 15 28  2  0  0  0  0
 16 30  2  0  0  0  0
 16 31  1  0  0  0  0
 17 32  1  0  0  0  0
 18 32  1  0  0  0  0
 18 33  2  0  0  0  0
 18 34  1  0  0  0  0
 19 21  2  0  0  0  0
 19 40  1  0  0  0  0
 20 22  2  0  0  0  0
 20 41  1  0  0  0  0
 21 49  1  0  0  0  0
 22 42  1  0  0  0  0
 23 24  2  0  0  0  0
 23 60  1  0  0  0  0
 24 25  1  0  0  0  0
 24 52  1  0  0  0  0
 25 26  2  0  0  0  0
 25 53  1  0  0  0  0
 26 72  1  0  0  0  0
 27 83  1  0  0  0  0
 28 84  1  0  0  0  0
 29 31  2  0  0  0  0
 29 83  1  0  0  0  0
 30 85  1  0  0  0  0
 31 86  1  0  0  0  0
 32 66  2  0  0  0  0
 33 67  1  0  0  0  0
 33 70  1  0  0  0  0
 34 71  1  0  0  0  0
 34 77  2  0  0  0  0
 35 50  1  0  0  0  0
 35 73  1  0  0  0  0
 35 78  2  0  0  0  0
 36 63  1  0  0  0  0
 36 68  1  0  0  0  0
 36 79  2  0  0  0  0
 37 61  1  0  0  0  0
 37 75  1  0  0  0  0
 37 80  2  0  0  0  0
 38 64  1  0  0  0  0
 38 74  1  0  0  0  0
 38 81  2  0  0  0  0
 39 69  1  0  0  0  0
 39 72  1  0  0  0  0
 39 82  2  0  0  0  0
 40 43  1  0  0  0  0
 41 50  1  0  0  0  0
 42 68  1  0  0  0  0
 43 45  1  0  0  0  0
 44 46  1  0  0  0  0
 44 47  1  0  0  0  0
 45 49  1  0  0  0  0
 46 51  1  0  0  0  0
 47 69  1  0  0  0  0
 48 51  1  0  0  0  0
 48 69  1  0  0  0  0
 49 73  1  0  0  0  0
 50 68  1  0  0  0  0
 51 67  1  0  0  0  0
 54 62  1  0  0  0  0
 55 64  1  0  0  0  0
 56 65  1  0  0  0  0
 57 65  1  0  0  0  0
 58 65  1  0  0  0  0
 59 76  1  0  0  0  0
 60 75  1  0  0  0  0
 61 84  1  0  0  0  0
 62 75  1  0  0  0  0
 63 65  1  0  0  0  0
 63 74  1  0  0  0  0
 64 76  1  0  0  0  0
 66 67  1  0  0  0  0
M  CHG  1  76   1
M  ISO  4  39 100  61 101  72 100  84 101
M  END
> <Batch ID>
0045

> <Smiles>
CCN(Cc1ccc([100NH:0][100C:0](=O)N2CCCC(n3nc(-c4ccc(Oc5ccc(F)cc5F)cc4)c(C(N)=O)c3N)C2)c(C)c1C)C(=O)[101CH2:1][101O:1]c1ccc2c(c1)CN(C(=O)C(NC(=O)C(C)NC)C(C)(C)C)C(C(=O)NC1CCCc3ccccc31)C2

> <Shape>
0.206

> <Color>
0.217

> <Negative vol penalty>
0.000

$$$$

  -OEChem-04042322213D

 86 95  0     1  0  0  0  0  0999 V2000
  -16.5499  -29.8490   23.4272 C   0  0  0  0  0  0  0  0  0  0  0  0
  -17.6185  -30.6957   23.6994 C   0  0  0  0  0  0  0  0  0  0  0  0
  -20.3834  -24.4553   14.3767 C   0  0  0  0  0  0  0  0  0  0  0  0
  -20.4690  -23.4292   12.1911 C   0  0  0  0  0  0  0  0  0  0  0  0
  -16.7902  -28.5433   23.0046 C   0  0  0  0  0  0  0  0  0  0  0  0
  -18.9277  -30.2409   23.5375 C   0  0  0  0  0  0  0  0  0  0  0  0
  -27.0797  -29.3285   22.0834 C   0  0  0  0  0  0  0  0  0  0  0  0
  -29.4552  -20.7441   15.9777 C   0  0  0  0  0  0  0  0  0  0  0  0
  -19.1217  -23.8995   14.5882 C   0  0  0  0  0  0  0  0  0  0  0  0
  -19.2073  -22.8733   12.4026 C   0  0  0  0  0  0  0  0  0  0  0  0
  -27.8673  -28.3347   21.5040 C   0  0  0  0  0  0  0  0  0  0  0  0
  -15.9855  -23.8926   12.2921 C   0  0  0  0  0  0  0  0  0  0  0  0
  -15.0586  -23.9749   11.2531 C   0  0  0  0  0  0  0  0  0  0  0  0
  -29.9126  -20.0718   17.1110 C   0  0  0  0  0  0  0  0  0  0  0  0
  -26.1785  -27.9886   19.8165 C   0  0  0  0  0  0  0  0  0  0  0  0
  -28.0394  -22.1231   17.3672 C   0  0  0  0  0  0  0  0  0  0  0  0
  -14.9261  -21.5637   11.1802 C   0  0  0  0  0  0  0  0  0  0  0  0
  -21.0570  -24.2202   13.1781 C   0  0  0  0  0  0  0  0  0  0  0  0
  -22.6960  -26.1616   12.9497 C   0  0  0  0  0  0  0  0  0  0  0  0
  -18.1033  -28.0692   22.8497 C   0  0  0  0  0  0  0  0  0  0  0  0
  -25.8286  -29.6528   21.5392 C   0  0  0  0  0  0  0  0  0  0  0  0
  -19.1907  -28.9339   23.0889 C   0  0  0  0  0  0  0  0  0  0  0  0
  -25.3781  -28.9887   20.3894 C   0  0  0  0  0  0  0  0  0  0  0  0
  -28.4968  -21.4508   18.5006 C   0  0  0  0  0  0  0  0  0  0  0  0
  -28.5186  -21.7698   16.1058 C   0  0  0  0  0  0  0  0  0  0  0  0
  -18.5336  -23.1085   13.6012 C   0  0  0  0  0  0  0  0  0  0  0  0
  -27.4155  -27.6625   20.3721 C   0  0  0  0  0  0  0  0  0  0  0  0
  -16.3828  -22.6458   12.7752 C   0  0  0  0  0  0  0  0  0  0  0  0
  -14.5289  -22.8105   10.6971 C   0  0  0  0  0  0  0  0  0  0  0  0
  -15.8531  -21.4813   12.2193 C   0  0  0  0  0  0  0  0  0  0  0  0
  -29.4334  -20.4251   18.3724 C   0  0  0  0  0  0  0  0  0  0  0  0
  -22.3602  -24.7945   12.9587 C   0  0  0  0  0  0  0  0  0  0  0  0
  -24.0465  -26.1817   12.7001 C   0  0  0  0  0  0  0  0  0  0  0  0
  -27.8944  -24.3187   20.0057 C   0  0  0  0  0  0  0  0  0  0  0  0
  -21.8619  -27.3106   13.1491 C   0  0  0  0  0  0  0  0  0  0  0  0
  -22.8297  -29.5411   22.5868 C   0  0  0  0  0  0  0  0  0  0  0  0
  -22.2032  -31.0306   19.7741 C   0  0  0  0  0  0  0  0  0  0  0  0
  -23.2943  -30.7517   16.3464 C   0  0  0  0  0  0  0  0  0  0  0  0
  -28.4290  -22.2277   13.6302 C   0  0  0  0  0  0  0  0  0  0  0  0
  -18.3060  -26.6495   22.3821 C   0  0  0  0  0  0  0  0  0  0  0  0
  -25.0028  -30.7458   22.1603 C   0  0  0  0  0  0  0  0  0  0  0  0
  -24.0515  -29.3134   19.7545 C   0  0  0  0  0  0  0  0  0  0  0  0
  -19.7096  -26.1246   22.6663 C   0  0  0  0  0  0  0  0  0  0  0  0
  -30.3836  -24.2715   21.5514 C   0  0  0  0  0  0  0  0  0  0  0  0
  -27.4885  -23.6702   10.5139 C   0  0  0  0  0  0  0  0  0  0  0  0
  -20.7470  -27.1277   22.1844 C   0  0  0  0  0  0  0  0  0  0  0  0
  -30.0174  -25.5042   20.7516 C   0  0  0  0  0  0  0  0  0  0  0  0
  -26.0998  -24.2520   10.7880 C   0  0  0  0  0  0  0  0  0  0  0  0
  -29.9018  -23.0291   20.8239 C   0  0  0  0  0  0  0  0  0  0  0  0
  -27.7080  -22.3528   11.2554 C   0  0  0  0  0  0  0  0  0  0  0  0
  -26.0599  -22.9846   12.9741 C   0  0  0  0  0  0  0  0  0  0  0  0
  -20.6232  -28.4515   22.9493 C   0  0  1  0  0  0  0  0  0  0  0  0
  -28.5093  -25.5733   20.6130 C   0  0  1  0  0  0  0  0  0  1  0  0
  -23.5186  -30.6375   21.8246 C   0  0  1  0  0  0  0  0  0  0  0  0
  -25.8161  -24.3447   12.3002 C   0  0  2  0  0  0  0  0  0  0  0  0
  -23.3883  -32.4693   14.5193 C   0  0  0  0  0  0  0  0  0  0  0  0
  -19.4524  -29.9511   19.0140 C   0  0  0  0  0  0  0  0  0  0  0  0
  -20.0887  -30.2201   16.6076 C   0  0  0  0  0  0  0  0  0  0  0  0
  -19.9733  -32.2184   18.0963 C   0  0  0  0  0  0  0  0  0  0  0  0
  -26.1740  -30.2595   15.8733 C   0  0  0  0  0  0  0  0  0  0  0  0
  -27.9567  -21.8609   19.8401 C   0  0  0  0  0  0  0  0  0  0  0  0
  -21.8744  -30.5748   18.3730 C   0  0  1  0  0  0  0  0  0  0  0  0
  -24.1750  -31.7302   15.5906 C   0  0  2  0  0  0  0  0  0  0  0  0
  -20.3631  -30.7252   18.0402 C   0  0  0  0  0  0  0  0  0  0  0  0
  -23.4124  -24.0035   12.7328 N   0  0  0  0  0  0  0  0  0  0  0  0
  -24.4227  -24.8763   12.5793 N   0  0  0  0  0  0  0  0  0  0  0  0
  -28.5371  -23.1150   20.3011 N   0  0  0  0  0  0  0  0  0  0  0  0
  -23.2777  -30.3854   20.4024 N   0  0  0  0  0  0  0  0  0  0  0  0
  -27.4246  -22.5180   12.6828 N   0  0  0  0  0  0  0  0  0  0  0  0
  -24.9370  -27.1885   12.5744 N   0  0  0  0  0  0  0  0  0  0  0  0
  -20.4966  -27.1105   13.3945 N   0  0  0  0  0  0  0  0  0  0  0  0
  -28.0549  -22.4533   14.9545 N   0  0  0  0  0  0  0  0  0  0  0  0
  -21.4766  -29.4387   22.3256 N   0  0  0  0  0  0  0  0  0  0  0  0
  -22.7591  -31.3193   17.4834 N   0  0  0  0  0  0  0  0  0  0  0  0
  -25.3028  -31.0111   14.9335 N   0  3  0  0  0  0  0  0  0  0  0  0
  -26.8507  -24.4000   19.3529 O   0  0  0  0  0  0  0  0  0  0  0  0
  -22.3109  -28.4806   13.0945 O   0  0  0  0  0  0  0  0  0  0  0  0
  -23.4780  -28.8390   23.3539 O   0  0  0  0  0  0  0  0  0  0  0  0
  -21.5358  -31.9311   20.2893 O   0  0  0  0  0  0  0  0  0  0  0  0
  -23.0975  -29.6003   15.9643 O   0  0  0  0  0  0  0  0  0  0  0  0
  -29.5481  -21.8356   13.2901 O   0  0  0  0  0  0  0  0  0  0  0  0
  -17.3026  -22.5657   13.8073 O   0  0  0  0  0  0  0  0  0  0  0  0
  -28.1820  -26.6916   19.8049 O   0  0  0  0  0  0  0  0  0  1  0  0
  -13.6376  -22.8897    9.7004 F   0  0  0  0  0  0  0  0  0  0  0  0
  -16.2300  -20.2807   12.6800 F   0  0  0  0  0  0  0  0  0  0  0  0
  -30.0231  -19.5710   19.7515 Cl  0  0  0  0  0  0  0  0  0  0  0  0
  1  2  1  0  0  0  0
  1  5  2  0  0  0  0
  2  6  2  0  0  0  0
  3  9  2  0  0  0  0
  3 18  1  0  0  0  0
  4 10  1  0  0  0  0
  4 18  2  0  0  0  0
  5 20  1  0  0  0  0
  6 22  1  0  0  0  0
  7 11  2  0  0  0  0
  7 21  1  0  0  0  0
  8 14  2  0  0  0  0
  8 25  1  0  0  0  0
  9 26  1  0  0  0  0
 10 26  2  0  0  0  0
 11 27  1  0  0  0  0
 12 13  2  0  0  0  0
 12 28  1  0  0  0  0
 13 29  1  0  0  0  0
 14 31  1  0  0  0  0
 15 23  1  0  0  0  0
 15 27  2  0  0  0  0
 16 24  1  0  0  0  0
 16 25  2  0  0  0  0
 17 29  2  0  0  0  0
 17 30  1  0  0  0  0
 18 32  1  0  0  0  0
 19 32  1  0  0  0  0
 19 33  2  0  0  0  0
 19 35  1  0  0  0  0
 20 22  2  0  0  0  0
 20 40  1  0  0  0  0
 21 23  2  0  0  0  0
 21 41  1  0  0  0  0
 22 52  1  0  0  0  0
 23 42  1  0  0  0  0
 24 31  2  0  0  0  0
 24 61  1  0  0  0  0
 25 72  1  0  0  0  0
 26 82  1  0  0  0  0
 27 83  1  0  0  0  0
 28 30  2  0  0  0  0
 28 82  1  0  0  0  0
 29 84  1  0  0  0  0
 30 85  1  0  0  0  0
 31 86  1  0  0  0  0
 32 65  2  0  0  0  0
 33 66  1  0  0  0  0
 33 70  1  0  0  0  0
 34 53  1  0  0  0  0
 34 67  1  0  0  0  0
 34 76  2  0  0  0  0
 35 71  1  0  0  0  0
 35 77  2  0  0  0  0
 36 54  1  0  0  0  0
 36 73  1  0  0  0  0
 36 78  2  0  0  0  0
 37 62  1  0  0  0  0
 37 68  1  0  0  0  0
 37 79  2  0  0  0  0
 38 63  1  0  0  0  0
 38 74  1  0  0  0  0
 38 80  2  0  0  0  0
 39 69  1  0  0  0  0
 39 72  1  0  0  0  0
 39 81  2  0  0  0  0
 40 43  1  0  0  0  0
 41 54  1  0  0  0  0
 42 68  1  0  0  0  0
 43 46  1  0  0  0  0
 44 47  1  0  0  0  0
 44 49  1  0  0  0  0
 45 48  1  0  0  0  0
 45 50  1  0  0  0  0
 46 52  1  0  0  0  0
 47 53  1  0  0  0  0
 48 55  1  0  0  0  0
 49 67  1  0  0  0  0
 50 69  1  0  0  0  0
 51 55  1  0  0  0  0
 51 69  1  0  0  0  0
 52 73  1  0  0  0  0
 53 83  1  0  0  0  0
 54 68  1  0  0  0  0
 55 66  1  0  0  0  0
 56 63  1  0  0  0  0
 57 64  1  0  0  0  0
 58 64  1  0  0  0  0
 59 64  1  0  0  0  0
 60 75  1  0  0  0  0
 61 67  1  0  0  0  0
 62 64  1  0  0  0  0
 62 74  1  0  0  0  0
 63 75  1  0  0  0  0
 65 66  1  0  0  0  0
M  CHG  1  75   1
M  ISO  4  39 100  53 101  72 100  83 101
M  END
> <Batch ID>
0045

> <Smiles>
CNC(C)C(=O)NC(C(=O)N1Cc2cc([101O:1][101CH:1]3CCCN(Cc4cc([100NH:0][100C:0](=O)N5CCCC(n6nc(-c7ccc(Oc8ccc(F)cc8F)cc7)c(C(N)=O)c6N)C5)ccc4Cl)C3=O)ccc2CC1C(=O)NC1CCCc2ccccc21)C(C)(C)C

> <Shape>
0.172

> <Color>
0.122

> <Negative vol penalty>
0.000

$$$$

  -OEChem-04042322213D

 85 94  0     1  0  0  0  0  0999 V2000
  -28.5533  -12.1439   20.8656 C   0  0  0  0  0  0  0  0  0  0  0  0
  -28.7371  -13.5215   20.8295 C   0  0  0  0  0  0  0  0  0  0  0  0
  -18.3172  -27.5329   23.9957 C   0  0  0  0  0  0  0  0  0  0  0  0
  -28.9883  -26.2505   18.9400 C   0  0  0  0  0  0  0  0  0  0  0  0
  -26.8782  -25.1320   19.3054 C   0  0  0  0  0  0  0  0  0  0  0  0
  -27.2719  -11.6120   20.7383 C   0  0  0  0  0  0  0  0  0  0  0  0
  -27.6384  -14.3681   20.6779 C   0  0  0  0  0  0  0  0  0  0  0  0
  -23.6839  -21.2260   19.9333 C   0  0  0  0  0  0  0  0  0  0  0  0
  -17.7577  -26.8105   22.9417 C   0  0  0  0  0  0  0  0  0  0  0  0
  -19.5277  -28.2026   23.8171 C   0  0  0  0  0  0  0  0  0  0  0  0
  -29.6212  -25.0143   18.8101 C   0  0  0  0  0  0  0  0  0  0  0  0
  -27.5111  -23.8957   19.1755 C   0  0  0  0  0  0  0  0  0  0  0  0
  -22.4761  -21.7727   19.5020 C   0  0  0  0  0  0  0  0  0  0  0  0
  -29.4290  -21.8662   21.0816 C   0  0  0  0  0  0  0  0  0  0  0  0
  -29.1163  -20.8769   22.0139 C   0  0  0  0  0  0  0  0  0  0  0  0
  -21.2824  -20.2859   20.9797 C   0  0  0  0  0  0  0  0  0  0  0  0
  -19.6193  -27.4275   21.5307 C   0  0  0  0  0  0  0  0  0  0  0  0
  -28.3216  -19.4503   20.2333 C   0  0  0  0  0  0  0  0  0  0  0  0
  -27.6168  -26.3094   19.1877 C   0  0  0  0  0  0  0  0  0  0  0  0
  -26.8944  -28.6121   18.3611 C   0  0  0  0  0  0  0  0  0  0  0  0
  -26.1589  -12.4527   20.5726 C   0  0  0  0  0  0  0  0  0  0  0  0
  -23.6995  -20.1959   20.8847 C   0  0  0  0  0  0  0  0  0  0  0  0
  -26.3344  -13.8515   20.5717 C   0  0  0  0  0  0  0  0  0  0  0  0
  -22.4919  -19.7296   21.4234 C   0  0  0  0  0  0  0  0  0  0  0  0
  -18.4088  -26.7578   21.7092 C   0  0  0  0  0  0  0  0  0  0  0  0
  -20.1788  -28.1499   22.5846 C   0  0  0  0  0  0  0  0  0  0  0  0
  -28.8826  -23.8369   18.9278 C   0  0  0  0  0  0  0  0  0  0  0  0
  -21.2749  -21.3006   20.0231 C   0  0  0  0  0  0  0  0  0  0  0  0
  -29.1880  -21.6476   19.7252 C   0  0  0  0  0  0  0  0  0  0  0  0
  -28.5626  -19.6690   21.5897 C   0  0  0  0  0  0  0  0  0  0  0  0
  -28.6343  -20.4396   19.3011 C   0  0  0  0  0  0  0  0  0  0  0  0
  -26.9626  -27.5860   19.3226 C   0  0  0  0  0  0  0  0  0  0  0  0
  -26.1690  -29.6063   18.9708 C   0  0  0  0  0  0  0  0  0  0  0  0
  -19.1300  -23.9240   20.2720 C   0  0  0  0  0  0  0  0  0  0  0  0
  -27.4381  -28.6619   17.0353 C   0  0  0  0  0  0  0  0  0  0  0  0
  -24.6918  -17.1762   20.9050 C   0  0  0  0  0  0  0  0  0  0  0  0
  -23.9341  -17.3571   24.0539 C   0  0  0  0  0  0  0  0  0  0  0  0
  -21.2717  -18.7581   26.0455 C   0  0  0  0  0  0  0  0  0  0  0  0
  -22.0985  -29.5929   23.3453 C   0  0  0  0  0  0  0  0  0  0  0  0
  -24.7935  -11.8239   20.4473 C   0  0  0  0  0  0  0  0  0  0  0  0
  -25.0121  -19.6353   21.3592 C   0  0  0  0  0  0  0  0  0  0  0  0
  -22.4553  -18.6394   22.4619 C   0  0  0  0  0  0  0  0  0  0  0  0
  -23.7564  -12.7689   19.8494 C   0  0  0  0  0  0  0  0  0  0  0  0
  -17.0406  -22.3852   21.6335 C   0  0  0  0  0  0  0  0  0  0  0  0
  -25.1686  -31.3955   23.2989 C   0  0  0  0  0  0  0  0  0  0  0  0
  -23.7973  -14.1084   20.5695 C   0  0  0  0  0  0  0  0  0  0  0  0
  -17.9531  -21.6993   20.6384 C   0  0  0  0  0  0  0  0  0  0  0  0
  -25.9685  -30.7204   22.1824 C   0  0  0  0  0  0  0  0  0  0  0  0
  -16.7831  -23.8140   21.1895 C   0  0  0  0  0  0  0  0  0  0  0  0
  -24.3330  -30.3880   24.0867 C   0  0  0  0  0  0  0  0  0  0  0  0
  -24.2579  -28.8603   22.1554 C   0  0  0  0  0  0  0  0  0  0  0  0
  -25.1577  -14.7906   20.3771 C   0  0  1  0  0  0  0  0  0  0  0  0
  -19.2745  -22.4406   20.5873 C   0  0  1  0  0  0  0  0  0  1  0  0
  -24.8844  -18.2357   21.9528 C   0  0  1  0  0  0  0  0  0  0  0  0
  -25.0653  -29.8439   21.2927 C   0  0  2  0  0  0  0  0  0  0  0  0
  -21.2620  -19.5618   28.4227 C   0  0  0  0  0  0  0  0  0  0  0  0
  -22.9677  -14.5358   24.6990 C   0  0  0  0  0  0  0  0  0  0  0  0
  -21.4506  -15.5257   26.4272 C   0  0  0  0  0  0  0  0  0  0  0  0
  -23.9223  -15.7822   26.6458 C   0  0  0  0  0  0  0  0  0  0  0  0
  -20.2471  -21.4220   25.2627 C   0  0  0  0  0  0  0  0  0  0  0  0
  -17.8061  -25.9801   20.5751 C   0  0  0  0  0  0  0  0  0  0  0  0
  -22.6918  -17.0971   24.8712 C   0  0  1  0  0  0  0  0  0  0  0  0
  -21.3602  -19.9665   26.9601 C   0  0  2  0  0  0  0  0  0  0  0  0
  -22.7566  -15.7436   25.6337 C   0  0  0  0  0  0  0  0  0  0  0  0
  -26.3311  -27.8996   20.4569 N   0  0  0  0  0  0  0  0  0  0  0  0
  -25.8592  -29.1339   20.2122 N   0  0  0  0  0  0  0  0  0  0  0  0
  -17.9736  -24.5435   20.7495 N   0  0  0  0  0  0  0  0  0  0  0  0
  -23.7646  -18.1189   22.8891 N   0  0  0  0  0  0  0  0  0  0  0  0
  -23.4996  -29.5966   23.1790 N   0  0  0  0  0  0  0  0  0  0  0  0
  -25.7723  -30.8298   18.5608 N   0  0  0  0  0  0  0  0  0  0  0  0
  -28.1566  -27.5540   16.5658 N   0  0  0  0  0  0  0  0  0  0  0  0
  -21.4081  -28.8309   22.4034 N   0  0  0  0  0  0  0  0  0  0  0  0
  -25.2312  -15.9489   21.2401 N   0  0  0  0  0  0  0  0  0  0  0  0
  -22.5195  -18.2611   25.7337 N   0  0  0  0  0  0  0  0  0  0  0  0
  -20.2574  -20.9235   26.6621 N   0  3  0  0  0  0  0  0  0  0  0  0
  -20.0375  -24.5187   19.6847 O   0  0  0  0  0  0  0  0  0  0  0  0
  -27.3051  -29.6659   16.2952 O   0  0  0  0  0  0  0  0  0  0  0  0
  -24.0965  -17.4513   19.8698 O   0  0  0  0  0  0  0  0  0  0  0  0
  -25.0163  -16.9071   24.4387 O   0  0  0  0  0  0  0  0  0  0  0  0
  -20.2025  -18.2987   25.6504 O   0  0  0  0  0  0  0  0  0  0  0  0
  -21.5494  -30.2415   24.2396 O   0  0  0  0  0  0  0  0  0  0  0  0
  -29.4997  -22.6304   18.8008 O   0  0  0  0  0  0  0  0  0  0  0  0
  -20.0945  -21.8320   19.6033 O   0  0  0  0  0  0  0  0  0  1  0  0
  -28.2638  -18.7184   22.4849 F   0  0  0  0  0  0  0  0  0  0  0  0
  -28.4015  -20.2234   17.9992 F   0  0  0  0  0  0  0  0  0  0  0  0
  1  2  1  0  0  0  0
  1  6  2  0  0  0  0
  2  7  2  0  0  0  0
  3  9  2  0  0  0  0
  3 10  1  0  0  0  0
  4 11  2  0  0  0  0
  4 19  1  0  0  0  0
  5 12  1  0  0  0  0
  5 19  2  0  0  0  0
  6 21  1  0  0  0  0
  7 23  1  0  0  0  0
  8 13  2  0  0  0  0
  8 22  1  0  0  0  0
  9 25  1  0  0  0  0
 10 26  2  0  0  0  0
 11 27  1  0  0  0  0
 12 27  2  0  0  0  0
 13 28  1  0  0  0  0
 14 15  2  0  0  0  0
 14 29  1  0  0  0  0
 15 30  1  0  0  0  0
 16 24  1  0  0  0  0
 16 28  2  0  0  0  0
 17 25  2  0  0  0  0
 17 26  1  0  0  0  0
 18 30  2  0  0  0  0
 18 31  1  0  0  0  0
 19 32  1  0  0  0  0
 20 32  1  0  0  0  0
 20 33  2  0  0  0  0
 20 35  1  0  0  0  0
 21 23  2  0  0  0  0
 21 40  1  0  0  0  0
 22 24  2  0  0  0  0
 22 41  1  0  0  0  0
 23 52  1  0  0  0  0
 24 42  1  0  0  0  0
 25 61  1  0  0  0  0
 26 72  1  0  0  0  0
 27 82  1  0  0  0  0
 28 83  1  0  0  0  0
 29 31  2  0  0  0  0
 29 82  1  0  0  0  0
 30 84  1  0  0  0  0
 31 85  1  0  0  0  0
 32 65  2  0  0  0  0
 33 66  1  0  0  0  0
 33 70  1  0  0  0  0
 34 53  1  0  0  0  0
 34 67  1  0  0  0  0
 34 76  2  0  0  0  0
 35 71  1  0  0  0  0
 35 77  2  0  0  0  0
 36 54  1  0  0  0  0
 36 73  1  0  0  0  0
 36 78  2  0  0  0  0
 37 62  1  0  0  0  0
 37 68  1  0  0  0  0
 37 79  2  0  0  0  0
 38 63  1  0  0  0  0
 38 74  1  0  0  0  0
 38 80  2  0  0  0  0
 39 69  1  0  0  0  0
 39 72  1  0  0  0  0
 39 81  2  0  0  0  0
 40 43  1  0  0  0  0
 41 54  1  0  0  0  0
 42 68  1  0  0  0  0
 43 46  1  0  0  0  0
 44 47  1  0  0  0  0
 44 49  1  0  0  0  0
 45 48  1  0  0  0  0
 45 50  1  0  0  0  0
 46 52  1  0  0  0  0
 47 53  1  0  0  0  0
 48 55  1  0  0  0  0
 49 67  1  0  0  0  0
 50 69  1  0  0  0  0
 51 55  1  0  0  0  0
 51 69  1  0  0  0  0
 52 73  1  0  0  0  0
 53 83  1  0  0  0  0
 54 68  1  0  0  0  0
 55 66  1  0  0  0  0
 56 63  1  0  0  0  0
 57 64  1  0  0  0  0
 58 64  1  0  0  0  0
 59 64  1  0  0  0  0
 60 75  1  0  0  0  0
 61 67  1  0  0  0  0
 62 64  1  0  0  0  0
 62 74  1  0  0  0  0
 63 75  1  0  0  0  0
 65 66  1  0  0  0  0
M  CHG  1  75   1
M  ISO  4  39 100  53 101  72 100  83 101
M  END
> <Batch ID>
0045

> <Smiles>
CNC(C)C(=O)NC(C(=O)N1Cc2cc([101O:1][101CH:1]3CCCN(Cc4cccc([100NH:0][100C:0](=O)N5CCCC(n6nc(-c7ccc(Oc8ccc(F)cc8F)cc7)c(C(N)=O)c6N)C5)c4)C3=O)ccc2CC1C(=O)NC1CCCc2ccccc21)C(C)(C)C

> <Shape>
0.219

> <Color>
0.070

> <Negative vol penalty>
0.000

$$$$

  -OEChem-04042322213D

 88 96  0     1  0  0  0  0  0999 V2000
  -28.4722  -31.8648   27.1021 C   0  0  0  0  0  0  0  0  0  0  0  0
  -28.1243  -30.5179   27.0834 C   0  0  0  0  0  0  0  0  0  0  0  0
  -23.1910   -9.7348   20.3048 C   0  0  0  0  0  0  0  0  0  0  0  0
  -23.7820  -10.1851   22.6037 C   0  0  0  0  0  0  0  0  0  0  0  0
  -27.6913  -32.7949   26.4173 C   0  0  0  0  0  0  0  0  0  0  0  0
  -26.9944  -30.1006   26.3809 C   0  0  0  0  0  0  0  0  0  0  0  0
  -27.8493  -25.9415   23.6211 C   0  0  0  0  0  0  0  0  0  0  0  0
  -31.6083  -17.7395   21.1064 C   0  0  0  0  0  0  0  0  0  0  0  0
  -22.4670   -8.6137   20.7105 C   0  0  0  0  0  0  0  0  0  0  0  0
  -23.0579   -9.0641   23.0094 C   0  0  0  0  0  0  0  0  0  0  0  0
  -27.8706  -24.7222   24.2969 C   0  0  0  0  0  0  0  0  0  0  0  0
  -19.8209   -8.2472   23.5332 C   0  0  0  0  0  0  0  0  0  0  0  0
  -18.9826   -8.3845   24.6396 C   0  0  0  0  0  0  0  0  0  0  0  0
  -32.0512  -19.0396   21.3499 C   0  0  0  0  0  0  0  0  0  0  0  0
  -25.6104  -24.2888   23.5738 C   0  0  0  0  0  0  0  0  0  0  0  0
  -29.9052  -19.5900   22.3138 C   0  0  0  0  0  0  0  0  0  0  0  0
  -20.2267   -6.6660   25.7955 C   0  0  0  0  0  0  0  0  0  0  0  0
  -23.8485  -10.5205   21.2514 C   0  0  0  0  0  0  0  0  0  0  0  0
  -24.1198  -12.9959   20.6977 C   0  0  0  0  0  0  0  0  0  0  0  0
  -26.5567  -32.3874   25.6980 C   0  0  0  0  0  0  0  0  0  0  0  0
  -26.7026  -26.3492   22.9245 C   0  0  0  0  0  0  0  0  0  0  0  0
  -26.1968  -31.0263   25.6869 C   0  0  0  0  0  0  0  0  0  0  0  0
  -25.5780  -25.5125   22.8879 C   0  0  0  0  0  0  0  0  0  0  0  0
  -29.4624  -18.2899   22.0702 C   0  0  0  0  0  0  0  0  0  0  0  0
  -30.3139  -17.3647   21.4665 C   0  0  0  0  0  0  0  0  0  0  0  0
  -22.4004   -8.2784   22.0628 C   0  0  0  0  0  0  0  0  0  0  0  0
  -26.7501  -23.8969   24.2757 C   0  0  0  0  0  0  0  0  0  0  0  0
  -20.8620   -7.3192   23.5579 C   0  0  0  0  0  0  0  0  0  0  0  0
  -19.1855   -7.5939   25.7707 C   0  0  0  0  0  0  0  0  0  0  0  0
  -21.0650   -6.5287   24.6891 C   0  0  0  0  0  0  0  0  0  0  0  0
  -31.1997  -19.9648   21.9537 C   0  0  0  0  0  0  0  0  0  0  0  0
  -24.5970  -11.6784   20.8329 C   0  0  0  0  0  0  0  0  0  0  0  0
  -25.2117  -13.7151   20.2770 C   0  0  0  0  0  0  0  0  0  0  0  0
  -25.5567  -16.8627   23.8982 C   0  0  0  0  0  0  0  0  0  0  0  0
  -22.8069  -13.5225   20.9316 C   0  0  0  0  0  0  0  0  0  0  0  0
  -24.6818  -28.7910   23.1647 C   0  0  0  0  0  0  0  0  0  0  0  0
  -23.4552  -27.5390   20.4352 C   0  0  0  0  0  0  0  0  0  0  0  0
  -23.0392  -24.8075   18.4320 C   0  0  0  0  0  0  0  0  0  0  0  0
  -30.6158  -15.0120   20.6179 C   0  0  0  0  0  0  0  0  0  0  0  0
  -25.7167  -33.4357   25.0123 C   0  0  0  0  0  0  0  0  0  0  0  0
  -26.7050  -27.6552   22.1784 C   0  0  0  0  0  0  0  0  0  0  0  0
  -24.3292  -25.8949   22.1377 C   0  0  0  0  0  0  0  0  0  0  0  0
  -24.7474  -32.8615   23.9822 C   0  0  0  0  0  0  0  0  0  0  0  0
  -29.7514  -12.1672   18.6591 C   0  0  0  0  0  0  0  0  0  0  0  0
  -24.0123  -31.6543   24.5559 C   0  0  0  0  0  0  0  0  0  0  0  0
  -28.2941  -11.8948   19.0389 C   0  0  0  0  0  0  0  0  0  0  0  0
  -30.5694  -12.6470   19.8567 C   0  0  0  0  0  0  0  0  0  0  0  0
  -28.5458  -13.5232   20.9552 C   0  0  0  0  0  0  0  0  0  0  0  0
  -24.9925  -30.5313   24.9156 C   0  0  1  0  0  0  0  0  0  0  0  0
  -25.3034  -28.2036   21.9293 C   0  0  1  0  0  0  0  0  0  0  0  0
  -27.6668  -13.0998   19.7670 C   0  0  2  0  0  0  0  0  0  0  0  0
  -21.9582  -24.0850   16.2856 C   0  0  0  0  0  0  0  0  0  0  0  0
  -20.7339  -27.5198   21.8150 C   0  0  0  0  0  0  0  0  0  0  0  0
  -19.9216  -25.9546   20.0378 C   0  0  0  0  0  0  0  0  0  0  0  0
  -20.6856  -28.2483   19.4231 C   0  0  0  0  0  0  0  0  0  0  0  0
  -24.1410  -15.0604   23.9277 C   0  0  0  0  0  0  0  0  0  0  0  0
  -25.6420  -24.0619   17.2369 C   0  0  0  0  0  0  0  0  0  0  0  0
  -28.5344  -16.4313   24.4133 C   0  0  0  0  0  0  0  0  0  0  0  0
  -28.0654  -17.9139   22.4678 C   0  0  0  0  0  0  0  0  0  0  0  0
  -26.6335  -20.3243   24.7079 C   0  0  0  0  0  0  0  0  0  0  0  0
  -25.9653  -21.6553   24.3994 C   0  0  0  0  0  0  0  0  0  1  0  0
  -26.4807  -17.9086   24.4794 C   0  0  2  0  0  0  0  0  0  0  0  0
  -22.3936  -26.5158   20.1111 C   0  0  1  0  0  0  0  0  0  0  0  0
  -23.2251  -24.6167   16.9375 C   0  0  2  0  0  0  0  0  0  0  0  0
  -20.9564  -27.0530   20.3626 C   0  0  0  0  0  0  0  0  0  0  0  0
  -25.8912  -11.5644   20.5230 N   0  0  0  0  0  0  0  0  0  0  0  0
  -24.9920  -15.9918   24.6625 N   0  0  0  0  0  0  0  0  0  0  0  0
  -26.2365  -12.8195   20.1888 N   0  0  0  0  0  0  0  0  0  0  0  0
  -24.3784  -27.1845   21.4292 N   0  0  0  0  0  0  0  0  0  0  0  0
  -29.9166  -13.7928   20.4937 N   0  0  0  0  0  0  0  0  0  0  0  0
  -25.3855  -15.0199   19.9774 N   0  0  0  0  0  0  0  0  0  0  0  0
  -21.8019  -12.6452   21.3610 N   0  0  0  0  0  0  0  0  0  0  0  0
  -29.8825  -16.0395   21.2104 N   0  0  0  0  0  0  0  0  0  0  0  0
  -25.4098  -29.8237   23.7242 N   0  0  0  0  0  0  0  0  0  0  0  0
  -22.6411  -26.0919   18.7372 N   0  0  0  0  0  0  0  0  0  0  0  0
  -25.8510  -19.2063   24.2000 N   0  0  0  0  0  0  0  0  0  0  0  0
  -24.3303  -23.6528   16.6720 N   0  3  0  0  0  0  0  0  0  0  0  0
  -27.9062  -17.7212   23.9531 N   0  3  1  0  0  0  0  0  0  0  0  0
  -22.5292  -14.7321   20.7489 O   0  0  0  0  0  0  0  0  0  0  0  0
  -23.6196  -28.3416   23.5788 O   0  0  0  0  0  0  0  0  0  0  0  0
  -23.4694  -28.6102   19.8238 O   0  0  0  0  0  0  0  0  0  0  0  0
  -23.2246  -23.9062   19.2468 O   0  0  0  0  0  0  0  0  0  0  0  0
  -31.7701  -15.1434   20.2026 O   0  0  0  0  0  0  0  0  0  0  0  0
  -21.6939   -7.1846   22.4590 O   0  0  0  0  0  0  0  0  0  0  0  0
  -26.7680  -22.7066   24.9350 O   0  0  0  0  0  0  0  0  0  1  0  0
  -18.3814   -7.7270   26.8337 F   0  0  0  0  0  0  0  0  0  0  0  0
  -22.0643   -5.6363   24.7192 F   0  0  0  0  0  0  0  0  0  0  0  0
  -31.7471  -21.5685   22.2548 Cl  0  0  0  0  0  0  0  0  0  0  0  0
  1  2  1  0  0  0  0
  1  5  2  0  0  0  0
  2  6  2  0  0  0  0
  3  9  2  0  0  0  0
  3 18  1  0  0  0  0
  4 10  1  0  0  0  0
  4 18  2  0  0  0  0
  5 20  1  0  0  0  0
  6 22  1  0  0  0  0
  7 11  2  0  0  0  0
  7 21  1  0  0  0  0
  8 14  2  0  0  0  0
  8 25  1  0  0  0  0
  9 26  1  0  0  0  0
 10 26  2  0  0  0  0
 11 27  1  0  0  0  0
 12 13  2  0  0  0  0
 12 28  1  0  0  0  0
 13 29  1  0  0  0  0
 14 31  1  0  0  0  0
 15 23  1  0  0  0  0
 15 27  2  0  0  0  0
 16 24  1  0  0  0  0
 16 31  2  0  0  0  0
 17 29  2  0  0  0  0
 17 30  1  0  0  0  0
 18 32  1  0  0  0  0
 19 32  1  0  0  0  0
 19 33  2  0  0  0  0
 19 35  1  0  0  0  0
 20 22  2  0  0  0  0
 20 40  1  0  0  0  0
 21 23  2  0  0  0  0
 21 41  1  0  0  0  0
 22 49  1  0  0  0  0
 23 42  1  0  0  0  0
 24 25  2  0  0  0  0
 24 59  1  0  0  0  0
 25 73  1  0  0  0  0
 26 84  1  0  0  0  0
 27 85  1  0  0  0  0
 28 30  2  0  0  0  0
 28 84  1  0  0  0  0
 29 86  1  0  0  0  0
 30 87  1  0  0  0  0
 31 88  1  0  0  0  0
 32 66  2  0  0  0  0
 33 68  1  0  0  0  0
 33 71  1  0  0  0  0
 34 62  1  0  0  0  0
 34 67  2  0  0  0  0
 35 72  1  0  0  0  0
 35 79  2  0  0  0  0
 36 50  1  0  0  0  0
 36 74  1  0  0  0  0
 36 80  2  0  0  0  0
 37 63  1  0  0  0  0
 37 69  1  0  0  0  0
 37 81  2  0  0  0  0
 38 64  1  0  0  0  0
 38 75  1  0  0  0  0
 38 82  2  0  0  0  0
 39 70  1  0  0  0  0
 39 73  1  0  0  0  0
 39 83  2  0  0  0  0
 40 43  1  0  0  0  0
 41 50  1  0  0  0  0
 42 69  1  0  0  0  0
 43 45  1  0  0  0  0
 44 46  1  0  0  0  0
 44 47  1  0  0  0  0
 45 49  1  0  0  0  0
 46 51  1  0  0  0  0
 47 70  1  0  0  0  0
 48 51  1  0  0  0  0
 48 70  1  0  0  0  0
 49 74  1  0  0  0  0
 50 69  1  0  0  0  0
 51 68  1  0  0  0  0
 52 64  1  0  0  0  0
 53 65  1  0  0  0  0
 54 65  1  0  0  0  0
 55 65  1  0  0  0  0
 56 67  1  0  0  0  0
 57 77  1  0  0  0  0
 58 78  1  0  0  0  0
 59 78  1  0  0  0  0
 60 61  1  0  0  0  0
 60 76  1  0  0  0  0
 61 85  1  0  0  0  0
 62 76  1  0  0  0  0
 62 78  1  0  0  0  0
 63 65  1  0  0  0  0
 63 75  1  0  0  0  0
 64 77  1  0  0  0  0
 66 68  1  0  0  0  0
M  CHG  2  77   1  78   1
M  ISO  4  39 100  61 101  73 100  85 101
M  END
> <Batch ID>
0045

> <Smiles>
CNCC(=NC[101CH2:1][101O:1]c1ccc2c(c1)CN(C(=O)C(NC(=O)C(C)NC)C(C)(C)C)C(C(=O)NC1CCCc3ccccc31)C2)N(C)Cc1cc(Cl)ccc1[100NH:0][100C:0](=O)N1CCCC(n2nc(-c3ccc(Oc4ccc(F)cc4F)cc3)c(C(N)=O)c2N)C1

> <Shape>
0.261

> <Color>
0.172

> <Negative vol penalty>
0.000

$$$$

  -OEChem-04042322213D

 84 92  0     1  0  0  0  0  0999 V2000
  -32.5109  -19.4785   25.9471 C   0  0  0  0  0  0  0  0  0  0  0  0
  -31.2913  -20.0870   26.2262 C   0  0  0  0  0  0  0  0  0  0  0  0
  -29.0425  -26.1264   20.5422 C   0  0  0  0  0  0  0  0  0  0  0  0
  -27.2390  -26.1241   18.9345 C   0  0  0  0  0  0  0  0  0  0  0  0
  -32.7091  -18.8475   24.7197 C   0  0  0  0  0  0  0  0  0  0  0  0
  -30.2696  -20.0657   25.2774 C   0  0  0  0  0  0  0  0  0  0  0  0
  -23.1285  -19.8184   24.7680 C   0  0  0  0  0  0  0  0  0  0  0  0
  -29.4409  -24.8660   20.0970 C   0  0  0  0  0  0  0  0  0  0  0  0
  -27.6375  -24.8637   18.4893 C   0  0  0  0  0  0  0  0  0  0  0  0
  -22.0680  -20.4907   24.1621 C   0  0  0  0  0  0  0  0  0  0  0  0
  -27.3359  -21.6528   19.5043 C   0  0  0  0  0  0  0  0  0  0  0  0
  -26.3444  -20.6917   19.3073 C   0  0  0  0  0  0  0  0  0  0  0  0
  -22.4967  -19.3025   22.1070 C   0  0  0  0  0  0  0  0  0  0  0  0
  -19.5164  -27.7040   21.7011 C   0  0  0  0  0  0  0  0  0  0  0  0
  -17.6185  -26.7264   22.8322 C   0  0  0  0  0  0  0  0  0  0  0  0
  -18.2444  -29.0163   23.2814 C   0  0  0  0  0  0  0  0  0  0  0  0
  -26.9665  -20.5272   16.9786 C   0  0  0  0  0  0  0  0  0  0  0  0
  -27.9415  -26.7555   19.9610 C   0  0  0  0  0  0  0  0  0  0  0  0
  -27.9601  -29.3063   19.9351 C   0  0  0  0  0  0  0  0  0  0  0  0
  -31.6860  -18.8102   23.7593 C   0  0  0  0  0  0  0  0  0  0  0  0
  -23.8892  -18.8895   24.0436 C   0  0  0  0  0  0  0  0  0  0  0  0
  -30.4548  -19.4348   24.0355 C   0  0  0  0  0  0  0  0  0  0  0  0
  -23.5647  -18.6178   22.7068 C   0  0  0  0  0  0  0  0  0  0  0  0
  -18.6751  -26.6149   21.9284 C   0  0  0  0  0  0  0  0  0  0  0  0
  -19.3011  -28.9048   22.3777 C   0  0  0  0  0  0  0  0  0  0  0  0
  -28.7385  -24.2346   19.0706 C   0  0  0  0  0  0  0  0  0  0  0  0
  -21.7538  -20.2349   22.8306 C   0  0  0  0  0  0  0  0  0  0  0  0
  -28.1427  -22.0511   18.4384 C   0  0  0  0  0  0  0  0  0  0  0  0
  -26.1597  -20.1289   18.0445 C   0  0  0  0  0  0  0  0  0  0  0  0
  -27.9580  -21.4883   17.1756 C   0  0  0  0  0  0  0  0  0  0  0  0
  -17.4032  -27.9272   23.5087 C   0  0  0  0  0  0  0  0  0  0  0  0
  -27.5290  -28.0572   20.4208 C   0  0  0  0  0  0  0  0  0  0  0  0
  -27.2790  -30.2243   20.6966 C   0  0  0  0  0  0  0  0  0  0  0  0
  -28.8926  -29.6095   18.8892 C   0  0  0  0  0  0  0  0  0  0  0  0
  -26.9411  -18.6753   23.1812 C   0  0  0  0  0  0  0  0  0  0  0  0
  -26.0279  -15.7542   22.1062 C   0  0  0  0  0  0  0  0  0  0  0  0
  -19.8143  -23.0443   21.6083 C   0  0  0  0  0  0  0  0  0  0  0  0
  -23.5096  -13.7256   21.0153 C   0  0  0  0  0  0  0  0  0  0  0  0
  -22.1120  -29.9896   23.7130 C   0  0  0  0  0  0  0  0  0  0  0  0
  -31.9633  -18.1572   22.4283 C   0  0  0  0  0  0  0  0  0  0  0  0
  -25.0131  -18.1531   24.7194 C   0  0  0  0  0  0  0  0  0  0  0  0
  -24.3377  -17.6149   21.8912 C   0  0  0  0  0  0  0  0  0  0  0  0
  -30.7018  -17.8544   21.6238 C   0  0  0  0  0  0  0  0  0  0  0  0
  -25.3242  -30.7841   25.0274 C   0  0  0  0  0  0  0  0  0  0  0  0
  -29.7687  -19.0612   21.6199 C   0  0  0  0  0  0  0  0  0  0  0  0
  -26.2924  -30.2880   23.9520 C   0  0  0  0  0  0  0  0  0  0  0  0
  -24.1143  -29.8626   25.1660 C   0  0  0  0  0  0  0  0  0  0  0  0
  -24.3568  -29.1040   22.8337 C   0  0  0  0  0  0  0  0  0  0  0  0
  -29.3137  -19.4114   23.0418 C   0  0  1  0  0  0  0  0  0  0  0  0
  -26.0445  -17.6056   23.7376 C   0  0  1  0  0  0  0  0  0  0  0  0
  -25.5653  -30.0311   22.6184 C   0  0  2  0  0  0  0  0  0  0  0  0
  -23.0771  -11.4020   20.1721 C   0  0  0  0  0  0  0  0  0  0  0  0
  -27.2119  -16.5183   19.3999 C   0  0  0  0  0  0  0  0  0  0  0  0
  -25.9371  -14.6182   18.3839 C   0  0  0  0  0  0  0  0  0  0  0  0
  -27.6756  -14.1672   20.1150 C   0  0  0  0  0  0  0  0  0  0  0  0
  -21.6903  -13.1214   23.2700 C   0  0  0  0  0  0  0  0  0  0  0  0
  -18.9065  -25.3233   21.1988 C   0  0  0  0  0  0  0  0  0  0  0  0
  -20.2003  -30.0692   22.1325 C   0  0  0  0  0  0  0  0  0  0  0  0
  -20.4262  -22.2044   22.7091 C   0  0  0  0  0  0  0  0  0  1  0  0
  -25.4815  -15.2164   20.8057 C   0  0  1  0  0  0  0  0  0  0  0  0
  -23.1234  -12.3071   21.3934 C   0  0  2  0  0  0  0  0  0  0  0  0
  -26.5630  -15.1504   19.6907 C   0  0  0  0  0  0  0  0  0  0  0  0
  -26.6429  -28.1680   21.4140 N   0  0  0  0  0  0  0  0  0  0  0  0
  -26.5116  -29.4977   21.5587 N   0  0  0  0  0  0  0  0  0  0  0  0
  -25.4316  -16.9252   22.5949 N   0  0  0  0  0  0  0  0  0  0  0  0
  -23.4691  -29.6612   23.8663 N   0  0  0  0  0  0  0  0  0  0  0  0
  -27.2678  -31.5742   20.7062 N   0  0  0  0  0  0  0  0  0  0  0  0
  -29.5019  -28.5467   18.2084 N   0  0  0  0  0  0  0  0  0  0  0  0
  -28.2787  -18.4999   23.4802 N   0  0  0  0  0  0  0  0  0  0  0  0
  -19.5035  -24.3207   22.0505 N   0  0  0  0  0  0  0  0  0  0  0  0
  -24.8691  -13.9303   21.1211 N   0  0  0  0  0  0  0  0  0  0  0  0
  -21.5803  -29.7739   22.4475 N   0  0  0  0  0  0  0  0  0  0  0  0
  -21.7816  -12.2908   22.0416 N   0  3  0  0  0  0  0  0  0  0  0  0
  -29.1896  -30.7881   18.5789 O   0  0  0  0  0  0  0  0  0  0  0  0
  -26.4555  -19.5911   22.5276 O   0  0  0  0  0  0  0  0  0  0  0  0
  -26.9450  -15.1533   22.6713 O   0  0  0  0  0  0  0  0  0  0  0  0
  -19.6276  -22.6170   20.4723 O   0  0  0  0  0  0  0  0  0  0  0  0
  -22.6879  -14.5669   20.6579 O   0  0  0  0  0  0  0  0  0  0  0  0
  -21.4266  -30.4466   24.6340 O   0  0  0  0  0  0  0  0  0  0  0  0
  -29.1272  -23.0048   18.6358 O   0  0  0  0  0  0  0  0  0  0  0  0
  -20.7195  -20.8902   22.2366 O   0  0  0  0  0  0  0  0  0  1  0  0
  -25.2085  -19.2049   17.8558 F   0  0  0  0  0  0  0  0  0  0  0  0
  -28.7308  -21.8661   16.1480 F   0  0  0  0  0  0  0  0  0  0  0  0
  -16.1002  -28.0644   24.6248 Cl  0  0  0  0  0  0  0  0  0  0  0  0
  1  2  1  0  0  0  0
  1  5  2  0  0  0  0
  2  6  2  0  0  0  0
  3  8  2  0  0  0  0
  3 18  1  0  0  0  0
  4  9  1  0  0  0  0
  4 18  2  0  0  0  0
  5 20  1  0  0  0  0
  6 22  1  0  0  0  0
  7 10  2  0  0  0  0
  7 21  1  0  0  0  0
  8 26  1  0  0  0  0
  9 26  2  0  0  0  0
 10 27  1  0  0  0  0
 11 12  2  0  0  0  0
 11 28  1  0  0  0  0
 12 29  1  0  0  0  0
 13 23  1  0  0  0  0
 13 27  2  0  0  0  0
 14 24  2  0  0  0  0
 14 25  1  0  0  0  0
 15 24  1  0  0  0  0
 15 31  2  0  0  0  0
 16 25  2  0  0  0  0
 16 31  1  0  0  0  0
 17 29  2  0  0  0  0
 17 30  1  0  0  0  0
 18 32  1  0  0  0  0
 19 32  1  0  0  0  0
 19 33  2  0  0  0  0
 19 34  1  0  0  0  0
 20 22  2  0  0  0  0
 20 40  1  0  0  0  0
 21 23  2  0  0  0  0
 21 41  1  0  0  0  0
 22 49  1  0  0  0  0
 23 42  1  0  0  0  0
 24 57  1  0  0  0  0
 25 58  1  0  0  0  0
 26 80  1  0  0  0  0
 27 81  1  0  0  0  0
 28 30  2  0  0  0  0
 28 80  1  0  0  0  0
 29 82  1  0  0  0  0
 30 83  1  0  0  0  0
 31 84  1  0  0  0  0
 32 63  2  0  0  0  0
 33 64  1  0  0  0  0
 33 67  1  0  0  0  0
 34 68  1  0  0  0  0
 34 74  2  0  0  0  0
 35 50  1  0  0  0  0
 35 69  1  0  0  0  0
 35 75  2  0  0  0  0
 36 60  1  0  0  0  0
 36 65  1  0  0  0  0
 36 76  2  0  0  0  0
 37 59  1  0  0  0  0
 37 70  1  0  0  0  0
 37 77  2  0  0  0  0
 38 61  1  0  0  0  0
 38 71  1  0  0  0  0
 38 78  2  0  0  0  0
 39 66  1  0  0  0  0
 39 72  1  0  0  0  0
 39 79  2  0  0  0  0
 40 43  1  0  0  0  0
 41 50  1  0  0  0  0
 42 65  1  0  0  0  0
 43 45  1  0  0  0  0
 44 46  1  0  0  0  0
 44 47  1  0  0  0  0
 45 49  1  0  0  0  0
 46 51  1  0  0  0  0
 47 66  1  0  0  0  0
 48 51  1  0  0  0  0
 48 66  1  0  0  0  0
 49 69  1  0  0  0  0
 50 65  1  0  0  0  0
 51 64  1  0  0  0  0
 52 61  1  0  0  0  0
 53 62  1  0  0  0  0
 54 62  1  0  0  0  0
 55 62  1  0  0  0  0
 56 73  1  0  0  0  0
 57 70  1  0  0  0  0
 58 72  1  0  0  0  0
 59 81  1  0  0  0  0
 60 62  1  0  0  0  0
 60 71  1  0  0  0  0
 61 73  1  0  0  0  0
 63 64  1  0  0  0  0
M  CHG  1  73   1
M  ISO  4  39 100  59 101  72 100  81 101
M  END
> <Batch ID>
0045

> <Smiles>
CNC(C)C(=O)NC(C(=O)N1Cc2cc([101O:1][101CH2:1]C(=O)NCc3cc(Cl)cc(C[100NH:0][100C:0](=O)N4CCCC(n5nc(-c6ccc(Oc7ccc(F)cc7F)cc6)c(C(N)=O)c5N)C4)c3)ccc2CC1C(=O)NC1CCCc2ccccc21)C(C)(C)C

> <Shape>
0.209

> <Color>
0.077

> <Negative vol penalty>
0.000

$$$$

  -OEChem-04042322213D

 92101  0     1  0  0  0  0  0999 V2000
  -17.4724  -26.9700   22.5625 C   0  0  0  0  0  0  0  0  0  0  0  0
  -18.5600  -26.5421   21.8079 C   0  0  0  0  0  0  0  0  0  0  0  0
  -23.4186  -12.9135   20.3328 C   0  0  0  0  0  0  0  0  0  0  0  0
  -25.3430  -12.3077   21.6620 C   0  0  0  0  0  0  0  0  0  0  0  0
  -17.5923  -28.0912   23.3826 C   0  0  0  0  0  0  0  0  0  0  0  0
  -19.7679  -27.2357   21.8722 C   0  0  0  0  0  0  0  0  0  0  0  0
  -25.4011  -24.8608   21.5071 C   0  0  0  0  0  0  0  0  0  0  0  0
  -32.9740  -22.5325   16.6675 C   0  0  0  0  0  0  0  0  0  0  0  0
  -29.1662  -16.7566   15.7153 C   0  0  0  0  0  0  0  0  0  0  0  0
  -32.1613  -23.4631   17.3148 C   0  0  0  0  0  0  0  0  0  0  0  0
  -23.0653  -11.5680   20.2309 C   0  0  0  0  0  0  0  0  0  0  0  0
  -24.9897  -10.9621   21.5602 C   0  0  0  0  0  0  0  0  0  0  0  0
  -26.3092  -24.7579   20.4542 C   0  0  0  0  0  0  0  0  0  0  0  0
  -22.7734   -8.8548   22.9982 C   0  0  0  0  0  0  0  0  0  0  0  0
  -22.8250   -8.0831   24.1590 C   0  0  0  0  0  0  0  0  0  0  0  0
  -27.8980  -16.3740   15.2785 C   0  0  0  0  0  0  0  0  0  0  0  0
  -27.4037  -26.7706   21.2096 C   0  0  0  0  0  0  0  0  0  0  0  0
  -24.4461   -6.6254   23.1178 C   0  0  0  0  0  0  0  0  0  0  0  0
  -27.1278  -18.6512   15.5200 C   0  0  0  0  0  0  0  0  0  0  0  0
  -24.5575  -13.2834   21.0483 C   0  0  0  0  0  0  0  0  0  0  0  0
  -24.5229  -15.5846   22.1488 C   0  0  0  0  0  0  0  0  0  0  0  0
  -18.8052  -28.7932   23.4643 C   0  0  0  0  0  0  0  0  0  0  0  0
  -25.4808  -25.9271   22.4142 C   0  0  0  0  0  0  0  0  0  0  0  0
  -19.9038  -28.3681   22.6931 C   0  0  0  0  0  0  0  0  0  0  0  0
  -26.4969  -26.8833   22.2746 C   0  0  0  0  0  0  0  0  0  0  0  0
  -32.9319  -21.1896   17.0425 C   0  0  0  0  0  0  0  0  0  0  0  0
  -29.4152  -18.0865   16.0546 C   0  0  0  0  0  0  0  0  0  0  0  0
  -32.0772  -20.7774   18.0649 C   0  0  0  0  0  0  0  0  0  0  0  0
  -31.2645  -21.7081   18.7122 C   0  0  0  0  0  0  0  0  0  0  0  0
  -31.3066  -23.0510   18.3371 C   0  0  0  0  0  0  0  0  0  0  0  0
  -23.8508  -10.5923   20.8446 C   0  0  0  0  0  0  0  0  0  0  0  0
  -27.3089  -25.7145   20.3037 C   0  0  0  0  0  0  0  0  0  0  0  0
  -23.5580   -8.5117   21.8971 C   0  0  0  0  0  0  0  0  0  0  0  0
  -23.6614   -6.9684   24.2188 C   0  0  0  0  0  0  0  0  0  0  0  0
  -24.3944   -7.3970   21.9569 C   0  0  0  0  0  0  0  0  0  0  0  0
  -26.8788  -17.3213   15.1808 C   0  0  0  0  0  0  0  0  0  0  0  0
  -28.3960  -19.0338   15.9569 C   0  0  0  0  0  0  0  0  0  0  0  0
  -24.9232  -14.6731   21.1534 C   0  0  0  0  0  0  0  0  0  0  0  0
  -25.1354  -16.7637   21.8010 C   0  0  0  0  0  0  0  0  0  0  0  0
  -23.6734  -15.3834   23.2861 C   0  0  0  0  0  0  0  0  0  0  0  0
  -23.5583  -28.3211   23.2367 C   0  0  0  0  0  0  0  0  0  0  0  0
  -25.8392  -28.8675   25.4775 C   0  0  0  0  0  0  0  0  0  0  0  0
  -29.0912  -28.5098   26.4485 C   0  0  0  0  0  0  0  0  0  0  0  0
  -29.9794  -18.0395   18.8828 C   0  0  0  0  0  0  0  0  0  0  0  0
  -18.8728  -30.0273   24.3287 C   0  0  0  0  0  0  0  0  0  0  0  0
  -24.5100  -26.0091   23.5602 C   0  0  0  0  0  0  0  0  0  0  0  0
  -26.6381  -28.0362   23.2334 C   0  0  0  0  0  0  0  0  0  0  0  0
  -20.2983  -30.4850   24.6265 C   0  0  0  0  0  0  0  0  0  0  0  0
  -26.7523  -19.1785   18.0108 C   0  0  0  0  0  0  0  0  0  0  0  0
  -21.1353  -30.4886   23.3512 C   0  0  0  0  0  0  0  0  0  0  0  0
  -25.8679  -18.2270   18.8154 C   0  0  0  0  0  0  0  0  0  0  0  0
  -27.9612  -18.4642   17.4036 C   0  0  0  0  0  0  0  0  0  0  0  0
  -27.8832  -16.7584   19.1944 C   0  0  0  0  0  0  0  0  0  0  0  0
  -21.2381  -29.0795   22.7549 C   0  0  1  0  0  0  0  0  0  0  0  0
  -24.3690  -27.4196   24.1241 C   0  0  1  0  0  0  0  0  0  0  0  0
  -26.6939  -17.4632   19.8649 C   0  0  2  0  0  0  0  0  0  0  0  0
  -33.8122  -20.2139   16.3323 C   0  0  0  0  0  0  0  0  0  0  0  0
  -30.3482  -21.2641   19.8092 C   0  0  0  0  0  0  0  0  0  0  0  0
  -30.6661  -29.0944   28.3128 C   0  0  0  0  0  0  0  0  0  0  0  0
  -25.9734  -31.7409   24.4598 C   0  0  0  0  0  0  0  0  0  0  0  0
  -28.1553  -31.9910   25.6620 C   0  0  0  0  0  0  0  0  0  0  0  0
  -26.0727  -31.5097   26.9480 C   0  0  0  0  0  0  0  0  0  0  0  0
  -29.6299  -25.6609   27.0424 C   0  0  0  0  0  0  0  0  0  0  0  0
  -30.7928  -18.4570   16.5229 C   0  0  0  0  0  0  0  0  0  0  0  0
  -32.0341  -19.3364   18.4651 C   0  0  0  0  0  0  0  0  0  0  0  0
  -30.5032  -25.3951   18.6293 C   0  0  0  0  0  0  0  0  0  0  0  0
  -29.5042  -26.1435   19.4959 C   0  0  0  0  0  0  0  0  0  1  0  0
  -27.1066  -29.6855   25.5355 C   0  0  1  0  0  0  0  0  0  0  0  0
  -29.7068  -28.0525   27.7587 C   0  0  2  0  0  0  0  0  0  0  0  0
  -26.8234  -31.2112   25.6320 C   0  0  0  0  0  0  0  0  0  0  0  0
  -25.7277  -15.2257   20.2416 N   0  0  0  0  0  0  0  0  0  0  0  0
  -25.8378  -16.4972   20.6626 N   0  0  0  0  0  0  0  0  0  0  0  0
  -25.6609  -28.0762   24.3339 N   0  0  0  0  0  0  0  0  0  0  0  0
  -28.6935  -17.7097   18.4299 N   0  0  0  0  0  0  0  0  0  0  0  0
  -25.1363  -17.9921   22.3609 N   0  0  0  0  0  0  0  0  0  0  0  0
  -23.1271  -14.1097   23.4950 N   0  0  0  0  0  0  0  0  0  0  0  0
  -30.5080  -23.9904   18.9681 N   0  0  0  0  0  0  0  0  0  0  0  0
  -22.2005  -28.2882   23.4911 N   0  0  0  0  0  0  0  0  0  0  0  0
  -27.8868  -29.1512   26.6465 N   0  0  0  0  0  0  0  0  0  0  0  0
  -30.8417  -18.6639   17.9690 N   0  0  0  0  0  0  0  0  0  0  0  0
  -30.4572  -26.7800   27.5621 N   0  3  0  0  0  0  0  0  0  0  0  0
  -23.3934  -16.3099   24.0840 O   0  0  0  0  0  0  0  0  0  0  0  0
  -24.1230  -28.9977   22.3852 O   0  0  0  0  0  0  0  0  0  0  0  0
  -25.0402  -28.9229   26.4157 O   0  0  0  0  0  0  0  0  0  0  0  0
  -29.6272  -28.3205   25.3588 O   0  0  0  0  0  0  0  0  0  0  0  0
  -30.3416  -17.7833   20.0383 O   0  0  0  0  0  0  0  0  0  0  0  0
  -23.5063   -9.2793   20.7457 O   0  0  0  0  0  0  0  0  0  0  0  0
  -28.1962  -25.6169   19.2765 O   0  0  0  0  0  0  0  0  0  1  0  0
  -23.7120   -6.2284   25.3341 F   0  0  0  0  0  0  0  0  0  0  0  0
  -25.1515   -7.0632   20.9028 F   0  0  0  0  0  0  0  0  0  0  0  0
  -25.3147  -16.8492   14.6401 Cl  0  0  0  0  0  0  0  0  0  0  0  0
  -28.6664  -20.6881   16.3693 Cl  0  0  0  0  0  0  0  0  0  0  0  0
  1  2  1  0  0  0  0
  1  5  2  0  0  0  0
  2  6  2  0  0  0  0
  3 11  2  0  0  0  0
  3 20  1  0  0  0  0
  4 12  1  0  0  0  0
  4 20  2  0  0  0  0
  5 22  1  0  0  0  0
  6 24  1  0  0  0  0
  7 13  2  0  0  0  0
  7 23  1  0  0  0  0
  8 10  2  0  0  0  0
  8 26  1  0  0  0  0
  9 16  2  0  0  0  0
  9 27  1  0  0  0  0
 10 30  1  0  0  0  0
 11 31  1  0  0  0  0
 12 31  2  0  0  0  0
 13 32  1  0  0  0  0
 14 15  2  0  0  0  0
 14 33  1  0  0  0  0
 15 34  1  0  0  0  0
 16 36  1  0  0  0  0
 17 25  1  0  0  0  0
 17 32  2  0  0  0  0
 18 34  2  0  0  0  0
 18 35  1  0  0  0  0
 19 36  2  0  0  0  0
 19 37  1  0  0  0  0
 20 38  1  0  0  0  0
 21 38  1  0  0  0  0
 21 39  2  0  0  0  0
 21 40  1  0  0  0  0
 22 24  2  0  0  0  0
 22 45  1  0  0  0  0
 23 25  2  0  0  0  0
 23 46  1  0  0  0  0
 24 54  1  0  0  0  0
 25 47  1  0  0  0  0
 26 28  2  0  0  0  0
 26 57  1  0  0  0  0
 27 37  2  0  0  0  0
 27 64  1  0  0  0  0
 28 29  1  0  0  0  0
 28 65  1  0  0  0  0
 29 30  2  0  0  0  0
 29 58  1  0  0  0  0
 30 77  1  0  0  0  0
 31 87  1  0  0  0  0
 32 88  1  0  0  0  0
 33 35  2  0  0  0  0
 33 87  1  0  0  0  0
 34 89  1  0  0  0  0
 35 90  1  0  0  0  0
 36 91  1  0  0  0  0
 37 92  1  0  0  0  0
 38 71  2  0  0  0  0
 39 72  1  0  0  0  0
 39 75  1  0  0  0  0
 40 76  1  0  0  0  0
 40 82  2  0  0  0  0
 41 55  1  0  0  0  0
 41 78  1  0  0  0  0
 41 83  2  0  0  0  0
 42 68  1  0  0  0  0
 42 73  1  0  0  0  0
 42 84  2  0  0  0  0
 43 69  1  0  0  0  0
 43 79  1  0  0  0  0
 43 85  2  0  0  0  0
 44 74  1  0  0  0  0
 44 80  1  0  0  0  0
 44 86  2  0  0  0  0
 45 48  1  0  0  0  0
 46 55  1  0  0  0  0
 47 73  1  0  0  0  0
 48 50  1  0  0  0  0
 49 51  1  0  0  0  0
 49 52  1  0  0  0  0
 50 54  1  0  0  0  0
 51 56  1  0  0  0  0
 52 74  1  0  0  0  0
 53 56  1  0  0  0  0
 53 74  1  0  0  0  0
 54 78  1  0  0  0  0
 55 73  1  0  0  0  0
 56 72  1  0  0  0  0
 59 69  1  0  0  0  0
 60 70  1  0  0  0  0
 61 70  1  0  0  0  0
 62 70  1  0  0  0  0
 63 81  1  0  0  0  0
 64 80  1  0  0  0  0
 65 80  1  0  0  0  0
 66 67  1  0  0  0  0
 66 77  1  0  0  0  0
 67 88  1  0  0  0  0
 68 70  1  0  0  0  0
 68 79  1  0  0  0  0
 69 81  1  0  0  0  0
 71 72  1  0  0  0  0
M  CHG  1  81   1
M  ISO  4  44 100  67 101  80 100  88 101
M  END
> <Batch ID>
0045

> <Smiles>
CNC(C)C(=O)NC(C(=O)N1Cc2cc([101O:1][101CH2:1]CNc3ccc(C)c(C[100N:0](Cc4ccc(Cl)cc4Cl)[100C:0](=O)N4CCCC(n5nc(-c6ccc(Oc7ccc(F)cc7F)cc6)c(C(N)=O)c5N)C4)c3C)ccc2CC1C(=O)NC1CCCc2ccccc21)C(C)(C)C

> <Shape>
0.235

> <Color>
0.080

> <Negative vol penalty>
0.000

$$$$

  -OEChem-04042322213D

 83 91  0     1  0  0  0  0  0999 V2000
  -41.0513  -26.3696   11.9762 C   0  0  0  0  0  0  0  0  0  0  0  0
  -40.5916  -25.2285   12.6257 C   0  0  0  0  0  0  0  0  0  0  0  0
  -23.0758   -9.8675   19.9416 C   0  0  0  0  0  0  0  0  0  0  0  0
  -23.8349   -9.8755   22.2353 C   0  0  0  0  0  0  0  0  0  0  0  0
  -41.2989  -27.5327   12.7042 C   0  0  0  0  0  0  0  0  0  0  0  0
  -40.3802  -25.2494   14.0039 C   0  0  0  0  0  0  0  0  0  0  0  0
  -36.0202  -22.2702   17.1054 C   0  0  0  0  0  0  0  0  0  0  0  0
  -22.3318   -8.7145   20.1919 C   0  0  0  0  0  0  0  0  0  0  0  0
  -23.0908   -8.7226   22.4856 C   0  0  0  0  0  0  0  0  0  0  0  0
  -36.0290  -21.0731   17.8201 C   0  0  0  0  0  0  0  0  0  0  0  0
  -19.8623   -7.9254   23.0873 C   0  0  0  0  0  0  0  0  0  0  0  0
  -19.1050   -7.8861   24.2580 C   0  0  0  0  0  0  0  0  0  0  0  0
  -36.3882  -22.3030   19.8640 C   0  0  0  0  0  0  0  0  0  0  0  0
  -32.0627  -16.6095   22.5503 C   0  0  0  0  0  0  0  0  0  0  0  0
  -31.8513  -18.3621   24.1997 C   0  0  0  0  0  0  0  0  0  0  0  0
  -29.8784  -17.4588   23.1373 C   0  0  0  0  0  0  0  0  0  0  0  0
  -20.3459   -5.9489   24.9958 C   0  0  0  0  0  0  0  0  0  0  0  0
  -23.8275  -10.4480   20.9633 C   0  0  0  0  0  0  0  0  0  0  0  0
  -24.1696  -12.9730   20.8422 C   0  0  0  0  0  0  0  0  0  0  0  0
  -41.0813  -27.5708   14.0905 C   0  0  0  0  0  0  0  0  0  0  0  0
  -36.2065  -23.4939   17.7644 C   0  0  0  0  0  0  0  0  0  0  0  0
  -40.6264  -26.4137   14.7513 C   0  0  0  0  0  0  0  0  0  0  0  0
  -36.3787  -23.5143   19.1558 C   0  0  0  0  0  0  0  0  0  0  0  0
  -32.6499  -17.4948   23.4542 C   0  0  0  0  0  0  0  0  0  0  0  0
  -30.6769  -16.5916   22.3918 C   0  0  0  0  0  0  0  0  0  0  0  0
  -22.3392   -8.1421   21.4639 C   0  0  0  0  0  0  0  0  0  0  0  0
  -36.2159  -21.0891   19.1991 C   0  0  0  0  0  0  0  0  0  0  0  0
  -20.8615   -6.9764   22.8709 C   0  0  0  0  0  0  0  0  0  0  0  0
  -19.3468   -6.8979   25.2122 C   0  0  0  0  0  0  0  0  0  0  0  0
  -21.1033   -5.9881   23.8251 C   0  0  0  0  0  0  0  0  0  0  0  0
  -30.4656  -18.3441   24.0413 C   0  0  0  0  0  0  0  0  0  0  0  0
  -24.5968  -11.6386   20.7053 C   0  0  0  0  0  0  0  0  0  0  0  0
  -25.2619  -13.7222   20.4789 C   0  0  0  0  0  0  0  0  0  0  0  0
  -22.8990  -13.4892   21.2604 C   0  0  0  0  0  0  0  0  0  0  0  0
  -38.3772  -25.8114   17.6203 C   0  0  0  0  0  0  0  0  0  0  0  0
  -36.3501  -27.3048   19.6655 C   0  0  0  0  0  0  0  0  0  0  0  0
  -35.1780  -18.6399   21.6633 C   0  0  0  0  0  0  0  0  0  0  0  0
  -33.8810  -27.0403   22.0065 C   0  0  0  0  0  0  0  0  0  0  0  0
  -30.7282  -14.7674   20.6551 C   0  0  0  0  0  0  0  0  0  0  0  0
  -41.4081  -28.8368   14.8421 C   0  0  0  0  0  0  0  0  0  0  0  0
  -36.1676  -24.7784   16.9827 C   0  0  0  0  0  0  0  0  0  0  0  0
  -36.5628  -24.8031   19.9132 C   0  0  0  0  0  0  0  0  0  0  0  0
  -40.8016  -28.8879   16.2420 C   0  0  0  0  0  0  0  0  0  0  0  0
  -29.6144  -12.3525   18.2876 C   0  0  0  0  0  0  0  0  0  0  0  0
  -41.0363  -27.5703   16.9739 C   0  0  0  0  0  0  0  0  0  0  0  0
  -28.1746  -12.0613   18.7168 C   0  0  0  0  0  0  0  0  0  0  0  0
  -30.5291  -12.5818   19.4895 C   0  0  0  0  0  0  0  0  0  0  0  0
  -28.6217  -13.3071   20.8697 C   0  0  0  0  0  0  0  0  0  0  0  0
  -40.3615  -26.4044   16.2412 C   0  0  1  0  0  0  0  0  0  0  0  0
  -36.8808  -25.9284   17.6872 C   0  0  1  0  0  0  0  0  0  0  0  0
  -27.6493  -13.1334   19.6916 C   0  0  2  0  0  0  0  0  0  0  0  0
  -32.4513  -28.4330   23.5277 C   0  0  0  0  0  0  0  0  0  0  0  0
  -38.7260  -27.6916   21.5404 C   0  0  0  0  0  0  0  0  0  0  0  0
  -37.1038  -28.2003   23.3782 C   0  0  0  0  0  0  0  0  0  0  0  0
  -37.2040  -29.6681   21.3637 C   0  0  0  0  0  0  0  0  0  0  0  0
  -31.3900  -26.1136   20.7045 C   0  0  0  0  0  0  0  0  0  0  0  0
  -34.1415  -17.5146   23.6242 C   0  0  0  0  0  0  0  0  0  0  0  0
  -35.7684  -19.9711   21.2499 C   0  0  0  0  0  0  0  0  0  1  0  0
  -36.1932  -27.3592   21.1659 C   0  0  1  0  0  0  0  0  0  0  0  0
  -32.5592  -27.7701   22.1632 C   0  0  2  0  0  0  0  0  0  0  0  0
  -37.3052  -28.2052   21.8478 C   0  0  0  0  0  0  0  0  0  0  0  0
  -25.8618  -11.5425   20.2875 N   0  0  0  0  0  0  0  0  0  0  0  0
  -26.2388  -12.8259   20.1587 N   0  0  0  0  0  0  0  0  0  0  0  0
  -36.5235  -26.0320   19.1035 N   0  0  0  0  0  0  0  0  0  0  0  0
  -29.9699  -13.6131   20.3661 N   0  0  0  0  0  0  0  0  0  0  0  0
  -25.4725  -15.0536   20.4053 N   0  0  0  0  0  0  0  0  0  0  0  0
  -21.8869  -12.5802   21.5977 N   0  0  0  0  0  0  0  0  0  0  0  0
  -30.0806  -15.6929   21.4728 N   0  0  0  0  0  0  0  0  0  0  0  0
  -38.9381  -26.3993   16.5026 N   0  0  0  0  0  0  0  0  0  0  0  0
  -34.7439  -18.6585   22.9795 N   0  0  0  0  0  0  0  0  0  0  0  0
  -34.8386  -27.8388   21.4176 N   0  0  0  0  0  0  0  0  0  0  0  0
  -31.4215  -26.8196   22.0113 N   0  3  0  0  0  0  0  0  0  0  0  0
  -22.6628  -14.7198   21.3170 O   0  0  0  0  0  0  0  0  0  0  0  0
  -38.9787  -25.2321   18.5171 O   0  0  0  0  0  0  0  0  0  0  0  0
  -36.3128  -28.3524   19.0152 O   0  0  0  0  0  0  0  0  0  0  0  0
  -35.1079  -17.6790   20.9018 O   0  0  0  0  0  0  0  0  0  0  0  0
  -34.0485  -25.8794   22.3734 O   0  0  0  0  0  0  0  0  0  0  0  0
  -31.8574  -14.9358   20.1878 O   0  0  0  0  0  0  0  0  0  0  0  0
  -21.6131   -7.0172   21.7085 O   0  0  0  0  0  0  0  0  0  0  0  0
  -36.2256  -19.9221   19.8990 O   0  0  0  0  0  0  0  0  0  1  0  0
  -18.6204   -6.8612   26.3371 F   0  0  0  0  0  0  0  0  0  0  0  0
  -22.0626   -5.0745   23.6233 F   0  0  0  0  0  0  0  0  0  0  0  0
  -29.4802  -19.4154   24.9597 Cl  0  0  0  0  0  0  0  0  0  0  0  0
  1  2  1  0  0  0  0
  1  5  2  0  0  0  0
  2  6  2  0  0  0  0
  3  8  2  0  0  0  0
  3 18  1  0  0  0  0
  4  9  1  0  0  0  0
  4 18  2  0  0  0  0
  5 20  1  0  0  0  0
  6 22  1  0  0  0  0
  7 10  2  0  0  0  0
  7 21  1  0  0  0  0
  8 26  1  0  0  0  0
  9 26  2  0  0  0  0
 10 27  1  0  0  0  0
 11 12  2  0  0  0  0
 11 28  1  0  0  0  0
 12 29  1  0  0  0  0
 13 23  1  0  0  0  0
 13 27  2  0  0  0  0
 14 24  2  0  0  0  0
 14 25  1  0  0  0  0
 15 24  1  0  0  0  0
 15 31  2  0  0  0  0
 16 25  2  0  0  0  0
 16 31  1  0  0  0  0
 17 29  2  0  0  0  0
 17 30  1  0  0  0  0
 18 32  1  0  0  0  0
 19 32  1  0  0  0  0
 19 33  2  0  0  0  0
 19 34  1  0  0  0  0
 20 22  2  0  0  0  0
 20 40  1  0  0  0  0
 21 23  2  0  0  0  0
 21 41  1  0  0  0  0
 22 49  1  0  0  0  0
 23 42  1  0  0  0  0
 24 57  1  0  0  0  0
 25 68  1  0  0  0  0
 26 79  1  0  0  0  0
 27 80  1  0  0  0  0
 28 30  2  0  0  0  0
 28 79  1  0  0  0  0
 29 81  1  0  0  0  0
 30 82  1  0  0  0  0
 31 83  1  0  0  0  0
 32 62  2  0  0  0  0
 33 63  1  0  0  0  0
 33 66  1  0  0  0  0
 34 67  1  0  0  0  0
 34 73  2  0  0  0  0
 35 50  1  0  0  0  0
 35 69  1  0  0  0  0
 35 74  2  0  0  0  0
 36 59  1  0  0  0  0
 36 64  1  0  0  0  0
 36 75  2  0  0  0  0
 37 58  1  0  0  0  0
 37 70  1  0  0  0  0
 37 76  2  0  0  0  0
 38 60  1  0  0  0  0
 38 71  1  0  0  0  0
 38 77  2  0  0  0  0
 39 65  1  0  0  0  0
 39 68  1  0  0  0  0
 39 78  2  0  0  0  0
 40 43  1  0  0  0  0
 41 50  1  0  0  0  0
 42 64  1  0  0  0  0
 43 45  1  0  0  0  0
 44 46  1  0  0  0  0
 44 47  1  0  0  0  0
 45 49  1  0  0  0  0
 46 51  1  0  0  0  0
 47 65  1  0  0  0  0
 48 51  1  0  0  0  0
 48 65  1  0  0  0  0
 49 69  1  0  0  0  0
 50 64  1  0  0  0  0
 51 63  1  0  0  0  0
 52 60  1  0  0  0  0
 53 61  1  0  0  0  0
 54 61  1  0  0  0  0
 55 61  1  0  0  0  0
 56 72  1  0  0  0  0
 57 70  1  0  0  0  0
 58 80  1  0  0  0  0
 59 61  1  0  0  0  0
 59 71  1  0  0  0  0
 60 72  1  0  0  0  0
 62 63  1  0  0  0  0
M  CHG  1  72   1
M  ISO  4  39 100  58 101  68 100  80 101
M  END
> <Batch ID>
0045

> <Smiles>
CNC(C)C(=O)NC(C(=O)N1Cc2cc([101O:1][101CH2:1]C(=O)NCc3cc(Cl)cc([100NH:0][100C:0](=O)N4CCCC(n5nc(-c6ccc(Oc7ccc(F)cc7F)cc6)c(C(N)=O)c5N)C4)c3)ccc2CC1C(=O)NC1CCCc2ccccc21)C(C)(C)C

> <Shape>
0.173

> <Color>
0.191

> <Negative vol penalty>
0.000

$$$$

  -OEChem-04042322213D

 88 97  0     1  0  0  0  0  0999 V2000
  -29.7426  -12.8611   19.3388 C   0  0  0  0  0  0  0  0  0  0  0  0
  -28.8491  -13.5530   18.5274 C   0  0  0  0  0  0  0  0  0  0  0  0
  -29.0816  -24.2828   18.9630 C   0  0  0  0  0  0  0  0  0  0  0  0
  -26.9777  -23.4402   19.8001 C   0  0  0  0  0  0  0  0  0  0  0  0
  -29.2899  -12.2432   20.5038 C   0  0  0  0  0  0  0  0  0  0  0  0
  -27.5020  -13.6265   18.8800 C   0  0  0  0  0  0  0  0  0  0  0  0
  -22.9496  -19.8817   19.9634 C   0  0  0  0  0  0  0  0  0  0  0  0
  -29.6424  -23.0123   19.0935 C   0  0  0  0  0  0  0  0  0  0  0  0
  -27.5384  -22.1697   19.9306 C   0  0  0  0  0  0  0  0  0  0  0  0
  -22.0869  -20.9126   20.3364 C   0  0  0  0  0  0  0  0  0  0  0  0
  -28.2928  -19.5631   17.9165 C   0  0  0  0  0  0  0  0  0  0  0  0
  -27.5447  -18.4766   17.4632 C   0  0  0  0  0  0  0  0  0  0  0  0
  -20.8844  -19.3961   21.7863 C   0  0  0  0  0  0  0  0  0  0  0  0
  -19.9622  -27.0677   21.7336 C   0  0  0  0  0  0  0  0  0  0  0  0
  -19.9205  -28.9337   23.2677 C   0  0  0  0  0  0  0  0  0  0  0  0
  -27.5620  -17.5362   19.6886 C   0  0  0  0  0  0  0  0  0  0  0  0
  -27.7493  -24.4968   19.3164 C   0  0  0  0  0  0  0  0  0  0  0  0
  -27.0412  -26.5652   18.0018 C   0  0  0  0  0  0  0  0  0  0  0  0
  -27.9383  -12.3174   20.8759 C   0  0  0  0  0  0  0  0  0  0  0  0
  -22.7924  -18.6063   20.5130 C   0  0  0  0  0  0  0  0  0  0  0  0
  -27.0305  -13.0079   20.0504 C   0  0  0  0  0  0  0  0  0  0  0  0
  -21.7533  -18.3627   21.4261 C   0  0  0  0  0  0  0  0  0  0  0  0
  -18.5750  -26.9581   21.8291 C   0  0  0  0  0  0  0  0  0  0  0  0
  -17.8605  -27.8363   22.6439 C   0  0  0  0  0  0  0  0  0  0  0  0
  -20.6350  -28.0555   22.4529 C   0  0  0  0  0  0  0  0  0  0  0  0
  -28.8708  -21.9558   19.5773 C   0  0  0  0  0  0  0  0  0  0  0  0
  -21.0567  -20.6703   21.2454 C   0  0  0  0  0  0  0  0  0  0  0  0
  -28.6756  -19.6361   19.2558 C   0  0  0  0  0  0  0  0  0  0  0  0
  -27.1793  -17.4631   18.3492 C   0  0  0  0  0  0  0  0  0  0  0  0
  -28.3101  -18.6227   20.1419 C   0  0  0  0  0  0  0  0  0  0  0  0
  -18.5332  -28.8241   23.3632 C   0  0  0  0  0  0  0  0  0  0  0  0
  -27.1697  -25.8091   19.1824 C   0  0  0  0  0  0  0  0  0  0  0  0
  -26.4305  -27.7280   18.4036 C   0  0  0  0  0  0  0  0  0  0  0  0
  -19.0726  -23.7404   21.2963 C   0  0  0  0  0  0  0  0  0  0  0  0
  -27.4384  -26.2450   16.6619 C   0  0  0  0  0  0  0  0  0  0  0  0
  -24.0324  -15.0699   20.6924 C   0  0  0  0  0  0  0  0  0  0  0  0
  -23.2754  -15.8947   23.5484 C   0  0  0  0  0  0  0  0  0  0  0  0
  -22.7248  -17.3303   26.5936 C   0  0  0  0  0  0  0  0  0  0  0  0
  -22.8659  -29.0889   23.0021 C   0  0  0  0  0  0  0  0  0  0  0  0
  -27.4871  -11.5935   22.1197 C   0  0  0  0  0  0  0  0  0  0  0  0
  -23.6601  -17.4510   20.0935 C   0  0  0  0  0  0  0  0  0  0  0  0
  -21.6007  -16.9666   21.9651 C   0  0  0  0  0  0  0  0  0  0  0  0
  -26.1133  -12.0356   22.6171 C   0  0  0  0  0  0  0  0  0  0  0  0
  -19.5366  -22.8740   18.1291 C   0  0  0  0  0  0  0  0  0  0  0  0
  -18.8928  -24.2568   18.1427 C   0  0  0  0  0  0  0  0  0  0  0  0
  -25.9877  -30.6048   22.2064 C   0  0  0  0  0  0  0  0  0  0  0  0
  -25.1224  -12.1025   21.4593 C   0  0  0  0  0  0  0  0  0  0  0  0
  -19.3444  -22.0675   19.4097 C   0  0  0  0  0  0  0  0  0  0  0  0
  -26.6308  -29.6188   21.2285 C   0  0  0  0  0  0  0  0  0  0  0  0
  -19.4262  -25.1634   19.2456 C   0  0  0  0  0  0  0  0  0  0  0  0
  -25.2004  -29.8863   23.3008 C   0  0  0  0  0  0  0  0  0  0  0  0
  -24.8485  -27.9344   21.8395 C   0  0  0  0  0  0  0  0  0  0  0  0
  -25.5662  -13.1310   20.4120 C   0  0  1  0  0  0  0  0  0  0  0  0
  -19.9835  -22.7050   20.6432 C   0  0  2  0  0  0  0  0  0  1  0  0
  -23.9471  -16.4645   21.2396 C   0  0  1  0  0  0  0  0  0  0  0  0
  -25.5986  -28.6132   20.6818 C   0  0  2  0  0  0  0  0  0  0  0  0
  -16.3719  -27.7043   22.7363 C   0  0  0  0  0  0  0  0  0  0  0  0
  -22.7597  -16.8153   29.0494 C   0  0  0  0  0  0  0  0  0  0  0  0
  -20.6424  -14.3812   23.2647 C   0  0  0  0  0  0  0  0  0  0  0  0
  -20.2602  -14.7291   25.7144 C   0  0  0  0  0  0  0  0  0  0  0  0
  -22.2293  -13.4102   24.9359 C   0  0  0  0  0  0  0  0  0  0  0  0
  -24.8081  -19.3682   27.1095 C   0  0  0  0  0  0  0  0  0  0  0  0
  -17.8764  -25.8852   21.0449 C   0  0  0  0  0  0  0  0  0  0  0  0
  -22.2137  -15.9185   24.6188 C   0  0  1  0  0  0  0  0  0  0  0  0
  -23.5537  -17.3448   27.8653 C   0  0  2  0  0  0  0  0  0  0  0  0
  -21.3406  -14.6320   24.6162 C   0  0  0  0  0  0  0  0  0  0  0  0
  -26.6801  -26.4387   20.2538 N   0  0  0  0  0  0  0  0  0  0  0  0
  -26.2381  -27.6027   19.7480 N   0  0  0  0  0  0  0  0  0  0  0  0
  -18.8076  -24.8831   20.5421 N   0  0  0  0  0  0  0  0  0  0  0  0
  -22.9213  -16.4082   22.2949 N   0  0  0  0  0  0  0  0  0  0  0  0
  -24.2392  -28.9535   22.7083 N   0  0  0  0  0  0  0  0  0  0  0  0
  -26.0448  -28.8352   17.7344 N   0  0  0  0  0  0  0  0  0  0  0  0
  -28.0526  -25.0078   16.4247 N   0  0  0  0  0  0  0  0  0  0  0  0
  -22.0443  -28.1660   22.3557 N   0  0  0  0  0  0  0  0  0  0  0  0
  -25.2669  -14.4731   20.8632 N   0  0  0  0  0  0  0  0  0  0  0  0
  -22.9085  -16.1665   25.8774 N   0  0  0  0  0  0  0  0  0  0  0  0
  -23.9964  -18.7328   28.1793 N   0  3  0  0  0  0  0  0  0  0  0  0
  -18.6116  -23.5451   22.4239 O   0  0  0  0  0  0  0  0  0  0  0  0
  -27.2688  -27.0395   15.7061 O   0  0  0  0  0  0  0  0  0  0  0  0
  -23.0505  -14.5704   20.1557 O   0  0  0  0  0  0  0  0  0  0  0  0
  -24.3875  -15.4289   23.8122 O   0  0  0  0  0  0  0  0  0  0  0  0
  -21.9853  -18.2571   26.2699 O   0  0  0  0  0  0  0  0  0  0  0  0
  -22.4465  -29.9765   23.7492 O   0  0  0  0  0  0  0  0  0  0  0  0
  -29.4175  -20.7158   19.7045 O   0  0  0  0  0  0  0  0  0  0  0  0
  -20.2208  -21.6823   21.6085 O   0  0  0  0  0  0  0  0  0  1  0  0
  -26.4596  -16.4206   17.9141 F   0  0  0  0  0  0  0  0  0  0  0  0
  -28.6739  -18.6880   21.4300 F   0  0  0  0  0  0  0  0  0  0  0  0
  -17.6854  -29.9320   24.3806 Cl  0  0  0  0  0  0  0  0  0  0  0  0
  1  2  1  0  0  0  0
  1  5  2  0  0  0  0
  2  6  2  0  0  0  0
  3  8  2  0  0  0  0
  3 17  1  0  0  0  0
  4  9  1  0  0  0  0
  4 17  2  0  0  0  0
  5 19  1  0  0  0  0
  6 21  1  0  0  0  0
  7 10  2  0  0  0  0
  7 20  1  0  0  0  0
  8 26  1  0  0  0  0
  9 26  2  0  0  0  0
 10 27  1  0  0  0  0
 11 12  2  0  0  0  0
 11 28  1  0  0  0  0
 12 29  1  0  0  0  0
 13 22  1  0  0  0  0
 13 27  2  0  0  0  0
 14 23  1  0  0  0  0
 14 25  2  0  0  0  0
 15 25  1  0  0  0  0
 15 31  2  0  0  0  0
 16 29  2  0  0  0  0
 16 30  1  0  0  0  0
 17 32  1  0  0  0  0
 18 32  1  0  0  0  0
 18 33  2  0  0  0  0
 18 35  1  0  0  0  0
 19 21  2  0  0  0  0
 19 40  1  0  0  0  0
 20 22  2  0  0  0  0
 20 41  1  0  0  0  0
 21 53  1  0  0  0  0
 22 42  1  0  0  0  0
 23 24  2  0  0  0  0
 23 63  1  0  0  0  0
 24 31  1  0  0  0  0
 24 57  1  0  0  0  0
 25 74  1  0  0  0  0
 26 84  1  0  0  0  0
 27 85  1  0  0  0  0
 28 30  2  0  0  0  0
 28 84  1  0  0  0  0
 29 86  1  0  0  0  0
 30 87  1  0  0  0  0
 31 88  1  0  0  0  0
 32 67  2  0  0  0  0
 33 68  1  0  0  0  0
 33 72  1  0  0  0  0
 34 54  1  0  0  0  0
 34 69  1  0  0  0  0
 34 78  2  0  0  0  0
 35 73  1  0  0  0  0
 35 79  2  0  0  0  0
 36 55  1  0  0  0  0
 36 75  1  0  0  0  0
 36 80  2  0  0  0  0
 37 64  1  0  0  0  0
 37 70  1  0  0  0  0
 37 81  2  0  0  0  0
 38 65  1  0  0  0  0
 38 76  1  0  0  0  0
 38 82  2  0  0  0  0
 39 71  1  0  0  0  0
 39 74  1  0  0  0  0
 39 83  2  0  0  0  0
 40 43  1  0  0  0  0
 41 55  1  0  0  0  0
 42 70  1  0  0  0  0
 43 47  1  0  0  0  0
 44 45  1  0  0  0  0
 44 48  1  0  0  0  0
 45 50  1  0  0  0  0
 46 49  1  0  0  0  0
 46 51  1  0  0  0  0
 47 53  1  0  0  0  0
 48 54  1  0  0  0  0
 49 56  1  0  0  0  0
 50 69  1  0  0  0  0
 51 71  1  0  0  0  0
 52 56  1  0  0  0  0
 52 71  1  0  0  0  0
 53 75  1  0  0  0  0
 54 85  1  0  0  0  0
 55 70  1  0  0  0  0
 56 68  1  0  0  0  0
 58 65  1  0  0  0  0
 59 66  1  0  0  0  0
 60 66  1  0  0  0  0
 61 66  1  0  0  0  0
 62 77  1  0  0  0  0
 63 69  1  0  0  0  0
 64 66  1  0  0  0  0
 64 76  1  0  0  0  0
 65 77  1  0  0  0  0
 67 68  1  0  0  0  0
M  CHG  1  77   1
M  ISO  4  39 100  54 101  74 100  85 101
M  END
> <Batch ID>
0045

> <Smiles>
CNC(C)C(=O)NC(C(=O)N1Cc2cc([101O:1][101CH:1]3CCCCN(Cc4cc([100NH:0][100C:0](=O)N5CCCC(n6nc(-c7ccc(Oc8ccc(F)cc8F)cc7)c(C(N)=O)c6N)C5)cc(Cl)c4C)C3=O)ccc2CC1C(=O)NC1CCCc2ccccc21)C(C)(C)C

> <Shape>
0.234

> <Color>
0.076

> <Negative vol penalty>
0.000

$$$$

  -OEChem-04042322213D

 88 97  0     1  0  0  0  0  0999 V2000
  -26.0192  -18.5199   25.6431 C   0  0  0  0  0  0  0  0  0  0  0  0
  -26.3321  -19.8692   25.5228 C   0  0  0  0  0  0  0  0  0  0  0  0
  -26.0185  -14.2941   21.3596 C   0  0  0  0  0  0  0  0  0  0  0  0
  -25.7127  -16.2240   19.9386 C   0  0  0  0  0  0  0  0  0  0  0  0
  -24.9014  -18.0065   24.9886 C   0  0  0  0  0  0  0  0  0  0  0  0
  -25.5208  -20.7079   24.7578 C   0  0  0  0  0  0  0  0  0  0  0  0
  -26.5183  -25.5232   24.9030 C   0  0  0  0  0  0  0  0  0  0  0  0
  -30.2076  -23.1188   16.4203 C   0  0  0  0  0  0  0  0  0  0  0  0
  -30.4118  -22.0264   17.2633 C   0  0  0  0  0  0  0  0  0  0  0  0
  -24.6387  -14.0905   21.3801 C   0  0  0  0  0  0  0  0  0  0  0  0
  -24.3329  -16.0204   19.9591 C   0  0  0  0  0  0  0  0  0  0  0  0
  -27.6388  -26.0797   24.2877 C   0  0  0  0  0  0  0  0  0  0  0  0
  -22.2841  -12.7763   19.3401 C   0  0  0  0  0  0  0  0  0  0  0  0
  -21.8180  -11.4747   19.1550 C   0  0  0  0  0  0  0  0  0  0  0  0
  -26.2424  -26.8988   22.4993 C   0  0  0  0  0  0  0  0  0  0  0  0
  -31.1688  -23.5152   19.0090 C   0  0  0  0  0  0  0  0  0  0  0  0
  -20.7572  -11.5460   21.3245 C   0  0  0  0  0  0  0  0  0  0  0  0
  -26.5555  -15.3608   20.6389 C   0  0  0  0  0  0  0  0  0  0  0  0
  -28.9651  -14.6812   20.1496 C   0  0  0  0  0  0  0  0  0  0  0  0
  -24.0837  -18.8375   24.2053 C   0  0  0  0  0  0  0  0  0  0  0  0
  -25.2509  -25.6412   24.3145 C   0  0  0  0  0  0  0  0  0  0  0  0
  -24.3748  -20.2135   24.1090 C   0  0  0  0  0  0  0  0  0  0  0  0
  -25.1071  -26.3451   23.1104 C   0  0  0  0  0  0  0  0  0  0  0  0
  -30.4841  -24.4094   16.8716 C   0  0  0  0  0  0  0  0  0  0  0  0
  -30.9647  -24.6076   18.1659 C   0  0  0  0  0  0  0  0  0  0  0  0
  -30.8923  -22.2247   18.5577 C   0  0  0  0  0  0  0  0  0  0  0  0
  -23.7959  -14.9536   20.6799 C   0  0  0  0  0  0  0  0  0  0  0  0
  -27.5014  -26.7651   23.0842 C   0  0  0  0  0  0  0  0  0  0  0  0
  -21.9868  -13.4627   20.5175 C   0  0  0  0  0  0  0  0  0  0  0  0
  -21.0546  -10.8596   20.1471 C   0  0  0  0  0  0  0  0  0  0  0  0
  -21.2233  -12.8476   21.5096 C   0  0  0  0  0  0  0  0  0  0  0  0
  -27.9806  -15.5720   20.6178 C   0  0  0  0  0  0  0  0  0  0  0  0
  -30.1509  -15.3460   20.3459 C   0  0  0  0  0  0  0  0  0  0  0  0
  -29.7950  -26.4310   20.5998 C   0  0  0  0  0  0  0  0  0  0  0  0
  -28.8207  -13.3702   19.5876 C   0  0  0  0  0  0  0  0  0  0  0  0
  -23.1010  -23.5887   23.1879 C   0  0  0  0  0  0  0  0  0  0  0  0
  -21.2910  -26.2615   22.8682 C   0  0  0  0  0  0  0  0  0  0  0  0
  -21.7898  -29.6650   21.7798 C   0  0  0  0  0  0  0  0  0  0  0  0
  -31.5689  -21.1381   20.7275 C   0  0  0  0  0  0  0  0  0  0  0  0
  -22.8818  -18.2310   23.5250 C   0  0  0  0  0  0  0  0  0  0  0  0
  -24.0482  -25.0582   25.0044 C   0  0  0  0  0  0  0  0  0  0  0  0
  -23.7655  -26.5174   22.4479 C   0  0  0  0  0  0  0  0  0  0  0  0
  -22.3432  -19.0942   22.3887 C   0  0  0  0  0  0  0  0  0  0  0  0
  -32.0358  -25.9300   22.4205 C   0  0  0  0  0  0  0  0  0  0  0  0
  -32.1778  -18.6307   23.1808 C   0  0  0  0  0  0  0  0  0  0  0  0
  -22.1728  -20.5299   22.8625 C   0  0  0  0  0  0  0  0  0  0  0  0
  -30.8952  -26.8245   22.8589 C   0  0  0  0  0  0  0  0  0  0  0  0
  -31.2647  -17.4784   22.7559 C   0  0  0  0  0  0  0  0  0  0  0  0
  -32.2733  -26.0987   20.9305 C   0  0  0  0  0  0  0  0  0  0  0  0
  -31.5283  -19.9906   22.9312 C   0  0  0  0  0  0  0  0  0  0  0  0
  -30.1242  -19.0503   21.1387 C   0  0  0  0  0  0  0  0  0  0  0  0
  -23.5243  -21.1386   23.2575 C   0  0  1  0  0  0  0  0  0  0  0  0
  -29.6372  -26.4213   22.1150 C   0  0  1  0  0  0  0  0  0  1  0  0
  -22.8831  -24.7965   24.0548 C   0  0  1  0  0  0  0  0  0  0  0  0
  -30.7614  -17.6617   21.3107 C   0  0  2  0  0  0  0  0  0  0  0  0
  -28.7815  -25.7058   15.5397 C   0  0  0  0  0  0  0  0  0  0  0  0
  -31.1473  -25.4946   14.6952 C   0  0  0  0  0  0  0  0  0  0  0  0
  -20.5693  -31.7698   22.3941 C   0  0  0  0  0  0  0  0  0  0  0  0
  -19.6283  -25.6804   20.3766 C   0  0  0  0  0  0  0  0  0  0  0  0
  -19.6018  -28.1393   19.9059 C   0  0  0  0  0  0  0  0  0  0  0  0
  -18.5631  -27.2601   21.9966 C   0  0  0  0  0  0  0  0  0  0  0  0
  -24.2900  -31.0073   22.6201 C   0  0  0  0  0  0  0  0  0  0  0  0
  -31.2672  -25.9876   18.6741 C   0  0  0  0  0  0  0  0  0  0  0  0
  -30.2584  -25.5631   15.9505 C   0  0  0  0  0  0  0  0  0  0  0  0
  -21.0819  -27.2873   21.7805 C   0  0  1  0  0  0  0  0  0  0  0  0
  -21.7945  -30.9068   22.6528 C   0  0  2  0  0  0  0  0  0  0  0  0
  -19.7434  -27.0779   21.0177 C   0  0  0  0  0  0  0  0  0  0  0  0
  -28.4962  -16.7154   21.0770 N   0  0  0  0  0  0  0  0  0  0  0  0
  -29.8176  -16.5476   20.8984 N   0  0  0  0  0  0  0  0  0  0  0  0
  -31.0597  -26.0968   20.1119 N   0  0  0  0  0  0  0  0  0  0  0  0
  -22.6205  -25.9239   23.1581 N   0  0  0  0  0  0  0  0  0  0  0  0
  -31.0801  -20.0940   21.5408 N   0  0  0  0  0  0  0  0  0  0  0  0
  -31.4357  -15.0141   20.0981 N   0  0  0  0  0  0  0  0  0  0  0  0
  -27.5309  -12.8375   19.4573 N   0  0  0  0  0  0  0  0  0  0  0  0
  -31.0979  -21.1155   19.4151 N   0  0  0  0  0  0  0  0  0  0  0  0
  -23.2980  -22.4174   23.8942 N   0  0  0  0  0  0  0  0  0  0  0  0
  -21.2070  -28.5923   22.4207 N   0  0  0  0  0  0  0  0  0  0  0  0
  -23.0108  -31.7248   22.3835 N   0  3  0  0  0  0  0  0  0  0  0  0
  -28.8184  -26.6607   19.8817 O   0  0  0  0  0  0  0  0  0  0  0  0
  -29.8074  -12.6845   19.2271 O   0  0  0  0  0  0  0  0  0  0  0  0
  -23.0897  -23.7102   21.9686 O   0  0  0  0  0  0  0  0  0  0  0  0
  -20.3109  -25.7828   23.4444 O   0  0  0  0  0  0  0  0  0  0  0  0
  -22.2532  -29.6492   20.6415 O   0  0  0  0  0  0  0  0  0  0  0  0
  -32.3692  -21.9738   21.1555 O   0  0  0  0  0  0  0  0  0  0  0  0
  -22.4495  -14.7552   20.6995 O   0  0  0  0  0  0  0  0  0  0  0  0
  -28.5936  -27.3087   22.4812 O   0  0  0  0  0  0  0  0  0  1  0  0
  -20.6058   -9.6102   19.9685 F   0  0  0  0  0  0  0  0  0  0  0  0
  -20.9334  -13.5024   22.6423 F   0  0  0  0  0  0  0  0  0  0  0  0
  1  2  1  0  0  0  0
  1  5  2  0  0  0  0
  2  6  2  0  0  0  0
  3 10  2  0  0  0  0
  3 18  1  0  0  0  0
  4 11  1  0  0  0  0
  4 18  2  0  0  0  0
  5 20  1  0  0  0  0
  6 22  1  0  0  0  0
  7 12  2  0  0  0  0
  7 21  1  0  0  0  0
  8  9  2  0  0  0  0
  8 24  1  0  0  0  0
  9 26  1  0  0  0  0
 10 27  1  0  0  0  0
 11 27  2  0  0  0  0
 12 28  1  0  0  0  0
 13 14  2  0  0  0  0
 13 29  1  0  0  0  0
 14 30  1  0  0  0  0
 15 23  1  0  0  0  0
 15 28  2  0  0  0  0
 16 25  1  0  0  0  0
 16 26  2  0  0  0  0
 17 30  2  0  0  0  0
 17 31  1  0  0  0  0
 18 32  1  0  0  0  0
 19 32  1  0  0  0  0
 19 33  2  0  0  0  0
 19 35  1  0  0  0  0
 20 22  2  0  0  0  0
 20 40  1  0  0  0  0
 21 23  2  0  0  0  0
 21 41  1  0  0  0  0
 22 52  1  0  0  0  0
 23 42  1  0  0  0  0
 24 25  2  0  0  0  0
 24 64  1  0  0  0  0
 25 63  1  0  0  0  0
 26 75  1  0  0  0  0
 27 85  1  0  0  0  0
 28 86  1  0  0  0  0
 29 31  2  0  0  0  0
 29 85  1  0  0  0  0
 30 87  1  0  0  0  0
 31 88  1  0  0  0  0
 32 68  2  0  0  0  0
 33 69  1  0  0  0  0
 33 73  1  0  0  0  0
 34 53  1  0  0  0  0
 34 70  1  0  0  0  0
 34 79  2  0  0  0  0
 35 74  1  0  0  0  0
 35 80  2  0  0  0  0
 36 54  1  0  0  0  0
 36 76  1  0  0  0  0
 36 81  2  0  0  0  0
 37 65  1  0  0  0  0
 37 71  1  0  0  0  0
 37 82  2  0  0  0  0
 38 66  1  0  0  0  0
 38 77  1  0  0  0  0
 38 83  2  0  0  0  0
 39 72  1  0  0  0  0
 39 75  1  0  0  0  0
 39 84  2  0  0  0  0
 40 43  1  0  0  0  0
 41 54  1  0  0  0  0
 42 71  1  0  0  0  0
 43 46  1  0  0  0  0
 44 47  1  0  0  0  0
 44 49  1  0  0  0  0
 45 48  1  0  0  0  0
 45 50  1  0  0  0  0
 46 52  1  0  0  0  0
 47 53  1  0  0  0  0
 48 55  1  0  0  0  0
 49 70  1  0  0  0  0
 50 72  1  0  0  0  0
 51 55  1  0  0  0  0
 51 72  1  0  0  0  0
 52 76  1  0  0  0  0
 53 86  1  0  0  0  0
 54 71  1  0  0  0  0
 55 69  1  0  0  0  0
 56 64  1  0  0  0  0
 57 64  1  0  0  0  0
 58 66  1  0  0  0  0
 59 67  1  0  0  0  0
 60 67  1  0  0  0  0
 61 67  1  0  0  0  0
 62 78  1  0  0  0  0
 63 70  1  0  0  0  0
 65 67  1  0  0  0  0
 65 77  1  0  0  0  0
 66 78  1  0  0  0  0
 68 69  1  0  0  0  0
M  CHG  1  78   1
M  ISO  4  39 100  53 101  75 100  86 101
M  END
> <Batch ID>
0045

> <Smiles>
CNC(C)C(=O)NC(C(=O)N1Cc2cc([101O:1][101CH:1]3CCCN(Cc4cc([100NH:0][100C:0](=O)N5CCCC(n6nc(-c7ccc(Oc8ccc(F)cc8F)cc7)c(C(N)=O)c6N)C5)ccc4C(C)C)C3=O)ccc2CC1C(=O)NC1CCCc2ccccc21)C(C)(C)C

> <Shape>
0.229

> <Color>
0.058

> <Negative vol penalty>
0.000

$$$$

  -OEChem-04042322213D

 86 94  0     1  0  0  0  0  0999 V2000
  -25.3390  -26.2121   11.0274 C   0  0  0  0  0  0  0  0  0  0  0  0
  -25.6772  -25.4334   12.1294 C   0  0  0  0  0  0  0  0  0  0  0  0
  -23.1257   -9.9495   19.9035 C   0  0  0  0  0  0  0  0  0  0  0  0
  -23.9471   -9.8412   22.1730 C   0  0  0  0  0  0  0  0  0  0  0  0
  -32.1604  -18.6545   21.8672 C   0  0  0  0  0  0  0  0  0  0  0  0
  -25.2957  -27.6008   11.1434 C   0  0  0  0  0  0  0  0  0  0  0  0
  -25.9734  -26.0431   13.3480 C   0  0  0  0  0  0  0  0  0  0  0  0
  -24.7203  -23.8900   18.9427 C   0  0  0  0  0  0  0  0  0  0  0  0
  -32.3233  -17.2798   22.0383 C   0  0  0  0  0  0  0  0  0  0  0  0
  -22.4190   -8.7636   20.1026 C   0  0  0  0  0  0  0  0  0  0  0  0
  -23.2403   -8.6552   22.3722 C   0  0  0  0  0  0  0  0  0  0  0  0
  -25.4949  -23.2094   19.8810 C   0  0  0  0  0  0  0  0  0  0  0  0
  -20.0514   -7.7348   23.0078 C   0  0  0  0  0  0  0  0  0  0  0  0
  -19.3277   -7.6047   24.1931 C   0  0  0  0  0  0  0  0  0  0  0  0
  -25.9748  -25.2971   20.9902 C   0  0  0  0  0  0  0  0  0  0  0  0
  -30.2862  -17.1998   23.3348 C   0  0  0  0  0  0  0  0  0  0  0  0
  -20.6383   -5.6617   24.7799 C   0  0  0  0  0  0  0  0  0  0  0  0
  -23.8898  -10.4883   20.9387 C   0  0  0  0  0  0  0  0  0  0  0  0
  -31.0604  -19.3019   22.4299 C   0  0  0  0  0  0  0  0  0  0  0  0
  -24.1629  -13.0245   20.9619 C   0  0  0  0  0  0  0  0  0  0  0  0
  -25.5822  -28.2274   12.3665 C   0  0  0  0  0  0  0  0  0  0  0  0
  -24.5757  -25.2830   19.0148 C   0  0  0  0  0  0  0  0  0  0  0  0
  -25.9353  -27.4416   13.4802 C   0  0  0  0  0  0  0  0  0  0  0  0
  -25.1957  -25.9928   20.0531 C   0  0  0  0  0  0  0  0  0  0  0  0
  -31.3862  -16.5525   22.7721 C   0  0  0  0  0  0  0  0  0  0  0  0
  -30.1233  -18.5745   23.1637 C   0  0  0  0  0  0  0  0  0  0  0  0
  -22.4762   -8.1164   21.3369 C   0  0  0  0  0  0  0  0  0  0  0  0
  -26.1246  -23.9133   20.9033 C   0  0  0  0  0  0  0  0  0  0  0  0
  -21.0685   -6.8283   22.7085 C   0  0  0  0  0  0  0  0  0  0  0  0
  -19.6212   -6.5681   25.0792 C   0  0  0  0  0  0  0  0  0  0  0  0
  -21.3619   -5.7918   23.5946 C   0  0  0  0  0  0  0  0  0  0  0  0
  -24.6206  -11.7130   20.7334 C   0  0  0  0  0  0  0  0  0  0  0  0
  -25.2250  -13.8239   20.6166 C   0  0  0  0  0  0  0  0  0  0  0  0
  -30.9147  -20.7382   22.2358 C   0  0  0  0  0  0  0  0  0  0  0  0
  -22.8913  -13.4795   21.4433 C   0  0  0  0  0  0  0  0  0  0  0  0
  -25.3274  -27.7176   17.1144 C   0  0  0  0  0  0  0  0  0  0  0  0
  -23.7099  -29.4430   19.3344 C   0  0  0  0  0  0  0  0  0  0  0  0
  -27.8677  -21.2763   22.7727 C   0  0  0  0  0  0  0  0  0  0  0  0
  -22.5888  -29.7051   22.5471 C   0  0  0  0  0  0  0  0  0  0  0  0
  -31.0094  -13.9122   20.8360 C   0  0  0  0  0  0  0  0  0  0  0  0
  -25.5685  -29.7341   12.4311 C   0  0  0  0  0  0  0  0  0  0  0  0
  -23.7150  -25.9991   18.0105 C   0  0  0  0  0  0  0  0  0  0  0  0
  -25.0555  -27.4864   20.1867 C   0  0  0  0  0  0  0  0  0  0  0  0
  -25.5308  -30.2824   13.8552 C   0  0  0  0  0  0  0  0  0  0  0  0
  -29.2544  -13.2446   17.8110 C   0  0  0  0  0  0  0  0  0  0  0  0
  -26.5513  -29.5630   14.7314 C   0  0  0  0  0  0  0  0  0  0  0  0
  -27.8380  -12.9035   18.2774 C   0  0  0  0  0  0  0  0  0  0  0  0
  -30.3100  -12.7187   18.7810 C   0  0  0  0  0  0  0  0  0  0  0  0
  -28.7060  -12.7911   20.6507 C   0  0  0  0  0  0  0  0  0  0  0  0
  -26.2390  -28.0647   14.8254 C   0  0  1  0  0  0  0  0  0  0  0  0
  -24.0561  -27.4803   17.8794 C   0  0  1  0  0  0  0  0  0  0  0  0
  -27.6046  -13.3494   19.7334 C   0  0  2  0  0  0  0  0  0  0  0  0
  -21.3288  -31.2471   24.0742 C   0  0  0  0  0  0  0  0  0  0  0  0
  -26.1720  -31.2316   19.5561 C   0  0  0  0  0  0  0  0  0  0  0  0
  -25.2448  -32.1235   21.7038 C   0  0  0  0  0  0  0  0  0  0  0  0
  -23.9900  -32.4535   19.5733 C   0  0  0  0  0  0  0  0  0  0  0  0
  -27.5088  -19.0091   21.7812 C   0  0  0  0  0  0  0  0  0  0  0  0
  -20.4647  -27.6974   23.0117 C   0  0  0  0  0  0  0  0  0  0  0  0
  -31.5599  -15.0823   22.9542 C   0  0  0  0  0  0  0  0  0  0  0  0
  -28.9298  -19.2457   23.7795 C   0  0  0  0  0  0  0  0  0  0  0  0
  -26.9880  -21.8359   21.6747 C   0  0  0  0  0  0  0  0  0  1  0  0
  -24.0796  -30.1516   20.6151 C   0  0  1  0  0  0  0  0  0  0  0  0
  -21.2290  -30.0732   23.1126 C   0  0  2  0  0  0  0  0  0  0  0  0
  -24.8760  -31.4621   20.3587 C   0  0  0  0  0  0  0  0  0  0  0  0
  -25.8757  -11.6769   20.2780 N   0  0  0  0  0  0  0  0  0  0  0  0
  -31.3527  -21.3648   21.1859 N   0  0  0  0  0  0  0  0  0  0  0  0
  -26.2157  -12.9757   20.2174 N   0  0  0  0  0  0  0  0  0  0  0  0
  -24.2086  -28.1422   19.1766 N   0  0  0  0  0  0  0  0  0  0  0  0
  -30.0317  -13.1788   20.1437 N   0  0  0  0  0  0  0  0  0  0  0  0
  -25.3989  -15.1627   20.6183 N   0  0  0  0  0  0  0  0  0  0  0  0
  -21.9127  -12.5245   21.7510 N   0  0  0  0  0  0  0  0  0  0  0  0
  -25.1492  -27.8325   15.7489 N   0  0  0  0  0  0  0  0  0  0  0  0
  -22.8339  -30.3435   21.3498 N   0  0  0  0  0  0  0  0  0  0  0  0
  -30.6622  -14.3152   22.1197 N   0  0  0  0  0  0  0  0  0  0  0  0
  -28.0925  -19.8994   22.7770 N   0  0  0  0  0  0  0  0  0  0  0  0
  -20.6414  -28.9152   23.8439 N   0  3  0  0  0  0  0  0  0  0  0  0
  -22.6249  -14.6976   21.5805 O   0  0  0  0  0  0  0  0  0  0  0  0
  -26.3910  -27.7924   17.7184 O   0  0  0  0  0  0  0  0  0  0  0  0
  -22.9988  -30.0197   18.5078 O   0  0  0  0  0  0  0  0  0  0  0  0
  -28.3481  -22.0547   23.6024 O   0  0  0  0  0  0  0  0  0  0  0  0
  -23.3584  -28.9318   23.1130 O   0  0  0  0  0  0  0  0  0  0  0  0
  -32.1080  -14.1920   20.3445 O   0  0  0  0  0  0  0  0  0  0  0  0
  -21.7865   -6.9593   21.5317 O   0  0  0  0  0  0  0  0  0  0  0  0
  -26.8818  -23.2515   21.8201 O   0  0  0  0  0  0  0  0  0  1  0  0
  -18.9272   -6.4442   26.2182 F   0  0  0  0  0  0  0  0  0  0  0  0
  -22.3387   -4.9186   23.3130 F   0  0  0  0  0  0  0  0  0  0  0  0
  1  2  1  0  0  0  0
  1  6  2  0  0  0  0
  2  7  2  0  0  0  0
  3 10  2  0  0  0  0
  3 18  1  0  0  0  0
  4 11  1  0  0  0  0
  4 18  2  0  0  0  0
  5  9  2  0  0  0  0
  5 19  1  0  0  0  0
  6 21  1  0  0  0  0
  7 23  1  0  0  0  0
  8 12  2  0  0  0  0
  8 22  1  0  0  0  0
  9 25  1  0  0  0  0
 10 27  1  0  0  0  0
 11 27  2  0  0  0  0
 12 28  1  0  0  0  0
 13 14  2  0  0  0  0
 13 29  1  0  0  0  0
 14 30  1  0  0  0  0
 15 24  1  0  0  0  0
 15 28  2  0  0  0  0
 16 25  2  0  0  0  0
 16 26  1  0  0  0  0
 17 30  2  0  0  0  0
 17 31  1  0  0  0  0
 18 32  1  0  0  0  0
 19 26  2  0  0  0  0
 19 34  1  0  0  0  0
 20 32  1  0  0  0  0
 20 33  2  0  0  0  0
 20 35  1  0  0  0  0
 21 23  2  0  0  0  0
 21 41  1  0  0  0  0
 22 24  2  0  0  0  0
 22 42  1  0  0  0  0
 23 50  1  0  0  0  0
 24 43  1  0  0  0  0
 25 59  1  0  0  0  0
 26 60  1  0  0  0  0
 27 83  1  0  0  0  0
 28 84  1  0  0  0  0
 29 31  2  0  0  0  0
 29 83  1  0  0  0  0
 30 85  1  0  0  0  0
 31 86  1  0  0  0  0
 32 65  2  0  0  0  0
 33 67  1  0  0  0  0
 33 70  1  0  0  0  0
 34 66  2  0  0  0  0
 35 71  1  0  0  0  0
 35 77  2  0  0  0  0
 36 51  1  0  0  0  0
 36 72  1  0  0  0  0
 36 78  2  0  0  0  0
 37 62  1  0  0  0  0
 37 68  1  0  0  0  0
 37 79  2  0  0  0  0
 38 61  1  0  0  0  0
 38 75  1  0  0  0  0
 38 80  2  0  0  0  0
 39 63  1  0  0  0  0
 39 73  1  0  0  0  0
 39 81  2  0  0  0  0
 40 69  1  0  0  0  0
 40 74  1  0  0  0  0
 40 82  2  0  0  0  0
 41 44  1  0  0  0  0
 42 51  1  0  0  0  0
 43 68  1  0  0  0  0
 44 46  1  0  0  0  0
 45 47  1  0  0  0  0
 45 48  1  0  0  0  0
 46 50  1  0  0  0  0
 47 52  1  0  0  0  0
 48 69  1  0  0  0  0
 49 52  1  0  0  0  0
 49 69  1  0  0  0  0
 50 72  1  0  0  0  0
 51 68  1  0  0  0  0
 52 67  1  0  0  0  0
 53 63  1  0  0  0  0
 54 64  1  0  0  0  0
 55 64  1  0  0  0  0
 56 64  1  0  0  0  0
 57 75  1  0  0  0  0
 58 76  1  0  0  0  0
 59 74  1  0  0  0  0
 60 75  1  0  0  0  0
 61 84  1  0  0  0  0
 62 64  1  0  0  0  0
 62 73  1  0  0  0  0
 63 76  1  0  0  0  0
 65 67  1  0  0  0  0
M  CHG  1  76   1
M  ISO  4  40 100  61 101  74 100  84 101
M  END
> <Batch ID>
0045

> <Smiles>
CNC(C)C(=O)NC(C(=O)N1Cc2cc([101O:1][101CH2:1]C(=O)N(C)Cc3cc(C[100NH:0][100C:0](=O)N4CCCC(n5nc(-c6ccc(Oc7ccc(F)cc7F)cc6)c(C(N)=O)c5N)C4)ccc3C=N)ccc2CC1C(=O)NC1CCCc2ccccc21)C(C)(C)C

> <Shape>
0.274

> <Color>
0.201

> <Negative vol penalty>
0.000

$$$$

  -OEChem-04042322213D

 85 93  0     1  0  0  0  0  0999 V2000
  -26.3005  -34.9507   23.9595 C   0  0  0  0  0  0  0  0  0  0  0  0
  -26.7879  -33.6814   23.6651 C   0  0  0  0  0  0  0  0  0  0  0  0
  -24.3544   -9.2352   20.5767 C   0  0  0  0  0  0  0  0  0  0  0  0
  -23.1033  -11.2988   20.6924 C   0  0  0  0  0  0  0  0  0  0  0  0
  -24.9719  -35.1126   24.3502 C   0  0  0  0  0  0  0  0  0  0  0  0
  -25.9473  -32.5731   23.7624 C   0  0  0  0  0  0  0  0  0  0  0  0
  -26.3942  -29.4427   19.8069 C   0  0  0  0  0  0  0  0  0  0  0  0
  -23.2197   -8.5253   20.9694 C   0  0  0  0  0  0  0  0  0  0  0  0
  -21.9686  -10.5889   21.0851 C   0  0  0  0  0  0  0  0  0  0  0  0
  -27.4998  -28.5935   19.7887 C   0  0  0  0  0  0  0  0  0  0  0  0
  -21.5563   -7.8787   23.8398 C   0  0  0  0  0  0  0  0  0  0  0  0
  -21.7133   -6.8971   24.8182 C   0  0  0  0  0  0  0  0  0  0  0  0
  -26.1175  -26.7865   20.5908 C   0  0  0  0  0  0  0  0  0  0  0  0
  -30.3421  -19.0685   20.5552 C   0  0  0  0  0  0  0  0  0  0  0  0
  -20.9061   -5.2260   23.2712 C   0  0  0  0  0  0  0  0  0  0  0  0
  -24.2962  -10.6220   20.4382 C   0  0  0  0  0  0  0  0  0  0  0  0
  -25.8627  -11.6692   18.7187 C   0  0  0  0  0  0  0  0  0  0  0  0
  -24.1120  -34.0070   24.4430 C   0  0  0  0  0  0  0  0  0  0  0  0
  -25.1422  -28.9722   20.2283 C   0  0  0  0  0  0  0  0  0  0  0  0
  -24.6064  -32.7202   24.1560 C   0  0  0  0  0  0  0  0  0  0  0  0
  -24.9970  -27.6311   20.6110 C   0  0  0  0  0  0  0  0  0  0  0  0
  -30.4619  -20.3925   20.1332 C   0  0  0  0  0  0  0  0  0  0  0  0
  -30.0144  -20.7636   18.8653 C   0  0  0  0  0  0  0  0  0  0  0  0
  -29.4472  -19.8105   18.0193 C   0  0  0  0  0  0  0  0  0  0  0  0
  -29.7749  -18.1154   19.7092 C   0  0  0  0  0  0  0  0  0  0  0  0
  -22.0269   -9.2021   21.2236 C   0  0  0  0  0  0  0  0  0  0  0  0
  -27.3622  -27.2660   20.1835 C   0  0  0  0  0  0  0  0  0  0  0  0
  -21.0740   -7.5341   22.5771 C   0  0  0  0  0  0  0  0  0  0  0  0
  -21.3882   -5.5707   24.5339 C   0  0  0  0  0  0  0  0  0  0  0  0
  -20.7490   -6.2077   22.2928 C   0  0  0  0  0  0  0  0  0  0  0  0
  -29.3275  -18.4865   18.4413 C   0  0  0  0  0  0  0  0  0  0  0  0
  -25.4680  -11.3560   20.0332 C   0  0  0  0  0  0  0  0  0  0  0  0
  -27.0334  -12.3714   18.8698 C   0  0  0  0  0  0  0  0  0  0  0  0
  -25.2278  -11.3536   17.4725 C   0  0  0  0  0  0  0  0  0  0  0  0
  -23.1548  -29.6995   22.6000 C   0  0  0  0  0  0  0  0  0  0  0  0
  -21.2025  -27.5954   21.0889 C   0  0  0  0  0  0  0  0  0  0  0  0
  -29.3809  -24.3984   19.2615 C   0  0  0  0  0  0  0  0  0  0  0  0
  -20.8944  -24.9221   18.9900 C   0  0  0  0  0  0  0  0  0  0  0  0
  -30.0738  -16.2826   21.4116 C   0  0  0  0  0  0  0  0  0  0  0  0
  -22.6965  -34.2258   24.9152 C   0  0  0  0  0  0  0  0  0  0  0  0
  -23.9537  -29.8940   20.2167 C   0  0  0  0  0  0  0  0  0  0  0  0
  -23.6702  -27.0716   21.0525 C   0  0  0  0  0  0  0  0  0  0  0  0
  -21.7704  -33.0459   24.6315 C   0  0  0  0  0  0  0  0  0  0  0  0
  -29.9516  -13.0720   22.9459 C   0  0  0  0  0  0  0  0  0  0  0  0
  -22.4377  -31.7347   25.0343 C   0  0  0  0  0  0  0  0  0  0  0  0
  -28.8067  -12.3651   22.2168 C   0  0  0  0  0  0  0  0  0  0  0  0
  -29.6612  -14.5576   23.1520 C   0  0  0  0  0  0  0  0  0  0  0  0
  -28.1512  -14.5866   21.2056 C   0  0  0  0  0  0  0  0  0  0  0  0
  -23.7188  -31.4965   24.2259 C   0  0  1  0  0  0  0  0  0  0  0  0
  -22.8379  -29.4422   21.1539 C   0  0  1  0  0  0  0  0  0  0  0  0
  -28.4261  -13.1017   20.9174 C   0  0  2  0  0  0  0  0  0  0  0  0
  -31.0738  -21.3935   21.0582 C   0  0  0  0  0  0  0  0  0  0  0  0
  -28.9747  -20.2290   16.6611 C   0  0  0  0  0  0  0  0  0  0  0  0
  -19.1746  -23.4027   17.9746 C   0  0  0  0  0  0  0  0  0  0  0  0
  -20.9312  -26.1280   23.7503 C   0  0  0  0  0  0  0  0  0  0  0  0
  -20.0242  -24.1614   22.4939 C   0  0  0  0  0  0  0  0  0  0  0  0
  -18.8036  -26.3366   22.4524 C   0  0  0  0  0  0  0  0  0  0  0  0
  -21.6224  -25.7438   16.2416 C   0  0  0  0  0  0  0  0  0  0  0  0
  -30.1478  -22.1894   18.4143 C   0  0  0  0  0  0  0  0  0  0  0  0
  -28.1890  -25.0507   19.9290 C   0  0  0  0  0  0  0  0  0  1  0  0
  -20.9695  -26.1060   21.1688 C   0  0  1  0  0  0  0  0  0  0  0  0
  -19.9866  -24.6764   17.7984 C   0  0  2  0  0  0  0  0  0  0  0  0
  -20.2077  -25.6937   22.4599 C   0  0  0  0  0  0  0  0  0  0  0  0
  -26.3190  -11.8209   20.9517 N   0  0  0  0  0  0  0  0  0  0  0  0
  -27.2601  -12.4334   20.2132 N   0  0  0  0  0  0  0  0  0  0  0  0
  -22.5393  -28.0140   21.0299 N   0  0  0  0  0  0  0  0  0  0  0  0
  -29.3123  -15.1903   21.8781 N   0  0  0  0  0  0  0  0  0  0  0  0
  -27.8807  -12.9356   17.9832 N   0  0  0  0  0  0  0  0  0  0  0  0
  -24.0306  -10.6255   17.4981 N   0  0  0  0  0  0  0  0  0  0  0  0
  -29.6691  -16.7809   20.1737 N   0  0  0  0  0  0  0  0  0  0  0  0
  -23.3968  -31.0276   22.8951 N   0  0  0  0  0  0  0  0  0  0  0  0
  -29.1666  -23.0475   19.0372 N   0  0  0  0  0  0  0  0  0  0  0  0
  -20.2941  -25.7315   19.9311 N   0  0  0  0  0  0  0  0  0  0  0  0
  -20.7920  -24.5514   16.5507 N   0  3  0  0  0  0  0  0  0  0  0  0
  -25.7166  -11.6927   16.3681 O   0  0  0  0  0  0  0  0  0  0  0  0
  -23.1765  -28.7628   23.3898 O   0  0  0  0  0  0  0  0  0  0  0  0
  -20.2338  -28.3589   21.0720 O   0  0  0  0  0  0  0  0  0  0  0  0
  -30.3997  -25.0181   18.9685 O   0  0  0  0  0  0  0  0  0  0  0  0
  -22.0219  -24.4409   19.0789 O   0  0  0  0  0  0  0  0  0  0  0  0
  -31.0327  -16.7248   22.0496 O   0  0  0  0  0  0  0  0  0  0  0  0
  -20.9194   -8.5097   21.6066 O   0  0  0  0  0  0  0  0  0  0  0  0
  -28.4398  -26.4351   20.1673 O   0  0  0  0  0  0  0  0  0  1  0  0
  -21.5406   -4.6279   25.4731 F   0  0  0  0  0  0  0  0  0  0  0  0
  -20.2864   -5.8704   21.0812 F   0  0  0  0  0  0  0  0  0  0  0  0
  -28.6207  -17.3029   17.3886 Cl  0  0  0  0  0  0  0  0  0  0  0  0
  1  2  1  0  0  0  0
  1  5  2  0  0  0  0
  2  6  2  0  0  0  0
  3  8  2  0  0  0  0
  3 16  1  0  0  0  0
  4  9  1  0  0  0  0
  4 16  2  0  0  0  0
  5 18  1  0  0  0  0
  6 20  1  0  0  0  0
  7 10  2  0  0  0  0
  7 19  1  0  0  0  0
  8 26  1  0  0  0  0
  9 26  2  0  0  0  0
 10 27  1  0  0  0  0
 11 12  2  0  0  0  0
 11 28  1  0  0  0  0
 12 29  1  0  0  0  0
 13 21  1  0  0  0  0
 13 27  2  0  0  0  0
 14 22  2  0  0  0  0
 14 25  1  0  0  0  0
 15 29  2  0  0  0  0
 15 30  1  0  0  0  0
 16 32  1  0  0  0  0
 17 32  1  0  0  0  0
 17 33  2  0  0  0  0
 17 34  1  0  0  0  0
 18 20  2  0  0  0  0
 18 40  1  0  0  0  0
 19 21  2  0  0  0  0
 19 41  1  0  0  0  0
 20 49  1  0  0  0  0
 21 42  1  0  0  0  0
 22 23  1  0  0  0  0
 22 52  1  0  0  0  0
 23 24  2  0  0  0  0
 23 59  1  0  0  0  0
 24 31  1  0  0  0  0
 24 53  1  0  0  0  0
 25 31  2  0  0  0  0
 25 70  1  0  0  0  0
 26 81  1  0  0  0  0
 27 82  1  0  0  0  0
 28 30  2  0  0  0  0
 28 81  1  0  0  0  0
 29 83  1  0  0  0  0
 30 84  1  0  0  0  0
 31 85  1  0  0  0  0
 32 64  2  0  0  0  0
 33 65  1  0  0  0  0
 33 68  1  0  0  0  0
 34 69  1  0  0  0  0
 34 75  2  0  0  0  0
 35 50  1  0  0  0  0
 35 71  1  0  0  0  0
 35 76  2  0  0  0  0
 36 61  1  0  0  0  0
 36 66  1  0  0  0  0
 36 77  2  0  0  0  0
 37 60  1  0  0  0  0
 37 72  1  0  0  0  0
 37 78  2  0  0  0  0
 38 62  1  0  0  0  0
 38 73  1  0  0  0  0
 38 79  2  0  0  0  0
 39 67  1  0  0  0  0
 39 70  1  0  0  0  0
 39 80  2  0  0  0  0
 40 43  1  0  0  0  0
 41 50  1  0  0  0  0
 42 66  1  0  0  0  0
 43 45  1  0  0  0  0
 44 46  1  0  0  0  0
 44 47  1  0  0  0  0
 45 49  1  0  0  0  0
 46 51  1  0  0  0  0
 47 67  1  0  0  0  0
 48 51  1  0  0  0  0
 48 67  1  0  0  0  0
 49 71  1  0  0  0  0
 50 66  1  0  0  0  0
 51 65  1  0  0  0  0
 54 62  1  0  0  0  0
 55 63  1  0  0  0  0
 56 63  1  0  0  0  0
 57 63  1  0  0  0  0
 58 74  1  0  0  0  0
 59 72  1  0  0  0  0
 60 82  1  0  0  0  0
 61 63  1  0  0  0  0
 61 73  1  0  0  0  0
 62 74  1  0  0  0  0
 64 65  1  0  0  0  0
M  CHG  1  74   1
M  ISO  4  39 100  60 101  70 100  82 101
M  END
> <Batch ID>
0045

> <Smiles>
CNC(C)C(=O)NC(C(=O)N1Cc2cc([101O:1][101CH2:1]C(=O)NCc3c(C)cc([100NH:0][100C:0](=O)N4CCCC(n5nc(-c6ccc(Oc7ccc(F)cc7F)cc6)c(C(N)=O)c5N)C4)c(Cl)c3C)ccc2CC1C(=O)NC1CCCc2ccccc21)C(C)(C)C

> <Shape>
0.340

> <Color>
0.097

> <Negative vol penalty>
0.000

$$$$

  -OEChem-04042322213D

 88 97  0     1  0  0  0  0  0999 V2000
  -20.2827  -32.3576   15.6175 C   0  0  0  0  0  0  0  0  0  0  0  0
  -21.0357  -31.2323   15.9369 C   0  0  0  0  0  0  0  0  0  0  0  0
  -22.8257  -11.3011   22.3538 C   0  0  0  0  0  0  0  0  0  0  0  0
  -23.4447   -9.5833   20.7716 C   0  0  0  0  0  0  0  0  0  0  0  0
  -20.5699  -33.5814   16.2206 C   0  0  0  0  0  0  0  0  0  0  0  0
  -22.0772  -31.3304   16.8589 C   0  0  0  0  0  0  0  0  0  0  0  0
  -23.8480  -27.0644   20.8803 C   0  0  0  0  0  0  0  0  0  0  0  0
  -21.9499  -10.4119   22.9766 C   0  0  0  0  0  0  0  0  0  0  0  0
  -22.5689   -8.6941   21.3944 C   0  0  0  0  0  0  0  0  0  0  0  0
  -24.8765  -26.1234   20.8576 C   0  0  0  0  0  0  0  0  0  0  0  0
  -22.5393   -6.7588   24.1647 C   0  0  0  0  0  0  0  0  0  0  0  0
  -22.9999   -5.4661   24.4148 C   0  0  0  0  0  0  0  0  0  0  0  0
  -26.2759  -27.6315   22.1171 C   0  0  0  0  0  0  0  0  0  0  0  0
  -31.6343  -19.4045   21.7757 C   0  0  0  0  0  0  0  0  0  0  0  0
  -31.9315  -17.0689   21.2335 C   0  0  0  0  0  0  0  0  0  0  0  0
  -21.2271   -4.5687   23.0404 C   0  0  0  0  0  0  0  0  0  0  0  0
  -23.5731  -10.8868   21.2513 C   0  0  0  0  0  0  0  0  0  0  0  0
  -24.1532  -13.0339   20.0019 C   0  0  0  0  0  0  0  0  0  0  0  0
  -21.6092  -33.6924   17.1577 C   0  0  0  0  0  0  0  0  0  0  0  0
  -24.0298  -28.3025   21.5132 C   0  0  0  0  0  0  0  0  0  0  0  0
  -22.3795  -32.5571   17.4741 C   0  0  0  0  0  0  0  0  0  0  0  0
  -25.2473  -28.5855   22.1486 C   0  0  0  0  0  0  0  0  0  0  0  0
  -30.2971  -19.3246   21.3869 C   0  0  0  0  0  0  0  0  0  0  0  0
  -29.7771  -18.1168   20.9214 C   0  0  0  0  0  0  0  0  0  0  0  0
  -30.5943  -16.9890   20.8447 C   0  0  0  0  0  0  0  0  0  0  0  0
  -21.8215   -9.1084   22.4969 C   0  0  0  0  0  0  0  0  0  0  0  0
  -26.0917  -26.4080   21.4736 C   0  0  0  0  0  0  0  0  0  0  0  0
  -21.4226   -6.9564   23.3525 C   0  0  0  0  0  0  0  0  0  0  0  0
  -22.3437   -4.3711   23.8526 C   0  0  0  0  0  0  0  0  0  0  0  0
  -20.7665   -5.8613   22.7904 C   0  0  0  0  0  0  0  0  0  0  0  0
  -32.4515  -18.2766   21.6989 C   0  0  0  0  0  0  0  0  0  0  0  0
  -24.4776  -11.8050   20.6072 C   0  0  0  0  0  0  0  0  0  0  0  0
  -25.3536  -13.5175   19.5417 C   0  0  0  0  0  0  0  0  0  0  0  0
  -27.9815  -22.0135   20.1935 C   0  0  0  0  0  0  0  0  0  0  0  0
  -26.8749  -21.5059   19.6246 C   0  0  0  0  0  0  0  0  0  0  0  0
  -22.8806  -13.6806   19.8677 C   0  0  0  0  0  0  0  0  0  0  0  0
  -24.0040  -31.3345   20.5594 C   0  0  0  0  0  0  0  0  0  0  0  0
  -24.2835  -31.9291   23.7360 C   0  0  0  0  0  0  0  0  0  0  0  0
  -25.2545  -30.8250   26.8158 C   0  0  0  0  0  0  0  0  0  0  0  0
  -30.7800  -14.5497   20.2432 C   0  0  0  0  0  0  0  0  0  0  0  0
  -21.9128  -35.0467   17.7480 C   0  0  0  0  0  0  0  0  0  0  0  0
  -22.9013  -29.2961   21.5519 C   0  0  0  0  0  0  0  0  0  0  0  0
  -25.4861  -29.8919   22.8591 C   0  0  0  0  0  0  0  0  0  0  0  0
  -22.7915  -34.9846   18.9947 C   0  0  0  0  0  0  0  0  0  0  0  0
  -29.8779  -11.2798   19.1609 C   0  0  0  0  0  0  0  0  0  0  0  0
  -30.5515  -23.2795   20.2676 C   0  0  0  0  0  0  0  0  0  0  0  0
  -23.9750  -34.0494   18.7676 C   0  0  0  0  0  0  0  0  0  0  0  0
  -29.2875  -24.1355   20.2612 C   0  0  0  0  0  0  0  0  0  0  0  0
  -28.3659  -11.2261   19.3909 C   0  0  0  0  0  0  0  0  0  0  0  0
  -30.5903  -12.0720   20.2558 C   0  0  0  0  0  0  0  0  0  0  0  0
  -28.5469  -13.3667   20.7221 C   0  0  0  0  0  0  0  0  0  0  0  0
  -30.3297  -21.9489   19.5594 C   0  0  0  0  0  0  0  0  0  0  0  0
  -23.5013  -32.6180   18.4880 C   0  0  1  0  0  0  0  0  0  0  0  0
  -28.0906  -23.3782   20.8559 C   0  0  1  0  0  0  0  0  0  0  0  0
  -23.3739  -30.7284   21.7814 C   0  0  1  0  0  0  0  0  0  0  0  0
  -27.7787  -12.6342   19.6098 C   0  0  2  0  0  0  0  0  0  0  0  0
  -28.3418  -18.0358   20.5055 C   0  0  0  0  0  0  0  0  0  0  0  0
  -25.3938  -31.5494   29.2144 C   0  0  0  0  0  0  0  0  0  0  0  0
  -26.7152  -33.6487   23.0729 C   0  0  0  0  0  0  0  0  0  0  0  0
  -27.3538  -33.5552   25.4919 C   0  0  0  0  0  0  0  0  0  0  0  0
  -25.1990  -34.6125   24.8127 C   0  0  0  0  0  0  0  0  0  0  0  0
  -23.4428  -28.6569   27.6967 C   0  0  0  0  0  0  0  0  0  0  0  0
  -29.4398  -20.5523   21.4793 C   0  0  0  0  0  0  0  0  0  0  0  0
  -26.8390  -24.2591   20.7812 C   0  0  0  0  0  0  0  0  0  1  0  0
  -25.4374  -32.0983   24.6945 C   0  0  1  0  0  0  0  0  0  0  0  0
  -24.5517  -30.8463   28.1611 C   0  0  2  0  0  0  0  0  0  0  0  0
  -26.1728  -33.4548   24.5030 C   0  0  0  0  0  0  0  0  0  0  0  0
  -25.7818  -11.5251   20.5392 N   0  0  0  0  0  0  0  0  0  0  0  0
  -26.2876  -12.5850   19.8857 N   0  0  0  0  0  0  0  0  0  0  0  0
  -24.3543  -30.8334   22.8640 N   0  0  0  0  0  0  0  0  0  0  0  0
  -29.9830  -13.3965   20.4037 N   0  0  0  0  0  0  0  0  0  0  0  0
  -25.6907  -14.6451   18.8805 N   0  0  0  0  0  0  0  0  0  0  0  0
  -22.1080  -13.4056   18.7311 N   0  0  0  0  0  0  0  0  0  0  0  0
  -30.0867  -15.7525   20.3745 N   0  0  0  0  0  0  0  0  0  0  0  0
  -23.1076  -31.9664   19.7188 N   0  0  0  0  0  0  0  0  0  0  0  0
  -24.8897  -31.8992   26.0320 N   0  0  0  0  0  0  0  0  0  0  0  0
  -29.1666  -21.1824   20.1413 N   0  3  1  0  0  0  0  0  0  0  0  0
  -24.2814  -29.4565   28.6264 N   0  3  0  0  0  0  0  0  0  0  0  0
  -22.4489  -14.4913   20.7220 O   0  0  0  0  0  0  0  0  0  0  0  0
  -25.2141  -31.2374   20.3923 O   0  0  0  0  0  0  0  0  0  0  0  0
  -23.3501  -32.7351   23.7649 O   0  0  0  0  0  0  0  0  0  0  0  0
  -26.0505  -29.9457   26.4939 O   0  0  0  0  0  0  0  0  0  0  0  0
  -31.9829  -14.4757   19.9798 O   0  0  0  0  0  0  0  0  0  0  0  0
  -20.9671   -8.2404   23.1045 O   0  0  0  0  0  0  0  0  0  0  0  0
  -27.0974  -25.4916   21.4524 O   0  0  0  0  0  0  0  0  0  1  0  0
  -22.7870   -3.1299   24.0916 F   0  0  0  0  0  0  0  0  0  0  0  0
  -19.6939   -6.0450   22.0083 F   0  0  0  0  0  0  0  0  0  0  0  0
  -34.1016  -18.3758   22.1776 Cl  0  0  0  0  0  0  0  0  0  0  0  0
  1  2  1  0  0  0  0
  1  5  2  0  0  0  0
  2  6  2  0  0  0  0
  3  8  2  0  0  0  0
  3 17  1  0  0  0  0
  4  9  1  0  0  0  0
  4 17  2  0  0  0  0
  5 19  1  0  0  0  0
  6 21  1  0  0  0  0
  7 10  2  0  0  0  0
  7 20  1  0  0  0  0
  8 26  1  0  0  0  0
  9 26  2  0  0  0  0
 10 27  1  0  0  0  0
 11 12  2  0  0  0  0
 11 28  1  0  0  0  0
 12 29  1  0  0  0  0
 13 22  1  0  0  0  0
 13 27  2  0  0  0  0
 14 23  1  0  0  0  0
 14 31  2  0  0  0  0
 15 25  2  0  0  0  0
 15 31  1  0  0  0  0
 16 29  2  0  0  0  0
 16 30  1  0  0  0  0
 17 32  1  0  0  0  0
 18 32  1  0  0  0  0
 18 33  2  0  0  0  0
 18 36  1  0  0  0  0
 19 21  2  0  0  0  0
 19 41  1  0  0  0  0
 20 22  2  0  0  0  0
 20 42  1  0  0  0  0
 21 53  1  0  0  0  0
 22 43  1  0  0  0  0
 23 24  2  0  0  0  0
 23 63  1  0  0  0  0
 24 25  1  0  0  0  0
 24 57  1  0  0  0  0
 25 74  1  0  0  0  0
 26 84  1  0  0  0  0
 27 85  1  0  0  0  0
 28 30  2  0  0  0  0
 28 84  1  0  0  0  0
 29 86  1  0  0  0  0
 30 87  1  0  0  0  0
 31 88  1  0  0  0  0
 32 68  2  0  0  0  0
 33 69  1  0  0  0  0
 33 72  1  0  0  0  0
 34 35  2  0  0  0  0
 34 54  1  0  0  0  0
 34 77  1  0  0  0  0
 36 73  1  0  0  0  0
 36 79  2  0  0  0  0
 37 55  1  0  0  0  0
 37 75  1  0  0  0  0
 37 80  2  0  0  0  0
 38 65  1  0  0  0  0
 38 70  1  0  0  0  0
 38 81  2  0  0  0  0
 39 66  1  0  0  0  0
 39 76  1  0  0  0  0
 39 82  2  0  0  0  0
 40 71  1  0  0  0  0
 40 74  1  0  0  0  0
 40 83  2  0  0  0  0
 41 44  1  0  0  0  0
 42 55  1  0  0  0  0
 43 70  1  0  0  0  0
 44 47  1  0  0  0  0
 45 49  1  0  0  0  0
 45 50  1  0  0  0  0
 46 48  1  0  0  0  0
 46 52  1  0  0  0  0
 47 53  1  0  0  0  0
 48 54  1  0  0  0  0
 49 56  1  0  0  0  0
 50 71  1  0  0  0  0
 51 56  1  0  0  0  0
 51 71  1  0  0  0  0
 52 77  1  0  0  0  0
 53 75  1  0  0  0  0
 54 64  1  0  0  0  0
 55 70  1  0  0  0  0
 56 69  1  0  0  0  0
 58 66  1  0  0  0  0
 59 67  1  0  0  0  0
 60 67  1  0  0  0  0
 61 67  1  0  0  0  0
 62 78  1  0  0  0  0
 63 77  1  0  0  0  0
 64 85  1  0  0  0  0
 65 67  1  0  0  0  0
 65 76  1  0  0  0  0
 66 78  1  0  0  0  0
 68 69  1  0  0  0  0
M  CHG  2  77   1  78   1
M  ISO  4  40 100  64 101  74 100  85 101
M  END
> <Batch ID>
0045

> <Smiles>
C=C1C([101CH2:1][101O:1]c2ccc3c(c2)CN(C(=O)C(NC(=O)C(C)NC)C(C)(C)C)C(C(=O)NC2CCCc4ccccc42)C3)CCCN1Cc1cc(Cl)cc([100NH:0][100C:0](=O)N2CCCC(n3nc(-c4ccc(Oc5ccc(F)cc5F)cc4)c(C(N)=O)c3N)C2)c1C

> <Shape>
0.313

> <Color>
0.126

> <Negative vol penalty>
0.000

$$$$

  -OEChem-04042322213D

 86 95  0     1  0  0  0  0  0999 V2000
  -23.2394  -17.8481   25.8818 C   0  0  0  0  0  0  0  0  0  0  0  0
  -23.9292  -19.0394   26.0761 C   0  0  0  0  0  0  0  0  0  0  0  0
  -26.0181  -14.2946   21.3597 C   0  0  0  0  0  0  0  0  0  0  0  0
  -25.7122  -16.2245   19.9388 C   0  0  0  0  0  0  0  0  0  0  0  0
  -22.3985  -17.7057   24.7801 C   0  0  0  0  0  0  0  0  0  0  0  0
  -23.7692  -20.0930   25.1754 C   0  0  0  0  0  0  0  0  0  0  0  0
  -26.5188  -25.5238   24.9030 C   0  0  0  0  0  0  0  0  0  0  0  0
  -30.2070  -23.1192   16.4199 C   0  0  0  0  0  0  0  0  0  0  0  0
  -30.4112  -22.0268   17.2629 C   0  0  0  0  0  0  0  0  0  0  0  0
  -24.6384  -14.0911   21.3804 C   0  0  0  0  0  0  0  0  0  0  0  0
  -24.3324  -16.0210   19.9594 C   0  0  0  0  0  0  0  0  0  0  0  0
  -27.6392  -26.0802   24.2876 C   0  0  0  0  0  0  0  0  0  0  0  0
  -22.2834  -12.7770   19.3407 C   0  0  0  0  0  0  0  0  0  0  0  0
  -21.8173  -11.4755   19.1556 C   0  0  0  0  0  0  0  0  0  0  0  0
  -26.2427  -26.8994   22.4993 C   0  0  0  0  0  0  0  0  0  0  0  0
  -31.1685  -23.5156   19.0085 C   0  0  0  0  0  0  0  0  0  0  0  0
  -20.7567  -11.5468   21.3252 C   0  0  0  0  0  0  0  0  0  0  0  0
  -26.5551  -15.3614   20.6389 C   0  0  0  0  0  0  0  0  0  0  0  0
  -28.9646  -14.6817   20.1494 C   0  0  0  0  0  0  0  0  0  0  0  0
  -22.2382  -18.7542   23.8592 C   0  0  0  0  0  0  0  0  0  0  0  0
  -25.2514  -25.6418   24.3146 C   0  0  0  0  0  0  0  0  0  0  0  0
  -22.9065  -19.9773   24.0704 C   0  0  0  0  0  0  0  0  0  0  0  0
  -25.1074  -26.3457   23.1106 C   0  0  0  0  0  0  0  0  0  0  0  0
  -30.4836  -24.4098   16.8711 C   0  0  0  0  0  0  0  0  0  0  0  0
  -30.9643  -24.6080   18.1654 C   0  0  0  0  0  0  0  0  0  0  0  0
  -30.8919  -22.2250   18.5572 C   0  0  0  0  0  0  0  0  0  0  0  0
  -23.7955  -14.9543   20.6802 C   0  0  0  0  0  0  0  0  0  0  0  0
  -27.5018  -26.7657   23.0841 C   0  0  0  0  0  0  0  0  0  0  0  0
  -21.9863  -13.4635   20.5181 C   0  0  0  0  0  0  0  0  0  0  0  0
  -21.0539  -10.8603   20.1478 C   0  0  0  0  0  0  0  0  0  0  0  0
  -21.2229  -12.8483   21.5103 C   0  0  0  0  0  0  0  0  0  0  0  0
  -27.9802  -15.5725   20.6176 C   0  0  0  0  0  0  0  0  0  0  0  0
  -30.1504  -15.3464   20.3455 C   0  0  0  0  0  0  0  0  0  0  0  0
  -29.7951  -26.4314   20.5994 C   0  0  0  0  0  0  0  0  0  0  0  0
  -28.8201  -13.3706   19.5873 C   0  0  0  0  0  0  0  0  0  0  0  0
  -23.1013  -23.5894   23.1884 C   0  0  0  0  0  0  0  0  0  0  0  0
  -21.2913  -26.2622   22.8689 C   0  0  0  0  0  0  0  0  0  0  0  0
  -21.7901  -29.6657   21.7804 C   0  0  0  0  0  0  0  0  0  0  0  0
  -31.5688  -21.1385   20.7269 C   0  0  0  0  0  0  0  0  0  0  0  0
  -21.3094  -18.5489   22.6885 C   0  0  0  0  0  0  0  0  0  0  0  0
  -24.0487  -25.0589   25.0047 C   0  0  0  0  0  0  0  0  0  0  0  0
  -23.7657  -26.5180   22.4482 C   0  0  0  0  0  0  0  0  0  0  0  0
  -21.5463  -19.5468   21.5596 C   0  0  0  0  0  0  0  0  0  0  0  0
  -32.0361  -25.9303   22.4198 C   0  0  0  0  0  0  0  0  0  0  0  0
  -32.1778  -18.6310   23.1802 C   0  0  0  0  0  0  0  0  0  0  0  0
  -21.5944  -20.9613   22.1178 C   0  0  0  0  0  0  0  0  0  0  0  0
  -30.8955  -26.8248   22.8584 C   0  0  0  0  0  0  0  0  0  0  0  0
  -31.2646  -17.4787   22.7554 C   0  0  0  0  0  0  0  0  0  0  0  0
  -32.2734  -26.0990   20.9298 C   0  0  0  0  0  0  0  0  0  0  0  0
  -31.5283  -19.9910   22.9307 C   0  0  0  0  0  0  0  0  0  0  0  0
  -30.1240  -19.0507   21.1383 C   0  0  0  0  0  0  0  0  0  0  0  0
  -22.7716  -21.1260   23.0873 C   0  0  1  0  0  0  0  0  0  0  0  0
  -29.6375  -26.4217   22.1146 C   0  0  1  0  0  0  0  0  0  1  0  0
  -22.8835  -24.7971   24.0553 C   0  0  1  0  0  0  0  0  0  0  0  0
  -30.7612  -17.6621   21.3102 C   0  0  2  0  0  0  0  0  0  0  0  0
  -30.2579  -25.5635   15.9501 C   0  0  0  0  0  0  0  0  0  0  0  0
  -20.5697  -31.7706   22.3948 C   0  0  0  0  0  0  0  0  0  0  0  0
  -19.6283  -25.6813   20.3775 C   0  0  0  0  0  0  0  0  0  0  0  0
  -19.6018  -28.1401   19.9068 C   0  0  0  0  0  0  0  0  0  0  0  0
  -18.5633  -27.2610   21.9976 C   0  0  0  0  0  0  0  0  0  0  0  0
  -24.2904  -31.0080   22.6204 C   0  0  0  0  0  0  0  0  0  0  0  0
  -31.2670  -25.9880   18.6735 C   0  0  0  0  0  0  0  0  0  0  0  0
  -21.0821  -27.2881   21.7812 C   0  0  1  0  0  0  0  0  0  0  0  0
  -21.7949  -30.9076   22.6534 C   0  0  2  0  0  0  0  0  0  0  0  0
  -19.7435  -27.0787   21.0185 C   0  0  0  0  0  0  0  0  0  0  0  0
  -28.4959  -16.7158   21.0768 N   0  0  0  0  0  0  0  0  0  0  0  0
  -29.8172  -16.5480   20.8981 N   0  0  0  0  0  0  0  0  0  0  0  0
  -31.0597  -26.0971   20.1114 N   0  0  0  0  0  0  0  0  0  0  0  0
  -22.6209  -25.9246   23.1586 N   0  0  0  0  0  0  0  0  0  0  0  0
  -31.0800  -20.0943   21.5403 N   0  0  0  0  0  0  0  0  0  0  0  0
  -31.4352  -15.0144   20.0975 N   0  0  0  0  0  0  0  0  0  0  0  0
  -27.5302  -12.8380   19.4572 N   0  0  0  0  0  0  0  0  0  0  0  0
  -31.0976  -21.1159   19.4146 N   0  0  0  0  0  0  0  0  0  0  0  0
  -22.6611  -22.4064   23.7508 N   0  0  0  0  0  0  0  0  0  0  0  0
  -21.2073  -28.5930   22.4214 N   0  0  0  0  0  0  0  0  0  0  0  0
  -23.0112  -31.7254   22.3840 N   0  3  0  0  0  0  0  0  0  0  0  0
  -28.8184  -26.6611   19.8814 O   0  0  0  0  0  0  0  0  0  0  0  0
  -29.8067  -12.6850   19.2268 O   0  0  0  0  0  0  0  0  0  0  0  0
  -23.6281  -23.7212   22.0899 O   0  0  0  0  0  0  0  0  0  0  0  0
  -20.3113  -25.7835   23.4452 O   0  0  0  0  0  0  0  0  0  0  0  0
  -22.2533  -29.6499   20.6421 O   0  0  0  0  0  0  0  0  0  0  0  0
  -32.3691  -21.9741   21.1549 O   0  0  0  0  0  0  0  0  0  0  0  0
  -22.4491  -14.7559   20.7000 O   0  0  0  0  0  0  0  0  0  0  0  0
  -28.5939  -27.3092   22.4810 O   0  0  0  0  0  0  0  0  0  1  0  0
  -20.6051   -9.6110   19.9693 F   0  0  0  0  0  0  0  0  0  0  0  0
  -20.9331  -13.5032   22.6430 F   0  0  0  0  0  0  0  0  0  0  0  0
  1  2  1  0  0  0  0
  1  5  2  0  0  0  0
  2  6  2  0  0  0  0
  3 10  2  0  0  0  0
  3 18  1  0  0  0  0
  4 11  1  0  0  0  0
  4 18  2  0  0  0  0
  5 20  1  0  0  0  0
  6 22  1  0  0  0  0
  7 12  2  0  0  0  0
  7 21  1  0  0  0  0
  8  9  2  0  0  0  0
  8 24  1  0  0  0  0
  9 26  1  0  0  0  0
 10 27  1  0  0  0  0
 11 27  2  0  0  0  0
 12 28  1  0  0  0  0
 13 14  2  0  0  0  0
 13 29  1  0  0  0  0
 14 30  1  0  0  0  0
 15 23  1  0  0  0  0
 15 28  2  0  0  0  0
 16 25  1  0  0  0  0
 16 26  2  0  0  0  0
 17 30  2  0  0  0  0
 17 31  1  0  0  0  0
 18 32  1  0  0  0  0
 19 32  1  0  0  0  0
 19 33  2  0  0  0  0
 19 35  1  0  0  0  0
 20 22  2  0  0  0  0
 20 40  1  0  0  0  0
 21 23  2  0  0  0  0
 21 41  1  0  0  0  0
 22 52  1  0  0  0  0
 23 42  1  0  0  0  0
 24 25  2  0  0  0  0
 24 56  1  0  0  0  0
 25 62  1  0  0  0  0
 26 73  1  0  0  0  0
 27 83  1  0  0  0  0
 28 84  1  0  0  0  0
 29 31  2  0  0  0  0
 29 83  1  0  0  0  0
 30 85  1  0  0  0  0
 31 86  1  0  0  0  0
 32 66  2  0  0  0  0
 33 67  1  0  0  0  0
 33 71  1  0  0  0  0
 34 53  1  0  0  0  0
 34 68  1  0  0  0  0
 34 77  2  0  0  0  0
 35 72  1  0  0  0  0
 35 78  2  0  0  0  0
 36 54  1  0  0  0  0
 36 74  1  0  0  0  0
 36 79  2  0  0  0  0
 37 63  1  0  0  0  0
 37 69  1  0  0  0  0
 37 80  2  0  0  0  0
 38 64  1  0  0  0  0
 38 75  1  0  0  0  0
 38 81  2  0  0  0  0
 39 70  1  0  0  0  0
 39 73  1  0  0  0  0
 39 82  2  0  0  0  0
 40 43  1  0  0  0  0
 41 54  1  0  0  0  0
 42 69  1  0  0  0  0
 43 46  1  0  0  0  0
 44 47  1  0  0  0  0
 44 49  1  0  0  0  0
 45 48  1  0  0  0  0
 45 50  1  0  0  0  0
 46 52  1  0  0  0  0
 47 53  1  0  0  0  0
 48 55  1  0  0  0  0
 49 68  1  0  0  0  0
 50 70  1  0  0  0  0
 51 55  1  0  0  0  0
 51 70  1  0  0  0  0
 52 74  1  0  0  0  0
 53 84  1  0  0  0  0
 54 69  1  0  0  0  0
 55 67  1  0  0  0  0
 57 64  1  0  0  0  0
 58 65  1  0  0  0  0
 59 65  1  0  0  0  0
 60 65  1  0  0  0  0
 61 76  1  0  0  0  0
 62 68  1  0  0  0  0
 63 65  1  0  0  0  0
 63 75  1  0  0  0  0
 64 76  1  0  0  0  0
 66 67  1  0  0  0  0
M  CHG  1  76   1
M  ISO  4  39 100  53 101  73 100  84 101
M  END
> <Batch ID>
0045

> <Smiles>
CNC(C)C(=O)NC(C(=O)N1Cc2cc([101O:1][101CH:1]3CCCN(Cc4cc([100NH:0][100C:0](=O)N5CCCC(n6nc(-c7ccc(Oc8ccc(F)cc8F)cc7)c(C(N)=O)c6N)C5)ccc4C)C3=O)ccc2CC1C(=O)NC1CCCc2ccccc21)C(C)(C)C

> <Shape>
0.230

> <Color>
0.059

> <Negative vol penalty>
0.000

$$$$

  -OEChem-04042322213D

 88 96  0     1  0  0  0  0  0999 V2000
  -19.3419  -11.1478   18.9982 C   0  0  0  0  0  0  0  0  0  0  0  0
  -19.9728  -12.1196   19.7682 C   0  0  0  0  0  0  0  0  0  0  0  0
  -25.9624  -27.6780   18.9459 C   0  0  0  0  0  0  0  0  0  0  0  0
  -26.4744  -28.0052   21.2842 C   0  0  0  0  0  0  0  0  0  0  0  0
  -20.0700  -10.0611   18.5158 C   0  0  0  0  0  0  0  0  0  0  0  0
  -21.3321  -12.0046   20.0573 C   0  0  0  0  0  0  0  0  0  0  0  0
  -23.8219  -16.3735   19.4586 C   0  0  0  0  0  0  0  0  0  0  0  0
  -24.9129  -28.5911   19.0479 C   0  0  0  0  0  0  0  0  0  0  0  0
  -25.4249  -28.9183   21.3863 C   0  0  0  0  0  0  0  0  0  0  0  0
  -23.6943  -17.3231   20.4715 C   0  0  0  0  0  0  0  0  0  0  0  0
  -22.0577  -28.8216   21.6750 C   0  0  0  0  0  0  0  0  0  0  0  0
  -21.2094  -28.7135   22.7770 C   0  0  0  0  0  0  0  0  0  0  0  0
  -25.8339  -16.6527   21.3613 C   0  0  0  0  0  0  0  0  0  0  0  0
  -30.8264  -19.7660   26.4372 C   0  0  0  0  0  0  0  0  0  0  0  0
  -28.8100  -20.7456   27.3380 C   0  0  0  0  0  0  0  0  0  0  0  0
  -21.8039  -30.9551   23.4545 C   0  0  0  0  0  0  0  0  0  0  0  0
  -26.7431  -27.3850   20.0641 C   0  0  0  0  0  0  0  0  0  0  0  0
  -29.1666  -26.7190   19.6275 C   0  0  0  0  0  0  0  0  0  0  0  0
  -21.4410   -9.9377   18.7909 C   0  0  0  0  0  0  0  0  0  0  0  0
  -24.9534  -15.5476   19.3958 C   0  0  0  0  0  0  0  0  0  0  0  0
  -22.0790  -10.9145   19.5792 C   0  0  0  0  0  0  0  0  0  0  0  0
  -25.9747  -15.6952   20.3452 C   0  0  0  0  0  0  0  0  0  0  0  0
  -30.4410  -20.1529   25.1537 C   0  0  0  0  0  0  0  0  0  0  0  0
  -28.4246  -21.1325   26.0545 C   0  0  0  0  0  0  0  0  0  0  0  0
  -29.2401  -20.8362   24.9623 C   0  0  0  0  0  0  0  0  0  0  0  0
  -24.6441  -29.2113   20.2680 C   0  0  0  0  0  0  0  0  0  0  0  0
  -24.6990  -17.4608   21.4247 C   0  0  0  0  0  0  0  0  0  0  0  0
  -22.7791  -29.9965   21.4628 C   0  0  0  0  0  0  0  0  0  0  0  0
  -21.0825  -29.7803   23.6667 C   0  0  0  0  0  0  0  0  0  0  0  0
  -22.6522  -31.0632   22.3525 C   0  0  0  0  0  0  0  0  0  0  0  0
  -30.0109  -20.0623   27.5293 C   0  0  0  0  0  0  0  0  0  0  0  0
  -27.8270  -26.4415   19.9595 C   0  0  0  0  0  0  0  0  0  0  0  0
  -29.7898  -25.4955   19.6632 C   0  0  0  0  0  0  0  0  0  0  0  0
  -29.7919  -27.9708   19.3150 C   0  0  0  0  0  0  0  0  0  0  0  0
  -25.4560  -12.4140   19.5751 C   0  0  0  0  0  0  0  0  0  0  0  0
  -28.4999  -13.2535   18.8319 C   0  0  0  0  0  0  0  0  0  0  0  0
  -30.9239  -15.6558   18.8281 C   0  0  0  0  0  0  0  0  0  0  0  0
  -28.6202  -20.4016   22.5596 C   0  0  0  0  0  0  0  0  0  0  0  0
  -22.1759   -8.7207   18.2873 C   0  0  0  0  0  0  0  0  0  0  0  0
  -25.0883  -14.5464   18.2814 C   0  0  0  0  0  0  0  0  0  0  0  0
  -27.2187  -14.8469   20.3102 C   0  0  0  0  0  0  0  0  0  0  0  0
  -23.6949   -8.8677   18.3245 C   0  0  0  0  0  0  0  0  0  0  0  0
  -28.9164  -20.8286   19.0372 C   0  0  0  0  0  0  0  0  0  0  0  0
  -24.1432   -9.4390   19.6659 C   0  0  0  0  0  0  0  0  0  0  0  0
  -28.7987  -22.3423   18.8444 C   0  0  0  0  0  0  0  0  0  0  0  0
  -28.0027  -20.3264   20.1537 C   0  0  0  0  0  0  0  0  0  0  0  0
  -28.0358  -22.5343   21.2460 C   0  0  0  0  0  0  0  0  0  0  0  0
  -23.5573  -10.8378   19.8934 C   0  0  1  0  0  0  0  0  0  0  0  0
  -26.0466  -13.4071   18.6145 C   0  0  1  0  0  0  0  0  0  0  0  0
  -28.9856  -23.0962   20.1756 C   0  0  2  0  0  0  0  0  0  0  0  0
  -31.3357  -19.8210   24.0034 C   0  0  0  0  0  0  0  0  0  0  0  0
  -33.3213  -16.0342   18.1904 C   0  0  0  0  0  0  0  0  0  0  0  0
  -29.3988  -11.6928   21.2948 C   0  0  0  0  0  0  0  0  0  0  0  0
  -31.6036  -12.8702   21.1502 C   0  0  0  0  0  0  0  0  0  0  0  0
  -30.8542  -11.3956   19.2829 C   0  0  0  0  0  0  0  0  0  0  0  0
  -22.1453  -21.5695   25.8917 C   0  0  0  0  0  0  0  0  0  0  0  0
  -23.4195  -20.0074   27.3551 C   0  0  0  0  0  0  0  0  0  0  0  0
  -30.1967  -17.7800   16.9000 C   0  0  0  0  0  0  0  0  0  0  0  0
  -27.1274  -21.8660   25.8804 C   0  0  0  0  0  0  0  0  0  0  0  0
  -24.6361  -21.6874   25.8987 C   0  0  0  0  0  0  0  0  0  0  0  0
  -23.4336  -19.6302   24.8902 C   0  0  0  0  0  0  0  0  0  0  0  0
  -23.3908  -19.1861   22.4193 C   0  0  0  0  0  0  0  0  0  1  0  0
  -29.7278  -13.6333   19.6238 C   0  0  1  0  0  0  0  0  0  0  0  0
  -31.8716  -16.1288   17.7407 C   0  0  2  0  0  0  0  0  0  0  0  0
  -30.3719  -12.4128   20.3400 C   0  0  0  0  0  0  0  0  0  0  0  0
  -23.4320  -20.7212   25.9860 C   0  0  0  0  0  0  0  0  0  0  0  0
  -27.6109  -25.1435   20.1889 N   0  0  0  0  0  0  0  0  0  0  0  0
  -28.8231  -24.5946   20.0008 N   0  0  0  0  0  0  0  0  0  0  0  0
  -27.3012  -13.8780   19.2048 N   0  0  0  0  0  0  0  0  0  0  0  0
  -28.2387  -21.0837   21.3849 N   0  0  0  0  0  0  0  0  0  0  0  0
  -31.0648  -25.1132   19.4382 N   0  0  0  0  0  0  0  0  0  0  0  0
  -29.0056  -29.1310   19.3241 N   0  0  0  0  0  0  0  0  0  0  0  0
  -28.8486  -21.2291   23.6585 N   0  0  0  0  0  0  0  0  0  0  0  0
  -24.2898  -11.8232   19.1274 N   0  0  0  0  0  0  0  0  0  0  0  0
  -30.6182  -14.3181   18.6928 N   0  0  0  0  0  0  0  0  0  0  0  0
  -31.5824  -17.5460   17.3819 N   0  3  0  0  0  0  0  0  0  0  0  0
  -25.9363  -20.9818   26.0044 N   0  3  0  0  0  0  0  0  0  0  0  0
  -23.3471  -20.2021   23.5205 N   0  3  0  0  0  0  0  0  0  0  0  0
  -31.0081  -28.0558   19.0200 O   0  0  0  0  0  0  0  0  0  0  0  0
  -26.0176  -12.1986   20.6427 O   0  0  0  0  0  0  0  0  0  0  0  0
  -28.6019  -12.4384   17.9117 O   0  0  0  0  0  0  0  0  0  0  0  0
  -30.5003  -16.3979   19.7116 O   0  0  0  0  0  0  0  0  0  0  0  0
  -28.7623  -19.1763   22.5814 O   0  0  0  0  0  0  0  0  0  0  0  0
  -23.6203  -30.1025   20.3679 O   0  0  0  0  0  0  0  0  0  0  0  0
  -24.5766  -18.3864   22.4148 O   0  0  0  0  0  0  0  0  0  1  0  0
  -20.2667  -29.6769   24.7240 F   0  0  0  0  0  0  0  0  0  0  0  0
  -23.3418  -32.1948   22.1533 F   0  0  0  0  0  0  0  0  0  0  0  0
  -30.4865  -19.5850   29.1130 Cl  0  0  0  0  0  0  0  0  0  0  0  0
  1  2  1  0  0  0  0
  1  5  2  0  0  0  0
  2  6  2  0  0  0  0
  3  8  2  0  0  0  0
  3 17  1  0  0  0  0
  4  9  1  0  0  0  0
  4 17  2  0  0  0  0
  5 19  1  0  0  0  0
  6 21  1  0  0  0  0
  7 10  2  0  0  0  0
  7 20  1  0  0  0  0
  8 26  1  0  0  0  0
  9 26  2  0  0  0  0
 10 27  1  0  0  0  0
 11 12  2  0  0  0  0
 11 28  1  0  0  0  0
 12 29  1  0  0  0  0
 13 22  1  0  0  0  0
 13 27  2  0  0  0  0
 14 23  2  0  0  0  0
 14 31  1  0  0  0  0
 15 24  1  0  0  0  0
 15 31  2  0  0  0  0
 16 29  2  0  0  0  0
 16 30  1  0  0  0  0
 17 32  1  0  0  0  0
 18 32  1  0  0  0  0
 18 33  2  0  0  0  0
 18 34  1  0  0  0  0
 19 21  2  0  0  0  0
 19 39  1  0  0  0  0
 20 22  2  0  0  0  0
 20 40  1  0  0  0  0
 21 48  1  0  0  0  0
 22 41  1  0  0  0  0
 23 25  1  0  0  0  0
 23 51  1  0  0  0  0
 24 25  2  0  0  0  0
 24 59  1  0  0  0  0
 25 73  1  0  0  0  0
 26 84  1  0  0  0  0
 27 85  1  0  0  0  0
 28 30  2  0  0  0  0
 28 84  1  0  0  0  0
 29 86  1  0  0  0  0
 30 87  1  0  0  0  0
 31 88  1  0  0  0  0
 32 67  2  0  0  0  0
 33 68  1  0  0  0  0
 33 71  1  0  0  0  0
 34 72  1  0  0  0  0
 34 79  2  0  0  0  0
 35 49  1  0  0  0  0
 35 74  1  0  0  0  0
 35 80  2  0  0  0  0
 36 63  1  0  0  0  0
 36 69  1  0  0  0  0
 36 81  2  0  0  0  0
 37 64  1  0  0  0  0
 37 75  1  0  0  0  0
 37 82  2  0  0  0  0
 38 70  1  0  0  0  0
 38 73  1  0  0  0  0
 38 83  2  0  0  0  0
 39 42  1  0  0  0  0
 40 49  1  0  0  0  0
 41 69  1  0  0  0  0
 42 44  1  0  0  0  0
 43 45  1  0  0  0  0
 43 46  1  0  0  0  0
 44 48  1  0  0  0  0
 45 50  1  0  0  0  0
 46 70  1  0  0  0  0
 47 50  1  0  0  0  0
 47 70  1  0  0  0  0
 48 74  1  0  0  0  0
 49 69  1  0  0  0  0
 50 68  1  0  0  0  0
 52 64  1  0  0  0  0
 53 65  1  0  0  0  0
 54 65  1  0  0  0  0
 55 65  1  0  0  0  0
 56 66  1  0  0  0  0
 57 66  1  0  0  0  0
 58 76  1  0  0  0  0
 59 77  1  0  0  0  0
 60 66  1  0  0  0  0
 60 77  1  0  0  0  0
 61 66  1  0  0  0  0
 61 78  1  0  0  0  0
 62 78  1  0  0  0  0
 62 85  1  0  0  0  0
 63 65  1  0  0  0  0
 63 75  1  0  0  0  0
 64 76  1  0  0  0  0
 67 68  1  0  0  0  0
M  CHG  3  76   1  77   1  78   1
M  ISO  4  38 100  62 101  73 100  85 101
M  END
> <Batch ID>
0045

> <Smiles>
CNC(C)C(=O)NC(C(=O)N1Cc2cc([101O:1][101CH2:1]NCC(C)(C)CNCc3cc(Cl)cc(C)c3[100NH:0][100C:0](=O)N3CCCC(n4nc(-c5ccc(Oc6ccc(F)cc6F)cc5)c(C(N)=O)c4N)C3)ccc2CC1C(=O)NC1CCCc2ccccc21)C(C)(C)C

> <Shape>
0.240

> <Color>
0.049

> <Negative vol penalty>
0.000

$$$$

  -OEChem-04042322213D

 86 95  0     1  0  0  0  0  0999 V2000
  -16.5498  -29.8484   23.4268 C   0  0  0  0  0  0  0  0  0  0  0  0
  -17.6183  -30.6954   23.6986 C   0  0  0  0  0  0  0  0  0  0  0  0
  -20.1233  -24.4213   12.1099 C   0  0  0  0  0  0  0  0  0  0  0  0
  -20.9343  -23.2725   14.0745 C   0  0  0  0  0  0  0  0  0  0  0  0
  -16.7904  -28.5425   23.0048 C   0  0  0  0  0  0  0  0  0  0  0  0
  -18.9275  -30.2406   23.5369 C   0  0  0  0  0  0  0  0  0  0  0  0
  -27.0797  -29.3289   22.0832 C   0  0  0  0  0  0  0  0  0  0  0  0
  -29.5010  -20.6909   16.0141 C   0  0  0  0  0  0  0  0  0  0  0  0
  -18.8575  -23.8709   12.3105 C   0  0  0  0  0  0  0  0  0  0  0  0
  -19.6684  -22.7220   14.2752 C   0  0  0  0  0  0  0  0  0  0  0  0
  -27.8675  -28.3350   21.5043 C   0  0  0  0  0  0  0  0  0  0  0  0
  -16.1812  -24.4377   14.2978 C   0  0  0  0  0  0  0  0  0  0  0  0
  -29.9364  -20.0408   17.1688 C   0  0  0  0  0  0  0  0  0  0  0  0
  -15.0794  -25.2842   14.1755 C   0  0  0  0  0  0  0  0  0  0  0  0
  -26.1787  -27.9877   19.8170 C   0  0  0  0  0  0  0  0  0  0  0  0
  -28.0626  -22.0997   17.3496 C   0  0  0  0  0  0  0  0  0  0  0  0
  -14.2167  -23.9036   12.3904 C   0  0  0  0  0  0  0  0  0  0  0  0
  -21.1617  -24.1221   12.9918 C   0  0  0  0  0  0  0  0  0  0  0  0
  -22.8083  -26.0560   12.7542 C   0  0  0  0  0  0  0  0  0  0  0  0
  -18.1035  -28.0685   22.8502 C   0  0  0  0  0  0  0  0  0  0  0  0
  -25.8286  -29.6527   21.5388 C   0  0  0  0  0  0  0  0  0  0  0  0
  -19.1908  -28.9335   23.0890 C   0  0  0  0  0  0  0  0  0  0  0  0
  -25.3781  -28.9879   20.3894 C   0  0  0  0  0  0  0  0  0  0  0  0
  -28.4980  -21.4496   18.5043 C   0  0  0  0  0  0  0  0  0  0  0  0
  -28.5641  -21.7204   16.1045 C   0  0  0  0  0  0  0  0  0  0  0  0
  -18.6300  -23.0213   13.3932 C   0  0  0  0  0  0  0  0  0  0  0  0
  -27.4158  -27.6622   20.3727 C   0  0  0  0  0  0  0  0  0  0  0  0
  -16.3008  -23.3241   13.4663 C   0  0  0  0  0  0  0  0  0  0  0  0
  -14.0971  -25.0172   13.2219 C   0  0  0  0  0  0  0  0  0  0  0  0
  -29.4349  -20.4202   18.4139 C   0  0  0  0  0  0  0  0  0  0  0  0
  -15.3185  -23.0571   12.5126 C   0  0  0  0  0  0  0  0  0  0  0  0
  -22.4697  -24.6899   12.7848 C   0  0  0  0  0  0  0  0  0  0  0  0
  -24.1631  -26.0690   12.5290 C   0  0  0  0  0  0  0  0  0  0  0  0
  -27.8952  -24.3182   20.0080 C   0  0  0  0  0  0  0  0  0  0  0  0
  -21.9728  -27.2100   12.9150 C   0  0  0  0  0  0  0  0  0  0  0  0
  -22.8296  -29.5410   22.5865 C   0  0  0  0  0  0  0  0  0  0  0  0
  -22.2029  -31.0291   19.7731 C   0  0  0  0  0  0  0  0  0  0  0  0
  -23.2940  -30.7486   16.3455 C   0  0  0  0  0  0  0  0  0  0  0  0
  -28.5205  -22.1281   13.6189 C   0  0  0  0  0  0  0  0  0  0  0  0
  -18.3065  -26.6486   22.3833 C   0  0  0  0  0  0  0  0  0  0  0  0
  -25.0026  -30.7459   22.1594 C   0  0  0  0  0  0  0  0  0  0  0  0
  -24.0515  -29.3122   19.7544 C   0  0  0  0  0  0  0  0  0  0  0  0
  -19.7101  -26.1241   22.6677 C   0  0  0  0  0  0  0  0  0  0  0  0
  -30.3844  -24.2722   21.5537 C   0  0  0  0  0  0  0  0  0  0  0  0
  -27.6397  -23.5086   10.4573 C   0  0  0  0  0  0  0  0  0  0  0  0
  -20.7474  -27.1271   22.1854 C   0  0  0  0  0  0  0  0  0  0  0  0
  -30.0180  -25.5045   20.7533 C   0  0  0  0  0  0  0  0  0  0  0  0
  -26.2473  -24.0979   10.6942 C   0  0  0  0  0  0  0  0  0  0  0  0
  -29.9028  -23.0294   20.8269 C   0  0  0  0  0  0  0  0  0  0  0  0
  -27.8432  -22.2062   11.2292 C   0  0  0  0  0  0  0  0  0  0  0  0
  -26.1652  -22.8751   12.9044 C   0  0  0  0  0  0  0  0  0  0  0  0
  -20.6234  -28.4513   22.9496 C   0  0  1  0  0  0  0  0  0  0  0  0
  -28.5099  -25.5732   20.6147 C   0  0  1  0  0  0  0  0  0  1  0  0
  -23.5184  -30.6372   21.8238 C   0  0  1  0  0  0  0  0  0  0  0  0
  -25.9363  -24.2217   12.1987 C   0  0  2  0  0  0  0  0  0  0  0  0
  -23.3878  -32.4653   14.5176 C   0  0  0  0  0  0  0  0  0  0  0  0
  -19.4522  -29.9487   19.0136 C   0  0  0  0  0  0  0  0  0  0  0  0
  -20.0885  -30.2166   16.6070 C   0  0  0  0  0  0  0  0  0  0  0  0
  -19.9728  -32.2156   18.0947 C   0  0  0  0  0  0  0  0  0  0  0  0
  -26.1738  -30.2567   15.8726 C   0  0  0  0  0  0  0  0  0  0  0  0
  -27.9579  -21.8603   19.8436 C   0  0  0  0  0  0  0  0  0  0  0  0
  -21.8741  -30.5725   18.3722 C   0  0  1  0  0  0  0  0  0  0  0  0
  -24.1746  -31.7269   15.5892 C   0  0  2  0  0  0  0  0  0  0  0  0
  -20.3628  -30.7225   18.0394 C   0  0  0  0  0  0  0  0  0  0  0  0
  -23.5244  -23.8929   12.5941 N   0  0  0  0  0  0  0  0  0  0  0  0
  -24.5390  -24.7609   12.4415 N   0  0  0  0  0  0  0  0  0  0  0  0
  -28.5381  -23.1148   20.3040 N   0  0  0  0  0  0  0  0  0  0  0  0
  -23.2775  -30.3843   20.4017 N   0  0  0  0  0  0  0  0  0  0  0  0
  -27.5340  -22.4007   12.6475 N   0  0  0  0  0  0  0  0  0  0  0  0
  -25.0576  -27.0717   12.3992 N   0  0  0  0  0  0  0  0  0  0  0  0
  -20.6028  -27.0170   13.1394 N   0  0  0  0  0  0  0  0  0  0  0  0
  -28.1227  -22.3811   14.9312 N   0  0  0  0  0  0  0  0  0  0  0  0
  -21.4766  -29.4383   22.3254 N   0  0  0  0  0  0  0  0  0  0  0  0
  -22.7587  -31.3167   17.4822 N   0  0  0  0  0  0  0  0  0  0  0  0
  -25.3025  -31.0076   14.9324 N   0  3  0  0  0  0  0  0  0  0  0  0
  -26.8515  -24.3990   19.3552 O   0  0  0  0  0  0  0  0  0  0  0  0
  -22.4248  -28.3780   12.8449 O   0  0  0  0  0  0  0  0  0  0  0  0
  -23.4781  -28.8394   23.3539 O   0  0  0  0  0  0  0  0  0  0  0  0
  -21.5354  -31.9297   20.2879 O   0  0  0  0  0  0  0  0  0  0  0  0
  -23.0974  -29.5970   15.9640 O   0  0  0  0  0  0  0  0  0  0  0  0
  -29.6449  -21.7276   13.3072 O   0  0  0  0  0  0  0  0  0  0  0  0
  -17.3949  -22.4841   13.5894 O   0  0  0  0  0  0  0  0  0  0  0  0
  -28.1824  -26.6911   19.8060 O   0  0  0  0  0  0  0  0  0  1  0  0
  -13.0383  -25.8294   13.1056 F   0  0  0  0  0  0  0  0  0  0  0  0
  -29.8585  -19.7887   19.5176 F   0  0  0  0  0  0  0  0  0  0  0  0
  -15.4274  -21.9881   11.7118 F   0  0  0  0  0  0  0  0  0  0  0  0
  1  2  1  0  0  0  0
  1  5  2  0  0  0  0
  2  6  2  0  0  0  0
  3  9  2  0  0  0  0
  3 18  1  0  0  0  0
  4 10  1  0  0  0  0
  4 18  2  0  0  0  0
  5 20  1  0  0  0  0
  6 22  1  0  0  0  0
  7 11  2  0  0  0  0
  7 21  1  0  0  0  0
  8 13  2  0  0  0  0
  8 25  1  0  0  0  0
  9 26  1  0  0  0  0
 10 26  2  0  0  0  0
 11 27  1  0  0  0  0
 12 14  2  0  0  0  0
 12 28  1  0  0  0  0
 13 30  1  0  0  0  0
 14 29  1  0  0  0  0
 15 23  1  0  0  0  0
 15 27  2  0  0  0  0
 16 24  1  0  0  0  0
 16 25  2  0  0  0  0
 17 29  2  0  0  0  0
 17 31  1  0  0  0  0
 18 32  1  0  0  0  0
 19 32  1  0  0  0  0
 19 33  2  0  0  0  0
 19 35  1  0  0  0  0
 20 22  2  0  0  0  0
 20 40  1  0  0  0  0
 21 23  2  0  0  0  0
 21 41  1  0  0  0  0
 22 52  1  0  0  0  0
 23 42  1  0  0  0  0
 24 30  2  0  0  0  0
 24 61  1  0  0  0  0
 25 72  1  0  0  0  0
 26 82  1  0  0  0  0
 27 83  1  0  0  0  0
 28 31  2  0  0  0  0
 28 82  1  0  0  0  0
 29 84  1  0  0  0  0
 30 85  1  0  0  0  0
 31 86  1  0  0  0  0
 32 65  2  0  0  0  0
 33 66  1  0  0  0  0
 33 70  1  0  0  0  0
 34 53  1  0  0  0  0
 34 67  1  0  0  0  0
 34 76  2  0  0  0  0
 35 71  1  0  0  0  0
 35 77  2  0  0  0  0
 36 54  1  0  0  0  0
 36 73  1  0  0  0  0
 36 78  2  0  0  0  0
 37 62  1  0  0  0  0
 37 68  1  0  0  0  0
 37 79  2  0  0  0  0
 38 63  1  0  0  0  0
 38 74  1  0  0  0  0
 38 80  2  0  0  0  0
 39 69  1  0  0  0  0
 39 72  1  0  0  0  0
 39 81  2  0  0  0  0
 40 43  1  0  0  0  0
 41 54  1  0  0  0  0
 42 68  1  0  0  0  0
 43 46  1  0  0  0  0
 44 47  1  0  0  0  0
 44 49  1  0  0  0  0
 45 48  1  0  0  0  0
 45 50  1  0  0  0  0
 46 52  1  0  0  0  0
 47 53  1  0  0  0  0
 48 55  1  0  0  0  0
 49 67  1  0  0  0  0
 50 69  1  0  0  0  0
 51 55  1  0  0  0  0
 51 69  1  0  0  0  0
 52 73  1  0  0  0  0
 53 83  1  0  0  0  0
 54 68  1  0  0  0  0
 55 66  1  0  0  0  0
 56 63  1  0  0  0  0
 57 64  1  0  0  0  0
 58 64  1  0  0  0  0
 59 64  1  0  0  0  0
 60 75  1  0  0  0  0
 61 67  1  0  0  0  0
 62 64  1  0  0  0  0
 62 74  1  0  0  0  0
 63 75  1  0  0  0  0
 65 66  1  0  0  0  0
M  CHG  1  75   1
M  ISO  4  39 100  53 101  72 100  83 101
M  END
> <Batch ID>
0045

> <Smiles>
CNC(C)C(=O)NC(C(=O)N1Cc2cc([101O:1][101CH:1]3CCCN(Cc4cc([100NH:0][100C:0](=O)N5CCCC(n6nc(-c7ccc(Oc8ccc(F)cc8F)cc7)c(C(N)=O)c6N)C5)ccc4F)C3=O)ccc2CC1C(=O)NC1CCCc2ccccc21)C(C)(C)C

> <Shape>
0.172

> <Color>
0.122

> <Negative vol penalty>
0.000

$$$$

  -OEChem-04042322213D

 90 98  0     1  0  0  0  0  0999 V2000
  -24.4596  -15.0737   14.1176 C   0  0  0  0  0  0  0  0  0  0  0  0
  -23.9446  -16.0386   14.9772 C   0  0  0  0  0  0  0  0  0  0  0  0
  -29.7584  -28.1877   18.3524 C   0  0  0  0  0  0  0  0  0  0  0  0
  -29.7896  -27.2479   20.5779 C   0  0  0  0  0  0  0  0  0  0  0  0
  -25.4526  -14.2027   14.5639 C   0  0  0  0  0  0  0  0  0  0  0  0
  -24.4215  -16.1324   16.2842 C   0  0  0  0  0  0  0  0  0  0  0  0
  -25.1098  -21.2386   19.5946 C   0  0  0  0  0  0  0  0  0  0  0  0
  -19.2816  -29.1752   22.3738 C   0  0  0  0  0  0  0  0  0  0  0  0
  -31.1500  -28.1092   18.2997 C   0  0  0  0  0  0  0  0  0  0  0  0
  -31.1813  -27.1694   20.5252 C   0  0  0  0  0  0  0  0  0  0  0  0
  -24.3172  -21.8355   20.5740 C   0  0  0  0  0  0  0  0  0  0  0  0
  -34.7651  -27.0551   21.1190 C   0  0  0  0  0  0  0  0  0  0  0  0
  -18.0079  -28.6259   22.2270 C   0  0  0  0  0  0  0  0  0  0  0  0
  -35.4813  -27.4801   22.2379 C   0  0  0  0  0  0  0  0  0  0  0  0
  -25.6370  -20.7649   22.2861 C   0  0  0  0  0  0  0  0  0  0  0  0
  -34.5278  -29.6882   22.0095 C   0  0  0  0  0  0  0  0  0  0  0  0
  -29.0781  -27.7571   19.4916 C   0  0  0  0  0  0  0  0  0  0  0  0
  -18.9244  -26.4140   22.5503 C   0  0  0  0  0  0  0  0  0  0  0  0
  -26.7174  -26.8547   19.1446 C   0  0  0  0  0  0  0  0  0  0  0  0
  -25.9488  -14.2921   15.8740 C   0  0  0  0  0  0  0  0  0  0  0  0
  -26.1670  -20.3903   19.9540 C   0  0  0  0  0  0  0  0  0  0  0  0
  -25.4211  -15.2609   16.7489 C   0  0  0  0  0  0  0  0  0  0  0  0
  -26.4431  -20.1605   21.3094 C   0  0  0  0  0  0  0  0  0  0  0  0
  -20.3768  -28.3439   22.6087 C   0  0  0  0  0  0  0  0  0  0  0  0
  -31.8615  -27.6000   19.3861 C   0  0  0  0  0  0  0  0  0  0  0  0
  -24.5789  -21.5964   21.9199 C   0  0  0  0  0  0  0  0  0  0  0  0
  -33.9304  -27.9467   20.4452 C   0  0  0  0  0  0  0  0  0  0  0  0
  -35.3626  -28.7966   22.6832 C   0  0  0  0  0  0  0  0  0  0  0  0
  -17.8293  -27.2454   22.3153 C   0  0  0  0  0  0  0  0  0  0  0  0
  -33.8117  -29.2632   20.8905 C   0  0  0  0  0  0  0  0  0  0  0  0
  -20.1982  -26.9633   22.6970 C   0  0  0  0  0  0  0  0  0  0  0  0
  -27.6406  -27.8384   19.5468 C   0  0  0  0  0  0  0  0  0  0  0  0
  -25.4884  -27.4130   19.3985 C   0  0  0  0  0  0  0  0  0  0  0  0
  -18.7346  -24.9526   22.6433 C   0  0  0  0  0  0  0  0  0  0  0  0
  -26.9500  -25.5527   18.5911 C   0  0  0  0  0  0  0  0  0  0  0  0
  -26.8524  -17.3263   19.4578 C   0  0  0  0  0  0  0  0  0  0  0  0
  -29.6531  -18.1242   20.8868 C   0  0  0  0  0  0  0  0  0  0  0  0
  -31.3411  -20.2217   22.9839 C   0  0  0  0  0  0  0  0  0  0  0  0
  -22.0167  -30.2541   22.6967 C   0  0  0  0  0  0  0  0  0  0  0  0
  -26.9890  -13.2978   16.3257 C   0  0  0  0  0  0  0  0  0  0  0  0
  -27.0293  -19.7753   18.8860 C   0  0  0  0  0  0  0  0  0  0  0  0
  -27.5790  -19.2740   21.7480 C   0  0  0  0  0  0  0  0  0  0  0  0
  -27.7056  -13.7071   17.6099 C   0  0  0  0  0  0  0  0  0  0  0  0
  -24.2163  -32.1527   20.6390 C   0  0  0  0  0  0  0  0  0  0  0  0
  -26.6999  -14.1774   18.6559 C   0  0  0  0  0  0  0  0  0  0  0  0
  -25.2274  -31.1186   20.1383 C   0  0  0  0  0  0  0  0  0  0  0  0
  -23.7926  -31.8796   22.0811 C   0  0  0  0  0  0  0  0  0  0  0  0
  -24.3154  -29.4845   21.8369 C   0  0  0  0  0  0  0  0  0  0  0  0
  -25.9303  -15.4100   18.1662 C   0  0  1  0  0  0  0  0  0  0  0  0
  -27.7587  -18.5205   19.3559 C   0  0  1  0  0  0  0  0  0  0  0  0
  -24.7228  -29.6804   20.3674 C   0  0  2  0  0  0  0  0  0  0  0  0
  -33.6107  -20.5982   23.9862 C   0  0  0  0  0  0  0  0  0  0  0  0
  -29.1773  -15.8162   22.8250 C   0  0  0  0  0  0  0  0  0  0  0  0
  -30.9141  -16.8123   24.3282 C   0  0  0  0  0  0  0  0  0  0  0  0
  -31.5398  -16.0473   22.0378 C   0  0  0  0  0  0  0  0  0  0  0  0
  -19.1769  -20.9907   25.5941 C   0  0  0  0  0  0  0  0  0  0  0  0
  -18.4146  -23.2104   26.4375 C   0  0  0  0  0  0  0  0  0  0  0  0
  -31.5858  -22.8859   21.7186 C   0  0  0  0  0  0  0  0  0  0  0  0
  -18.9384  -22.8951   23.9931 C   0  0  0  0  0  0  0  0  0  0  0  0
  -23.2083  -22.6659   25.1552 C   0  0  0  0  0  0  0  0  0  0  0  0
  -20.8012  -22.9334   25.7660 C   0  0  0  0  0  0  0  0  0  0  0  0
  -24.1309  -21.8885   24.2372 C   0  0  0  0  0  0  0  0  0  1  0  0
  -30.1590  -18.1477   22.3089 C   0  0  1  0  0  0  0  0  0  0  0  0
  -32.6730  -20.9353   22.8374 C   0  0  2  0  0  0  0  0  0  0  0  0
  -30.4248  -16.7211   22.8670 C   0  0  0  0  0  0  0  0  0  0  0  0
  -19.3524  -22.5137   25.4296 C   0  0  0  0  0  0  0  0  0  0  0  0
  -27.0488  -28.9383   20.0201 N   0  0  0  0  0  0  0  0  0  0  0  0
  -25.7404  -28.6491   19.9168 N   0  0  0  0  0  0  0  0  0  0  0  0
  -28.3896  -18.6907   20.6663 N   0  0  0  0  0  0  0  0  0  0  0  0
  -23.3223  -30.4997   22.2215 N   0  0  0  0  0  0  0  0  0  0  0  0
  -24.2276  -26.9622   19.2266 N   0  0  0  0  0  0  0  0  0  0  0  0
  -18.2293  -24.3163   21.5865 N   0  0  0  0  0  0  0  0  0  0  0  0
  -28.2739  -25.1364   18.3959 N   0  0  0  0  0  0  0  0  0  0  0  0
  -21.6694  -28.9049   22.7570 N   0  0  0  0  0  0  0  0  0  0  0  0
  -26.7480  -16.5978   18.2882 N   0  0  0  0  0  0  0  0  0  0  0  0
  -31.3298  -19.0181   22.3113 N   0  0  0  0  0  0  0  0  0  0  0  0
  -19.0760  -24.3385   23.7823 N   0  3  0  0  0  0  0  0  0  0  0  0
  -32.4699  -22.4115   22.8141 N   0  3  0  0  0  0  0  0  0  0  0  0
  -21.8042  -22.2565   24.9001 N   0  3  0  0  0  0  0  0  0  0  0  0
  -26.0113  -24.7878   18.2635 O   0  0  0  0  0  0  0  0  0  0  0  0
  -26.2907  -17.0830   20.5194 O   0  0  0  0  0  0  0  0  0  0  0  0
  -30.3561  -17.6282   20.0029 O   0  0  0  0  0  0  0  0  0  0  0  0
  -30.4057  -20.6840   23.6334 O   0  0  0  0  0  0  0  0  0  0  0  0
  -21.2528  -31.1741   23.0000 O   0  0  0  0  0  0  0  0  0  0  0  0
  -33.2194  -27.5230   19.3349 O   0  0  0  0  0  0  0  0  0  0  0  0
  -23.8063  -22.1772   22.8779 O   0  0  0  0  0  0  0  0  0  1  0  0
  -36.0493  -29.2042   23.7587 F   0  0  0  0  0  0  0  0  0  0  0  0
  -16.6016  -26.7270   22.1723 F   0  0  0  0  0  0  0  0  0  0  0  0
  -33.0103  -30.1240   20.2481 F   0  0  0  0  0  0  0  0  0  0  0  0
  -21.2505  -26.1621   22.9228 F   0  0  0  0  0  0  0  0  0  0  0  0
  1  2  1  0  0  0  0
  1  5  2  0  0  0  0
  2  6  2  0  0  0  0
  3  9  2  0  0  0  0
  3 17  1  0  0  0  0
  4 10  1  0  0  0  0
  4 17  2  0  0  0  0
  5 20  1  0  0  0  0
  6 22  1  0  0  0  0
  7 11  2  0  0  0  0
  7 21  1  0  0  0  0
  8 13  1  0  0  0  0
  8 24  2  0  0  0  0
  9 25  1  0  0  0  0
 10 25  2  0  0  0  0
 11 26  1  0  0  0  0
 12 14  2  0  0  0  0
 12 27  1  0  0  0  0
 13 29  2  0  0  0  0
 14 28  1  0  0  0  0
 15 23  1  0  0  0  0
 15 26  2  0  0  0  0
 16 28  2  0  0  0  0
 16 30  1  0  0  0  0
 17 32  1  0  0  0  0
 18 29  1  0  0  0  0
 18 31  2  0  0  0  0
 18 34  1  0  0  0  0
 19 32  1  0  0  0  0
 19 33  2  0  0  0  0
 19 35  1  0  0  0  0
 20 22  2  0  0  0  0
 20 40  1  0  0  0  0
 21 23  2  0  0  0  0
 21 41  1  0  0  0  0
 22 49  1  0  0  0  0
 23 42  1  0  0  0  0
 24 31  1  0  0  0  0
 24 74  1  0  0  0  0
 25 85  1  0  0  0  0
 26 86  1  0  0  0  0
 27 30  2  0  0  0  0
 27 85  1  0  0  0  0
 28 87  1  0  0  0  0
 29 88  1  0  0  0  0
 30 89  1  0  0  0  0
 31 90  1  0  0  0  0
 32 67  2  0  0  0  0
 33 68  1  0  0  0  0
 33 71  1  0  0  0  0
 34 72  1  0  0  0  0
 34 77  2  0  0  0  0
 35 73  1  0  0  0  0
 35 80  2  0  0  0  0
 36 50  1  0  0  0  0
 36 75  1  0  0  0  0
 36 81  2  0  0  0  0
 37 63  1  0  0  0  0
 37 69  1  0  0  0  0
 37 82  2  0  0  0  0
 38 64  1  0  0  0  0
 38 76  1  0  0  0  0
 38 83  2  0  0  0  0
 39 70  1  0  0  0  0
 39 74  1  0  0  0  0
 39 84  2  0  0  0  0
 40 43  1  0  0  0  0
 41 50  1  0  0  0  0
 42 69  1  0  0  0  0
 43 45  1  0  0  0  0
 44 46  1  0  0  0  0
 44 47  1  0  0  0  0
 45 49  1  0  0  0  0
 46 51  1  0  0  0  0
 47 70  1  0  0  0  0
 48 51  1  0  0  0  0
 48 70  1  0  0  0  0
 49 75  1  0  0  0  0
 50 69  1  0  0  0  0
 51 68  1  0  0  0  0
 52 64  1  0  0  0  0
 53 65  1  0  0  0  0
 54 65  1  0  0  0  0
 55 65  1  0  0  0  0
 56 66  1  0  0  0  0
 57 66  1  0  0  0  0
 58 78  1  0  0  0  0
 59 66  1  0  0  0  0
 59 77  1  0  0  0  0
 60 62  1  0  0  0  0
 60 79  1  0  0  0  0
 61 66  1  0  0  0  0
 61 79  1  0  0  0  0
 62 86  1  0  0  0  0
 63 65  1  0  0  0  0
 63 76  1  0  0  0  0
 64 78  1  0  0  0  0
 67 68  1  0  0  0  0
M  CHG  3  77   1  78   1  79   1
M  ISO  4  39 100  62 101  74 100  86 101
M  END
> <Batch ID>
0045

> <Smiles>
CNC(C)C(=O)NC(C(=O)N1Cc2cc([101O:1][101CH2:1]CNCC(C)(C)CNC(=N)c3c(F)ccc([100NH:0][100C:0](=O)N4CCCC(n5nc(-c6ccc(Oc7ccc(F)cc7F)cc6)c(C(N)=O)c5N)C4)c3F)ccc2CC1C(=O)NC1CCCc2ccccc21)C(C)(C)C

> <Shape>
0.205

> <Color>
0.064

> <Negative vol penalty>
0.000

$$$$

  -OEChem-04042322213D

 85 93  0     1  0  0  0  0  0999 V2000
  -19.6494  -14.8802   17.1427 C   0  0  0  0  0  0  0  0  0  0  0  0
  -20.4993  -15.9537   17.3892 C   0  0  0  0  0  0  0  0  0  0  0  0
  -16.9915  -26.2201   20.3853 C   0  0  0  0  0  0  0  0  0  0  0  0
  -18.7092  -24.6211   20.9598 C   0  0  0  0  0  0  0  0  0  0  0  0
  -19.8941  -13.6465   17.7444 C   0  0  0  0  0  0  0  0  0  0  0  0
  -21.5938  -15.7944   18.2384 C   0  0  0  0  0  0  0  0  0  0  0  0
  -27.0713  -18.4856   17.7289 C   0  0  0  0  0  0  0  0  0  0  0  0
  -28.4356  -28.1533   20.3559 C   0  0  0  0  0  0  0  0  0  0  0  0
  -27.2155  -28.7810   20.6068 C   0  0  0  0  0  0  0  0  0  0  0  0
  -16.3654  -25.2613   19.5889 C   0  0  0  0  0  0  0  0  0  0  0  0
  -18.0830  -23.6623   20.1634 C   0  0  0  0  0  0  0  0  0  0  0  0
  -27.6285  -19.6033   18.3485 C   0  0  0  0  0  0  0  0  0  0  0  0
  -17.8601  -22.9165   16.8733 C   0  0  0  0  0  0  0  0  0  0  0  0
  -18.6627  -22.1555   16.0234 C   0  0  0  0  0  0  0  0  0  0  0  0
  -28.6874  -18.1678   19.9724 C   0  0  0  0  0  0  0  0  0  0  0  0
  -26.4803  -26.8509   21.8603 C   0  0  0  0  0  0  0  0  0  0  0  0
  -17.9392  -20.1410   17.1439 C   0  0  0  0  0  0  0  0  0  0  0  0
  -18.1635  -25.9000   21.0708 C   0  0  0  0  0  0  0  0  0  0  0  0
  -18.5858  -27.1390   23.2603 C   0  0  0  0  0  0  0  0  0  0  0  0
  -20.9976  -13.4694   18.5938 C   0  0  0  0  0  0  0  0  0  0  0  0
  -27.3095  -17.1992   18.2337 C   0  0  0  0  0  0  0  0  0  0  0  0
  -21.8526  -14.5575   18.8531 C   0  0  0  0  0  0  0  0  0  0  0  0
  -28.1341  -17.0351   19.3558 C   0  0  0  0  0  0  0  0  0  0  0  0
  -28.6780  -26.8744   20.8570 C   0  0  0  0  0  0  0  0  0  0  0  0
  -27.7004  -26.2232   21.6093 C   0  0  0  0  0  0  0  0  0  0  0  0
  -26.2379  -28.1299   21.3591 C   0  0  0  0  0  0  0  0  0  0  0  0
  -16.9111  -23.9825   19.4779 C   0  0  0  0  0  0  0  0  0  0  0  0
  -28.4343  -19.4448   19.4722 C   0  0  0  0  0  0  0  0  0  0  0  0
  -17.0971  -22.2898   17.8585 C   0  0  0  0  0  0  0  0  0  0  0  0
  -18.7023  -20.7678   16.1586 C   0  0  0  0  0  0  0  0  0  0  0  0
  -17.1367  -20.9021   17.9938 C   0  0  0  0  0  0  0  0  0  0  0  0
  -18.8111  -26.8901   21.8932 C   0  0  0  0  0  0  0  0  0  0  0  0
  -19.4421  -28.1680   23.5677 C   0  0  0  0  0  0  0  0  0  0  0  0
  -17.6833  -26.4973   24.1711 C   0  0  0  0  0  0  0  0  0  0  0  0
  -25.4872  -14.8866   19.4315 C   0  0  0  0  0  0  0  0  0  0  0  0
  -28.2656  -13.2129   19.3970 C   0  0  0  0  0  0  0  0  0  0  0  0
  -28.5310  -22.6294   21.2034 C   0  0  0  0  0  0  0  0  0  0  0  0
  -31.6780  -13.2621   19.4155 C   0  0  0  0  0  0  0  0  0  0  0  0
  -24.5981  -30.0352   21.1942 C   0  0  0  0  0  0  0  0  0  0  0  0
  -21.1943  -12.1300   19.2587 C   0  0  0  0  0  0  0  0  0  0  0  0
  -26.7229  -16.0016   17.5379 C   0  0  0  0  0  0  0  0  0  0  0  0
  -28.4372  -15.6740   19.9250 C   0  0  0  0  0  0  0  0  0  0  0  0
  -22.5891  -11.9425   19.8499 C   0  0  0  0  0  0  0  0  0  0  0  0
  -21.6196  -31.9459   21.5877 C   0  0  0  0  0  0  0  0  0  0  0  0
  -23.0014  -13.1761   20.6469 C   0  0  0  0  0  0  0  0  0  0  0  0
  -20.5419  -30.8892   21.8412 C   0  0  0  0  0  0  0  0  0  0  0  0
  -22.6603  -31.4638   20.5786 C   0  0  0  0  0  0  0  0  0  0  0  0
  -22.1982  -29.1114   21.1460 C   0  0  0  0  0  0  0  0  0  0  0  0
  -23.0644  -14.4174   19.7487 C   0  0  1  0  0  0  0  0  0  0  0  0
  -26.6138  -14.7786   18.4433 C   0  0  1  0  0  0  0  0  0  0  0  0
  -21.1633  -29.5264   22.2046 C   0  0  2  0  0  0  0  0  0  0  0  0
  -33.6701  -11.7361   19.4206 C   0  0  0  0  0  0  0  0  0  0  0  0
  -27.7954  -12.6128   22.3514 C   0  0  0  0  0  0  0  0  0  0  0  0
  -30.1995  -11.9356   22.5248 C   0  0  0  0  0  0  0  0  0  0  0  0
  -28.6574  -10.6801   21.0186 C   0  0  0  0  0  0  0  0  0  0  0  0
  -32.6574  -14.3421   16.8400 C   0  0  0  0  0  0  0  0  0  0  0  0
  -27.9398  -24.8474   22.1607 C   0  0  0  0  0  0  0  0  0  0  0  0
  -28.2459  -21.7559   20.0003 C   0  0  0  0  0  0  0  0  0  1  0  0
  -29.9916  -26.2222   20.5746 C   0  0  0  0  0  0  0  0  0  0  0  0
  -29.4020  -13.0073   20.3692 C   0  0  1  0  0  0  0  0  0  0  0  0
  -32.7005  -12.5336   18.5623 C   0  0  2  0  0  0  0  0  0  0  0  0
  -29.0065  -12.0849   21.5567 C   0  0  0  0  0  0  0  0  0  0  0  0
  -19.7377  -27.6962   21.3682 N   0  0  0  0  0  0  0  0  0  0  0  0
  -20.1022  -28.4617   22.4109 N   0  0  0  0  0  0  0  0  0  0  0  0
  -27.8352  -14.5346   19.2132 N   0  0  0  0  0  0  0  0  0  0  0  0
  -23.2084  -30.1697   20.9906 N   0  0  0  0  0  0  0  0  0  0  0  0
  -19.6871  -28.8412   24.7119 N   0  0  0  0  0  0  0  0  0  0  0  0
  -16.8755  -25.4579   23.6900 N   0  0  0  0  0  0  0  0  0  0  0  0
  -24.9991  -28.7679   21.6159 N   0  0  0  0  0  0  0  0  0  0  0  0
  -24.2784  -14.4102   18.9610 N   0  0  0  0  0  0  0  0  0  0  0  0
  -27.8432  -23.8310   21.1386 N   0  0  0  0  0  0  0  0  0  0  0  0
  -30.5290  -12.5183   19.5824 N   0  0  0  0  0  0  0  0  0  0  0  0
  -33.4836  -13.5061   17.7487 N   0  3  0  0  0  0  0  0  0  0  0  0
  -17.5840  -26.8466   25.3717 O   0  0  0  0  0  0  0  0  0  0  0  0
  -25.6992  -15.3653   20.5395 O   0  0  0  0  0  0  0  0  0  0  0  0
  -27.7825  -12.2376   18.8164 O   0  0  0  0  0  0  0  0  0  0  0  0
  -29.2860  -22.2867   22.1092 O   0  0  0  0  0  0  0  0  0  0  0  0
  -31.8798  -14.3778   19.8899 O   0  0  0  0  0  0  0  0  0  0  0  0
  -25.3721  -30.9826   21.0345 O   0  0  0  0  0  0  0  0  0  0  0  0
  -16.3002  -23.0466   18.7010 O   0  0  0  0  0  0  0  0  0  0  0  0
  -28.9789  -20.5341   20.0793 O   0  0  0  0  0  0  0  0  0  1  0  0
  -19.4718  -20.0370   15.3414 F   0  0  0  0  0  0  0  0  0  0  0  0
  -16.4050  -20.2942   18.9377 F   0  0  0  0  0  0  0  0  0  0  0  0
  -30.6568  -25.9592   21.7292 F   0  0  0  0  0  0  0  0  0  0  0  0
  -30.7904  -27.0451   19.8469 F   0  0  0  0  0  0  0  0  0  0  0  0
  1  2  1  0  0  0  0
  1  5  2  0  0  0  0
  2  6  2  0  0  0  0
  3 10  2  0  0  0  0
  3 18  1  0  0  0  0
  4 11  1  0  0  0  0
  4 18  2  0  0  0  0
  5 20  1  0  0  0  0
  6 22  1  0  0  0  0
  7 12  2  0  0  0  0
  7 21  1  0  0  0  0
  8  9  2  0  0  0  0
  8 24  1  0  0  0  0
  9 26  1  0  0  0  0
 10 27  1  0  0  0  0
 11 27  2  0  0  0  0
 12 28  1  0  0  0  0
 13 14  2  0  0  0  0
 13 29  1  0  0  0  0
 14 30  1  0  0  0  0
 15 23  1  0  0  0  0
 15 28  2  0  0  0  0
 16 25  1  0  0  0  0
 16 26  2  0  0  0  0
 17 30  2  0  0  0  0
 17 31  1  0  0  0  0
 18 32  1  0  0  0  0
 19 32  1  0  0  0  0
 19 33  2  0  0  0  0
 19 34  1  0  0  0  0
 20 22  2  0  0  0  0
 20 40  1  0  0  0  0
 21 23  2  0  0  0  0
 21 41  1  0  0  0  0
 22 49  1  0  0  0  0
 23 42  1  0  0  0  0
 24 25  2  0  0  0  0
 24 59  1  0  0  0  0
 25 57  1  0  0  0  0
 26 69  1  0  0  0  0
 27 80  1  0  0  0  0
 28 81  1  0  0  0  0
 29 31  2  0  0  0  0
 29 80  1  0  0  0  0
 30 82  1  0  0  0  0
 31 83  1  0  0  0  0
 32 63  2  0  0  0  0
 33 64  1  0  0  0  0
 33 67  1  0  0  0  0
 34 68  1  0  0  0  0
 34 74  2  0  0  0  0
 35 50  1  0  0  0  0
 35 70  1  0  0  0  0
 35 75  2  0  0  0  0
 36 60  1  0  0  0  0
 36 65  1  0  0  0  0
 36 76  2  0  0  0  0
 37 58  1  0  0  0  0
 37 71  1  0  0  0  0
 37 77  2  0  0  0  0
 38 61  1  0  0  0  0
 38 72  1  0  0  0  0
 38 78  2  0  0  0  0
 39 66  1  0  0  0  0
 39 69  1  0  0  0  0
 39 79  2  0  0  0  0
 40 43  1  0  0  0  0
 41 50  1  0  0  0  0
 42 65  1  0  0  0  0
 43 45  1  0  0  0  0
 44 46  1  0  0  0  0
 44 47  1  0  0  0  0
 45 49  1  0  0  0  0
 46 51  1  0  0  0  0
 47 66  1  0  0  0  0
 48 51  1  0  0  0  0
 48 66  1  0  0  0  0
 49 70  1  0  0  0  0
 50 65  1  0  0  0  0
 51 64  1  0  0  0  0
 52 61  1  0  0  0  0
 53 62  1  0  0  0  0
 54 62  1  0  0  0  0
 55 62  1  0  0  0  0
 56 73  1  0  0  0  0
 57 71  1  0  0  0  0
 58 81  1  0  0  0  0
 59 84  1  0  0  0  0
 59 85  1  0  0  0  0
 60 62  1  0  0  0  0
 60 72  1  0  0  0  0
 61 73  1  0  0  0  0
 63 64  1  0  0  0  0
M  CHG  1  73   1
M  ISO  4  39 100  58 101  69 100  81 101
M  END
> <Batch ID>
0045

> <Smiles>
CNC(C)C(=O)NC(C(=O)N1Cc2cc([101O:1][101CH2:1]C(=O)NCc3cc([100NH:0][100C:0](=O)N4CCCC(n5nc(-c6ccc(Oc7ccc(F)cc7F)cc6)c(C(N)=O)c5N)C4)ccc3C(F)F)ccc2CC1C(=O)NC1CCCc2ccccc21)C(C)(C)C

> <Shape>
0.252

> <Color>
0.070

> <Negative vol penalty>
0.000

$$$$

  -OEChem-04042322213D

 83 91  0     1  0  0  0  0  0999 V2000
  -29.6828  -33.8889   17.9950 C   0  0  0  0  0  0  0  0  0  0  0  0
  -30.0943  -32.8662   18.8437 C   0  0  0  0  0  0  0  0  0  0  0  0
  -32.7068  -17.4221   23.4390 C   0  0  0  0  0  0  0  0  0  0  0  0
  -23.0665   -9.8799   19.9380 C   0  0  0  0  0  0  0  0  0  0  0  0
  -23.8332   -9.8721   22.2291 C   0  0  0  0  0  0  0  0  0  0  0  0
  -28.3967  -33.8715   17.4569 C   0  0  0  0  0  0  0  0  0  0  0  0
  -29.2195  -31.8261   19.1557 C   0  0  0  0  0  0  0  0  0  0  0  0
  -30.6742  -25.9555   20.1176 C   0  0  0  0  0  0  0  0  0  0  0  0
  -31.9335  -18.2968   24.2021 C   0  0  0  0  0  0  0  0  0  0  0  0
  -32.0922  -16.5528   22.5377 C   0  0  0  0  0  0  0  0  0  0  0  0
  -22.3184   -8.7287   20.1844 C   0  0  0  0  0  0  0  0  0  0  0  0
  -23.0851   -8.7210   22.4756 C   0  0  0  0  0  0  0  0  0  0  0  0
  -30.8727  -25.2172   21.2835 C   0  0  0  0  0  0  0  0  0  0  0  0
  -19.8553   -7.9341   23.0837 C   0  0  0  0  0  0  0  0  0  0  0  0
  -19.1016   -7.8916   24.2566 C   0  0  0  0  0  0  0  0  0  0  0  0
  -28.5898  -24.4450   21.1758 C   0  0  0  0  0  0  0  0  0  0  0  0
  -20.3368   -5.9451   24.9797 C   0  0  0  0  0  0  0  0  0  0  0  0
  -23.8240  -10.4516   20.9603 C   0  0  0  0  0  0  0  0  0  0  0  0
  -24.1764  -12.9758   20.8519 C   0  0  0  0  0  0  0  0  0  0  0  0
  -27.5090  -32.8256   17.7547 C   0  0  0  0  0  0  0  0  0  0  0  0
  -29.4268  -25.9527   19.4770 C   0  0  0  0  0  0  0  0  0  0  0  0
  -27.9199  -31.7955   18.6221 C   0  0  0  0  0  0  0  0  0  0  0  0
  -28.3789  -25.1820   20.0005 C   0  0  0  0  0  0  0  0  0  0  0  0
  -30.5455  -18.3022   24.0640 C   0  0  0  0  0  0  0  0  0  0  0  0
  -29.9308  -17.4329   23.1628 C   0  0  0  0  0  0  0  0  0  0  0  0
  -30.7042  -16.5582   22.3996 C   0  0  0  0  0  0  0  0  0  0  0  0
  -22.3276   -8.1493   21.4532 C   0  0  0  0  0  0  0  0  0  0  0  0
  -29.8296  -24.4641   21.8144 C   0  0  0  0  0  0  0  0  0  0  0  0
  -20.8496   -6.9821   22.8587 C   0  0  0  0  0  0  0  0  0  0  0  0
  -19.3424   -6.8971   25.2046 C   0  0  0  0  0  0  0  0  0  0  0  0
  -21.0904   -5.9876   23.8067 C   0  0  0  0  0  0  0  0  0  0  0  0
  -24.5975  -11.6404   20.7063 C   0  0  0  0  0  0  0  0  0  0  0  0
  -25.2708  -13.7223   20.4891 C   0  0  0  0  0  0  0  0  0  0  0  0
  -22.9095  -13.4950   21.2772 C   0  0  0  0  0  0  0  0  0  0  0  0
  -27.2489  -28.1662   18.7980 C   0  0  0  0  0  0  0  0  0  0  0  0
  -25.8334  -25.7251   17.1981 C   0  0  0  0  0  0  0  0  0  0  0  0
  -29.9947  -21.5396   23.9517 C   0  0  0  0  0  0  0  0  0  0  0  0
  -25.4252  -22.3577   16.8230 C   0  0  0  0  0  0  0  0  0  0  0  0
  -30.7419  -14.7434   20.6528 C   0  0  0  0  0  0  0  0  0  0  0  0
  -26.1127  -32.8747   17.1868 C   0  0  0  0  0  0  0  0  0  0  0  0
  -29.2367  -26.7332   18.2054 C   0  0  0  0  0  0  0  0  0  0  0  0
  -27.0265  -25.1292   19.3397 C   0  0  0  0  0  0  0  0  0  0  0  0
  -25.3744  -31.5411   17.2690 C   0  0  0  0  0  0  0  0  0  0  0  0
  -29.6101  -12.3463   18.2758 C   0  0  0  0  0  0  0  0  0  0  0  0
  -25.5344  -30.9271   18.6561 C   0  0  0  0  0  0  0  0  0  0  0  0
  -28.1705  -12.0588   18.7082 C   0  0  0  0  0  0  0  0  0  0  0  0
  -30.5297  -12.5651   19.4759 C   0  0  0  0  0  0  0  0  0  0  0  0
  -28.6300  -13.2909   20.8664 C   0  0  0  0  0  0  0  0  0  0  0  0
  -27.0083  -30.6371   18.9645 C   0  0  1  0  0  0  0  0  0  0  0  0
  -27.7751  -27.0654   17.9210 C   0  0  1  0  0  0  0  0  0  0  0  0
  -27.6530  -13.1278   19.6906 C   0  0  2  0  0  0  0  0  0  0  0  0
  -28.4412  -17.4425   23.0180 C   0  0  0  0  0  0  0  0  0  0  0  0
  -24.1749  -20.6651   15.4558 C   0  0  0  0  0  0  0  0  0  0  0  0
  -23.2947  -26.3256   18.7806 C   0  0  0  0  0  0  0  0  0  0  0  0
  -22.4221  -24.0801   18.0991 C   0  0  0  0  0  0  0  0  0  0  0  0
  -22.9184  -25.8024   16.3641 C   0  0  0  0  0  0  0  0  0  0  0  0
  -27.9310  -21.1757   15.7826 C   0  0  0  0  0  0  0  0  0  0  0  0
  -29.7369  -19.2539   24.8976 C   0  0  0  0  0  0  0  0  0  0  0  0
  -29.2534  -22.5490   23.1013 C   0  0  0  0  0  0  0  0  0  1  0  0
  -24.8312  -24.6532   17.5526 C   0  0  1  0  0  0  0  0  0  0  0  0
  -25.4580  -21.4700   15.5920 C   0  0  2  0  0  0  0  0  0  0  0  0
  -23.3914  -25.2177   17.7129 C   0  0  0  0  0  0  0  0  0  0  0  0
  -25.8607  -11.5412   20.2837 N   0  0  0  0  0  0  0  0  0  0  0  0
  -26.2428  -12.8237   20.1607 N   0  0  0  0  0  0  0  0  0  0  0  0
  -26.8883  -25.9144   18.1021 N   0  0  0  0  0  0  0  0  0  0  0  0
  -29.9778  -13.5940   20.3601 N   0  0  0  0  0  0  0  0  0  0  0  0
  -25.4867  -15.0532   20.4221 N   0  0  0  0  0  0  0  0  0  0  0  0
  -21.8946  -12.5885   21.6129 N   0  0  0  0  0  0  0  0  0  0  0  0
  -30.1010  -15.6671   21.4777 N   0  0  0  0  0  0  0  0  0  0  0  0
  -27.4398  -29.4347   18.2843 N   0  0  0  0  0  0  0  0  0  0  0  0
  -29.2594  -20.3775   24.1253 N   0  0  0  0  0  0  0  0  0  0  0  0
  -24.9580  -23.6213   16.5291 N   0  0  0  0  0  0  0  0  0  0  0  0
  -26.6031  -20.5193   15.6694 N   0  3  0  0  0  0  0  0  0  0  0  0
  -22.6787  -14.7263   21.3413 O   0  0  0  0  0  0  0  0  0  0  0  0
  -26.7083  -27.8853   19.8613 O   0  0  0  0  0  0  0  0  0  0  0  0
  -25.6896  -26.3658   16.1538 O   0  0  0  0  0  0  0  0  0  0  0  0
  -31.1103  -21.7549   24.4175 O   0  0  0  0  0  0  0  0  0  0  0  0
  -25.7752  -21.9680   17.9348 O   0  0  0  0  0  0  0  0  0  0  0  0
  -31.8704  -14.9096   20.1827 O   0  0  0  0  0  0  0  0  0  0  0  0
  -21.5975   -7.0261   21.6941 O   0  0  0  0  0  0  0  0  0  0  0  0
  -30.0204  -23.7431   22.9526 O   0  0  0  0  0  0  0  0  0  1  0  0
  -18.6196   -6.8574   26.3317 F   0  0  0  0  0  0  0  0  0  0  0  0
  -22.0452   -5.0710   23.5967 F   0  0  0  0  0  0  0  0  0  0  0  0
  1  2  1  0  0  0  0
  1  6  2  0  0  0  0
  2  7  2  0  0  0  0
  3  9  2  0  0  0  0
  3 10  1  0  0  0  0
  4 11  2  0  0  0  0
  4 18  1  0  0  0  0
  5 12  1  0  0  0  0
  5 18  2  0  0  0  0
  6 20  1  0  0  0  0
  7 22  1  0  0  0  0
  8 13  2  0  0  0  0
  8 21  1  0  0  0  0
  9 24  1  0  0  0  0
 10 26  2  0  0  0  0
 11 27  1  0  0  0  0
 12 27  2  0  0  0  0
 13 28  1  0  0  0  0
 14 15  2  0  0  0  0
 14 29  1  0  0  0  0
 15 30  1  0  0  0  0
 16 23  1  0  0  0  0
 16 28  2  0  0  0  0
 17 30  2  0  0  0  0
 17 31  1  0  0  0  0
 18 32  1  0  0  0  0
 19 32  1  0  0  0  0
 19 33  2  0  0  0  0
 19 34  1  0  0  0  0
 20 22  2  0  0  0  0
 20 40  1  0  0  0  0
 21 23  2  0  0  0  0
 21 41  1  0  0  0  0
 22 49  1  0  0  0  0
 23 42  1  0  0  0  0
 24 25  2  0  0  0  0
 24 58  1  0  0  0  0
 25 26  1  0  0  0  0
 25 52  1  0  0  0  0
 26 69  1  0  0  0  0
 27 80  1  0  0  0  0
 28 81  1  0  0  0  0
 29 31  2  0  0  0  0
 29 80  1  0  0  0  0
 30 82  1  0  0  0  0
 31 83  1  0  0  0  0
 32 63  2  0  0  0  0
 33 64  1  0  0  0  0
 33 67  1  0  0  0  0
 34 68  1  0  0  0  0
 34 74  2  0  0  0  0
 35 50  1  0  0  0  0
 35 70  1  0  0  0  0
 35 75  2  0  0  0  0
 36 60  1  0  0  0  0
 36 65  1  0  0  0  0
 36 76  2  0  0  0  0
 37 59  1  0  0  0  0
 37 71  1  0  0  0  0
 37 77  2  0  0  0  0
 38 61  1  0  0  0  0
 38 72  1  0  0  0  0
 38 78  2  0  0  0  0
 39 66  1  0  0  0  0
 39 69  1  0  0  0  0
 39 79  2  0  0  0  0
 40 43  1  0  0  0  0
 41 50  1  0  0  0  0
 42 65  1  0  0  0  0
 43 45  1  0  0  0  0
 44 46  1  0  0  0  0
 44 47  1  0  0  0  0
 45 49  1  0  0  0  0
 46 51  1  0  0  0  0
 47 66  1  0  0  0  0
 48 51  1  0  0  0  0
 48 66  1  0  0  0  0
 49 70  1  0  0  0  0
 50 65  1  0  0  0  0
 51 64  1  0  0  0  0
 53 61  1  0  0  0  0
 54 62  1  0  0  0  0
 55 62  1  0  0  0  0
 56 62  1  0  0  0  0
 57 73  1  0  0  0  0
 58 71  1  0  0  0  0
 59 81  1  0  0  0  0
 60 62  1  0  0  0  0
 60 72  1  0  0  0  0
 61 73  1  0  0  0  0
 63 64  1  0  0  0  0
M  CHG  1  73   1
M  ISO  4  39 100  59 101  69 100  81 101
M  END
> <Batch ID>
0045

> <Smiles>
CNC(C)C(=O)NC(C(=O)N1Cc2cc([101O:1][101CH2:1]C(=O)NCc3cccc([100NH:0][100C:0](=O)N4CCCC(n5nc(-c6ccc(Oc7ccc(F)cc7F)cc6)c(C(N)=O)c5N)C4)c3C)ccc2CC1C(=O)NC1CCCc2ccccc21)C(C)(C)C

> <Shape>
0.219

> <Color>
0.192

> <Negative vol penalty>
0.000

$$$$

  -OEChem-04042322213D

 84 92  0     1  0  0  0  0  0999 V2000
  -21.1667  -26.9638   14.6628 C   0  0  0  0  0  0  0  0  0  0  0  0
  -21.2372  -26.0864   15.7402 C   0  0  0  0  0  0  0  0  0  0  0  0
  -23.0728   -9.8694   19.9434 C   0  0  0  0  0  0  0  0  0  0  0  0
  -23.8349   -9.8783   22.2360 C   0  0  0  0  0  0  0  0  0  0  0  0
  -20.9508  -26.4706   13.3767 C   0  0  0  0  0  0  0  0  0  0  0  0
  -21.0907  -24.7154   15.5321 C   0  0  0  0  0  0  0  0  0  0  0  0
  -24.5305  -21.9888   18.0577 C   0  0  0  0  0  0  0  0  0  0  0  0
  -22.3295   -8.7162   20.1949 C   0  0  0  0  0  0  0  0  0  0  0  0
  -23.0916   -8.7251   22.4875 C   0  0  0  0  0  0  0  0  0  0  0  0
  -24.3147  -21.7975   19.4218 C   0  0  0  0  0  0  0  0  0  0  0  0
  -19.3829   -7.9197   21.6495 C   0  0  0  0  0  0  0  0  0  0  0  0
  -18.0756   -7.8727   21.1656 C   0  0  0  0  0  0  0  0  0  0  0  0
  -23.4432  -19.5942   18.9689 C   0  0  0  0  0  0  0  0  0  0  0  0
  -28.9064  -18.4961   22.1739 C   0  0  0  0  0  0  0  0  0  0  0  0
  -30.4922  -18.8698   20.3900 C   0  0  0  0  0  0  0  0  0  0  0  0
  -28.6400  -20.3902   20.6980 C   0  0  0  0  0  0  0  0  0  0  0  0
  -18.6347   -5.9289   19.8442 C   0  0  0  0  0  0  0  0  0  0  0  0
  -23.8255  -10.4505   20.9639 C   0  0  0  0  0  0  0  0  0  0  0  0
  -24.1664  -12.9756   20.8417 C   0  0  0  0  0  0  0  0  0  0  0  0
  -20.8113  -25.0921   13.1515 C   0  0  0  0  0  0  0  0  0  0  0  0
  -24.1935  -20.9867   17.1364 C   0  0  0  0  0  0  0  0  0  0  0  0
  -20.8714  -24.2035   14.2420 C   0  0  0  0  0  0  0  0  0  0  0  0
  -23.6580  -19.7742   17.5939 C   0  0  0  0  0  0  0  0  0  0  0  0
  -30.0524  -18.1139   21.4767 C   0  0  0  0  0  0  0  0  0  0  0  0
  -28.2002  -19.6343   21.7846 C   0  0  0  0  0  0  0  0  0  0  0  0
  -22.3389   -8.1441   21.4669 C   0  0  0  0  0  0  0  0  0  0  0  0
  -23.7683  -20.6013   19.8773 C   0  0  0  0  0  0  0  0  0  0  0  0
  -20.3162   -6.9714   21.2308 C   0  0  0  0  0  0  0  0  0  0  0  0
  -17.7015   -6.8773   20.2629 C   0  0  0  0  0  0  0  0  0  0  0  0
  -19.9421   -5.9759   20.3282 C   0  0  0  0  0  0  0  0  0  0  0  0
  -29.7860  -20.0080   20.0007 C   0  0  0  0  0  0  0  0  0  0  0  0
  -24.5940  -11.6414   20.7046 C   0  0  0  0  0  0  0  0  0  0  0  0
  -25.2580  -13.7252   20.4769 C   0  0  0  0  0  0  0  0  0  0  0  0
  -22.8962  -13.4913   21.2615 C   0  0  0  0  0  0  0  0  0  0  0  0
  -22.1729  -20.7747   14.6919 C   0  0  0  0  0  0  0  0  0  0  0  0
  -23.6051  -17.8960   14.2625 C   0  0  0  0  0  0  0  0  0  0  0  0
  -25.3593  -15.3018   15.6189 C   0  0  0  0  0  0  0  0  0  0  0  0
  -30.7416  -14.7462   20.6592 C   0  0  0  0  0  0  0  0  0  0  0  0
  -24.5745  -20.4566   22.0978 C   0  0  0  0  0  0  0  0  0  1  0  0
  -20.5321  -24.6101   11.7499 C   0  0  0  0  0  0  0  0  0  0  0  0
  -24.4572  -21.1981   15.6708 C   0  0  0  0  0  0  0  0  0  0  0  0
  -23.2980  -18.6591   16.6476 C   0  0  0  0  0  0  0  0  0  0  0  0
  -20.7611  -23.1123   11.5639 C   0  0  0  0  0  0  0  0  0  0  0  0
  -29.6025  -12.3595   18.2753 C   0  0  0  0  0  0  0  0  0  0  0  0
  -20.1193  -22.3285   12.7043 C   0  0  0  0  0  0  0  0  0  0  0  0
  -28.1655  -12.0657   18.7098 C   0  0  0  0  0  0  0  0  0  0  0  0
  -30.5207  -12.5815   19.4752 C   0  0  0  0  0  0  0  0  0  0  0  0
  -28.6200  -13.3130   20.8630 C   0  0  0  0  0  0  0  0  0  0  0  0
  -20.7421  -22.7075   14.0533 C   0  0  1  0  0  0  0  0  0  0  0  0
  -23.5993  -20.3099   14.7750 C   0  0  1  0  0  0  0  0  0  0  0  0
  -27.6448  -13.1372   19.6865 C   0  0  2  0  0  0  0  0  0  0  0  0
  -26.3533  -13.0743   15.0294 C   0  0  0  0  0  0  0  0  0  0  0  0
  -20.8223  -16.6455   14.3053 C   0  0  0  0  0  0  0  0  0  0  0  0
  -21.9050  -14.4178   14.6701 C   0  0  0  0  0  0  0  0  0  0  0  0
  -22.3650  -15.6987   12.5796 C   0  0  0  0  0  0  0  0  0  0  0  0
  -22.9603  -21.2444   23.7904 C   0  0  0  0  0  0  0  0  0  0  0  0
  -28.0930  -16.2128   16.2941 C   0  0  0  0  0  0  0  0  0  0  0  0
  -30.8079  -16.8976   21.8945 C   0  0  0  0  0  0  0  0  0  0  0  0
  -26.9678  -20.0456   22.5370 C   0  0  0  0  0  0  0  0  0  0  0  0
  -23.3584  -16.4937   14.7643 C   0  0  1  0  0  0  0  0  0  0  0  0
  -26.6024  -14.5700   15.1460 C   0  0  2  0  0  0  0  0  0  0  0  0
  -22.1175  -15.8355   14.0977 C   0  0  0  0  0  0  0  0  0  0  0  0
  -25.8585  -11.5457   20.2852 N   0  0  0  0  0  0  0  0  0  0  0  0
  -26.2348  -12.8293   20.1555 N   0  0  0  0  0  0  0  0  0  0  0  0
  -23.5688  -18.9163   15.2236 N   0  0  0  0  0  0  0  0  0  0  0  0
  -29.9706  -13.6105   20.3609 N   0  0  0  0  0  0  0  0  0  0  0  0
  -25.4679  -15.0567   20.4027 N   0  0  0  0  0  0  0  0  0  0  0  0
  -21.8849  -12.5821   21.6004 N   0  0  0  0  0  0  0  0  0  0  0  0
  -22.0280  -22.0635   14.2151 N   0  0  0  0  0  0  0  0  0  0  0  0
  -24.6043  -15.7624   14.5610 N   0  0  0  0  0  0  0  0  0  0  0  0
  -30.1429  -15.6754   21.5012 N   0  0  0  0  0  0  0  0  0  0  0  0
  -25.7844  -20.0828   21.6729 N   0  0  0  0  0  0  0  0  0  0  0  0
  -24.2951  -20.8386   23.3475 N   0  3  0  0  0  0  0  0  0  0  0  0
  -27.7257  -14.7863   16.1012 N   0  3  0  0  0  0  0  0  0  0  0  0
  -22.6596  -14.7219   21.3182 O   0  0  0  0  0  0  0  0  0  0  0  0
  -21.2704  -20.0193   15.0335 O   0  0  0  0  0  0  0  0  0  0  0  0
  -23.8290  -18.0785   13.0633 O   0  0  0  0  0  0  0  0  0  0  0  0
  -25.0835  -15.4468   16.8078 O   0  0  0  0  0  0  0  0  0  0  0  0
  -31.8770  -14.9217   20.2044 O   0  0  0  0  0  0  0  0  0  0  0  0
  -21.6135   -7.0189   21.7128 O   0  0  0  0  0  0  0  0  0  0  0  0
  -23.5561  -20.4122   21.2081 O   0  0  0  0  0  0  0  0  0  1  0  0
  -16.4456   -6.8313   19.7994 F   0  0  0  0  0  0  0  0  0  0  0  0
  -20.8339   -5.0614   19.9231 F   0  0  0  0  0  0  0  0  0  0  0  0
  -30.3280  -20.9400   18.6591 Cl  0  0  0  0  0  0  0  0  0  0  0  0
  1  2  1  0  0  0  0
  1  5  2  0  0  0  0
  2  6  2  0  0  0  0
  3  8  2  0  0  0  0
  3 18  1  0  0  0  0
  4  9  1  0  0  0  0
  4 18  2  0  0  0  0
  5 20  1  0  0  0  0
  6 22  1  0  0  0  0
  7 10  2  0  0  0  0
  7 21  1  0  0  0  0
  8 26  1  0  0  0  0
  9 26  2  0  0  0  0
 10 27  1  0  0  0  0
 11 12  2  0  0  0  0
 11 28  1  0  0  0  0
 12 29  1  0  0  0  0
 13 23  1  0  0  0  0
 13 27  2  0  0  0  0
 14 24  1  0  0  0  0
 14 25  2  0  0  0  0
 15 24  2  0  0  0  0
 15 31  1  0  0  0  0
 16 25  1  0  0  0  0
 16 31  2  0  0  0  0
 17 29  2  0  0  0  0
 17 30  1  0  0  0  0
 18 32  1  0  0  0  0
 19 32  1  0  0  0  0
 19 33  2  0  0  0  0
 19 34  1  0  0  0  0
 20 22  2  0  0  0  0
 20 40  1  0  0  0  0
 21 23  2  0  0  0  0
 21 41  1  0  0  0  0
 22 49  1  0  0  0  0
 23 42  1  0  0  0  0
 24 58  1  0  0  0  0
 25 59  1  0  0  0  0
 26 80  1  0  0  0  0
 27 81  1  0  0  0  0
 28 30  2  0  0  0  0
 28 80  1  0  0  0  0
 29 82  1  0  0  0  0
 30 83  1  0  0  0  0
 31 84  1  0  0  0  0
 32 63  2  0  0  0  0
 33 64  1  0  0  0  0
 33 67  1  0  0  0  0
 34 68  1  0  0  0  0
 34 75  2  0  0  0  0
 35 50  1  0  0  0  0
 35 69  1  0  0  0  0
 35 76  2  0  0  0  0
 36 60  1  0  0  0  0
 36 65  1  0  0  0  0
 36 77  2  0  0  0  0
 37 61  1  0  0  0  0
 37 70  1  0  0  0  0
 37 78  2  0  0  0  0
 38 66  1  0  0  0  0
 38 71  1  0  0  0  0
 38 79  2  0  0  0  0
 39 72  1  0  0  0  0
 39 73  2  0  0  0  0
 39 81  1  0  0  0  0
 40 43  1  0  0  0  0
 41 50  1  0  0  0  0
 42 65  1  0  0  0  0
 43 45  1  0  0  0  0
 44 46  1  0  0  0  0
 44 47  1  0  0  0  0
 45 49  1  0  0  0  0
 46 51  1  0  0  0  0
 47 66  1  0  0  0  0
 48 51  1  0  0  0  0
 48 66  1  0  0  0  0
 49 69  1  0  0  0  0
 50 65  1  0  0  0  0
 51 64  1  0  0  0  0
 52 61  1  0  0  0  0
 53 62  1  0  0  0  0
 54 62  1  0  0  0  0
 55 62  1  0  0  0  0
 56 73  1  0  0  0  0
 57 74  1  0  0  0  0
 58 71  1  0  0  0  0
 59 72  1  0  0  0  0
 60 62  1  0  0  0  0
 60 70  1  0  0  0  0
 61 74  1  0  0  0  0
 63 64  1  0  0  0  0
M  CHG  2  73   1  74   1
M  ISO  4  38 100  39 101  71 100  81 101
M  END
> <Batch ID>
0045

> <Smiles>
CN=[101C:1](NCc1cc(Cl)cc(C[100NH:0][100C:0](=O)N2CCCC(n3nc(-c4ccc(Oc5ccc(F)cc5F)cc4)c(C(N)=O)c3N)C2)c1)[101O:1]c1ccc2c(c1)CN(C(=O)C(NC(=O)C(C)NC)C(C)(C)C)C(C(=O)NC1CCCc3ccccc31)C2

> <Shape>
0.170

> <Color>
0.191

> <Negative vol penalty>
0.000

$$$$

  -OEChem-04042322213D

 84 92  0     1  0  0  0  0  0999 V2000
  -22.3915  -35.9073   23.5058 C   0  0  0  0  0  0  0  0  0  0  0  0
  -23.4937  -35.1480   23.1266 C   0  0  0  0  0  0  0  0  0  0  0  0
  -26.4716  -10.9184   21.2830 C   0  0  0  0  0  0  0  0  0  0  0  0
  -25.6257  -12.2805   19.4758 C   0  0  0  0  0  0  0  0  0  0  0  0
  -21.2679  -35.2821   24.0449 C   0  0  0  0  0  0  0  0  0  0  0  0
  -23.4734  -33.7630   23.2871 C   0  0  0  0  0  0  0  0  0  0  0  0
  -26.0742  -29.5945   19.6313 C   0  0  0  0  0  0  0  0  0  0  0  0
  -25.1652  -10.6404   21.6850 C   0  0  0  0  0  0  0  0  0  0  0  0
  -24.3192  -12.0024   19.8778 C   0  0  0  0  0  0  0  0  0  0  0  0
  -27.2773  -28.8947   19.7137 C   0  0  0  0  0  0  0  0  0  0  0  0
  -22.6453   -8.5993   20.7273 C   0  0  0  0  0  0  0  0  0  0  0  0
  -22.3318   -7.2774   21.0432 C   0  0  0  0  0  0  0  0  0  0  0  0
  -26.1173  -27.0298   20.7114 C   0  0  0  0  0  0  0  0  0  0  0  0
  -30.6681  -20.2735   18.8939 C   0  0  0  0  0  0  0  0  0  0  0  0
  -28.9494  -20.4000   16.7001 C   0  0  0  0  0  0  0  0  0  0  0  0
  -21.7336   -7.9548   23.2839 C   0  0  0  0  0  0  0  0  0  0  0  0
  -26.7019  -11.7385   20.1785 C   0  0  0  0  0  0  0  0  0  0  0  0
  -28.8327  -11.2971   18.8472 C   0  0  0  0  0  0  0  0  0  0  0  0
  -21.2300  -33.8877   24.2032 C   0  0  0  0  0  0  0  0  0  0  0  0
  -24.8834  -29.0204   20.0991 C   0  0  0  0  0  0  0  0  0  0  0  0
  -22.3488  -33.1186   23.8300 C   0  0  0  0  0  0  0  0  0  0  0  0
  -24.9000  -27.7233   20.6315 C   0  0  0  0  0  0  0  0  0  0  0  0
  -30.2436  -21.5113   18.4111 C   0  0  0  0  0  0  0  0  0  0  0  0
  -29.3842  -21.5746   17.3142 C   0  0  0  0  0  0  0  0  0  0  0  0
  -30.2333  -19.0989   18.2798 C   0  0  0  0  0  0  0  0  0  0  0  0
  -24.0890  -11.1823   20.9824 C   0  0  0  0  0  0  0  0  0  0  0  0
  -27.2994  -27.6133   20.2565 C   0  0  0  0  0  0  0  0  0  0  0  0
  -22.5031   -9.5990   21.6897 C   0  0  0  0  0  0  0  0  0  0  0  0
  -21.8759   -6.9551   22.3215 C   0  0  0  0  0  0  0  0  0  0  0  0
  -22.0472   -9.2767   22.9679 C   0  0  0  0  0  0  0  0  0  0  0  0
  -29.3740  -19.1622   17.1829 C   0  0  0  0  0  0  0  0  0  0  0  0
  -28.0511  -12.0266   19.7631 C   0  0  0  0  0  0  0  0  0  0  0  0
  -30.0263  -11.9749   18.7982 C   0  0  0  0  0  0  0  0  0  0  0  0
  -28.5087  -10.1128   18.1068 C   0  0  0  0  0  0  0  0  0  0  0  0
  -22.7789  -29.7536   22.3657 C   0  0  0  0  0  0  0  0  0  0  0  0
  -21.1317  -27.2637   21.0971 C   0  0  0  0  0  0  0  0  0  0  0  0
  -29.6763  -24.9377   19.6740 C   0  0  0  0  0  0  0  0  0  0  0  0
  -21.1970  -24.3539   19.3150 C   0  0  0  0  0  0  0  0  0  0  0  0
  -31.5434  -17.6535   19.8739 C   0  0  0  0  0  0  0  0  0  0  0  0
  -20.0117  -33.2616   24.8343 C   0  0  0  0  0  0  0  0  0  0  0  0
  -23.5896  -29.7779   19.9785 C   0  0  0  0  0  0  0  0  0  0  0  0
  -23.6457  -27.0543   21.1292 C   0  0  0  0  0  0  0  0  0  0  0  0
  -19.9245  -31.7521   24.6239 C   0  0  0  0  0  0  0  0  0  0  0  0
  -32.8650  -14.7576   21.4689 C   0  0  0  0  0  0  0  0  0  0  0  0
  -21.2691  -31.0938   24.9164 C   0  0  0  0  0  0  0  0  0  0  0  0
  -31.8548  -13.6609   21.1240 C   0  0  0  0  0  0  0  0  0  0  0  0
  -32.1820  -16.1030   21.7078 C   0  0  0  0  0  0  0  0  0  0  0  0
  -30.2807  -15.4505   20.2835 C   0  0  0  0  0  0  0  0  0  0  0  0
  -22.3552  -31.6114   23.9656 C   0  0  1  0  0  0  0  0  0  0  0  0
  -22.5225  -29.2973   20.9572 C   0  0  1  0  0  0  0  0  0  0  0  0
  -30.9275  -14.0913   19.9706 C   0  0  2  0  0  0  0  0  0  0  0  0
  -28.9166  -22.8884   16.7795 C   0  0  0  0  0  0  0  0  0  0  0  0
  -19.6986  -22.5254   18.4733 C   0  0  0  0  0  0  0  0  0  0  0  0
  -20.9984  -26.0825   23.9072 C   0  0  0  0  0  0  0  0  0  0  0  0
  -20.3664  -23.8886   22.8798 C   0  0  0  0  0  0  0  0  0  0  0  0
  -18.8848  -25.8741   22.5867 C   0  0  0  0  0  0  0  0  0  0  0  0
  -21.8655  -24.9464   16.4935 C   0  0  0  0  0  0  0  0  0  0  0  0
  -30.7278  -22.7618   19.0863 C   0  0  0  0  0  0  0  0  0  0  0  0
  -28.4007  -25.5055   20.2587 C   0  0  0  0  0  0  0  0  0  1  0  0
  -21.0851  -25.7753   21.3452 C   0  0  1  0  0  0  0  0  0  0  0  0
  -20.3483  -23.8633   18.1560 C   0  0  2  0  0  0  0  0  0  0  0  0
  -20.3578  -25.4182   22.6722 C   0  0  0  0  0  0  0  0  0  0  0  0
  -28.6942  -13.0864   20.2602 N   0  0  0  0  0  0  0  0  0  0  0  0
  -29.8925  -13.0279   19.6546 N   0  0  0  0  0  0  0  0  0  0  0  0
  -22.4066  -27.8381   20.9955 N   0  0  0  0  0  0  0  0  0  0  0  0
  -31.3234  -16.4475   20.5724 N   0  0  0  0  0  0  0  0  0  0  0  0
  -31.1668  -11.7668   18.1065 N   0  0  0  0  0  0  0  0  0  0  0  0
  -27.2380   -9.5461   18.2755 N   0  0  0  0  0  0  0  0  0  0  0  0
  -30.6864  -17.8583   18.7930 N   0  0  0  0  0  0  0  0  0  0  0  0
  -22.2300  -30.9855   22.6668 N   0  0  0  0  0  0  0  0  0  0  0  0
  -29.6364  -23.5539   19.6041 N   0  0  0  0  0  0  0  0  0  0  0  0
  -20.4837  -25.1819   20.1558 N   0  0  0  0  0  0  0  0  0  0  0  0
  -21.1851  -23.7013   16.9335 N   0  3  0  0  0  0  0  0  0  0  0  0
  -29.3277   -9.5637   17.3314 O   0  0  0  0  0  0  0  0  0  0  0  0
  -23.4257  -29.0401   23.1236 O   0  0  0  0  0  0  0  0  0  0  0  0
  -20.0757  -27.8923   20.9900 O   0  0  0  0  0  0  0  0  0  0  0  0
  -30.6149  -25.6439   19.3158 O   0  0  0  0  0  0  0  0  0  0  0  0
  -22.3739  -24.0317   19.4621 O   0  0  0  0  0  0  0  0  0  0  0  0
  -32.4445  -18.4333   20.1931 O   0  0  0  0  0  0  0  0  0  0  0  0
  -22.8141  -10.9110   21.3742 O   0  0  0  0  0  0  0  0  0  0  0  0
  -28.4725  -26.9284   20.3387 O   0  0  0  0  0  0  0  0  0  1  0  0
  -21.5733   -5.6859   22.6243 F   0  0  0  0  0  0  0  0  0  0  0  0
  -21.9075  -10.2330   23.8963 F   0  0  0  0  0  0  0  0  0  0  0  0
  -28.8109  -17.7323   16.3931 Cl  0  0  0  0  0  0  0  0  0  0  0  0
  1  2  1  0  0  0  0
  1  5  2  0  0  0  0
  2  6  2  0  0  0  0
  3  8  2  0  0  0  0
  3 17  1  0  0  0  0
  4  9  1  0  0  0  0
  4 17  2  0  0  0  0
  5 19  1  0  0  0  0
  6 21  1  0  0  0  0
  7 10  2  0  0  0  0
  7 20  1  0  0  0  0
  8 26  1  0  0  0  0
  9 26  2  0  0  0  0
 10 27  1  0  0  0  0
 11 12  2  0  0  0  0
 11 28  1  0  0  0  0
 12 29  1  0  0  0  0
 13 22  1  0  0  0  0
 13 27  2  0  0  0  0
 14 23  1  0  0  0  0
 14 25  2  0  0  0  0
 15 24  1  0  0  0  0
 15 31  2  0  0  0  0
 16 29  2  0  0  0  0
 16 30  1  0  0  0  0
 17 32  1  0  0  0  0
 18 32  1  0  0  0  0
 18 33  2  0  0  0  0
 18 34  1  0  0  0  0
 19 21  2  0  0  0  0
 19 40  1  0  0  0  0
 20 22  2  0  0  0  0
 20 41  1  0  0  0  0
 21 49  1  0  0  0  0
 22 42  1  0  0  0  0
 23 24  2  0  0  0  0
 23 58  1  0  0  0  0
 24 52  1  0  0  0  0
 25 31  1  0  0  0  0
 25 69  1  0  0  0  0
 26 80  1  0  0  0  0
 27 81  1  0  0  0  0
 28 30  2  0  0  0  0
 28 80  1  0  0  0  0
 29 82  1  0  0  0  0
 30 83  1  0  0  0  0
 31 84  1  0  0  0  0
 32 63  2  0  0  0  0
 33 64  1  0  0  0  0
 33 67  1  0  0  0  0
 34 68  1  0  0  0  0
 34 74  2  0  0  0  0
 35 50  1  0  0  0  0
 35 70  1  0  0  0  0
 35 75  2  0  0  0  0
 36 60  1  0  0  0  0
 36 65  1  0  0  0  0
 36 76  2  0  0  0  0
 37 59  1  0  0  0  0
 37 71  1  0  0  0  0
 37 77  2  0  0  0  0
 38 61  1  0  0  0  0
 38 72  1  0  0  0  0
 38 78  2  0  0  0  0
 39 66  1  0  0  0  0
 39 69  1  0  0  0  0
 39 79  2  0  0  0  0
 40 43  1  0  0  0  0
 41 50  1  0  0  0  0
 42 65  1  0  0  0  0
 43 45  1  0  0  0  0
 44 46  1  0  0  0  0
 44 47  1  0  0  0  0
 45 49  1  0  0  0  0
 46 51  1  0  0  0  0
 47 66  1  0  0  0  0
 48 51  1  0  0  0  0
 48 66  1  0  0  0  0
 49 70  1  0  0  0  0
 50 65  1  0  0  0  0
 51 64  1  0  0  0  0
 53 61  1  0  0  0  0
 54 62  1  0  0  0  0
 55 62  1  0  0  0  0
 56 62  1  0  0  0  0
 57 73  1  0  0  0  0
 58 71  1  0  0  0  0
 59 81  1  0  0  0  0
 60 62  1  0  0  0  0
 60 72  1  0  0  0  0
 61 73  1  0  0  0  0
 63 64  1  0  0  0  0
M  CHG  1  73   1
M  ISO  4  39 100  59 101  69 100  81 101
M  END
> <Batch ID>
0045

> <Smiles>
CNC(C)C(=O)NC(C(=O)N1Cc2cc([101O:1][101CH2:1]C(=O)NCc3cc([100NH:0][100C:0](=O)N4CCCC(n5nc(-c6ccc(Oc7ccc(F)cc7F)cc6)c(C(N)=O)c5N)C4)c(Cl)cc3C)ccc2CC1C(=O)NC1CCCc2ccccc21)C(C)(C)C

> <Shape>
0.279

> <Color>
0.094

> <Negative vol penalty>
0.000

$$$$

  -OEChem-04042322213D

 87 96  0     1  0  0  0  0  0999 V2000
  -33.4354  -34.6784   21.5637 C   0  0  0  0  0  0  0  0  0  0  0  0
  -33.2608  -33.3507   21.9405 C   0  0  0  0  0  0  0  0  0  0  0  0
  -22.6718  -10.1809   20.1894 C   0  0  0  0  0  0  0  0  0  0  0  0
  -24.3089   -9.4485   21.8082 C   0  0  0  0  0  0  0  0  0  0  0  0
  -32.3540  -35.4119   21.0776 C   0  0  0  0  0  0  0  0  0  0  0  0
  -32.0042  -32.7559   21.8324 C   0  0  0  0  0  0  0  0  0  0  0  0
  -32.2173  -28.1195   19.8066 C   0  0  0  0  0  0  0  0  0  0  0  0
  -21.9391   -9.0132   20.4020 C   0  0  0  0  0  0  0  0  0  0  0  0
  -23.5762   -8.2808   22.0208 C   0  0  0  0  0  0  0  0  0  0  0  0
  -32.6299  -27.0796   20.6385 C   0  0  0  0  0  0  0  0  0  0  0  0
  -20.8128   -7.3527   23.7304 C   0  0  0  0  0  0  0  0  0  0  0  0
  -20.6148   -6.9448   25.0495 C   0  0  0  0  0  0  0  0  0  0  0  0
  -30.3287  -26.4312   20.9594 C   0  0  0  0  0  0  0  0  0  0  0  0
  -29.7046  -19.2099   22.5608 C   0  0  0  0  0  0  0  0  0  0  0  0
  -31.1331  -17.6894   20.7088 C   0  0  0  0  0  0  0  0  0  0  0  0
  -21.7512   -4.8657   24.5773 C   0  0  0  0  0  0  0  0  0  0  0  0
  -23.8567  -10.3986   20.8924 C   0  0  0  0  0  0  0  0  0  0  0  0
  -24.1812  -12.9288   20.8731 C   0  0  0  0  0  0  0  0  0  0  0  0
  -31.0857  -34.8230   20.9544 C   0  0  0  0  0  0  0  0  0  0  0  0
  -30.8542  -28.3302   19.5532 C   0  0  0  0  0  0  0  0  0  0  0  0
  -30.9045  -33.4826   21.3454 C   0  0  0  0  0  0  0  0  0  0  0  0
  -29.9015  -27.4729   20.1220 C   0  0  0  0  0  0  0  0  0  0  0  0
  -29.5326  -17.8266   22.5134 C   0  0  0  0  0  0  0  0  0  0  0  0
  -31.3050  -19.0728   20.7561 C   0  0  0  0  0  0  0  0  0  0  0  0
  -30.5907  -19.8331   21.6821 C   0  0  0  0  0  0  0  0  0  0  0  0
  -30.2469  -17.0663   21.5875 C   0  0  0  0  0  0  0  0  0  0  0  0
  -22.3913   -8.0631   21.3177 C   0  0  0  0  0  0  0  0  0  0  0  0
  -31.6854  -26.2370   21.2174 C   0  0  0  0  0  0  0  0  0  0  0  0
  -21.4800   -6.5170   22.8347 C   0  0  0  0  0  0  0  0  0  0  0  0
  -21.0840   -5.7014   25.4730 C   0  0  0  0  0  0  0  0  0  0  0  0
  -21.9492   -5.2736   23.2581 C   0  0  0  0  0  0  0  0  0  0  0  0
  -24.6143  -11.6044   20.6728 C   0  0  0  0  0  0  0  0  0  0  0  0
  -25.2628  -13.7002   20.5245 C   0  0  0  0  0  0  0  0  0  0  0  0
  -30.4803  -22.1042   20.6653 C   0  0  0  0  0  0  0  0  0  0  0  0
  -29.6293  -21.8535   19.6513 C   0  0  0  0  0  0  0  0  0  0  0  0
  -22.9144  -13.4180   21.3332 C   0  0  0  0  0  0  0  0  0  0  0  0
  -28.8120  -30.7042   20.0984 C   0  0  0  0  0  0  0  0  0  0  0  0
  -26.7951  -28.8475   18.3643 C   0  0  0  0  0  0  0  0  0  0  0  0
  -25.9646  -25.7318   17.2466 C   0  0  0  0  0  0  0  0  0  0  0  0
  -30.7246  -14.7745   20.6570 C   0  0  0  0  0  0  0  0  0  0  0  0
  -29.9362  -35.6698   20.4681 C   0  0  0  0  0  0  0  0  0  0  0  0
  -30.4270  -29.4400   18.6323 C   0  0  0  0  0  0  0  0  0  0  0  0
  -28.4272  -27.6441   19.8654 C   0  0  0  0  0  0  0  0  0  0  0  0
  -31.1887  -23.4435   20.6711 C   0  0  0  0  0  0  0  0  0  0  0  0
  -28.7212  -34.8550   20.0322 C   0  0  0  0  0  0  0  0  0  0  0  0
  -29.5873  -12.4544   18.2074 C   0  0  0  0  0  0  0  0  0  0  0  0
  -28.3987  -33.7819   21.0673 C   0  0  0  0  0  0  0  0  0  0  0  0
  -28.1565  -12.1354   18.6469 C   0  0  0  0  0  0  0  0  0  0  0  0
  -31.8827  -23.0579   23.0305 C   0  0  0  0  0  0  0  0  0  0  0  0
  -30.5200  -12.6389   19.4030 C   0  0  0  0  0  0  0  0  0  0  0  0
  -31.0664  -21.7720   23.0880 C   0  0  0  0  0  0  0  0  0  0  0  0
  -28.6310  -13.2920   20.8432 C   0  0  0  0  0  0  0  0  0  0  0  0
  -29.5624  -32.7949   21.2195 C   0  0  1  0  0  0  0  0  0  0  0  0
  -28.9828  -29.8785   18.8548 C   0  0  1  0  0  0  0  0  0  0  0  0
  -27.6406  -13.1616   19.6746 C   0  0  2  0  0  0  0  0  0  0  0  0
  -31.2665  -24.0582   22.0643 C   0  0  1  0  0  0  0  0  0  1  0  0
  -28.5762  -17.1858   23.4661 C   0  0  0  0  0  0  0  0  0  0  0  0
  -32.2606  -19.7147   19.8036 C   0  0  0  0  0  0  0  0  0  0  0  0
  -28.8636  -20.5871   19.5106 C   0  0  0  0  0  0  0  0  0  0  0  0
  -24.2420  -24.5239   15.8788 C   0  0  0  0  0  0  0  0  0  0  0  0
  -24.8178  -29.0512   20.6791 C   0  0  0  0  0  0  0  0  0  0  0  0
  -23.5767  -27.1106   19.6983 C   0  0  0  0  0  0  0  0  0  0  0  0
  -23.7874  -29.2349   18.4078 C   0  0  0  0  0  0  0  0  0  0  0  0
  -27.9893  -24.8194   15.2903 C   0  0  0  0  0  0  0  0  0  0  0  0
  -25.8127  -27.7472   18.6852 C   0  0  1  0  0  0  0  0  0  0  0  0
  -25.5925  -25.2230   15.8657 C   0  0  2  0  0  0  0  0  0  0  0  0
  -24.5262  -28.2837   19.3742 C   0  0  0  0  0  0  0  0  0  0  0  0
  -25.8729  -11.5347   20.2311 N   0  0  0  0  0  0  0  0  0  0  0  0
  -26.2399  -12.8250   20.1508 N   0  0  0  0  0  0  0  0  0  0  0  0
  -30.7537  -21.2469   21.7449 N   0  0  0  0  0  0  0  0  0  0  0  0
  -28.0590  -28.7475   18.9629 N   0  0  0  0  0  0  0  0  0  0  0  0
  -29.9689  -13.6283   20.3315 N   0  0  0  0  0  0  0  0  0  0  0  0
  -25.4639  -15.0349   20.5040 N   0  0  0  0  0  0  0  0  0  0  0  0
  -21.9136  -12.4887   21.6478 N   0  0  0  0  0  0  0  0  0  0  0  0
  -30.0848  -15.6601   21.5235 N   0  0  0  0  0  0  0  0  0  0  0  0
  -29.5757  -31.8556   20.1186 N   0  0  0  0  0  0  0  0  0  0  0  0
  -25.5690  -27.0395   17.4329 N   0  0  0  0  0  0  0  0  0  0  0  0
  -26.6167  -24.2576   15.3759 N   0  3  0  0  0  0  0  0  0  0  0  0
  -22.6716  -14.6435   21.4458 O   0  0  0  0  0  0  0  0  0  0  0  0
  -28.0431  -30.3254   20.9742 O   0  0  0  0  0  0  0  0  0  0  0  0
  -26.4561  -29.7583   17.6046 O   0  0  0  0  0  0  0  0  0  0  0  0
  -26.5447  -25.0373   18.0784 O   0  0  0  0  0  0  0  0  0  0  0  0
  -31.8451  -14.9702   20.1792 O   0  0  0  0  0  0  0  0  0  0  0  0
  -21.6765   -6.9237   21.5256 O   0  0  0  0  0  0  0  0  0  0  0  0
  -32.0855  -25.2216   22.0302 O   0  0  0  0  0  0  0  0  0  1  0  0
  -20.8951   -5.3105   26.7401 F   0  0  0  0  0  0  0  0  0  0  0  0
  -22.5919   -4.4669   22.4025 F   0  0  0  0  0  0  0  0  0  0  0  0
  1  2  1  0  0  0  0
  1  5  2  0  0  0  0
  2  6  2  0  0  0  0
  3  8  2  0  0  0  0
  3 17  1  0  0  0  0
  4  9  1  0  0  0  0
  4 17  2  0  0  0  0
  5 19  1  0  0  0  0
  6 21  1  0  0  0  0
  7 10  2  0  0  0  0
  7 20  1  0  0  0  0
  8 27  1  0  0  0  0
  9 27  2  0  0  0  0
 10 28  1  0  0  0  0
 11 12  2  0  0  0  0
 11 29  1  0  0  0  0
 12 30  1  0  0  0  0
 13 22  1  0  0  0  0
 13 28  2  0  0  0  0
 14 23  2  0  0  0  0
 14 25  1  0  0  0  0
 15 24  1  0  0  0  0
 15 26  2  0  0  0  0
 16 30  2  0  0  0  0
 16 31  1  0  0  0  0
 17 32  1  0  0  0  0
 18 32  1  0  0  0  0
 18 33  2  0  0  0  0
 18 36  1  0  0  0  0
 19 21  2  0  0  0  0
 19 41  1  0  0  0  0
 20 22  2  0  0  0  0
 20 42  1  0  0  0  0
 21 53  1  0  0  0  0
 22 43  1  0  0  0  0
 23 26  1  0  0  0  0
 23 57  1  0  0  0  0
 24 25  2  0  0  0  0
 24 58  1  0  0  0  0
 25 70  1  0  0  0  0
 26 75  1  0  0  0  0
 27 84  1  0  0  0  0
 28 85  1  0  0  0  0
 29 31  2  0  0  0  0
 29 84  1  0  0  0  0
 30 86  1  0  0  0  0
 31 87  1  0  0  0  0
 32 68  2  0  0  0  0
 33 69  1  0  0  0  0
 33 73  1  0  0  0  0
 34 35  2  0  0  0  0
 34 44  1  0  0  0  0
 34 70  1  0  0  0  0
 35 59  1  0  0  0  0
 36 74  1  0  0  0  0
 36 79  2  0  0  0  0
 37 54  1  0  0  0  0
 37 76  1  0  0  0  0
 37 80  2  0  0  0  0
 38 65  1  0  0  0  0
 38 71  1  0  0  0  0
 38 81  2  0  0  0  0
 39 66  1  0  0  0  0
 39 77  1  0  0  0  0
 39 82  2  0  0  0  0
 40 72  1  0  0  0  0
 40 75  1  0  0  0  0
 40 83  2  0  0  0  0
 41 45  1  0  0  0  0
 42 54  1  0  0  0  0
 43 71  1  0  0  0  0
 44 56  1  0  0  0  0
 45 47  1  0  0  0  0
 46 48  1  0  0  0  0
 46 50  1  0  0  0  0
 47 53  1  0  0  0  0
 48 55  1  0  0  0  0
 49 51  1  0  0  0  0
 49 56  1  0  0  0  0
 50 72  1  0  0  0  0
 51 70  1  0  0  0  0
 52 55  1  0  0  0  0
 52 72  1  0  0  0  0
 53 76  1  0  0  0  0
 54 71  1  0  0  0  0
 55 69  1  0  0  0  0
 56 85  1  0  0  0  0
 60 66  1  0  0  0  0
 61 67  1  0  0  0  0
 62 67  1  0  0  0  0
 63 67  1  0  0  0  0
 64 78  1  0  0  0  0
 65 67  1  0  0  0  0
 65 77  1  0  0  0  0
 66 78  1  0  0  0  0
 68 69  1  0  0  0  0
M  CHG  1  78   1
M  ISO  4  40 100  56 101  75 100  85 101
M  END
> <Batch ID>
0045

> <Smiles>
CC=C1C[101CH:1]([101O:1]c2ccc3c(c2)CN(C(=O)C(NC(=O)C(C)NC)C(C)(C)C)C(C(=O)NC2CCCc4ccccc42)C3)CCN1c1cc(C)c([100NH:0][100C:0](=O)N2CCCC(n3nc(-c4ccc(Oc5ccc(F)cc5F)cc4)c(C(N)=O)c3N)C2)cc1C

> <Shape>
0.288

> <Color>
0.196

> <Negative vol penalty>
0.000

$$$$

  -OEChem-04042322213D

 87 95  0     1  0  0  0  0  0999 V2000
  -30.9783   -2.8971   38.1466 C   0  0  0  0  0  0  0  0  0  0  0  0
  -31.5896   -3.2515   36.9481 C   0  0  0  0  0  0  0  0  0  0  0  0
  -23.1910   -9.8190   19.9316 C   0  0  0  0  0  0  0  0  0  0  0  0
  -23.5683   -9.9995   22.3111 C   0  0  0  0  0  0  0  0  0  0  0  0
  -29.6163   -2.6004   38.1720 C   0  0  0  0  0  0  0  0  0  0  0  0
  -30.8392   -3.3082   35.7741 C   0  0  0  0  0  0  0  0  0  0  0  0
  -31.5796   -7.2156   31.1169 C   0  0  0  0  0  0  0  0  0  0  0  0
  -22.4248   -8.6723   20.1400 C   0  0  0  0  0  0  0  0  0  0  0  0
  -22.8020   -8.8528   22.5196 C   0  0  0  0  0  0  0  0  0  0  0  0
  -32.2213   -7.0958   29.8850 C   0  0  0  0  0  0  0  0  0  0  0  0
  -23.2036   -5.5061   22.2557 C   0  0  0  0  0  0  0  0  0  0  0  0
  -23.7018   -4.5449   23.1351 C   0  0  0  0  0  0  0  0  0  0  0  0
  -30.1145   -6.5431   28.8481 C   0  0  0  0  0  0  0  0  0  0  0  0
  -30.5657  -14.1925   25.9493 C   0  0  0  0  0  0  0  0  0  0  0  0
  -21.7446   -4.8046   24.5277 C   0  0  0  0  0  0  0  0  0  0  0  0
  -29.5533  -12.9951   27.7874 C   0  0  0  0  0  0  0  0  0  0  0  0
  -23.7628  -10.4826   21.0171 C   0  0  0  0  0  0  0  0  0  0  0  0
  -24.1012  -12.9993   20.7735 C   0  0  0  0  0  0  0  0  0  0  0  0
  -28.8469   -2.6629   36.9995 C   0  0  0  0  0  0  0  0  0  0  0  0
  -30.2001   -6.9890   31.2259 C   0  0  0  0  0  0  0  0  0  0  0  0
  -29.4659   -3.0107   35.7837 C   0  0  0  0  0  0  0  0  0  0  0  0
  -29.4573   -6.6632   30.0821 C   0  0  0  0  0  0  0  0  0  0  0  0
  -30.8447  -12.9822   25.3146 C   0  0  0  0  0  0  0  0  0  0  0  0
  -30.4780  -11.7784   25.9162 C   0  0  0  0  0  0  0  0  0  0  0  0
  -22.2302   -8.1891   21.4340 C   0  0  0  0  0  0  0  0  0  0  0  0
  -31.4893   -6.7567   28.7509 C   0  0  0  0  0  0  0  0  0  0  0  0
  -21.9760   -6.1167   22.5123 C   0  0  0  0  0  0  0  0  0  0  0  0
  -22.9723   -4.1941   24.2711 C   0  0  0  0  0  0  0  0  0  0  0  0
  -21.2465   -5.7659   23.6482 C   0  0  0  0  0  0  0  0  0  0  0  0
  -29.9200  -14.1990   27.1858 C   0  0  0  0  0  0  0  0  0  0  0  0
  -29.8323  -11.7848   27.1526 C   0  0  0  0  0  0  0  0  0  0  0  0
  -24.5548  -11.6670   20.8024 C   0  0  0  0  0  0  0  0  0  0  0  0
  -25.2324  -13.7421   20.5386 C   0  0  0  0  0  0  0  0  0  0  0  0
  -22.7759  -13.5191   20.9438 C   0  0  0  0  0  0  0  0  0  0  0  0
  -28.3862   -4.9093   32.8033 C   0  0  0  0  0  0  0  0  0  0  0  0
  -25.9672   -6.7340   31.6452 C   0  0  0  0  0  0  0  0  0  0  0  0
  -24.8702   -8.9187   29.2639 C   0  0  0  0  0  0  0  0  0  0  0  0
  -31.0469  -12.7530   21.5702 C   0  0  0  0  0  0  0  0  0  0  0  0
  -27.3877   -2.2875   37.0679 C   0  0  0  0  0  0  0  0  0  0  0  0
  -29.5183   -7.1484   32.5571 C   0  0  0  0  0  0  0  0  0  0  0  0
  -27.9706   -6.4295   30.1420 C   0  0  0  0  0  0  0  0  0  0  0  0
  -26.5858   -2.7351   35.8486 C   0  0  0  0  0  0  0  0  0  0  0  0
  -29.5207  -13.4701   18.4345 C   0  0  0  0  0  0  0  0  0  0  0  0
  -27.3292   -2.3858   34.5631 C   0  0  0  0  0  0  0  0  0  0  0  0
  -28.0340  -13.2095   18.6831 C   0  0  0  0  0  0  0  0  0  0  0  0
  -30.4018  -12.4809   19.1940 C   0  0  0  0  0  0  0  0  0  0  0  0
  -28.6477  -12.1379   20.8908 C   0  0  0  0  0  0  0  0  0  0  0  0
  -28.6804   -3.1075   34.4938 C   0  0  1  0  0  0  0  0  0  0  0  0
  -28.1967   -6.3915   32.6460 C   0  0  1  0  0  0  0  0  0  0  0  0
  -27.7204  -13.1455   20.1901 C   0  0  2  0  0  0  0  0  0  0  0  0
  -23.3209  -10.5207   28.1104 C   0  0  0  0  0  0  0  0  0  0  0  0
  -24.7397   -4.1746   30.5259 C   0  0  0  0  0  0  0  0  0  0  0  0
  -23.2813   -5.5945   29.0680 C   0  0  0  0  0  0  0  0  0  0  0  0
  -23.0972   -5.7581   31.5503 C   0  0  0  0  0  0  0  0  0  0  0  0
  -34.7174   -8.6165   25.6517 C   0  0  0  0  0  0  0  0  0  0  0  0
  -33.6706   -6.4237   25.0701 C   0  0  0  0  0  0  0  0  0  0  0  0
  -25.9066  -11.2176   30.8131 C   0  0  0  0  0  0  0  0  0  0  0  0
  -31.5361  -13.0043   23.9903 C   0  0  0  0  0  0  0  0  0  0  0  0
  -30.7860  -10.4854   25.2203 C   0  0  0  0  0  0  0  0  0  0  0  0
  -32.2200   -8.4404   25.2031 C   0  0  0  0  0  0  0  0  0  0  0  0
  -33.2653   -7.4521   27.3303 C   0  0  0  0  0  0  0  0  0  1  0  0
  -25.1262   -6.7239   30.3916 C   0  0  1  0  0  0  0  0  0  0  0  0
  -24.1191  -10.2335   29.3726 C   0  0  2  0  0  0  0  0  0  0  0  0
  -24.0894   -5.5652   30.3828 C   0  0  0  0  0  0  0  0  0  0  0  0
  -33.4554   -7.7517   25.8267 C   0  0  0  0  0  0  0  0  0  0  0  0
  -25.8715  -11.5661   20.6018 N   0  0  0  0  0  0  0  0  0  0  0  0
  -26.2549  -12.8445   20.4445 N   0  0  0  0  0  0  0  0  0  0  0  0
  -27.3507   -6.5911   31.4676 N   0  0  0  0  0  0  0  0  0  0  0  0
  -30.0547  -12.4697   20.6172 N   0  0  0  0  0  0  0  0  0  0  0  0
  -25.4422  -15.0690   20.4055 N   0  0  0  0  0  0  0  0  0  0  0  0
  -21.7292  -12.6167   21.1774 N   0  0  0  0  0  0  0  0  0  0  0  0
  -28.4951   -4.4922   34.1162 N   0  0  0  0  0  0  0  0  0  0  0  0
  -24.5366   -8.0541   30.2849 N   0  0  0  0  0  0  0  0  0  0  0  0
  -30.6322  -12.7276   22.8961 N   0  0  0  0  0  0  0  0  0  0  0  0
  -25.0723  -11.3579   29.5920 N   0  3  0  0  0  0  0  0  0  0  0  0
  -31.9292   -9.7527   25.8302 N   0  3  0  0  0  0  0  0  0  0  0  0
  -22.5245  -14.7460   20.8740 O   0  0  0  0  0  0  0  0  0  0  0  0
  -28.4289   -4.1965   31.8074 O   0  0  0  0  0  0  0  0  0  0  0  0
  -25.4177   -6.8710   32.7410 O   0  0  0  0  0  0  0  0  0  0  0  0
  -25.6699   -8.6810   28.3614 O   0  0  0  0  0  0  0  0  0  0  0  0
  -32.2146  -13.0148   21.2620 O   0  0  0  0  0  0  0  0  0  0  0  0
  -21.4824   -7.0703   21.6378 O   0  0  0  0  0  0  0  0  0  0  0  0
  -32.1132   -6.6385   27.5473 O   0  0  0  0  0  0  0  0  0  1  0  0
  -23.4501   -3.2699   25.1147 F   0  0  0  0  0  0  0  0  0  0  0  0
  -20.0659   -6.3482   23.8994 F   0  0  0  0  0  0  0  0  0  0  0  0
  -29.5779  -15.6932   27.9685 Cl  0  0  0  0  0  0  0  0  0  0  0  0
  -29.3623  -10.3165   27.9301 Cl  0  0  0  0  0  0  0  0  0  0  0  0
  1  2  1  0  0  0  0
  1  5  2  0  0  0  0
  2  6  2  0  0  0  0
  3  8  2  0  0  0  0
  3 17  1  0  0  0  0
  4  9  1  0  0  0  0
  4 17  2  0  0  0  0
  5 19  1  0  0  0  0
  6 21  1  0  0  0  0
  7 10  2  0  0  0  0
  7 20  1  0  0  0  0
  8 25  1  0  0  0  0
  9 25  2  0  0  0  0
 10 26  1  0  0  0  0
 11 12  2  0  0  0  0
 11 27  1  0  0  0  0
 12 28  1  0  0  0  0
 13 22  1  0  0  0  0
 13 26  2  0  0  0  0
 14 23  1  0  0  0  0
 14 30  2  0  0  0  0
 15 28  2  0  0  0  0
 15 29  1  0  0  0  0
 16 30  1  0  0  0  0
 16 31  2  0  0  0  0
 17 32  1  0  0  0  0
 18 32  1  0  0  0  0
 18 33  2  0  0  0  0
 18 34  1  0  0  0  0
 19 21  2  0  0  0  0
 19 39  1  0  0  0  0
 20 22  2  0  0  0  0
 20 40  1  0  0  0  0
 21 48  1  0  0  0  0
 22 41  1  0  0  0  0
 23 24  2  0  0  0  0
 23 58  1  0  0  0  0
 24 31  1  0  0  0  0
 24 59  1  0  0  0  0
 25 82  1  0  0  0  0
 26 83  1  0  0  0  0
 27 29  2  0  0  0  0
 27 82  1  0  0  0  0
 28 84  1  0  0  0  0
 29 85  1  0  0  0  0
 30 86  1  0  0  0  0
 31 87  1  0  0  0  0
 32 66  2  0  0  0  0
 33 67  1  0  0  0  0
 33 70  1  0  0  0  0
 34 71  1  0  0  0  0
 34 77  2  0  0  0  0
 35 49  1  0  0  0  0
 35 72  1  0  0  0  0
 35 78  2  0  0  0  0
 36 62  1  0  0  0  0
 36 68  1  0  0  0  0
 36 79  2  0  0  0  0
 37 63  1  0  0  0  0
 37 73  1  0  0  0  0
 37 80  2  0  0  0  0
 38 69  1  0  0  0  0
 38 74  1  0  0  0  0
 38 81  2  0  0  0  0
 39 42  1  0  0  0  0
 40 49  1  0  0  0  0
 41 68  1  0  0  0  0
 42 44  1  0  0  0  0
 43 45  1  0  0  0  0
 43 46  1  0  0  0  0
 44 48  1  0  0  0  0
 45 50  1  0  0  0  0
 46 69  1  0  0  0  0
 47 50  1  0  0  0  0
 47 69  1  0  0  0  0
 48 72  1  0  0  0  0
 49 68  1  0  0  0  0
 50 67  1  0  0  0  0
 51 63  1  0  0  0  0
 52 64  1  0  0  0  0
 53 64  1  0  0  0  0
 54 64  1  0  0  0  0
 55 65  1  0  0  0  0
 56 65  1  0  0  0  0
 57 75  1  0  0  0  0
 58 74  1  0  0  0  0
 59 76  1  0  0  0  0
 60 65  1  0  0  0  0
 60 76  1  0  0  0  0
 61 65  1  0  0  0  0
 61 83  1  0  0  0  0
 62 64  1  0  0  0  0
 62 73  1  0  0  0  0
 63 75  1  0  0  0  0
 66 67  1  0  0  0  0
M  CHG  2  75   1  76   1
M  ISO  4  38 100  61 101  74 100  83 101
M  END
> <Batch ID>
0045

> <Smiles>
CNC(C)C(=O)NC(C(=O)N1Cc2cc([101O:1][101CH2:1]C(C)(C)CNCc3c(Cl)cc(Cl)cc3C[100NH:0][100C:0](=O)N3CCCC(n4nc(-c5ccc(Oc6ccc(F)cc6F)cc5)c(C(N)=O)c4N)C3)ccc2CC1C(=O)NC1CCCc2ccccc21)C(C)(C)C

> <Shape>
0.138

> <Color>
0.178

> <Negative vol penalty>
0.000

$$$$

  -OEChem-04042322213D

 83 91  0     1  0  0  0  0  0999 V2000
  -28.9228  -14.6872   21.4112 C   0  0  0  0  0  0  0  0  0  0  0  0
  -28.1230  -15.6110   22.0762 C   0  0  0  0  0  0  0  0  0  0  0  0
  -18.7984  -27.9682   22.6748 C   0  0  0  0  0  0  0  0  0  0  0  0
  -21.5950  -16.4074   20.6071 C   0  0  0  0  0  0  0  0  0  0  0  0
  -22.7741  -17.8905   22.1063 C   0  0  0  0  0  0  0  0  0  0  0  0
  -20.0598  -28.2105   23.2187 C   0  0  0  0  0  0  0  0  0  0  0  0
  -30.1791  -15.0661   20.9400 C   0  0  0  0  0  0  0  0  0  0  0  0
  -28.5795  -16.9141   22.2714 C   0  0  0  0  0  0  0  0  0  0  0  0
  -25.2160  -22.0319   22.2719 C   0  0  0  0  0  0  0  0  0  0  0  0
  -18.5244  -26.7426   22.0677 C   0  0  0  0  0  0  0  0  0  0  0  0
  -22.7895  -15.7458   20.3222 C   0  0  0  0  0  0  0  0  0  0  0  0
  -23.9685  -17.2289   21.8214 C   0  0  0  0  0  0  0  0  0  0  0  0
  -24.6785  -22.8010   23.3031 C   0  0  0  0  0  0  0  0  0  0  0  0
  -24.7625  -13.4245   21.7890 C   0  0  0  0  0  0  0  0  0  0  0  0
  -24.7444  -12.0298   21.7780 C   0  0  0  0  0  0  0  0  0  0  0  0
  -26.5871  -24.2721   23.1927 C   0  0  0  0  0  0  0  0  0  0  0  0
  -25.4487  -12.0389   19.4669 C   0  0  0  0  0  0  0  0  0  0  0  0
  -21.5873  -17.4798   21.4991 C   0  0  0  0  0  0  0  0  0  0  0  0
  -21.0472  -27.2274   23.1553 C   0  0  0  0  0  0  0  0  0  0  0  0
  -19.4362  -17.8596   22.8166 C   0  0  0  0  0  0  0  0  0  0  0  0
  -30.6473  -16.3771   21.1209 C   0  0  0  0  0  0  0  0  0  0  0  0
  -26.4504  -22.3715   21.6998 C   0  0  0  0  0  0  0  0  0  0  0  0
  -29.8438  -17.3105   21.8033 C   0  0  0  0  0  0  0  0  0  0  0  0
  -27.1369  -23.5072   22.1526 C   0  0  0  0  0  0  0  0  0  0  0  0
  -20.7733  -26.0018   22.5481 C   0  0  0  0  0  0  0  0  0  0  0  0
  -19.5119  -25.7594   22.0043 C   0  0  0  0  0  0  0  0  0  0  0  0
  -23.9762  -16.1565   20.9293 C   0  0  0  0  0  0  0  0  0  0  0  0
  -25.3654  -23.9196   23.7656 C   0  0  0  0  0  0  0  0  0  0  0  0
  -25.1236  -14.1264   20.6389 C   0  0  0  0  0  0  0  0  0  0  0  0
  -25.0875  -11.3370   20.6170 C   0  0  0  0  0  0  0  0  0  0  0  0
  -25.4668  -13.4336   19.4779 C   0  0  0  0  0  0  0  0  0  0  0  0
  -20.3539  -18.1640   21.7935 C   0  0  0  0  0  0  0  0  0  0  0  0
  -18.4410  -18.7955   22.6748 C   0  0  0  0  0  0  0  0  0  0  0  0
  -22.3802  -27.5156   23.7445 C   0  0  0  0  0  0  0  0  0  0  0  0
  -19.4794  -16.8236   23.8068 C   0  0  0  0  0  0  0  0  0  0  0  0
  -29.2824  -20.9470   21.4667 C   0  0  0  0  0  0  0  0  0  0  0  0
  -29.9767  -23.5006   19.5906 C   0  0  0  0  0  0  0  0  0  0  0  0
  -29.3055  -26.7358   18.7363 C   0  0  0  0  0  0  0  0  0  0  0  0
  -18.3117  -24.2953   20.3423 C   0  0  0  0  0  0  0  0  0  0  0  0
  -32.0317  -16.7271   20.6356 C   0  0  0  0  0  0  0  0  0  0  0  0
  -27.0038  -21.5470   20.5700 C   0  0  0  0  0  0  0  0  0  0  0  0
  -28.4558  -23.9261   21.5582 C   0  0  0  0  0  0  0  0  0  0  0  0
  -32.2865  -18.2299   20.5533 C   0  0  0  0  0  0  0  0  0  0  0  0
  -16.3067  -21.5201   19.3648 C   0  0  0  0  0  0  0  0  0  0  0  0
  -31.8043  -18.9235   21.8235 C   0  0  0  0  0  0  0  0  0  0  0  0
  -17.0302  -20.3174   19.9749 C   0  0  0  0  0  0  0  0  0  0  0  0
  -17.2883  -22.5788   18.8654 C   0  0  0  0  0  0  0  0  0  0  0  0
  -19.0019  -21.8206   20.4646 C   0  0  0  0  0  0  0  0  0  0  0  0
  -30.2936  -18.7402   22.0126 C   0  0  1  0  0  0  0  0  0  0  0  0
  -28.5143  -21.6897   20.4103 C   0  0  1  0  0  0  0  0  0  0  0  0
  -18.0535  -20.7565   21.0406 C   0  0  2  0  0  0  0  0  0  0  0  0
  -21.8342  -24.9475   22.4804 C   0  0  0  0  0  0  0  0  0  0  0  0
  -30.0646  -28.5639   17.1939 C   0  0  0  0  0  0  0  0  0  0  0  0
  -32.4094  -23.9861   21.3672 C   0  0  0  0  0  0  0  0  0  0  0  0
  -32.5682  -26.2903   20.4008 C   0  0  0  0  0  0  0  0  0  0  0  0
  -32.8250  -24.2986   18.9209 C   0  0  0  0  0  0  0  0  0  0  0  0
  -26.6635  -26.8721   17.4097 C   0  0  0  0  0  0  0  0  0  0  0  0
  -24.0453  -26.8350   25.4534 C   0  0  0  0  0  0  0  0  0  0  0  0
  -25.1641  -26.0621   24.7781 C   0  0  0  0  0  0  0  0  0  1  0  0
  -30.5386  -24.8812   19.8293 C   0  0  1  0  0  0  0  0  0  0  0  0
  -29.1047  -27.4001   17.3862 C   0  0  2  0  0  0  0  0  0  0  0  0
  -32.0614  -24.8553   20.1423 C   0  0  0  0  0  0  0  0  0  0  0  0
  -19.9753  -19.2112   21.0560 N   0  0  0  0  0  0  0  0  0  0  0  0
  -18.8086  -19.5731   21.6163 N   0  0  0  0  0  0  0  0  0  0  0  0
  -28.9587  -23.0841   20.4601 N   0  0  0  0  0  0  0  0  0  0  0  0
  -18.2238  -22.9489   19.9296 N   0  0  0  0  0  0  0  0  0  0  0  0
  -17.2960  -19.0210   23.3535 N   0  0  0  0  0  0  0  0  0  0  0  0
  -20.5741  -15.9483   23.8106 N   0  0  0  0  0  0  0  0  0  0  0  0
  -19.2113  -24.5217   21.3835 N   0  0  0  0  0  0  0  0  0  0  0  0
  -22.7913  -26.6700   24.7673 N   0  0  0  0  0  0  0  0  0  0  0  0
  -29.5629  -19.6340   21.1400 N   0  0  0  0  0  0  0  0  0  0  0  0
  -30.1828  -25.6748   18.6580 N   0  0  0  0  0  0  0  0  0  0  0  0
  -27.7115  -27.9150   17.2645 N   0  3  0  0  0  0  0  0  0  0  0  0
  -23.0272  -28.4720   23.3258 O   0  0  0  0  0  0  0  0  0  0  0  0
  -18.5662  -16.6681   24.6526 O   0  0  0  0  0  0  0  0  0  0  0  0
  -29.5986  -21.5231   22.5011 O   0  0  0  0  0  0  0  0  0  0  0  0
  -30.4195  -22.8196   18.6623 O   0  0  0  0  0  0  0  0  0  0  0  0
  -28.7435  -27.1218   19.7589 O   0  0  0  0  0  0  0  0  0  0  0  0
  -17.6185  -25.1777   19.8296 O   0  0  0  0  0  0  0  0  0  0  0  0
  -25.1419  -15.5110   20.6517 O   0  0  0  0  0  0  0  0  0  0  0  0
  -24.8433  -24.6716   24.7725 O   0  0  0  0  0  0  0  0  0  1  0  0
  -25.0715   -9.9977   20.6070 F   0  0  0  0  0  0  0  0  0  0  0  0
  -25.8157  -14.1024   18.3704 F   0  0  0  0  0  0  0  0  0  0  0  0
  1  2  1  0  0  0  0
  1  7  2  0  0  0  0
  2  8  2  0  0  0  0
  3  6  2  0  0  0  0
  3 10  1  0  0  0  0
  4 11  2  0  0  0  0
  4 18  1  0  0  0  0
  5 12  1  0  0  0  0
  5 18  2  0  0  0  0
  6 19  1  0  0  0  0
  7 21  1  0  0  0  0
  8 23  1  0  0  0  0
  9 13  2  0  0  0  0
  9 22  1  0  0  0  0
 10 26  2  0  0  0  0
 11 27  1  0  0  0  0
 12 27  2  0  0  0  0
 13 28  1  0  0  0  0
 14 15  2  0  0  0  0
 14 29  1  0  0  0  0
 15 30  1  0  0  0  0
 16 24  1  0  0  0  0
 16 28  2  0  0  0  0
 17 30  2  0  0  0  0
 17 31  1  0  0  0  0
 18 32  1  0  0  0  0
 19 25  2  0  0  0  0
 19 34  1  0  0  0  0
 20 32  1  0  0  0  0
 20 33  2  0  0  0  0
 20 35  1  0  0  0  0
 21 23  2  0  0  0  0
 21 40  1  0  0  0  0
 22 24  2  0  0  0  0
 22 41  1  0  0  0  0
 23 49  1  0  0  0  0
 24 42  1  0  0  0  0
 25 26  1  0  0  0  0
 25 52  1  0  0  0  0
 26 69  1  0  0  0  0
 27 80  1  0  0  0  0
 28 81  1  0  0  0  0
 29 31  2  0  0  0  0
 29 80  1  0  0  0  0
 30 82  1  0  0  0  0
 31 83  1  0  0  0  0
 32 63  2  0  0  0  0
 33 64  1  0  0  0  0
 33 67  1  0  0  0  0
 34 70  1  0  0  0  0
 34 74  2  0  0  0  0
 35 68  1  0  0  0  0
 35 75  2  0  0  0  0
 36 50  1  0  0  0  0
 36 71  1  0  0  0  0
 36 76  2  0  0  0  0
 37 60  1  0  0  0  0
 37 65  1  0  0  0  0
 37 77  2  0  0  0  0
 38 61  1  0  0  0  0
 38 72  1  0  0  0  0
 38 78  2  0  0  0  0
 39 66  1  0  0  0  0
 39 69  1  0  0  0  0
 39 79  2  0  0  0  0
 40 43  1  0  0  0  0
 41 50  1  0  0  0  0
 42 65  1  0  0  0  0
 43 45  1  0  0  0  0
 44 46  1  0  0  0  0
 44 47  1  0  0  0  0
 45 49  1  0  0  0  0
 46 51  1  0  0  0  0
 47 66  1  0  0  0  0
 48 51  1  0  0  0  0
 48 66  1  0  0  0  0
 49 71  1  0  0  0  0
 50 65  1  0  0  0  0
 51 64  1  0  0  0  0
 53 61  1  0  0  0  0
 54 62  1  0  0  0  0
 55 62  1  0  0  0  0
 56 62  1  0  0  0  0
 57 73  1  0  0  0  0
 58 59  1  0  0  0  0
 58 70  1  0  0  0  0
 59 81  1  0  0  0  0
 60 62  1  0  0  0  0
 60 72  1  0  0  0  0
 61 73  1  0  0  0  0
 63 64  1  0  0  0  0
M  CHG  1  73   1
M  ISO  4  39 100  59 101  69 100  81 101
M  END
> <Batch ID>
0045

> <Smiles>
CNC(C)C(=O)NC(C(=O)N1Cc2cc([101O:1][101CH2:1]CNC(=O)c3cccc([100NH:0][100C:0](=O)N4CCCC(n5nc(-c6ccc(Oc7ccc(F)cc7F)cc6)c(C(N)=O)c5N)C4)c3C)ccc2CC1C(=O)NC1CCCc2ccccc21)C(C)(C)C

> <Shape>
0.188

> <Color>
0.075

> <Negative vol penalty>
0.000

$$$$

  -OEChem-04042322213D

 86 95  0     1  0  0  0  0  0999 V2000
  -16.5831  -29.5746   23.8864 C   0  0  0  0  0  0  0  0  0  0  0  0
  -17.4268  -30.3014   23.0542 C   0  0  0  0  0  0  0  0  0  0  0  0
  -24.4093  -12.1107   20.4457 C   0  0  0  0  0  0  0  0  0  0  0  0
  -25.9176  -13.2374   21.9598 C   0  0  0  0  0  0  0  0  0  0  0  0
  -17.0632  -28.4437   24.5435 C   0  0  0  0  0  0  0  0  0  0  0  0
  -18.7475  -29.8909   22.8693 C   0  0  0  0  0  0  0  0  0  0  0  0
  -26.1886  -30.0867   20.0738 C   0  0  0  0  0  0  0  0  0  0  0  0
  -24.9998  -10.8886   20.7669 C   0  0  0  0  0  0  0  0  0  0  0  0
  -26.5081  -12.0152   22.2811 C   0  0  0  0  0  0  0  0  0  0  0  0
  -27.4776  -29.6094   20.3069 C   0  0  0  0  0  0  0  0  0  0  0  0
  -24.8620   -8.6424   23.2906 C   0  0  0  0  0  0  0  0  0  0  0  0
  -24.0178   -7.5615   23.5447 C   0  0  0  0  0  0  0  0  0  0  0  0
  -26.6399  -27.3475   20.2711 C   0  0  0  0  0  0  0  0  0  0  0  0
  -28.7567  -21.9379   21.7218 C   0  0  0  0  0  0  0  0  0  0  0  0
  -29.4979  -22.3080   23.9912 C   0  0  0  0  0  0  0  0  0  0  0  0
  -27.6530  -20.8113   23.5520 C   0  0  0  0  0  0  0  0  0  0  0  0
  -25.0246   -6.3451   21.7161 C   0  0  0  0  0  0  0  0  0  0  0  0
  -24.8683  -13.2852   21.0421 C   0  0  0  0  0  0  0  0  0  0  0  0
  -22.9111  -14.9139   20.8860 C   0  0  0  0  0  0  0  0  0  0  0  0
  -18.3941  -28.0269   24.3758 C   0  0  0  0  0  0  0  0  0  0  0  0
  -25.1120  -29.1971   19.9483 C   0  0  0  0  0  0  0  0  0  0  0  0
  -19.2441  -28.7385   23.5050 C   0  0  0  0  0  0  0  0  0  0  0  0
  -25.3386  -27.8160   20.0339 C   0  0  0  0  0  0  0  0  0  0  0  0
  -29.6187  -22.5602   22.6247 C   0  0  0  0  0  0  0  0  0  0  0  0
  -27.7738  -21.0635   22.1854 C   0  0  0  0  0  0  0  0  0  0  0  0
  -26.0491  -10.8408   21.6846 C   0  0  0  0  0  0  0  0  0  0  0  0
  -27.7030  -28.2397   20.4085 C   0  0  0  0  0  0  0  0  0  0  0  0
  -25.7874   -8.5747   22.2491 C   0  0  0  0  0  0  0  0  0  0  0  0
  -24.0991   -6.4129   22.7576 C   0  0  0  0  0  0  0  0  0  0  0  0
  -25.8688   -7.4260   21.4619 C   0  0  0  0  0  0  0  0  0  0  0  0
  -28.5150  -21.4336   24.4549 C   0  0  0  0  0  0  0  0  0  0  0  0
  -24.2591  -14.5481   20.7103 C   0  0  0  0  0  0  0  0  0  0  0  0
  -22.8417  -16.2037   20.4190 C   0  0  0  0  0  0  0  0  0  0  0  0
  -29.5702  -25.5915   21.4309 C   0  0  0  0  0  0  0  0  0  0  0  0
  -21.8193  -14.1557   21.4234 C   0  0  0  0  0  0  0  0  0  0  0  0
  -22.4176  -28.6949   21.5582 C   0  0  0  0  0  0  0  0  0  0  0  0
  -21.8183  -26.6169   19.1405 C   0  0  0  0  0  0  0  0  0  0  0  0
  -23.6781  -24.1729   17.2470 C   0  0  0  0  0  0  0  0  0  0  0  0
  -26.8817  -20.5734   19.8810 C   0  0  0  0  0  0  0  0  0  0  0  0
  -18.8591  -26.7911   25.1050 C   0  0  0  0  0  0  0  0  0  0  0  0
  -23.7319  -29.7267   19.6704 C   0  0  0  0  0  0  0  0  0  0  0  0
  -24.2201  -26.8181   19.8863 C   0  0  0  0  0  0  0  0  0  0  0  0
  -20.3783  -26.6916   25.1971 C   0  0  0  0  0  0  0  0  0  0  0  0
  -30.4566  -26.8779   23.9102 C   0  0  0  0  0  0  0  0  0  0  0  0
  -24.9096  -19.1637   17.2731 C   0  0  0  0  0  0  0  0  0  0  0  0
  -20.9979  -26.9154   23.8257 C   0  0  0  0  0  0  0  0  0  0  0  0
  -30.1789  -27.7202   22.6827 C   0  0  0  0  0  0  0  0  0  0  0  0
  -24.3914  -17.8564   17.8768 C   0  0  0  0  0  0  0  0  0  0  0  0
  -31.0264  -25.5350   23.4896 C   0  0  0  0  0  0  0  0  0  0  0  0
  -26.3374  -19.4691   17.7225 C   0  0  0  0  0  0  0  0  0  0  0  0
  -26.0288  -18.1490   19.7794 C   0  0  0  0  0  0  0  0  0  0  0  0
  -20.6930  -28.3285   23.3127 C   0  0  1  0  0  0  0  0  0  0  0  0
  -29.1604  -27.0078   21.8147 C   0  0  1  0  0  0  0  0  0  1  0  0
  -22.6268  -28.7545   20.0715 C   0  0  1  0  0  0  0  0  0  0  0  0
  -24.5711  -17.8321   19.4073 C   0  0  2  0  0  0  0  0  0  0  0  0
  -23.3334  -23.3074   14.9169 C   0  0  0  0  0  0  0  0  0  0  0  0
  -20.2403  -24.3936   20.5105 C   0  0  0  0  0  0  0  0  0  0  0  0
  -21.2064  -22.7830   18.8549 C   0  0  0  0  0  0  0  0  0  0  0  0
  -19.7631  -24.6602   18.0701 C   0  0  0  0  0  0  0  0  0  0  0  0
  -26.4378  -24.8851   16.4498 C   0  0  0  0  0  0  0  0  0  0  0  0
  -30.6762  -23.5020   22.1257 C   0  0  0  0  0  0  0  0  0  0  0  0
  -22.1022  -25.1552   18.8921 C   0  0  1  0  0  0  0  0  0  0  0  0
  -24.1045  -24.2814   15.7941 C   0  0  2  0  0  0  0  0  0  0  0  0
  -20.8450  -24.2639   19.0983 C   0  0  0  0  0  0  0  0  0  0  0  0
  -24.9931  -15.5264   20.1734 N   0  0  0  0  0  0  0  0  0  0  0  0
  -24.1031  -16.5196   20.0077 N   0  0  0  0  0  0  0  0  0  0  0  0
  -30.3274  -24.8944   22.3742 N   0  0  0  0  0  0  0  0  0  0  0  0
  -22.8876  -27.3856   19.6218 N   0  0  0  0  0  0  0  0  0  0  0  0
  -26.4307  -19.4328   19.1836 N   0  0  0  0  0  0  0  0  0  0  0  0
  -21.8253  -17.0871   20.3241 N   0  0  0  0  0  0  0  0  0  0  0  0
  -22.0651  -12.8458   21.8571 N   0  0  0  0  0  0  0  0  0  0  0  0
  -26.8975  -20.4321   21.2682 N   0  0  0  0  0  0  0  0  0  0  0  0
  -21.1140  -28.4308   21.9328 N   0  0  0  0  0  0  0  0  0  0  0  0
  -22.6801  -25.0731   17.5550 N   0  0  0  0  0  0  0  0  0  0  0  0
  -25.5589  -23.9866   15.6578 N   0  3  0  0  0  0  0  0  0  0  0  0
  -29.1771  -25.1049   20.3676 O   0  0  0  0  0  0  0  0  0  0  0  0
  -20.6566  -14.6201   21.5010 O   0  0  0  0  0  0  0  0  0  0  0  0
  -23.3688  -28.8737   22.3098 O   0  0  0  0  0  0  0  0  0  0  0  0
  -20.6913  -27.0619   18.9091 O   0  0  0  0  0  0  0  0  0  0  0  0
  -24.1775  -23.3673   18.0294 O   0  0  0  0  0  0  0  0  0  0  0  0
  -27.2026  -21.6091   19.2925 O   0  0  0  0  0  0  0  0  0  0  0  0
  -26.6254   -9.6483   21.9985 O   0  0  0  0  0  0  0  0  0  0  0  0
  -28.9600  -27.7711   20.6366 O   0  0  0  0  0  0  0  0  0  1  0  0
  -23.2894   -5.3744   23.0028 F   0  0  0  0  0  0  0  0  0  0  0  0
  -26.7567   -7.3547   20.4608 F   0  0  0  0  0  0  0  0  0  0  0  0
  -28.3645  -21.1238   26.1411 Cl  0  0  0  0  0  0  0  0  0  0  0  0
  1  2  1  0  0  0  0
  1  5  2  0  0  0  0
  2  6  2  0  0  0  0
  3  8  2  0  0  0  0
  3 18  1  0  0  0  0
  4  9  1  0  0  0  0
  4 18  2  0  0  0  0
  5 20  1  0  0  0  0
  6 22  1  0  0  0  0
  7 10  2  0  0  0  0
  7 21  1  0  0  0  0
  8 26  1  0  0  0  0
  9 26  2  0  0  0  0
 10 27  1  0  0  0  0
 11 12  2  0  0  0  0
 11 28  1  0  0  0  0
 12 29  1  0  0  0  0
 13 23  1  0  0  0  0
 13 27  2  0  0  0  0
 14 24  2  0  0  0  0
 14 25  1  0  0  0  0
 15 24  1  0  0  0  0
 15 31  2  0  0  0  0
 16 25  2  0  0  0  0
 16 31  1  0  0  0  0
 17 29  2  0  0  0  0
 17 30  1  0  0  0  0
 18 32  1  0  0  0  0
 19 32  1  0  0  0  0
 19 33  2  0  0  0  0
 19 35  1  0  0  0  0
 20 22  2  0  0  0  0
 20 40  1  0  0  0  0
 21 23  2  0  0  0  0
 21 41  1  0  0  0  0
 22 52  1  0  0  0  0
 23 42  1  0  0  0  0
 24 61  1  0  0  0  0
 25 72  1  0  0  0  0
 26 82  1  0  0  0  0
 27 83  1  0  0  0  0
 28 30  2  0  0  0  0
 28 82  1  0  0  0  0
 29 84  1  0  0  0  0
 30 85  1  0  0  0  0
 31 86  1  0  0  0  0
 32 65  2  0  0  0  0
 33 66  1  0  0  0  0
 33 70  1  0  0  0  0
 34 53  1  0  0  0  0
 34 67  1  0  0  0  0
 34 76  2  0  0  0  0
 35 71  1  0  0  0  0
 35 77  2  0  0  0  0
 36 54  1  0  0  0  0
 36 73  1  0  0  0  0
 36 78  2  0  0  0  0
 37 62  1  0  0  0  0
 37 68  1  0  0  0  0
 37 79  2  0  0  0  0
 38 63  1  0  0  0  0
 38 74  1  0  0  0  0
 38 80  2  0  0  0  0
 39 69  1  0  0  0  0
 39 72  1  0  0  0  0
 39 81  2  0  0  0  0
 40 43  1  0  0  0  0
 41 54  1  0  0  0  0
 42 68  1  0  0  0  0
 43 46  1  0  0  0  0
 44 47  1  0  0  0  0
 44 49  1  0  0  0  0
 45 48  1  0  0  0  0
 45 50  1  0  0  0  0
 46 52  1  0  0  0  0
 47 53  1  0  0  0  0
 48 55  1  0  0  0  0
 49 67  1  0  0  0  0
 50 69  1  0  0  0  0
 51 55  1  0  0  0  0
 51 69  1  0  0  0  0
 52 73  1  0  0  0  0
 53 83  1  0  0  0  0
 54 68  1  0  0  0  0
 55 66  1  0  0  0  0
 56 63  1  0  0  0  0
 57 64  1  0  0  0  0
 58 64  1  0  0  0  0
 59 64  1  0  0  0  0
 60 75  1  0  0  0  0
 61 67  1  0  0  0  0
 62 64  1  0  0  0  0
 62 74  1  0  0  0  0
 63 75  1  0  0  0  0
 65 66  1  0  0  0  0
M  CHG  1  75   1
M  ISO  4  39 100  53 101  72 100  83 101
M  END
> <Batch ID>
0045

> <Smiles>
CNC(C)C(=O)NC(C(=O)N1Cc2cc([101O:1][101CH:1]3CCCN(Cc4cc(Cl)cc([100NH:0][100C:0](=O)N5CCCC(n6nc(-c7ccc(Oc8ccc(F)cc8F)cc7)c(C(N)=O)c6N)C5)c4)C3=O)ccc2CC1C(=O)NC1CCCc2ccccc21)C(C)(C)C

> <Shape>
0.203

> <Color>
0.093

> <Negative vol penalty>
0.000

$$$$

  -OEChem-04042322213D

 83 91  0     1  0  0  0  0  0999 V2000
  -17.3982  -25.0299   23.9086 C   0  0  0  0  0  0  0  0  0  0  0  0
  -18.7293  -24.6377   24.0070 C   0  0  0  0  0  0  0  0  0  0  0  0
  -23.1200   -9.8529   21.5355 C   0  0  0  0  0  0  0  0  0  0  0  0
  -23.7557  -10.9349   23.6000 C   0  0  0  0  0  0  0  0  0  0  0  0
  -17.0825  -26.3226   23.4925 C   0  0  0  0  0  0  0  0  0  0  0  0
  -19.7455  -25.5377   23.6882 C   0  0  0  0  0  0  0  0  0  0  0  0
  -23.5075  -25.5005   27.0781 C   0  0  0  0  0  0  0  0  0  0  0  0
  -32.4088  -18.5652   21.5609 C   0  0  0  0  0  0  0  0  0  0  0  0
  -31.8807  -17.3445   21.1405 C   0  0  0  0  0  0  0  0  0  0  0  0
  -22.3764   -8.9174   22.2548 C   0  0  0  0  0  0  0  0  0  0  0  0
  -23.0120   -9.9994   24.3193 C   0  0  0  0  0  0  0  0  0  0  0  0
  -24.4226  -24.4515   27.0022 C   0  0  0  0  0  0  0  0  0  0  0  0
  -22.9682   -6.1220   24.0602 C   0  0  0  0  0  0  0  0  0  0  0  0
  -23.0964   -4.7799   23.7026 C   0  0  0  0  0  0  0  0  0  0  0  0
  -25.9728  -25.8952   25.8481 C   0  0  0  0  0  0  0  0  0  0  0  0
  -29.6588  -18.2927   21.1785 C   0  0  0  0  0  0  0  0  0  0  0  0
  -20.7325   -4.6846   23.2126 C   0  0  0  0  0  0  0  0  0  0  0  0
  -23.8098  -10.8617   22.2081 C   0  0  0  0  0  0  0  0  0  0  0  0
  -24.1301  -13.0618   20.9574 C   0  0  0  0  0  0  0  0  0  0  0  0
  -18.0956  -27.2420   23.1778 C   0  0  0  0  0  0  0  0  0  0  0  0
  -23.8143  -26.7538   26.5290 C   0  0  0  0  0  0  0  0  0  0  0  0
  -19.4431  -26.8435   23.2662 C   0  0  0  0  0  0  0  0  0  0  0  0
  -25.0608  -26.9592   25.9206 C   0  0  0  0  0  0  0  0  0  0  0  0
  -31.5619  -19.6496   21.7902 C   0  0  0  0  0  0  0  0  0  0  0  0
  -30.1869  -19.5133   21.5990 C   0  0  0  0  0  0  0  0  0  0  0  0
  -30.5057  -17.2083   20.9493 C   0  0  0  0  0  0  0  0  0  0  0  0
  -22.3223   -8.9907   23.6467 C   0  0  0  0  0  0  0  0  0  0  0  0
  -25.6543  -24.6479   26.3846 C   0  0  0  0  0  0  0  0  0  0  0  0
  -21.7221   -6.7454   23.9942 C   0  0  0  0  0  0  0  0  0  0  0  0
  -21.9786   -4.0612   23.2788 C   0  0  0  0  0  0  0  0  0  0  0  0
  -20.6043   -6.0267   23.5703 C   0  0  0  0  0  0  0  0  0  0  0  0
  -24.5786  -11.8280   21.4657 C   0  0  0  0  0  0  0  0  0  0  0  0
  -25.2320  -13.5988   20.3377 C   0  0  0  0  0  0  0  0  0  0  0  0
  -27.8194  -22.2173   24.8873 C   0  0  0  0  0  0  0  0  0  0  0  0
  -26.9476  -23.2099   25.0691 C   0  0  0  0  0  0  0  0  0  1  0  0
  -28.1856  -21.8410   23.5085 C   0  0  0  0  0  0  0  0  0  0  0  0
  -22.8335  -13.6684   21.0383 C   0  0  0  0  0  0  0  0  0  0  0  0
  -22.5707  -28.5599   24.2278 C   0  0  0  0  0  0  0  0  0  0  0  0
  -24.7545  -30.7169   25.2769 C   0  0  0  0  0  0  0  0  0  0  0  0
  -27.7089  -31.3022   26.8818 C   0  0  0  0  0  0  0  0  0  0  0  0
  -30.6693  -14.7947   20.2461 C   0  0  0  0  0  0  0  0  0  0  0  0
  -17.7044  -28.6134   22.6871 C   0  0  0  0  0  0  0  0  0  0  0  0
  -22.8269  -27.8828   26.6427 C   0  0  0  0  0  0  0  0  0  0  0  0
  -25.4468  -28.2915   25.3335 C   0  0  0  0  0  0  0  0  0  0  0  0
  -18.8479  -29.6239   22.7277 C   0  0  0  0  0  0  0  0  0  0  0  0
  -29.7097  -11.5280   19.2045 C   0  0  0  0  0  0  0  0  0  0  0  0
  -20.1180  -29.0167   22.1403 C   0  0  0  0  0  0  0  0  0  0  0  0
  -28.2523  -11.4164   19.6581 C   0  0  0  0  0  0  0  0  0  0  0  0
  -30.5565  -12.3127   20.2050 C   0  0  0  0  0  0  0  0  0  0  0  0
  -28.5705  -13.5233   21.0170 C   0  0  0  0  0  0  0  0  0  0  0  0
  -20.5742  -27.7988   22.9529 C   0  0  1  0  0  0  0  0  0  0  0  0
  -23.0400  -28.9708   25.5948 C   0  0  1  0  0  0  0  0  0  0  0  0
  -27.6642  -12.7970   20.0097 C   0  0  2  0  0  0  0  0  0  0  0  0
  -32.1504  -20.9462   22.2407 C   0  0  0  0  0  0  0  0  0  0  0  0
  -29.2519  -33.1647   27.5510 C   0  0  0  0  0  0  0  0  0  0  0  0
  -25.7416  -30.9305   22.3977 C   0  0  0  0  0  0  0  0  0  0  0  0
  -27.8205  -32.0234   23.2650 C   0  0  0  0  0  0  0  0  0  0  0  0
  -25.6026  -33.1095   23.6172 C   0  0  0  0  0  0  0  0  0  0  0  0
  -27.4031  -30.6777   29.7585 C   0  0  0  0  0  0  0  0  0  0  0  0
  -29.2553  -20.6685   21.8378 C   0  0  0  0  0  0  0  0  0  0  0  0
  -26.1907  -31.0355   24.9380 C   0  0  1  0  0  0  0  0  0  0  0  0
  -28.0839  -32.2875   27.9741 C   0  0  2  0  0  0  0  0  0  0  0  0
  -26.3311  -31.7489   23.5637 C   0  0  0  0  0  0  0  0  0  0  0  0
  -25.8650  -11.5947   21.1924 N   0  0  0  0  0  0  0  0  0  0  0  0
  -29.0166  -20.8889   23.2611 N   0  0  0  0  0  0  0  0  0  0  0  0
  -26.2343  -12.6892   20.5056 N   0  0  0  0  0  0  0  0  0  0  0  0
  -24.4450  -29.3623   25.4641 N   0  0  0  0  0  0  0  0  0  0  0  0
  -29.9402  -13.6110   20.4867 N   0  0  0  0  0  0  0  0  0  0  0  0
  -25.4316  -14.7555   19.6708 N   0  0  0  0  0  0  0  0  0  0  0  0
  -21.8149  -12.9804   21.7116 N   0  0  0  0  0  0  0  0  0  0  0  0
  -29.9690  -15.9690   20.5203 N   0  0  0  0  0  0  0  0  0  0  0  0
  -21.2322  -28.2215   24.1707 N   0  0  0  0  0  0  0  0  0  0  0  0
  -26.7161  -31.7995   26.0644 N   0  0  0  0  0  0  0  0  0  0  0  0
  -28.4680  -31.5610   29.2174 N   0  3  0  0  0  0  0  0  0  0  0  0
  -22.5812  -14.7799   20.5143 O   0  0  0  0  0  0  0  0  0  0  0  0
  -23.3640  -28.5519   23.2938 O   0  0  0  0  0  0  0  0  0  0  0  0
  -23.9389  -31.6367   25.3790 O   0  0  0  0  0  0  0  0  0  0  0  0
  -28.2459  -30.2031   26.7631 O   0  0  0  0  0  0  0  0  0  0  0  0
  -31.8200  -14.7692   19.8019 O   0  0  0  0  0  0  0  0  0  0  0  0
  -21.5966   -8.0781   24.3489 O   0  0  0  0  0  0  0  0  0  0  0  0
  -26.5491  -23.6254   26.3086 O   0  0  0  0  0  0  0  0  0  1  0  0
  -22.1022   -2.7728   22.9338 F   0  0  0  0  0  0  0  0  0  0  0  0
  -19.4048   -6.6205   23.5037 F   0  0  0  0  0  0  0  0  0  0  0  0
  1  2  1  0  0  0  0
  1  5  2  0  0  0  0
  2  6  2  0  0  0  0
  3 10  2  0  0  0  0
  3 18  1  0  0  0  0
  4 11  1  0  0  0  0
  4 18  2  0  0  0  0
  5 20  1  0  0  0  0
  6 22  1  0  0  0  0
  7 12  2  0  0  0  0
  7 21  1  0  0  0  0
  8  9  2  0  0  0  0
  8 24  1  0  0  0  0
  9 26  1  0  0  0  0
 10 27  1  0  0  0  0
 11 27  2  0  0  0  0
 12 28  1  0  0  0  0
 13 14  2  0  0  0  0
 13 29  1  0  0  0  0
 14 30  1  0  0  0  0
 15 23  1  0  0  0  0
 15 28  2  0  0  0  0
 16 25  1  0  0  0  0
 16 26  2  0  0  0  0
 17 30  2  0  0  0  0
 17 31  1  0  0  0  0
 18 32  1  0  0  0  0
 19 32  1  0  0  0  0
 19 33  2  0  0  0  0
 19 37  1  0  0  0  0
 20 22  2  0  0  0  0
 20 42  1  0  0  0  0
 21 23  2  0  0  0  0
 21 43  1  0  0  0  0
 22 51  1  0  0  0  0
 23 44  1  0  0  0  0
 24 25  2  0  0  0  0
 24 54  1  0  0  0  0
 25 60  1  0  0  0  0
 26 71  1  0  0  0  0
 27 80  1  0  0  0  0
 28 81  1  0  0  0  0
 29 31  2  0  0  0  0
 29 80  1  0  0  0  0
 30 82  1  0  0  0  0
 31 83  1  0  0  0  0
 32 64  2  0  0  0  0
 33 66  1  0  0  0  0
 33 69  1  0  0  0  0
 34 35  2  0  0  0  0
 34 36  1  0  0  0  0
 35 81  1  0  0  0  0
 36 65  2  0  0  0  0
 37 70  1  0  0  0  0
 37 75  2  0  0  0  0
 38 52  1  0  0  0  0
 38 72  1  0  0  0  0
 38 76  2  0  0  0  0
 39 61  1  0  0  0  0
 39 67  1  0  0  0  0
 39 77  2  0  0  0  0
 40 62  1  0  0  0  0
 40 73  1  0  0  0  0
 40 78  2  0  0  0  0
 41 68  1  0  0  0  0
 41 71  1  0  0  0  0
 41 79  2  0  0  0  0
 42 45  1  0  0  0  0
 43 52  1  0  0  0  0
 44 67  1  0  0  0  0
 45 47  1  0  0  0  0
 46 48  1  0  0  0  0
 46 49  1  0  0  0  0
 47 51  1  0  0  0  0
 48 53  1  0  0  0  0
 49 68  1  0  0  0  0
 50 53  1  0  0  0  0
 50 68  1  0  0  0  0
 51 72  1  0  0  0  0
 52 67  1  0  0  0  0
 53 66  1  0  0  0  0
 55 62  1  0  0  0  0
 56 63  1  0  0  0  0
 57 63  1  0  0  0  0
 58 63  1  0  0  0  0
 59 74  1  0  0  0  0
 60 65  1  0  0  0  0
 61 63  1  0  0  0  0
 61 73  1  0  0  0  0
 62 74  1  0  0  0  0
 64 66  1  0  0  0  0
M  CHG  1  74   1
M  ISO  4  35 101  41 100  71 100  81 101
M  END
> <Batch ID>
0045

> <Smiles>
CNC(C)C(=O)NC(C(=O)N1Cc2cc([101O:1][101CH:1]=CC=NCc3cc([100NH:0][100C:0](=O)N4CCCC(n5nc(-c6ccc(Oc7ccc(F)cc7F)cc6)c(C(N)=O)c5N)C4)ccc3C)ccc2CC1C(=O)NC1CCCc2ccccc21)C(C)(C)C

> <Shape>
0.289

> <Color>
0.186

> <Negative vol penalty>
0.000

$$$$

  -OEChem-04042322213D

 94103  0     1  0  0  0  0  0999 V2000
  -26.2470  -37.8872   24.4496 C   0  0  0  0  0  0  0  0  0  0  0  0
  -26.9813  -37.1266   23.5453 C   0  0  0  0  0  0  0  0  0  0  0  0
  -24.5372   -6.4135   19.4434 C   0  0  0  0  0  0  0  0  0  0  0  0
  -23.9371   -8.7452   19.2420 C   0  0  0  0  0  0  0  0  0  0  0  0
  -25.4692  -37.2561   25.4194 C   0  0  0  0  0  0  0  0  0  0  0  0
  -26.9391  -35.7343   23.6111 C   0  0  0  0  0  0  0  0  0  0  0  0
  -27.2270  -29.9357   19.4148 C   0  0  0  0  0  0  0  0  0  0  0  0
  -31.7297  -15.4567   20.5354 C   0  0  0  0  0  0  0  0  0  0  0  0
  -31.6827  -14.1381   20.0831 C   0  0  0  0  0  0  0  0  0  0  0  0
  -23.4306   -6.1997   20.2652 C   0  0  0  0  0  0  0  0  0  0  0  0
  -22.8304   -8.5313   20.0638 C   0  0  0  0  0  0  0  0  0  0  0  0
  -27.9129  -28.7282   19.2918 C   0  0  0  0  0  0  0  0  0  0  0  0
  -20.9643   -5.1179   22.7086 C   0  0  0  0  0  0  0  0  0  0  0  0
  -21.1501   -4.3605   23.8651 C   0  0  0  0  0  0  0  0  0  0  0  0
  -31.2173  -23.3021   20.0277 C   0  0  0  0  0  0  0  0  0  0  0  0
  -26.4721  -27.7468   20.9591 C   0  0  0  0  0  0  0  0  0  0  0  0
  -29.5864  -24.1754   17.9395 C   0  0  0  0  0  0  0  0  0  0  0  0
  -29.5851  -14.5933   18.9741 C   0  0  0  0  0  0  0  0  0  0  0  0
  -22.7739   -5.9655   24.6552 C   0  0  0  0  0  0  0  0  0  0  0  0
  -24.7905   -7.6863   18.9319 C   0  0  0  0  0  0  0  0  0  0  0  0
  -30.9363  -22.4506   18.9593 C   0  0  0  0  0  0  0  0  0  0  0  0
  -25.9850   -7.8002   16.6807 C   0  0  0  0  0  0  0  0  0  0  0  0
  -25.4098  -35.8554   25.4910 C   0  0  0  0  0  0  0  0  0  0  0  0
  -26.1636  -30.0612   20.3203 C   0  0  0  0  0  0  0  0  0  0  0  0
  -26.1608  -35.0839   24.5837 C   0  0  0  0  0  0  0  0  0  0  0  0
  -25.7726  -28.9562   21.0899 C   0  0  0  0  0  0  0  0  0  0  0  0
  -30.7044  -16.3437   20.2072 C   0  0  0  0  0  0  0  0  0  0  0  0
  -30.6828  -24.5903   20.0521 C   0  0  0  0  0  0  0  0  0  0  0  0
  -30.1209  -22.8872   17.9152 C   0  0  0  0  0  0  0  0  0  0  0  0
  -29.8674  -25.0270   19.0080 C   0  0  0  0  0  0  0  0  0  0  0  0
  -29.6321  -15.9120   19.4265 C   0  0  0  0  0  0  0  0  0  0  0  0
  -30.6105  -13.7064   19.3024 C   0  0  0  0  0  0  0  0  0  0  0  0
  -22.5772   -7.2585   20.5753 C   0  0  0  0  0  0  0  0  0  0  0  0
  -27.5374  -27.6343   20.0661 C   0  0  0  0  0  0  0  0  0  0  0  0
  -21.6833   -6.2990   22.5254 C   0  0  0  0  0  0  0  0  0  0  0  0
  -22.0549   -4.7843   24.8384 C   0  0  0  0  0  0  0  0  0  0  0  0
  -22.5881   -6.7228   23.4987 C   0  0  0  0  0  0  0  0  0  0  0  0
  -25.9337   -7.9080   18.0834 C   0  0  0  0  0  0  0  0  0  0  0  0
  -27.2846   -8.1079   16.3599 C   0  0  0  0  0  0  0  0  0  0  0  0
  -31.5073  -21.1104   18.9589 C   0  0  0  0  0  0  0  0  0  0  0  0
  -24.9503   -7.4532   15.7508 C   0  0  0  0  0  0  0  0  0  0  0  0
  -25.6035  -31.8483   22.8886 C   0  0  0  0  0  0  0  0  0  0  0  0
  -22.6664  -30.4821   22.7182 C   0  0  0  0  0  0  0  0  0  0  0  0
  -20.7439  -27.8681   21.6611 C   0  0  0  0  0  0  0  0  0  0  0  0
  -31.4989  -11.3601   19.0743 C   0  0  0  0  0  0  0  0  0  0  0  0
  -24.5921  -35.2185   26.5867 C   0  0  0  0  0  0  0  0  0  0  0  0
  -25.4167  -31.3628   20.4217 C   0  0  0  0  0  0  0  0  0  0  0  0
  -24.6248  -29.0332   22.0620 C   0  0  0  0  0  0  0  0  0  0  0  0
  -24.3069  -33.7375   26.3515 C   0  0  0  0  0  0  0  0  0  0  0  0
  -31.7248   -7.9304   18.1452 C   0  0  0  0  0  0  0  0  0  0  0  0
  -25.5786  -33.0098   25.9271 C   0  0  0  0  0  0  0  0  0  0  0  0
  -30.2706   -7.5273   17.8903 C   0  0  0  0  0  0  0  0  0  0  0  0
  -31.8457   -8.9108   19.3105 C   0  0  0  0  0  0  0  0  0  0  0  0
  -29.5387   -9.6990   18.9557 C   0  0  0  0  0  0  0  0  0  0  0  0
  -26.1212  -33.5713   24.6073 C   0  0  1  0  0  0  0  0  0  0  0  0
  -24.6801  -31.5273   21.7476 C   0  0  1  0  0  0  0  0  0  0  0  0
  -29.3598   -8.7626   17.7495 C   0  0  2  0  0  0  0  0  0  0  0  0
  -29.8034  -21.9954   16.7594 C   0  0  0  0  0  0  0  0  0  0  0  0
  -28.5242  -16.8443   19.0609 C   0  0  0  0  0  0  0  0  0  0  0  0
  -18.3846  -27.0142   21.7037 C   0  0  0  0  0  0  0  0  0  0  0  0
  -23.0244  -29.6454   25.6305 C   0  0  0  0  0  0  0  0  0  0  0  0
  -21.1347  -28.0314   25.3263 C   0  0  0  0  0  0  0  0  0  0  0  0
  -20.7372  -30.4794   25.0583 C   0  0  0  0  0  0  0  0  0  0  0  0
  -30.5104  -26.0396   23.5925 C   0  0  0  0  0  0  0  0  0  0  0  0
  -20.5465  -27.9266   18.7087 C   0  0  0  0  0  0  0  0  0  0  0  0
  -30.7766  -17.7568   20.7060 C   0  0  0  0  0  0  0  0  0  0  0  0
  -30.9973  -25.4843   21.2064 C   0  0  0  0  0  0  0  0  0  0  0  0
  -29.2816  -26.4083   19.0122 C   0  0  0  0  0  0  0  0  0  1  0  0
  -31.1748  -20.1462   20.0972 C   0  0  0  0  0  0  0  0  0  0  0  0
  -22.0342  -29.2326   23.2821 C   0  0  1  0  0  0  0  0  0  0  0  0
  -19.4130  -27.8266   20.9322 C   0  0  2  0  0  0  0  0  0  0  0  0
  -21.7555  -29.3460   24.8075 C   0  0  0  0  0  0  0  0  0  0  0  0
  -27.1075   -8.2567   18.6170 N   0  0  0  0  0  0  0  0  0  0  0  0
  -27.9085   -8.3706   17.5439 N   0  0  0  0  0  0  0  0  0  0  0  0
  -23.9298  -30.3293   22.1297 N   0  0  0  0  0  0  0  0  0  0  0  0
  -30.9578  -10.0574   19.1061 N   0  0  0  0  0  0  0  0  0  0  0  0
  -27.9431   -8.1765   15.1835 N   0  0  0  0  0  0  0  0  0  0  0  0
  -23.6723   -7.1665   16.2496 N   0  0  0  0  0  0  0  0  0  0  0  0
  -30.5633  -12.3675   18.8410 N   0  0  0  0  0  0  0  0  0  0  0  0
  -25.3527  -33.0671   23.4895 N   0  0  0  0  0  0  0  0  0  0  0  0
  -20.8462  -28.9763   22.4750 N   0  0  0  0  0  0  0  0  0  0  0  0
  -30.2557  -25.1278   22.4464 N   0  3  0  0  0  0  0  0  0  0  0  0
  -19.5798  -27.2146   19.5836 N   0  3  0  0  0  0  0  0  0  0  0  0
  -31.1518  -18.7305   19.6462 N   0  3  0  0  0  0  0  0  0  0  0  0
  -32.2654  -20.7398   18.0416 O   0  0  0  0  0  0  0  0  0  0  0  0
  -25.1572   -7.3828   14.5156 O   0  0  0  0  0  0  0  0  0  0  0  0
  -26.4779  -31.0488   23.2016 O   0  0  0  0  0  0  0  0  0  0  0  0
  -22.0585  -31.5530   22.7907 O   0  0  0  0  0  0  0  0  0  0  0  0
  -21.6051  -27.0019   21.5250 O   0  0  0  0  0  0  0  0  0  0  0  0
  -32.7074  -11.5644   19.2147 O   0  0  0  0  0  0  0  0  0  0  0  0
  -21.4972   -7.0502   21.3770 O   0  0  0  0  0  0  0  0  0  0  0  0
  -28.2057  -26.4547   19.9485 O   0  0  0  0  0  0  0  0  0  1  0  0
  -22.2321   -4.0578   25.9497 F   0  0  0  0  0  0  0  0  0  0  0  0
  -23.2810   -7.8573   23.3288 F   0  0  0  0  0  0  0  0  0  0  0  0
  1  2  1  0  0  0  0
  1  5  2  0  0  0  0
  2  6  2  0  0  0  0
  3 10  2  0  0  0  0
  3 20  1  0  0  0  0
  4 11  1  0  0  0  0
  4 20  2  0  0  0  0
  5 23  1  0  0  0  0
  6 25  1  0  0  0  0
  7 12  2  0  0  0  0
  7 24  1  0  0  0  0
  8  9  2  0  0  0  0
  8 27  1  0  0  0  0
  9 32  1  0  0  0  0
 10 33  1  0  0  0  0
 11 33  2  0  0  0  0
 12 34  1  0  0  0  0
 13 14  2  0  0  0  0
 13 35  1  0  0  0  0
 14 36  1  0  0  0  0
 15 21  2  0  0  0  0
 15 28  1  0  0  0  0
 16 26  1  0  0  0  0
 16 34  2  0  0  0  0
 17 29  2  0  0  0  0
 17 30  1  0  0  0  0
 18 31  1  0  0  0  0
 18 32  2  0  0  0  0
 19 36  2  0  0  0  0
 19 37  1  0  0  0  0
 20 38  1  0  0  0  0
 21 29  1  0  0  0  0
 21 40  1  0  0  0  0
 22 38  1  0  0  0  0
 22 39  2  0  0  0  0
 22 41  1  0  0  0  0
 23 25  2  0  0  0  0
 23 46  1  0  0  0  0
 24 26  2  0  0  0  0
 24 47  1  0  0  0  0
 25 55  1  0  0  0  0
 26 48  1  0  0  0  0
 27 31  2  0  0  0  0
 27 66  1  0  0  0  0
 28 30  2  0  0  0  0
 28 67  1  0  0  0  0
 29 58  1  0  0  0  0
 30 68  1  0  0  0  0
 31 59  1  0  0  0  0
 32 79  1  0  0  0  0
 33 91  1  0  0  0  0
 34 92  1  0  0  0  0
 35 37  2  0  0  0  0
 35 91  1  0  0  0  0
 36 93  1  0  0  0  0
 37 94  1  0  0  0  0
 38 73  2  0  0  0  0
 39 74  1  0  0  0  0
 39 77  1  0  0  0  0
 40 69  1  0  0  0  0
 40 85  2  0  0  0  0
 41 78  1  0  0  0  0
 41 86  2  0  0  0  0
 42 56  1  0  0  0  0
 42 80  1  0  0  0  0
 42 87  2  0  0  0  0
 43 70  1  0  0  0  0
 43 75  1  0  0  0  0
 43 88  2  0  0  0  0
 44 71  1  0  0  0  0
 44 81  1  0  0  0  0
 44 89  2  0  0  0  0
 45 76  1  0  0  0  0
 45 79  1  0  0  0  0
 45 90  2  0  0  0  0
 46 49  1  0  0  0  0
 47 56  1  0  0  0  0
 48 75  1  0  0  0  0
 49 51  1  0  0  0  0
 50 52  1  0  0  0  0
 50 53  1  0  0  0  0
 51 55  1  0  0  0  0
 52 57  1  0  0  0  0
 53 76  1  0  0  0  0
 54 57  1  0  0  0  0
 54 76  1  0  0  0  0
 55 80  1  0  0  0  0
 56 75  1  0  0  0  0
 57 74  1  0  0  0  0
 60 71  1  0  0  0  0
 61 72  1  0  0  0  0
 62 72  1  0  0  0  0
 63 72  1  0  0  0  0
 64 82  1  0  0  0  0
 65 83  1  0  0  0  0
 66 84  1  0  0  0  0
 67 82  1  0  0  0  0
 68 92  1  0  0  0  0
 69 84  1  0  0  0  0
 70 72  1  0  0  0  0
 70 81  1  0  0  0  0
 71 83  1  0  0  0  0
 73 74  1  0  0  0  0
M  CHG  3  82   1  83   1  84   1
M  ISO  4  45 100  68 101  79 100  92 101
M  END
> <Batch ID>
0045

> <Smiles>
CNCc1cc(C(=O)CNCc2ccc([100NH:0][100C:0](=O)N3CCCC(n4nc(-c5ccc(Oc6ccc(F)cc6F)cc5)c(C(N)=O)c4N)C3)cc2C)c(C)cc1[101CH2:1][101O:1]c1ccc2c(c1)CN(C(=O)C(NC(=O)C(C)NC)C(C)(C)C)C(C(=O)NC1CCCc3ccccc31)C2

> <Shape>
0.301

> <Color>
0.087

> <Negative vol penalty>
0.000

$$$$

  -OEChem-04042322213D

 87 96  0     1  0  0  0  0  0999 V2000
  -20.0228  -31.2665   23.9315 C   0  0  0  0  0  0  0  0  0  0  0  0
  -21.3349  -31.0110   23.5463 C   0  0  0  0  0  0  0  0  0  0  0  0
  -28.3311  -12.5840   21.2776 C   0  0  0  0  0  0  0  0  0  0  0  0
  -26.3140  -13.2598   20.1323 C   0  0  0  0  0  0  0  0  0  0  0  0
  -19.0312  -30.3144   23.6989 C   0  0  0  0  0  0  0  0  0  0  0  0
  -21.6564  -29.8026   22.9291 C   0  0  0  0  0  0  0  0  0  0  0  0
  -24.6780  -30.4164   18.9119 C   0  0  0  0  0  0  0  0  0  0  0  0
  -30.1289  -22.9136   18.7676 C   0  0  0  0  0  0  0  0  0  0  0  0
  -31.3346  -23.4460   19.2242 C   0  0  0  0  0  0  0  0  0  0  0  0
  -27.8708  -11.2678   21.3118 C   0  0  0  0  0  0  0  0  0  0  0  0
  -25.8536  -11.9435   20.1665 C   0  0  0  0  0  0  0  0  0  0  0  0
  -26.0313  -30.6408   19.1614 C   0  0  0  0  0  0  0  0  0  0  0  0
  -24.4175   -9.8640   22.4123 C   0  0  0  0  0  0  0  0  0  0  0  0
  -23.0902   -9.6510   22.7845 C   0  0  0  0  0  0  0  0  0  0  0  0
  -26.4962  -28.3207   18.6921 C   0  0  0  0  0  0  0  0  0  0  0  0
  -28.9161  -24.5876   20.0181 C   0  0  0  0  0  0  0  0  0  0  0  0
  -22.6569   -8.6135   20.6461 C   0  0  0  0  0  0  0  0  0  0  0  0
  -27.5527  -13.5801   20.6879 C   0  0  0  0  0  0  0  0  0  0  0  0
  -29.2042  -15.4142   20.0429 C   0  0  0  0  0  0  0  0  0  0  0  0
  -19.3389  -29.0977   23.0699 C   0  0  0  0  0  0  0  0  0  0  0  0
  -24.2214  -29.1379   18.5607 C   0  0  0  0  0  0  0  0  0  0  0  0
  -20.6683  -28.8328   22.6891 C   0  0  0  0  0  0  0  0  0  0  0  0
  -25.1370  -28.0833   18.4362 C   0  0  0  0  0  0  0  0  0  0  0  0
  -28.9196  -23.4844   19.1646 C   0  0  0  0  0  0  0  0  0  0  0  0
  -31.3310  -24.5492   20.0777 C   0  0  0  0  0  0  0  0  0  0  0  0
  -30.1218  -25.1200   20.4747 C   0  0  0  0  0  0  0  0  0  0  0  0
  -26.6321  -10.9475   20.7562 C   0  0  0  0  0  0  0  0  0  0  0  0
  -26.9402  -29.5922   19.0543 C   0  0  0  0  0  0  0  0  0  0  0  0
  -24.8645   -9.4517   21.1569 C   0  0  0  0  0  0  0  0  0  0  0  0
  -22.2099   -9.0258   21.9015 C   0  0  0  0  0  0  0  0  0  0  0  0
  -23.9842   -8.8265   20.2738 C   0  0  0  0  0  0  0  0  0  0  0  0
  -28.0274  -14.9400   20.6528 C   0  0  0  0  0  0  0  0  0  0  0  0
  -29.1986  -16.7653   20.2899 C   0  0  0  0  0  0  0  0  0  0  0  0
  -29.9837  -28.1811   19.8523 C   0  0  0  0  0  0  0  0  0  0  0  0
  -30.2999  -27.9949   18.5602 C   0  0  0  0  0  0  0  0  0  0  0  0
  -30.2123  -14.6974   19.3179 C   0  0  0  0  0  0  0  0  0  0  0  0
  -22.2188  -27.0369   19.8564 C   0  0  0  0  0  0  0  0  0  0  0  0
  -22.7419  -25.4213   17.0927 C   0  0  0  0  0  0  0  0  0  0  0  0
  -25.5640  -24.6752   14.9723 C   0  0  0  0  0  0  0  0  0  0  0  0
  -26.5285  -21.6608   20.5130 C   0  0  0  0  0  0  0  0  0  0  0  0
  -18.2420  -28.0797   22.8823 C   0  0  0  0  0  0  0  0  0  0  0  0
  -22.7623  -28.9184   18.2688 C   0  0  0  0  0  0  0  0  0  0  0  0
  -24.7007  -26.6966   18.0424 C   0  0  0  0  0  0  0  0  0  0  0  0
  -18.5960  -26.9798   21.8847 C   0  0  0  0  0  0  0  0  0  0  0  0
  -26.2902  -19.5385   23.3618 C   0  0  0  0  0  0  0  0  0  0  0  0
  -30.1807  -29.2977   22.4855 C   0  0  0  0  0  0  0  0  0  0  0  0
  -19.9974  -26.4426   22.1574 C   0  0  0  0  0  0  0  0  0  0  0  0
  -29.3732  -30.0250   21.4163 C   0  0  0  0  0  0  0  0  0  0  0  0
  -26.8118  -18.1913   22.8590 C   0  0  0  0  0  0  0  0  0  0  0  0
  -25.4943  -20.2729   22.2852 C   0  0  0  0  0  0  0  0  0  0  0  0
  -26.7231  -19.0999   20.4999 C   0  0  0  0  0  0  0  0  0  0  0  0
  -31.3104  -28.4788   21.8697 C   0  0  0  0  0  0  0  0  0  0  0  0
  -21.0518  -27.5441   21.9946 C   0  0  1  0  0  0  0  0  0  0  0  0
  -28.8574  -29.0581   20.3515 C   0  0  1  0  0  0  0  0  0  1  0  0
  -22.3354  -27.4616   18.4199 C   0  0  1  0  0  0  0  0  0  0  0  0
  -27.5795  -18.3470   21.5324 C   0  0  2  0  0  0  0  0  0  0  0  0
  -32.6344  -25.1011   20.5544 C   0  0  0  0  0  0  0  0  0  0  0  0
  -25.6735  -24.1905   12.5125 C   0  0  0  0  0  0  0  0  0  0  0  0
  -22.5843  -22.4990   17.9560 C   0  0  0  0  0  0  0  0  0  0  0  0
  -24.2143  -21.9464   16.1377 C   0  0  0  0  0  0  0  0  0  0  0  0
  -21.9878  -22.9134   15.5629 C   0  0  0  0  0  0  0  0  0  0  0  0
  -27.5296  -26.8401   14.5153 C   0  0  0  0  0  0  0  0  0  0  0  0
  -27.6307  -22.9147   18.6767 C   0  0  0  0  0  0  0  0  0  0  0  0
  -30.0933  -26.3066   21.3924 C   0  0  0  0  0  0  0  0  0  0  0  0
  -23.7415  -24.3886   16.6308 C   0  0  1  0  0  0  0  0  0  0  0  0
  -25.8411  -25.2469   13.5936 C   0  0  2  0  0  0  0  0  0  0  0  0
  -23.1386  -22.9560   16.5919 C   0  0  0  0  0  0  0  0  0  0  0  0
  -27.3252  -15.9110   21.2430 N   0  0  0  0  0  0  0  0  0  0  0  0
  -28.0631  -17.0087   21.0051 N   0  0  0  0  0  0  0  0  0  0  0  0
  -23.2627  -26.5308   17.7734 N   0  0  0  0  0  0  0  0  0  0  0  0
  -26.2791  -20.3886   21.0537 N   0  0  0  0  0  0  0  0  0  0  0  0
  -30.0543  -17.7569   19.9629 N   0  0  0  0  0  0  0  0  0  0  0  0
  -30.0627  -14.5525   17.9319 N   0  0  0  0  0  0  0  0  0  0  0  0
  -21.3195  -27.7843   20.5928 N   0  0  0  0  0  0  0  0  0  0  0  0
  -24.2496  -24.8582   15.3464 N   0  0  0  0  0  0  0  0  0  0  0  0
  -27.2855  -21.6814   19.3480 N   0  0  0  0  0  0  0  0  0  0  0  0
  -30.8082  -27.5042   20.8295 N   0  3  1  0  0  0  0  0  0  0  0  0
  -27.2325  -25.7759   13.5222 N   0  3  0  0  0  0  0  0  0  0  0  0
  -31.2077  -14.1860   19.8847 O   0  0  0  0  0  0  0  0  0  0  0  0
  -22.8936  -26.0997   20.2661 O   0  0  0  0  0  0  0  0  0  0  0  0
  -21.5438  -25.2532   16.8519 O   0  0  0  0  0  0  0  0  0  0  0  0
  -26.4264  -24.1184   15.6481 O   0  0  0  0  0  0  0  0  0  0  0  0
  -26.1122  -22.7015   21.0331 O   0  0  0  0  0  0  0  0  0  0  0  0
  -26.1827   -9.6632   20.7892 O   0  0  0  0  0  0  0  0  0  0  0  0
  -28.2615  -29.8083   19.2980 O   0  0  0  0  0  0  0  0  0  1  0  0
  -20.9357   -8.8200   22.2597 F   0  0  0  0  0  0  0  0  0  0  0  0
  -24.4082   -8.4272   19.0669 F   0  0  0  0  0  0  0  0  0  0  0  0
  1  2  1  0  0  0  0
  1  5  2  0  0  0  0
  2  6  2  0  0  0  0
  3 10  2  0  0  0  0
  3 18  1  0  0  0  0
  4 11  1  0  0  0  0
  4 18  2  0  0  0  0
  5 20  1  0  0  0  0
  6 22  1  0  0  0  0
  7 12  2  0  0  0  0
  7 21  1  0  0  0  0
  8  9  2  0  0  0  0
  8 24  1  0  0  0  0
  9 25  1  0  0  0  0
 10 27  1  0  0  0  0
 11 27  2  0  0  0  0
 12 28  1  0  0  0  0
 13 14  2  0  0  0  0
 13 29  1  0  0  0  0
 14 30  1  0  0  0  0
 15 23  1  0  0  0  0
 15 28  2  0  0  0  0
 16 24  2  0  0  0  0
 16 26  1  0  0  0  0
 17 30  2  0  0  0  0
 17 31  1  0  0  0  0
 18 32  1  0  0  0  0
 19 32  1  0  0  0  0
 19 33  2  0  0  0  0
 19 36  1  0  0  0  0
 20 22  2  0  0  0  0
 20 41  1  0  0  0  0
 21 23  2  0  0  0  0
 21 42  1  0  0  0  0
 22 53  1  0  0  0  0
 23 43  1  0  0  0  0
 24 63  1  0  0  0  0
 25 26  2  0  0  0  0
 25 57  1  0  0  0  0
 26 64  1  0  0  0  0
 27 84  1  0  0  0  0
 28 85  1  0  0  0  0
 29 31  2  0  0  0  0
 29 84  1  0  0  0  0
 30 86  1  0  0  0  0
 31 87  1  0  0  0  0
 32 68  2  0  0  0  0
 33 69  1  0  0  0  0
 33 72  1  0  0  0  0
 34 35  2  0  0  0  0
 34 54  1  0  0  0  0
 34 77  1  0  0  0  0
 36 73  1  0  0  0  0
 36 79  2  0  0  0  0
 37 55  1  0  0  0  0
 37 74  1  0  0  0  0
 37 80  2  0  0  0  0
 38 65  1  0  0  0  0
 38 70  1  0  0  0  0
 38 81  2  0  0  0  0
 39 66  1  0  0  0  0
 39 75  1  0  0  0  0
 39 82  2  0  0  0  0
 40 71  1  0  0  0  0
 40 76  1  0  0  0  0
 40 83  2  0  0  0  0
 41 44  1  0  0  0  0
 42 55  1  0  0  0  0
 43 70  1  0  0  0  0
 44 47  1  0  0  0  0
 45 49  1  0  0  0  0
 45 50  1  0  0  0  0
 46 48  1  0  0  0  0
 46 52  1  0  0  0  0
 47 53  1  0  0  0  0
 48 54  1  0  0  0  0
 49 56  1  0  0  0  0
 50 71  1  0  0  0  0
 51 56  1  0  0  0  0
 51 71  1  0  0  0  0
 52 77  1  0  0  0  0
 53 74  1  0  0  0  0
 54 85  1  0  0  0  0
 55 70  1  0  0  0  0
 56 69  1  0  0  0  0
 58 66  1  0  0  0  0
 59 67  1  0  0  0  0
 60 67  1  0  0  0  0
 61 67  1  0  0  0  0
 62 78  1  0  0  0  0
 63 76  1  0  0  0  0
 64 77  1  0  0  0  0
 65 67  1  0  0  0  0
 65 75  1  0  0  0  0
 66 78  1  0  0  0  0
 68 69  1  0  0  0  0
M  CHG  2  77   1  78   1
M  ISO  4  40 100  54 101  76 100  85 101
M  END
> <Batch ID>
0045

> <Smiles>
C=C1N(Cc2cc(C[100NH:0][100C:0](=O)N3CCCC(n4nc(-c5ccc(Oc6ccc(F)cc6F)cc5)c(C(N)=O)c4N)C3)ccc2C)CCC[101CH:1]1[101O:1]c1ccc2c(c1)CN(C(=O)C(NC(=O)C(C)NC)C(C)(C)C)C(C(=O)NC1CCCc3ccccc31)C2

> <Shape>
0.229

> <Color>
0.060

> <Negative vol penalty>
0.000

$$$$

  -OEChem-04042322213D

 87 96  0     1  0  0  0  0  0999 V2000
  -19.9053  -11.3949   22.7576 C   0  0  0  0  0  0  0  0  0  0  0  0
  -20.9142  -12.2758   23.1339 C   0  0  0  0  0  0  0  0  0  0  0  0
  -30.0164  -24.7742   25.9894 C   0  0  0  0  0  0  0  0  0  0  0  0
  -22.3426  -28.7895   22.5136 C   0  0  0  0  0  0  0  0  0  0  0  0
  -22.1922  -28.7696   20.1024 C   0  0  0  0  0  0  0  0  0  0  0  0
  -20.2155  -10.2603   22.0090 C   0  0  0  0  0  0  0  0  0  0  0  0
  -22.2341  -12.0220   22.7626 C   0  0  0  0  0  0  0  0  0  0  0  0
  -24.5889  -16.1509   21.0156 C   0  0  0  0  0  0  0  0  0  0  0  0
  -30.4497  -24.8979   24.6693 C   0  0  0  0  0  0  0  0  0  0  0  0
  -20.9930  -28.4480   22.6007 C   0  0  0  0  0  0  0  0  0  0  0  0
  -20.8426  -28.4281   20.1894 C   0  0  0  0  0  0  0  0  0  0  0  0
  -25.0392  -17.0740   21.9585 C   0  0  0  0  0  0  0  0  0  0  0  0
  -17.4971  -27.9333   23.4593 C   0  0  0  0  0  0  0  0  0  0  0  0
  -16.7090  -28.6266   24.3779 C   0  0  0  0  0  0  0  0  0  0  0  0
  -28.9163  -23.9711   26.2901 C   0  0  0  0  0  0  0  0  0  0  0  0
  -27.2688  -16.1732   21.7668 C   0  0  0  0  0  0  0  0  0  0  0  0
  -17.2160  -30.7007   23.2473 C   0  0  0  0  0  0  0  0  0  0  0  0
  -22.9422  -28.9504   21.2645 C   0  0  0  0  0  0  0  0  0  0  0  0
  -24.9554  -30.4590   21.6874 C   0  0  0  0  0  0  0  0  0  0  0  0
  -21.5385   -9.9976   21.6201 C   0  0  0  0  0  0  0  0  0  0  0  0
  -25.4745  -15.2233   20.4484 C   0  0  0  0  0  0  0  0  0  0  0  0
  -22.5625  -10.8822   22.0092 C   0  0  0  0  0  0  0  0  0  0  0  0
  -26.8278  -15.2411   20.8150 C   0  0  0  0  0  0  0  0  0  0  0  0
  -29.7827  -24.2185   23.6499 C   0  0  0  0  0  0  0  0  0  0  0  0
  -28.6826  -23.4154   23.9505 C   0  0  0  0  0  0  0  0  0  0  0  0
  -20.2430  -28.2673   21.4386 C   0  0  0  0  0  0  0  0  0  0  0  0
  -26.3787  -17.0834   22.3363 C   0  0  0  0  0  0  0  0  0  0  0  0
  -18.1447  -28.6237   22.4348 C   0  0  0  0  0  0  0  0  0  0  0  0
  -16.5685  -30.0103   24.2719 C   0  0  0  0  0  0  0  0  0  0  0  0
  -18.0041  -30.0074   22.3288 C   0  0  0  0  0  0  0  0  0  0  0  0
  -28.2494  -23.2917   25.2707 C   0  0  0  0  0  0  0  0  0  0  0  0
  -24.3361  -29.3037   21.1740 C   0  0  0  0  0  0  0  0  0  0  0  0
  -26.2773  -30.3230   21.3405 C   0  0  0  0  0  0  0  0  0  0  0  0
  -27.2943  -20.3041   22.9362 C   0  0  0  0  0  0  0  0  0  0  0  0
  -24.3865  -31.5569   22.4132 C   0  0  0  0  0  0  0  0  0  0  0  0
  -25.6867  -12.0519   20.4206 C   0  0  0  0  0  0  0  0  0  0  0  0
  -28.1101  -12.6215   18.3408 C   0  0  0  0  0  0  0  0  0  0  0  0
  -30.8421  -14.9610   18.0576 C   0  0  0  0  0  0  0  0  0  0  0  0
  -29.7102  -25.5654   20.1437 C   0  0  0  0  0  0  0  0  0  0  0  0
  -21.8319   -8.7335   20.8515 C   0  0  0  0  0  0  0  0  0  0  0  0
  -24.9785  -14.2517   19.4129 C   0  0  0  0  0  0  0  0  0  0  0  0
  -27.8231  -14.2796   20.2207 C   0  0  0  0  0  0  0  0  0  0  0  0
  -23.2024   -8.7335   20.1793 C   0  0  0  0  0  0  0  0  0  0  0  0
  -30.1554  -19.7353   23.3961 C   0  0  0  0  0  0  0  0  0  0  0  0
  -29.0912  -28.3493   18.0122 C   0  0  0  0  0  0  0  0  0  0  0  0
  -24.2742   -9.2144   21.1523 C   0  0  0  0  0  0  0  0  0  0  0  0
  -29.0532  -18.7367   23.7448 C   0  0  0  0  0  0  0  0  0  0  0  0
  -27.8582  -29.0138   18.6271 C   0  0  0  0  0  0  0  0  0  0  0  0
  -29.6677  -20.8867   22.5213 C   0  0  0  0  0  0  0  0  0  0  0  0
  -29.0273  -26.8277   18.1246 C   0  0  0  0  0  0  0  0  0  0  0  0
  -27.5675  -26.9810   20.1043 C   0  0  0  0  0  0  0  0  0  0  0  0
  -24.0028  -10.6543   21.6046 C   0  0  1  0  0  0  0  0  0  0  0  0
  -27.8334  -18.8830   22.8441 C   0  0  1  0  0  0  0  0  0  1  0  0
  -25.8629  -13.0156   19.2813 C   0  0  1  0  0  0  0  0  0  0  0  0
  -27.6125  -28.5181   20.0649 C   0  0  2  0  0  0  0  0  0  0  0  0
  -32.0572  -15.8131   16.0341 C   0  0  0  0  0  0  0  0  0  0  0  0
  -30.0728  -10.3596   18.9250 C   0  0  0  0  0  0  0  0  0  0  0  0
  -31.9339  -11.8961   18.2589 C   0  0  0  0  0  0  0  0  0  0  0  0
  -30.1857  -11.2631   16.5958 C   0  0  0  0  0  0  0  0  0  0  0  0
  -30.2960  -17.7803   18.7735 C   0  0  0  0  0  0  0  0  0  0  0  0
  -27.9761  -22.6910   22.8413 C   0  0  0  0  0  0  0  0  0  0  0  0
  -30.2685  -24.3693   22.2453 C   0  0  0  0  0  0  0  0  0  0  0  0
  -29.5959  -12.8556   18.4688 C   0  0  1  0  0  0  0  0  0  0  0  0
  -30.9672  -16.0951   17.0564 C   0  0  2  0  0  0  0  0  0  0  0  0
  -30.4290  -11.6009   18.0829 C   0  0  0  0  0  0  0  0  0  0  0  0
  -25.1942  -28.4935   20.5483 N   0  0  0  0  0  0  0  0  0  0  0  0
  -26.3661  -29.1407   20.6663 N   0  0  0  0  0  0  0  0  0  0  0  0
  -28.2953  -21.2733   22.8278 N   0  0  0  0  0  0  0  0  0  0  0  0
  -27.2883  -13.3447   19.2169 N   0  0  0  0  0  0  0  0  0  0  0  0
  -28.7941  -26.4234   19.5131 N   0  0  0  0  0  0  0  0  0  0  0  0
  -27.3609  -31.1006   21.5493 N   0  0  0  0  0  0  0  0  0  0  0  0
  -23.0117  -31.5374   22.6849 N   0  0  0  0  0  0  0  0  0  0  0  0
  -24.3931  -11.5904   20.5722 N   0  0  0  0  0  0  0  0  0  0  0  0
  -29.8930  -14.0392   17.6693 N   0  0  0  0  0  0  0  0  0  0  0  0
  -29.4175  -25.2368   21.4617 N   0  0  0  0  0  0  0  0  0  0  0  0
  -31.2969  -17.3693   17.7555 N   0  3  0  0  0  0  0  0  0  0  0  0
  -26.0957  -20.5393   23.0789 O   0  0  0  0  0  0  0  0  0  0  0  0
  -25.0739  -32.5343   22.7947 O   0  0  0  0  0  0  0  0  0  0  0  0
  -26.6532  -11.7484   21.1102 O   0  0  0  0  0  0  0  0  0  0  0  0
  -27.6934  -11.8315   17.4899 O   0  0  0  0  0  0  0  0  0  0  0  0
  -31.5211  -14.8971   19.0800 O   0  0  0  0  0  0  0  0  0  0  0  0
  -30.7173  -25.1291   19.5760 O   0  0  0  0  0  0  0  0  0  0  0  0
  -18.9261  -27.9338   21.5231 O   0  0  0  0  0  0  0  0  0  0  0  0
  -26.8207  -17.9829   23.2569 O   0  0  0  0  0  0  0  0  0  1  0  0
  -15.8104  -30.6758   25.1532 F   0  0  0  0  0  0  0  0  0  0  0  0
  -18.6229  -30.6759   21.3459 F   0  0  0  0  0  0  0  0  0  0  0  0
  -26.8923  -22.3080   25.6848 Cl  0  0  0  0  0  0  0  0  0  0  0  0
  1  2  1  0  0  0  0
  1  6  2  0  0  0  0
  2  7  2  0  0  0  0
  3  9  2  0  0  0  0
  3 15  1  0  0  0  0
  4 10  2  0  0  0  0
  4 18  1  0  0  0  0
  5 11  1  0  0  0  0
  5 18  2  0  0  0  0
  6 20  1  0  0  0  0
  7 22  1  0  0  0  0
  8 12  2  0  0  0  0
  8 21  1  0  0  0  0
  9 24  1  0  0  0  0
 10 26  1  0  0  0  0
 11 26  2  0  0  0  0
 12 27  1  0  0  0  0
 13 14  2  0  0  0  0
 13 28  1  0  0  0  0
 14 29  1  0  0  0  0
 15 31  2  0  0  0  0
 16 23  1  0  0  0  0
 16 27  2  0  0  0  0
 17 29  2  0  0  0  0
 17 30  1  0  0  0  0
 18 32  1  0  0  0  0
 19 32  1  0  0  0  0
 19 33  2  0  0  0  0
 19 35  1  0  0  0  0
 20 22  2  0  0  0  0
 20 40  1  0  0  0  0
 21 23  2  0  0  0  0
 21 41  1  0  0  0  0
 22 52  1  0  0  0  0
 23 42  1  0  0  0  0
 24 25  2  0  0  0  0
 24 62  1  0  0  0  0
 25 31  1  0  0  0  0
 25 61  1  0  0  0  0
 26 83  1  0  0  0  0
 27 84  1  0  0  0  0
 28 30  2  0  0  0  0
 28 83  1  0  0  0  0
 29 85  1  0  0  0  0
 30 86  1  0  0  0  0
 31 87  1  0  0  0  0
 32 66  2  0  0  0  0
 33 67  1  0  0  0  0
 33 71  1  0  0  0  0
 34 53  1  0  0  0  0
 34 68  1  0  0  0  0
 34 77  2  0  0  0  0
 35 72  1  0  0  0  0
 35 78  2  0  0  0  0
 36 54  1  0  0  0  0
 36 73  1  0  0  0  0
 36 79  2  0  0  0  0
 37 63  1  0  0  0  0
 37 69  1  0  0  0  0
 37 80  2  0  0  0  0
 38 64  1  0  0  0  0
 38 74  1  0  0  0  0
 38 81  2  0  0  0  0
 39 70  1  0  0  0  0
 39 75  1  0  0  0  0
 39 82  2  0  0  0  0
 40 43  1  0  0  0  0
 41 54  1  0  0  0  0
 42 69  1  0  0  0  0
 43 46  1  0  0  0  0
 44 47  1  0  0  0  0
 44 49  1  0  0  0  0
 45 48  1  0  0  0  0
 45 50  1  0  0  0  0
 46 52  1  0  0  0  0
 47 53  1  0  0  0  0
 48 55  1  0  0  0  0
 49 68  1  0  0  0  0
 50 70  1  0  0  0  0
 51 55  1  0  0  0  0
 51 70  1  0  0  0  0
 52 73  1  0  0  0  0
 53 84  1  0  0  0  0
 54 69  1  0  0  0  0
 55 67  1  0  0  0  0
 56 64  1  0  0  0  0
 57 65  1  0  0  0  0
 58 65  1  0  0  0  0
 59 65  1  0  0  0  0
 60 76  1  0  0  0  0
 61 68  1  0  0  0  0
 62 75  1  0  0  0  0
 63 65  1  0  0  0  0
 63 74  1  0  0  0  0
 64 76  1  0  0  0  0
 66 67  1  0  0  0  0
M  CHG  1  76   1
M  ISO  4  39 100  53 101  75 100  84 101
M  END
> <Batch ID>
0045

> <Smiles>
CNC(C)C(=O)NC(C(=O)N1Cc2cc([101O:1][101CH:1]3CCCN(Cc4c(Cl)cccc4C[100NH:0][100C:0](=O)N4CCCC(n5nc(-c6ccc(Oc7ccc(F)cc7F)cc6)c(C(N)=O)c5N)C4)C3=O)ccc2CC1C(=O)NC1CCCc2ccccc21)C(C)(C)C

> <Shape>
0.280

> <Color>
0.073

> <Negative vol penalty>
0.000

$$$$

  -OEChem-04042322213D

 87 96  0     1  0  0  0  0  0999 V2000
  -22.8091  -29.9609   30.2511 C   0  0  0  0  0  0  0  0  0  0  0  0
  -23.6653  -28.8745   30.1026 C   0  0  0  0  0  0  0  0  0  0  0  0
  -22.6683  -10.1987   20.1640 C   0  0  0  0  0  0  0  0  0  0  0  0
  -24.3218   -9.4106   21.7395 C   0  0  0  0  0  0  0  0  0  0  0  0
  -21.4472  -29.7498   30.4623 C   0  0  0  0  0  0  0  0  0  0  0  0
  -23.1603  -27.5763   30.1662 C   0  0  0  0  0  0  0  0  0  0  0  0
  -24.9982  -24.5952   26.5083 C   0  0  0  0  0  0  0  0  0  0  0  0
  -21.9326   -9.0285   20.3507 C   0  0  0  0  0  0  0  0  0  0  0  0
  -23.5860   -8.2404   21.9262 C   0  0  0  0  0  0  0  0  0  0  0  0
  -26.2875  -24.0944   26.6828 C   0  0  0  0  0  0  0  0  0  0  0  0
  -20.8395   -7.2739   23.6417 C   0  0  0  0  0  0  0  0  0  0  0  0
  -20.6558   -6.8275   24.9504 C   0  0  0  0  0  0  0  0  0  0  0  0
  -25.3644  -21.9920   27.4223 C   0  0  0  0  0  0  0  0  0  0  0  0
  -30.6278  -19.7667   21.8772 C   0  0  0  0  0  0  0  0  0  0  0  0
  -31.1677  -17.6672   20.8107 C   0  0  0  0  0  0  0  0  0  0  0  0
  -29.5869  -17.7231   22.6369 C   0  0  0  0  0  0  0  0  0  0  0  0
  -21.7761   -4.7584   24.4019 C   0  0  0  0  0  0  0  0  0  0  0  0
  -23.8629  -10.3898   20.8584 C   0  0  0  0  0  0  0  0  0  0  0  0
  -24.1995  -12.9179   20.9107 C   0  0  0  0  0  0  0  0  0  0  0  0
  -20.9237  -28.4485   30.5189 C   0  0  0  0  0  0  0  0  0  0  0  0
  -23.8803  -23.8005   26.8004 C   0  0  0  0  0  0  0  0  0  0  0  0
  -21.7903  -27.3476   30.3797 C   0  0  0  0  0  0  0  0  0  0  0  0
  -24.0619  -22.4842   27.2483 C   0  0  0  0  0  0  0  0  0  0  0  0
  -31.3347  -19.0483   20.9130 C   0  0  0  0  0  0  0  0  0  0  0  0
  -29.7539  -19.1042   22.7392 C   0  0  0  0  0  0  0  0  0  0  0  0
  -30.2938  -17.0046   21.6727 C   0  0  0  0  0  0  0  0  0  0  0  0
  -22.3914   -8.0493   21.2318 C   0  0  0  0  0  0  0  0  0  0  0  0
  -26.4708  -22.7936   27.1427 C   0  0  0  0  0  0  0  0  0  0  0  0
  -21.4914   -6.4625   22.7131 C   0  0  0  0  0  0  0  0  0  0  0  0
  -21.1242   -5.5698   25.3305 C   0  0  0  0  0  0  0  0  0  0  0  0
  -21.9597   -5.2048   23.0932 C   0  0  0  0  0  0  0  0  0  0  0  0
  -24.6236  -11.5982   20.6655 C   0  0  0  0  0  0  0  0  0  0  0  0
  -25.2805  -13.6945   20.5718 C   0  0  0  0  0  0  0  0  0  0  0  0
  -29.2506  -21.4198   25.6339 C   0  0  0  0  0  0  0  0  0  0  0  0
  -29.8010  -22.6264   25.4206 C   0  0  0  0  0  0  0  0  0  0  0  0
  -22.9410  -13.3989   21.4011 C   0  0  0  0  0  0  0  0  0  0  0  0
  -21.4625  -23.9982   28.8544 C   0  0  0  0  0  0  0  0  0  0  0  0
  -20.3981  -21.3864   27.2520 C   0  0  0  0  0  0  0  0  0  0  0  0
  -21.8283  -18.3623   25.9003 C   0  0  0  0  0  0  0  0  0  0  0  0
  -30.7487  -14.7396   20.6681 C   0  0  0  0  0  0  0  0  0  0  0  0
  -19.4520  -28.2695   30.7963 C   0  0  0  0  0  0  0  0  0  0  0  0
  -22.4960  -24.3465   26.5814 C   0  0  0  0  0  0  0  0  0  0  0  0
  -22.8949  -21.5834   27.5567 C   0  0  0  0  0  0  0  0  0  0  0  0
  -18.9380  -26.8681   30.4768 C   0  0  0  0  0  0  0  0  0  0  0  0
  -29.5698  -12.4993   18.1645 C   0  0  0  0  0  0  0  0  0  0  0  0
  -28.9820  -18.8036   26.7755 C   0  0  0  0  0  0  0  0  0  0  0  0
  -19.8810  -25.8115   31.0436 C   0  0  0  0  0  0  0  0  0  0  0  0
  -28.4216  -20.0117   27.5178 C   0  0  0  0  0  0  0  0  0  0  0  0
  -28.1430  -12.1737   18.6122 C   0  0  0  0  0  0  0  0  0  0  0  0
  -30.5182  -12.6436   19.3534 C   0  0  0  0  0  0  0  0  0  0  0  0
  -28.6504  -13.2618   20.8361 C   0  0  0  0  0  0  0  0  0  0  0  0
  -30.1772  -19.1872   25.9092 C   0  0  0  0  0  0  0  0  0  0  0  0
  -21.2764  -25.9247   30.4179 C   0  0  1  0  0  0  0  0  0  0  0  0
  -28.0833  -21.1503   26.5567 C   0  0  1  0  0  0  0  0  0  1  0  0
  -21.4317  -23.6223   27.4000 C   0  0  1  0  0  0  0  0  0  0  0  0
  -27.6449  -13.1710   19.6765 C   0  0  2  0  0  0  0  0  0  0  0  0
  -32.2692  -19.7568   19.9916 C   0  0  0  0  0  0  0  0  0  0  0  0
  -30.9511  -22.8628   24.5055 C   0  0  0  0  0  0  0  0  0  0  0  0
  -21.0781  -16.9130   23.9939 C   0  0  0  0  0  0  0  0  0  0  0  0
  -18.9731  -19.7762   29.4168 C   0  0  0  0  0  0  0  0  0  0  0  0
  -19.5939  -17.6915   28.1771 C   0  0  0  0  0  0  0  0  0  0  0  0
  -18.1200  -19.3902   27.0978 C   0  0  0  0  0  0  0  0  0  0  0  0
  -24.4500  -18.5869   24.5456 C   0  0  0  0  0  0  0  0  0  0  0  0
  -28.9935  -19.8772   23.7761 C   0  0  0  0  0  0  0  0  0  0  0  0
  -20.5790  -19.8948   27.3987 C   0  0  1  0  0  0  0  0  0  0  0  0
  -22.0191  -18.0242   24.4327 C   0  0  2  0  0  0  0  0  0  0  0  0
  -19.3366  -19.2065   28.0311 C   0  0  0  0  0  0  0  0  0  0  0  0
  -25.8763  -11.5361   20.2061 N   0  0  0  0  0  0  0  0  0  0  0  0
  -26.2486  -12.8266   20.1599 N   0  0  0  0  0  0  0  0  0  0  0  0
  -21.5611  -22.1653   27.3326 N   0  0  0  0  0  0  0  0  0  0  0  0
  -29.9834  -13.6072   20.3180 N   0  0  0  0  0  0  0  0  0  0  0  0
  -25.4879  -15.0284   20.5889 N   0  0  0  0  0  0  0  0  0  0  0  0
  -22.7742  -13.5432   22.7852 N   0  0  0  0  0  0  0  0  0  0  0  0
  -30.1240  -15.6017   21.5687 N   0  0  0  0  0  0  0  0  0  0  0  0
  -21.2835  -25.3478   29.0906 N   0  0  0  0  0  0  0  0  0  0  0  0
  -20.9301  -19.3939   26.0742 N   0  0  0  0  0  0  0  0  0  0  0  0
  -29.8471  -20.2991   24.9403 N   0  3  1  0  0  0  0  0  0  0  0  0
  -23.4194  -17.5809   24.1811 N   0  3  0  0  0  0  0  0  0  0  0  0
  -21.9868  -13.6764   20.6355 O   0  0  0  0  0  0  0  0  0  0  0  0
  -21.6345  -23.1279   29.6998 O   0  0  0  0  0  0  0  0  0  0  0  0
  -19.2675  -21.8429   27.0653 O   0  0  0  0  0  0  0  0  0  0  0  0
  -22.4144  -17.7679   26.8024 O   0  0  0  0  0  0  0  0  0  0  0  0
  -31.8641  -14.9446   20.1824 O   0  0  0  0  0  0  0  0  0  0  0  0
  -21.6737   -6.9074   21.4144 O   0  0  0  0  0  0  0  0  0  0  0  0
  -27.7283  -22.3025   27.3145 O   0  0  0  0  0  0  0  0  0  1  0  0
  -20.9491   -5.1419   26.5877 F   0  0  0  0  0  0  0  0  0  0  0  0
  -22.5878   -4.4213   22.2058 F   0  0  0  0  0  0  0  0  0  0  0  0
  1  2  1  0  0  0  0
  1  5  2  0  0  0  0
  2  6  2  0  0  0  0
  3  8  2  0  0  0  0
  3 18  1  0  0  0  0
  4  9  1  0  0  0  0
  4 18  2  0  0  0  0
  5 20  1  0  0  0  0
  6 22  1  0  0  0  0
  7 10  2  0  0  0  0
  7 21  1  0  0  0  0
  8 27  1  0  0  0  0
  9 27  2  0  0  0  0
 10 28  1  0  0  0  0
 11 12  2  0  0  0  0
 11 29  1  0  0  0  0
 12 30  1  0  0  0  0
 13 23  1  0  0  0  0
 13 28  2  0  0  0  0
 14 24  2  0  0  0  0
 14 25  1  0  0  0  0
 15 24  1  0  0  0  0
 15 26  2  0  0  0  0
 16 25  2  0  0  0  0
 16 26  1  0  0  0  0
 17 30  2  0  0  0  0
 17 31  1  0  0  0  0
 18 32  1  0  0  0  0
 19 32  1  0  0  0  0
 19 33  2  0  0  0  0
 19 36  1  0  0  0  0
 20 22  2  0  0  0  0
 20 41  1  0  0  0  0
 21 23  2  0  0  0  0
 21 42  1  0  0  0  0
 22 53  1  0  0  0  0
 23 43  1  0  0  0  0
 24 57  1  0  0  0  0
 25 64  1  0  0  0  0
 26 74  1  0  0  0  0
 27 84  1  0  0  0  0
 28 85  1  0  0  0  0
 29 31  2  0  0  0  0
 29 84  1  0  0  0  0
 30 86  1  0  0  0  0
 31 87  1  0  0  0  0
 32 68  2  0  0  0  0
 33 69  1  0  0  0  0
 33 72  1  0  0  0  0
 34 35  2  0  0  0  0
 34 54  1  0  0  0  0
 34 77  1  0  0  0  0
 35 58  1  0  0  0  0
 36 73  1  0  0  0  0
 36 79  2  0  0  0  0
 37 55  1  0  0  0  0
 37 75  1  0  0  0  0
 37 80  2  0  0  0  0
 38 65  1  0  0  0  0
 38 70  1  0  0  0  0
 38 81  2  0  0  0  0
 39 66  1  0  0  0  0
 39 76  1  0  0  0  0
 39 82  2  0  0  0  0
 40 71  1  0  0  0  0
 40 74  1  0  0  0  0
 40 83  2  0  0  0  0
 41 44  1  0  0  0  0
 42 55  1  0  0  0  0
 43 70  1  0  0  0  0
 44 47  1  0  0  0  0
 45 49  1  0  0  0  0
 45 50  1  0  0  0  0
 46 48  1  0  0  0  0
 46 52  1  0  0  0  0
 47 53  1  0  0  0  0
 48 54  1  0  0  0  0
 49 56  1  0  0  0  0
 50 71  1  0  0  0  0
 51 56  1  0  0  0  0
 51 71  1  0  0  0  0
 52 77  1  0  0  0  0
 53 75  1  0  0  0  0
 54 85  1  0  0  0  0
 55 70  1  0  0  0  0
 56 69  1  0  0  0  0
 59 66  1  0  0  0  0
 60 67  1  0  0  0  0
 61 67  1  0  0  0  0
 62 67  1  0  0  0  0
 63 78  1  0  0  0  0
 64 77  1  0  0  0  0
 65 67  1  0  0  0  0
 65 76  1  0  0  0  0
 66 78  1  0  0  0  0
 68 69  1  0  0  0  0
M  CHG  2  77   1  78   1
M  ISO  4  40 100  54 101  74 100  85 101
M  END
> <Batch ID>
0045

> <Smiles>
CC=C1N(Cc2cc(C)cc([100NH:0][100C:0](=O)N3CCCC(n4nc(-c5ccc(Oc6ccc(F)cc6F)cc5)c(C(N)=O)c4N)C3)c2)CCC[101CH:1]1[101O:1]c1ccc2c(c1)CN(C(=O)C(NC(=O)C(C)NC)C(C)(C)C)C(C(=O)NC1CCCc3ccccc31)C2

> <Shape>
0.189

> <Color>
0.172

> <Negative vol penalty>
0.000

$$$$

  -OEChem-04042322213D

 84 92  0     1  0  0  0  0  0999 V2000
  -27.0792  -33.9090   20.5993 C   0  0  0  0  0  0  0  0  0  0  0  0
  -26.9101  -32.5842   20.2097 C   0  0  0  0  0  0  0  0  0  0  0  0
  -26.6298  -12.6532   21.7106 C   0  0  0  0  0  0  0  0  0  0  0  0
  -26.0780  -13.9068   19.7203 C   0  0  0  0  0  0  0  0  0  0  0  0
  -26.5478  -34.3517   21.8099 C   0  0  0  0  0  0  0  0  0  0  0  0
  -26.2103  -31.7010   21.0311 C   0  0  0  0  0  0  0  0  0  0  0  0
  -22.9265  -28.8363   18.4512 C   0  0  0  0  0  0  0  0  0  0  0  0
  -25.3455  -12.1092   21.7241 C   0  0  0  0  0  0  0  0  0  0  0  0
  -24.7937  -13.3628   19.7338 C   0  0  0  0  0  0  0  0  0  0  0  0
  -23.4458  -27.7540   17.7422 C   0  0  0  0  0  0  0  0  0  0  0  0
  -23.6587   -9.6646   20.1081 C   0  0  0  0  0  0  0  0  0  0  0  0
  -23.5376   -8.2939   20.3367 C   0  0  0  0  0  0  0  0  0  0  0  0
  -29.9820  -23.7341   17.9075 C   0  0  0  0  0  0  0  0  0  0  0  0
  -22.7718  -26.2722   19.5224 C   0  0  0  0  0  0  0  0  0  0  0  0
  -30.9764  -22.4172   19.6721 C   0  0  0  0  0  0  0  0  0  0  0  0
  -22.2065   -8.7394   22.3031 C   0  0  0  0  0  0  0  0  0  0  0  0
  -26.9961  -13.5520   20.7087 C   0  0  0  0  0  0  0  0  0  0  0  0
  -28.9275  -22.8250   17.8233 C   0  0  0  0  0  0  0  0  0  0  0  0
  -29.4603  -13.5932   20.0504 C   0  0  0  0  0  0  0  0  0  0  0  0
  -25.8328  -33.4759   22.6420 C   0  0  0  0  0  0  0  0  0  0  0  0
  -22.3347  -28.6458   19.7082 C   0  0  0  0  0  0  0  0  0  0  0  0
  -25.6699  -32.1321   22.2546 C   0  0  0  0  0  0  0  0  0  0  0  0
  -22.2435  -27.3533   20.2442 C   0  0  0  0  0  0  0  0  0  0  0  0
  -28.8973  -21.7121   18.6635 C   0  0  0  0  0  0  0  0  0  0  0  0
  -29.9218  -21.5081   19.5880 C   0  0  0  0  0  0  0  0  0  0  0  0
  -24.4274  -12.4640   20.7357 C   0  0  0  0  0  0  0  0  0  0  0  0
  -23.3711  -26.4721   18.2790 C   0  0  0  0  0  0  0  0  0  0  0  0
  -23.0537  -10.5727   20.9771 C   0  0  0  0  0  0  0  0  0  0  0  0
  -22.8115   -7.8313   21.4341 C   0  0  0  0  0  0  0  0  0  0  0  0
  -22.3276  -10.1101   22.0745 C   0  0  0  0  0  0  0  0  0  0  0  0
  -31.0066  -23.5301   18.8319 C   0  0  0  0  0  0  0  0  0  0  0  0
  -28.3225  -14.1147   20.6946 C   0  0  0  0  0  0  0  0  0  0  0  0
  -30.4593  -14.4909   20.3378 C   0  0  0  0  0  0  0  0  0  0  0  0
  -27.0871  -24.3453   16.9692 C   0  0  0  0  0  0  0  0  0  0  0  0
  -25.7995  -24.4218   16.6068 C   0  0  0  0  0  0  0  0  0  0  0  0
  -27.8477  -23.0709   16.8271 C   0  0  0  0  0  0  0  0  0  0  0  0
  -29.6016  -12.4037   19.2625 C   0  0  0  0  0  0  0  0  0  0  0  0
  -22.9589  -29.6540   22.6574 C   0  0  0  0  0  0  0  0  0  0  0  0
  -20.1509  -28.1791   23.3374 C   0  0  0  0  0  0  0  0  0  0  0  0
  -17.8468  -25.8062   22.4966 C   0  0  0  0  0  0  0  0  0  0  0  0
  -30.4491  -20.3006   21.7351 C   0  0  0  0  0  0  0  0  0  0  0  0
  -25.3175  -33.9886   23.9634 C   0  0  0  0  0  0  0  0  0  0  0  0
  -21.7553  -29.8201   20.4484 C   0  0  0  0  0  0  0  0  0  0  0  0
  -21.5998  -27.0927   21.5807 C   0  0  0  0  0  0  0  0  0  0  0  0
  -24.2669  -33.0826   24.6004 C   0  0  0  0  0  0  0  0  0  0  0  0
  -31.8121  -17.6458   23.6771 C   0  0  0  0  0  0  0  0  0  0  0  0
  -24.7186  -31.6264   24.5535 C   0  0  0  0  0  0  0  0  0  0  0  0
  -31.1801  -16.3911   23.0701 C   0  0  0  0  0  0  0  0  0  0  0  0
  -30.8362  -18.8210   23.6937 C   0  0  0  0  0  0  0  0  0  0  0  0
  -29.5861  -17.8783   21.7917 C   0  0  0  0  0  0  0  0  0  0  0  0
  -24.8956  -31.1500   23.1067 C   0  0  1  0  0  0  0  0  0  0  0  0
  -21.6353  -29.5796   21.9501 C   0  0  1  0  0  0  0  0  0  0  0  0
  -30.5518  -16.6860   21.6939 C   0  0  2  0  0  0  0  0  0  0  0  0
  -27.7657  -20.7360   18.5722 C   0  0  0  0  0  0  0  0  0  0  0  0
  -15.6759  -24.8089   23.2647 C   0  0  0  0  0  0  0  0  0  0  0  0
  -21.6325  -26.6354   25.5126 C   0  0  0  0  0  0  0  0  0  0  0  0
  -19.7126  -25.0300   25.5837 C   0  0  0  0  0  0  0  0  0  0  0  0
  -19.3525  -27.4289   26.1654 C   0  0  0  0  0  0  0  0  0  0  0  0
  -16.4595  -26.6224   20.0131 C   0  0  0  0  0  0  0  0  0  0  0  0
  -24.9875  -25.6705   16.7297 C   0  0  0  0  0  0  0  0  0  1  0  0
  -19.7490  -26.7846   23.7530 C   0  0  1  0  0  0  0  0  0  0  0  0
  -16.3337  -25.8646   22.3897 C   0  0  2  0  0  0  0  0  0  0  0  0
  -20.1256  -26.4746   25.2294 C   0  0  0  0  0  0  0  0  0  0  0  0
  -28.5741  -15.2553   21.3426 N   0  0  0  0  0  0  0  0  0  0  0  0
  -27.6547  -22.2184   15.8716 N   0  0  0  0  0  0  0  0  0  0  0  0
  -29.8817  -15.4577   21.1070 N   0  0  0  0  0  0  0  0  0  0  0  0
  -21.0536  -28.2742   22.2688 N   0  0  0  0  0  0  0  0  0  0  0  0
  -30.2843  -19.0442   22.3556 N   0  0  0  0  0  0  0  0  0  0  0  0
  -31.7667  -14.5396   20.0051 N   0  0  0  0  0  0  0  0  0  0  0  0
  -28.4743  -11.5944   19.0663 N   0  0  0  0  0  0  0  0  0  0  0  0
  -29.9109  -20.3847   20.4514 N   0  0  0  0  0  0  0  0  0  0  0  0
  -23.6095  -30.8638   22.5079 N   0  0  0  0  0  0  0  0  0  0  0  0
  -18.3242  -26.6667   23.4624 N   0  0  0  0  0  0  0  0  0  0  0  0
  -15.9049  -25.6405   20.9802 N   0  3  0  0  0  0  0  0  0  0  0  0
  -30.6990  -12.0597   18.7614 O   0  0  0  0  0  0  0  0  0  0  0  0
  -23.3595  -28.6859   23.2930 O   0  0  0  0  0  0  0  0  0  0  0  0
  -19.6758  -29.1486   23.9340 O   0  0  0  0  0  0  0  0  0  0  0  0
  -18.5360  -25.0680   21.7961 O   0  0  0  0  0  0  0  0  0  0  0  0
  -31.0489  -21.2248   22.2901 O   0  0  0  0  0  0  0  0  0  0  0  0
  -23.1742  -11.9331   20.7484 O   0  0  0  0  0  0  0  0  0  0  0  0
  -23.8778  -25.4140   17.5894 O   0  0  0  0  0  0  0  0  0  1  0  0
  -22.6941   -6.5150   21.6526 F   0  0  0  0  0  0  0  0  0  0  0  0
  -21.7432  -10.9776   22.9121 F   0  0  0  0  0  0  0  0  0  0  0  0
  -32.3082  -24.6519   18.9354 Cl  0  0  0  0  0  0  0  0  0  0  0  0
  1  2  1  0  0  0  0
  1  5  2  0  0  0  0
  2  6  2  0  0  0  0
  3  8  2  0  0  0  0
  3 17  1  0  0  0  0
  4  9  1  0  0  0  0
  4 17  2  0  0  0  0
  5 20  1  0  0  0  0
  6 22  1  0  0  0  0
  7 10  2  0  0  0  0
  7 21  1  0  0  0  0
  8 26  1  0  0  0  0
  9 26  2  0  0  0  0
 10 27  1  0  0  0  0
 11 12  2  0  0  0  0
 11 28  1  0  0  0  0
 12 29  1  0  0  0  0
 13 18  1  0  0  0  0
 13 31  2  0  0  0  0
 14 23  1  0  0  0  0
 14 27  2  0  0  0  0
 15 25  2  0  0  0  0
 15 31  1  0  0  0  0
 16 29  2  0  0  0  0
 16 30  1  0  0  0  0
 17 32  1  0  0  0  0
 18 24  2  0  0  0  0
 18 36  1  0  0  0  0
 19 32  1  0  0  0  0
 19 33  2  0  0  0  0
 19 37  1  0  0  0  0
 20 22  2  0  0  0  0
 20 42  1  0  0  0  0
 21 23  2  0  0  0  0
 21 43  1  0  0  0  0
 22 51  1  0  0  0  0
 23 44  1  0  0  0  0
 24 25  1  0  0  0  0
 24 54  1  0  0  0  0
 25 71  1  0  0  0  0
 26 80  1  0  0  0  0
 27 81  1  0  0  0  0
 28 30  2  0  0  0  0
 28 80  1  0  0  0  0
 29 82  1  0  0  0  0
 30 83  1  0  0  0  0
 31 84  1  0  0  0  0
 32 64  2  0  0  0  0
 33 66  1  0  0  0  0
 33 69  1  0  0  0  0
 34 35  2  0  0  0  0
 34 36  1  0  0  0  0
 35 60  1  0  0  0  0
 36 65  2  0  0  0  0
 37 70  1  0  0  0  0
 37 75  2  0  0  0  0
 38 52  1  0  0  0  0
 38 72  1  0  0  0  0
 38 76  2  0  0  0  0
 39 61  1  0  0  0  0
 39 67  1  0  0  0  0
 39 77  2  0  0  0  0
 40 62  1  0  0  0  0
 40 73  1  0  0  0  0
 40 78  2  0  0  0  0
 41 68  1  0  0  0  0
 41 71  1  0  0  0  0
 41 79  2  0  0  0  0
 42 45  1  0  0  0  0
 43 52  1  0  0  0  0
 44 67  1  0  0  0  0
 45 47  1  0  0  0  0
 46 48  1  0  0  0  0
 46 49  1  0  0  0  0
 47 51  1  0  0  0  0
 48 53  1  0  0  0  0
 49 68  1  0  0  0  0
 50 53  1  0  0  0  0
 50 68  1  0  0  0  0
 51 72  1  0  0  0  0
 52 67  1  0  0  0  0
 53 66  1  0  0  0  0
 55 62  1  0  0  0  0
 56 63  1  0  0  0  0
 57 63  1  0  0  0  0
 58 63  1  0  0  0  0
 59 74  1  0  0  0  0
 60 81  1  0  0  0  0
 61 63  1  0  0  0  0
 61 73  1  0  0  0  0
 62 74  1  0  0  0  0
 64 66  1  0  0  0  0
M  CHG  1  74   1
M  ISO  4  41 100  60 101  71 100  81 101
M  END
> <Batch ID>
0045

> <Smiles>
CNC(C)C(=O)NC(C(=O)N1Cc2cc([101O:1][101CH2:1]C=CC(=N)c3cc(Cl)cc([100NH:0][100C:0](=O)N4CCCC(n5nc(-c6ccc(Oc7ccc(F)cc7F)cc6)c(C(N)=O)c5N)C4)c3C)ccc2CC1C(=O)NC1CCCc2ccccc21)C(C)(C)C

> <Shape>
0.312

> <Color>
0.069

> <Negative vol penalty>
0.000

$$$$

  -OEChem-04042322213D

 85 93  0     1  0  0  0  0  0999 V2000
  -24.0639  -29.6383   22.4393 C   0  0  0  0  0  0  0  0  0  0  0  0
  -23.9148  -28.2555   22.4709 C   0  0  0  0  0  0  0  0  0  0  0  0
  -20.8498  -23.2819   23.9836 C   0  0  0  0  0  0  0  0  0  0  0  0
  -21.5697  -22.7519   21.7391 C   0  0  0  0  0  0  0  0  0  0  0  0
  -24.8858  -30.2279   21.4797 C   0  0  0  0  0  0  0  0  0  0  0  0
  -24.5867  -27.4615   21.5421 C   0  0  0  0  0  0  0  0  0  0  0  0
  -26.9016  -21.8683   22.4711 C   0  0  0  0  0  0  0  0  0  0  0  0
  -20.8023  -24.6351   23.6489 C   0  0  0  0  0  0  0  0  0  0  0  0
  -21.5221  -24.1051   21.4043 C   0  0  0  0  0  0  0  0  0  0  0  0
  -26.4187  -20.5931   22.1804 C   0  0  0  0  0  0  0  0  0  0  0  0
  -20.1436  -28.1914   23.2827 C   0  0  0  0  0  0  0  0  0  0  0  0
  -19.0290  -28.9223   23.6938 C   0  0  0  0  0  0  0  0  0  0  0  0
  -27.6950  -20.5830   20.1334 C   0  0  0  0  0  0  0  0  0  0  0  0
  -23.3989  -10.9738   23.2895 C   0  0  0  0  0  0  0  0  0  0  0  0
  -23.6370  -11.5957   20.9671 C   0  0  0  0  0  0  0  0  0  0  0  0
  -17.5958  -27.4550   22.4170 C   0  0  0  0  0  0  0  0  0  0  0  0
  -21.2336  -22.3402   23.0287 C   0  0  0  0  0  0  0  0  0  0  0  0
  -20.2424  -20.0013   23.2622 C   0  0  0  0  0  0  0  0  0  0  0  0
  -25.5757  -29.4401   20.5448 C   0  0  0  0  0  0  0  0  0  0  0  0
  -27.7778  -22.5159   21.5883 C   0  0  0  0  0  0  0  0  0  0  0  0
  -25.4176  -28.0412   20.5683 C   0  0  0  0  0  0  0  0  0  0  0  0
  -28.1896  -21.8653   20.4164 C   0  0  0  0  0  0  0  0  0  0  0  0
  -23.5786  -12.3051   23.6645 C   0  0  0  0  0  0  0  0  0  0  0  0
  -23.8167  -12.9272   21.3421 C   0  0  0  0  0  0  0  0  0  0  0  0
  -23.7875  -13.2819   22.6908 C   0  0  0  0  0  0  0  0  0  0  0  0
  -21.1384  -25.0467   22.3592 C   0  0  0  0  0  0  0  0  0  0  0  0
  -26.8131  -19.9514   21.0101 C   0  0  0  0  0  0  0  0  0  0  0  0
  -19.9843  -27.0923   22.4387 C   0  0  0  0  0  0  0  0  0  0  0  0
  -17.7551  -28.5541   23.2609 C   0  0  0  0  0  0  0  0  0  0  0  0
  -18.7105  -26.7241   22.0059 C   0  0  0  0  0  0  0  0  0  0  0  0
  -23.4282  -10.6190   21.9407 C   0  0  0  0  0  0  0  0  0  0  0  0
  -21.2835  -20.9423   23.3741 C   0  0  0  0  0  0  0  0  0  0  0  0
  -20.7914  -18.8264   23.7148 C   0  0  0  0  0  0  0  0  0  0  0  0
  -18.8993  -20.1738   22.7912 C   0  0  0  0  0  0  0  0  0  0  0  0
  -27.6642  -25.1908   19.8748 C   0  0  0  0  0  0  0  0  0  0  0  0
  -30.7514  -24.4408   19.2197 C   0  0  0  0  0  0  0  0  0  0  0  0
  -25.5062  -15.9597   20.0644 C   0  0  0  0  0  0  0  0  0  0  0  0
  -33.1628  -22.0369   18.9897 C   0  0  0  0  0  0  0  0  0  0  0  0
  -24.9724  -15.1534   23.8907 C   0  0  0  0  0  0  0  0  0  0  0  0
  -26.4156  -30.1259   19.4966 C   0  0  0  0  0  0  0  0  0  0  0  0
  -28.3107  -23.8805   21.9294 C   0  0  0  0  0  0  0  0  0  0  0  0
  -29.1443  -22.5091   19.4456 C   0  0  0  0  0  0  0  0  0  0  0  0
  -27.3871  -29.1879   18.7848 C   0  0  0  0  0  0  0  0  0  0  0  0
  -25.1669  -17.9388   26.0999 C   0  0  0  0  0  0  0  0  0  0  0  0
  -26.6799  -27.9016   18.3699 C   0  0  0  0  0  0  0  0  0  0  0  0
  -24.0883  -18.8911   25.5785 C   0  0  0  0  0  0  0  0  0  0  0  0
  -25.8749  -17.2061   24.9617 C   0  0  0  0  0  0  0  0  0  0  0  0
  -23.9068  -17.4619   23.5021 C   0  0  0  0  0  0  0  0  0  0  0  0
  -26.1493  -27.1445   19.5933 C   0  0  1  0  0  0  0  0  0  0  0  0
  -28.7945  -24.6556   20.7077 C   0  0  1  0  0  0  0  0  0  0  0  0
  -23.1216  -18.1745   24.6153 C   0  0  2  0  0  0  0  0  0  0  0  0
  -23.5423  -12.6543   25.1172 C   0  0  0  0  0  0  0  0  0  0  0  0
  -35.5800  -21.7221   18.3935 C   0  0  0  0  0  0  0  0  0  0  0  0
  -30.0496  -24.6772   16.2597 C   0  0  0  0  0  0  0  0  0  0  0  0
  -32.1691  -23.4539   15.7311 C   0  0  0  0  0  0  0  0  0  0  0  0
  -32.2609  -25.6613   16.8894 C   0  0  0  0  0  0  0  0  0  0  0  0
  -33.8221  -21.0464   21.6995 C   0  0  0  0  0  0  0  0  0  0  0  0
  -24.0396  -13.9557   20.2713 C   0  0  0  0  0  0  0  0  0  0  0  0
  -26.9325  -16.4045   20.3478 C   0  0  0  0  0  0  0  0  0  0  0  0
  -27.1916  -17.8519   19.9590 C   0  0  0  0  0  0  0  0  0  1  0  0
  -31.4520  -23.6289   18.1572 C   0  0  1  0  0  0  0  0  0  0  0  0
  -34.5863  -21.9846   19.5144 C   0  0  2  0  0  0  0  0  0  0  0  0
  -31.4634  -24.3437   16.7765 C   0  0  0  0  0  0  0  0  0  0  0  0
  -22.4086  -20.4111   23.8598 N   0  0  0  0  0  0  0  0  0  0  0  0
  -22.0777  -19.1236   24.0572 N   0  0  0  0  0  0  0  0  0  0  0  0
  -29.6326  -23.8464   19.8205 N   0  0  0  0  0  0  0  0  0  0  0  0
  -24.8967  -16.5477   24.0930 N   0  0  0  0  0  0  0  0  0  0  0  0
  -20.2944  -17.5785   23.8493 N   0  0  0  0  0  0  0  0  0  0  0  0
  -18.4997  -21.4471   22.3632 N   0  0  0  0  0  0  0  0  0  0  0  0
  -23.9701  -14.6344   23.0718 N   0  0  0  0  0  0  0  0  0  0  0  0
  -27.2258  -26.4434   20.2598 N   0  0  0  0  0  0  0  0  0  0  0  0
  -25.3044  -14.6366   20.4302 N   0  0  0  0  0  0  0  0  0  0  0  0
  -32.7782  -23.3252   18.6838 N   0  0  0  0  0  0  0  0  0  0  0  0
  -34.7250  -20.9016   20.5287 N   0  3  0  0  0  0  0  0  0  0  0  0
  -18.0728  -19.2304   22.7665 O   0  0  0  0  0  0  0  0  0  0  0  0
  -27.2234  -24.5178   18.9505 O   0  0  0  0  0  0  0  0  0  0  0  0
  -31.1851  -25.5583   19.5110 O   0  0  0  0  0  0  0  0  0  0  0  0
  -24.6559  -16.6966   19.5726 O   0  0  0  0  0  0  0  0  0  0  0  0
  -32.4633  -21.0346   18.8602 O   0  0  0  0  0  0  0  0  0  0  0  0
  -25.8449  -14.4661   24.4278 O   0  0  0  0  0  0  0  0  0  0  0  0
  -21.0918  -26.3671   22.0321 O   0  0  0  0  0  0  0  0  0  0  0  0
  -26.3427  -18.7070   20.7236 O   0  0  0  0  0  0  0  0  0  1  0  0
  -16.6847  -29.2552   23.6570 F   0  0  0  0  0  0  0  0  0  0  0  0
  -18.5511  -25.6684   21.1960 F   0  0  0  0  0  0  0  0  0  0  0  0
  -23.2065   -8.9762   21.4780 Cl  0  0  0  0  0  0  0  0  0  0  0  0
  1  2  1  0  0  0  0
  1  5  2  0  0  0  0
  2  6  2  0  0  0  0
  3  8  2  0  0  0  0
  3 17  1  0  0  0  0
  4  9  1  0  0  0  0
  4 17  2  0  0  0  0
  5 19  1  0  0  0  0
  6 21  1  0  0  0  0
  7 10  2  0  0  0  0
  7 20  1  0  0  0  0
  8 26  1  0  0  0  0
  9 26  2  0  0  0  0
 10 27  1  0  0  0  0
 11 12  2  0  0  0  0
 11 28  1  0  0  0  0
 12 29  1  0  0  0  0
 13 22  1  0  0  0  0
 13 27  2  0  0  0  0
 14 23  2  0  0  0  0
 14 31  1  0  0  0  0
 15 24  1  0  0  0  0
 15 31  2  0  0  0  0
 16 29  2  0  0  0  0
 16 30  1  0  0  0  0
 17 32  1  0  0  0  0
 18 32  1  0  0  0  0
 18 33  2  0  0  0  0
 18 34  1  0  0  0  0
 19 21  2  0  0  0  0
 19 40  1  0  0  0  0
 20 22  2  0  0  0  0
 20 41  1  0  0  0  0
 21 49  1  0  0  0  0
 22 42  1  0  0  0  0
 23 25  1  0  0  0  0
 23 52  1  0  0  0  0
 24 25  2  0  0  0  0
 24 58  1  0  0  0  0
 25 70  1  0  0  0  0
 26 81  1  0  0  0  0
 27 82  1  0  0  0  0
 28 30  2  0  0  0  0
 28 81  1  0  0  0  0
 29 83  1  0  0  0  0
 30 84  1  0  0  0  0
 31 85  1  0  0  0  0
 32 64  2  0  0  0  0
 33 65  1  0  0  0  0
 33 68  1  0  0  0  0
 34 69  1  0  0  0  0
 34 75  2  0  0  0  0
 35 50  1  0  0  0  0
 35 71  1  0  0  0  0
 35 76  2  0  0  0  0
 36 61  1  0  0  0  0
 36 66  1  0  0  0  0
 36 77  2  0  0  0  0
 37 59  1  0  0  0  0
 37 72  1  0  0  0  0
 37 78  2  0  0  0  0
 38 62  1  0  0  0  0
 38 73  1  0  0  0  0
 38 79  2  0  0  0  0
 39 67  1  0  0  0  0
 39 70  1  0  0  0  0
 39 80  2  0  0  0  0
 40 43  1  0  0  0  0
 41 50  1  0  0  0  0
 42 66  1  0  0  0  0
 43 45  1  0  0  0  0
 44 46  1  0  0  0  0
 44 47  1  0  0  0  0
 45 49  1  0  0  0  0
 46 51  1  0  0  0  0
 47 67  1  0  0  0  0
 48 51  1  0  0  0  0
 48 67  1  0  0  0  0
 49 71  1  0  0  0  0
 50 66  1  0  0  0  0
 51 65  1  0  0  0  0
 53 62  1  0  0  0  0
 54 63  1  0  0  0  0
 55 63  1  0  0  0  0
 56 63  1  0  0  0  0
 57 74  1  0  0  0  0
 58 72  1  0  0  0  0
 59 60  1  0  0  0  0
 60 82  1  0  0  0  0
 61 63  1  0  0  0  0
 61 73  1  0  0  0  0
 62 74  1  0  0  0  0
 64 65  1  0  0  0  0
M  CHG  1  74   1
M  ISO  4  39 100  60 101  70 100  82 101
M  END
> <Batch ID>
0045

> <Smiles>
CNC(C)C(=O)NC(C(=O)N1Cc2cc([101O:1][101CH2:1]CC(=O)NCc3cc(Cl)cc(C)c3[100NH:0][100C:0](=O)N3CCCC(n4nc(-c5ccc(Oc6ccc(F)cc6F)cc5)c(C(N)=O)c4N)C3)ccc2CC1C(=O)NC1CCCc2ccccc21)C(C)(C)C

> <Shape>
0.202

> <Color>
0.058

> <Negative vol penalty>
0.000

$$$$

  -OEChem-04042322213D

 86 94  0     1  0  0  0  0  0999 V2000
  -23.7252  -10.4860   20.8579 C   0  0  0  0  0  0  0  0  0  0  0  0
  -23.2256  -11.5628   21.5834 C   0  0  0  0  0  0  0  0  0  0  0  0
  -30.7490  -24.7077   19.5241 C   0  0  0  0  0  0  0  0  0  0  0  0
  -31.1009  -25.8966   21.5977 C   0  0  0  0  0  0  0  0  0  0  0  0
  -24.9666  -10.5852   20.2309 C   0  0  0  0  0  0  0  0  0  0  0  0
  -23.9676  -12.7392   21.6832 C   0  0  0  0  0  0  0  0  0  0  0  0
  -21.7883  -18.4575   21.9204 C   0  0  0  0  0  0  0  0  0  0  0  0
  -19.8216  -29.0060   22.2053 C   0  0  0  0  0  0  0  0  0  0  0  0
  -32.1277  -24.5553   19.3775 C   0  0  0  0  0  0  0  0  0  0  0  0
  -32.4796  -25.7442   21.4511 C   0  0  0  0  0  0  0  0  0  0  0  0
  -21.5548  -19.3290   22.9834 C   0  0  0  0  0  0  0  0  0  0  0  0
  -35.5391  -23.5384   18.6405 C   0  0  0  0  0  0  0  0  0  0  0  0
  -36.0161  -22.2841   18.2600 C   0  0  0  0  0  0  0  0  0  0  0  0
  -18.7588  -28.2269   21.7483 C   0  0  0  0  0  0  0  0  0  0  0  0
  -23.7036  -20.3576   22.6042 C   0  0  0  0  0  0  0  0  0  0  0  0
  -19.7477  -26.2759   22.7744 C   0  0  0  0  0  0  0  0  0  0  0  0
  -35.0387  -21.3108   20.2436 C   0  0  0  0  0  0  0  0  0  0  0  0
  -30.2356  -25.3784   20.6342 C   0  0  0  0  0  0  0  0  0  0  0  0
  -27.9236  -24.6609   21.4389 C   0  0  0  0  0  0  0  0  0  0  0  0
  -25.7199  -11.7668   20.3150 C   0  0  0  0  0  0  0  0  0  0  0  0
  -22.9879  -18.5225   21.1971 C   0  0  0  0  0  0  0  0  0  0  0  0
  -25.2208  -12.8538   21.0578 C   0  0  0  0  0  0  0  0  0  0  0  0
  -23.9488  -19.4876   21.5309 C   0  0  0  0  0  0  0  0  0  0  0  0
  -20.8476  -28.4201   22.9468 C   0  0  0  0  0  0  0  0  0  0  0  0
  -20.8106  -27.0551   23.2314 C   0  0  0  0  0  0  0  0  0  0  0  0
  -32.9930  -25.0735   20.3410 C   0  0  0  0  0  0  0  0  0  0  0  0
  -22.5137  -20.2773   23.3272 C   0  0  0  0  0  0  0  0  0  0  0  0
  -34.8120  -23.6789   19.8225 C   0  0  0  0  0  0  0  0  0  0  0  0
  -35.7659  -21.1702   19.0615 C   0  0  0  0  0  0  0  0  0  0  0  0
  -34.5618  -22.5651   20.6240 C   0  0  0  0  0  0  0  0  0  0  0  0
  -18.7218  -26.8619   22.0329 C   0  0  0  0  0  0  0  0  0  0  0  0
  -28.8115  -25.5367   20.7859 C   0  0  0  0  0  0  0  0  0  0  0  0
  -26.6935  -25.2574   21.3066 C   0  0  0  0  0  0  0  0  0  0  0  0
  -28.1872  -23.4192   22.1057 C   0  0  0  0  0  0  0  0  0  0  0  0
  -25.4048  -16.5245   20.6773 C   0  0  0  0  0  0  0  0  0  0  0  0
  -26.3906  -18.8610   18.6546 C   0  0  0  0  0  0  0  0  0  0  0  0
  -21.4292  -23.9565   24.3066 C   0  0  0  0  0  0  0  0  0  0  0  0
  -26.3204  -22.1605   17.7854 C   0  0  0  0  0  0  0  0  0  0  0  0
  -23.4361  -29.7854   21.4844 C   0  0  0  0  0  0  0  0  0  0  0  0
  -27.0776  -11.8103   19.6599 C   0  0  0  0  0  0  0  0  0  0  0  0
  -23.2131  -17.5930   20.0362 C   0  0  0  0  0  0  0  0  0  0  0  0
  -25.2444  -19.6119   20.7730 C   0  0  0  0  0  0  0  0  0  0  0  0
  -27.6327  -13.2235   19.5018 C   0  0  0  0  0  0  0  0  0  0  0  0
  -25.2232  -29.1759   18.4659 C   0  0  0  0  0  0  0  0  0  0  0  0
  -27.4658  -14.0106   20.7978 C   0  0  0  0  0  0  0  0  0  0  0  0
  -26.2463  -28.1077   18.8559 C   0  0  0  0  0  0  0  0  0  0  0  0
  -24.9922  -30.1757   19.5969 C   0  0  0  0  0  0  0  0  0  0  0  0
  -25.6526  -28.5036   21.2827 C   0  0  0  0  0  0  0  0  0  0  0  0
  -25.9849  -14.1554   21.1685 C   0  0  1  0  0  0  0  0  0  0  0  0
  -24.6888  -17.4088   19.6959 C   0  0  1  0  0  0  0  0  0  0  0  0
  -25.8774  -27.4400   20.1943 C   0  0  2  0  0  0  0  0  0  0  0  0
  -27.2561  -23.7762   16.1087 C   0  0  0  0  0  0  0  0  0  0  0  0
  -29.0681  -18.8246   20.1173 C   0  0  0  0  0  0  0  0  0  0  0  0
  -29.5922  -21.0366   19.0682 C   0  0  0  0  0  0  0  0  0  0  0  0
  -29.2405  -19.0284   17.6307 C   0  0  0  0  0  0  0  0  0  0  0  0
  -20.9039  -25.5932   26.1276 C   0  0  0  0  0  0  0  0  0  0  0  0
  -23.6260  -22.8515   16.7746 C   0  0  0  0  0  0  0  0  0  0  0  0
  -21.9758  -29.2739   23.4249 C   0  0  0  0  0  0  0  0  0  0  0  0
  -21.9042  -26.4022   24.0263 C   0  0  0  0  0  0  0  0  0  0  0  0
  -20.8821  -22.8795   25.2378 C   0  0  0  0  0  0  0  0  0  0  0  0
  -20.9322  -21.4826   24.6319 C   0  0  0  0  0  0  0  0  0  1  0  0
  -27.2566  -20.0909   18.7828 C   0  0  1  0  0  0  0  0  0  0  0  0
  -26.1023  -22.8455   16.4483 C   0  0  2  0  0  0  0  0  0  0  0  0
  -28.7659  -19.7418   18.9154 C   0  0  0  0  0  0  0  0  0  0  0  0
  -28.1976  -26.6079   20.2764 N   0  0  0  0  0  0  0  0  0  0  0  0
  -26.9108  -26.4091   20.6092 N   0  0  0  0  0  0  0  0  0  0  0  0
  -25.4208  -18.6762   19.6501 N   0  0  0  0  0  0  0  0  0  0  0  0
  -24.6444  -29.4783   20.8374 N   0  0  0  0  0  0  0  0  0  0  0  0
  -25.4580  -24.9037   21.7199 N   0  0  0  0  0  0  0  0  0  0  0  0
  -29.5077  -22.9514   22.1490 N   0  0  0  0  0  0  0  0  0  0  0  0
  -25.3595  -15.1803   20.3606 N   0  0  0  0  0  0  0  0  0  0  0  0
  -26.9373  -20.9362   17.6374 N   0  0  0  0  0  0  0  0  0  0  0  0
  -23.1805  -29.0742   22.6504 N   0  0  0  0  0  0  0  0  0  0  0  0
  -21.4127  -25.2653   24.8015 N   0  0  0  0  0  0  0  0  0  0  0  0
  -24.8453  -23.6456   16.4752 N   0  3  0  0  0  0  0  0  0  0  0  0
  -27.2764  -22.7365   22.6327 O   0  0  0  0  0  0  0  0  0  0  0  0
  -25.9587  -17.0250   21.6491 O   0  0  0  0  0  0  0  0  0  0  0  0
  -26.5634  -18.0964   17.7021 O   0  0  0  0  0  0  0  0  0  0  0  0
  -21.8558  -23.6603   23.1874 O   0  0  0  0  0  0  0  0  0  0  0  0
  -25.9811  -22.6630   18.8544 O   0  0  0  0  0  0  0  0  0  0  0  0
  -22.6412  -30.6269   21.0519 O   0  0  0  0  0  0  0  0  0  0  0  0
  -34.3384  -24.9248   20.1984 O   0  0  0  0  0  0  0  0  0  0  0  0
  -22.2886  -21.1287   24.3647 O   0  0  0  0  0  0  0  0  0  1  0  0
  -36.2227  -19.9655   18.6953 F   0  0  0  0  0  0  0  0  0  0  0  0
  -33.8628  -22.6937   21.7601 F   0  0  0  0  0  0  0  0  0  0  0  0
  -17.4114  -25.9008   21.4674 Cl  0  0  0  0  0  0  0  0  0  0  0  0
  1  2  1  0  0  0  0
  1  5  2  0  0  0  0
  2  6  2  0  0  0  0
  3  9  2  0  0  0  0
  3 18  1  0  0  0  0
  4 10  1  0  0  0  0
  4 18  2  0  0  0  0
  5 20  1  0  0  0  0
  6 22  1  0  0  0  0
  7 11  2  0  0  0  0
  7 21  1  0  0  0  0
  8 14  2  0  0  0  0
  8 24  1  0  0  0  0
  9 26  1  0  0  0  0
 10 26  2  0  0  0  0
 11 27  1  0  0  0  0
 12 13  2  0  0  0  0
 12 28  1  0  0  0  0
 13 29  1  0  0  0  0
 14 31  1  0  0  0  0
 15 23  1  0  0  0  0
 15 27  2  0  0  0  0
 16 25  1  0  0  0  0
 16 31  2  0  0  0  0
 17 29  2  0  0  0  0
 17 30  1  0  0  0  0
 18 32  1  0  0  0  0
 19 32  1  0  0  0  0
 19 33  2  0  0  0  0
 19 34  1  0  0  0  0
 20 22  2  0  0  0  0
 20 40  1  0  0  0  0
 21 23  2  0  0  0  0
 21 41  1  0  0  0  0
 22 49  1  0  0  0  0
 23 42  1  0  0  0  0
 24 25  2  0  0  0  0
 24 58  1  0  0  0  0
 25 59  1  0  0  0  0
 26 82  1  0  0  0  0
 27 83  1  0  0  0  0
 28 30  2  0  0  0  0
 28 82  1  0  0  0  0
 29 84  1  0  0  0  0
 30 85  1  0  0  0  0
 31 86  1  0  0  0  0
 32 65  2  0  0  0  0
 33 66  1  0  0  0  0
 33 69  1  0  0  0  0
 34 70  1  0  0  0  0
 34 76  2  0  0  0  0
 35 50  1  0  0  0  0
 35 71  1  0  0  0  0
 35 77  2  0  0  0  0
 36 62  1  0  0  0  0
 36 67  1  0  0  0  0
 36 78  2  0  0  0  0
 37 60  1  0  0  0  0
 37 74  1  0  0  0  0
 37 79  2  0  0  0  0
 38 63  1  0  0  0  0
 38 72  1  0  0  0  0
 38 80  2  0  0  0  0
 39 68  1  0  0  0  0
 39 73  1  0  0  0  0
 39 81  2  0  0  0  0
 40 43  1  0  0  0  0
 41 50  1  0  0  0  0
 42 67  1  0  0  0  0
 43 45  1  0  0  0  0
 44 46  1  0  0  0  0
 44 47  1  0  0  0  0
 45 49  1  0  0  0  0
 46 51  1  0  0  0  0
 47 68  1  0  0  0  0
 48 51  1  0  0  0  0
 48 68  1  0  0  0  0
 49 71  1  0  0  0  0
 50 67  1  0  0  0  0
 51 66  1  0  0  0  0
 52 63  1  0  0  0  0
 53 64  1  0  0  0  0
 54 64  1  0  0  0  0
 55 64  1  0  0  0  0
 56 74  1  0  0  0  0
 57 75  1  0  0  0  0
 58 73  1  0  0  0  0
 59 74  1  0  0  0  0
 60 61  1  0  0  0  0
 61 83  1  0  0  0  0
 62 64  1  0  0  0  0
 62 72  1  0  0  0  0
 63 75  1  0  0  0  0
 65 66  1  0  0  0  0
M  CHG  1  75   1
M  ISO  4  39 100  61 101  73 100  83 101
M  END
> <Batch ID>
0045

> <Smiles>
CNC(C)C(=O)NC(C(=O)N1Cc2cc([101O:1][101CH2:1]CC(=O)N(C)Cc3cc(Cl)ccc3C[100NH:0][100C:0](=O)N3CCCC(n4nc(-c5ccc(Oc6ccc(F)cc6F)cc5)c(C(N)=O)c4N)C3)ccc2CC1C(=O)NC1CCCc2ccccc21)C(C)(C)C

> <Shape>
0.206

> <Color>
0.070

> <Negative vol penalty>
0.000

$$$$

  -OEChem-04042322213D

 86 95  0     1  0  0  0  0  0999 V2000
  -16.5499  -29.8490   23.4272 C   0  0  0  0  0  0  0  0  0  0  0  0
  -17.6185  -30.6957   23.6994 C   0  0  0  0  0  0  0  0  0  0  0  0
  -20.3834  -24.4553   14.3767 C   0  0  0  0  0  0  0  0  0  0  0  0
  -20.4690  -23.4292   12.1911 C   0  0  0  0  0  0  0  0  0  0  0  0
  -16.7902  -28.5433   23.0046 C   0  0  0  0  0  0  0  0  0  0  0  0
  -18.9277  -30.2409   23.5375 C   0  0  0  0  0  0  0  0  0  0  0  0
  -27.0797  -29.3285   22.0834 C   0  0  0  0  0  0  0  0  0  0  0  0
  -29.4552  -20.7441   15.9777 C   0  0  0  0  0  0  0  0  0  0  0  0
  -19.1217  -23.8995   14.5882 C   0  0  0  0  0  0  0  0  0  0  0  0
  -19.2073  -22.8733   12.4026 C   0  0  0  0  0  0  0  0  0  0  0  0
  -27.8673  -28.3347   21.5040 C   0  0  0  0  0  0  0  0  0  0  0  0
  -15.9855  -23.8926   12.2921 C   0  0  0  0  0  0  0  0  0  0  0  0
  -15.0586  -23.9749   11.2531 C   0  0  0  0  0  0  0  0  0  0  0  0
  -29.9126  -20.0718   17.1110 C   0  0  0  0  0  0  0  0  0  0  0  0
  -26.1785  -27.9886   19.8165 C   0  0  0  0  0  0  0  0  0  0  0  0
  -28.0394  -22.1231   17.3672 C   0  0  0  0  0  0  0  0  0  0  0  0
  -14.9261  -21.5637   11.1802 C   0  0  0  0  0  0  0  0  0  0  0  0
  -21.0570  -24.2202   13.1781 C   0  0  0  0  0  0  0  0  0  0  0  0
  -22.6960  -26.1616   12.9497 C   0  0  0  0  0  0  0  0  0  0  0  0
  -18.1033  -28.0692   22.8497 C   0  0  0  0  0  0  0  0  0  0  0  0
  -25.8286  -29.6528   21.5392 C   0  0  0  0  0  0  0  0  0  0  0  0
  -19.1907  -28.9339   23.0889 C   0  0  0  0  0  0  0  0  0  0  0  0
  -25.3781  -28.9887   20.3894 C   0  0  0  0  0  0  0  0  0  0  0  0
  -28.4968  -21.4508   18.5006 C   0  0  0  0  0  0  0  0  0  0  0  0
  -28.5186  -21.7698   16.1058 C   0  0  0  0  0  0  0  0  0  0  0  0
  -18.5336  -23.1085   13.6012 C   0  0  0  0  0  0  0  0  0  0  0  0
  -27.4155  -27.6625   20.3721 C   0  0  0  0  0  0  0  0  0  0  0  0
  -16.3828  -22.6458   12.7752 C   0  0  0  0  0  0  0  0  0  0  0  0
  -14.5289  -22.8105   10.6971 C   0  0  0  0  0  0  0  0  0  0  0  0
  -15.8531  -21.4813   12.2193 C   0  0  0  0  0  0  0  0  0  0  0  0
  -29.4334  -20.4251   18.3724 C   0  0  0  0  0  0  0  0  0  0  0  0
  -22.3602  -24.7945   12.9587 C   0  0  0  0  0  0  0  0  0  0  0  0
  -24.0465  -26.1817   12.7001 C   0  0  0  0  0  0  0  0  0  0  0  0
  -27.8944  -24.3187   20.0057 C   0  0  0  0  0  0  0  0  0  0  0  0
  -21.8619  -27.3106   13.1491 C   0  0  0  0  0  0  0  0  0  0  0  0
  -22.8297  -29.5411   22.5868 C   0  0  0  0  0  0  0  0  0  0  0  0
  -22.2032  -31.0306   19.7741 C   0  0  0  0  0  0  0  0  0  0  0  0
  -23.2943  -30.7517   16.3464 C   0  0  0  0  0  0  0  0  0  0  0  0
  -28.4290  -22.2277   13.6302 C   0  0  0  0  0  0  0  0  0  0  0  0
  -18.3060  -26.6495   22.3821 C   0  0  0  0  0  0  0  0  0  0  0  0
  -25.0028  -30.7458   22.1603 C   0  0  0  0  0  0  0  0  0  0  0  0
  -24.0515  -29.3134   19.7545 C   0  0  0  0  0  0  0  0  0  0  0  0
  -19.7096  -26.1246   22.6663 C   0  0  0  0  0  0  0  0  0  0  0  0
  -30.3836  -24.2715   21.5514 C   0  0  0  0  0  0  0  0  0  0  0  0
  -27.4885  -23.6702   10.5139 C   0  0  0  0  0  0  0  0  0  0  0  0
  -20.7470  -27.1277   22.1844 C   0  0  0  0  0  0  0  0  0  0  0  0
  -30.0174  -25.5042   20.7516 C   0  0  0  0  0  0  0  0  0  0  0  0
  -26.0998  -24.2520   10.7880 C   0  0  0  0  0  0  0  0  0  0  0  0
  -29.9018  -23.0291   20.8239 C   0  0  0  0  0  0  0  0  0  0  0  0
  -27.7080  -22.3528   11.2554 C   0  0  0  0  0  0  0  0  0  0  0  0
  -26.0599  -22.9846   12.9741 C   0  0  0  0  0  0  0  0  0  0  0  0
  -20.6232  -28.4515   22.9493 C   0  0  1  0  0  0  0  0  0  0  0  0
  -28.5093  -25.5733   20.6130 C   0  0  1  0  0  0  0  0  0  1  0  0
  -23.5186  -30.6375   21.8246 C   0  0  1  0  0  0  0  0  0  0  0  0
  -25.8161  -24.3447   12.3002 C   0  0  2  0  0  0  0  0  0  0  0  0
  -23.3883  -32.4693   14.5193 C   0  0  0  0  0  0  0  0  0  0  0  0
  -19.4524  -29.9511   19.0140 C   0  0  0  0  0  0  0  0  0  0  0  0
  -20.0887  -30.2201   16.6076 C   0  0  0  0  0  0  0  0  0  0  0  0
  -19.9733  -32.2184   18.0963 C   0  0  0  0  0  0  0  0  0  0  0  0
  -26.1740  -30.2595   15.8733 C   0  0  0  0  0  0  0  0  0  0  0  0
  -27.9567  -21.8609   19.8401 C   0  0  0  0  0  0  0  0  0  0  0  0
  -21.8744  -30.5748   18.3730 C   0  0  1  0  0  0  0  0  0  0  0  0
  -24.1750  -31.7302   15.5906 C   0  0  2  0  0  0  0  0  0  0  0  0
  -20.3631  -30.7252   18.0402 C   0  0  0  0  0  0  0  0  0  0  0  0
  -23.4124  -24.0035   12.7328 N   0  0  0  0  0  0  0  0  0  0  0  0
  -24.4227  -24.8763   12.5793 N   0  0  0  0  0  0  0  0  0  0  0  0
  -28.5371  -23.1150   20.3011 N   0  0  0  0  0  0  0  0  0  0  0  0
  -23.2777  -30.3854   20.4024 N   0  0  0  0  0  0  0  0  0  0  0  0
  -27.4246  -22.5180   12.6828 N   0  0  0  0  0  0  0  0  0  0  0  0
  -24.9370  -27.1885   12.5744 N   0  0  0  0  0  0  0  0  0  0  0  0
  -20.4966  -27.1105   13.3945 N   0  0  0  0  0  0  0  0  0  0  0  0
  -28.0549  -22.4533   14.9545 N   0  0  0  0  0  0  0  0  0  0  0  0
  -21.4766  -29.4387   22.3256 N   0  0  0  0  0  0  0  0  0  0  0  0
  -22.7591  -31.3193   17.4834 N   0  0  0  0  0  0  0  0  0  0  0  0
  -25.3028  -31.0111   14.9335 N   0  3  0  0  0  0  0  0  0  0  0  0
  -26.8507  -24.4000   19.3529 O   0  0  0  0  0  0  0  0  0  0  0  0
  -22.3109  -28.4806   13.0945 O   0  0  0  0  0  0  0  0  0  0  0  0
  -23.4780  -28.8390   23.3539 O   0  0  0  0  0  0  0  0  0  0  0  0
  -21.5358  -31.9311   20.2893 O   0  0  0  0  0  0  0  0  0  0  0  0
  -23.0975  -29.6003   15.9643 O   0  0  0  0  0  0  0  0  0  0  0  0
  -29.5481  -21.8356   13.2901 O   0  0  0  0  0  0  0  0  0  0  0  0
  -17.3026  -22.5657   13.8073 O   0  0  0  0  0  0  0  0  0  0  0  0
  -28.1820  -26.6916   19.8049 O   0  0  0  0  0  0  0  0  0  1  0  0
  -13.6376  -22.8897    9.7004 F   0  0  0  0  0  0  0  0  0  0  0  0
  -16.2300  -20.2807   12.6800 F   0  0  0  0  0  0  0  0  0  0  0  0
  -30.0231  -19.5710   19.7515 Cl  0  0  0  0  0  0  0  0  0  0  0  0
  1  2  1  0  0  0  0
  1  5  2  0  0  0  0
  2  6  2  0  0  0  0
  3  9  2  0  0  0  0
  3 18  1  0  0  0  0
  4 10  1  0  0  0  0
  4 18  2  0  0  0  0
  5 20  1  0  0  0  0
  6 22  1  0  0  0  0
  7 11  2  0  0  0  0
  7 21  1  0  0  0  0
  8 14  2  0  0  0  0
  8 25  1  0  0  0  0
  9 26  1  0  0  0  0
 10 26  2  0  0  0  0
 11 27  1  0  0  0  0
 12 13  2  0  0  0  0
 12 28  1  0  0  0  0
 13 29  1  0  0  0  0
 14 31  1  0  0  0  0
 15 23  1  0  0  0  0
 15 27  2  0  0  0  0
 16 24  1  0  0  0  0
 16 25  2  0  0  0  0
 17 29  2  0  0  0  0
 17 30  1  0  0  0  0
 18 32  1  0  0  0  0
 19 32  1  0  0  0  0
 19 33  2  0  0  0  0
 19 35  1  0  0  0  0
 20 22  2  0  0  0  0
 20 40  1  0  0  0  0
 21 23  2  0  0  0  0
 21 41  1  0  0  0  0
 22 52  1  0  0  0  0
 23 42  1  0  0  0  0
 24 31  2  0  0  0  0
 24 61  1  0  0  0  0
 25 72  1  0  0  0  0
 26 82  1  0  0  0  0
 27 83  1  0  0  0  0
 28 30  2  0  0  0  0
 28 82  1  0  0  0  0
 29 84  1  0  0  0  0
 30 85  1  0  0  0  0
 31 86  1  0  0  0  0
 32 65  2  0  0  0  0
 33 66  1  0  0  0  0
 33 70  1  0  0  0  0
 34 53  1  0  0  0  0
 34 67  1  0  0  0  0
 34 76  2  0  0  0  0
 35 71  1  0  0  0  0
 35 77  2  0  0  0  0
 36 54  1  0  0  0  0
 36 73  1  0  0  0  0
 36 78  2  0  0  0  0
 37 62  1  0  0  0  0
 37 68  1  0  0  0  0
 37 79  2  0  0  0  0
 38 63  1  0  0  0  0
 38 74  1  0  0  0  0
 38 80  2  0  0  0  0
 39 69  1  0  0  0  0
 39 72  1  0  0  0  0
 39 81  2  0  0  0  0
 40 43  1  0  0  0  0
 41 54  1  0  0  0  0
 42 68  1  0  0  0  0
 43 46  1  0  0  0  0
 44 47  1  0  0  0  0
 44 49  1  0  0  0  0
 45 48  1  0  0  0  0
 45 50  1  0  0  0  0
 46 52  1  0  0  0  0
 47 53  1  0  0  0  0
 48 55  1  0  0  0  0
 49 67  1  0  0  0  0
 50 69  1  0  0  0  0
 51 55  1  0  0  0  0
 51 69  1  0  0  0  0
 52 73  1  0  0  0  0
 53 83  1  0  0  0  0
 54 68  1  0  0  0  0
 55 66  1  0  0  0  0
 56 63  1  0  0  0  0
 57 64  1  0  0  0  0
 58 64  1  0  0  0  0
 59 64  1  0  0  0  0
 60 75  1  0  0  0  0
 61 67  1  0  0  0  0
 62 64  1  0  0  0  0
 62 74  1  0  0  0  0
 63 75  1  0  0  0  0
 65 66  1  0  0  0  0
M  CHG  1  75   1
M  ISO  4  39 100  53 101  72 100  83 101
M  END
> <Batch ID>
0045

> <Smiles>
CNC(C)C(=O)NC(C(=O)N1Cc2cc([101O:1][101CH:1]3CCCN(Cc4cc([100NH:0][100C:0](=O)N5CCCC(n6nc(-c7ccc(Oc8ccc(F)cc8F)cc7)c(C(N)=O)c6N)C5)ccc4Cl)C3=O)ccc2CC1C(=O)NC1CCCc2ccccc21)C(C)(C)C

> <Shape>
0.172

> <Color>
0.122

> <Negative vol penalty>
0.000

$$$$

  -OEChem-04042322213D

 84 92  0     1  0  0  0  0  0999 V2000
  -25.0153  -34.9695   23.7540 C   0  0  0  0  0  0  0  0  0  0  0  0
  -25.7325  -33.8164   23.4515 C   0  0  0  0  0  0  0  0  0  0  0  0
  -30.2688  -19.7113   16.7056 C   0  0  0  0  0  0  0  0  0  0  0  0
  -23.5734  -15.4707   17.5908 C   0  0  0  0  0  0  0  0  0  0  0  0
  -22.7618  -13.7976   19.1331 C   0  0  0  0  0  0  0  0  0  0  0  0
  -30.4229  -18.8724   17.8093 C   0  0  0  0  0  0  0  0  0  0  0  0
  -23.7038  -34.8719   24.2170 C   0  0  0  0  0  0  0  0  0  0  0  0
  -25.1389  -32.5650   23.6128 C   0  0  0  0  0  0  0  0  0  0  0  0
  -25.9993  -29.4859   19.6856 C   0  0  0  0  0  0  0  0  0  0  0  0
  -30.4772  -21.0841   16.8385 C   0  0  0  0  0  0  0  0  0  0  0  0
  -22.9828  -14.7812   16.5319 C   0  0  0  0  0  0  0  0  0  0  0  0
  -22.1712  -13.1080   18.0742 C   0  0  0  0  0  0  0  0  0  0  0  0
  -27.2509  -28.8754   19.6174 C   0  0  0  0  0  0  0  0  0  0  0  0
  -19.3807  -13.3637   16.1852 C   0  0  0  0  0  0  0  0  0  0  0  0
  -18.0778  -12.8988   16.3631 C   0  0  0  0  0  0  0  0  0  0  0  0
  -26.3054  -26.8495   20.5235 C   0  0  0  0  0  0  0  0  0  0  0  0
  -18.8370  -10.6336   16.0032 C   0  0  0  0  0  0  0  0  0  0  0  0
  -23.4630  -14.9789   18.8914 C   0  0  0  0  0  0  0  0  0  0  0  0
  -30.7852  -19.4064   19.0459 C   0  0  0  0  0  0  0  0  0  0  0  0
  -23.4896  -16.7002   20.7740 C   0  0  0  0  0  0  0  0  0  0  0  0
  -23.0905  -33.6191   24.3749 C   0  0  0  0  0  0  0  0  0  0  0  0
  -24.8918  -28.7851   20.1843 C   0  0  0  0  0  0  0  0  0  0  0  0
  -23.8184  -32.4506   24.0796 C   0  0  0  0  0  0  0  0  0  0  0  0
  -25.0403  -27.4525   20.5946 C   0  0  0  0  0  0  0  0  0  0  0  0
  -30.8395  -21.6180   18.0751 C   0  0  0  0  0  0  0  0  0  0  0  0
  -30.9935  -20.7792   19.1789 C   0  0  0  0  0  0  0  0  0  0  0  0
  -22.2817  -13.5998   16.7736 C   0  0  0  0  0  0  0  0  0  0  0  0
  -27.4047  -27.5580   20.0391 C   0  0  0  0  0  0  0  0  0  0  0  0
  -20.4119  -12.4636   15.9162 C   0  0  0  0  0  0  0  0  0  0  0  0
  -17.8059  -11.5337   16.2721 C   0  0  0  0  0  0  0  0  0  0  0  0
  -20.1400  -11.0986   15.8252 C   0  0  0  0  0  0  0  0  0  0  0  0
  -24.0733  -15.6905   19.9856 C   0  0  0  0  0  0  0  0  0  0  0  0
  -24.4717  -17.0477   21.6691 C   0  0  0  0  0  0  0  0  0  0  0  0
  -30.9416  -18.4948   20.1933 C   0  0  0  0  0  0  0  0  0  0  0  0
  -22.1770  -17.2726   20.7037 C   0  0  0  0  0  0  0  0  0  0  0  0
  -22.9259  -29.1607   22.6537 C   0  0  0  0  0  0  0  0  0  0  0  0
  -21.3613  -26.6692   21.2873 C   0  0  0  0  0  0  0  0  0  0  0  0
  -29.9088  -25.1303   19.0471 C   0  0  0  0  0  0  0  0  0  0  0  0
  -21.4888  -23.9347   19.2495 C   0  0  0  0  0  0  0  0  0  0  0  0
  -30.4523  -16.5978   21.3989 C   0  0  0  0  0  0  0  0  0  0  0  0
  -21.6867  -33.5619   24.9233 C   0  0  0  0  0  0  0  0  0  0  0  0
  -23.5429  -29.4492   20.2263 C   0  0  0  0  0  0  0  0  0  0  0  0
  -23.8786  -26.6501   21.1189 C   0  0  0  0  0  0  0  0  0  0  0  0
  -21.0040  -32.2133   24.7102 C   0  0  0  0  0  0  0  0  0  0  0  0
  -28.2756  -15.2699   23.9490 C   0  0  0  0  0  0  0  0  0  0  0  0
  -21.9422  -31.0735   25.0941 C   0  0  0  0  0  0  0  0  0  0  0  0
  -26.9024  -15.2891   23.2777 C   0  0  0  0  0  0  0  0  0  0  0  0
  -29.3841  -14.9597   22.9478 C   0  0  0  0  0  0  0  0  0  0  0  0
  -28.0323  -15.8996   21.0936 C   0  0  0  0  0  0  0  0  0  0  0  0
  -23.2007  -31.0760   24.2180 C   0  0  1  0  0  0  0  0  0  0  0  0
  -22.5920  -28.8074   21.2319 C   0  0  1  0  0  0  0  0  0  0  0  0
  -26.8918  -16.2404   22.0678 C   0  0  1  0  0  0  0  0  0  0  0  0
  -31.3827  -21.3554   20.5039 C   0  0  0  0  0  0  0  0  0  0  0  0
  -20.0597  -22.0754   18.3561 C   0  0  0  0  0  0  0  0  0  0  0  0
  -21.5317  -25.2470   23.9815 C   0  0  0  0  0  0  0  0  0  0  0  0
  -20.9751  -23.1066   22.8081 C   0  0  0  0  0  0  0  0  0  0  0  0
  -19.3406  -24.9910   22.8034 C   0  0  0  0  0  0  0  0  0  0  0  0
  -21.8907  -24.8138   16.4522 C   0  0  0  0  0  0  0  0  0  0  0  0
  -31.0598  -23.0987   18.1908 C   0  0  0  0  0  0  0  0  0  0  0  0
  -28.6467  -25.5476   19.7713 C   0  0  0  0  0  0  0  0  0  1  0  0
  -21.4380  -25.1660   21.4026 C   0  0  1  0  0  0  0  0  0  0  0  0
  -20.5878  -23.4810   18.1150 C   0  0  2  0  0  0  0  0  0  0  0  0
  -20.8438  -24.6431   22.7409 C   0  0  0  0  0  0  0  0  0  0  0  0
  -25.3290  -15.4146   20.3478 N   0  0  0  0  0  0  0  0  0  0  0  0
  -30.2544  -17.4044   20.2945 N   0  0  0  0  0  0  0  0  0  0  0  0
  -25.5424  -16.2562   21.3737 N   0  0  0  0  0  0  0  0  0  0  0  0
  -22.5813  -27.3457   21.1464 N   0  0  0  0  0  0  0  0  0  0  0  0
  -29.3212  -15.8619   21.7971 N   0  0  0  0  0  0  0  0  0  0  0  0
  -24.5153  -17.9501   22.6722 N   0  0  0  0  0  0  0  0  0  0  0  0
  -21.2933  -16.7994   19.7241 N   0  0  0  0  0  0  0  0  0  0  0  0
  -22.9104  -30.5176   22.9148 N   0  0  0  0  0  0  0  0  0  0  0  0
  -29.9599  -23.7585   18.8555 N   0  0  0  0  0  0  0  0  0  0  0  0
  -20.7878  -24.6315   20.2109 N   0  0  0  0  0  0  0  0  0  0  0  0
  -21.3352  -23.4876   16.8257 N   0  3  0  0  0  0  0  0  0  0  0  0
  -21.8045  -18.1885   21.4756 O   0  0  0  0  0  0  0  0  0  0  0  0
  -23.1775  -28.2682   23.4549 O   0  0  0  0  0  0  0  0  0  0  0  0
  -20.2591  -27.2223   21.3140 O   0  0  0  0  0  0  0  0  0  0  0  0
  -30.7650  -25.9339   18.6875 O   0  0  0  0  0  0  0  0  0  0  0  0
  -22.6931  -23.6918   19.2815 O   0  0  0  0  0  0  0  0  0  0  0  0
  -31.5248  -16.5078   22.0011 O   0  0  0  0  0  0  0  0  0  0  0  0
  -21.7050  -12.9268   15.7406 O   0  0  0  0  0  0  0  0  0  0  0  0
  -28.6253  -26.9599   19.9742 O   0  0  0  0  0  0  0  0  0  1  0  0
  -16.5549  -11.0871   16.4445 F   0  0  0  0  0  0  0  0  0  0  0  0
  -21.1266  -10.2289   15.5682 F   0  0  0  0  0  0  0  0  0  0  0  0
  1  2  1  0  0  0  0
  1  7  2  0  0  0  0
  2  8  2  0  0  0  0
  3  6  1  0  0  0  0
  3 10  2  0  0  0  0
  4 11  2  0  0  0  0
  4 18  1  0  0  0  0
  5 12  1  0  0  0  0
  5 18  2  0  0  0  0
  6 19  2  0  0  0  0
  7 21  1  0  0  0  0
  8 23  1  0  0  0  0
  9 13  2  0  0  0  0
  9 22  1  0  0  0  0
 10 25  1  0  0  0  0
 11 27  1  0  0  0  0
 12 27  2  0  0  0  0
 13 28  1  0  0  0  0
 14 15  2  0  0  0  0
 14 29  1  0  0  0  0
 15 30  1  0  0  0  0
 16 24  1  0  0  0  0
 16 28  2  0  0  0  0
 17 30  2  0  0  0  0
 17 31  1  0  0  0  0
 18 32  1  0  0  0  0
 19 26  1  0  0  0  0
 19 34  1  0  0  0  0
 20 32  1  0  0  0  0
 20 33  2  0  0  0  0
 20 35  1  0  0  0  0
 21 23  2  0  0  0  0
 21 41  1  0  0  0  0
 22 24  2  0  0  0  0
 22 42  1  0  0  0  0
 23 50  1  0  0  0  0
 24 43  1  0  0  0  0
 25 26  2  0  0  0  0
 25 59  1  0  0  0  0
 26 53  1  0  0  0  0
 27 81  1  0  0  0  0
 28 82  1  0  0  0  0
 29 31  2  0  0  0  0
 29 81  1  0  0  0  0
 30 83  1  0  0  0  0
 31 84  1  0  0  0  0
 32 64  2  0  0  0  0
 33 66  1  0  0  0  0
 33 69  1  0  0  0  0
 34 65  2  0  0  0  0
 35 70  1  0  0  0  0
 35 75  2  0  0  0  0
 36 51  1  0  0  0  0
 36 71  1  0  0  0  0
 36 76  2  0  0  0  0
 37 61  1  0  0  0  0
 37 67  1  0  0  0  0
 37 77  2  0  0  0  0
 38 60  1  0  0  0  0
 38 72  1  0  0  0  0
 38 78  2  0  0  0  0
 39 62  1  0  0  0  0
 39 73  1  0  0  0  0
 39 79  2  0  0  0  0
 40 65  1  0  0  0  0
 40 68  1  0  0  0  0
 40 80  2  0  0  0  0
 41 44  1  0  0  0  0
 42 51  1  0  0  0  0
 43 67  1  0  0  0  0
 44 46  1  0  0  0  0
 45 47  1  0  0  0  0
 45 48  1  0  0  0  0
 46 50  1  0  0  0  0
 47 52  1  0  0  0  0
 48 68  1  0  0  0  0
 49 52  1  0  0  0  0
 49 68  1  0  0  0  0
 50 71  1  0  0  0  0
 51 67  1  0  0  0  0
 52 66  1  0  0  0  0
 54 62  1  0  0  0  0
 55 63  1  0  0  0  0
 56 63  1  0  0  0  0
 57 63  1  0  0  0  0
 58 74  1  0  0  0  0
 59 72  1  0  0  0  0
 60 82  1  0  0  0  0
 61 63  1  0  0  0  0
 61 73  1  0  0  0  0
 62 74  1  0  0  0  0
 64 66  1  0  0  0  0
M  CHG  1  74   1
M  ISO  4  40 100  60 101  65 100  82 101
M  END
> <Batch ID>
0045

> <Smiles>
CNC(C)C(=O)NC(C(=O)N1Cc2cc([101O:1][101CH2:1]C(=O)NCc3cccc(C=[100N:0][100C:0](=O)N4CCCC(n5nc(-c6ccc(Oc7ccc(F)cc7F)cc6)c(C(N)=O)c5N)C4)c3C)ccc2CC1C(=O)NC1CCCc2ccccc21)C(C)(C)C

> <Shape>
0.188

> <Color>
0.091

> <Negative vol penalty>
0.000

$$$$

  -OEChem-04042322213D

 88 97  0     1  0  0  0  0  0999 V2000
  -19.6138  -26.9580   26.4088 C   0  0  0  0  0  0  0  0  0  0  0  0
  -20.9126  -26.6895   25.9887 C   0  0  0  0  0  0  0  0  0  0  0  0
  -22.9332  -12.8628   20.4428 C   0  0  0  0  0  0  0  0  0  0  0  0
  -23.4812  -13.5036   22.7069 C   0  0  0  0  0  0  0  0  0  0  0  0
  -18.6539  -27.3673   25.4842 C   0  0  0  0  0  0  0  0  0  0  0  0
  -21.2519  -26.8290   24.6435 C   0  0  0  0  0  0  0  0  0  0  0  0
  -26.6203  -28.7131   22.3771 C   0  0  0  0  0  0  0  0  0  0  0  0
  -27.7792  -24.5340   23.2547 C   0  0  0  0  0  0  0  0  0  0  0  0
  -26.4998  -23.9991   23.1041 C   0  0  0  0  0  0  0  0  0  0  0  0
  -22.6406  -11.5707   20.8792 C   0  0  0  0  0  0  0  0  0  0  0  0
  -23.1885  -12.2115   23.1434 C   0  0  0  0  0  0  0  0  0  0  0  0
  -27.7194  -28.0209   21.8705 C   0  0  0  0  0  0  0  0  0  0  0  0
  -22.0949   -8.0055   21.3427 C   0  0  0  0  0  0  0  0  0  0  0  0
  -22.5897   -6.9384   20.5930 C   0  0  0  0  0  0  0  0  0  0  0  0
  -26.8734  -28.3279   19.6323 C   0  0  0  0  0  0  0  0  0  0  0  0
  -28.6880  -22.7359   21.9214 C   0  0  0  0  0  0  0  0  0  0  0  0
  -24.8454   -7.7123   20.9801 C   0  0  0  0  0  0  0  0  0  0  0  0
  -23.3535  -13.8292   21.3566 C   0  0  0  0  0  0  0  0  0  0  0  0
  -22.7680  -16.2520   20.8135 C   0  0  0  0  0  0  0  0  0  0  0  0
  -18.9840  -27.5212   24.1285 C   0  0  0  0  0  0  0  0  0  0  0  0
  -25.6323  -29.2092   21.5145 C   0  0  0  0  0  0  0  0  0  0  0  0
  -20.2952  -27.2394   23.6996 C   0  0  0  0  0  0  0  0  0  0  0  0
  -25.7641  -29.0283   20.1303 C   0  0  0  0  0  0  0  0  0  0  0  0
  -28.8733  -23.9024   22.6633 C   0  0  0  0  0  0  0  0  0  0  0  0
  -26.3145  -22.8325   22.3623 C   0  0  0  0  0  0  0  0  0  0  0  0
  -27.4086  -22.2009   21.7709 C   0  0  0  0  0  0  0  0  0  0  0  0
  -22.7683  -11.2451   22.2295 C   0  0  0  0  0  0  0  0  0  0  0  0
  -27.8446  -27.8257   20.4981 C   0  0  0  0  0  0  0  0  0  0  0  0
  -22.9753   -8.9260   21.9111 C   0  0  0  0  0  0  0  0  0  0  0  0
  -23.9649   -6.7918   20.4117 C   0  0  0  0  0  0  0  0  0  0  0  0
  -24.3506   -8.7794   21.7299 C   0  0  0  0  0  0  0  0  0  0  0  0
  -23.6564  -15.1640   20.9062 C   0  0  0  0  0  0  0  0  0  0  0  0
  -23.5379  -17.2843   20.3358 C   0  0  0  0  0  0  0  0  0  0  0  0
  -31.9015  -22.7072   22.2293 C   0  0  0  0  0  0  0  0  0  0  0  0
  -31.3841  -24.5116   20.6046 C   0  0  0  0  0  0  0  0  0  0  0  0
  -31.6573  -21.9482   23.3169 C   0  0  0  0  0  0  0  0  0  0  0  0
  -30.6366  -25.5176   20.1069 C   0  0  0  0  0  0  0  0  0  0  0  0
  -21.3716  -16.3233   21.1308 C   0  0  0  0  0  0  0  0  0  0  0  0
  -22.5216  -28.6822   21.1277 C   0  0  0  0  0  0  0  0  0  0  0  0
  -22.7684  -31.1238   19.0065 C   0  0  0  0  0  0  0  0  0  0  0  0
  -24.7470  -32.9545   16.9135 C   0  0  0  0  0  0  0  0  0  0  0  0
  -28.2325  -20.2782   20.3671 C   0  0  0  0  0  0  0  0  0  0  0  0
  -17.9005  -27.9203   23.1582 C   0  0  0  0  0  0  0  0  0  0  0  0
  -24.4665  -29.9770   22.0748 C   0  0  0  0  0  0  0  0  0  0  0  0
  -24.7413  -29.5588   19.1603 C   0  0  0  0  0  0  0  0  0  0  0  0
  -33.0200  -22.2231   21.3262 C   0  0  0  0  0  0  0  0  0  0  0  0
  -32.5020  -24.0150   19.7076 C   0  0  0  0  0  0  0  0  0  0  0  0
  -18.4357  -28.4052   21.8133 C   0  0  0  0  0  0  0  0  0  0  0  0
  -33.6142  -23.3505   20.4999 C   0  0  0  0  0  0  0  0  0  0  0  0
  -28.2288  -17.2882   18.4339 C   0  0  0  0  0  0  0  0  0  0  0  0
  -19.5125  -27.4576   21.2942 C   0  0  0  0  0  0  0  0  0  0  0  0
  -26.9658  -16.5585   18.8971 C   0  0  0  0  0  0  0  0  0  0  0  0
  -28.9154  -18.0204   19.5855 C   0  0  0  0  0  0  0  0  0  0  0  0
  -26.7862  -18.1983   20.8118 C   0  0  0  0  0  0  0  0  0  0  0  0
  -20.7081  -27.4031   22.2529 C   0  0  1  0  0  0  0  0  0  0  0  0
  -23.2580  -29.9918   21.1439 C   0  0  1  0  0  0  0  0  0  0  0  0
  -26.0242  -17.4995   19.6739 C   0  0  2  0  0  0  0  0  0  0  0  0
  -24.9329  -22.2816   22.2184 C   0  0  0  0  0  0  0  0  0  0  0  0
  -24.6572  -34.8608   15.2839 C   0  0  0  0  0  0  0  0  0  0  0  0
  -21.4770  -29.2908   16.9371 C   0  0  0  0  0  0  0  0  0  0  0  0
  -22.2710  -30.8594   15.1545 C   0  0  0  0  0  0  0  0  0  0  0  0
  -20.6638  -31.6553   16.8883 C   0  0  0  0  0  0  0  0  0  0  0  0
  -26.6432  -34.5657   18.5158 C   0  0  0  0  0  0  0  0  0  0  0  0
  -30.2500  -24.4791   22.8258 C   0  0  0  0  0  0  0  0  0  0  0  0
  -29.4924  -26.1438   20.8329 C   0  0  0  0  0  0  0  0  0  1  0  0
  -23.0719  -31.2321   17.5316 C   0  0  1  0  0  0  0  0  0  0  0  0
  -24.9020  -34.4532   16.7285 C   0  0  2  0  0  0  0  0  0  0  0  0
  -21.8894  -30.7476   16.6461 C   0  0  0  0  0  0  0  0  0  0  0  0
  -24.8959  -15.4759   20.5184 N   0  0  0  0  0  0  0  0  0  0  0  0
  -24.7918  -16.7716   20.1774 N   0  0  0  0  0  0  0  0  0  0  0  0
  -31.2117  -23.8927   21.8689 N   0  0  0  0  0  0  0  0  0  0  0  0
  -23.6163  -30.2973   19.7573 N   0  0  0  0  0  0  0  0  0  0  0  0
  -27.9636  -18.8963   20.2722 N   0  0  0  0  0  0  0  0  0  0  0  0
  -23.2579  -18.5713   20.0401 N   0  0  0  0  0  0  0  0  0  0  0  0
  -20.7357  -15.1700   21.6103 N   0  0  0  0  0  0  0  0  0  0  0  0
  -27.2407  -21.0155   21.0130 N   0  0  0  0  0  0  0  0  0  0  0  0
  -21.5382  -28.5777   22.0929 N   0  0  0  0  0  0  0  0  0  0  0  0
  -23.4662  -32.6170   17.2967 N   0  0  0  0  0  0  0  0  0  0  0  0
  -26.2766  -34.8829   17.1115 N   0  3  0  0  0  0  0  0  0  0  0  0
  -20.7037  -17.3740   20.9776 O   0  0  0  0  0  0  0  0  0  0  0  0
  -22.8224  -27.8301   20.3000 O   0  0  0  0  0  0  0  0  0  0  0  0
  -21.8185  -31.7551   19.4763 O   0  0  0  0  0  0  0  0  0  0  0  0
  -25.6688  -32.1621   16.7323 O   0  0  0  0  0  0  0  0  0  0  0  0
  -29.2536  -20.7752   19.8850 O   0  0  0  0  0  0  0  0  0  0  0  0
  -22.4826   -9.9844   22.6559 O   0  0  0  0  0  0  0  0  0  0  0  0
  -28.9160  -27.1499   20.0010 O   0  0  0  0  0  0  0  0  0  1  0  0
  -24.4400   -5.7661   19.6930 F   0  0  0  0  0  0  0  0  0  0  0  0
  -25.2014   -9.6599   22.2745 F   0  0  0  0  0  0  0  0  0  0  0  0
  1  2  1  0  0  0  0
  1  5  2  0  0  0  0
  2  6  2  0  0  0  0
  3 10  2  0  0  0  0
  3 18  1  0  0  0  0
  4 11  1  0  0  0  0
  4 18  2  0  0  0  0
  5 20  1  0  0  0  0
  6 22  1  0  0  0  0
  7 12  2  0  0  0  0
  7 21  1  0  0  0  0
  8  9  2  0  0  0  0
  8 24  1  0  0  0  0
  9 25  1  0  0  0  0
 10 27  1  0  0  0  0
 11 27  2  0  0  0  0
 12 28  1  0  0  0  0
 13 14  2  0  0  0  0
 13 29  1  0  0  0  0
 14 30  1  0  0  0  0
 15 23  1  0  0  0  0
 15 28  2  0  0  0  0
 16 24  2  0  0  0  0
 16 26  1  0  0  0  0
 17 30  2  0  0  0  0
 17 31  1  0  0  0  0
 18 32  1  0  0  0  0
 19 32  1  0  0  0  0
 19 33  2  0  0  0  0
 19 38  1  0  0  0  0
 20 22  2  0  0  0  0
 20 43  1  0  0  0  0
 21 23  2  0  0  0  0
 21 44  1  0  0  0  0
 22 55  1  0  0  0  0
 23 45  1  0  0  0  0
 24 64  1  0  0  0  0
 25 26  2  0  0  0  0
 25 58  1  0  0  0  0
 26 76  1  0  0  0  0
 27 85  1  0  0  0  0
 28 86  1  0  0  0  0
 29 31  2  0  0  0  0
 29 85  1  0  0  0  0
 30 87  1  0  0  0  0
 31 88  1  0  0  0  0
 32 69  2  0  0  0  0
 33 70  1  0  0  0  0
 33 74  1  0  0  0  0
 34 36  2  0  0  0  0
 34 46  1  0  0  0  0
 34 71  1  0  0  0  0
 35 37  2  0  0  0  0
 35 47  1  0  0  0  0
 35 71  1  0  0  0  0
 37 65  1  0  0  0  0
 38 75  1  0  0  0  0
 38 80  2  0  0  0  0
 39 56  1  0  0  0  0
 39 77  1  0  0  0  0
 39 81  2  0  0  0  0
 40 66  1  0  0  0  0
 40 72  1  0  0  0  0
 40 82  2  0  0  0  0
 41 67  1  0  0  0  0
 41 78  1  0  0  0  0
 41 83  2  0  0  0  0
 42 73  1  0  0  0  0
 42 76  1  0  0  0  0
 42 84  2  0  0  0  0
 43 48  1  0  0  0  0
 44 56  1  0  0  0  0
 45 72  1  0  0  0  0
 46 49  1  0  0  0  0
 47 49  1  0  0  0  0
 48 51  1  0  0  0  0
 50 52  1  0  0  0  0
 50 53  1  0  0  0  0
 51 55  1  0  0  0  0
 52 57  1  0  0  0  0
 53 73  1  0  0  0  0
 54 57  1  0  0  0  0
 54 73  1  0  0  0  0
 55 77  1  0  0  0  0
 56 72  1  0  0  0  0
 57 70  1  0  0  0  0
 59 67  1  0  0  0  0
 60 68  1  0  0  0  0
 61 68  1  0  0  0  0
 62 68  1  0  0  0  0
 63 79  1  0  0  0  0
 64 71  1  0  0  0  0
 65 86  1  0  0  0  0
 66 68  1  0  0  0  0
 66 78  1  0  0  0  0
 67 79  1  0  0  0  0
 69 70  1  0  0  0  0
M  CHG  1  79   1
M  ISO  4  42 100  65 101  76 100  86 101
M  END
> <Batch ID>
0045

> <Smiles>
C=C1CCCC(=C[101CH2:1][101O:1]c2ccc3c(c2)CN(C(=O)C(NC(=O)C(C)NC)C(C)(C)C)C(C(=O)NC2CCCc4ccccc42)C3)N1Cc1ccc(C)c([100NH:0][100C:0](=O)N2CCCC(n3nc(-c4ccc(Oc5ccc(F)cc5F)cc4)c(C(N)=O)c3N)C2)c1

> <Shape>
0.220

> <Color>
0.094

> <Negative vol penalty>
0.000

$$$$

  -OEChem-04042322213D

 84 92  0     1  0  0  0  0  0999 V2000
  -45.4799  -26.8206   21.0225 C   0  0  0  0  0  0  0  0  0  0  0  0
  -44.9115  -26.2576   22.1606 C   0  0  0  0  0  0  0  0  0  0  0  0
  -23.0754   -9.8687   19.9401 C   0  0  0  0  0  0  0  0  0  0  0  0
  -23.8348   -9.8747   22.2337 C   0  0  0  0  0  0  0  0  0  0  0  0
  -30.4673  -18.3410   24.0448 C   0  0  0  0  0  0  0  0  0  0  0  0
  -44.7136  -26.9825   19.8691 C   0  0  0  0  0  0  0  0  0  0  0  0
  -43.5759  -25.8570   22.1463 C   0  0  0  0  0  0  0  0  0  0  0  0
  -39.2053  -20.8966   24.9045 C   0  0  0  0  0  0  0  0  0  0  0  0
  -29.8799  -17.4553   23.1415 C   0  0  0  0  0  0  0  0  0  0  0  0
  -22.3311   -8.7157   20.1896 C   0  0  0  0  0  0  0  0  0  0  0  0
  -23.0904   -8.7217   22.4832 C   0  0  0  0  0  0  0  0  0  0  0  0
  -37.9995  -20.7880   25.5958 C   0  0  0  0  0  0  0  0  0  0  0  0
  -19.8619   -7.9248   23.0847 C   0  0  0  0  0  0  0  0  0  0  0  0
  -19.1046   -7.8847   24.2553 C   0  0  0  0  0  0  0  0  0  0  0  0
  -36.7944  -21.0435   23.5218 C   0  0  0  0  0  0  0  0  0  0  0  0
  -32.0643  -16.6087   22.5511 C   0  0  0  0  0  0  0  0  0  0  0  0
  -20.3452   -5.9467   24.9915 C   0  0  0  0  0  0  0  0  0  0  0  0
  -23.8273  -10.4482   20.9622 C   0  0  0  0  0  0  0  0  0  0  0  0
  -31.8533  -18.3607   24.2012 C   0  0  0  0  0  0  0  0  0  0  0  0
  -24.1700  -12.9732   20.8430 C   0  0  0  0  0  0  0  0  0  0  0  0
  -43.3706  -26.5748   19.8376 C   0  0  0  0  0  0  0  0  0  0  0  0
  -39.2146  -21.0907   23.5158 C   0  0  0  0  0  0  0  0  0  0  0  0
  -42.7905  -26.0148   20.9918 C   0  0  0  0  0  0  0  0  0  0  0  0
  -38.0017  -21.1517   22.8149 C   0  0  0  0  0  0  0  0  0  0  0  0
  -32.6518  -17.4945   23.4544 C   0  0  0  0  0  0  0  0  0  0  0  0
  -30.6783  -16.5891   22.3947 C   0  0  0  0  0  0  0  0  0  0  0  0
  -22.3386   -8.1422   21.4611 C   0  0  0  0  0  0  0  0  0  0  0  0
  -36.7937  -20.8644   24.9049 C   0  0  0  0  0  0  0  0  0  0  0  0
  -20.8608   -6.9757   22.8673 C   0  0  0  0  0  0  0  0  0  0  0  0
  -19.3463   -6.8957   25.2088 C   0  0  0  0  0  0  0  0  0  0  0  0
  -21.1025   -5.9867   23.8208 C   0  0  0  0  0  0  0  0  0  0  0  0
  -24.5968  -11.6389   20.7050 C   0  0  0  0  0  0  0  0  0  0  0  0
  -25.2625  -13.7225   20.4802 C   0  0  0  0  0  0  0  0  0  0  0  0
  -32.4407  -19.3032   25.1592 C   0  0  0  0  0  0  0  0  0  0  0  0
  -22.8996  -13.4893   21.2618 C   0  0  0  0  0  0  0  0  0  0  0  0
  -32.8404  -20.5546   24.8753 C   0  0  0  0  0  0  0  0  0  0  0  0
  -40.2676  -23.3795   21.5777 C   0  0  0  0  0  0  0  0  0  0  0  0
  -39.4157  -21.2724   19.2632 C   0  0  0  0  0  0  0  0  0  0  0  0
  -37.4895  -18.6135   18.3323 C   0  0  0  0  0  0  0  0  0  0  0  0
  -30.7290  -14.7663   20.6566 C   0  0  0  0  0  0  0  0  0  0  0  0
  -42.5688  -26.8134   18.5826 C   0  0  0  0  0  0  0  0  0  0  0  0
  -40.5242  -21.1791   22.7812 C   0  0  0  0  0  0  0  0  0  0  0  0
  -37.9576  -21.3389   21.3210 C   0  0  0  0  0  0  0  0  0  0  0  0
  -41.2663  -26.0190   18.5318 C   0  0  0  0  0  0  0  0  0  0  0  0
  -29.6143  -12.3535   18.2873 C   0  0  0  0  0  0  0  0  0  0  0  0
  -40.5215  -26.1294   19.8584 C   0  0  0  0  0  0  0  0  0  0  0  0
  -28.1745  -12.0623   18.7164 C   0  0  0  0  0  0  0  0  0  0  0  0
  -30.5292  -12.5817   19.4893 C   0  0  0  0  0  0  0  0  0  0  0  0
  -28.6222  -13.3063   20.8703 C   0  0  0  0  0  0  0  0  0  0  0  0
  -41.3520  -25.5451   21.0076 C   0  0  1  0  0  0  0  0  0  0  0  0
  -40.4081  -21.8902   21.4365 C   0  0  1  0  0  0  0  0  0  0  0  0
  -27.6496  -13.1337   19.6922 C   0  0  2  0  0  0  0  0  0  0  0  0
  -34.1399  -17.4875   23.5962 C   0  0  0  0  0  0  0  0  0  0  0  0
  -36.9863  -17.1382   16.3657 C   0  0  0  0  0  0  0  0  0  0  0  0
  -37.7545  -23.5069   18.0151 C   0  0  0  0  0  0  0  0  0  0  0  0
  -36.5627  -21.7701   16.6618 C   0  0  0  0  0  0  0  0  0  0  0  0
  -39.0179  -22.1050   16.3741 C   0  0  0  0  0  0  0  0  0  0  0  0
  -35.3433  -22.9296   26.3590 C   0  0  0  0  0  0  0  0  0  0  0  0
  -38.4007  -16.1916   19.7685 C   0  0  0  0  0  0  0  0  0  0  0  0
  -33.4464  -21.5541   25.8220 C   0  0  0  0  0  0  0  0  0  0  0  0
  -38.1559  -20.9987   18.4777 C   0  0  1  0  0  0  0  0  0  0  0  0
  -37.8353  -17.3217   17.6140 C   0  0  2  0  0  0  0  0  0  0  0  0
  -37.8732  -22.0936   17.4106 C   0  0  0  0  0  0  0  0  0  0  0  0
  -25.8618  -11.5428   20.2870 N   0  0  0  0  0  0  0  0  0  0  0  0
  -26.2391  -12.8262   20.1591 N   0  0  0  0  0  0  0  0  0  0  0  0
  -39.2643  -21.4263   20.6486 N   0  0  0  0  0  0  0  0  0  0  0  0
  -29.9704  -13.6124   20.3668 N   0  0  0  0  0  0  0  0  0  0  0  0
  -25.4733  -15.0539   20.4077 N   0  0  0  0  0  0  0  0  0  0  0  0
  -21.8873  -12.5804   21.5985 N   0  0  0  0  0  0  0  0  0  0  0  0
  -30.0817  -15.6913   21.4751 N   0  0  0  0  0  0  0  0  0  0  0  0
  -41.2910  -24.0993   20.9910 N   0  0  0  0  0  0  0  0  0  0  0  0
  -38.3001  -19.6540   17.9305 N   0  0  0  0  0  0  0  0  0  0  0  0
  -34.7903  -21.9602   25.4158 N   0  0  2  0  0  0  0  0  0  1  0  0
  -37.6097  -16.1536   18.5116 N   0  3  0  0  0  0  0  0  0  0  0  0
  -22.6637  -14.7200   21.3194 O   0  0  0  0  0  0  0  0  0  0  0  0
  -39.3015  -23.8414   22.1735 O   0  0  0  0  0  0  0  0  0  0  0  0
  -40.4954  -21.3400   18.6703 O   0  0  0  0  0  0  0  0  0  0  0  0
  -36.5878  -18.6926   19.1637 O   0  0  0  0  0  0  0  0  0  0  0  0
  -31.8582  -14.9348   20.1893 O   0  0  0  0  0  0  0  0  0  0  0  0
  -21.6122   -7.0173   21.7049 O   0  0  0  0  0  0  0  0  0  0  0  0
  -35.6153  -20.7594   25.5773 O   0  0  0  0  0  0  0  0  0  1  0  0
  -18.6201   -6.8583   26.3337 F   0  0  0  0  0  0  0  0  0  0  0  0
  -22.0615   -5.0730   23.6181 F   0  0  0  0  0  0  0  0  0  0  0  0
  -32.5690  -21.1601   23.2632 Cl  0  0  0  0  0  0  0  0  0  0  0  0
  1  2  1  0  0  0  0
  1  6  2  0  0  0  0
  2  7  2  0  0  0  0
  3 10  2  0  0  0  0
  3 18  1  0  0  0  0
  4 11  1  0  0  0  0
  4 18  2  0  0  0  0
  5  9  2  0  0  0  0
  5 19  1  0  0  0  0
  6 21  1  0  0  0  0
  7 23  1  0  0  0  0
  8 12  2  0  0  0  0
  8 22  1  0  0  0  0
  9 26  1  0  0  0  0
 10 27  1  0  0  0  0
 11 27  2  0  0  0  0
 12 28  1  0  0  0  0
 13 14  2  0  0  0  0
 13 29  1  0  0  0  0
 14 30  1  0  0  0  0
 15 24  1  0  0  0  0
 15 28  2  0  0  0  0
 16 25  1  0  0  0  0
 16 26  2  0  0  0  0
 17 30  2  0  0  0  0
 17 31  1  0  0  0  0
 18 32  1  0  0  0  0
 19 25  2  0  0  0  0
 19 34  1  0  0  0  0
 20 32  1  0  0  0  0
 20 33  2  0  0  0  0
 20 35  1  0  0  0  0
 21 23  2  0  0  0  0
 21 41  1  0  0  0  0
 22 24  2  0  0  0  0
 22 42  1  0  0  0  0
 23 50  1  0  0  0  0
 24 43  1  0  0  0  0
 25 53  1  0  0  0  0
 26 70  1  0  0  0  0
 27 80  1  0  0  0  0
 28 81  1  0  0  0  0
 29 31  2  0  0  0  0
 29 80  1  0  0  0  0
 30 82  1  0  0  0  0
 31 83  1  0  0  0  0
 32 64  2  0  0  0  0
 33 65  1  0  0  0  0
 33 68  1  0  0  0  0
 34 36  2  0  0  0  0
 35 69  1  0  0  0  0
 35 75  2  0  0  0  0
 36 60  1  0  0  0  0
 36 84  1  0  0  0  0
 37 51  1  0  0  0  0
 37 71  1  0  0  0  0
 37 76  2  0  0  0  0
 38 61  1  0  0  0  0
 38 66  1  0  0  0  0
 38 77  2  0  0  0  0
 39 62  1  0  0  0  0
 39 72  1  0  0  0  0
 39 78  2  0  0  0  0
 40 67  1  0  0  0  0
 40 70  1  0  0  0  0
 40 79  2  0  0  0  0
 41 44  1  0  0  0  0
 42 51  1  0  0  0  0
 43 66  1  0  0  0  0
 44 46  1  0  0  0  0
 45 47  1  0  0  0  0
 45 48  1  0  0  0  0
 46 50  1  0  0  0  0
 47 52  1  0  0  0  0
 48 67  1  0  0  0  0
 49 52  1  0  0  0  0
 49 67  1  0  0  0  0
 50 71  1  0  0  0  0
 51 66  1  0  0  0  0
 52 65  1  0  0  0  0
 54 62  1  0  0  0  0
 55 63  1  0  0  0  0
 56 63  1  0  0  0  0
 57 63  1  0  0  0  0
 58 73  1  0  0  0  0
 59 74  1  0  0  0  0
 60 73  1  0  0  0  0
 61 63  1  0  0  0  0
 61 72  1  0  0  0  0
 62 74  1  0  0  0  0
 64 65  1  0  0  0  0
 73 81  1  0  0  0  0
M  CHG  1  74   1
M  ISO  4  40 100  70 100  73 101  81 101
M  END
> <Batch ID>
0045

> <Smiles>
CNC(C)C(=O)NC(C(=O)N1Cc2cc([101O:1][101N:1](C)CC(Cl)=Cc3ccc([100NH:0][100C:0](=O)N4CCCC(n5nc(-c6ccc(Oc7ccc(F)cc7F)cc6)c(C(N)=O)c5N)C4)cc3C)ccc2CC1C(=O)NC1CCCc2ccccc21)C(C)(C)C

> <Shape>
0.166

> <Color>
0.205

> <Negative vol penalty>
0.000

$$$$

  -OEChem-04042322213D

 84 92  0     1  0  0  0  0  0999 V2000
  -20.1582  -22.2724   12.2843 C   0  0  0  0  0  0  0  0  0  0  0  0
  -20.4388  -21.0913   12.9636 C   0  0  0  0  0  0  0  0  0  0  0  0
  -28.5740  -26.3354   17.7052 C   0  0  0  0  0  0  0  0  0  0  0  0
  -28.5814  -26.0676   20.1063 C   0  0  0  0  0  0  0  0  0  0  0  0
  -20.7535  -23.4664   12.6891 C   0  0  0  0  0  0  0  0  0  0  0  0
  -21.3158  -21.1033   14.0477 C   0  0  0  0  0  0  0  0  0  0  0  0
  -20.9836  -17.6441   19.0904 C   0  0  0  0  0  0  0  0  0  0  0  0
  -29.9170  -12.9845   18.9861 C   0  0  0  0  0  0  0  0  0  0  0  0
  -29.2573  -11.7979   18.6663 C   0  0  0  0  0  0  0  0  0  0  0  0
  -27.9133  -27.5561   17.8434 C   0  0  0  0  0  0  0  0  0  0  0  0
  -27.9207  -27.2882   20.2445 C   0  0  0  0  0  0  0  0  0  0  0  0
  -21.6297  -16.4666   19.4644 C   0  0  0  0  0  0  0  0  0  0  0  0
  -24.7652  -28.4621   19.9353 C   0  0  0  0  0  0  0  0  0  0  0  0
  -23.6907  -28.5206   20.8227 C   0  0  0  0  0  0  0  0  0  0  0  0
  -28.0217  -13.6809   20.3126 C   0  0  0  0  0  0  0  0  0  0  0  0
  -23.2669  -17.7576   20.6778 C   0  0  0  0  0  0  0  0  0  0  0  0
  -24.8385  -30.2195   22.1007 C   0  0  0  0  0  0  0  0  0  0  0  0
  -28.9080  -25.5911   18.8366 C   0  0  0  0  0  0  0  0  0  0  0  0
  -27.3619  -12.4943   19.9929 C   0  0  0  0  0  0  0  0  0  0  0  0
  -30.9809  -24.1140   18.6663 C   0  0  0  0  0  0  0  0  0  0  0  0
  -21.6308  -23.4948   13.7846 C   0  0  0  0  0  0  0  0  0  0  0  0
  -21.4814  -18.8898   19.4989 C   0  0  0  0  0  0  0  0  0  0  0  0
  -21.9245  -22.2986   14.4667 C   0  0  0  0  0  0  0  0  0  0  0  0
  -22.6238  -18.9492   20.3098 C   0  0  0  0  0  0  0  0  0  0  0  0
  -29.2993  -13.9260   19.8092 C   0  0  0  0  0  0  0  0  0  0  0  0
  -27.9797  -11.5528   19.1697 C   0  0  0  0  0  0  0  0  0  0  0  0
  -27.5867  -28.0325   19.1130 C   0  0  0  0  0  0  0  0  0  0  0  0
  -22.7732  -16.5234   20.2558 C   0  0  0  0  0  0  0  0  0  0  0  0
  -25.8765  -29.2823   20.1306 C   0  0  0  0  0  0  0  0  0  0  0  0
  -23.7273  -29.3993   21.9054 C   0  0  0  0  0  0  0  0  0  0  0  0
  -25.9131  -30.1610   21.2133 C   0  0  0  0  0  0  0  0  0  0  0  0
  -29.5900  -24.3299   18.6945 C   0  0  0  0  0  0  0  0  0  0  0  0
  -31.1144  -22.7554   18.5152 C   0  0  0  0  0  0  0  0  0  0  0  0
  -26.0095  -12.2551   20.5353 C   0  0  0  0  0  0  0  0  0  0  0  0
  -32.0559  -25.0571   18.7678 C   0  0  0  0  0  0  0  0  0  0  0  0
  -22.6051  -21.4575   17.9997 C   0  0  0  0  0  0  0  0  0  0  0  0
  -22.6289  -22.7128   20.9907 C   0  0  0  0  0  0  0  0  0  0  0  0
  -22.7409  -22.1728   24.3586 C   0  0  0  0  0  0  0  0  0  0  0  0
  -29.7427  -17.6531   19.9408 C   0  0  0  0  0  0  0  0  0  0  0  0
  -22.2868  -24.8012   14.1557 C   0  0  0  0  0  0  0  0  0  0  0  0
  -20.7575  -20.1494   19.1092 C   0  0  0  0  0  0  0  0  0  0  0  0
  -23.1869  -20.2604   20.7916 C   0  0  0  0  0  0  0  0  0  0  0  0
  -22.9139  -24.7941   15.5475 C   0  0  0  0  0  0  0  0  0  0  0  0
  -27.6798  -19.2102   17.4076 C   0  0  0  0  0  0  0  0  0  0  0  0
  -23.7345  -23.5254   15.7569 C   0  0  0  0  0  0  0  0  0  0  0  0
  -28.1141  -20.6729   17.5184 C   0  0  0  0  0  0  0  0  0  0  0  0
  -27.6328  -18.5421   18.7786 C   0  0  0  0  0  0  0  0  0  0  0  0
  -29.3431  -20.0828   19.6588 C   0  0  0  0  0  0  0  0  0  0  0  0
  -22.8513  -22.2754   15.6628 C   0  0  1  0  0  0  0  0  0  0  0  0
  -21.6468  -21.3881   19.1549 C   0  0  1  0  0  0  0  0  0  0  0  0
  -29.4321  -20.8080   18.3038 C   0  0  2  0  0  0  0  0  0  0  0  0
  -27.2934  -10.2751   18.8125 C   0  0  0  0  0  0  0  0  0  0  0  0
  -22.7844  -23.3958   26.5494 C   0  0  0  0  0  0  0  0  0  0  0  0
  -25.5630  -23.4163   20.5370 C   0  0  0  0  0  0  0  0  0  0  0  0
  -25.7948  -23.7425   23.0084 C   0  0  0  0  0  0  0  0  0  0  0  0
  -24.2343  -25.1855   21.7027 C   0  0  0  0  0  0  0  0  0  0  0  0
  -20.2043  -20.9265   25.2371 C   0  0  0  0  0  0  0  0  0  0  0  0
  -30.0048  -15.1946   20.1509 C   0  0  0  0  0  0  0  0  0  0  0  0
  -23.6584  -12.9909   20.7013 C   0  0  0  0  0  0  0  0  0  0  0  0
  -22.8442  -14.1482   20.1594 C   0  0  0  0  0  0  0  0  0  1  0  0
  -23.6296  -22.7663   22.1198 C   0  0  1  0  0  0  0  0  0  0  0  0
  -21.9083  -22.7342   25.4970 C   0  0  2  0  0  0  0  0  0  0  0  0
  -24.7962  -23.7529   21.8314 C   0  0  0  0  0  0  0  0  0  0  0  0
  -28.8901  -23.1990   18.5710 N   0  0  0  0  0  0  0  0  0  0  0  0
  -29.8449  -22.2595   18.4637 N   0  0  0  0  0  0  0  0  0  0  0  0
  -22.4471  -21.4645   20.3788 N   0  0  0  0  0  0  0  0  0  0  0  0
  -28.9235  -18.6907   19.4658 N   0  0  0  0  0  0  0  0  0  0  0  0
  -32.1927  -21.9485   18.4225 N   0  0  0  0  0  0  0  0  0  0  0  0
  -25.8235  -11.1866   21.3103 N   0  0  0  0  0  0  0  0  0  0  0  0
  -31.7418  -26.4146   18.9194 N   0  0  0  0  0  0  0  0  0  0  0  0
  -22.0969  -22.0964   16.8848 N   0  0  0  0  0  0  0  0  0  0  0  0
  -22.8687  -23.0767   23.3252 N   0  0  0  0  0  0  0  0  0  0  0  0
  -29.2699  -16.3646   19.7243 N   0  0  0  0  0  0  0  0  0  0  0  0
  -25.0367  -13.1193   20.2219 N   0  3  0  0  0  0  0  0  0  0  0  0
  -21.1264  -21.6476   26.1519 N   0  3  0  0  0  0  0  0  0  0  0  0
  -33.2594  -24.7084   18.7087 O   0  0  0  0  0  0  0  0  0  0  0  0
  -23.7233  -20.9691   18.1121 O   0  0  0  0  0  0  0  0  0  0  0  0
  -22.0253  -23.7392   20.6684 O   0  0  0  0  0  0  0  0  0  0  0  0
  -23.2321  -21.0465   24.3851 O   0  0  0  0  0  0  0  0  0  0  0  0
  -30.8193  -17.8595   20.5113 O   0  0  0  0  0  0  0  0  0  0  0  0
  -26.9422  -29.2237   19.2483 O   0  0  0  0  0  0  0  0  0  0  0  0
  -23.4062  -15.3756   20.6217 O   0  0  0  0  0  0  0  0  0  1  0  0
  -22.6947  -29.4564   22.7566 F   0  0  0  0  0  0  0  0  0  0  0  0
  -26.9774  -30.9523   21.4054 F   0  0  0  0  0  0  0  0  0  0  0  0
  1  2  1  0  0  0  0
  1  5  2  0  0  0  0
  2  6  2  0  0  0  0
  3 10  2  0  0  0  0
  3 18  1  0  0  0  0
  4 11  1  0  0  0  0
  4 18  2  0  0  0  0
  5 21  1  0  0  0  0
  6 23  1  0  0  0  0
  7 12  2  0  0  0  0
  7 22  1  0  0  0  0
  8  9  2  0  0  0  0
  8 25  1  0  0  0  0
  9 26  1  0  0  0  0
 10 27  1  0  0  0  0
 11 27  2  0  0  0  0
 12 28  1  0  0  0  0
 13 14  2  0  0  0  0
 13 29  1  0  0  0  0
 14 30  1  0  0  0  0
 15 19  1  0  0  0  0
 15 25  2  0  0  0  0
 16 24  1  0  0  0  0
 16 28  2  0  0  0  0
 17 30  2  0  0  0  0
 17 31  1  0  0  0  0
 18 32  1  0  0  0  0
 19 26  2  0  0  0  0
 19 34  1  0  0  0  0
 20 32  1  0  0  0  0
 20 33  2  0  0  0  0
 20 35  1  0  0  0  0
 21 23  2  0  0  0  0
 21 40  1  0  0  0  0
 22 24  2  0  0  0  0
 22 41  1  0  0  0  0
 23 49  1  0  0  0  0
 24 42  1  0  0  0  0
 25 58  1  0  0  0  0
 26 52  1  0  0  0  0
 27 81  1  0  0  0  0
 28 82  1  0  0  0  0
 29 31  2  0  0  0  0
 29 81  1  0  0  0  0
 30 83  1  0  0  0  0
 31 84  1  0  0  0  0
 32 64  2  0  0  0  0
 33 65  1  0  0  0  0
 33 68  1  0  0  0  0
 34 69  1  0  0  0  0
 34 74  2  0  0  0  0
 35 70  1  0  0  0  0
 35 76  2  0  0  0  0
 36 50  1  0  0  0  0
 36 71  1  0  0  0  0
 36 77  2  0  0  0  0
 37 61  1  0  0  0  0
 37 66  1  0  0  0  0
 37 78  2  0  0  0  0
 38 62  1  0  0  0  0
 38 72  1  0  0  0  0
 38 79  2  0  0  0  0
 39 67  1  0  0  0  0
 39 73  1  0  0  0  0
 39 80  2  0  0  0  0
 40 43  1  0  0  0  0
 41 50  1  0  0  0  0
 42 66  1  0  0  0  0
 43 45  1  0  0  0  0
 44 46  1  0  0  0  0
 44 47  1  0  0  0  0
 45 49  1  0  0  0  0
 46 51  1  0  0  0  0
 47 67  1  0  0  0  0
 48 51  1  0  0  0  0
 48 67  1  0  0  0  0
 49 71  1  0  0  0  0
 50 66  1  0  0  0  0
 51 65  1  0  0  0  0
 53 62  1  0  0  0  0
 54 63  1  0  0  0  0
 55 63  1  0  0  0  0
 56 63  1  0  0  0  0
 57 75  1  0  0  0  0
 58 73  1  0  0  0  0
 59 60  1  0  0  0  0
 59 74  1  0  0  0  0
 60 82  1  0  0  0  0
 61 63  1  0  0  0  0
 61 72  1  0  0  0  0
 62 75  1  0  0  0  0
 64 65  1  0  0  0  0
M  CHG  2  74   1  75   1
M  ISO  4  39 100  60 101  73 100  82 101
M  END
> <Batch ID>
0045

> <Smiles>
CNC(C)C(=O)NC(C(=O)N1Cc2cc([101O:1][101CH2:1]CNC(=N)c3cc(C[100NH:0][100C:0](=O)N4CCCC(n5nc(-c6ccc(Oc7ccc(F)cc7F)cc6)c(C(N)=O)c5N)C4)ccc3C)ccc2CC1C(=O)NC1CCCc2ccccc21)C(C)(C)C

> <Shape>
0.203

> <Color>
0.057

> <Negative vol penalty>
0.000

$$$$

  -OEChem-04042322213D

 85 93  0     1  0  0  0  0  0999 V2000
  -25.2623  -22.5296   16.5890 C   0  0  0  0  0  0  0  0  0  0  0  0
  -24.4393  -22.9654   17.6226 C   0  0  0  0  0  0  0  0  0  0  0  0
  -26.4517  -12.9937   19.7181 C   0  0  0  0  0  0  0  0  0  0  0  0
  -24.3996  -13.5029   20.8871 C   0  0  0  0  0  0  0  0  0  0  0  0
  -23.4589  -23.8894   23.4510 C   0  0  0  0  0  0  0  0  0  0  0  0
  -26.6463  -22.6557   16.7011 C   0  0  0  0  0  0  0  0  0  0  0  0
  -25.0000  -23.5266   18.7694 C   0  0  0  0  0  0  0  0  0  0  0  0
  -22.5851  -27.7209   20.2597 C   0  0  0  0  0  0  0  0  0  0  0  0
  -24.4695  -22.9507   23.2429 C   0  0  0  0  0  0  0  0  0  0  0  0
  -26.3879  -11.6786   20.1788 C   0  0  0  0  0  0  0  0  0  0  0  0
  -24.3357  -12.1878   21.3478 C   0  0  0  0  0  0  0  0  0  0  0  0
  -21.3794  -27.5539   20.9396 C   0  0  0  0  0  0  0  0  0  0  0  0
  -23.4216   -9.1679   20.1374 C   0  0  0  0  0  0  0  0  0  0  0  0
  -22.1904   -8.5165   20.0646 C   0  0  0  0  0  0  0  0  0  0  0  0
  -22.5191  -27.9101   23.0356 C   0  0  0  0  0  0  0  0  0  0  0  0
  -22.2062   -8.2189   22.4622 C   0  0  0  0  0  0  0  0  0  0  0  0
  -25.4576  -13.9058   20.0723 C   0  0  0  0  0  0  0  0  0  0  0  0
  -22.1726  -23.4666   23.7865 C   0  0  0  0  0  0  0  0  0  0  0  0
  -24.9723  -15.7765   18.4072 C   0  0  0  0  0  0  0  0  0  0  0  0
  -27.2238  -23.2276   17.8457 C   0  0  0  0  0  0  0  0  0  0  0  0
  -23.7707  -27.9734   20.9646 C   0  0  0  0  0  0  0  0  0  0  0  0
  -26.3931  -23.6593   18.8974 C   0  0  0  0  0  0  0  0  0  0  0  0
  -23.7380  -28.0825   22.3621 C   0  0  0  0  0  0  0  0  0  0  0  0
  -24.1938  -21.5893   23.3703 C   0  0  0  0  0  0  0  0  0  0  0  0
  -25.3299  -11.2757   20.9936 C   0  0  0  0  0  0  0  0  0  0  0  0
  -21.3468  -27.6456   22.3280 C   0  0  0  0  0  0  0  0  0  0  0  0
  -24.0452   -9.3449   21.3725 C   0  0  0  0  0  0  0  0  0  0  0  0
  -21.5827   -8.0420   21.2270 C   0  0  0  0  0  0  0  0  0  0  0  0
  -23.4375   -8.8704   22.5349 C   0  0  0  0  0  0  0  0  0  0  0  0
  -21.8970  -22.1052   23.9139 C   0  0  0  0  0  0  0  0  0  0  0  0
  -22.9075  -21.1665   23.7058 C   0  0  0  0  0  0  0  0  0  0  0  0
  -25.5233  -15.2645   19.5972 C   0  0  0  0  0  0  0  0  0  0  0  0
  -25.3082  -17.1083   18.4185 C   0  0  0  0  0  0  0  0  0  0  0  0
  -21.1350  -24.4954   24.0001 C   0  0  0  0  0  0  0  0  0  0  0  0
  -24.2237  -15.1082   17.3833 C   0  0  0  0  0  0  0  0  0  0  0  0
  -26.5437  -26.4575   21.3058 C   0  0  0  0  0  0  0  0  0  0  0  0
  -27.3690  -29.1453   22.9234 C   0  0  0  0  0  0  0  0  0  0  0  0
  -26.3659  -31.8750   24.7093 C   0  0  0  0  0  0  0  0  0  0  0  0
  -26.5680  -20.9634   22.8067 C   0  0  0  0  0  0  0  0  0  0  0  0
  -28.7272  -23.2996   17.9416 C   0  0  0  0  0  0  0  0  0  0  0  0
  -25.0584  -28.1776   20.2145 C   0  0  0  0  0  0  0  0  0  0  0  0
  -24.9795  -28.3722   23.1642 C   0  0  0  0  0  0  0  0  0  0  0  0
  -29.2234  -24.2481   19.0299 C   0  0  0  0  0  0  0  0  0  0  0  0
  -28.6608  -20.1109   20.0552 C   0  0  0  0  0  0  0  0  0  0  0  0
  -28.4590  -24.0161   20.3294 C   0  0  0  0  0  0  0  0  0  0  0  0
  -28.0400  -18.8212   19.5135 C   0  0  0  0  0  0  0  0  0  0  0  0
  -28.5822  -20.1816   21.5792 C   0  0  0  0  0  0  0  0  0  0  0  0
  -26.6196  -18.6926   21.5999 C   0  0  0  0  0  0  0  0  0  0  0  0
  -26.9624  -24.2960   20.1467 C   0  0  1  0  0  0  0  0  0  0  0  0
  -26.2953  -27.9204   21.0697 C   0  0  1  0  0  0  0  0  0  0  0  0
  -26.6169  -18.6059   20.0649 C   0  0  2  0  0  0  0  0  0  0  0  0
  -27.2714  -33.8697   25.9334 C   0  0  0  0  0  0  0  0  0  0  0  0
  -17.9388  -27.4106   22.0869 C   0  0  0  0  0  0  0  0  0  0  0  0
  -28.1847  -27.3454   25.2482 C   0  0  0  0  0  0  0  0  0  0  0  0
  -28.1667  -29.3653   26.7273 C   0  0  0  0  0  0  0  0  0  0  0  0
  -29.7480  -29.2457   24.8018 C   0  0  0  0  0  0  0  0  0  0  0  0
  -24.9611  -33.7609   22.9124 C   0  0  0  0  0  0  0  0  0  0  0  0
  -18.9546  -25.4422   23.3323 C   0  0  0  0  0  0  0  0  0  0  0  0
  -27.2832  -29.5964   24.3615 C   0  0  1  0  0  0  0  0  0  0  0  0
  -26.7468  -33.3409   24.6076 C   0  0  2  0  0  0  0  0  0  0  0  0
  -19.2021  -26.6204   22.3994 C   0  0  2  0  0  0  0  0  0  1  0  0
  -28.3224  -28.8808   25.2700 C   0  0  0  0  0  0  0  0  0  0  0  0
  -26.1610  -16.1950   20.3123 N   0  0  0  0  0  0  0  0  0  0  0  0
  -26.0129  -17.3052   19.5696 N   0  0  0  0  0  0  0  0  0  0  0  0
  -26.2151  -28.5577   22.3856 N   0  0  0  0  0  0  0  0  0  0  0  0
  -27.2041  -19.9730   22.0288 N   0  0  0  0  0  0  0  0  0  0  0  0
  -25.0667  -18.1183   17.5561 N   0  0  0  0  0  0  0  0  0  0  0  0
  -21.3317  -25.3952   24.9638 N   0  0  0  0  0  0  0  0  0  0  0  0
  -23.9677  -13.7380   17.5292 N   0  0  0  0  0  0  0  0  0  0  0  0
  -25.2482  -20.6693   23.1478 N   0  0  0  0  0  0  0  0  0  0  0  0
  -26.7109  -25.7212   20.1485 N   0  0  0  0  0  0  0  0  0  0  0  0
  -27.4076  -31.0499   24.3415 N   0  0  0  0  0  0  0  0  0  0  0  0
  -20.0486  -24.4736   23.2193 N   0  3  0  0  0  0  0  0  0  0  0  0
  -25.5646  -34.1570   24.2108 N   0  3  0  0  0  0  0  0  0  0  0  0
  -23.8086  -15.7047   16.3609 O   0  0  0  0  0  0  0  0  0  0  0  0
  -26.5823  -26.0287   22.4531 O   0  0  0  0  0  0  0  0  0  0  0  0
  -28.4187  -29.3148   22.2980 O   0  0  0  0  0  0  0  0  0  0  0  0
  -25.2565  -31.4993   25.0817 O   0  0  0  0  0  0  0  0  0  0  0  0
  -27.1423  -22.0086   23.1225 O   0  0  0  0  0  0  0  0  0  0  0  0
  -25.2671   -9.9925   21.4432 O   0  0  0  0  0  0  0  0  0  0  0  0
  -20.1715  -27.4824   22.9941 O   0  0  0  0  0  0  0  0  0  1  0  0
  -20.3996   -7.4178   21.1572 F   0  0  0  0  0  0  0  0  0  0  0  0
  -24.0311   -9.0385   23.7245 F   0  0  0  0  0  0  0  0  0  0  0  0
  -20.2858  -21.6120   24.3353 Cl  0  0  0  0  0  0  0  0  0  0  0  0
  -22.5901  -19.4643   23.8574 Cl  0  0  0  0  0  0  0  0  0  0  0  0
  1  2  1  0  0  0  0
  1  6  2  0  0  0  0
  2  7  2  0  0  0  0
  3 10  2  0  0  0  0
  3 17  1  0  0  0  0
  4 11  1  0  0  0  0
  4 17  2  0  0  0  0
  5  9  2  0  0  0  0
  5 18  1  0  0  0  0
  6 20  1  0  0  0  0
  7 22  1  0  0  0  0
  8 12  2  0  0  0  0
  8 21  1  0  0  0  0
  9 24  1  0  0  0  0
 10 25  1  0  0  0  0
 11 25  2  0  0  0  0
 12 26  1  0  0  0  0
 13 14  2  0  0  0  0
 13 27  1  0  0  0  0
 14 28  1  0  0  0  0
 15 23  1  0  0  0  0
 15 26  2  0  0  0  0
 16 28  2  0  0  0  0
 16 29  1  0  0  0  0
 17 32  1  0  0  0  0
 18 30  2  0  0  0  0
 18 34  1  0  0  0  0
 19 32  1  0  0  0  0
 19 33  2  0  0  0  0
 19 35  1  0  0  0  0
 20 22  2  0  0  0  0
 20 40  1  0  0  0  0
 21 23  2  0  0  0  0
 21 41  1  0  0  0  0
 22 49  1  0  0  0  0
 23 42  1  0  0  0  0
 24 31  2  0  0  0  0
 24 70  1  0  0  0  0
 25 80  1  0  0  0  0
 26 81  1  0  0  0  0
 27 29  2  0  0  0  0
 27 80  1  0  0  0  0
 28 82  1  0  0  0  0
 29 83  1  0  0  0  0
 30 31  1  0  0  0  0
 30 84  1  0  0  0  0
 31 85  1  0  0  0  0
 32 63  2  0  0  0  0
 33 64  1  0  0  0  0
 33 67  1  0  0  0  0
 34 68  1  0  0  0  0
 34 73  2  0  0  0  0
 35 69  1  0  0  0  0
 35 75  2  0  0  0  0
 36 50  1  0  0  0  0
 36 71  1  0  0  0  0
 36 76  2  0  0  0  0
 37 59  1  0  0  0  0
 37 65  1  0  0  0  0
 37 77  2  0  0  0  0
 38 60  1  0  0  0  0
 38 72  1  0  0  0  0
 38 78  2  0  0  0  0
 39 66  1  0  0  0  0
 39 70  1  0  0  0  0
 39 79  2  0  0  0  0
 40 43  1  0  0  0  0
 41 50  1  0  0  0  0
 42 65  1  0  0  0  0
 43 45  1  0  0  0  0
 44 46  1  0  0  0  0
 44 47  1  0  0  0  0
 45 49  1  0  0  0  0
 46 51  1  0  0  0  0
 47 66  1  0  0  0  0
 48 51  1  0  0  0  0
 48 66  1  0  0  0  0
 49 71  1  0  0  0  0
 50 65  1  0  0  0  0
 51 64  1  0  0  0  0
 52 60  1  0  0  0  0
 53 61  1  0  0  0  0
 54 62  1  0  0  0  0
 55 62  1  0  0  0  0
 56 62  1  0  0  0  0
 57 74  1  0  0  0  0
 58 61  1  0  0  0  0
 58 73  1  0  0  0  0
 59 62  1  0  0  0  0
 59 72  1  0  0  0  0
 60 74  1  0  0  0  0
 61 81  1  0  0  0  0
 63 64  1  0  0  0  0
M  CHG  2  73   1  74   1
M  ISO  4  39 100  61 101  70 100  81 101
M  END
> <Batch ID>
0045

> <Smiles>
CNC(C)C(=O)NC(C(=O)N1Cc2cc([101O:1][101CH:1](C)CNC(=N)c3ccc([100NH:0][100C:0](=O)N4CCCC(n5nc(-c6ccc(Oc7ccc(F)cc7F)cc6)c(C(N)=O)c5N)C4)c(Cl)c3Cl)ccc2CC1C(=O)NC1CCCc2ccccc21)C(C)(C)C

> <Shape>
0.233

> <Color>
0.052

> <Negative vol penalty>
0.000

$$$$

  -OEChem-04042322213D

 82 90  0     1  0  0  0  0  0999 V2000
  -39.2220  -29.0858   21.9777 C   0  0  0  0  0  0  0  0  0  0  0  0
  -38.2003  -28.3825   22.6077 C   0  0  0  0  0  0  0  0  0  0  0  0
  -23.0073   -9.8886   19.9656 C   0  0  0  0  0  0  0  0  0  0  0  0
  -23.7375   -9.9160   22.2684 C   0  0  0  0  0  0  0  0  0  0  0  0
  -39.0661  -29.5063   20.6576 C   0  0  0  0  0  0  0  0  0  0  0  0
  -37.0215  -28.1004   21.9183 C   0  0  0  0  0  0  0  0  0  0  0  0
  -35.4779  -23.3233   22.5832 C   0  0  0  0  0  0  0  0  0  0  0  0
  -29.8585  -17.4375   23.1552 C   0  0  0  0  0  0  0  0  0  0  0  0
  -30.4442  -18.3269   24.0560 C   0  0  0  0  0  0  0  0  0  0  0  0
  -22.2465   -8.7477   20.2204 C   0  0  0  0  0  0  0  0  0  0  0  0
  -22.9766   -8.7751   22.5233 C   0  0  0  0  0  0  0  0  0  0  0  0
  -34.8385  -23.0222   23.7850 C   0  0  0  0  0  0  0  0  0  0  0  0
  -23.2348   -5.4430   22.0120 C   0  0  0  0  0  0  0  0  0  0  0  0
  -23.8285   -4.4198   22.7508 C   0  0  0  0  0  0  0  0  0  0  0  0
  -32.7006  -23.1683   22.6772 C   0  0  0  0  0  0  0  0  0  0  0  0
  -32.0403  -16.5571   22.6058 C   0  0  0  0  0  0  0  0  0  0  0  0
  -22.1074   -4.6354   24.4326 C   0  0  0  0  0  0  0  0  0  0  0  0
  -23.7529  -10.4728   20.9896 C   0  0  0  0  0  0  0  0  0  0  0  0
  -24.1265  -12.9920   20.8420 C   0  0  0  0  0  0  0  0  0  0  0  0
  -37.8887  -29.2208   19.9485 C   0  0  0  0  0  0  0  0  0  0  0  0
  -34.7317  -23.5603   21.4198 C   0  0  0  0  0  0  0  0  0  0  0  0
  -36.8492  -28.5187   20.5878 C   0  0  0  0  0  0  0  0  0  0  0  0
  -33.3330  -23.4697   21.4613 C   0  0  0  0  0  0  0  0  0  0  0  0
  -30.6566  -16.5526   22.4301 C   0  0  0  0  0  0  0  0  0  0  0  0
  -31.8280  -18.3314   24.2318 C   0  0  0  0  0  0  0  0  0  0  0  0
  -22.2311   -8.1909   21.4992 C   0  0  0  0  0  0  0  0  0  0  0  0
  -33.4495  -22.9475   23.8328 C   0  0  0  0  0  0  0  0  0  0  0  0
  -22.0773   -6.0625   22.4834 C   0  0  0  0  0  0  0  0  0  0  0  0
  -23.2649   -4.0159   23.9612 C   0  0  0  0  0  0  0  0  0  0  0  0
  -21.5136   -5.6587   23.6937 C   0  0  0  0  0  0  0  0  0  0  0  0
  -32.6260  -17.4465   23.5067 C   0  0  0  0  0  0  0  0  0  0  0  0
  -24.5395  -11.6510   20.7269 C   0  0  0  0  0  0  0  0  0  0  0  0
  -25.2322  -13.7237   20.4836 C   0  0  0  0  0  0  0  0  0  0  0  0
  -22.8570  -13.5281   21.2377 C   0  0  0  0  0  0  0  0  0  0  0  0
  -34.3553  -26.0357   19.4616 C   0  0  0  0  0  0  0  0  0  0  0  0
  -32.6353  -23.9024   17.7258 C   0  0  0  0  0  0  0  0  0  0  0  0
  -30.7989  -21.0266   17.6656 C   0  0  0  0  0  0  0  0  0  0  0  0
  -30.7079  -14.7066   20.7166 C   0  0  0  0  0  0  0  0  0  0  0  0
  -37.7472  -29.7372   18.5385 C   0  0  0  0  0  0  0  0  0  0  0  0
  -35.4377  -23.8576   20.1254 C   0  0  0  0  0  0  0  0  0  0  0  0
  -32.4870  -23.6955   20.2358 C   0  0  0  0  0  0  0  0  0  0  0  0
  -36.6172  -29.0720   17.7568 C   0  0  0  0  0  0  0  0  0  0  0  0
  -29.5953  -12.2760   18.3647 C   0  0  0  0  0  0  0  0  0  0  0  0
  -35.3479  -29.0115   18.6006 C   0  0  0  0  0  0  0  0  0  0  0  0
  -28.1468  -12.0070   18.7791 C   0  0  0  0  0  0  0  0  0  0  0  0
  -30.4974  -12.5093   19.5752 C   0  0  0  0  0  0  0  0  0  0  0  0
  -28.5816  -13.2740   20.9221 C   0  0  0  0  0  0  0  0  0  0  0  0
  -35.5656  -28.1719   19.8652 C   0  0  1  0  0  0  0  0  0  0  0  0
  -34.5550  -24.5868   19.1171 C   0  0  1  0  0  0  0  0  0  0  0  0
  -27.6221  -13.0972   19.7340 C   0  0  2  0  0  0  0  0  0  0  0  0
  -29.4903  -19.5571   16.1082 C   0  0  0  0  0  0  0  0  0  0  0  0
  -30.3424  -25.9152   17.7572 C   0  0  0  0  0  0  0  0  0  0  0  0
  -28.8050  -24.0697   17.0511 C   0  0  0  0  0  0  0  0  0  0  0  0
  -30.6865  -24.7601   15.5659 C   0  0  0  0  0  0  0  0  0  0  0  0
  -32.5790  -18.7154   18.1643 C   0  0  0  0  0  0  0  0  0  0  0  0
  -32.5156  -21.0449   26.7579 C   0  0  0  0  0  0  0  0  0  0  0  0
  -31.6057  -20.1641   25.9103 C   0  0  0  0  0  0  0  0  0  0  0  0
  -33.5278  -21.8266   25.9288 C   0  0  0  0  0  0  0  0  0  1  0  0
  -31.1875  -23.4767   17.6858 C   0  0  1  0  0  0  0  0  0  0  0  0
  -30.8459  -19.8204   16.7451 C   0  0  2  0  0  0  0  0  0  0  0  0
  -30.2709  -24.5530   17.0387 C   0  0  0  0  0  0  0  0  0  0  0  0
  -25.8084  -11.5349   20.3264 N   0  0  0  0  0  0  0  0  0  0  0  0
  -26.2023  -12.8121   20.1868 N   0  0  0  0  0  0  0  0  0  0  0  0
  -33.2236  -23.9895   18.9955 N   0  0  0  0  0  0  0  0  0  0  0  0
  -29.9396  -13.5579   20.4321 N   0  0  0  0  0  0  0  0  0  0  0  0
  -25.4596  -15.0515   20.3965 N   0  0  0  0  0  0  0  0  0  0  0  0
  -21.8300  -12.6354   21.5732 N   0  0  0  0  0  0  0  0  0  0  0  0
  -30.0611  -15.6497   21.5146 N   0  0  0  0  0  0  0  0  0  0  0  0
  -32.3809  -19.2269   25.1339 N   0  0  0  0  0  0  0  0  0  0  0  0
  -35.5287  -26.7605   19.5472 N   0  0  0  0  0  0  0  0  0  0  0  0
  -31.1607  -22.1842   17.0096 N   0  0  0  0  0  0  0  0  0  0  0  0
  -31.2524  -18.6045   17.5048 N   0  3  0  0  0  0  0  0  0  0  0  0
  -22.6349  -14.7621   21.2763 O   0  0  0  0  0  0  0  0  0  0  0  0
  -33.2206  -26.4646   19.6353 O   0  0  0  0  0  0  0  0  0  0  0  0
  -33.2247  -24.1419   16.6689 O   0  0  0  0  0  0  0  0  0  0  0  0
  -30.4702  -20.9501   18.8474 O   0  0  0  0  0  0  0  0  0  0  0  0
  -31.8449  -14.8559   20.2617 O   0  0  0  0  0  0  0  0  0  0  0  0
  -21.4886   -7.0777   21.7483 O   0  0  0  0  0  0  0  0  0  0  0  0
  -32.8229  -22.6545   25.0046 O   0  0  0  0  0  0  0  0  0  1  0  0
  -23.8343   -3.0323   24.6699 F   0  0  0  0  0  0  0  0  0  0  0  0
  -20.4011   -6.2493   24.1512 F   0  0  0  0  0  0  0  0  0  0  0  0
  -34.3430  -17.4185   23.6949 Cl  0  0  0  0  0  0  0  0  0  0  0  0
  1  2  1  0  0  0  0
  1  5  2  0  0  0  0
  2  6  2  0  0  0  0
  3 10  2  0  0  0  0
  3 18  1  0  0  0  0
  4 11  1  0  0  0  0
  4 18  2  0  0  0  0
  5 20  1  0  0  0  0
  6 22  1  0  0  0  0
  7 12  2  0  0  0  0
  7 21  1  0  0  0  0
  8  9  2  0  0  0  0
  8 24  1  0  0  0  0
  9 25  1  0  0  0  0
 10 26  1  0  0  0  0
 11 26  2  0  0  0  0
 12 27  1  0  0  0  0
 13 14  2  0  0  0  0
 13 28  1  0  0  0  0
 14 29  1  0  0  0  0
 15 23  1  0  0  0  0
 15 27  2  0  0  0  0
 16 24  2  0  0  0  0
 16 31  1  0  0  0  0
 17 29  2  0  0  0  0
 17 30  1  0  0  0  0
 18 32  1  0  0  0  0
 19 32  1  0  0  0  0
 19 33  2  0  0  0  0
 19 34  1  0  0  0  0
 20 22  2  0  0  0  0
 20 39  1  0  0  0  0
 21 23  2  0  0  0  0
 21 40  1  0  0  0  0
 22 48  1  0  0  0  0
 23 41  1  0  0  0  0
 24 68  1  0  0  0  0
 25 31  2  0  0  0  0
 25 69  1  0  0  0  0
 26 78  1  0  0  0  0
 27 79  1  0  0  0  0
 28 30  2  0  0  0  0
 28 78  1  0  0  0  0
 29 80  1  0  0  0  0
 30 81  1  0  0  0  0
 31 82  1  0  0  0  0
 32 62  2  0  0  0  0
 33 63  1  0  0  0  0
 33 66  1  0  0  0  0
 34 67  1  0  0  0  0
 34 73  2  0  0  0  0
 35 49  1  0  0  0  0
 35 70  1  0  0  0  0
 35 74  2  0  0  0  0
 36 59  1  0  0  0  0
 36 64  1  0  0  0  0
 36 75  2  0  0  0  0
 37 60  1  0  0  0  0
 37 71  1  0  0  0  0
 37 76  2  0  0  0  0
 38 65  1  0  0  0  0
 38 68  1  0  0  0  0
 38 77  2  0  0  0  0
 39 42  1  0  0  0  0
 40 49  1  0  0  0  0
 41 64  1  0  0  0  0
 42 44  1  0  0  0  0
 43 45  1  0  0  0  0
 43 46  1  0  0  0  0
 44 48  1  0  0  0  0
 45 50  1  0  0  0  0
 46 65  1  0  0  0  0
 47 50  1  0  0  0  0
 47 65  1  0  0  0  0
 48 70  1  0  0  0  0
 49 64  1  0  0  0  0
 50 63  1  0  0  0  0
 51 60  1  0  0  0  0
 52 61  1  0  0  0  0
 53 61  1  0  0  0  0
 54 61  1  0  0  0  0
 55 72  1  0  0  0  0
 56 57  1  0  0  0  0
 56 58  1  0  0  0  0
 57 69  1  0  0  0  0
 58 79  1  0  0  0  0
 59 61  1  0  0  0  0
 59 71  1  0  0  0  0
 60 72  1  0  0  0  0
 62 63  1  0  0  0  0
M  CHG  1  72   1
M  ISO  4  38 100  58 101  68 100  79 101
M  END
> <Batch ID>
0045

> <Smiles>
CNC(C)C(=O)NC(C(=O)N1Cc2cc([101O:1][101CH2:1]CCNc3ccc([100NH:0][100C:0](=O)N4CCCC(n5nc(-c6ccc(Oc7ccc(F)cc7F)cc6)c(C(N)=O)c5N)C4)cc3Cl)ccc2CC1C(=O)NC1CCCc2ccccc21)C(C)(C)C

> <Shape>
0.205

> <Color>
0.203

> <Negative vol penalty>
0.000

$$$$

  -OEChem-04042322213D

 85 93  0     1  0  0  0  0  0999 V2000
  -32.2798  -32.0523   24.6946 C   0  0  0  0  0  0  0  0  0  0  0  0
  -32.0511  -31.1965   23.6218 C   0  0  0  0  0  0  0  0  0  0  0  0
  -21.7712  -17.9503   15.0285 C   0  0  0  0  0  0  0  0  0  0  0  0
  -30.5803  -18.1687   20.8599 C   0  0  0  0  0  0  0  0  0  0  0  0
  -29.5795  -17.5234   18.7578 C   0  0  0  0  0  0  0  0  0  0  0  0
  -31.3890  -32.0774   25.7669 C   0  0  0  0  0  0  0  0  0  0  0  0
  -30.9321  -30.3644   23.6213 C   0  0  0  0  0  0  0  0  0  0  0  0
  -27.6062  -28.6705   18.7660 C   0  0  0  0  0  0  0  0  0  0  0  0
  -22.1626  -19.2060   14.5642 C   0  0  0  0  0  0  0  0  0  0  0  0
  -31.1265  -16.8921   20.9918 C   0  0  0  0  0  0  0  0  0  0  0  0
  -30.1257  -16.2467   18.8897 C   0  0  0  0  0  0  0  0  0  0  0  0
  -27.6086  -27.5163   17.9839 C   0  0  0  0  0  0  0  0  0  0  0  0
  -30.9569  -12.7088   18.8472 C   0  0  0  0  0  0  0  0  0  0  0  0
  -30.1321  -11.6188   18.5692 C   0  0  0  0  0  0  0  0  0  0  0  0
  -21.4012  -17.7844   16.3632 C   0  0  0  0  0  0  0  0  0  0  0  0
  -25.7992  -26.6237   19.3062 C   0  0  0  0  0  0  0  0  0  0  0  0
  -28.6189  -12.3178   20.3181 C   0  0  0  0  0  0  0  0  0  0  0  0
  -29.8067  -18.4844   19.7429 C   0  0  0  0  0  0  0  0  0  0  0  0
  -29.8303  -20.9195   18.9832 C   0  0  0  0  0  0  0  0  0  0  0  0
  -30.2534  -31.2523   25.7751 C   0  0  0  0  0  0  0  0  0  0  0  0
  -26.7061  -28.8055   19.8327 C   0  0  0  0  0  0  0  0  0  0  0  0
  -30.0261  -30.3776   24.6954 C   0  0  0  0  0  0  0  0  0  0  0  0
  -25.7857  -27.7817   20.0987 C   0  0  0  0  0  0  0  0  0  0  0  0
  -22.1841  -20.2958   15.4346 C   0  0  0  0  0  0  0  0  0  0  0  0
  -21.8141  -20.1299   16.7692 C   0  0  0  0  0  0  0  0  0  0  0  0
  -30.8992  -15.9311   20.0067 C   0  0  0  0  0  0  0  0  0  0  0  0
  -26.7070  -26.4915   18.2557 C   0  0  0  0  0  0  0  0  0  0  0  0
  -30.6127  -13.6032   19.8607 C   0  0  0  0  0  0  0  0  0  0  0  0
  -28.9631  -11.4233   19.3046 C   0  0  0  0  0  0  0  0  0  0  0  0
  -29.4438  -13.4078   20.5961 C   0  0  0  0  0  0  0  0  0  0  0  0
  -21.4227  -18.8742   17.2335 C   0  0  0  0  0  0  0  0  0  0  0  0
  -29.2417  -19.8028   19.6064 C   0  0  0  0  0  0  0  0  0  0  0  0
  -28.8984  -21.9193   19.1190 C   0  0  0  0  0  0  0  0  0  0  0  0
  -25.2185  -23.7840   16.5422 C   0  0  0  0  0  0  0  0  0  0  0  0
  -25.5644  -25.0436   16.8174 C   0  0  0  0  0  0  0  0  0  1  0  0
  -31.1053  -21.0421   18.3390 C   0  0  0  0  0  0  0  0  0  0  0  0
  -23.9600  -23.5059   15.8009 C   0  0  0  0  0  0  0  0  0  0  0  0
  -26.9926  -29.1500   22.9796 C   0  0  0  0  0  0  0  0  0  0  0  0
  -23.7751  -29.5374   22.8380 C   0  0  0  0  0  0  0  0  0  0  0  0
  -20.8588  -28.9625   21.1613 C   0  0  0  0  0  0  0  0  0  0  0  0
  -22.9537  -21.8826   19.8341 C   0  0  0  0  0  0  0  0  0  0  0  0
  -29.3443  -31.2803   26.9782 C   0  0  0  0  0  0  0  0  0  0  0  0
  -26.6983  -30.0681   20.6501 C   0  0  0  0  0  0  0  0  0  0  0  0
  -24.7853  -27.8862   21.2198 C   0  0  0  0  0  0  0  0  0  0  0  0
  -27.9823  -30.6381   26.7276 C   0  0  0  0  0  0  0  0  0  0  0  0
  -25.3604  -23.3754   21.9919 C   0  0  0  0  0  0  0  0  0  0  0  0
  -28.1465  -29.2981   26.0174 C   0  0  0  0  0  0  0  0  0  0  0  0
  -26.6812  -22.7298   21.5690 C   0  0  0  0  0  0  0  0  0  0  0  0
  -24.1990  -22.3868   21.9153 C   0  0  0  0  0  0  0  0  0  0  0  0
  -25.3638  -21.0688   20.1890 C   0  0  0  0  0  0  0  0  0  0  0  0
  -28.8102  -29.4779   24.6468 C   0  0  1  0  0  0  0  0  0  0  0  0
  -26.0825  -29.8807   22.0333 C   0  0  1  0  0  0  0  0  0  0  0  0
  -26.5549  -22.0422   20.1962 C   0  0  2  0  0  0  0  0  0  0  0  0
  -18.3870  -29.3689   21.3116 C   0  0  0  0  0  0  0  0  0  0  0  0
  -23.5433  -27.3360   24.9380 C   0  0  0  0  0  0  0  0  0  0  0  0
  -21.1178  -27.1295   24.3529 C   0  0  0  0  0  0  0  0  0  0  0  0
  -21.9972  -29.2716   25.2806 C   0  0  0  0  0  0  0  0  0  0  0  0
  -20.8461  -30.5282   18.6498 C   0  0  0  0  0  0  0  0  0  0  0  0
  -22.6097  -21.6357   14.9075 C   0  0  0  0  0  0  0  0  0  0  0  0
  -21.8428  -21.3100   17.6900 C   0  0  0  0  0  0  0  0  0  0  0  0
  -22.5829  -28.6141   22.9107 C   0  0  1  0  0  0  0  0  0  0  0  0
  -19.7155  -29.8866   20.7826 C   0  0  2  0  0  0  0  0  0  0  0  0
  -22.3303  -28.0847   24.3506 C   0  0  0  0  0  0  0  0  0  0  0  0
  -28.0298  -20.0678   20.1015 N   0  0  0  0  0  0  0  0  0  0  0  0
  -27.8493  -21.3625   19.7895 N   0  0  0  0  0  0  0  0  0  0  0  0
  -24.8213  -29.1376   21.9945 N   0  0  0  0  0  0  0  0  0  0  0  0
  -24.1338  -21.7710   20.5877 N   0  0  0  0  0  0  0  0  0  0  0  0
  -28.8822  -23.2117   18.7291 N   0  0  0  0  0  0  0  0  0  0  0  0
  -31.9392  -19.9168   18.2883 N   0  0  0  0  0  0  0  0  0  0  0  0
  -23.7642  -22.1494   15.6062 N   0  0  0  0  0  0  0  0  0  0  0  0
  -27.8517  -29.9732   23.6822 N   0  0  0  0  0  0  0  0  0  0  0  0
  -21.4607  -29.3508   22.3395 N   0  0  0  0  0  0  0  0  0  0  0  0
  -22.9785  -21.2759   18.5843 N   0  0  0  0  0  0  0  0  0  0  0  0
  -19.6163  -30.0076   19.3006 N   0  3  0  0  0  0  0  0  0  0  0  0
  -31.5005  -22.1221   17.8381 O   0  0  0  0  0  0  0  0  0  0  0  0
  -23.2070  -24.3960   15.4187 O   0  0  0  0  0  0  0  0  0  0  0  0
  -26.9197  -27.9299   23.0670 O   0  0  0  0  0  0  0  0  0  0  0  0
  -23.7749  -30.5785   23.4995 O   0  0  0  0  0  0  0  0  0  0  0  0
  -21.1829  -27.9909   20.4819 O   0  0  0  0  0  0  0  0  0  0  0  0
  -21.9541  -22.4834   20.2424 O   0  0  0  0  0  0  0  0  0  0  0  0
  -31.4323  -14.6853   20.1350 O   0  0  0  0  0  0  0  0  0  0  0  0
  -26.7077  -25.3636   17.4943 O   0  0  0  0  0  0  0  0  0  1  0  0
  -28.1703  -10.3775   19.0365 F   0  0  0  0  0  0  0  0  0  0  0  0
  -29.1073  -14.2644   21.5702 F   0  0  0  0  0  0  0  0  0  0  0  0
  -20.9575  -18.6266   18.8776 Cl  0  0  0  0  0  0  0  0  0  0  0  0
  1  2  1  0  0  0  0
  1  6  2  0  0  0  0
  2  7  2  0  0  0  0
  3  9  2  0  0  0  0
  3 15  1  0  0  0  0
  4 10  2  0  0  0  0
  4 18  1  0  0  0  0
  5 11  1  0  0  0  0
  5 18  2  0  0  0  0
  6 20  1  0  0  0  0
  7 22  1  0  0  0  0
  8 12  2  0  0  0  0
  8 21  1  0  0  0  0
  9 24  1  0  0  0  0
 10 26  1  0  0  0  0
 11 26  2  0  0  0  0
 12 27  1  0  0  0  0
 13 14  2  0  0  0  0
 13 28  1  0  0  0  0
 14 29  1  0  0  0  0
 15 31  2  0  0  0  0
 16 23  1  0  0  0  0
 16 27  2  0  0  0  0
 17 29  2  0  0  0  0
 17 30  1  0  0  0  0
 18 32  1  0  0  0  0
 19 32  1  0  0  0  0
 19 33  2  0  0  0  0
 19 36  1  0  0  0  0
 20 22  2  0  0  0  0
 20 42  1  0  0  0  0
 21 23  2  0  0  0  0
 21 43  1  0  0  0  0
 22 51  1  0  0  0  0
 23 44  1  0  0  0  0
 24 25  2  0  0  0  0
 24 59  1  0  0  0  0
 25 31  1  0  0  0  0
 25 60  1  0  0  0  0
 26 81  1  0  0  0  0
 27 82  1  0  0  0  0
 28 30  2  0  0  0  0
 28 81  1  0  0  0  0
 29 83  1  0  0  0  0
 30 84  1  0  0  0  0
 31 85  1  0  0  0  0
 32 64  2  0  0  0  0
 33 65  1  0  0  0  0
 33 68  1  0  0  0  0
 34 35  2  0  0  0  0
 34 37  1  0  0  0  0
 35 82  1  0  0  0  0
 36 69  1  0  0  0  0
 36 75  2  0  0  0  0
 37 70  1  0  0  0  0
 37 76  2  0  0  0  0
 38 52  1  0  0  0  0
 38 71  1  0  0  0  0
 38 77  2  0  0  0  0
 39 61  1  0  0  0  0
 39 66  1  0  0  0  0
 39 78  2  0  0  0  0
 40 62  1  0  0  0  0
 40 72  1  0  0  0  0
 40 79  2  0  0  0  0
 41 67  1  0  0  0  0
 41 73  1  0  0  0  0
 41 80  2  0  0  0  0
 42 45  1  0  0  0  0
 43 52  1  0  0  0  0
 44 66  1  0  0  0  0
 45 47  1  0  0  0  0
 46 48  1  0  0  0  0
 46 49  1  0  0  0  0
 47 51  1  0  0  0  0
 48 53  1  0  0  0  0
 49 67  1  0  0  0  0
 50 53  1  0  0  0  0
 50 67  1  0  0  0  0
 51 71  1  0  0  0  0
 52 66  1  0  0  0  0
 53 65  1  0  0  0  0
 54 62  1  0  0  0  0
 55 63  1  0  0  0  0
 56 63  1  0  0  0  0
 57 63  1  0  0  0  0
 58 74  1  0  0  0  0
 59 70  1  0  0  0  0
 60 73  1  0  0  0  0
 61 63  1  0  0  0  0
 61 72  1  0  0  0  0
 62 74  1  0  0  0  0
 64 65  1  0  0  0  0
M  CHG  1  74   1
M  ISO  4  35 101  41 100  73 100  82 101
M  END
> <Batch ID>
0045

> <Smiles>
CNC(C)C(=O)NC(C(=O)N1Cc2cc([101O:1][101CH:1]=CC(=O)NCc3cccc(Cl)c3C[100NH:0][100C:0](=O)N3CCCC(n4nc(-c5ccc(Oc6ccc(F)cc6F)cc5)c(C(N)=O)c4N)C3)ccc2CC1C(=O)NC1CCCc2ccccc21)C(C)(C)C

> <Shape>
0.198

> <Color>
0.079

> <Negative vol penalty>
0.000

$$$$

  -OEChem-04042322213D

 89 98  0     1  0  0  0  0  0999 V2000
  -27.3599  -34.0156   25.9805 C   0  0  0  0  0  0  0  0  0  0  0  0
  -27.6654  -32.8236   25.3314 C   0  0  0  0  0  0  0  0  0  0  0  0
  -24.0180   -8.8484   22.0503 C   0  0  0  0  0  0  0  0  0  0  0  0
  -21.8682   -9.3639   21.0757 C   0  0  0  0  0  0  0  0  0  0  0  0
  -26.0426  -34.2923   26.3441 C   0  0  0  0  0  0  0  0  0  0  0  0
  -26.6538  -31.9071   25.0465 C   0  0  0  0  0  0  0  0  0  0  0  0
  -26.9762  -30.0577   20.3433 C   0  0  0  0  0  0  0  0  0  0  0  0
  -25.8608  -21.4929   19.5165 C   0  0  0  0  0  0  0  0  0  0  0  0
  -24.9184  -20.5747   19.9795 C   0  0  0  0  0  0  0  0  0  0  0  0
  -24.0756   -7.6729   21.3017 C   0  0  0  0  0  0  0  0  0  0  0  0
  -21.9258   -8.1884   20.3270 C   0  0  0  0  0  0  0  0  0  0  0  0
  -27.9292  -29.0666   20.1127 C   0  0  0  0  0  0  0  0  0  0  0  0
  -24.6227   -4.3560   19.9152 C   0  0  0  0  0  0  0  0  0  0  0  0
  -25.0304   -3.1910   20.5647 C   0  0  0  0  0  0  0  0  0  0  0  0
  -26.2065  -27.3843   20.2595 C   0  0  0  0  0  0  0  0  0  0  0  0
  -26.5543  -18.8058   19.8014 C   0  0  0  0  0  0  0  0  0  0  0  0
  -23.1719   -3.3936   22.0950 C   0  0  0  0  0  0  0  0  0  0  0  0
  -22.9143   -9.6939   21.9374 C   0  0  0  0  0  0  0  0  0  0  0  0
  -22.8757  -11.0243   24.1137 C   0  0  0  0  0  0  0  0  0  0  0  0
  -25.0129  -33.3830   26.0548 C   0  0  0  0  0  0  0  0  0  0  0  0
  -25.6306  -29.7181   20.5448 C   0  0  0  0  0  0  0  0  0  0  0  0
  -25.3218  -32.1713   25.4078 C   0  0  0  0  0  0  0  0  0  0  0  0
  -25.2379  -28.3732   20.4898 C   0  0  0  0  0  0  0  0  0  0  0  0
  -27.1500  -21.0675   19.1959 C   0  0  0  0  0  0  0  0  0  0  0  0
  -27.4968  -19.7240   19.3384 C   0  0  0  0  0  0  0  0  0  0  0  0
  -25.2651  -19.2311   20.1220 C   0  0  0  0  0  0  0  0  0  0  0  0
  -23.0295   -7.3429   20.4400 C   0  0  0  0  0  0  0  0  0  0  0  0
  -27.5449  -27.7294   20.0737 C   0  0  0  0  0  0  0  0  0  0  0  0
  -23.4895   -5.0400   20.3556 C   0  0  0  0  0  0  0  0  0  0  0  0
  -24.3051   -2.7098   21.6546 C   0  0  0  0  0  0  0  0  0  0  0  0
  -22.7641   -4.5587   21.4455 C   0  0  0  0  0  0  0  0  0  0  0  0
  -22.8539  -10.9080   22.7109 C   0  0  0  0  0  0  0  0  0  0  0  0
  -22.7957  -12.3753   24.3475 C   0  0  0  0  0  0  0  0  0  0  0  0
  -28.0619  -24.4549   19.3290 C   0  0  0  0  0  0  0  0  0  0  0  0
  -22.9608  -10.0023   25.1157 C   0  0  0  0  0  0  0  0  0  0  0  0
  -23.5651  -30.0593   22.9366 C   0  0  0  0  0  0  0  0  0  0  0  0
  -21.4578  -28.8844   20.7684 C   0  0  0  0  0  0  0  0  0  0  0  0
  -20.9322  -27.0519   17.9378 C   0  0  0  0  0  0  0  0  0  0  0  0
  -24.4800  -16.9262   20.7966 C   0  0  0  0  0  0  0  0  0  0  0  0
  -23.6114  -33.7047   26.5096 C   0  0  0  0  0  0  0  0  0  0  0  0
  -24.6104  -30.8011   20.7657 C   0  0  0  0  0  0  0  0  0  0  0  0
  -23.8027  -27.9577   20.6798 C   0  0  0  0  0  0  0  0  0  0  0  0
  -22.5412  -32.8489   25.8369 C   0  0  0  0  0  0  0  0  0  0  0  0
  -29.1647  -23.7910   21.9616 C   0  0  0  0  0  0  0  0  0  0  0  0
  -20.8836  -15.9687   21.7310 C   0  0  0  0  0  0  0  0  0  0  0  0
  -22.9496  -31.3792   25.8454 C   0  0  0  0  0  0  0  0  0  0  0  0
  -29.3704  -25.1770   21.3870 C   0  0  0  0  0  0  0  0  0  0  0  0
  -21.1706  -14.9338   22.8164 C   0  0  0  0  0  0  0  0  0  0  0  0
  -29.1710  -22.7674   20.8404 C   0  0  0  0  0  0  0  0  0  0  0  0
  -22.0410  -16.9406   21.5392 C   0  0  0  0  0  0  0  0  0  0  0  0
  -23.3689  -14.8211   21.5182 C   0  0  0  0  0  0  0  0  0  0  0  0
  -24.2484  -31.1630   25.0593 C   0  0  1  0  0  0  0  0  0  0  0  0
  -28.2342  -25.4900   20.4334 C   0  0  1  0  0  0  0  0  0  1  0  0
  -23.3521  -30.3021   21.4692 C   0  0  1  0  0  0  0  0  0  0  0  0
  -22.6333  -14.4470   22.8144 C   0  0  2  0  0  0  0  0  0  0  0  0
  -19.0986  -26.2371   16.4307 C   0  0  0  0  0  0  0  0  0  0  0  0
  -20.7017  -26.7707   22.8351 C   0  0  0  0  0  0  0  0  0  0  0  0
  -19.6188  -25.4608   20.9967 C   0  0  0  0  0  0  0  0  0  0  0  0
  -18.7693  -27.7342   21.5733 C   0  0  0  0  0  0  0  0  0  0  0  0
  -22.0428  -28.5029   15.6096 C   0  0  0  0  0  0  0  0  0  0  0  0
  -28.1468  -22.0742   18.6988 C   0  0  0  0  0  0  0  0  0  0  0  0
  -20.9844  -27.5056   20.3762 C   0  0  1  0  0  0  0  0  0  0  0  0
  -20.1159  -27.3373   16.6901 C   0  0  2  0  0  0  0  0  0  0  0  0
  -28.8715  -19.2461   19.0033 C   0  0  0  0  0  0  0  0  0  0  0  0
  -20.0460  -26.8752   21.4436 C   0  0  0  0  0  0  0  0  0  0  0  0
  -22.7667  -12.0909   22.0968 N   0  0  0  0  0  0  0  0  0  0  0  0
  -22.7329  -12.9633   23.1185 N   0  0  0  0  0  0  0  0  0  0  0  0
  -28.3771  -23.1376   19.6675 N   0  0  0  0  0  0  0  0  0  0  0  0
  -22.8435  -29.0529   20.8991 N   0  0  0  0  0  0  0  0  0  0  0  0
  -23.3225  -16.2684   21.2802 N   0  0  0  0  0  0  0  0  0  0  0  0
  -22.7735  -13.1059   25.4826 N   0  0  0  0  0  0  0  0  0  0  0  0
  -21.7711   -9.4488   25.6082 N   0  0  0  0  0  0  0  0  0  0  0  0
  -24.3084  -18.2981   20.5942 N   0  0  0  0  0  0  0  0  0  0  0  0
  -23.9856  -31.1743   23.6362 N   0  0  0  0  0  0  0  0  0  0  0  0
  -20.3804  -27.6418   19.0552 N   0  0  0  0  0  0  0  0  0  0  0  0
  -21.0075  -27.4430   15.5007 N   0  3  0  0  0  0  0  0  0  0  0  0
  -27.6039  -24.7940   18.2348 O   0  0  0  0  0  0  0  0  0  0  0  0
  -24.0587   -9.6038   25.5730 O   0  0  0  0  0  0  0  0  0  0  0  0
  -23.3614  -28.9433   23.4002 O   0  0  0  0  0  0  0  0  0  0  0  0
  -20.6290  -29.7807   20.9452 O   0  0  0  0  0  0  0  0  0  0  0  0
  -21.9549  -26.3704   17.9232 O   0  0  0  0  0  0  0  0  0  0  0  0
  -25.5336  -16.3186   20.5945 O   0  0  0  0  0  0  0  0  0  0  0  0
  -23.0855   -6.1961   19.7091 O   0  0  0  0  0  0  0  0  0  0  0  0
  -28.4733  -26.7600   19.8495 O   0  0  0  0  0  0  0  0  0  1  0  0
  -24.6959   -1.5901   22.2773 F   0  0  0  0  0  0  0  0  0  0  0  0
  -21.6740   -5.2108   21.8724 F   0  0  0  0  0  0  0  0  0  0  0  0
  -29.0464  -17.9066   19.2001 F   0  0  0  0  0  0  0  0  0  0  0  0
  -29.2223  -19.4654   17.7024 F   0  0  0  0  0  0  0  0  0  0  0  0
  -29.8344  -19.8567   19.7521 F   0  0  0  0  0  0  0  0  0  0  0  0
  1  2  1  0  0  0  0
  1  5  2  0  0  0  0
  2  6  2  0  0  0  0
  3 10  2  0  0  0  0
  3 18  1  0  0  0  0
  4 11  1  0  0  0  0
  4 18  2  0  0  0  0
  5 20  1  0  0  0  0
  6 22  1  0  0  0  0
  7 12  2  0  0  0  0
  7 21  1  0  0  0  0
  8  9  2  0  0  0  0
  8 24  1  0  0  0  0
  9 26  1  0  0  0  0
 10 27  1  0  0  0  0
 11 27  2  0  0  0  0
 12 28  1  0  0  0  0
 13 14  2  0  0  0  0
 13 29  1  0  0  0  0
 14 30  1  0  0  0  0
 15 23  1  0  0  0  0
 15 28  2  0  0  0  0
 16 25  1  0  0  0  0
 16 26  2  0  0  0  0
 17 30  2  0  0  0  0
 17 31  1  0  0  0  0
 18 32  1  0  0  0  0
 19 32  1  0  0  0  0
 19 33  2  0  0  0  0
 19 35  1  0  0  0  0
 20 22  2  0  0  0  0
 20 40  1  0  0  0  0
 21 23  2  0  0  0  0
 21 41  1  0  0  0  0
 22 52  1  0  0  0  0
 23 42  1  0  0  0  0
 24 25  2  0  0  0  0
 24 61  1  0  0  0  0
 25 64  1  0  0  0  0
 26 73  1  0  0  0  0
 27 83  1  0  0  0  0
 28 84  1  0  0  0  0
 29 31  2  0  0  0  0
 29 83  1  0  0  0  0
 30 85  1  0  0  0  0
 31 86  1  0  0  0  0
 32 66  2  0  0  0  0
 33 67  1  0  0  0  0
 33 71  1  0  0  0  0
 34 53  1  0  0  0  0
 34 68  1  0  0  0  0
 34 77  2  0  0  0  0
 35 72  1  0  0  0  0
 35 78  2  0  0  0  0
 36 54  1  0  0  0  0
 36 74  1  0  0  0  0
 36 79  2  0  0  0  0
 37 62  1  0  0  0  0
 37 69  1  0  0  0  0
 37 80  2  0  0  0  0
 38 63  1  0  0  0  0
 38 75  1  0  0  0  0
 38 81  2  0  0  0  0
 39 70  1  0  0  0  0
 39 73  1  0  0  0  0
 39 82  2  0  0  0  0
 40 43  1  0  0  0  0
 41 54  1  0  0  0  0
 42 69  1  0  0  0  0
 43 46  1  0  0  0  0
 44 47  1  0  0  0  0
 44 49  1  0  0  0  0
 45 48  1  0  0  0  0
 45 50  1  0  0  0  0
 46 52  1  0  0  0  0
 47 53  1  0  0  0  0
 48 55  1  0  0  0  0
 49 68  1  0  0  0  0
 50 70  1  0  0  0  0
 51 55  1  0  0  0  0
 51 70  1  0  0  0  0
 52 74  1  0  0  0  0
 53 84  1  0  0  0  0
 54 69  1  0  0  0  0
 55 67  1  0  0  0  0
 56 63  1  0  0  0  0
 57 65  1  0  0  0  0
 58 65  1  0  0  0  0
 59 65  1  0  0  0  0
 60 76  1  0  0  0  0
 61 68  1  0  0  0  0
 62 65  1  0  0  0  0
 62 75  1  0  0  0  0
 63 76  1  0  0  0  0
 64 87  1  0  0  0  0
 64 88  1  0  0  0  0
 64 89  1  0  0  0  0
 66 67  1  0  0  0  0
M  CHG  1  76   1
M  ISO  4  39 100  53 101  73 100  84 101
M  END
> <Batch ID>
0045

> <Smiles>
CNC(C)C(=O)NC(C(=O)N1Cc2cc([101O:1][101CH:1]3CCCN(Cc4ccc([100NH:0][100C:0](=O)N5CCCC(n6nc(-c7ccc(Oc8ccc(F)cc8F)cc7)c(C(N)=O)c6N)C5)cc4C(F)(F)F)C3=O)ccc2CC1C(=O)NC1CCCc2ccccc21)C(C)(C)C

> <Shape>
0.259

> <Color>
0.073

> <Negative vol penalty>
0.000

$$$$

  -OEChem-04042322213D

 86 94  0     1  0  0  0  0  0999 V2000
  -32.8059  -30.1142   12.3141 C   0  0  0  0  0  0  0  0  0  0  0  0
  -32.9124  -29.3754   13.4881 C   0  0  0  0  0  0  0  0  0  0  0  0
  -23.0171   -9.8851   19.9733 C   0  0  0  0  0  0  0  0  0  0  0  0
  -23.7442   -9.9330   22.2767 C   0  0  0  0  0  0  0  0  0  0  0  0
  -31.7159  -30.9621   12.1219 C   0  0  0  0  0  0  0  0  0  0  0  0
  -31.9296  -29.4850   14.4712 C   0  0  0  0  0  0  0  0  0  0  0  0
  -30.5304  -24.9867   16.3294 C   0  0  0  0  0  0  0  0  0  0  0  0
  -32.3557  -18.5430   21.9940 C   0  0  0  0  0  0  0  0  0  0  0  0
  -31.8548  -17.3144   21.5638 C   0  0  0  0  0  0  0  0  0  0  0  0
  -22.2586   -8.7444   20.2364 C   0  0  0  0  0  0  0  0  0  0  0  0
  -22.9857   -8.7923   22.5399 C   0  0  0  0  0  0  0  0  0  0  0  0
  -31.3817  -24.3885   17.2574 C   0  0  0  0  0  0  0  0  0  0  0  0
  -23.2525   -5.4568   22.0561 C   0  0  0  0  0  0  0  0  0  0  0  0
  -23.8478   -4.4411   22.8040 C   0  0  0  0  0  0  0  0  0  0  0  0
  -29.9590  -25.1559   19.0480 C   0  0  0  0  0  0  0  0  0  0  0  0
  -29.7762  -17.7596   22.7121 C   0  0  0  0  0  0  0  0  0  0  0  0
  -22.1239   -4.6663   24.4818 C   0  0  0  0  0  0  0  0  0  0  0  0
  -23.7599  -10.4794   20.9934 C   0  0  0  0  0  0  0  0  0  0  0  0
  -24.1278  -12.9981   20.8258 C   0  0  0  0  0  0  0  0  0  0  0  0
  -30.7142  -31.0748   13.0989 C   0  0  0  0  0  0  0  0  0  0  0  0
  -29.3910  -25.6845   16.7551 C   0  0  0  0  0  0  0  0  0  0  0  0
  -30.8258  -30.3362   14.2924 C   0  0  0  0  0  0  0  0  0  0  0  0
  -29.0935  -25.7599   18.1233 C   0  0  0  0  0  0  0  0  0  0  0  0
  -31.5669  -19.3800   22.7833 C   0  0  0  0  0  0  0  0  0  0  0  0
  -30.2772  -18.9883   23.1423 C   0  0  0  0  0  0  0  0  0  0  0  0
  -30.5651  -16.9227   21.9228 C   0  0  0  0  0  0  0  0  0  0  0  0
  -22.2429   -8.1981   21.5197 C   0  0  0  0  0  0  0  0  0  0  0  0
  -31.0976  -24.4755   18.6171 C   0  0  0  0  0  0  0  0  0  0  0  0
  -22.0930   -6.0774   22.5210 C   0  0  0  0  0  0  0  0  0  0  0  0
  -23.2835   -4.0458   24.0169 C   0  0  0  0  0  0  0  0  0  0  0  0
  -21.5287   -5.6821   23.7338 C   0  0  0  0  0  0  0  0  0  0  0  0
  -24.5441  -11.6573   20.7221 C   0  0  0  0  0  0  0  0  0  0  0  0
  -25.2322  -13.7296   20.4629 C   0  0  0  0  0  0  0  0  0  0  0  0
  -22.8565  -13.5345   21.2155 C   0  0  0  0  0  0  0  0  0  0  0  0
  -28.3900  -28.6933   16.5330 C   0  0  0  0  0  0  0  0  0  0  0  0
  -25.6888  -27.4823   17.8594 C   0  0  0  0  0  0  0  0  0  0  0  0
  -32.1179  -22.2595   21.2998 C   0  0  0  0  0  0  0  0  0  0  0  0
  -24.2299  -25.0387   19.7429 C   0  0  0  0  0  0  0  0  0  0  0  0
  -30.7052  -14.7275   20.6949 C   0  0  0  0  0  0  0  0  0  0  0  0
  -29.5790  -32.0402   12.8667 C   0  0  0  0  0  0  0  0  0  0  0  0
  -28.4684  -26.3015   15.7398 C   0  0  0  0  0  0  0  0  0  0  0  0
  -27.8720  -26.4802   18.6307 C   0  0  0  0  0  0  0  0  0  0  0  0
  -28.3887  -31.8156   13.7958 C   0  0  0  0  0  0  0  0  0  0  0  0
  -29.6014  -12.2751   18.3614 C   0  0  0  0  0  0  0  0  0  0  0  0
  -28.8612  -31.6388   15.2353 C   0  0  0  0  0  0  0  0  0  0  0  0
  -28.1531  -12.0061   18.7761 C   0  0  0  0  0  0  0  0  0  0  0  0
  -30.5015  -12.5205   19.5712 C   0  0  0  0  0  0  0  0  0  0  0  0
  -28.5821  -13.2915   20.9093 C   0  0  0  0  0  0  0  0  0  0  0  0
  -29.7673  -30.4093   15.3715 C   0  0  1  0  0  0  0  0  0  0  0  0
  -27.6129  -27.4259   16.3153 C   0  0  1  0  0  0  0  0  0  0  0  0
  -27.6245  -13.1027   19.7214 C   0  0  2  0  0  0  0  0  0  0  0  0
  -22.0127  -24.3391   20.6872 C   0  0  0  0  0  0  0  0  0  0  0  0
  -25.9234  -29.6409   20.0031 C   0  0  0  0  0  0  0  0  0  0  0  0
  -24.3009  -28.3372   21.3946 C   0  0  0  0  0  0  0  0  0  0  0  0
  -23.5971  -29.2388   19.1778 C   0  0  0  0  0  0  0  0  0  0  0  0
  -24.2628  -22.4900   18.2390 C   0  0  0  0  0  0  0  0  0  0  0  0
  -32.1281  -20.6973   23.2349 C   0  0  0  0  0  0  0  0  0  0  0  0
  -31.3382  -23.4299   20.7396 C   0  0  0  0  0  0  0  0  0  1  0  0
  -25.1892  -27.2770   19.2691 C   0  0  1  0  0  0  0  0  0  0  0  0
  -22.9794  -24.2072   19.5207 C   0  0  2  0  0  0  0  0  0  0  0  0
  -29.4138  -19.8689   23.9848 C   0  0  0  0  0  0  0  0  0  0  0  0
  -24.7768  -28.6115   19.9520 C   0  0  0  0  0  0  0  0  0  0  0  0
  -25.8138  -11.5409   20.3243 N   0  0  0  0  0  0  0  0  0  0  0  0
  -26.2048  -12.8180   20.1747 N   0  0  0  0  0  0  0  0  0  0  0  0
  -27.0041  -27.0724   17.5993 N   0  0  0  0  0  0  0  0  0  0  0  0
  -29.9400  -13.5746   20.4187 N   0  0  0  0  0  0  0  0  0  0  0  0
  -25.4565  -15.0572   20.3652 N   0  0  0  0  0  0  0  0  0  0  0  0
  -21.8311  -12.6420   21.5570 N   0  0  0  0  0  0  0  0  0  0  0  0
  -30.0551  -15.6755   21.4844 N   0  0  0  0  0  0  0  0  0  0  0  0
  -28.9761  -29.1976   15.3878 N   0  0  0  0  0  0  0  0  0  0  0  0
  -31.5740  -21.8046   22.4907 N   0  0  0  0  0  0  0  0  0  0  0  0
  -24.1153  -26.2933   19.1824 N   0  0  0  0  0  0  0  0  0  0  0  0
  -23.3350  -22.7683   19.3653 N   0  3  0  0  0  0  0  0  0  0  0  0
  -22.6313  -14.7682   21.2438 O   0  0  0  0  0  0  0  0  0  0  0  0
  -28.4520  -29.1786   17.6566 O   0  0  0  0  0  0  0  0  0  0  0  0
  -24.9372  -27.9813   17.0182 O   0  0  0  0  0  0  0  0  0  0  0  0
  -33.1086  -21.7938   20.7433 O   0  0  0  0  0  0  0  0  0  0  0  0
  -25.2089  -24.6187   20.3558 O   0  0  0  0  0  0  0  0  0  0  0  0
  -31.8424  -14.8758   20.2402 O   0  0  0  0  0  0  0  0  0  0  0  0
  -21.5027   -7.0852   21.7768 O   0  0  0  0  0  0  0  0  0  0  0  0
  -31.9272  -23.8931   19.5251 O   0  0  0  0  0  0  0  0  0  1  0  0
  -23.8543   -3.0693   24.7343 F   0  0  0  0  0  0  0  0  0  0  0  0
  -20.4141   -6.2738   24.1850 F   0  0  0  0  0  0  0  0  0  0  0  0
  -28.0785  -19.7204   23.7279 F   0  0  0  0  0  0  0  0  0  0  0  0
  -29.6575  -21.2017   23.7976 F   0  0  0  0  0  0  0  0  0  0  0  0
  -29.6804  -19.5032   25.7133 Cl  0  0  0  0  0  0  0  0  0  0  0  0
  1  2  1  0  0  0  0
  1  5  2  0  0  0  0
  2  6  2  0  0  0  0
  3 10  2  0  0  0  0
  3 18  1  0  0  0  0
  4 11  1  0  0  0  0
  4 18  2  0  0  0  0
  5 20  1  0  0  0  0
  6 22  1  0  0  0  0
  7 12  2  0  0  0  0
  7 21  1  0  0  0  0
  8  9  2  0  0  0  0
  8 24  1  0  0  0  0
  9 26  1  0  0  0  0
 10 27  1  0  0  0  0
 11 27  2  0  0  0  0
 12 28  1  0  0  0  0
 13 14  2  0  0  0  0
 13 29  1  0  0  0  0
 14 30  1  0  0  0  0
 15 23  1  0  0  0  0
 15 28  2  0  0  0  0
 16 25  1  0  0  0  0
 16 26  2  0  0  0  0
 17 30  2  0  0  0  0
 17 31  1  0  0  0  0
 18 32  1  0  0  0  0
 19 32  1  0  0  0  0
 19 33  2  0  0  0  0
 19 34  1  0  0  0  0
 20 22  2  0  0  0  0
 20 40  1  0  0  0  0
 21 23  2  0  0  0  0
 21 41  1  0  0  0  0
 22 49  1  0  0  0  0
 23 42  1  0  0  0  0
 24 25  2  0  0  0  0
 24 57  1  0  0  0  0
 25 61  1  0  0  0  0
 26 69  1  0  0  0  0
 27 80  1  0  0  0  0
 28 81  1  0  0  0  0
 29 31  2  0  0  0  0
 29 80  1  0  0  0  0
 30 82  1  0  0  0  0
 31 83  1  0  0  0  0
 32 63  2  0  0  0  0
 33 64  1  0  0  0  0
 33 67  1  0  0  0  0
 34 68  1  0  0  0  0
 34 74  2  0  0  0  0
 35 50  1  0  0  0  0
 35 70  1  0  0  0  0
 35 75  2  0  0  0  0
 36 59  1  0  0  0  0
 36 65  1  0  0  0  0
 36 76  2  0  0  0  0
 37 58  1  0  0  0  0
 37 71  1  0  0  0  0
 37 77  2  0  0  0  0
 38 60  1  0  0  0  0
 38 72  1  0  0  0  0
 38 78  2  0  0  0  0
 39 66  1  0  0  0  0
 39 69  1  0  0  0  0
 39 79  2  0  0  0  0
 40 43  1  0  0  0  0
 41 50  1  0  0  0  0
 42 65  1  0  0  0  0
 43 45  1  0  0  0  0
 44 46  1  0  0  0  0
 44 47  1  0  0  0  0
 45 49  1  0  0  0  0
 46 51  1  0  0  0  0
 47 66  1  0  0  0  0
 48 51  1  0  0  0  0
 48 66  1  0  0  0  0
 49 70  1  0  0  0  0
 50 65  1  0  0  0  0
 51 64  1  0  0  0  0
 52 60  1  0  0  0  0
 53 62  1  0  0  0  0
 54 62  1  0  0  0  0
 55 62  1  0  0  0  0
 56 73  1  0  0  0  0
 57 71  1  0  0  0  0
 58 81  1  0  0  0  0
 59 62  1  0  0  0  0
 59 72  1  0  0  0  0
 60 73  1  0  0  0  0
 61 84  1  0  0  0  0
 61 85  1  0  0  0  0
 61 86  1  0  0  0  0
 63 64  1  0  0  0  0
M  CHG  1  73   1
M  ISO  4  39 100  58 101  69 100  81 101
M  END
> <Batch ID>
0045

> <Smiles>
CNC(C)C(=O)NC(C(=O)N1Cc2cc([101O:1][101CH2:1]C(=O)NCc3ccc([100NH:0][100C:0](=O)N4CCCC(n5nc(-c6ccc(Oc7ccc(F)cc7F)cc6)c(C(N)=O)c5N)C4)cc3C(F)(F)Cl)ccc2CC1C(=O)NC1CCCc2ccccc21)C(C)(C)C

> <Shape>
0.248

> <Color>
0.198

> <Negative vol penalty>
0.000

$$$$

  -OEChem-04042322213D

 85 93  0     1  0  0  0  0  0999 V2000
  -22.5996  -15.2171   16.5546 C   0  0  0  0  0  0  0  0  0  0  0  0
  -23.4591  -16.0002   17.3184 C   0  0  0  0  0  0  0  0  0  0  0  0
  -22.9998   -9.8955   19.9808 C   0  0  0  0  0  0  0  0  0  0  0  0
  -23.7261   -9.9444   22.2845 C   0  0  0  0  0  0  0  0  0  0  0  0
  -22.3903  -15.5216   15.2102 C   0  0  0  0  0  0  0  0  0  0  0  0
  -24.1108  -17.0878   16.7378 C   0  0  0  0  0  0  0  0  0  0  0  0
  -23.9779  -21.2196   19.6627 C   0  0  0  0  0  0  0  0  0  0  0  0
  -32.6502  -17.4439   23.4557 C   0  0  0  0  0  0  0  0  0  0  0  0
  -32.0615  -16.5468   22.5646 C   0  0  0  0  0  0  0  0  0  0  0  0
  -22.2328   -8.7612   20.2467 C   0  0  0  0  0  0  0  0  0  0  0  0
  -22.9591   -8.8102   22.5504 C   0  0  0  0  0  0  0  0  0  0  0  0
  -24.8668  -21.2690   20.7357 C   0  0  0  0  0  0  0  0  0  0  0  0
  -23.2014   -5.4714   22.0760 C   0  0  0  0  0  0  0  0  0  0  0  0
  -23.7888   -4.4534   22.8271 C   0  0  0  0  0  0  0  0  0  0  0  0
  -26.3364  -22.6813   19.4453 C   0  0  0  0  0  0  0  0  0  0  0  0
  -29.8834  -17.4458   23.0984 C   0  0  0  0  0  0  0  0  0  0  0  0
  -22.0659   -4.6961   24.5034 C   0  0  0  0  0  0  0  0  0  0  0  0
  -23.7465  -10.4871   20.9997 C   0  0  0  0  0  0  0  0  0  0  0  0
  -24.1331  -13.0026   20.8252 C   0  0  0  0  0  0  0  0  0  0  0  0
  -23.0322  -16.6192   14.6154 C   0  0  0  0  0  0  0  0  0  0  0  0
  -24.2673  -21.8929   18.4671 C   0  0  0  0  0  0  0  0  0  0  0  0
  -23.9109  -17.4064   15.3839 C   0  0  0  0  0  0  0  0  0  0  0  0
  -25.4484  -22.6409   18.3596 C   0  0  0  0  0  0  0  0  0  0  0  0
  -31.8556  -18.3420   24.1682 C   0  0  0  0  0  0  0  0  0  0  0  0
  -30.4722  -18.3430   23.9896 C   0  0  0  0  0  0  0  0  0  0  0  0
  -30.6781  -16.5477   22.3859 C   0  0  0  0  0  0  0  0  0  0  0  0
  -22.2124   -8.2186   21.5315 C   0  0  0  0  0  0  0  0  0  0  0  0
  -26.0476  -21.9975   20.6261 C   0  0  0  0  0  0  0  0  0  0  0  0
  -22.0463   -6.1019   22.5386 C   0  0  0  0  0  0  0  0  0  0  0  0
  -23.2210   -4.0657   24.0408 C   0  0  0  0  0  0  0  0  0  0  0  0
  -21.4785   -5.7141   23.7523 C   0  0  0  0  0  0  0  0  0  0  0  0
  -24.5395  -11.6585   20.7255 C   0  0  0  0  0  0  0  0  0  0  0  0
  -25.2430  -13.7249   20.4608 C   0  0  0  0  0  0  0  0  0  0  0  0
  -22.8656  -13.5494   21.2128 C   0  0  0  0  0  0  0  0  0  0  0  0
  -24.7412  -21.0063   15.4516 C   0  0  0  0  0  0  0  0  0  0  0  0
  -24.8058  -24.2072   14.9300 C   0  0  0  0  0  0  0  0  0  0  0  0
  -28.3294  -20.7650   23.1583 C   0  0  0  0  0  0  0  0  0  0  0  0
  -25.3310  -27.3371   16.1848 C   0  0  0  0  0  0  0  0  0  0  0  0
  -30.7231  -14.6829   20.6928 C   0  0  0  0  0  0  0  0  0  0  0  0
  -22.8112  -16.8808   13.1466 C   0  0  0  0  0  0  0  0  0  0  0  0
  -23.2854  -21.8516   17.3284 C   0  0  0  0  0  0  0  0  0  0  0  0
  -25.7960  -23.3980   17.1049 C   0  0  0  0  0  0  0  0  0  0  0  0
  -23.2501  -18.2741   12.7033 C   0  0  0  0  0  0  0  0  0  0  0  0
  -29.6024  -12.2322   18.3657 C   0  0  0  0  0  0  0  0  0  0  0  0
  -24.6307  -18.6022   13.2630 C   0  0  0  0  0  0  0  0  0  0  0  0
  -28.1519  -11.9751   18.7804 C   0  0  0  0  0  0  0  0  0  0  0  0
  -30.5037  -12.4743   19.5752 C   0  0  0  0  0  0  0  0  0  0  0  0
  -28.5894  -13.2633   20.9102 C   0  0  0  0  0  0  0  0  0  0  0  0
  -24.6169  -18.6092   14.7964 C   0  0  1  0  0  0  0  0  0  0  0  0
  -23.9251  -22.1534   15.9767 C   0  0  1  0  0  0  0  0  0  0  0  0
  -27.6310  -13.0782   19.7223 C   0  0  2  0  0  0  0  0  0  0  0  0
  -32.5086  -19.2925   25.1172 C   0  0  0  0  0  0  0  0  0  0  0  0
  -25.3465  -29.7536   15.5083 C   0  0  0  0  0  0  0  0  0  0  0  0
  -27.4990  -23.8023   13.5542 C   0  0  0  0  0  0  0  0  0  0  0  0
  -27.8942  -26.2663   13.7565 C   0  0  0  0  0  0  0  0  0  0  0  0
  -25.9745  -25.4194   12.4074 C   0  0  0  0  0  0  0  0  0  0  0  0
  -23.1685  -28.0049   18.0919 C   0  0  0  0  0  0  0  0  0  0  0  0
  -26.9578  -20.9128   22.5368 C   0  0  0  0  0  0  0  0  0  1  0  0
  -25.8791  -25.2689   14.9294 C   0  0  1  0  0  0  0  0  0  0  0  0
  -24.5170  -28.6142   16.0796 C   0  0  2  0  0  0  0  0  0  0  0  0
  -29.5904  -19.3093   24.7499 C   0  0  2  0  0  0  0  0  0  0  0  0
  -26.8064  -25.1734   13.6850 C   0  0  0  0  0  0  0  0  0  0  0  0
  -25.8085  -11.5316   20.3286 N   0  0  0  0  0  0  0  0  0  0  0  0
  -26.2091  -12.8053   20.1757 N   0  0  0  0  0  0  0  0  0  0  0  0
  -24.8070  -23.3217   16.0170 N   0  0  0  0  0  0  0  0  0  0  0  0
  -29.9496  -13.5350   20.4195 N   0  0  0  0  0  0  0  0  0  0  0  0
  -25.4772  -15.0505   20.3596 N   0  0  0  0  0  0  0  0  0  0  0  0
  -21.8335  -12.6655   21.5562 N   0  0  0  0  0  0  0  0  0  0  0  0
  -30.0797  -15.6379   21.4793 N   0  0  0  0  0  0  0  0  0  0  0  0
  -24.0266  -19.8345   15.2909 N   0  0  0  0  0  0  0  0  0  0  0  0
  -25.1889  -26.5471   15.0637 N   0  0  0  0  0  0  0  0  0  0  0  0
  -28.3881  -19.6786   24.0183 N   0  0  0  0  0  0  0  0  0  0  0  0
  -24.0190  -29.0232   17.4234 N   0  3  0  0  0  0  0  0  0  0  0  0
  -22.6495  -14.7848   21.2375 O   0  0  0  0  0  0  0  0  0  0  0  0
  -25.9308  -21.1724   15.2089 O   0  0  0  0  0  0  0  0  0  0  0  0
  -23.9919  -24.1696   14.0038 O   0  0  0  0  0  0  0  0  0  0  0  0
  -29.2583  -21.5300   22.9132 O   0  0  0  0  0  0  0  0  0  0  0  0
  -26.0264  -27.0691   17.1621 O   0  0  0  0  0  0  0  0  0  0  0  0
  -31.8616  -14.8215   20.2383 O   0  0  0  0  0  0  0  0  0  0  0  0
  -21.4639   -7.1119   21.7914 O   0  0  0  0  0  0  0  0  0  0  0  0
  -26.9173  -22.0469   21.6716 O   0  0  0  0  0  0  0  0  0  1  0  0
  -23.7843   -3.0870   24.7612 F   0  0  0  0  0  0  0  0  0  0  0  0
  -20.3682   -6.3153   24.2013 F   0  0  0  0  0  0  0  0  0  0  0  0
  -30.2369  -20.4563   25.1100 F   0  0  0  0  0  0  0  0  0  0  0  0
  -29.0301  -18.5255   26.2594 Cl  0  0  0  0  0  0  0  0  0  0  0  0
  1  2  1  0  0  0  0
  1  5  2  0  0  0  0
  2  6  2  0  0  0  0
  3 10  2  0  0  0  0
  3 18  1  0  0  0  0
  4 11  1  0  0  0  0
  4 18  2  0  0  0  0
  5 20  1  0  0  0  0
  6 22  1  0  0  0  0
  7 12  2  0  0  0  0
  7 21  1  0  0  0  0
  8  9  2  0  0  0  0
  8 24  1  0  0  0  0
  9 26  1  0  0  0  0
 10 27  1  0  0  0  0
 11 27  2  0  0  0  0
 12 28  1  0  0  0  0
 13 14  2  0  0  0  0
 13 29  1  0  0  0  0
 14 30  1  0  0  0  0
 15 23  1  0  0  0  0
 15 28  2  0  0  0  0
 16 25  1  0  0  0  0
 16 26  2  0  0  0  0
 17 30  2  0  0  0  0
 17 31  1  0  0  0  0
 18 32  1  0  0  0  0
 19 32  1  0  0  0  0
 19 33  2  0  0  0  0
 19 34  1  0  0  0  0
 20 22  2  0  0  0  0
 20 40  1  0  0  0  0
 21 23  2  0  0  0  0
 21 41  1  0  0  0  0
 22 49  1  0  0  0  0
 23 42  1  0  0  0  0
 24 25  2  0  0  0  0
 24 52  1  0  0  0  0
 25 61  1  0  0  0  0
 26 69  1  0  0  0  0
 27 80  1  0  0  0  0
 28 81  1  0  0  0  0
 29 31  2  0  0  0  0
 29 80  1  0  0  0  0
 30 82  1  0  0  0  0
 31 83  1  0  0  0  0
 32 63  2  0  0  0  0
 33 64  1  0  0  0  0
 33 67  1  0  0  0  0
 34 68  1  0  0  0  0
 34 74  2  0  0  0  0
 35 50  1  0  0  0  0
 35 70  1  0  0  0  0
 35 75  2  0  0  0  0
 36 59  1  0  0  0  0
 36 65  1  0  0  0  0
 36 76  2  0  0  0  0
 37 58  1  0  0  0  0
 37 72  1  0  0  0  0
 37 77  2  0  0  0  0
 38 60  1  0  0  0  0
 38 71  1  0  0  0  0
 38 78  2  0  0  0  0
 39 66  1  0  0  0  0
 39 69  1  0  0  0  0
 39 79  2  0  0  0  0
 40 43  1  0  0  0  0
 41 50  1  0  0  0  0
 42 65  1  0  0  0  0
 43 45  1  0  0  0  0
 44 46  1  0  0  0  0
 44 47  1  0  0  0  0
 45 49  1  0  0  0  0
 46 51  1  0  0  0  0
 47 66  1  0  0  0  0
 48 51  1  0  0  0  0
 48 66  1  0  0  0  0
 49 70  1  0  0  0  0
 50 65  1  0  0  0  0
 51 64  1  0  0  0  0
 53 60  1  0  0  0  0
 54 62  1  0  0  0  0
 55 62  1  0  0  0  0
 56 62  1  0  0  0  0
 57 73  1  0  0  0  0
 58 81  1  0  0  0  0
 59 62  1  0  0  0  0
 59 71  1  0  0  0  0
 60 73  1  0  0  0  0
 61 72  1  0  0  0  0
 61 84  1  0  0  0  0
 61 85  1  0  0  0  0
 63 64  1  0  0  0  0
M  CHG  1  73   1
M  ISO  4  39 100  58 101  69 100  81 101
M  END
> <Batch ID>
0045

> <Smiles>
CNC(C)C(=O)NC(C(=O)N1Cc2cc([101O:1][101CH2:1]C(=O)NC(F)(Cl)c3cc([100NH:0][100C:0](=O)N4CCCC(n5nc(-c6ccc(Oc7ccc(F)cc7F)cc6)c(C(N)=O)c5N)C4)ccc3C)ccc2CC1C(=O)NC1CCCc2ccccc21)C(C)(C)C

> <Shape>
0.181

> <Color>
0.198

> <Negative vol penalty>
0.000

$$$$

  -OEChem-04042322213D

 86 95  0     1  0  0  0  0  0999 V2000
  -16.1084  -26.4246   23.4726 C   0  0  0  0  0  0  0  0  0  0  0  0
  -17.0355  -26.3242   22.4402 C   0  0  0  0  0  0  0  0  0  0  0  0
  -27.1295  -12.9289   19.9118 C   0  0  0  0  0  0  0  0  0  0  0  0
  -26.0559  -12.9242   22.0761 C   0  0  0  0  0  0  0  0  0  0  0  0
  -15.9878  -27.6164   24.1861 C   0  0  0  0  0  0  0  0  0  0  0  0
  -17.8417  -27.4160   22.1200 C   0  0  0  0  0  0  0  0  0  0  0  0
  -22.6830  -26.1129   21.4065 C   0  0  0  0  0  0  0  0  0  0  0  0
  -28.2956  -23.7018   20.2059 C   0  0  0  0  0  0  0  0  0  0  0  0
  -28.5338  -22.6849   21.1305 C   0  0  0  0  0  0  0  0  0  0  0  0
  -26.0519  -12.2239   19.3757 C   0  0  0  0  0  0  0  0  0  0  0  0
  -24.9783  -12.2192   21.5401 C   0  0  0  0  0  0  0  0  0  0  0  0
  -23.0104  -25.5226   20.1867 C   0  0  0  0  0  0  0  0  0  0  0  0
  -24.2688   -9.0268   20.6820 C   0  0  0  0  0  0  0  0  0  0  0  0
  -23.7772   -7.9429   21.4094 C   0  0  0  0  0  0  0  0  0  0  0  0
  -23.8490  -27.6408   19.3935 C   0  0  0  0  0  0  0  0  0  0  0  0
  -29.1788  -21.2031   19.3345 C   0  0  0  0  0  0  0  0  0  0  0  0
  -21.6183   -9.0179   21.5523 C   0  0  0  0  0  0  0  0  0  0  0  0
  -27.1315  -13.2790   21.2620 C   0  0  0  0  0  0  0  0  0  0  0  0
  -29.5913  -13.5985   21.8579 C   0  0  0  0  0  0  0  0  0  0  0  0
  -16.7996  -28.7202   23.8808 C   0  0  0  0  0  0  0  0  0  0  0  0
  -22.9266  -27.4764   21.6255 C   0  0  0  0  0  0  0  0  0  0  0  0
  -17.7309  -28.6240   22.8292 C   0  0  0  0  0  0  0  0  0  0  0  0
  -23.5262  -28.2455   20.6179 C   0  0  0  0  0  0  0  0  0  0  0  0
  -28.4989  -23.4693   18.8457 C   0  0  0  0  0  0  0  0  0  0  0  0
  -28.9405  -22.2200   18.4100 C   0  0  0  0  0  0  0  0  0  0  0  0
  -28.9754  -21.4356   20.6948 C   0  0  0  0  0  0  0  0  0  0  0  0
  -24.9763  -11.8691   20.1898 C   0  0  0  0  0  0  0  0  0  0  0  0
  -23.5908  -26.2872   19.1789 C   0  0  0  0  0  0  0  0  0  0  0  0
  -23.4351  -10.1064   20.3899 C   0  0  0  0  0  0  0  0  0  0  0  0
  -22.4520   -7.9384   21.8445 C   0  0  0  0  0  0  0  0  0  0  0  0
  -22.1099  -10.1019   20.8250 C   0  0  0  0  0  0  0  0  0  0  0  0
  -28.2446  -14.0067   21.8165 C   0  0  0  0  0  0  0  0  0  0  0  0
  -30.2449  -14.6338   22.4803 C   0  0  0  0  0  0  0  0  0  0  0  0
  -25.8564  -24.3616   17.4323 C   0  0  0  0  0  0  0  0  0  0  0  0
  -25.2248  -23.2218   17.7586 C   0  0  0  0  0  0  0  0  0  0  0  0
  -30.1972  -12.3914   21.3768 C   0  0  0  0  0  0  0  0  0  0  0  0
  -21.1091  -30.0068   22.2561 C   0  0  0  0  0  0  0  0  0  0  0  0
  -23.9730  -31.4937   22.5872 C   0  0  0  0  0  0  0  0  0  0  0  0
  -27.1493  -31.5017   20.8759 C   0  0  0  0  0  0  0  0  0  0  0  0
  -29.0696  -20.4677   23.0188 C   0  0  0  0  0  0  0  0  0  0  0  0
  -16.6000  -30.0027   24.6489 C   0  0  0  0  0  0  0  0  0  0  0  0
  -22.5922  -28.0921   22.9565 C   0  0  0  0  0  0  0  0  0  0  0  0
  -23.8269  -29.7087   20.8101 C   0  0  0  0  0  0  0  0  0  0  0  0
  -17.7524  -30.9916   24.4933 C   0  0  0  0  0  0  0  0  0  0  0  0
  -29.5319  -18.1352   25.6688 C   0  0  0  0  0  0  0  0  0  0  0  0
  -26.8143  -26.4546   15.7232 C   0  0  0  0  0  0  0  0  0  0  0  0
  -18.1512  -31.1201   23.0265 C   0  0  0  0  0  0  0  0  0  0  0  0
  -25.4006  -26.5305   16.2891 C   0  0  0  0  0  0  0  0  0  0  0  0
  -29.3829  -16.7745   24.9843 C   0  0  0  0  0  0  0  0  0  0  0  0
  -28.5769  -19.1730   25.0818 C   0  0  0  0  0  0  0  0  0  0  0  0
  -28.4945  -17.9621   22.9379 C   0  0  0  0  0  0  0  0  0  0  0  0
  -27.2738  -25.0090   15.5641 C   0  0  0  0  0  0  0  0  0  0  0  0
  -18.6406  -29.7783   22.4683 C   0  0  1  0  0  0  0  0  0  0  0  0
  -25.2798  -25.7499   17.5970 C   0  0  1  0  0  0  0  0  0  1  0  0
  -22.4126  -29.6055   22.8866 C   0  0  1  0  0  0  0  0  0  0  0  0
  -29.4815  -16.9010   23.4514 C   0  0  2  0  0  0  0  0  0  0  0  0
  -29.1670  -21.9488   16.9589 C   0  0  0  0  0  0  0  0  0  0  0  0
  -29.4574  -32.0047   21.7226 C   0  0  0  0  0  0  0  0  0  0  0  0
  -23.4043  -34.3243   21.6003 C   0  0  0  0  0  0  0  0  0  0  0  0
  -25.7850  -34.4620   20.8378 C   0  0  0  0  0  0  0  0  0  0  0  0
  -25.2684  -34.1525   23.2586 C   0  0  0  0  0  0  0  0  0  0  0  0
  -28.1895  -28.8973   19.9303 C   0  0  0  0  0  0  0  0  0  0  0  0
  -28.2352  -24.5783   17.8701 C   0  0  0  0  0  0  0  0  0  0  0  0
  -24.9101  -32.2278   21.6588 C   0  0  1  0  0  0  0  0  0  0  0  0
  -28.4548  -30.9137   21.3803 C   0  0  2  0  0  0  0  0  0  0  0  0
  -24.8249  -33.7709   21.8294 C   0  0  0  0  0  0  0  0  0  0  0  0
  -28.0527  -15.2077   22.3687 N   0  0  0  0  0  0  0  0  0  0  0  0
  -29.2873  -15.5629   22.7631 N   0  0  0  0  0  0  0  0  0  0  0  0
  -23.4757  -30.2663   22.1267 N   0  0  0  0  0  0  0  0  0  0  0  0
  -28.7296  -19.2407   23.6268 N   0  0  0  0  0  0  0  0  0  0  0  0
  -31.5396  -14.8310   22.8078 N   0  0  0  0  0  0  0  0  0  0  0  0
  -29.3801  -11.4326   20.7624 N   0  0  0  0  0  0  0  0  0  0  0  0
  -29.2194  -20.4029   21.6339 N   0  0  0  0  0  0  0  0  0  0  0  0
  -19.9942  -29.5124   22.9058 N   0  0  0  0  0  0  0  0  0  0  0  0
  -26.2381  -31.6728   21.8966 N   0  0  0  0  0  0  0  0  0  0  0  0
  -27.1778  -24.2334   16.8577 N   0  3  1  0  0  0  0  0  0  0  0  0
  -29.0587  -30.0286   20.3445 N   0  3  0  0  0  0  0  0  0  0  0  0
  -31.4240  -12.1625   21.5030 O   0  0  0  0  0  0  0  0  0  0  0  0
  -21.1144  -30.7139   21.2553 O   0  0  0  0  0  0  0  0  0  0  0  0
  -23.6982  -31.9875   23.6837 O   0  0  0  0  0  0  0  0  0  0  0  0
  -26.9583  -31.7846   19.6952 O   0  0  0  0  0  0  0  0  0  0  0  0
  -29.2438  -21.4939   23.6810 O   0  0  0  0  0  0  0  0  0  0  0  0
  -23.9245  -11.1814   19.6670 O   0  0  0  0  0  0  0  0  0  0  0  0
  -23.9107  -25.7136   17.9870 O   0  0  0  0  0  0  0  0  0  1  0  0
  -21.9796   -6.8968   22.5416 F   0  0  0  0  0  0  0  0  0  0  0  0
  -21.3039  -11.1356   20.5463 F   0  0  0  0  0  0  0  0  0  0  0  0
  1  2  1  0  0  0  0
  1  5  2  0  0  0  0
  2  6  2  0  0  0  0
  3 10  2  0  0  0  0
  3 18  1  0  0  0  0
  4 11  1  0  0  0  0
  4 18  2  0  0  0  0
  5 20  1  0  0  0  0
  6 22  1  0  0  0  0
  7 12  2  0  0  0  0
  7 21  1  0  0  0  0
  8  9  2  0  0  0  0
  8 24  1  0  0  0  0
  9 26  1  0  0  0  0
 10 27  1  0  0  0  0
 11 27  2  0  0  0  0
 12 28  1  0  0  0  0
 13 14  2  0  0  0  0
 13 29  1  0  0  0  0
 14 30  1  0  0  0  0
 15 23  1  0  0  0  0
 15 28  2  0  0  0  0
 16 25  1  0  0  0  0
 16 26  2  0  0  0  0
 17 30  2  0  0  0  0
 17 31  1  0  0  0  0
 18 32  1  0  0  0  0
 19 32  1  0  0  0  0
 19 33  2  0  0  0  0
 19 36  1  0  0  0  0
 20 22  2  0  0  0  0
 20 41  1  0  0  0  0
 21 23  2  0  0  0  0
 21 42  1  0  0  0  0
 22 53  1  0  0  0  0
 23 43  1  0  0  0  0
 24 25  2  0  0  0  0
 24 63  1  0  0  0  0
 25 57  1  0  0  0  0
 26 73  1  0  0  0  0
 27 83  1  0  0  0  0
 28 84  1  0  0  0  0
 29 31  2  0  0  0  0
 29 83  1  0  0  0  0
 30 85  1  0  0  0  0
 31 86  1  0  0  0  0
 32 67  2  0  0  0  0
 33 68  1  0  0  0  0
 33 71  1  0  0  0  0
 34 35  2  0  0  0  0
 34 54  1  0  0  0  0
 34 76  1  0  0  0  0
 36 72  1  0  0  0  0
 36 78  2  0  0  0  0
 37 55  1  0  0  0  0
 37 74  1  0  0  0  0
 37 79  2  0  0  0  0
 38 64  1  0  0  0  0
 38 69  1  0  0  0  0
 38 80  2  0  0  0  0
 39 65  1  0  0  0  0
 39 75  1  0  0  0  0
 39 81  2  0  0  0  0
 40 70  1  0  0  0  0
 40 73  1  0  0  0  0
 40 82  2  0  0  0  0
 41 44  1  0  0  0  0
 42 55  1  0  0  0  0
 43 69  1  0  0  0  0
 44 47  1  0  0  0  0
 45 49  1  0  0  0  0
 45 50  1  0  0  0  0
 46 48  1  0  0  0  0
 46 52  1  0  0  0  0
 47 53  1  0  0  0  0
 48 54  1  0  0  0  0
 49 56  1  0  0  0  0
 50 70  1  0  0  0  0
 51 56  1  0  0  0  0
 51 70  1  0  0  0  0
 52 76  1  0  0  0  0
 53 74  1  0  0  0  0
 54 84  1  0  0  0  0
 55 69  1  0  0  0  0
 56 68  1  0  0  0  0
 58 65  1  0  0  0  0
 59 66  1  0  0  0  0
 60 66  1  0  0  0  0
 61 66  1  0  0  0  0
 62 77  1  0  0  0  0
 63 76  1  0  0  0  0
 64 66  1  0  0  0  0
 64 75  1  0  0  0  0
 65 77  1  0  0  0  0
 67 68  1  0  0  0  0
M  CHG  2  76   1  77   1
M  ISO  4  40 100  54 101  73 100  84 101
M  END
> <Batch ID>
0045

> <Smiles>
C=C1N(Cc2ccc([100NH:0][100C:0](=O)N3CCCC(n4nc(-c5ccc(Oc6ccc(F)cc6F)cc5)c(C(N)=O)c4N)C3)cc2C)CCC[101CH:1]1[101O:1]c1ccc2c(c1)CN(C(=O)C(NC(=O)C(C)NC)C(C)(C)C)C(C(=O)NC1CCCc3ccccc31)C2

> <Shape>
0.278

> <Color>
0.061

> <Negative vol penalty>
0.000

$$$$

  -OEChem-04042322213D

 89 98  0     1  0  0  0  0  0999 V2000
  -29.6441  -34.6478   17.1139 C   0  0  0  0  0  0  0  0  0  0  0  0
  -29.8915  -33.2792   17.0796 C   0  0  0  0  0  0  0  0  0  0  0  0
  -22.9714   -9.6661   19.9474 C   0  0  0  0  0  0  0  0  0  0  0  0
  -24.4983   -9.0997   21.7320 C   0  0  0  0  0  0  0  0  0  0  0  0
  -28.9880  -35.2092   18.2085 C   0  0  0  0  0  0  0  0  0  0  0  0
  -29.4838  -32.4714   18.1406 C   0  0  0  0  0  0  0  0  0  0  0  0
  -27.1082  -25.8574   19.5294 C   0  0  0  0  0  0  0  0  0  0  0  0
  -30.2109  -17.4666   19.2514 C   0  0  0  0  0  0  0  0  0  0  0  0
  -30.5671  -16.2873   19.9055 C   0  0  0  0  0  0  0  0  0  0  0  0
  -21.9403   -9.0123   20.6221 C   0  0  0  0  0  0  0  0  0  0  0  0
  -23.4673   -8.4460   22.4067 C   0  0  0  0  0  0  0  0  0  0  0  0
  -27.3810  -24.7657   20.3526 C   0  0  0  0  0  0  0  0  0  0  0  0
  -21.8650   -5.4741   22.2292 C   0  0  0  0  0  0  0  0  0  0  0  0
  -22.1408   -4.2211   22.7763 C   0  0  0  0  0  0  0  0  0  0  0  0
  -26.1855  -25.8339   22.1551 C   0  0  0  0  0  0  0  0  0  0  0  0
  -21.5996   -5.0621   24.9756 C   0  0  0  0  0  0  0  0  0  0  0  0
  -24.2504   -9.7097   20.5023 C   0  0  0  0  0  0  0  0  0  0  0  0
  -25.8164  -10.0861   18.5240 C   0  0  0  0  0  0  0  0  0  0  0  0
  -28.5635  -34.4064   19.2790 C   0  0  0  0  0  0  0  0  0  0  0  0
  -26.3801  -26.9522   20.0170 C   0  0  0  0  0  0  0  0  0  0  0  0
  -28.8226  -33.0228   19.2512 C   0  0  0  0  0  0  0  0  0  0  0  0
  -25.9026  -26.9371   21.3353 C   0  0  0  0  0  0  0  0  0  0  0  0
  -30.1026  -18.6574   19.9699 C   0  0  0  0  0  0  0  0  0  0  0  0
  -30.3505  -18.6687   21.3425 C   0  0  0  0  0  0  0  0  0  0  0  0
  -30.7067  -17.4893   21.9967 C   0  0  0  0  0  0  0  0  0  0  0  0
  -30.8150  -16.2986   21.2781 C   0  0  0  0  0  0  0  0  0  0  0  0
  -22.1883   -8.4023   21.8517 C   0  0  0  0  0  0  0  0  0  0  0  0
  -26.9221  -24.7551   21.6665 C   0  0  0  0  0  0  0  0  0  0  0  0
  -21.4566   -6.5213   23.0553 C   0  0  0  0  0  0  0  0  0  0  0  0
  -22.0081   -4.0150   24.1495 C   0  0  0  0  0  0  0  0  0  0  0  0
  -21.3238   -6.3153   24.4284 C   0  0  0  0  0  0  0  0  0  0  0  0
  -25.3160  -10.3844   19.8056 C   0  0  0  0  0  0  0  0  0  0  0  0
  -26.8141  -11.0082   18.3218 C   0  0  0  0  0  0  0  0  0  0  0  0
  -28.7367  -21.9085   22.0525 C   0  0  0  0  0  0  0  0  0  0  0  0
  -25.4151   -9.0668   17.5990 C   0  0  0  0  0  0  0  0  0  0  0  0
  -26.9908  -30.0426   20.4412 C   0  0  0  0  0  0  0  0  0  0  0  0
  -23.8439  -30.1583   21.2194 C   0  0  0  0  0  0  0  0  0  0  0  0
  -21.0744  -28.5098   22.3414 C   0  0  0  0  0  0  0  0  0  0  0  0
  -30.3226  -13.9466   21.9237 C   0  0  0  0  0  0  0  0  0  0  0  0
  -27.9001  -35.0656   20.4623 C   0  0  0  0  0  0  0  0  0  0  0  0
  -26.0714  -28.1103   19.1083 C   0  0  0  0  0  0  0  0  0  0  0  0
  -25.0992  -28.0786   21.9009 C   0  0  0  0  0  0  0  0  0  0  0  0
  -27.1677  -34.0849   21.3744 C   0  0  0  0  0  0  0  0  0  0  0  0
  -26.4256  -20.1252   21.7956 C   0  0  0  0  0  0  0  0  0  0  0  0
  -28.1389  -15.4321   19.5430 C   0  0  0  0  0  0  0  0  0  0  0  0
  -28.0421  -32.8686   21.6622 C   0  0  0  0  0  0  0  0  0  0  0  0
  -26.2503  -21.5022   22.4009 C   0  0  0  0  0  0  0  0  0  0  0  0
  -27.2022  -14.2678   19.2225 C   0  0  0  0  0  0  0  0  0  0  0  0
  -27.7900  -19.5735   22.1684 C   0  0  0  0  0  0  0  0  0  0  0  0
  -28.5003  -15.4839   21.0278 C   0  0  0  0  0  0  0  0  0  0  0  0
  -28.1112  -13.0489   21.2372 C   0  0  0  0  0  0  0  0  0  0  0  0
  -28.3739  -32.1098   20.3716 C   0  0  1  0  0  0  0  0  0  0  0  0
  -27.3182  -22.4249   21.8473 C   0  0  1  0  0  0  0  0  0  1  0  0
  -25.7618  -29.3980   19.8655 C   0  0  1  0  0  0  0  0  0  0  0  0
  -27.7767  -12.9379   19.7415 C   0  0  1  0  0  0  0  0  0  0  0  0
  -29.7197  -19.9060   19.2451 C   0  0  0  0  0  0  0  0  0  0  0  0
  -32.3407  -18.0879   23.8017 C   0  0  0  0  0  0  0  0  0  0  0  0
  -18.6583  -28.8783   22.9108 C   0  0  0  0  0  0  0  0  0  0  0  0
  -24.6673  -31.5090   23.8286 C   0  0  0  0  0  0  0  0  0  0  0  0
  -22.3913  -30.9909   24.7339 C   0  0  0  0  0  0  0  0  0  0  0  0
  -22.6321  -32.4808   22.7478 C   0  0  0  0  0  0  0  0  0  0  0  0
  -32.5629  -14.9082   22.4049 C   0  0  0  0  0  0  0  0  0  0  0  0
  -20.1751  -26.5866   20.2795 C   0  0  0  0  0  0  0  0  0  0  0  0
  -30.9724  -17.5038   23.4697 C   0  0  0  0  0  0  0  0  0  0  0  0
  -30.2333  -19.9519   22.1131 C   0  0  0  0  0  0  0  0  0  0  0  0
  -23.0514  -30.0005   22.4946 C   0  0  1  0  0  0  0  0  0  0  0  0
  -19.6463  -28.4740   21.8277 C   0  0  2  0  0  0  0  0  0  0  0  0
  -23.2023  -31.2245   23.4415 C   0  0  0  0  0  0  0  0  0  0  0  0
  -25.9441  -11.4152   20.3773 N   0  0  0  0  0  0  0  0  0  0  0  0
  -26.8495  -11.7727   19.4507 N   0  0  0  0  0  0  0  0  0  0  0  0
  -28.8957  -20.5218   22.0228 N   0  0  0  0  0  0  0  0  0  0  0  0
  -24.8288  -29.1908   20.9749 N   0  0  0  0  0  0  0  0  0  0  0  0
  -29.0053  -14.1822   21.4868 N   0  0  0  0  0  0  0  0  0  0  0  0
  -27.6558  -11.2314   17.2903 N   0  0  0  0  0  0  0  0  0  0  0  0
  -26.0454   -7.8168   17.6674 N   0  0  0  0  0  0  0  0  0  0  0  0
  -27.2437  -31.3096   19.9510 N   0  0  0  0  0  0  0  0  0  0  0  0
  -21.6774  -29.7240   22.0897 N   0  0  0  0  0  0  0  0  0  0  0  0
  -31.1825  -15.0658   21.9343 N   0  0  0  0  0  0  0  0  0  0  0  0
  -19.2977  -27.1020   21.3619 N   0  3  0  0  0  0  0  0  0  0  0  0
  -29.6706  -22.7065   22.1673 O   0  0  0  0  0  0  0  0  0  0  0  0
  -24.5356   -9.2639   16.7266 O   0  0  0  0  0  0  0  0  0  0  0  0
  -27.6594  -29.4361   21.2699 O   0  0  0  0  0  0  0  0  0  0  0  0
  -23.5933  -31.1012   20.4645 O   0  0  0  0  0  0  0  0  0  0  0  0
  -21.6009  -27.5574   22.9124 O   0  0  0  0  0  0  0  0  0  0  0  0
  -30.6946  -12.8286   22.3002 O   0  0  0  0  0  0  0  0  0  0  0  0
  -21.1824   -7.7645   22.5105 O   0  0  0  0  0  0  0  0  0  0  0  0
  -27.1875  -23.6911   22.4723 O   0  0  0  0  0  0  0  0  0  1  0  0
  -22.2715   -2.8112   24.6745 F   0  0  0  0  0  0  0  0  0  0  0  0
  -20.9306   -7.3171   25.2269 F   0  0  0  0  0  0  0  0  0  0  0  0
  1  2  1  0  0  0  0
  1  5  2  0  0  0  0
  2  6  2  0  0  0  0
  3 10  2  0  0  0  0
  3 17  1  0  0  0  0
  4 11  1  0  0  0  0
  4 17  2  0  0  0  0
  5 19  1  0  0  0  0
  6 21  1  0  0  0  0
  7 12  2  0  0  0  0
  7 20  1  0  0  0  0
  8  9  1  0  0  0  0
  8 23  2  0  0  0  0
  9 26  2  0  0  0  0
 10 27  1  0  0  0  0
 11 27  2  0  0  0  0
 12 28  1  0  0  0  0
 13 14  2  0  0  0  0
 13 29  1  0  0  0  0
 14 30  1  0  0  0  0
 15 22  1  0  0  0  0
 15 28  2  0  0  0  0
 16 30  2  0  0  0  0
 16 31  1  0  0  0  0
 17 32  1  0  0  0  0
 18 32  1  0  0  0  0
 18 33  2  0  0  0  0
 18 35  1  0  0  0  0
 19 21  2  0  0  0  0
 19 40  1  0  0  0  0
 20 22  2  0  0  0  0
 20 41  1  0  0  0  0
 21 52  1  0  0  0  0
 22 42  1  0  0  0  0
 23 24  1  0  0  0  0
 23 56  1  0  0  0  0
 24 25  2  0  0  0  0
 24 65  1  0  0  0  0
 25 26  1  0  0  0  0
 25 64  1  0  0  0  0
 26 78  1  0  0  0  0
 27 86  1  0  0  0  0
 28 87  1  0  0  0  0
 29 31  2  0  0  0  0
 29 86  1  0  0  0  0
 30 88  1  0  0  0  0
 31 89  1  0  0  0  0
 32 69  2  0  0  0  0
 33 70  1  0  0  0  0
 33 74  1  0  0  0  0
 34 53  1  0  0  0  0
 34 71  1  0  0  0  0
 34 80  2  0  0  0  0
 35 75  1  0  0  0  0
 35 81  2  0  0  0  0
 36 54  1  0  0  0  0
 36 76  1  0  0  0  0
 36 82  2  0  0  0  0
 37 66  1  0  0  0  0
 37 72  1  0  0  0  0
 37 83  2  0  0  0  0
 38 67  1  0  0  0  0
 38 77  1  0  0  0  0
 38 84  2  0  0  0  0
 39 73  1  0  0  0  0
 39 78  1  0  0  0  0
 39 85  2  0  0  0  0
 40 43  1  0  0  0  0
 41 54  1  0  0  0  0
 42 72  1  0  0  0  0
 43 46  1  0  0  0  0
 44 47  1  0  0  0  0
 44 49  1  0  0  0  0
 45 48  1  0  0  0  0
 45 50  1  0  0  0  0
 46 52  1  0  0  0  0
 47 53  1  0  0  0  0
 48 55  1  0  0  0  0
 49 71  1  0  0  0  0
 50 73  1  0  0  0  0
 51 55  1  0  0  0  0
 51 73  1  0  0  0  0
 52 76  1  0  0  0  0
 53 87  1  0  0  0  0
 54 72  1  0  0  0  0
 55 70  1  0  0  0  0
 57 64  1  0  0  0  0
 58 67  1  0  0  0  0
 59 68  1  0  0  0  0
 60 68  1  0  0  0  0
 61 68  1  0  0  0  0
 62 78  1  0  0  0  0
 63 79  1  0  0  0  0
 65 71  1  0  0  0  0
 66 68  1  0  0  0  0
 66 77  1  0  0  0  0
 67 79  1  0  0  0  0
 69 70  1  0  0  0  0
M  CHG  1  79   1
M  ISO  4  39 100  53 101  78 100  87 101
M  END
> <Batch ID>
0045

> <Smiles>
CCc1c([100N:0](C)[100C:0](=O)N2CCCC(n3nc(-c4ccc(Oc5ccc(F)cc5F)cc4)c(C(N)=O)c3N)C2)ccc(C)c1CN1CCC[101CH:1]([101O:1]c2ccc3c(c2)CN(C(=O)C(NC(=O)C(C)NC)C(C)(C)C)C(C(=O)NC2CCCc4ccccc42)C3)C1=O

> <Shape>
0.305

> <Color>
0.087

> <Negative vol penalty>
0.000

$$$$

  -OEChem-04042322213D

 86 94  0     1  0  0  0  0  0999 V2000
  -23.4635  -26.1851   30.3831 C   0  0  0  0  0  0  0  0  0  0  0  0
  -23.3732  -25.0269   29.6177 C   0  0  0  0  0  0  0  0  0  0  0  0
  -24.8111  -11.8291   21.6923 C   0  0  0  0  0  0  0  0  0  0  0  0
  -29.6450  -23.4713   18.7686 C   0  0  0  0  0  0  0  0  0  0  0  0
  -27.9855  -23.1765   20.4995 C   0  0  0  0  0  0  0  0  0  0  0  0
  -22.6644  -27.2858   30.0768 C   0  0  0  0  0  0  0  0  0  0  0  0
  -22.4829  -24.9685   28.5460 C   0  0  0  0  0  0  0  0  0  0  0  0
  -23.2872  -22.0008   23.2496 C   0  0  0  0  0  0  0  0  0  0  0  0
  -23.9373  -12.5309   20.8620 C   0  0  0  0  0  0  0  0  0  0  0  0
  -29.5664  -24.8546   18.9288 C   0  0  0  0  0  0  0  0  0  0  0  0
  -27.9070  -24.5599   20.6599 C   0  0  0  0  0  0  0  0  0  0  0  0
  -22.8430  -20.7609   22.7923 C   0  0  0  0  0  0  0  0  0  0  0  0
  -27.0052  -28.0265   21.2757 C   0  0  0  0  0  0  0  0  0  0  0  0
  -25.7362  -28.5965   21.3769 C   0  0  0  0  0  0  0  0  0  0  0  0
  -26.1708  -12.1405   21.6963 C   0  0  0  0  0  0  0  0  0  0  0  0
  -20.9830  -21.8379   21.6969 C   0  0  0  0  0  0  0  0  0  0  0  0
  -25.1780  -27.7427   19.1868 C   0  0  0  0  0  0  0  0  0  0  0  0
  -28.8544  -22.6322   19.5539 C   0  0  0  0  0  0  0  0  0  0  0  0
  -29.7953  -20.3162   20.0627 C   0  0  0  0  0  0  0  0  0  0  0  0
  -21.7709  -27.2442   28.9949 C   0  0  0  0  0  0  0  0  0  0  0  0
  -22.5754  -23.1694   22.9426 C   0  0  0  0  0  0  0  0  0  0  0  0
  -21.6702  -26.0692   28.2257 C   0  0  0  0  0  0  0  0  0  0  0  0
  -21.4217  -23.0917   22.1494 C   0  0  0  0  0  0  0  0  0  0  0  0
  -24.4231  -13.5441   20.0356 C   0  0  0  0  0  0  0  0  0  0  0  0
  -25.7828  -13.8556   20.0395 C   0  0  0  0  0  0  0  0  0  0  0  0
  -28.6975  -25.3990   19.8745 C   0  0  0  0  0  0  0  0  0  0  0  0
  -21.6892  -20.6790   22.0183 C   0  0  0  0  0  0  0  0  0  0  0  0
  -27.3607  -27.3147   20.1300 C   0  0  0  0  0  0  0  0  0  0  0  0
  -24.8226  -28.4546   20.3325 C   0  0  0  0  0  0  0  0  0  0  0  0
  -26.4471  -27.1728   19.0855 C   0  0  0  0  0  0  0  0  0  0  0  0
  -26.6566  -13.1537   20.8699 C   0  0  0  0  0  0  0  0  0  0  0  0
  -28.9347  -21.2031   19.3884 C   0  0  0  0  0  0  0  0  0  0  0  0
  -29.4821  -19.0798   19.5531 C   0  0  0  0  0  0  0  0  0  0  0  0
  -22.0578  -16.0033   21.0210 C   0  0  0  0  0  0  0  0  0  0  0  0
  -21.3776  -17.1073   21.3605 C   0  0  0  0  0  0  0  0  0  0  0  0
  -30.7889  -20.5859   21.0606 C   0  0  0  0  0  0  0  0  0  0  0  0
  -21.3376  -14.8357   20.4356 C   0  0  0  0  0  0  0  0  0  0  0  0
  -21.0642  -25.3879   24.6450 C   0  0  0  0  0  0  0  0  0  0  0  0
  -20.7600  -26.8385   21.7596 C   0  0  0  0  0  0  0  0  0  0  0  0
  -20.1582  -26.8275   18.2022 C   0  0  0  0  0  0  0  0  0  0  0  0
  -25.7449  -15.2732   17.9574 C   0  0  0  0  0  0  0  0  0  0  0  0
  -20.8937  -28.4424   28.7313 C   0  0  0  0  0  0  0  0  0  0  0  0
  -23.0825  -24.5021   23.4211 C   0  0  0  0  0  0  0  0  0  0  0  0
  -20.6327  -24.3188   21.7749 C   0  0  0  0  0  0  0  0  0  0  0  0
  -20.2461  -28.4310   27.3491 C   0  0  0  0  0  0  0  0  0  0  0  0
  -26.6192  -17.7810   15.5859 C   0  0  0  0  0  0  0  0  0  0  0  0
  -19.6493  -27.0593   27.0505 C   0  0  0  0  0  0  0  0  0  0  0  0
  -27.3703  -18.8219   16.4193 C   0  0  0  0  0  0  0  0  0  0  0  0
  -25.4612  -17.1594   16.3646 C   0  0  0  0  0  0  0  0  0  0  0  0
  -26.5728  -17.6452   18.5088 C   0  0  0  0  0  0  0  0  0  0  0  0
  -20.7345  -25.9759   27.0401 C   0  0  1  0  0  0  0  0  0  0  0  0
  -21.9943  -25.5697   23.4790 C   0  0  1  0  0  0  0  0  0  0  0  0
  -27.7882  -18.2523   17.7891 C   0  0  2  0  0  0  0  0  0  0  0  0
  -20.1991  -28.7024   16.5348 C   0  0  0  0  0  0  0  0  0  0  0  0
  -17.7597  -26.9923   22.2934 C   0  0  0  0  0  0  0  0  0  0  0  0
  -17.4206  -27.4560   19.8565 C   0  0  0  0  0  0  0  0  0  0  0  0
  -18.7411  -29.0448   21.2547 C   0  0  0  0  0  0  0  0  0  0  0  0
  -21.4233  -12.9015   18.9097 C   0  0  0  0  0  0  0  0  0  0  0  0
  -22.1259  -25.4218   16.4960 C   0  0  0  0  0  0  0  0  0  0  0  0
  -23.4562  -14.2809   19.1544 C   0  0  0  0  0  0  0  0  0  0  0  0
  -22.0263  -18.3263   21.9326 C   0  0  0  0  0  0  0  0  0  1  0  0
  -19.7399  -26.8029   20.6474 C   0  0  1  0  0  0  0  0  0  0  0  0
  -20.9740  -27.5424   17.1403 C   0  0  2  0  0  0  0  0  0  0  0  0
  -18.4289  -27.5505   21.0215 C   0  0  0  0  0  0  0  0  0  0  0  0
  -28.1350  -20.5828   18.5168 N   0  0  0  0  0  0  0  0  0  0  0  0
  -28.4918  -19.2930   18.6399 N   0  0  0  0  0  0  0  0  0  0  0  0
  -21.1655  -25.5981   22.2721 N   0  0  0  0  0  0  0  0  0  0  0  0
  -25.9328  -16.6372   17.6490 N   0  0  0  0  0  0  0  0  0  0  0  0
  -29.9600  -17.8420   19.8015 N   0  0  0  0  0  0  0  0  0  0  0  0
  -30.9816  -21.9124   21.4702 N   0  0  0  0  0  0  0  0  0  0  0  0
  -26.2635  -14.8845   19.1921 N   0  0  0  0  0  0  0  0  0  0  0  0
  -21.4808  -26.0201   25.8009 N   0  0  0  0  0  0  0  0  0  0  0  0
  -20.4096  -27.3277   19.4623 N   0  0  0  0  0  0  0  0  0  0  0  0
  -22.0683  -14.0427   19.5462 N   0  0  0  0  0  0  0  0  0  0  0  0
  -21.3398  -26.5993   16.0459 N   0  3  0  0  0  0  0  0  0  0  0  0
  -31.4965  -19.6796   21.5619 O   0  0  0  0  0  0  0  0  0  0  0  0
  -20.1579  -14.6357   20.7287 O   0  0  0  0  0  0  0  0  0  0  0  0
  -20.0433  -24.7244   24.5058 O   0  0  0  0  0  0  0  0  0  0  0  0
  -21.1868  -27.9266   22.1541 O   0  0  0  0  0  0  0  0  0  0  0  0
  -19.3734  -25.9188   17.9397 O   0  0  0  0  0  0  0  0  0  0  0  0
  -25.1908  -14.5006   17.1713 O   0  0  0  0  0  0  0  0  0  0  0  0
  -28.6208  -26.7488   20.0313 O   0  0  0  0  0  0  0  0  0  0  0  0
  -21.2531  -19.4699   21.5712 O   0  0  0  0  0  0  0  0  0  1  0  0
  -23.6034  -29.0006   20.4305 F   0  0  0  0  0  0  0  0  0  0  0  0
  -26.7825  -26.4891   17.9829 F   0  0  0  0  0  0  0  0  0  0  0  0
  -28.3486  -13.5031   20.9084 Cl  0  0  0  0  0  0  0  0  0  0  0  0
  1  2  1  0  0  0  0
  1  6  2  0  0  0  0
  2  7  2  0  0  0  0
  3  9  2  0  0  0  0
  3 15  1  0  0  0  0
  4 10  2  0  0  0  0
  4 18  1  0  0  0  0
  5 11  1  0  0  0  0
  5 18  2  0  0  0  0
  6 20  1  0  0  0  0
  7 22  1  0  0  0  0
  8 12  2  0  0  0  0
  8 21  1  0  0  0  0
  9 24  1  0  0  0  0
 10 26  1  0  0  0  0
 11 26  2  0  0  0  0
 12 27  1  0  0  0  0
 13 14  2  0  0  0  0
 13 28  1  0  0  0  0
 14 29  1  0  0  0  0
 15 31  2  0  0  0  0
 16 23  1  0  0  0  0
 16 27  2  0  0  0  0
 17 29  2  0  0  0  0
 17 30  1  0  0  0  0
 18 32  1  0  0  0  0
 19 32  1  0  0  0  0
 19 33  2  0  0  0  0
 19 36  1  0  0  0  0
 20 22  2  0  0  0  0
 20 42  1  0  0  0  0
 21 23  2  0  0  0  0
 21 43  1  0  0  0  0
 22 51  1  0  0  0  0
 23 44  1  0  0  0  0
 24 25  2  0  0  0  0
 24 60  1  0  0  0  0
 25 31  1  0  0  0  0
 25 71  1  0  0  0  0
 26 82  1  0  0  0  0
 27 83  1  0  0  0  0
 28 30  2  0  0  0  0
 28 82  1  0  0  0  0
 29 84  1  0  0  0  0
 30 85  1  0  0  0  0
 31 86  1  0  0  0  0
 32 65  2  0  0  0  0
 33 66  1  0  0  0  0
 33 69  1  0  0  0  0
 34 35  2  0  0  0  0
 34 37  1  0  0  0  0
 35 61  1  0  0  0  0
 36 70  1  0  0  0  0
 36 76  2  0  0  0  0
 37 74  1  0  0  0  0
 37 77  2  0  0  0  0
 38 52  1  0  0  0  0
 38 72  1  0  0  0  0
 38 78  2  0  0  0  0
 39 62  1  0  0  0  0
 39 67  1  0  0  0  0
 39 79  2  0  0  0  0
 40 63  1  0  0  0  0
 40 73  1  0  0  0  0
 40 80  2  0  0  0  0
 41 68  1  0  0  0  0
 41 71  1  0  0  0  0
 41 81  2  0  0  0  0
 42 45  1  0  0  0  0
 43 52  1  0  0  0  0
 44 67  1  0  0  0  0
 45 47  1  0  0  0  0
 46 48  1  0  0  0  0
 46 49  1  0  0  0  0
 47 51  1  0  0  0  0
 48 53  1  0  0  0  0
 49 68  1  0  0  0  0
 50 53  1  0  0  0  0
 50 68  1  0  0  0  0
 51 72  1  0  0  0  0
 52 67  1  0  0  0  0
 53 66  1  0  0  0  0
 54 63  1  0  0  0  0
 55 64  1  0  0  0  0
 56 64  1  0  0  0  0
 57 64  1  0  0  0  0
 58 74  1  0  0  0  0
 59 75  1  0  0  0  0
 60 74  1  0  0  0  0
 61 83  1  0  0  0  0
 62 64  1  0  0  0  0
 62 73  1  0  0  0  0
 63 75  1  0  0  0  0
 65 66  1  0  0  0  0
M  CHG  1  75   1
M  ISO  4  41 100  61 101  71 100  83 101
M  END
> <Batch ID>
0045

> <Smiles>
CNC(C)C(=O)NC(C(=O)N1Cc2cc([101O:1][101CH2:1]C=CC(=O)N(C)Cc3cccc(Cl)c3[100NH:0][100C:0](=O)N3CCCC(n4nc(-c5ccc(Oc6ccc(F)cc6F)cc5)c(C(N)=O)c4N)C3)ccc2CC1C(=O)NC1CCCc2ccccc21)C(C)(C)C

> <Shape>
0.188

> <Color>
0.072

> <Negative vol penalty>
0.000

$$$$

  -OEChem-04042322213D

 87 96  0     1  0  0  0  0  0999 V2000
  -29.5326  -35.9520   25.9087 C   0  0  0  0  0  0  0  0  0  0  0  0
  -29.1642  -34.6317   26.1462 C   0  0  0  0  0  0  0  0  0  0  0  0
  -24.2161   -9.1469   21.1584 C   0  0  0  0  0  0  0  0  0  0  0  0
  -25.3702   -9.9625   23.1180 C   0  0  0  0  0  0  0  0  0  0  0  0
  -28.6076  -36.8470   25.3727 C   0  0  0  0  0  0  0  0  0  0  0  0
  -27.8701  -34.2059   25.8487 C   0  0  0  0  0  0  0  0  0  0  0  0
  -27.7950  -29.7410   23.4603 C   0  0  0  0  0  0  0  0  0  0  0  0
  -28.5276  -21.1406   22.0633 C   0  0  0  0  0  0  0  0  0  0  0  0
  -28.6719  -19.8513   21.5512 C   0  0  0  0  0  0  0  0  0  0  0  0
  -24.0213   -7.9162   21.7853 C   0  0  0  0  0  0  0  0  0  0  0  0
  -25.1753   -8.7318   23.7449 C   0  0  0  0  0  0  0  0  0  0  0  0
  -27.9841  -28.5995   24.2382 C   0  0  0  0  0  0  0  0  0  0  0  0
  -21.9426   -6.6051   24.1076 C   0  0  0  0  0  0  0  0  0  0  0  0
  -20.6768   -6.0258   24.0193 C   0  0  0  0  0  0  0  0  0  0  0  0
  -25.6023  -28.2176   24.2459 C   0  0  0  0  0  0  0  0  0  0  0  0
  -26.1254  -20.8851   22.0298 C   0  0  0  0  0  0  0  0  0  0  0  0
  -21.6349   -4.1000   22.9192 C   0  0  0  0  0  0  0  0  0  0  0  0
  -24.8906  -10.1701   21.8247 C   0  0  0  0  0  0  0  0  0  0  0  0
  -24.1011  -12.3213   20.7037 C   0  0  0  0  0  0  0  0  0  0  0  0
  -27.3044  -36.4295   25.0595 C   0  0  0  0  0  0  0  0  0  0  0  0
  -26.5050  -30.1361   23.0779 C   0  0  0  0  0  0  0  0  0  0  0  0
  -26.9264  -35.0964   25.3092 C   0  0  0  0  0  0  0  0  0  0  0  0
  -25.3997  -29.3630   23.4610 C   0  0  0  0  0  0  0  0  0  0  0  0
  -27.2543  -21.6575   22.3027 C   0  0  0  0  0  0  0  0  0  0  0  0
  -26.2697  -19.5957   21.5176 C   0  0  0  0  0  0  0  0  0  0  0  0
  -27.5430  -19.0788   21.2783 C   0  0  0  0  0  0  0  0  0  0  0  0
  -24.5008   -7.7087   23.0786 C   0  0  0  0  0  0  0  0  0  0  0  0
  -26.8874  -27.8392   24.6335 C   0  0  0  0  0  0  0  0  0  0  0  0
  -23.0546   -5.9319   23.6016 C   0  0  0  0  0  0  0  0  0  0  0  0
  -20.5230   -4.7732   23.4252 C   0  0  0  0  0  0  0  0  0  0  0  0
  -22.9007   -4.6793   23.0075 C   0  0  0  0  0  0  0  0  0  0  0  0
  -25.0927  -11.4414   21.1774 C   0  0  0  0  0  0  0  0  0  0  0  0
  -24.8029  -13.3783   20.1778 C   0  0  0  0  0  0  0  0  0  0  0  0
  -27.7558  -24.5024   24.6797 C   0  0  0  0  0  0  0  0  0  0  0  0
  -29.0557  -24.7850   24.8661 C   0  0  0  0  0  0  0  0  0  0  0  0
  -22.6733  -12.1945   20.7363 C   0  0  0  0  0  0  0  0  0  0  0  0
  -24.6958  -32.6967   23.6010 C   0  0  0  0  0  0  0  0  0  0  0  0
  -22.7029  -31.2358   21.4994 C   0  0  0  0  0  0  0  0  0  0  0  0
  -21.5440  -27.8779   20.8680 C   0  0  0  0  0  0  0  0  0  0  0  0
  -28.9118  -17.1246   20.4697 C   0  0  0  0  0  0  0  0  0  0  0  0
  -26.3254  -37.4450   24.5257 C   0  0  0  0  0  0  0  0  0  0  0  0
  -26.3202  -31.3550   22.2163 C   0  0  0  0  0  0  0  0  0  0  0  0
  -23.9959  -29.7329   23.0597 C   0  0  0  0  0  0  0  0  0  0  0  0
  -25.0865  -36.8205   23.8891 C   0  0  0  0  0  0  0  0  0  0  0  0
  -29.7450  -13.8983   19.2152 C   0  0  0  0  0  0  0  0  0  0  0  0
  -25.1515  -23.4965   25.3317 C   0  0  0  0  0  0  0  0  0  0  0  0
  -24.5224  -35.7218   24.7844 C   0  0  0  0  0  0  0  0  0  0  0  0
  -25.5457  -24.9048   25.7624 C   0  0  0  0  0  0  0  0  0  0  0  0
  -28.5274  -13.0439   19.5749 C   0  0  0  0  0  0  0  0  0  0  0  0
  -30.0576  -14.9260   20.3014 C   0  0  0  0  0  0  0  0  0  0  0  0
  -27.7108  -14.9257   21.0511 C   0  0  0  0  0  0  0  0  0  0  0  0
  -26.3686  -22.5824   25.2345 C   0  0  0  0  0  0  0  0  0  0  0  0
  -25.5395  -34.5904   24.9767 C   0  0  1  0  0  0  0  0  0  0  0  0
  -26.6215  -25.4882   24.8476 C   0  0  1  0  0  0  0  0  0  1  0  0
  -24.9191  -31.9504   22.3161 C   0  0  1  0  0  0  0  0  0  0  0  0
  -27.3178  -13.9193   19.9573 C   0  0  2  0  0  0  0  0  0  0  0  0
  -25.0427  -18.7918   21.2318 C   0  0  0  0  0  0  0  0  0  0  0  0
  -30.1527  -23.7936   24.6936 C   0  0  0  0  0  0  0  0  0  0  0  0
  -20.7313  -26.8035   18.7507 C   0  0  0  0  0  0  0  0  0  0  0  0
  -19.9327  -32.0318   22.5009 C   0  0  0  0  0  0  0  0  0  0  0  0
  -19.0640  -29.8574   21.6145 C   0  0  0  0  0  0  0  0  0  0  0  0
  -20.0535  -31.5326   20.0533 C   0  0  0  0  0  0  0  0  0  0  0  0
  -23.5299  -25.6936   21.0771 C   0  0  0  0  0  0  0  0  0  0  0  0
  -27.0991  -23.0453   22.8513 C   0  0  0  0  0  0  0  0  0  0  0  0
  -21.5703  -30.2441   21.6126 C   0  0  1  0  0  0  0  0  0  0  0  0
  -21.9128  -26.9959   19.6887 C   0  0  2  0  0  0  0  0  0  0  0  0
  -20.1764  -30.9169   21.4642 C   0  0  0  0  0  0  0  0  0  0  0  0
  -26.3301  -11.8996   20.9705 N   0  0  0  0  0  0  0  0  0  0  0  0
  -26.1208  -13.0788   20.3610 N   0  0  0  0  0  0  0  0  0  0  0  0
  -23.8664  -30.9369   22.2224 N   0  0  0  0  0  0  0  0  0  0  0  0
  -28.8667  -15.7212   20.6085 N   0  0  0  0  0  0  0  0  0  0  0  0
  -24.4150  -14.5255   19.5811 N   0  0  0  0  0  0  0  0  0  0  0  0
  -21.9831  -12.6974   21.8476 N   0  0  0  0  0  0  0  0  0  0  0  0
  -27.7106  -17.7714   20.7583 N   0  0  0  0  0  0  0  0  0  0  0  0
  -25.5776  -33.7406   23.8058 N   0  0  0  0  0  0  0  0  0  0  0  0
  -21.8392  -29.2030   20.6267 N   0  0  0  0  0  0  0  0  0  0  0  0
  -27.4304  -23.1407   24.3153 N   0  3  1  0  0  0  0  0  0  0  0  0
  -22.3588  -25.6557   20.1638 N   0  3  0  0  0  0  0  0  0  0  0  0
  -22.0302  -11.6366   19.8150 O   0  0  0  0  0  0  0  0  0  0  0  0
  -23.7895  -32.3518   24.3503 O   0  0  0  0  0  0  0  0  0  0  0  0
  -22.5631  -32.2351   20.7898 O   0  0  0  0  0  0  0  0  0  0  0  0
  -21.0406  -27.4361   21.8985 O   0  0  0  0  0  0  0  0  0  0  0  0
  -29.9325  -17.7071   20.0944 O   0  0  0  0  0  0  0  0  0  0  0  0
  -24.3107   -6.5080   23.6907 O   0  0  0  0  0  0  0  0  0  0  0  0
  -27.0691  -26.7250   25.3934 O   0  0  0  0  0  0  0  0  0  1  0  0
  -19.3076   -4.2164   23.3418 F   0  0  0  0  0  0  0  0  0  0  0  0
  -23.9654   -4.0272   22.5207 F   0  0  0  0  0  0  0  0  0  0  0  0
  1  2  1  0  0  0  0
  1  5  2  0  0  0  0
  2  6  2  0  0  0  0
  3 10  2  0  0  0  0
  3 18  1  0  0  0  0
  4 11  1  0  0  0  0
  4 18  2  0  0  0  0
  5 20  1  0  0  0  0
  6 22  1  0  0  0  0
  7 12  2  0  0  0  0
  7 21  1  0  0  0  0
  8  9  2  0  0  0  0
  8 24  1  0  0  0  0
  9 26  1  0  0  0  0
 10 27  1  0  0  0  0
 11 27  2  0  0  0  0
 12 28  1  0  0  0  0
 13 14  2  0  0  0  0
 13 29  1  0  0  0  0
 14 30  1  0  0  0  0
 15 23  1  0  0  0  0
 15 28  2  0  0  0  0
 16 24  2  0  0  0  0
 16 25  1  0  0  0  0
 17 30  2  0  0  0  0
 17 31  1  0  0  0  0
 18 32  1  0  0  0  0
 19 32  1  0  0  0  0
 19 33  2  0  0  0  0
 19 36  1  0  0  0  0
 20 22  2  0  0  0  0
 20 41  1  0  0  0  0
 21 23  2  0  0  0  0
 21 42  1  0  0  0  0
 22 53  1  0  0  0  0
 23 43  1  0  0  0  0
 24 64  1  0  0  0  0
 25 26  2  0  0  0  0
 25 57  1  0  0  0  0
 26 74  1  0  0  0  0
 27 84  1  0  0  0  0
 28 85  1  0  0  0  0
 29 31  2  0  0  0  0
 29 84  1  0  0  0  0
 30 86  1  0  0  0  0
 31 87  1  0  0  0  0
 32 68  2  0  0  0  0
 33 69  1  0  0  0  0
 33 72  1  0  0  0  0
 34 35  2  0  0  0  0
 34 54  1  0  0  0  0
 34 77  1  0  0  0  0
 35 58  1  0  0  0  0
 36 73  1  0  0  0  0
 36 79  2  0  0  0  0
 37 55  1  0  0  0  0
 37 75  1  0  0  0  0
 37 80  2  0  0  0  0
 38 65  1  0  0  0  0
 38 70  1  0  0  0  0
 38 81  2  0  0  0  0
 39 66  1  0  0  0  0
 39 76  1  0  0  0  0
 39 82  2  0  0  0  0
 40 71  1  0  0  0  0
 40 74  1  0  0  0  0
 40 83  2  0  0  0  0
 41 44  1  0  0  0  0
 42 55  1  0  0  0  0
 43 70  1  0  0  0  0
 44 47  1  0  0  0  0
 45 49  1  0  0  0  0
 45 50  1  0  0  0  0
 46 48  1  0  0  0  0
 46 52  1  0  0  0  0
 47 53  1  0  0  0  0
 48 54  1  0  0  0  0
 49 56  1  0  0  0  0
 50 71  1  0  0  0  0
 51 56  1  0  0  0  0
 51 71  1  0  0  0  0
 52 77  1  0  0  0  0
 53 75  1  0  0  0  0
 54 85  1  0  0  0  0
 55 70  1  0  0  0  0
 56 69  1  0  0  0  0
 59 66  1  0  0  0  0
 60 67  1  0  0  0  0
 61 67  1  0  0  0  0
 62 67  1  0  0  0  0
 63 78  1  0  0  0  0
 64 77  1  0  0  0  0
 65 67  1  0  0  0  0
 65 76  1  0  0  0  0
 66 78  1  0  0  0  0
 68 69  1  0  0  0  0
M  CHG  2  77   1  78   1
M  ISO  4  40 100  54 101  74 100  85 101
M  END
> <Batch ID>
0045

> <Smiles>
CC=C1N(Cc2ccc([100NH:0][100C:0](=O)N3CCCC(n4nc(-c5ccc(Oc6ccc(F)cc6F)cc5)c(C(N)=O)c4N)C3)c(C)c2)CCC[101CH:1]1[101O:1]c1ccc2c(c1)CN(C(=O)C(NC(=O)C(C)NC)C(C)(C)C)C(C(=O)NC1CCCc3ccccc31)C2

> <Shape>
0.281

> <Color>
0.120

> <Negative vol penalty>
0.000

$$$$

  -OEChem-04042322213D

 83 91  0     1  0  0  0  0  0999 V2000
  -26.4116   -3.0934   29.5230 C   0  0  0  0  0  0  0  0  0  0  0  0
  -27.2811   -4.1780   29.4691 C   0  0  0  0  0  0  0  0  0  0  0  0
  -23.1902   -9.8195   19.9318 C   0  0  0  0  0  0  0  0  0  0  0  0
  -23.5704   -9.9990   22.3109 C   0  0  0  0  0  0  0  0  0  0  0  0
  -33.3883  -11.7948   25.1071 C   0  0  0  0  0  0  0  0  0  0  0  0
  -25.0428   -3.2892   29.3448 C   0  0  0  0  0  0  0  0  0  0  0  0
  -26.7823   -5.4591   29.2357 C   0  0  0  0  0  0  0  0  0  0  0  0
  -28.8095   -8.9252   32.3214 C   0  0  0  0  0  0  0  0  0  0  0  0
  -32.6604  -12.1060   23.9587 C   0  0  0  0  0  0  0  0  0  0  0  0
  -22.4244   -8.6726   20.1406 C   0  0  0  0  0  0  0  0  0  0  0  0
  -22.8045   -8.8520   22.5198 C   0  0  0  0  0  0  0  0  0  0  0  0
  -30.0926   -9.3770   32.0160 C   0  0  0  0  0  0  0  0  0  0  0  0
  -23.2063   -5.5055   22.2539 C   0  0  0  0  0  0  0  0  0  0  0  0
  -23.7056   -4.5440   23.1323 C   0  0  0  0  0  0  0  0  0  0  0  0
  -29.1498  -11.3586   31.0141 C   0  0  0  0  0  0  0  0  0  0  0  0
  -30.7007  -12.5145   25.3115 C   0  0  0  0  0  0  0  0  0  0  0  0
  -21.7501   -4.8028   24.5274 C   0  0  0  0  0  0  0  0  0  0  0  0
  -23.7633  -10.4827   21.0169 C   0  0  0  0  0  0  0  0  0  0  0  0
  -32.7724  -11.8433   26.3577 C   0  0  0  0  0  0  0  0  0  0  0  0
  -24.1011  -12.9995   20.7740 C   0  0  0  0  0  0  0  0  0  0  0  0
  -24.5259   -4.5746   29.1187 C   0  0  0  0  0  0  0  0  0  0  0  0
  -27.6845   -9.6828   31.9652 C   0  0  0  0  0  0  0  0  0  0  0  0
  -25.4054   -5.6721   29.0529 C   0  0  0  0  0  0  0  0  0  0  0  0
  -27.8536  -10.9154   31.3185 C   0  0  0  0  0  0  0  0  0  0  0  0
  -31.3166  -12.4659   24.0608 C   0  0  0  0  0  0  0  0  0  0  0  0
  -22.2315   -8.1888   21.4346 C   0  0  0  0  0  0  0  0  0  0  0  0
  -30.2628  -10.5924   31.3596 C   0  0  0  0  0  0  0  0  0  0  0  0
  -21.9789   -6.1159   22.5123 C   0  0  0  0  0  0  0  0  0  0  0  0
  -22.9776   -4.1926   24.2690 C   0  0  0  0  0  0  0  0  0  0  0  0
  -31.4286  -12.2032   26.4599 C   0  0  0  0  0  0  0  0  0  0  0  0
  -21.2508   -5.7645   23.6490 C   0  0  0  0  0  0  0  0  0  0  0  0
  -24.5549  -11.6672   20.8017 C   0  0  0  0  0  0  0  0  0  0  0  0
  -25.2319  -13.7426   20.5381 C   0  0  0  0  0  0  0  0  0  0  0  0
  -33.5456  -11.5127   27.5716 C   0  0  0  0  0  0  0  0  0  0  0  0
  -22.7759  -13.5190   20.9461 C   0  0  0  0  0  0  0  0  0  0  0  0
  -25.1718   -9.2151   30.0755 C   0  0  0  0  0  0  0  0  0  0  0  0
  -24.2011  -12.0501   31.3176 C   0  0  0  0  0  0  0  0  0  0  0  0
  -25.0472  -15.0052   32.8002 C   0  0  0  0  0  0  0  0  0  0  0  0
  -31.0374  -12.7831   21.5773 C   0  0  0  0  0  0  0  0  0  0  0  0
  -23.0441   -4.7304   28.8848 C   0  0  0  0  0  0  0  0  0  0  0  0
  -26.3084   -9.1942   32.3257 C   0  0  0  0  0  0  0  0  0  0  0  0
  -26.6794  -11.7761   30.9326 C   0  0  0  0  0  0  0  0  0  0  0  0
  -22.5550   -6.1706   29.0150 C   0  0  0  0  0  0  0  0  0  0  0  0
  -29.5223  -13.4656   18.4284 C   0  0  0  0  0  0  0  0  0  0  0  0
  -23.4773   -7.1183   28.2549 C   0  0  0  0  0  0  0  0  0  0  0  0
  -28.0344  -13.2090   18.6788 C   0  0  0  0  0  0  0  0  0  0  0  0
  -30.4043  -12.4805   19.1935 C   0  0  0  0  0  0  0  0  0  0  0  0
  -28.6459  -12.1379   20.8846 C   0  0  0  0  0  0  0  0  0  0  0  0
  -24.8998   -7.0804   28.8265 C   0  0  1  0  0  0  0  0  0  0  0  0
  -25.2117   -9.8032   31.4576 C   0  0  1  0  0  0  0  0  0  0  0  0
  -27.7192  -13.1464   20.1862 C   0  0  2  0  0  0  0  0  0  0  0  0
  -24.0403  -17.1361   33.6621 C   0  0  0  0  0  0  0  0  0  0  0  0
  -23.8676  -13.0481   28.4535 C   0  0  0  0  0  0  0  0  0  0  0  0
  -23.7961  -15.3847   29.3500 C   0  0  0  0  0  0  0  0  0  0  0  0
  -22.0436  -13.7400   30.0184 C   0  0  0  0  0  0  0  0  0  0  0  0
  -26.0082  -14.4831   35.5503 C   0  0  0  0  0  0  0  0  0  0  0  0
  -33.5531  -10.6088   29.8693 C   0  0  0  0  0  0  0  0  0  0  0  0
  -32.5124  -10.0455   30.8156 C   0  0  0  0  0  0  0  0  0  1  0  0
  -24.3849  -13.5007   30.9422 C   0  0  1  0  0  0  0  0  0  0  0  0
  -24.4803  -15.7229   34.0118 C   0  0  2  0  0  0  0  0  0  0  0  0
  -23.5453  -13.9015   29.6964 C   0  0  0  0  0  0  0  0  0  0  0  0
  -25.8713  -11.5666   20.5995 N   0  0  0  0  0  0  0  0  0  0  0  0
  -26.2544  -12.8451   20.4423 N   0  0  0  0  0  0  0  0  0  0  0  0
  -25.3539  -11.2522   31.3011 N   0  0  0  0  0  0  0  0  0  0  0  0
  -30.0517  -12.4783   20.6150 N   0  0  0  0  0  0  0  0  0  0  0  0
  -25.4414  -15.0696   20.4052 N   0  0  0  0  0  0  0  0  0  0  0  0
  -34.8546  -11.7646   27.5705 N   0  0  0  0  0  0  0  0  0  0  0  0
  -21.7296  -12.6164   21.1806 N   0  0  0  0  0  0  0  0  0  0  0  0
  -30.5777  -12.7821   22.8938 N   0  0  0  0  0  0  0  0  0  0  0  0
  -24.9729   -7.8479   30.0513 N   0  0  0  0  0  0  0  0  0  0  0  0
  -24.0814  -14.2743   32.1413 N   0  0  0  0  0  0  0  0  0  0  0  0
  -32.8971  -10.9751   28.6116 N   0  3  0  0  0  0  0  0  0  0  0  0
  -25.5037  -15.8032   35.0922 N   0  3  0  0  0  0  0  0  0  0  0  0
  -22.5243  -14.7460   20.8772 O   0  0  0  0  0  0  0  0  0  0  0  0
  -25.3098   -9.9478   29.1029 O   0  0  0  0  0  0  0  0  0  0  0  0
  -23.0775  -11.6417   31.6213 O   0  0  0  0  0  0  0  0  0  0  0  0
  -26.2279  -15.0879   32.4691 O   0  0  0  0  0  0  0  0  0  0  0  0
  -32.1972  -13.0536   21.2551 O   0  0  0  0  0  0  0  0  0  0  0  0
  -21.4841   -7.0698   21.6388 O   0  0  0  0  0  0  0  0  0  0  0  0
  -31.5140  -11.0355   31.0597 O   0  0  0  0  0  0  0  0  0  1  0  0
  -23.4565   -3.2680   25.1116 F   0  0  0  0  0  0  0  0  0  0  0  0
  -30.8276  -12.2508   27.6571 F   0  0  0  0  0  0  0  0  0  0  0  0
  -20.0705   -6.3465   23.9018 F   0  0  0  0  0  0  0  0  0  0  0  0
  1  2  1  0  0  0  0
  1  6  2  0  0  0  0
  2  7  2  0  0  0  0
  3 10  2  0  0  0  0
  3 18  1  0  0  0  0
  4 11  1  0  0  0  0
  4 18  2  0  0  0  0
  5  9  2  0  0  0  0
  5 19  1  0  0  0  0
  6 21  1  0  0  0  0
  7 23  1  0  0  0  0
  8 12  2  0  0  0  0
  8 22  1  0  0  0  0
  9 25  1  0  0  0  0
 10 26  1  0  0  0  0
 11 26  2  0  0  0  0
 12 27  1  0  0  0  0
 13 14  2  0  0  0  0
 13 28  1  0  0  0  0
 14 29  1  0  0  0  0
 15 24  1  0  0  0  0
 15 27  2  0  0  0  0
 16 25  2  0  0  0  0
 16 30  1  0  0  0  0
 17 29  2  0  0  0  0
 17 31  1  0  0  0  0
 18 32  1  0  0  0  0
 19 30  2  0  0  0  0
 19 34  1  0  0  0  0
 20 32  1  0  0  0  0
 20 33  2  0  0  0  0
 20 35  1  0  0  0  0
 21 23  2  0  0  0  0
 21 40  1  0  0  0  0
 22 24  2  0  0  0  0
 22 41  1  0  0  0  0
 23 49  1  0  0  0  0
 24 42  1  0  0  0  0
 25 69  1  0  0  0  0
 26 79  1  0  0  0  0
 27 80  1  0  0  0  0
 28 31  2  0  0  0  0
 28 79  1  0  0  0  0
 29 81  1  0  0  0  0
 30 82  1  0  0  0  0
 31 83  1  0  0  0  0
 32 62  2  0  0  0  0
 33 63  1  0  0  0  0
 33 66  1  0  0  0  0
 34 67  1  0  0  0  0
 34 72  2  0  0  0  0
 35 68  1  0  0  0  0
 35 74  2  0  0  0  0
 36 50  1  0  0  0  0
 36 70  1  0  0  0  0
 36 75  2  0  0  0  0
 37 59  1  0  0  0  0
 37 64  1  0  0  0  0
 37 76  2  0  0  0  0
 38 60  1  0  0  0  0
 38 71  1  0  0  0  0
 38 77  2  0  0  0  0
 39 65  1  0  0  0  0
 39 69  1  0  0  0  0
 39 78  2  0  0  0  0
 40 43  1  0  0  0  0
 41 50  1  0  0  0  0
 42 64  1  0  0  0  0
 43 45  1  0  0  0  0
 44 46  1  0  0  0  0
 44 47  1  0  0  0  0
 45 49  1  0  0  0  0
 46 51  1  0  0  0  0
 47 65  1  0  0  0  0
 48 51  1  0  0  0  0
 48 65  1  0  0  0  0
 49 70  1  0  0  0  0
 50 64  1  0  0  0  0
 51 63  1  0  0  0  0
 52 60  1  0  0  0  0
 53 61  1  0  0  0  0
 54 61  1  0  0  0  0
 55 61  1  0  0  0  0
 56 73  1  0  0  0  0
 57 58  1  0  0  0  0
 57 72  1  0  0  0  0
 58 80  1  0  0  0  0
 59 61  1  0  0  0  0
 59 71  1  0  0  0  0
 60 73  1  0  0  0  0
 62 63  1  0  0  0  0
M  CHG  2  72   1  73   1
M  ISO  4  39 100  58 101  69 100  80 101
M  END
> <Batch ID>
0045

> <Smiles>
CNC(C)C(=O)NC(C(=O)N1Cc2cc([101O:1][101CH2:1]CNC(=N)c3ccc([100NH:0][100C:0](=O)N4CCCC(n5nc(-c6ccc(Oc7ccc(F)cc7F)cc6)c(C(N)=O)c5N)C4)cc3F)ccc2CC1C(=O)NC1CCCc2ccccc21)C(C)(C)C

> <Shape>
0.140

> <Color>
0.178

> <Negative vol penalty>
0.000

$$$$

  -OEChem-04042322213D

 87 96  0     1  0  0  0  0  0999 V2000
  -20.3302  -31.4239   22.3028 C   0  0  0  0  0  0  0  0  0  0  0  0
  -21.5813  -30.8218   22.2152 C   0  0  0  0  0  0  0  0  0  0  0  0
  -23.8057  -16.0316   25.4364 C   0  0  0  0  0  0  0  0  0  0  0  0
  -25.3538  -14.2351   25.8977 C   0  0  0  0  0  0  0  0  0  0  0  0
  -19.1888  -30.6379   22.4553 C   0  0  0  0  0  0  0  0  0  0  0  0
  -21.6917  -29.4333   22.2811 C   0  0  0  0  0  0  0  0  0  0  0  0
  -31.8402  -22.2841   21.6879 C   0  0  0  0  0  0  0  0  0  0  0  0
  -24.8275  -27.5649   18.7709 C   0  0  0  0  0  0  0  0  0  0  0  0
  -31.4534  -20.9611   21.4741 C   0  0  0  0  0  0  0  0  0  0  0  0
  -23.3424  -15.9699   26.7506 C   0  0  0  0  0  0  0  0  0  0  0  0
  -24.8906  -14.1734   27.2120 C   0  0  0  0  0  0  0  0  0  0  0  0
  -26.1956  -27.6780   19.0143 C   0  0  0  0  0  0  0  0  0  0  0  0
  -22.2251  -12.9001   28.8567 C   0  0  0  0  0  0  0  0  0  0  0  0
  -21.9634  -11.6394   29.3930 C   0  0  0  0  0  0  0  0  0  0  0  0
  -26.2481  -25.3819   19.7519 C   0  0  0  0  0  0  0  0  0  0  0  0
  -29.5214  -22.9272   21.9034 C   0  0  0  0  0  0  0  0  0  0  0  0
  -23.6013  -12.0359   31.1243 C   0  0  0  0  0  0  0  0  0  0  0  0
  -24.8114  -15.1642   25.0099 C   0  0  0  0  0  0  0  0  0  0  0  0
  -24.5402  -15.0329   22.4768 C   0  0  0  0  0  0  0  0  0  0  0  0
  -30.8742  -23.2672   21.9026 C   0  0  0  0  0  0  0  0  0  0  0  0
  -19.2843  -29.2386   22.5134 C   0  0  0  0  0  0  0  0  0  0  0  0
  -24.1562  -26.3606   19.0270 C   0  0  0  0  0  0  0  0  0  0  0  0
  -20.5506  -28.6279   22.4359 C   0  0  0  0  0  0  0  0  0  0  0  0
  -24.8720  -25.2553   19.5085 C   0  0  0  0  0  0  0  0  0  0  0  0
  -30.1006  -20.6212   21.4749 C   0  0  0  0  0  0  0  0  0  0  0  0
  -23.8848  -15.0408   27.6384 C   0  0  0  0  0  0  0  0  0  0  0  0
  -26.9056  -26.5873   19.5076 C   0  0  0  0  0  0  0  0  0  0  0  0
  -23.1750  -13.7287   29.4541 C   0  0  0  0  0  0  0  0  0  0  0  0
  -22.6514  -11.2073   30.5269 C   0  0  0  0  0  0  0  0  0  0  0  0
  -23.8630  -13.2966   30.5880 C   0  0  0  0  0  0  0  0  0  0  0  0
  -29.1346  -21.6042   21.6895 C   0  0  0  0  0  0  0  0  0  0  0  0
  -25.2900  -15.2271   23.6523 C   0  0  0  0  0  0  0  0  0  0  0  0
  -25.4480  -15.1975   21.4593 C   0  0  0  0  0  0  0  0  0  0  0  0
  -30.8347  -25.6315   21.0013 C   0  0  0  0  0  0  0  0  0  0  0  0
  -23.1476  -14.7308   22.3186 C   0  0  0  0  0  0  0  0  0  0  0  0
  -21.7958  -25.4761   20.9635 C   0  0  0  0  0  0  0  0  0  0  0  0
  -22.0610  -22.6656   19.3656 C   0  0  0  0  0  0  0  0  0  0  0  0
  -24.0033  -20.5587   17.5121 C   0  0  0  0  0  0  0  0  0  0  0  0
  -30.6009  -18.1924   21.0311 C   0  0  0  0  0  0  0  0  0  0  0  0
  -18.0270  -28.4333   22.7264 C   0  0  0  0  0  0  0  0  0  0  0  0
  -22.6853  -26.2467   18.7339 C   0  0  0  0  0  0  0  0  0  0  0  0
  -24.2020  -23.9341   19.7807 C   0  0  0  0  0  0  0  0  0  0  0  0
  -18.1936  -26.9490   22.4113 C   0  0  0  0  0  0  0  0  0  0  0  0
  -31.2697  -26.6194   23.7222 C   0  0  0  0  0  0  0  0  0  0  0  0
  -30.1115  -14.7080   20.4861 C   0  0  0  0  0  0  0  0  0  0  0  0
  -30.8725  -25.1698   23.5293 C   0  0  0  0  0  0  0  0  0  0  0  0
  -19.4738  -26.4099   23.0415 C   0  0  0  0  0  0  0  0  0  0  0  0
  -28.7485  -14.4293   21.1239 C   0  0  0  0  0  0  0  0  0  0  0  0
  -30.5477  -27.4759   22.7012 C   0  0  0  0  0  0  0  0  0  0  0  0
  -30.9096  -15.7394   21.2817 C   0  0  0  0  0  0  0  0  0  0  0  0
  -28.8395  -16.7190   22.1897 C   0  0  0  0  0  0  0  0  0  0  0  0
  -31.2964  -24.7088   22.1352 C   0  0  1  0  0  0  0  0  0  0  0  0
  -20.7088  -27.1235   22.4785 C   0  0  1  0  0  0  0  0  0  0  0  0
  -22.0049  -25.1280   19.5168 C   0  0  1  0  0  0  0  0  0  0  0  0
  -27.9724  -15.7345   21.3881 C   0  0  2  0  0  0  0  0  0  0  0  0
  -23.9563  -18.3184   16.3824 C   0  0  0  0  0  0  0  0  0  0  0  0
  -22.3483  -21.2952   22.0766 C   0  0  0  0  0  0  0  0  0  0  0  0
  -23.2315  -19.2781   20.8852 C   0  0  0  0  0  0  0  0  0  0  0  0
  -20.9097  -20.0723   20.4367 C   0  0  0  0  0  0  0  0  0  0  0  0
  -24.4919  -21.7604   14.8520 C   0  0  0  0  0  0  0  0  0  0  0  0
  -30.2394  -27.9165   20.2900 C   0  0  0  0  0  0  0  0  0  0  0  0
  -28.7326  -27.9829   20.1161 C   0  0  0  0  0  0  0  0  0  1  0  0
  -22.8678  -21.4030   19.5498 C   0  0  1  0  0  0  0  0  0  0  0  0
  -23.7299  -19.8132   16.2183 C   0  0  2  0  0  0  0  0  0  0  0  0
  -22.3519  -20.5375   20.7339 C   0  0  0  0  0  0  0  0  0  0  0  0
  -26.5752  -15.4945   23.4059 N   0  0  0  0  0  0  0  0  0  0  0  0
  -26.6401  -15.4694   22.0638 N   0  0  0  0  0  0  0  0  0  0  0  0
  -30.6234  -26.9714   21.3309 N   0  0  0  0  0  0  0  0  0  0  0  0
  -22.7612  -23.8745   19.4842 N   0  0  0  0  0  0  0  0  0  0  0  0
  -30.1128  -16.9505   21.4897 N   0  0  0  0  0  0  0  0  0  0  0  0
  -25.3350  -15.1347   20.1156 N   0  0  0  0  0  0  0  0  0  0  0  0
  -22.3584  -14.5955   23.4690 N   0  0  0  0  0  0  0  0  0  0  0  0
  -29.7423  -19.2679   21.2558 N   0  0  0  0  0  0  0  0  0  0  0  0
  -21.0335  -26.6109   21.1646 N   0  0  0  0  0  0  0  0  0  0  0  0
  -22.8567  -20.7198   18.2609 N   0  0  0  0  0  0  0  0  0  0  0  0
  -24.6265  -20.3084   15.1358 N   0  3  0  0  0  0  0  0  0  0  0  0
  -30.7445  -25.1958   19.8491 O   0  0  0  0  0  0  0  0  0  0  0  0
  -22.6221  -14.5689   21.1911 O   0  0  0  0  0  0  0  0  0  0  0  0
  -22.2883  -24.7667   21.8329 O   0  0  0  0  0  0  0  0  0  0  0  0
  -20.8554  -22.5821   19.1182 O   0  0  0  0  0  0  0  0  0  0  0  0
  -25.1228  -20.9550   17.8287 O   0  0  0  0  0  0  0  0  0  0  0  0
  -31.6877  -18.2899   20.4554 O   0  0  0  0  0  0  0  0  0  0  0  0
  -23.4332  -14.9804   28.9209 O   0  0  0  0  0  0  0  0  0  0  0  0
  -28.2409  -26.6953   19.7466 O   0  0  0  0  0  0  0  0  0  1  0  0
  -22.3989   -9.9972   31.0427 F   0  0  0  0  0  0  0  0  0  0  0  0
  -24.7758  -14.0887   31.1670 F   0  0  0  0  0  0  0  0  0  0  0  0
  -27.4486  -21.2268   21.6982 Cl  0  0  0  0  0  0  0  0  0  0  0  0
  1  2  1  0  0  0  0
  1  5  2  0  0  0  0
  2  6  2  0  0  0  0
  3 10  2  0  0  0  0
  3 18  1  0  0  0  0
  4 11  1  0  0  0  0
  4 18  2  0  0  0  0
  5 21  1  0  0  0  0
  6 23  1  0  0  0  0
  7  9  2  0  0  0  0
  7 20  1  0  0  0  0
  8 12  2  0  0  0  0
  8 22  1  0  0  0  0
  9 25  1  0  0  0  0
 10 26  1  0  0  0  0
 11 26  2  0  0  0  0
 12 27  1  0  0  0  0
 13 14  2  0  0  0  0
 13 28  1  0  0  0  0
 14 29  1  0  0  0  0
 15 24  1  0  0  0  0
 15 27  2  0  0  0  0
 16 20  2  0  0  0  0
 16 31  1  0  0  0  0
 17 29  2  0  0  0  0
 17 30  1  0  0  0  0
 18 32  1  0  0  0  0
 19 32  1  0  0  0  0
 19 33  2  0  0  0  0
 19 35  1  0  0  0  0
 20 52  1  0  0  0  0
 21 23  2  0  0  0  0
 21 40  1  0  0  0  0
 22 24  2  0  0  0  0
 22 41  1  0  0  0  0
 23 53  1  0  0  0  0
 24 42  1  0  0  0  0
 25 31  2  0  0  0  0
 25 73  1  0  0  0  0
 26 83  1  0  0  0  0
 27 84  1  0  0  0  0
 28 30  2  0  0  0  0
 28 83  1  0  0  0  0
 29 85  1  0  0  0  0
 30 86  1  0  0  0  0
 31 87  1  0  0  0  0
 32 66  2  0  0  0  0
 33 67  1  0  0  0  0
 33 71  1  0  0  0  0
 34 52  1  0  0  0  0
 34 68  1  0  0  0  0
 34 77  2  0  0  0  0
 35 72  1  0  0  0  0
 35 78  2  0  0  0  0
 36 54  1  0  0  0  0
 36 74  1  0  0  0  0
 36 79  2  0  0  0  0
 37 63  1  0  0  0  0
 37 69  1  0  0  0  0
 37 80  2  0  0  0  0
 38 64  1  0  0  0  0
 38 75  1  0  0  0  0
 38 81  2  0  0  0  0
 39 70  1  0  0  0  0
 39 73  1  0  0  0  0
 39 82  2  0  0  0  0
 40 43  1  0  0  0  0
 41 54  1  0  0  0  0
 42 69  1  0  0  0  0
 43 47  1  0  0  0  0
 44 46  1  0  0  0  0
 44 49  1  0  0  0  0
 45 48  1  0  0  0  0
 45 50  1  0  0  0  0
 46 52  1  0  0  0  0
 47 53  1  0  0  0  0
 48 55  1  0  0  0  0
 49 68  1  0  0  0  0
 50 70  1  0  0  0  0
 51 55  1  0  0  0  0
 51 70  1  0  0  0  0
 53 74  1  0  0  0  0
 54 69  1  0  0  0  0
 55 67  1  0  0  0  0
 56 64  1  0  0  0  0
 57 65  1  0  0  0  0
 58 65  1  0  0  0  0
 59 65  1  0  0  0  0
 60 76  1  0  0  0  0
 61 62  1  0  0  0  0
 61 68  1  0  0  0  0
 62 84  1  0  0  0  0
 63 65  1  0  0  0  0
 63 75  1  0  0  0  0
 64 76  1  0  0  0  0
 66 67  1  0  0  0  0
M  CHG  1  76   1
M  ISO  4  39 100  62 101  73 100  84 101
M  END
> <Batch ID>
0045

> <Smiles>
CNC(C)C(=O)NC(C(=O)N1Cc2cc([101O:1][101CH2:1]CN3CCCC(c4ccc([100NH:0][100C:0](=O)N5CCCC(n6nc(-c7ccc(Oc8ccc(F)cc8F)cc7)c(C(N)=O)c6N)C5)c(Cl)c4)C3=O)ccc2CC1C(=O)NC1CCCc2ccccc21)C(C)(C)C

> <Shape>
0.172

> <Color>
0.106

> <Negative vol penalty>
0.000

$$$$

  -OEChem-04042322213D

 86 95  0     1  0  0  0  0  0999 V2000
  -29.1817  -32.4281   26.3624 C   0  0  0  0  0  0  0  0  0  0  0  0
  -28.8835  -31.2390   25.7047 C   0  0  0  0  0  0  0  0  0  0  0  0
  -22.7543  -10.3709   20.6531 C   0  0  0  0  0  0  0  0  0  0  0  0
  -24.5871   -9.2069   21.7128 C   0  0  0  0  0  0  0  0  0  0  0  0
  -28.1747  -33.3618   26.6029 C   0  0  0  0  0  0  0  0  0  0  0  0
  -27.5777  -30.9825   25.2881 C   0  0  0  0  0  0  0  0  0  0  0  0
  -27.3686  -29.1366   20.5771 C   0  0  0  0  0  0  0  0  0  0  0  0
  -27.5700  -20.4035   16.2130 C   0  0  0  0  0  0  0  0  0  0  0  0
  -27.0631  -19.2063   15.7078 C   0  0  0  0  0  0  0  0  0  0  0  0
  -21.8457   -9.6092   21.3879 C   0  0  0  0  0  0  0  0  0  0  0  0
  -23.6786   -8.4452   22.4476 C   0  0  0  0  0  0  0  0  0  0  0  0
  -27.6799  -27.7883   20.4071 C   0  0  0  0  0  0  0  0  0  0  0  0
  -21.6845   -5.7640   21.9320 C   0  0  0  0  0  0  0  0  0  0  0  0
  -21.9115   -4.3906   22.0191 C   0  0  0  0  0  0  0  0  0  0  0  0
  -25.3273  -27.2620   20.3217 C   0  0  0  0  0  0  0  0  0  0  0  0
  -28.4754  -19.2183   18.1136 C   0  0  0  0  0  0  0  0  0  0  0  0
  -22.0648   -4.5685   24.4237 C   0  0  0  0  0  0  0  0  0  0  0  0
  -24.1251  -10.1697   20.8155 C   0  0  0  0  0  0  0  0  0  0  0  0
  -25.1787  -11.0236   18.6549 C   0  0  0  0  0  0  0  0  0  0  0  0
  -26.8578  -33.1209   26.1805 C   0  0  0  0  0  0  0  0  0  0  0  0
  -26.0319  -29.5571   20.6316 C   0  0  0  0  0  0  0  0  0  0  0  0
  -26.5518  -31.9133   25.5244 C   0  0  0  0  0  0  0  0  0  0  0  0
  -25.0016  -28.6165   20.4899 C   0  0  0  0  0  0  0  0  0  0  0  0
  -28.2763  -20.4095   17.4158 C   0  0  0  0  0  0  0  0  0  0  0  0
  -27.2623  -18.0150   16.4056 C   0  0  0  0  0  0  0  0  0  0  0  0
  -27.9685  -18.0210   17.6085 C   0  0  0  0  0  0  0  0  0  0  0  0
  -22.3078   -8.6464   22.2852 C   0  0  0  0  0  0  0  0  0  0  0  0
  -26.6592  -26.8504   20.2823 C   0  0  0  0  0  0  0  0  0  0  0  0
  -21.6478   -6.5398   23.0907 C   0  0  0  0  0  0  0  0  0  0  0  0
  -22.1016   -3.7928   23.2650 C   0  0  0  0  0  0  0  0  0  0  0  0
  -21.8379   -5.9421   24.3365 C   0  0  0  0  0  0  0  0  0  0  0  0
  -25.0641  -10.9558   20.0563 C   0  0  0  0  0  0  0  0  0  0  0  0
  -26.2119  -11.9020   18.4370 C   0  0  0  0  0  0  0  0  0  0  0  0
  -28.8257  -23.1401   19.9063 C   0  0  0  0  0  0  0  0  0  0  0  0
  -29.3078  -22.6981   21.0777 C   0  0  0  0  0  0  0  0  0  0  0  0
  -24.4190  -10.3528   17.6407 C   0  0  0  0  0  0  0  0  0  0  0  0
  -24.2161  -30.9820   22.8171 C   0  0  0  0  0  0  0  0  0  0  0  0
  -22.0428  -31.0388   20.4096 C   0  0  0  0  0  0  0  0  0  0  0  0
  -20.9233  -28.7909   17.8190 C   0  0  0  0  0  0  0  0  0  0  0  0
  -28.8640  -16.6723   19.5386 C   0  0  0  0  0  0  0  0  0  0  0  0
  -25.7936  -34.1392   26.5050 C   0  0  0  0  0  0  0  0  0  0  0  0
  -25.7128  -31.0185   20.7887 C   0  0  0  0  0  0  0  0  0  0  0  0
  -23.5506  -29.0190   20.5213 C   0  0  0  0  0  0  0  0  0  0  0  0
  -29.0483  -24.5434   19.4041 C   0  0  0  0  0  0  0  0  0  0  0  0
  -24.5101  -33.9568   25.6991 C   0  0  0  0  0  0  0  0  0  0  0  0
  -29.5731  -13.8969   21.6533 C   0  0  0  0  0  0  0  0  0  0  0  0
  -24.0856  -32.4916   25.6956 C   0  0  0  0  0  0  0  0  0  0  0  0
  -28.4726  -12.8899   21.3110 C   0  0  0  0  0  0  0  0  0  0  0  0
  -26.9071  -24.2375   18.0921 C   0  0  0  0  0  0  0  0  0  0  0  0
  -29.0559  -15.3341   21.6236 C   0  0  0  0  0  0  0  0  0  0  0  0
  -27.2721  -14.7155   20.0410 C   0  0  0  0  0  0  0  0  0  0  0  0
  -26.7147  -22.8687   18.7433 C   0  0  0  0  0  0  0  0  0  0  0  0
  -25.1523  -31.6098   25.0352 C   0  0  1  0  0  0  0  0  0  0  0  0
  -24.3146  -31.2684   21.3453 C   0  0  1  0  0  0  0  0  0  0  0  0
  -27.7609  -13.2586   19.9946 C   0  0  2  0  0  0  0  0  0  0  0  0
  -27.7300  -25.1827   18.9675 C   0  0  1  0  0  0  0  0  0  1  0  0
  -26.7072  -16.7476   15.8412 C   0  0  0  0  0  0  0  0  0  0  0  0
  -19.9085  -29.2654   15.5735 C   0  0  0  0  0  0  0  0  0  0  0  0
  -19.3815  -30.7248   21.8686 C   0  0  0  0  0  0  0  0  0  0  0  0
  -18.4847  -29.5661   19.8385 C   0  0  0  0  0  0  0  0  0  0  0  0
  -19.2383  -31.9393   19.6871 C   0  0  0  0  0  0  0  0  0  0  0  0
  -22.9864  -27.1953   16.4201 C   0  0  0  0  0  0  0  0  0  0  0  0
  -28.8213  -21.6978   17.9583 C   0  0  0  0  0  0  0  0  0  0  0  0
  -20.9614  -30.1044   19.9232 C   0  0  1  0  0  0  0  0  0  0  0  0
  -21.1825  -28.9205   16.3289 C   0  0  2  0  0  0  0  0  0  0  0  0
  -19.5398  -30.5739   20.3425 C   0  0  0  0  0  0  0  0  0  0  0  0
  -25.9536  -11.7292   20.6845 N   0  0  0  0  0  0  0  0  0  0  0  0
  -26.6371  -12.2914   19.6730 N   0  0  0  0  0  0  0  0  0  0  0  0
  -23.2896  -30.4589   20.6832 N   0  0  0  0  0  0  0  0  0  0  0  0
  -28.3979  -15.6127   20.3453 N   0  0  0  0  0  0  0  0  0  0  0  0
  -26.7892  -12.3714   17.3106 N   0  0  0  0  0  0  0  0  0  0  0  0
  -23.3932   -9.4847   18.0388 N   0  0  0  0  0  0  0  0  0  0  0  0
  -28.1818  -16.8212   18.3315 N   0  0  0  0  0  0  0  0  0  0  0  0
  -25.0830  -31.7262   23.5943 N   0  0  0  0  0  0  0  0  0  0  0  0
  -21.1484  -29.9789   18.4818 N   0  0  0  0  0  0  0  0  0  0  0  0
  -28.0300  -22.2290   19.1215 N   0  3  1  0  0  0  0  0  0  0  0  0
  -21.7207  -27.6422   15.7836 N   0  3  0  0  0  0  0  0  0  0  0  0
  -24.6541  -10.5056   16.4180 O   0  0  0  0  0  0  0  0  0  0  0  0
  -23.4120  -30.1486   23.2179 O   0  0  0  0  0  0  0  0  0  0  0  0
  -21.7925  -32.2401   20.5350 O   0  0  0  0  0  0  0  0  0  0  0  0
  -20.5543  -27.7417   18.3421 O   0  0  0  0  0  0  0  0  0  0  0  0
  -29.8172  -17.3771   19.8802 O   0  0  0  0  0  0  0  0  0  0  0  0
  -21.4215   -7.9032   23.0025 O   0  0  0  0  0  0  0  0  0  0  0  0
  -26.9604  -25.5336   20.1170 O   0  0  0  0  0  0  0  0  0  1  0  0
  -22.3181   -2.4736   23.3487 F   0  0  0  0  0  0  0  0  0  0  0  0
  -21.8025   -6.6820   25.4533 F   0  0  0  0  0  0  0  0  0  0  0  0
  1  2  1  0  0  0  0
  1  5  2  0  0  0  0
  2  6  2  0  0  0  0
  3 10  2  0  0  0  0
  3 18  1  0  0  0  0
  4 11  1  0  0  0  0
  4 18  2  0  0  0  0
  5 20  1  0  0  0  0
  6 22  1  0  0  0  0
  7 12  2  0  0  0  0
  7 21  1  0  0  0  0
  8  9  2  0  0  0  0
  8 24  1  0  0  0  0
  9 25  1  0  0  0  0
 10 27  1  0  0  0  0
 11 27  2  0  0  0  0
 12 28  1  0  0  0  0
 13 14  2  0  0  0  0
 13 29  1  0  0  0  0
 14 30  1  0  0  0  0
 15 23  1  0  0  0  0
 15 28  2  0  0  0  0
 16 24  2  0  0  0  0
 16 26  1  0  0  0  0
 17 30  2  0  0  0  0
 17 31  1  0  0  0  0
 18 32  1  0  0  0  0
 19 32  1  0  0  0  0
 19 33  2  0  0  0  0
 19 36  1  0  0  0  0
 20 22  2  0  0  0  0
 20 41  1  0  0  0  0
 21 23  2  0  0  0  0
 21 42  1  0  0  0  0
 22 53  1  0  0  0  0
 23 43  1  0  0  0  0
 24 63  1  0  0  0  0
 25 26  2  0  0  0  0
 25 57  1  0  0  0  0
 26 73  1  0  0  0  0
 27 83  1  0  0  0  0
 28 84  1  0  0  0  0
 29 31  2  0  0  0  0
 29 83  1  0  0  0  0
 30 85  1  0  0  0  0
 31 86  1  0  0  0  0
 32 67  2  0  0  0  0
 33 68  1  0  0  0  0
 33 71  1  0  0  0  0
 34 35  2  0  0  0  0
 34 44  1  0  0  0  0
 34 76  1  0  0  0  0
 36 72  1  0  0  0  0
 36 78  2  0  0  0  0
 37 54  1  0  0  0  0
 37 74  1  0  0  0  0
 37 79  2  0  0  0  0
 38 64  1  0  0  0  0
 38 69  1  0  0  0  0
 38 80  2  0  0  0  0
 39 65  1  0  0  0  0
 39 75  1  0  0  0  0
 39 81  2  0  0  0  0
 40 70  1  0  0  0  0
 40 73  1  0  0  0  0
 40 82  2  0  0  0  0
 41 45  1  0  0  0  0
 42 54  1  0  0  0  0
 43 69  1  0  0  0  0
 44 56  1  0  0  0  0
 45 47  1  0  0  0  0
 46 48  1  0  0  0  0
 46 50  1  0  0  0  0
 47 53  1  0  0  0  0
 48 55  1  0  0  0  0
 49 52  1  0  0  0  0
 49 56  1  0  0  0  0
 50 70  1  0  0  0  0
 51 55  1  0  0  0  0
 51 70  1  0  0  0  0
 52 76  1  0  0  0  0
 53 74  1  0  0  0  0
 54 69  1  0  0  0  0
 55 68  1  0  0  0  0
 56 84  1  0  0  0  0
 58 65  1  0  0  0  0
 59 66  1  0  0  0  0
 60 66  1  0  0  0  0
 61 66  1  0  0  0  0
 62 77  1  0  0  0  0
 63 76  1  0  0  0  0
 64 66  1  0  0  0  0
 64 75  1  0  0  0  0
 65 77  1  0  0  0  0
 67 68  1  0  0  0  0
M  CHG  2  76   1  77   1
M  ISO  4  40 100  56 101  73 100  84 101
M  END
> <Batch ID>
0045

> <Smiles>
C=C1C[101CH:1]([101O:1]c2ccc3c(c2)CN(C(=O)C(NC(=O)C(C)NC)C(C)(C)C)C(C(=O)NC2CCCc4ccccc42)C3)CCN1Cc1ccc(C)c([100NH:0][100C:0](=O)N2CCCC(n3nc(-c4ccc(Oc5ccc(F)cc5F)cc4)c(C(N)=O)c3N)C2)c1

> <Shape>
0.308

> <Color>
0.104

> <Negative vol penalty>
0.000

$$$$

  -OEChem-04042322213D

 87 96  0     1  0  0  0  0  0999 V2000
  -27.4849  -36.2229   17.0227 C   0  0  0  0  0  0  0  0  0  0  0  0
  -28.0333  -35.0533   17.5390 C   0  0  0  0  0  0  0  0  0  0  0  0
  -25.5410  -20.3168   21.3801 C   0  0  0  0  0  0  0  0  0  0  0  0
  -24.4774   -9.3717   21.9711 C   0  0  0  0  0  0  0  0  0  0  0  0
  -23.0075  -10.5088   20.4272 C   0  0  0  0  0  0  0  0  0  0  0  0
  -25.9838  -19.5375   20.3113 C   0  0  0  0  0  0  0  0  0  0  0  0
  -26.3567  -36.7848   17.6188 C   0  0  0  0  0  0  0  0  0  0  0  0
  -27.4545  -34.4454   18.6525 C   0  0  0  0  0  0  0  0  0  0  0  0
  -27.0953  -28.4400   19.7976 C   0  0  0  0  0  0  0  0  0  0  0  0
  -26.4620  -21.0044   22.1705 C   0  0  0  0  0  0  0  0  0  0  0  0
  -23.5831   -8.3032   22.0356 C   0  0  0  0  0  0  0  0  0  0  0  0
  -22.1132   -9.4402   20.4917 C   0  0  0  0  0  0  0  0  0  0  0  0
  -27.8623  -27.5891   20.5922 C   0  0  0  0  0  0  0  0  0  0  0  0
  -20.6664   -7.5870   23.5861 C   0  0  0  0  0  0  0  0  0  0  0  0
  -20.3734   -7.0631   24.8452 C   0  0  0  0  0  0  0  0  0  0  0  0
  -26.2716  -27.8419   22.3880 C   0  0  0  0  0  0  0  0  0  0  0  0
  -21.2225   -4.9115   24.1475 C   0  0  0  0  0  0  0  0  0  0  0  0
  -24.1896  -10.4745   21.1669 C   0  0  0  0  0  0  0  0  0  0  0  0
  -27.3475  -19.4458   20.0330 C   0  0  0  0  0  0  0  0  0  0  0  0
  -25.5439  -12.3918   22.1657 C   0  0  0  0  0  0  0  0  0  0  0  0
  -25.7580  -36.1783   18.7343 C   0  0  0  0  0  0  0  0  0  0  0  0
  -25.9143  -29.0078   20.2968 C   0  0  0  0  0  0  0  0  0  0  0  0
  -26.3180  -35.0005   19.2649 C   0  0  0  0  0  0  0  0  0  0  0  0
  -25.4900  -28.6977   21.5968 C   0  0  0  0  0  0  0  0  0  0  0  0
  -27.8257  -20.9127   21.8922 C   0  0  0  0  0  0  0  0  0  0  0  0
  -28.2685  -20.1334   20.8235 C   0  0  0  0  0  0  0  0  0  0  0  0
  -22.4010   -8.3375   21.2959 C   0  0  0  0  0  0  0  0  0  0  0  0
  -27.4520  -27.2922   21.8886 C   0  0  0  0  0  0  0  0  0  0  0  0
  -21.2373   -6.7731   22.6077 C   0  0  0  0  0  0  0  0  0  0  0  0
  -20.6515   -5.7254   25.1259 C   0  0  0  0  0  0  0  0  0  0  0  0
  -21.5154   -5.4354   22.8884 C   0  0  0  0  0  0  0  0  0  0  0  0
  -25.1127  -11.5788   21.1003 C   0  0  0  0  0  0  0  0  0  0  0  0
  -26.4095  -13.2869   21.5860 C   0  0  0  0  0  0  0  0  0  0  0  0
  -28.2979  -24.0686   22.5503 C   0  0  0  0  0  0  0  0  0  0  0  0
  -27.7848  -18.6158   18.8965 C   0  0  0  0  0  0  0  0  0  0  0  0
  -25.1934  -12.3423   23.5550 C   0  0  0  0  0  0  0  0  0  0  0  0
  -24.9086  -31.9728   20.8458 C   0  0  0  0  0  0  0  0  0  0  0  0
  -22.1077  -30.4816   21.5198 C   0  0  0  0  0  0  0  0  0  0  0  0
  -21.0647  -27.5006   23.2642 C   0  0  0  0  0  0  0  0  0  0  0  0
  -27.5901  -16.8403   17.4469 C   0  0  0  0  0  0  0  0  0  0  0  0
  -24.5676  -36.8485   19.3734 C   0  0  0  0  0  0  0  0  0  0  0  0
  -25.0842  -29.9026   19.4178 C   0  0  0  0  0  0  0  0  0  0  0  0
  -24.2194  -29.2653   22.1729 C   0  0  0  0  0  0  0  0  0  0  0  0
  -23.7923  -35.9377   20.3219 C   0  0  0  0  0  0  0  0  0  0  0  0
  -26.9600  -24.0095   25.1568 C   0  0  0  0  0  0  0  0  0  0  0  0
  -28.4755  -13.3762   16.9775 C   0  0  0  0  0  0  0  0  0  0  0  0
  -24.7485  -35.1965   21.2509 C   0  0  0  0  0  0  0  0  0  0  0  0
  -27.5581  -25.3040   24.6468 C   0  0  0  0  0  0  0  0  0  0  0  0
  -27.6856  -12.6642   18.0756 C   0  0  0  0  0  0  0  0  0  0  0  0
  -27.8102  -22.8385   24.6975 C   0  0  0  0  0  0  0  0  0  0  0  0
  -27.7070  -14.5701   16.4193 C   0  0  0  0  0  0  0  0  0  0  0  0
  -26.4903  -14.8446   18.5625 C   0  0  0  0  0  0  0  0  0  0  0  0
  -25.7039  -34.2979   20.4563 C   0  0  1  0  0  0  0  0  0  0  0  0
  -27.5747  -25.2772   23.1311 C   0  0  1  0  0  0  0  0  0  1  0  0
  -24.1677  -30.8322   20.2071 C   0  0  1  0  0  0  0  0  0  0  0  0
  -27.2482  -13.6525   19.1714 C   0  0  1  0  0  0  0  0  0  0  0  0
  -29.7322  -20.0376   20.5275 C   0  0  0  0  0  0  0  0  0  0  0  0
  -19.0314  -26.0612   22.9630 C   0  0  0  0  0  0  0  0  0  0  0  0
  -20.9065  -32.2213   23.7200 C   0  0  0  0  0  0  0  0  0  0  0  0
  -19.8018  -30.1720   24.6409 C   0  0  0  0  0  0  0  0  0  0  0  0
  -19.2313  -30.9705   22.3476 C   0  0  0  0  0  0  0  0  0  0  0  0
  -22.7024  -25.0641   22.8894 C   0  0  0  0  0  0  0  0  0  0  0  0
  -28.7959  -21.6642   22.7571 C   0  0  0  0  0  0  0  0  0  0  0  0
  -21.4811  -29.8939   22.7612 C   0  0  1  0  0  0  0  0  0  0  0  0
  -20.5083  -26.2321   22.6433 C   0  0  2  0  0  0  0  0  0  0  0  0
  -20.3834  -30.8154   23.3640 C   0  0  0  0  0  0  0  0  0  0  0  0
  -25.6592  -11.9267   19.9323 N   0  0  0  0  0  0  0  0  0  0  0  0
  -27.1202  -17.5726   18.5204 N   0  0  0  0  0  0  0  0  0  0  0  0
  -26.4426  -12.9682   20.2602 N   0  0  0  0  0  0  0  0  0  0  0  0
  -28.2148  -22.8885   23.2916 N   0  0  0  0  0  0  0  0  0  0  0  0
  -23.4456  -30.1399   21.2764 N   0  0  0  0  0  0  0  0  0  0  0  0
  -27.2796  -15.4688   17.4924 N   0  0  0  0  0  0  0  0  0  0  0  0
  -27.1379  -14.3076   22.0860 N   0  0  0  0  0  0  0  0  0  0  0  0
  -24.0923  -13.0905   23.9934 N   0  0  0  0  0  0  0  0  0  0  0  0
  -25.0294  -33.0876   20.0385 N   0  0  0  0  0  0  0  0  0  0  0  0
  -21.0078  -28.5650   22.3895 N   0  0  0  0  0  0  0  0  0  0  0  0
  -21.2411  -25.0399   23.1558 N   0  3  0  0  0  0  0  0  0  0  0  0
  -28.8553  -24.1549   21.4530 O   0  0  0  0  0  0  0  0  0  0  0  0
  -25.8474  -11.6678   24.3862 O   0  0  0  0  0  0  0  0  0  0  0  0
  -25.3375  -31.8508   21.9873 O   0  0  0  0  0  0  0  0  0  0  0  0
  -21.4328  -31.2111   20.7891 O   0  0  0  0  0  0  0  0  0  0  0  0
  -21.5024  -27.5440   24.4119 O   0  0  0  0  0  0  0  0  0  0  0  0
  -28.2273  -17.3263   16.5094 O   0  0  0  0  0  0  0  0  0  0  0  0
  -21.5283   -7.2949   21.3584 O   0  0  0  0  0  0  0  0  0  0  0  0
  -28.1992  -26.4625   22.6665 O   0  0  0  0  0  0  0  0  0  1  0  0
  -20.3716   -5.2229   26.3356 F   0  0  0  0  0  0  0  0  0  0  0  0
  -22.0649   -4.6489   21.9528 F   0  0  0  0  0  0  0  0  0  0  0  0
  1  2  1  0  0  0  0
  1  7  2  0  0  0  0
  2  8  2  0  0  0  0
  3  6  1  0  0  0  0
  3 10  2  0  0  0  0
  4 11  2  0  0  0  0
  4 18  1  0  0  0  0
  5 12  1  0  0  0  0
  5 18  2  0  0  0  0
  6 19  2  0  0  0  0
  7 21  1  0  0  0  0
  8 23  1  0  0  0  0
  9 13  2  0  0  0  0
  9 22  1  0  0  0  0
 10 25  1  0  0  0  0
 11 27  1  0  0  0  0
 12 27  2  0  0  0  0
 13 28  1  0  0  0  0
 14 15  2  0  0  0  0
 14 29  1  0  0  0  0
 15 30  1  0  0  0  0
 16 24  1  0  0  0  0
 16 28  2  0  0  0  0
 17 30  2  0  0  0  0
 17 31  1  0  0  0  0
 18 32  1  0  0  0  0
 19 26  1  0  0  0  0
 19 35  1  0  0  0  0
 20 32  1  0  0  0  0
 20 33  2  0  0  0  0
 20 36  1  0  0  0  0
 21 23  2  0  0  0  0
 21 41  1  0  0  0  0
 22 24  2  0  0  0  0
 22 42  1  0  0  0  0
 23 53  1  0  0  0  0
 24 43  1  0  0  0  0
 25 26  2  0  0  0  0
 25 63  1  0  0  0  0
 26 57  1  0  0  0  0
 27 84  1  0  0  0  0
 28 85  1  0  0  0  0
 29 31  2  0  0  0  0
 29 84  1  0  0  0  0
 30 86  1  0  0  0  0
 31 87  1  0  0  0  0
 32 67  2  0  0  0  0
 33 69  1  0  0  0  0
 33 73  1  0  0  0  0
 34 54  1  0  0  0  0
 34 70  1  0  0  0  0
 34 78  2  0  0  0  0
 35 68  2  0  0  0  0
 36 74  1  0  0  0  0
 36 79  2  0  0  0  0
 37 55  1  0  0  0  0
 37 75  1  0  0  0  0
 37 80  2  0  0  0  0
 38 64  1  0  0  0  0
 38 71  1  0  0  0  0
 38 81  2  0  0  0  0
 39 65  1  0  0  0  0
 39 76  1  0  0  0  0
 39 82  2  0  0  0  0
 40 68  1  0  0  0  0
 40 72  1  0  0  0  0
 40 83  2  0  0  0  0
 41 44  1  0  0  0  0
 42 55  1  0  0  0  0
 43 71  1  0  0  0  0
 44 47  1  0  0  0  0
 45 48  1  0  0  0  0
 45 50  1  0  0  0  0
 46 49  1  0  0  0  0
 46 51  1  0  0  0  0
 47 53  1  0  0  0  0
 48 54  1  0  0  0  0
 49 56  1  0  0  0  0
 50 70  1  0  0  0  0
 51 72  1  0  0  0  0
 52 56  1  0  0  0  0
 52 72  1  0  0  0  0
 53 75  1  0  0  0  0
 54 85  1  0  0  0  0
 55 71  1  0  0  0  0
 56 69  1  0  0  0  0
 58 65  1  0  0  0  0
 59 66  1  0  0  0  0
 60 66  1  0  0  0  0
 61 66  1  0  0  0  0
 62 77  1  0  0  0  0
 63 70  1  0  0  0  0
 64 66  1  0  0  0  0
 64 76  1  0  0  0  0
 65 77  1  0  0  0  0
 67 69  1  0  0  0  0
M  CHG  1  77   1
M  ISO  4  40 100  54 101  68 100  85 101
M  END
> <Batch ID>
0045

> <Smiles>
CNC(C)C(=O)NC(C(=O)N1Cc2cc([101O:1][101CH:1]3CCCN(Cc4cccc(C=[100N:0][100C:0](=O)N5CCCC(n6nc(-c7ccc(Oc8ccc(F)cc8F)cc7)c(C(N)=O)c6N)C5)c4C)C3=O)ccc2CC1C(=O)NC1CCCc2ccccc21)C(C)(C)C

> <Shape>
0.257

> <Color>
0.089

> <Negative vol penalty>
0.000

$$$$

  -OEChem-04042322213D

 87 96  0     1  0  0  0  0  0999 V2000
  -16.6918  -29.9966   23.7058 C   0  0  0  0  0  0  0  0  0  0  0  0
  -17.0927  -28.6890   23.9606 C   0  0  0  0  0  0  0  0  0  0  0  0
  -23.3613  -10.1557   22.2337 C   0  0  0  0  0  0  0  0  0  0  0  0
  -23.6002   -9.5446   19.9085 C   0  0  0  0  0  0  0  0  0  0  0  0
  -17.5114  -30.8432   22.9605 C   0  0  0  0  0  0  0  0  0  0  0  0
  -18.3132  -28.2269   23.4693 C   0  0  0  0  0  0  0  0  0  0  0  0
  -23.6581  -23.7494   25.1125 C   0  0  0  0  0  0  0  0  0  0  0  0
  -22.6318   -8.9896   22.4652 C   0  0  0  0  0  0  0  0  0  0  0  0
  -22.8707   -8.3784   20.1400 C   0  0  0  0  0  0  0  0  0  0  0  0
  -24.3849  -22.6930   24.5652 C   0  0  0  0  0  0  0  0  0  0  0  0
  -19.4762   -7.8859   21.9671 C   0  0  0  0  0  0  0  0  0  0  0  0
  -18.3111   -7.9913   22.7267 C   0  0  0  0  0  0  0  0  0  0  0  0
  -25.7545  -24.2690   23.3571 C   0  0  0  0  0  0  0  0  0  0  0  0
  -31.9273  -18.2969   24.2214 C   0  0  0  0  0  0  0  0  0  0  0  0
  -32.0715  -16.5974   22.5103 C   0  0  0  0  0  0  0  0  0  0  0  0
  -19.2308   -6.4565   24.3502 C   0  0  0  0  0  0  0  0  0  0  0  0
  -23.8454  -10.4332   20.9553 C   0  0  0  0  0  0  0  0  0  0  0  0
  -24.1646  -12.9637   20.9047 C   0  0  0  0  0  0  0  0  0  0  0  0
  -18.7469  -30.3941   22.4680 C   0  0  0  0  0  0  0  0  0  0  0  0
  -23.9676  -25.0754   24.7771 C   0  0  0  0  0  0  0  0  0  0  0  0
  -19.1495  -29.0679   22.7155 C   0  0  0  0  0  0  0  0  0  0  0  0
  -25.0318  -25.3405   23.9035 C   0  0  0  0  0  0  0  0  0  0  0  0
  -32.6947  -17.4517   23.4200 C   0  0  0  0  0  0  0  0  0  0  0  0
  -30.5366  -18.2876   24.1134 C   0  0  0  0  0  0  0  0  0  0  0  0
  -29.9134  -17.4334   23.2038 C   0  0  0  0  0  0  0  0  0  0  0  0
  -30.6808  -16.5882   22.4023 C   0  0  0  0  0  0  0  0  0  0  0  0
  -22.3865   -8.1009   21.4184 C   0  0  0  0  0  0  0  0  0  0  0  0
  -25.4314  -22.9525   23.6852 C   0  0  0  0  0  0  0  0  0  0  0  0
  -20.5186   -7.0658   22.3990 C   0  0  0  0  0  0  0  0  0  0  0  0
  -18.1884   -7.2766   23.9183 C   0  0  0  0  0  0  0  0  0  0  0  0
  -20.3959   -6.3511   23.5905 C   0  0  0  0  0  0  0  0  0  0  0  0
  -24.5986  -11.6380   20.7153 C   0  0  0  0  0  0  0  0  0  0  0  0
  -25.2415  -13.7332   20.5376 C   0  0  0  0  0  0  0  0  0  0  0  0
  -27.8524  -20.6168   24.1900 C   0  0  0  0  0  0  0  0  0  0  0  0
  -22.9011  -13.4556   21.3708 C   0  0  0  0  0  0  0  0  0  0  0  0
  -22.4105  -27.4497   23.3482 C   0  0  0  0  0  0  0  0  0  0  0  0
  -25.0417  -29.1553   24.1787 C   0  0  0  0  0  0  0  0  0  0  0  0
  -28.6124  -28.6392   24.2112 C   0  0  0  0  0  0  0  0  0  0  0  0
  -30.7021  -14.8194   20.6086 C   0  0  0  0  0  0  0  0  0  0  0  0
  -19.5771  -31.3314   21.6272 C   0  0  0  0  0  0  0  0  0  0  0  0
  -23.1912  -26.2048   25.3968 C   0  0  0  0  0  0  0  0  0  0  0  0
  -25.4172  -26.7470   23.5271 C   0  0  0  0  0  0  0  0  0  0  0  0
  -21.0255  -30.8790   21.4606 C   0  0  0  0  0  0  0  0  0  0  0  0
  -29.8201  -21.7998   22.3326 C   0  0  0  0  0  0  0  0  0  0  0  0
  -29.5473  -12.4699   18.1954 C   0  0  0  0  0  0  0  0  0  0  0  0
  -21.0843  -29.3968   21.1050 C   0  0  0  0  0  0  0  0  0  0  0  0
  -28.3127  -21.9088   22.1107 C   0  0  0  0  0  0  0  0  0  0  0  0
  -28.1211  -12.1530   18.6515 C   0  0  0  0  0  0  0  0  0  0  0  0
  -30.1874  -21.3107   23.7308 C   0  0  0  0  0  0  0  0  0  0  0  0
  -30.4904  -12.6696   19.3805 C   0  0  0  0  0  0  0  0  0  0  0  0
  -28.6132  -13.3351   20.8304 C   0  0  0  0  0  0  0  0  0  0  0  0
  -20.4775  -28.5374   22.2206 C   0  0  1  0  0  0  0  0  0  0  0  0
  -27.5322  -21.8901   23.4187 C   0  0  1  0  0  0  0  0  0  1  0  0
  -23.2622  -27.4946   24.5852 C   0  0  1  0  0  0  0  0  0  0  0  0
  -27.6125  -13.1898   19.6723 C   0  0  2  0  0  0  0  0  0  0  0  0
  -34.1815  -17.4605   23.5365 C   0  0  0  0  0  0  0  0  0  0  0  0
  -28.4209  -17.4267   23.0925 C   0  0  0  0  0  0  0  0  0  0  0  0
  -30.3964  -29.6668   25.6459 C   0  0  0  0  0  0  0  0  0  0  0  0
  -25.3248  -31.1538   21.8905 C   0  0  0  0  0  0  0  0  0  0  0  0
  -27.8004  -31.1231   22.2625 C   0  0  0  0  0  0  0  0  0  0  0  0
  -26.2791  -31.9222   24.0707 C   0  0  0  0  0  0  0  0  0  0  0  0
  -29.5940  -25.9893   25.0907 C   0  0  0  0  0  0  0  0  0  0  0  0
  -29.7342  -19.2059   24.9893 C   0  0  0  0  0  0  0  0  0  0  0  0
  -26.3710  -29.4544   23.5287 C   0  0  1  0  0  0  0  0  0  0  0  0
  -29.4938  -28.4613   25.4342 C   0  0  2  0  0  0  0  0  0  0  0  0
  -26.4297  -30.8893   22.9327 C   0  0  0  0  0  0  0  0  0  0  0  0
  -25.8532  -11.5657   20.2630 N   0  0  0  0  0  0  0  0  0  0  0  0
  -26.2169  -12.8558   20.1649 N   0  0  0  0  0  0  0  0  0  0  0  0
  -29.2227  -20.3500   24.2534 N   0  0  0  0  0  0  0  0  0  0  0  0
  -24.6241  -27.8171   24.1544 N   0  0  0  0  0  0  0  0  0  0  0  0
  -29.9457  -13.6682   20.3028 N   0  0  0  0  0  0  0  0  0  0  0  0
  -25.4396  -15.0680   20.5005 N   0  0  0  0  0  0  0  0  0  0  0  0
  -21.9050  -12.5280   21.7049 N   0  0  0  0  0  0  0  0  0  0  0  0
  -30.0683  -15.7135   21.4709 N   0  0  0  0  0  0  0  0  0  0  0  0
  -21.4103  -28.4027   23.3189 N   0  0  0  0  0  0  0  0  0  0  0  0
  -27.3890  -29.1846   24.5383 N   0  0  0  0  0  0  0  0  0  0  0  0
  -30.3521  -27.2524   25.2828 N   0  3  0  0  0  0  0  0  0  0  0  0
  -26.9735  -19.9253   24.7013 O   0  0  0  0  0  0  0  0  0  0  0  0
  -22.6568  -14.6819   21.4718 O   0  0  0  0  0  0  0  0  0  0  0  0
  -22.6443  -26.6133   22.4837 O   0  0  0  0  0  0  0  0  0  0  0  0
  -24.4010  -30.0740   24.6955 O   0  0  0  0  0  0  0  0  0  0  0  0
  -28.9745  -28.3290   23.0784 O   0  0  0  0  0  0  0  0  0  0  0  0
  -31.8177  -15.0120   20.1184 O   0  0  0  0  0  0  0  0  0  0  0  0
  -21.6750   -6.9628   21.6441 O   0  0  0  0  0  0  0  0  0  0  0  0
  -26.1420  -21.9232   23.1491 O   0  0  0  0  0  0  0  0  0  1  0  0
  -17.0701   -7.3791   24.6484 F   0  0  0  0  0  0  0  0  0  0  0  0
  -21.3944   -5.5626   24.0112 F   0  0  0  0  0  0  0  0  0  0  0  0
  1  2  1  0  0  0  0
  1  5  2  0  0  0  0
  2  6  2  0  0  0  0
  3  8  2  0  0  0  0
  3 17  1  0  0  0  0
  4  9  1  0  0  0  0
  4 17  2  0  0  0  0
  5 19  1  0  0  0  0
  6 21  1  0  0  0  0
  7 10  2  0  0  0  0
  7 20  1  0  0  0  0
  8 27  1  0  0  0  0
  9 27  2  0  0  0  0
 10 28  1  0  0  0  0
 11 12  2  0  0  0  0
 11 29  1  0  0  0  0
 12 30  1  0  0  0  0
 13 22  1  0  0  0  0
 13 28  2  0  0  0  0
 14 23  2  0  0  0  0
 14 24  1  0  0  0  0
 15 23  1  0  0  0  0
 15 26  2  0  0  0  0
 16 30  2  0  0  0  0
 16 31  1  0  0  0  0
 17 32  1  0  0  0  0
 18 32  1  0  0  0  0
 18 33  2  0  0  0  0
 18 35  1  0  0  0  0
 19 21  2  0  0  0  0
 19 40  1  0  0  0  0
 20 22  2  0  0  0  0
 20 41  1  0  0  0  0
 21 52  1  0  0  0  0
 22 42  1  0  0  0  0
 23 56  1  0  0  0  0
 24 25  2  0  0  0  0
 24 63  1  0  0  0  0
 25 26  1  0  0  0  0
 25 57  1  0  0  0  0
 26 74  1  0  0  0  0
 27 84  1  0  0  0  0
 28 85  1  0  0  0  0
 29 31  2  0  0  0  0
 29 84  1  0  0  0  0
 30 86  1  0  0  0  0
 31 87  1  0  0  0  0
 32 67  2  0  0  0  0
 33 68  1  0  0  0  0
 33 72  1  0  0  0  0
 34 53  1  0  0  0  0
 34 69  1  0  0  0  0
 34 78  2  0  0  0  0
 35 73  1  0  0  0  0
 35 79  2  0  0  0  0
 36 54  1  0  0  0  0
 36 75  1  0  0  0  0
 36 80  2  0  0  0  0
 37 64  1  0  0  0  0
 37 70  1  0  0  0  0
 37 81  2  0  0  0  0
 38 65  1  0  0  0  0
 38 76  1  0  0  0  0
 38 82  2  0  0  0  0
 39 71  1  0  0  0  0
 39 74  1  0  0  0  0
 39 83  2  0  0  0  0
 40 43  1  0  0  0  0
 41 54  1  0  0  0  0
 42 70  1  0  0  0  0
 43 46  1  0  0  0  0
 44 47  1  0  0  0  0
 44 49  1  0  0  0  0
 45 48  1  0  0  0  0
 45 50  1  0  0  0  0
 46 52  1  0  0  0  0
 47 53  1  0  0  0  0
 48 55  1  0  0  0  0
 49 69  1  0  0  0  0
 50 71  1  0  0  0  0
 51 55  1  0  0  0  0
 51 71  1  0  0  0  0
 52 75  1  0  0  0  0
 53 85  1  0  0  0  0
 54 70  1  0  0  0  0
 55 68  1  0  0  0  0
 58 65  1  0  0  0  0
 59 66  1  0  0  0  0
 60 66  1  0  0  0  0
 61 66  1  0  0  0  0
 62 77  1  0  0  0  0
 63 69  1  0  0  0  0
 64 66  1  0  0  0  0
 64 76  1  0  0  0  0
 65 77  1  0  0  0  0
 67 68  1  0  0  0  0
M  CHG  1  77   1
M  ISO  4  39 100  53 101  74 100  85 101
M  END
> <Batch ID>
0045

> <Smiles>
CNC(C)C(=O)NC(C(=O)N1Cc2cc([101O:1][101CH:1]3CCCN(Cc4cc(C)cc([100NH:0][100C:0](=O)N5CCCC(n6nc(-c7ccc(Oc8ccc(F)cc8F)cc7)c(C(N)=O)c6N)C5)c4C)C3=O)ccc2CC1C(=O)NC1CCCc2ccccc21)C(C)(C)C

> <Shape>
0.269

> <Color>
0.218

> <Negative vol penalty>
0.000

$$$$

  -OEChem-04042322213D

 84 92  0     1  0  0  0  0  0999 V2000
  -21.2084  -13.1475   20.0401 C   0  0  0  0  0  0  0  0  0  0  0  0
  -21.4622  -14.4513   20.4536 C   0  0  0  0  0  0  0  0  0  0  0  0
  -17.0911  -29.2805   23.3598 C   0  0  0  0  0  0  0  0  0  0  0  0
  -17.6218  -30.2921   22.5595 C   0  0  0  0  0  0  0  0  0  0  0  0
  -28.3351  -24.3684   21.9635 C   0  0  0  0  0  0  0  0  0  0  0  0
  -26.3688  -24.2879   23.3650 C   0  0  0  0  0  0  0  0  0  0  0  0
  -22.2363  -12.2055   20.0381 C   0  0  0  0  0  0  0  0  0  0  0  0
  -22.7438  -14.8136   20.8666 C   0  0  0  0  0  0  0  0  0  0  0  0
  -24.2298  -19.2481   18.9243 C   0  0  0  0  0  0  0  0  0  0  0  0
  -17.9272  -28.2938   23.8826 C   0  0  0  0  0  0  0  0  0  0  0  0
  -18.9885  -30.3171   22.2818 C   0  0  0  0  0  0  0  0  0  0  0  0
  -29.0115  -23.5471   22.8654 C   0  0  0  0  0  0  0  0  0  0  0  0
  -27.0452  -23.4665   24.2668 C   0  0  0  0  0  0  0  0  0  0  0  0
  -23.7207  -20.4042   19.5143 C   0  0  0  0  0  0  0  0  0  0  0  0
  -27.8976  -20.2051   24.5070 C   0  0  0  0  0  0  0  0  0  0  0  0
  -27.2205  -19.0890   24.9983 C   0  0  0  0  0  0  0  0  0  0  0  0
  -25.7777  -20.6747   20.7450 C   0  0  0  0  0  0  0  0  0  0  0  0
  -27.4579  -19.9355   27.2487 C   0  0  0  0  0  0  0  0  0  0  0  0
  -27.0137  -24.7389   22.2133 C   0  0  0  0  0  0  0  0  0  0  0  0
  -26.0476  -25.3231   19.9258 C   0  0  0  0  0  0  0  0  0  0  0  0
  -23.5334  -12.5589   20.4421 C   0  0  0  0  0  0  0  0  0  0  0  0
  -25.5147  -18.7898   19.2491 C   0  0  0  0  0  0  0  0  0  0  0  0
  -23.7897  -13.8751   20.8714 C   0  0  0  0  0  0  0  0  0  0  0  0
  -26.3018  -19.5139   20.1559 C   0  0  0  0  0  0  0  0  0  0  0  0
  -19.2939  -28.3188   23.6049 C   0  0  0  0  0  0  0  0  0  0  0  0
  -19.8246  -29.3304   22.8046 C   0  0  0  0  0  0  0  0  0  0  0  0
  -28.3666  -23.0961   24.0170 C   0  0  0  0  0  0  0  0  0  0  0  0
  -24.4936  -21.1161   20.4270 C   0  0  0  0  0  0  0  0  0  0  0  0
  -28.3549  -21.1865   25.3865 C   0  0  0  0  0  0  0  0  0  0  0  0
  -27.0006  -18.9542   26.3691 C   0  0  0  0  0  0  0  0  0  0  0  0
  -28.1350  -21.0517   26.7573 C   0  0  0  0  0  0  0  0  0  0  0  0
  -26.3146  -25.5878   21.2824 C   0  0  0  0  0  0  0  0  0  0  0  0
  -25.3639  -26.4309   19.4878 C   0  0  0  0  0  0  0  0  0  0  0  0
  -21.5679  -24.3185   22.2719 C   0  0  0  0  0  0  0  0  0  0  0  0
  -22.2979  -23.1983   22.3608 C   0  0  0  0  0  0  0  0  0  0  0  0
  -26.3872  -24.1781   19.1324 C   0  0  0  0  0  0  0  0  0  0  0  0
  -21.3256  -25.1563   23.4787 C   0  0  0  0  0  0  0  0  0  0  0  0
  -26.6851  -16.1525   20.5827 C   0  0  0  0  0  0  0  0  0  0  0  0
  -29.5356  -17.4995   19.8195 C   0  0  0  0  0  0  0  0  0  0  0  0
  -31.3100  -20.3329   19.1338 C   0  0  0  0  0  0  0  0  0  0  0  0
  -21.9866  -30.5048   22.2631 C   0  0  0  0  0  0  0  0  0  0  0  0
  -24.6012  -11.4940   20.4679 C   0  0  0  0  0  0  0  0  0  0  0  0
  -26.0595  -17.5557   18.5838 C   0  0  0  0  0  0  0  0  0  0  0  0
  -27.6951  -19.0753   20.5230 C   0  0  0  0  0  0  0  0  0  0  0  0
  -26.0179  -12.0542   20.5644 C   0  0  0  0  0  0  0  0  0  0  0  0
  -24.9088  -31.1240   20.3256 C   0  0  0  0  0  0  0  0  0  0  0  0
  -26.0931  -13.1335   21.6397 C   0  0  0  0  0  0  0  0  0  0  0  0
  -25.5735  -29.7494   20.2225 C   0  0  0  0  0  0  0  0  0  0  0  0
  -24.2566  -31.3377   21.6904 C   0  0  0  0  0  0  0  0  0  0  0  0
  -23.9864  -28.9087   22.0005 C   0  0  0  0  0  0  0  0  0  0  0  0
  -25.1726  -14.3128   21.3029 C   0  0  1  0  0  0  0  0  0  0  0  0
  -27.1840  -16.8966   19.3764 C   0  0  1  0  0  0  0  0  0  0  0  0
  -24.6010  -28.6219   20.6208 C   0  0  2  0  0  0  0  0  0  0  0  0
  -33.6287  -21.1209   18.5859 C   0  0  0  0  0  0  0  0  0  0  0  0
  -30.3445  -17.1422   22.7397 C   0  0  0  0  0  0  0  0  0  0  0  0
  -32.2130  -18.7618   22.3478 C   0  0  0  0  0  0  0  0  0  0  0  0
  -32.1440  -16.6109   21.0862 C   0  0  0  0  0  0  0  0  0  0  0  0
  -30.4474  -21.4223   16.5208 C   0  0  0  0  0  0  0  0  0  0  0  0
  -20.1696  -27.2440   24.1811 C   0  0  0  0  0  0  0  0  0  0  0  0
  -22.5858  -22.3126   21.1916 C   0  0  0  0  0  0  0  0  0  1  0  0
  -30.4939  -18.4383   20.5118 C   0  0  1  0  0  0  0  0  0  0  0  0
  -32.2918  -20.6627   18.0240 C   0  0  2  0  0  0  0  0  0  0  0  0
  -31.2719  -17.7458   21.6661 C   0  0  0  0  0  0  0  0  0  0  0  0
  -25.8394  -26.7711   21.6801 N   0  0  0  0  0  0  0  0  0  0  0  0
  -25.2670  -27.2597   20.5667 N   0  0  0  0  0  0  0  0  0  0  0  0
  -28.1807  -17.8590   19.8505 N   0  0  0  0  0  0  0  0  0  0  0  0
  -23.3456  -30.2332   21.9985 N   0  0  0  0  0  0  0  0  0  0  0  0
  -24.8423  -26.7672   18.2890 N   0  0  0  0  0  0  0  0  0  0  0  0
  -27.6109  -24.1780   18.4490 N   0  0  0  0  0  0  0  0  0  0  0  0
  -21.2101  -29.3732   22.5108 N   0  0  0  0  0  0  0  0  0  0  0  0
  -20.5529  -26.2673   23.1863 N   0  0  0  0  0  0  0  0  0  0  0  0
  -25.7769  -15.1527   20.2910 N   0  0  0  0  0  0  0  0  0  0  0  0
  -31.3461  -18.9954   19.4668 N   0  0  0  0  0  0  0  0  0  0  0  0
  -31.7494  -21.7475   17.1579 N   0  3  0  0  0  0  0  0  0  0  0  0
  -25.6208  -23.1916   19.0193 O   0  0  0  0  0  0  0  0  0  0  0  0
  -21.7714  -24.8647   24.5836 O   0  0  0  0  0  0  0  0  0  0  0  0
  -27.0949  -16.4615   21.6954 O   0  0  0  0  0  0  0  0  0  0  0  0
  -29.9738  -16.4884   19.2652 O   0  0  0  0  0  0  0  0  0  0  0  0
  -30.5863  -21.1781   19.6558 O   0  0  0  0  0  0  0  0  0  0  0  0
  -21.5385  -31.6540   22.2427 O   0  0  0  0  0  0  0  0  0  0  0  0
  -29.0263  -22.2943   24.8972 O   0  0  0  0  0  0  0  0  0  0  0  0
  -23.9988  -22.2445   21.0047 O   0  0  0  0  0  0  0  0  0  1  0  0
  -26.3490  -17.8831   26.8406 F   0  0  0  0  0  0  0  0  0  0  0  0
  -28.5710  -21.9917   27.6071 F   0  0  0  0  0  0  0  0  0  0  0  0
  1  2  1  0  0  0  0
  1  7  2  0  0  0  0
  2  8  2  0  0  0  0
  3  4  1  0  0  0  0
  3 10  2  0  0  0  0
  4 11  2  0  0  0  0
  5 12  2  0  0  0  0
  5 19  1  0  0  0  0
  6 13  1  0  0  0  0
  6 19  2  0  0  0  0
  7 21  1  0  0  0  0
  8 23  1  0  0  0  0
  9 14  2  0  0  0  0
  9 22  1  0  0  0  0
 10 25  1  0  0  0  0
 11 26  1  0  0  0  0
 12 27  1  0  0  0  0
 13 27  2  0  0  0  0
 14 28  1  0  0  0  0
 15 16  2  0  0  0  0
 15 29  1  0  0  0  0
 16 30  1  0  0  0  0
 17 24  1  0  0  0  0
 17 28  2  0  0  0  0
 18 30  2  0  0  0  0
 18 31  1  0  0  0  0
 19 32  1  0  0  0  0
 20 32  1  0  0  0  0
 20 33  2  0  0  0  0
 20 36  1  0  0  0  0
 21 23  2  0  0  0  0
 21 42  1  0  0  0  0
 22 24  2  0  0  0  0
 22 43  1  0  0  0  0
 23 51  1  0  0  0  0
 24 44  1  0  0  0  0
 25 26  2  0  0  0  0
 25 59  1  0  0  0  0
 26 70  1  0  0  0  0
 27 81  1  0  0  0  0
 28 82  1  0  0  0  0
 29 31  2  0  0  0  0
 29 81  1  0  0  0  0
 30 83  1  0  0  0  0
 31 84  1  0  0  0  0
 32 64  2  0  0  0  0
 33 65  1  0  0  0  0
 33 68  1  0  0  0  0
 34 35  2  0  0  0  0
 34 37  1  0  0  0  0
 35 60  1  0  0  0  0
 36 69  1  0  0  0  0
 36 75  2  0  0  0  0
 37 71  1  0  0  0  0
 37 76  2  0  0  0  0
 38 52  1  0  0  0  0
 38 72  1  0  0  0  0
 38 77  2  0  0  0  0
 39 61  1  0  0  0  0
 39 66  1  0  0  0  0
 39 78  2  0  0  0  0
 40 62  1  0  0  0  0
 40 73  1  0  0  0  0
 40 79  2  0  0  0  0
 41 67  1  0  0  0  0
 41 70  1  0  0  0  0
 41 80  2  0  0  0  0
 42 45  1  0  0  0  0
 43 52  1  0  0  0  0
 44 66  1  0  0  0  0
 45 47  1  0  0  0  0
 46 48  1  0  0  0  0
 46 49  1  0  0  0  0
 47 51  1  0  0  0  0
 48 53  1  0  0  0  0
 49 67  1  0  0  0  0
 50 53  1  0  0  0  0
 50 67  1  0  0  0  0
 51 72  1  0  0  0  0
 52 66  1  0  0  0  0
 53 65  1  0  0  0  0
 54 62  1  0  0  0  0
 55 63  1  0  0  0  0
 56 63  1  0  0  0  0
 57 63  1  0  0  0  0
 58 74  1  0  0  0  0
 59 71  1  0  0  0  0
 60 82  1  0  0  0  0
 61 63  1  0  0  0  0
 61 73  1  0  0  0  0
 62 74  1  0  0  0  0
 64 65  1  0  0  0  0
M  CHG  1  74   1
M  ISO  4  41 100  60 101  70 100  82 101
M  END
> <Batch ID>
0045

> <Smiles>
CNC(C)C(=O)NC(C(=O)N1Cc2cc([101O:1][101CH2:1]C=CC(=O)NCc3ccccc3[100NH:0][100C:0](=O)N3CCCC(n4nc(-c5ccc(Oc6ccc(F)cc6F)cc5)c(C(N)=O)c4N)C3)ccc2CC1C(=O)NC1CCCc2ccccc21)C(C)(C)C

> <Shape>
0.196

> <Color>
0.084

> <Negative vol penalty>
0.000

$$$$

  -OEChem-04042322213D

 88 97  0     1  0  0  0  0  0999 V2000
  -30.1898   -4.3933   20.2501 C   0  0  0  0  0  0  0  0  0  0  0  0
  -30.5321   -5.7016   19.9238 C   0  0  0  0  0  0  0  0  0  0  0  0
  -22.2185  -30.1720   22.2456 C   0  0  0  0  0  0  0  0  0  0  0  0
  -22.4090  -27.7856   22.5708 C   0  0  0  0  0  0  0  0  0  0  0  0
  -28.4885  -21.2216   22.9001 C   0  0  0  0  0  0  0  0  0  0  0  0
  -28.8551   -3.9922   20.2090 C   0  0  0  0  0  0  0  0  0  0  0  0
  -29.5400   -6.6094   19.5552 C   0  0  0  0  0  0  0  0  0  0  0  0
  -29.4121  -12.6130   20.7580 C   0  0  0  0  0  0  0  0  0  0  0  0
  -28.4060  -22.5968   22.6823 C   0  0  0  0  0  0  0  0  0  0  0  0
  -20.8298  -30.0536   22.1896 C   0  0  0  0  0  0  0  0  0  0  0  0
  -21.0203  -27.6671   22.5149 C   0  0  0  0  0  0  0  0  0  0  0  0
  -29.7517  -13.7298   19.9957 C   0  0  0  0  0  0  0  0  0  0  0  0
  -18.2707  -29.6928   24.3699 C   0  0  0  0  0  0  0  0  0  0  0  0
  -17.5119  -30.6133   25.0927 C   0  0  0  0  0  0  0  0  0  0  0  0
  -27.4392  -13.9924   19.3612 C   0  0  0  0  0  0  0  0  0  0  0  0
  -29.4654  -22.3193   20.5287 C   0  0  0  0  0  0  0  0  0  0  0  0
  -16.4560  -31.3485   23.0479 C   0  0  0  0  0  0  0  0  0  0  0  0
  -23.0081  -29.0380   22.4361 C   0  0  0  0  0  0  0  0  0  0  0  0
  -29.0595  -20.3951   21.9323 C   0  0  0  0  0  0  0  0  0  0  0  0
  -25.1958  -29.9129   23.4138 C   0  0  0  0  0  0  0  0  0  0  0  0
  -27.8450   -4.8982   19.8490 C   0  0  0  0  0  0  0  0  0  0  0  0
  -28.0829  -12.1703   20.8191 C   0  0  0  0  0  0  0  0  0  0  0  0
  -28.1906   -6.2198   19.5079 C   0  0  0  0  0  0  0  0  0  0  0  0
  -27.0849  -12.8713   20.1271 C   0  0  0  0  0  0  0  0  0  0  0  0
  -29.5479  -20.9440   20.7466 C   0  0  0  0  0  0  0  0  0  0  0  0
  -28.8945  -23.1457   21.4966 C   0  0  0  0  0  0  0  0  0  0  0  0
  -20.2307  -28.8011   22.3243 C   0  0  0  0  0  0  0  0  0  0  0  0
  -28.7657  -14.4180   19.2948 C   0  0  0  0  0  0  0  0  0  0  0  0
  -18.1222  -29.6002   22.9861 C   0  0  0  0  0  0  0  0  0  0  0  0
  -16.6045  -31.4412   24.4317 C   0  0  0  0  0  0  0  0  0  0  0  0
  -17.2148  -30.4280   22.3251 C   0  0  0  0  0  0  0  0  0  0  0  0
  -24.4427  -29.1596   22.4935 C   0  0  0  0  0  0  0  0  0  0  0  0
  -26.5017  -29.6983   23.0461 C   0  0  0  0  0  0  0  0  0  0  0  0
  -29.5472  -17.7242   19.3477 C   0  0  0  0  0  0  0  0  0  0  0  0
  -29.1307  -18.9628   22.1890 C   0  0  0  0  0  0  0  0  0  0  0  0
  -28.0790  -18.1573   22.4279 C   0  0  0  0  0  0  0  0  0  0  0  0
  -24.7545  -30.7333   24.5038 C   0  0  0  0  0  0  0  0  0  0  0  0
  -26.5663   -9.5039   19.9862 C   0  0  0  0  0  0  0  0  0  0  0  0
  -24.0469  -10.9484   21.4314 C   0  0  0  0  0  0  0  0  0  0  0  0
  -22.6395  -14.2676   21.5708 C   0  0  0  0  0  0  0  0  0  0  0  0
  -29.2500  -25.2487   20.1560 C   0  0  0  0  0  0  0  0  0  0  0  0
  -26.4215   -4.4057   19.7731 C   0  0  0  0  0  0  0  0  0  0  0  0
  -27.7288  -10.9798   21.6674 C   0  0  0  0  0  0  0  0  0  0  0  0
  -25.6401  -12.4488   20.1761 C   0  0  0  0  0  0  0  0  0  0  0  0
  -25.3894   -5.5298   19.7349 C   0  0  0  0  0  0  0  0  0  0  0  0
  -27.0633  -18.5692   18.0424 C   0  0  0  0  0  0  0  0  0  0  0  0
  -29.1960  -28.6833   19.2192 C   0  0  0  0  0  0  0  0  0  0  0  0
  -25.8038   -6.6012   18.7313 C   0  0  0  0  0  0  0  0  0  0  0  0
  -27.6671  -17.2207   17.7104 C   0  0  0  0  0  0  0  0  0  0  0  0
  -28.0433  -29.2651   20.0409 C   0  0  0  0  0  0  0  0  0  0  0  0
  -28.1707  -19.5704   18.3187 C   0  0  0  0  0  0  0  0  0  0  0  0
  -28.8939  -27.2629   18.7449 C   0  0  0  0  0  0  0  0  0  0  0  0
  -27.3420  -26.9085   20.6251 C   0  0  0  0  0  0  0  0  0  0  0  0
  -27.1403   -7.2404   19.1271 C   0  0  1  0  0  0  0  0  0  0  0  0
  -28.4782  -16.7370   18.8964 C   0  0  1  0  0  0  0  0  0  1  0  0
  -26.4238  -10.3120   21.2449 C   0  0  1  0  0  0  0  0  0  0  0  0
  -27.6267  -28.3138   21.1798 C   0  0  2  0  0  0  0  0  0  0  0  0
  -21.2704  -15.3857   23.3521 C   0  0  0  0  0  0  0  0  0  0  0  0
  -21.6590   -9.9758   19.7998 C   0  0  0  0  0  0  0  0  0  0  0  0
  -20.5106  -12.1387   20.3210 C   0  0  0  0  0  0  0  0  0  0  0  0
  -21.1280  -10.5797   22.1679 C   0  0  0  0  0  0  0  0  0  0  0  0
  -24.5290  -16.5374   21.7613 C   0  0  0  0  0  0  0  0  0  0  0  0
  -30.1683  -20.0852   19.6827 C   0  0  0  0  0  0  0  0  0  0  0  0
  -22.9450  -11.8772   20.9818 C   0  0  1  0  0  0  0  0  0  0  0  0
  -22.6595  -15.2141   22.7575 C   0  0  2  0  0  0  0  0  0  0  0  0
  -21.5861  -11.1427   20.8049 C   0  0  0  0  0  0  0  0  0  0  0  0
  -25.2064  -28.5147   21.6076 N   0  0  0  0  0  0  0  0  0  0  0  0
  -26.4531  -28.8623   21.9696 N   0  0  0  0  0  0  0  0  0  0  0  0
  -29.2412  -19.0769   19.1867 N   0  0  0  0  0  0  0  0  0  0  0  0
  -25.3450  -11.2750   21.0143 N   0  0  0  0  0  0  0  0  0  0  0  0
  -28.5107  -26.4179   19.8780 N   0  0  0  0  0  0  0  0  0  0  0  0
  -27.6752  -30.1450   23.5418 N   0  0  0  0  0  0  0  0  0  0  0  0
  -23.3778  -30.8438   24.7421 N   0  0  0  0  0  0  0  0  0  0  0  0
  -28.8132  -24.5431   21.2767 N   0  0  0  0  0  0  0  0  0  0  0  0
  -26.9470   -8.1928   20.1995 N   0  0  0  0  0  0  0  0  0  0  0  0
  -22.9123  -12.9697   21.9480 N   0  0  0  0  0  0  0  0  0  0  0  0
  -23.1620  -16.5544   22.3426 N   0  3  0  0  0  0  0  0  0  0  0  0
  -30.5800  -17.3105   19.8808 O   0  0  0  0  0  0  0  0  0  0  0  0
  -25.5565  -31.3632   25.2342 O   0  0  0  0  0  0  0  0  0  0  0  0
  -26.3455  -10.0304   18.9019 O   0  0  0  0  0  0  0  0  0  0  0  0
  -23.7671   -9.9732   22.1330 O   0  0  0  0  0  0  0  0  0  0  0  0
  -22.4016  -14.6416   20.4245 O   0  0  0  0  0  0  0  0  0  0  0  0
  -30.2176  -24.9138   19.4678 O   0  0  0  0  0  0  0  0  0  0  0  0
  -18.8756  -28.6852   22.2700 O   0  0  0  0  0  0  0  0  0  0  0  0
  -29.0946  -15.5080   18.5494 O   0  0  0  0  0  0  0  0  0  1  0  0
  -15.8749  -32.3241   25.1262 F   0  0  0  0  0  0  0  0  0  0  0  0
  -17.0668  -30.3428   20.9959 F   0  0  0  0  0  0  0  0  0  0  0  0
  -28.2359  -16.4764   22.7341 Cl  0  0  0  0  0  0  0  0  0  0  0  0
  1  2  1  0  0  0  0
  1  6  2  0  0  0  0
  2  7  2  0  0  0  0
  3 10  2  0  0  0  0
  3 18  1  0  0  0  0
  4 11  1  0  0  0  0
  4 18  2  0  0  0  0
  5  9  2  0  0  0  0
  5 19  1  0  0  0  0
  6 21  1  0  0  0  0
  7 23  1  0  0  0  0
  8 12  2  0  0  0  0
  8 22  1  0  0  0  0
  9 26  1  0  0  0  0
 10 27  1  0  0  0  0
 11 27  2  0  0  0  0
 12 28  1  0  0  0  0
 13 14  2  0  0  0  0
 13 29  1  0  0  0  0
 14 30  1  0  0  0  0
 15 24  1  0  0  0  0
 15 28  2  0  0  0  0
 16 25  1  0  0  0  0
 16 26  2  0  0  0  0
 17 30  2  0  0  0  0
 17 31  1  0  0  0  0
 18 32  1  0  0  0  0
 19 25  2  0  0  0  0
 19 35  1  0  0  0  0
 20 32  1  0  0  0  0
 20 33  2  0  0  0  0
 20 37  1  0  0  0  0
 21 23  2  0  0  0  0
 21 42  1  0  0  0  0
 22 24  2  0  0  0  0
 22 43  1  0  0  0  0
 23 54  1  0  0  0  0
 24 44  1  0  0  0  0
 25 63  1  0  0  0  0
 26 74  1  0  0  0  0
 27 84  1  0  0  0  0
 28 85  1  0  0  0  0
 29 31  2  0  0  0  0
 29 84  1  0  0  0  0
 30 86  1  0  0  0  0
 31 87  1  0  0  0  0
 32 67  2  0  0  0  0
 33 68  1  0  0  0  0
 33 72  1  0  0  0  0
 34 55  1  0  0  0  0
 34 69  1  0  0  0  0
 34 78  2  0  0  0  0
 35 36  2  0  0  0  0
 36 88  1  0  0  0  0
 37 73  1  0  0  0  0
 37 79  2  0  0  0  0
 38 56  1  0  0  0  0
 38 75  1  0  0  0  0
 38 80  2  0  0  0  0
 39 64  1  0  0  0  0
 39 70  1  0  0  0  0
 39 81  2  0  0  0  0
 40 65  1  0  0  0  0
 40 76  1  0  0  0  0
 40 82  2  0  0  0  0
 41 71  1  0  0  0  0
 41 74  1  0  0  0  0
 41 83  2  0  0  0  0
 42 45  1  0  0  0  0
 43 56  1  0  0  0  0
 44 70  1  0  0  0  0
 45 48  1  0  0  0  0
 46 49  1  0  0  0  0
 46 51  1  0  0  0  0
 47 50  1  0  0  0  0
 47 52  1  0  0  0  0
 48 54  1  0  0  0  0
 49 55  1  0  0  0  0
 50 57  1  0  0  0  0
 51 69  1  0  0  0  0
 52 71  1  0  0  0  0
 53 57  1  0  0  0  0
 53 71  1  0  0  0  0
 54 75  1  0  0  0  0
 55 85  1  0  0  0  0
 56 70  1  0  0  0  0
 57 68  1  0  0  0  0
 58 65  1  0  0  0  0
 59 66  1  0  0  0  0
 60 66  1  0  0  0  0
 61 66  1  0  0  0  0
 62 77  1  0  0  0  0
 63 69  1  0  0  0  0
 64 66  1  0  0  0  0
 64 76  1  0  0  0  0
 65 77  1  0  0  0  0
 67 68  1  0  0  0  0
M  CHG  1  77   1
M  ISO  4  41 100  55 101  74 100  85 101
M  END
> <Batch ID>
0045

> <Smiles>
CNC(C)C(=O)NC(C(=O)N1Cc2cc([101O:1][101CH:1]3CCCN(Cc4cc([100NH:0][100C:0](=O)N5CCCC(n6nc(-c7ccc(Oc8ccc(F)cc8F)cc7)c(C(N)=O)c6N)C5)ccc4C=CCl)C3=O)ccc2CC1C(=O)NC1CCCc2ccccc21)C(C)(C)C

> <Shape>
0.292

> <Color>
0.068

> <Negative vol penalty>
0.000

$$$$

  -OEChem-04042322213D

 85 93  0     1  0  0  0  0  0999 V2000
  -26.9022  -35.4746   23.6517 C   0  0  0  0  0  0  0  0  0  0  0  0
  -27.3132  -34.1805   23.3490 C   0  0  0  0  0  0  0  0  0  0  0  0
  -22.7956   -9.6986   23.1695 C   0  0  0  0  0  0  0  0  0  0  0  0
  -23.9304   -9.6183   21.0381 C   0  0  0  0  0  0  0  0  0  0  0  0
  -25.6162  -35.6999   24.1409 C   0  0  0  0  0  0  0  0  0  0  0  0
  -26.4388  -33.1106   23.5365 C   0  0  0  0  0  0  0  0  0  0  0  0
  -26.4458  -29.8881   19.6301 C   0  0  0  0  0  0  0  0  0  0  0  0
  -30.6304  -18.1522   19.9438 C   0  0  0  0  0  0  0  0  0  0  0  0
  -29.5172  -17.5808   20.5600 C   0  0  0  0  0  0  0  0  0  0  0  0
  -22.1284   -8.5137   22.8589 C   0  0  0  0  0  0  0  0  0  0  0  0
  -23.2632   -8.4333   20.7275 C   0  0  0  0  0  0  0  0  0  0  0  0
  -27.5113  -28.9930   19.5450 C   0  0  0  0  0  0  0  0  0  0  0  0
  -22.8110   -5.2021   22.8393 C   0  0  0  0  0  0  0  0  0  0  0  0
  -22.7406   -4.2198   23.8270 C   0  0  0  0  0  0  0  0  0  0  0  0
  -26.1245  -27.2617   20.4930 C   0  0  0  0  0  0  0  0  0  0  0  0
  -28.1078  -19.2933   19.6019 C   0  0  0  0  0  0  0  0  0  0  0  0
  -20.3279   -4.3332   23.7678 C   0  0  0  0  0  0  0  0  0  0  0  0
  -23.6966  -10.2509   22.2590 C   0  0  0  0  0  0  0  0  0  0  0  0
  -25.6250  -11.6070   23.2337 C   0  0  0  0  0  0  0  0  0  0  0  0
  -24.7223  -34.6333   24.3254 C   0  0  0  0  0  0  0  0  0  0  0  0
  -25.2129  -29.4790   20.1583 C   0  0  0  0  0  0  0  0  0  0  0  0
  -25.1401  -33.3216   24.0300 C   0  0  0  0  0  0  0  0  0  0  0  0
  -25.0442  -28.1529   20.5814 C   0  0  0  0  0  0  0  0  0  0  0  0
  -30.4824  -19.2943   19.1567 C   0  0  0  0  0  0  0  0  0  0  0  0
  -29.2210  -19.8648   18.9857 C   0  0  0  0  0  0  0  0  0  0  0  0
  -28.2559  -18.1513   20.3891 C   0  0  0  0  0  0  0  0  0  0  0  0
  -22.3622   -7.8811   21.6380 C   0  0  0  0  0  0  0  0  0  0  0  0
  -27.3516  -27.6803   19.9792 C   0  0  0  0  0  0  0  0  0  0  0  0
  -21.6399   -5.7501   22.3158 C   0  0  0  0  0  0  0  0  0  0  0  0
  -21.4991   -3.7853   24.2913 C   0  0  0  0  0  0  0  0  0  0  0  0
  -20.3984   -5.3156   22.7801 C   0  0  0  0  0  0  0  0  0  0  0  0
  -24.3857  -11.4752   22.5790 C   0  0  0  0  0  0  0  0  0  0  0  0
  -25.8383  -12.9624   23.2952 C   0  0  0  0  0  0  0  0  0  0  0  0
  -29.1788  -24.7547   18.9922 C   0  0  0  0  0  0  0  0  0  0  0  0
  -28.2251  -25.6793   19.1403 C   0  0  0  0  0  0  0  0  0  1  0  0
  -26.5047  -10.5947   23.7407 C   0  0  0  0  0  0  0  0  0  0  0  0
  -23.4495  -30.3351   22.6605 C   0  0  0  0  0  0  0  0  0  0  0  0
  -21.3008  -28.2861   21.3541 C   0  0  0  0  0  0  0  0  0  0  0  0
  -20.7206  -25.5879   19.3466 C   0  0  0  0  0  0  0  0  0  0  0  0
  -25.8030  -18.0105   20.9460 C   0  0  0  0  0  0  0  0  0  0  0  0
  -23.3583  -34.9207   24.9014 C   0  0  0  0  0  0  0  0  0  0  0  0
  -24.0654  -30.4495   20.2185 C   0  0  0  0  0  0  0  0  0  0  0  0
  -23.7348  -27.6583   21.1374 C   0  0  0  0  0  0  0  0  0  0  0  0
  -22.3659  -33.7755   24.7175 C   0  0  0  0  0  0  0  0  0  0  0  0
  -22.7309  -16.8342   22.3081 C   0  0  0  0  0  0  0  0  0  0  0  0
  -23.0093  -32.4454   25.0967 C   0  0  0  0  0  0  0  0  0  0  0  0
  -22.9895  -15.3460   22.5539 C   0  0  0  0  0  0  0  0  0  0  0  0
  -23.4158  -17.3261   21.0342 C   0  0  0  0  0  0  0  0  0  0  0  0
  -25.1110  -15.5458   21.1952 C   0  0  0  0  0  0  0  0  0  0  0  0
  -24.2120  -32.1379   24.1965 C   0  0  1  0  0  0  0  0  0  0  0  0
  -23.0096  -30.0633   21.2497 C   0  0  1  0  0  0  0  0  0  0  0  0
  -24.4949  -15.0194   22.5017 C   0  0  2  0  0  0  0  0  0  0  0  0
  -31.6890  -19.8886   18.5076 C   0  0  0  0  0  0  0  0  0  0  0  0
  -18.8661  -24.1228   18.5030 C   0  0  0  0  0  0  0  0  0  0  0  0
  -21.1809  -26.8832   24.0611 C   0  0  0  0  0  0  0  0  0  0  0  0
  -20.0990  -24.9326   22.9240 C   0  0  0  0  0  0  0  0  0  0  0  0
  -18.9679  -27.1559   22.9286 C   0  0  0  0  0  0  0  0  0  0  0  0
  -21.2623  -26.3248   16.5320 C   0  0  0  0  0  0  0  0  0  0  0  0
  -29.0150  -23.5227   18.1566 C   0  0  0  0  0  0  0  0  0  0  0  0
  -21.0149  -26.8096   21.4856 C   0  0  1  0  0  0  0  0  0  0  0  0
  -19.7125  -25.3575   18.2352 C   0  0  2  0  0  0  0  0  0  0  0  0
  -29.0361  -21.1004   18.1361 C   0  0  0  0  0  0  0  0  0  0  0  0
  -20.3411  -26.4548   22.8412 C   0  0  0  0  0  0  0  0  0  0  0  0
  -23.8493  -12.6529   22.2485 N   0  0  0  0  0  0  0  0  0  0  0  0
  -24.7558  -13.5377   22.6973 N   0  0  0  0  0  0  0  0  0  0  0  0
  -22.6446  -28.6468   21.1817 N   0  0  0  0  0  0  0  0  0  0  0  0
  -24.8400  -16.9853   21.0572 N   0  0  0  0  0  0  0  0  0  0  0  0
  -26.8444  -13.7064   23.8020 N   0  0  0  0  0  0  0  0  0  0  0  0
  -26.1325   -9.2515   23.5940 N   0  0  0  0  0  0  0  0  0  0  0  0
  -27.1244  -17.5699   21.0133 N   0  0  0  0  0  0  0  0  0  0  0  0
  -23.7675  -31.6573   22.9058 N   0  0  0  0  0  0  0  0  0  0  0  0
  -20.2294  -26.4399   20.3131 N   0  0  0  0  0  0  0  0  0  0  0  0
  -29.1788  -22.3100   18.9512 N   0  0  0  0  0  0  0  0  0  0  0  0
  -20.4114  -25.1746   16.9317 N   0  3  0  0  0  0  0  0  0  0  0  0
  -27.5809  -10.8737   24.3217 O   0  0  0  0  0  0  0  0  0  0  0  0
  -23.4955  -29.4138   23.4672 O   0  0  0  0  0  0  0  0  0  0  0  0
  -20.3654  -29.0892   21.3955 O   0  0  0  0  0  0  0  0  0  0  0  0
  -21.8311  -25.0615   19.3583 O   0  0  0  0  0  0  0  0  0  0  0  0
  -25.4793  -19.1951   20.8290 O   0  0  0  0  0  0  0  0  0  0  0  0
  -21.7114   -6.7247   21.3347 O   0  0  0  0  0  0  0  0  0  0  0  0
  -28.3902  -26.8047   19.8979 O   0  0  0  0  0  0  0  0  0  1  0  0
  -21.4316   -2.8409   25.2387 F   0  0  0  0  0  0  0  0  0  0  0  0
  -19.2698   -5.8374   22.2802 F   0  0  0  0  0  0  0  0  0  0  0  0
  -29.9414  -21.1414   17.1134 F   0  0  0  0  0  0  0  0  0  0  0  0
  -27.8136  -21.1185   17.5268 F   0  0  0  0  0  0  0  0  0  0  0  0
  1  2  1  0  0  0  0
  1  5  2  0  0  0  0
  2  6  2  0  0  0  0
  3 10  2  0  0  0  0
  3 18  1  0  0  0  0
  4 11  1  0  0  0  0
  4 18  2  0  0  0  0
  5 20  1  0  0  0  0
  6 22  1  0  0  0  0
  7 12  2  0  0  0  0
  7 21  1  0  0  0  0
  8  9  2  0  0  0  0
  8 24  1  0  0  0  0
  9 26  1  0  0  0  0
 10 27  1  0  0  0  0
 11 27  2  0  0  0  0
 12 28  1  0  0  0  0
 13 14  2  0  0  0  0
 13 29  1  0  0  0  0
 14 30  1  0  0  0  0
 15 23  1  0  0  0  0
 15 28  2  0  0  0  0
 16 25  1  0  0  0  0
 16 26  2  0  0  0  0
 17 30  2  0  0  0  0
 17 31  1  0  0  0  0
 18 32  1  0  0  0  0
 19 32  1  0  0  0  0
 19 33  2  0  0  0  0
 19 36  1  0  0  0  0
 20 22  2  0  0  0  0
 20 41  1  0  0  0  0
 21 23  2  0  0  0  0
 21 42  1  0  0  0  0
 22 50  1  0  0  0  0
 23 43  1  0  0  0  0
 24 25  2  0  0  0  0
 24 53  1  0  0  0  0
 25 62  1  0  0  0  0
 26 70  1  0  0  0  0
 27 80  1  0  0  0  0
 28 81  1  0  0  0  0
 29 31  2  0  0  0  0
 29 80  1  0  0  0  0
 30 82  1  0  0  0  0
 31 83  1  0  0  0  0
 32 64  2  0  0  0  0
 33 65  1  0  0  0  0
 33 68  1  0  0  0  0
 34 35  2  0  0  0  0
 34 59  1  0  0  0  0
 35 81  1  0  0  0  0
 36 69  1  0  0  0  0
 36 75  2  0  0  0  0
 37 51  1  0  0  0  0
 37 71  1  0  0  0  0
 37 76  2  0  0  0  0
 38 60  1  0  0  0  0
 38 66  1  0  0  0  0
 38 77  2  0  0  0  0
 39 61  1  0  0  0  0
 39 72  1  0  0  0  0
 39 78  2  0  0  0  0
 40 67  1  0  0  0  0
 40 70  1  0  0  0  0
 40 79  2  0  0  0  0
 41 44  1  0  0  0  0
 42 51  1  0  0  0  0
 43 66  1  0  0  0  0
 44 46  1  0  0  0  0
 45 47  1  0  0  0  0
 45 48  1  0  0  0  0
 46 50  1  0  0  0  0
 47 52  1  0  0  0  0
 48 67  1  0  0  0  0
 49 52  1  0  0  0  0
 49 67  1  0  0  0  0
 50 71  1  0  0  0  0
 51 66  1  0  0  0  0
 52 65  1  0  0  0  0
 54 61  1  0  0  0  0
 55 63  1  0  0  0  0
 56 63  1  0  0  0  0
 57 63  1  0  0  0  0
 58 74  1  0  0  0  0
 59 73  1  0  0  0  0
 60 63  1  0  0  0  0
 60 72  1  0  0  0  0
 61 74  1  0  0  0  0
 62 73  1  0  0  0  0
 62 84  1  0  0  0  0
 62 85  1  0  0  0  0
 64 65  1  0  0  0  0
M  CHG  1  74   1
M  ISO  4  35 101  40 100  70 100  81 101
M  END
> <Batch ID>
0045

> <Smiles>
CNC(C)C(=O)NC(C(=O)N1Cc2cc([101O:1][101CH:1]=CCNC(F)(F)c3cc([100NH:0][100C:0](=O)N4CCCC(n5nc(-c6ccc(Oc7ccc(F)cc7F)cc6)c(C(N)=O)c5N)C4)ccc3C)ccc2CC1C(=O)NC1CCCc2ccccc21)C(C)(C)C

> <Shape>
0.285

> <Color>
0.097

> <Negative vol penalty>
0.000

$$$$

  -OEChem-04042322213D

 87 96  0     1  0  0  0  0  0999 V2000
  -26.4883  -37.3421   22.8997 C   0  0  0  0  0  0  0  0  0  0  0  0
  -27.1176  -36.2403   22.3294 C   0  0  0  0  0  0  0  0  0  0  0  0
  -23.7483  -14.9344   21.3083 C   0  0  0  0  0  0  0  0  0  0  0  0
  -25.1754  -16.0644   19.7198 C   0  0  0  0  0  0  0  0  0  0  0  0
  -25.5373  -37.1585   23.9026 C   0  0  0  0  0  0  0  0  0  0  0  0
  -26.7971  -34.9541   22.7624 C   0  0  0  0  0  0  0  0  0  0  0  0
  -26.5938  -29.8673   19.3582 C   0  0  0  0  0  0  0  0  0  0  0  0
  -24.4360  -13.7429   21.0786 C   0  0  0  0  0  0  0  0  0  0  0  0
  -25.8632  -14.8729   19.4901 C   0  0  0  0  0  0  0  0  0  0  0  0
  -27.5057  -28.8304   19.1658 C   0  0  0  0  0  0  0  0  0  0  0  0
  -28.2592  -13.0468   21.0215 C   0  0  0  0  0  0  0  0  0  0  0  0
  -29.6525  -13.1014   20.9839 C   0  0  0  0  0  0  0  0  0  0  0  0
  -26.3728  -27.5292   20.8518 C   0  0  0  0  0  0  0  0  0  0  0  0
  -23.3588  -23.5509   14.7730 C   0  0  0  0  0  0  0  0  0  0  0  0
  -25.2037  -23.2178   16.2971 C   0  0  0  0  0  0  0  0  0  0  0  0
  -29.6239  -12.2675   18.7165 C   0  0  0  0  0  0  0  0  0  0  0  0
  -24.1179  -16.0952   20.6289 C   0  0  0  0  0  0  0  0  0  0  0  0
  -23.2771  -18.0111   22.0883 C   0  0  0  0  0  0  0  0  0  0  0  0
  -25.1979  -35.8690   24.3414 C   0  0  0  0  0  0  0  0  0  0  0  0
  -25.5694  -29.7471   20.3082 C   0  0  0  0  0  0  0  0  0  0  0  0
  -25.8416  -34.7532   23.7730 C   0  0  0  0  0  0  0  0  0  0  0  0
  -25.4476  -28.5650   21.0526 C   0  0  0  0  0  0  0  0  0  0  0  0
  -24.2162  -24.1845   13.8736 C   0  0  0  0  0  0  0  0  0  0  0  0
  -26.0611  -23.8514   15.3976 C   0  0  0  0  0  0  0  0  0  0  0  0
  -25.5674  -24.3348   14.1859 C   0  0  0  0  0  0  0  0  0  0  0  0
  -23.8525  -23.0675   15.9848 C   0  0  0  0  0  0  0  0  0  0  0  0
  -25.4935  -13.7121   20.1696 C   0  0  0  0  0  0  0  0  0  0  0  0
  -27.3970  -27.6623   19.9147 C   0  0  0  0  0  0  0  0  0  0  0  0
  -27.5483  -12.6025   19.9067 C   0  0  0  0  0  0  0  0  0  0  0  0
  -30.3348  -12.7118   19.8314 C   0  0  0  0  0  0  0  0  0  0  0  0
  -28.2306  -12.2129   18.7542 C   0  0  0  0  0  0  0  0  0  0  0  0
  -23.4075  -17.3263   20.8653 C   0  0  0  0  0  0  0  0  0  0  0  0
  -22.5161  -19.1136   21.7851 C   0  0  0  0  0  0  0  0  0  0  0  0
  -27.6526  -25.3750   17.7980 C   0  0  0  0  0  0  0  0  0  0  0  0
  -23.7974  -17.6804   23.3827 C   0  0  0  0  0  0  0  0  0  0  0  0
  -24.7730  -31.3112   22.9584 C   0  0  0  0  0  0  0  0  0  0  0  0
  -22.1723  -29.3753   22.8537 C   0  0  0  0  0  0  0  0  0  0  0  0
  -21.4986  -25.9076   22.1199 C   0  0  0  0  0  0  0  0  0  0  0  0
  -21.6157  -22.1909   16.7428 C   0  0  0  0  0  0  0  0  0  0  0  0
  -24.1982  -35.7228   25.4612 C   0  0  0  0  0  0  0  0  0  0  0  0
  -24.5777  -30.8641   20.4849 C   0  0  0  0  0  0  0  0  0  0  0  0
  -24.3536  -28.3782   22.0707 C   0  0  0  0  0  0  0  0  0  0  0  0
  -23.6430  -34.3078   25.6013 C   0  0  0  0  0  0  0  0  0  0  0  0
  -28.1350  -22.9594   19.3852 C   0  0  0  0  0  0  0  0  0  0  0  0
  -19.1324  -20.6064   18.7426 C   0  0  0  0  0  0  0  0  0  0  0  0
  -24.7718  -33.2834   25.5453 C   0  0  0  0  0  0  0  0  0  0  0  0
  -28.6419  -24.2982   19.8790 C   0  0  0  0  0  0  0  0  0  0  0  0
  -19.9356  -19.6521   19.6295 C   0  0  0  0  0  0  0  0  0  0  0  0
  -28.2042  -22.9148   17.8692 C   0  0  0  0  0  0  0  0  0  0  0  0
  -19.7177  -20.7001   17.3347 C   0  0  0  0  0  0  0  0  0  0  0  0
  -21.9512  -20.0737   18.1643 C   0  0  0  0  0  0  0  0  0  0  0  0
  -25.5028  -33.3410   24.1986 C   0  0  1  0  0  0  0  0  0  0  0  0
  -27.7617  -25.3974   19.3174 C   0  0  1  0  0  0  0  0  0  1  0  0
  -23.8839  -30.8379   21.8434 C   0  0  1  0  0  0  0  0  0  0  0  0
  -21.4379  -19.9961   19.6115 C   0  0  2  0  0  0  0  0  0  0  0  0
  -23.6625  -24.6938   12.5832 C   0  0  0  0  0  0  0  0  0  0  0  0
  -26.4868  -25.0138   13.2211 C   0  0  0  0  0  0  0  0  0  0  0  0
  -19.4229  -24.7974   21.2502 C   0  0  0  0  0  0  0  0  0  0  0  0
  -21.5396  -28.9020   25.8008 C   0  0  0  0  0  0  0  0  0  0  0  0
  -20.6355  -26.6531   25.1737 C   0  0  0  0  0  0  0  0  0  0  0  0
  -19.5712  -28.7198   24.2689 C   0  0  0  0  0  0  0  0  0  0  0  0
  -22.9600  -24.6901   19.8526 C   0  0  0  0  0  0  0  0  0  0  0  0
  -27.5110  -24.0002   15.7579 C   0  0  0  0  0  0  0  0  0  0  0  0
  -21.8349  -28.0078   23.3968 C   0  0  1  0  0  0  0  0  0  0  0  0
  -20.7906  -25.3589   20.8942 C   0  0  2  0  0  0  0  0  0  0  0  0
  -20.9220  -28.0779   24.6535 C   0  0  0  0  0  0  0  0  0  0  0  0
  -22.7795  -17.9420   19.8600 N   0  0  0  0  0  0  0  0  0  0  0  0
  -22.2471  -19.0253   20.4509 N   0  0  0  0  0  0  0  0  0  0  0  0
  -27.7060  -24.1160   17.1970 N   0  0  0  0  0  0  0  0  0  0  0  0
  -23.4122  -29.5014   22.2114 N   0  0  0  0  0  0  0  0  0  0  0  0
  -21.1425  -21.0333   17.3962 N   0  0  0  0  0  0  0  0  0  0  0  0
  -22.0574  -20.1401   22.5322 N   0  0  0  0  0  0  0  0  0  0  0  0
  -24.5591  -16.5117   23.5180 N   0  0  0  0  0  0  0  0  0  0  0  0
  -22.9820  -22.4228   16.8982 N   0  0  0  0  0  0  0  0  0  0  0  0
  -24.7274  -32.6754   23.1738 N   0  0  0  0  0  0  0  0  0  0  0  0
  -21.2637  -27.2563   22.2844 N   0  0  0  0  0  0  0  0  0  0  0  0
  -21.5982  -24.2712   20.2731 N   0  3  0  0  0  0  0  0  0  0  0  0
  -27.4616  -26.4256   17.1801 O   0  0  0  0  0  0  0  0  0  0  0  0
  -23.5792  -18.3913   24.3929 O   0  0  0  0  0  0  0  0  0  0  0  0
  -25.4491  -30.4987   23.5784 O   0  0  0  0  0  0  0  0  0  0  0  0
  -21.3623  -30.2959   22.9878 O   0  0  0  0  0  0  0  0  0  0  0  0
  -22.1878  -25.2088   22.8596 O   0  0  0  0  0  0  0  0  0  0  0  0
  -20.8594  -22.9372   16.1159 O   0  0  0  0  0  0  0  0  0  0  0  0
  -26.1650  -12.5496   19.9453 O   0  0  0  0  0  0  0  0  0  0  0  0
  -28.2862  -26.6489   19.7293 O   0  0  0  0  0  0  0  0  0  1  0  0
  -31.6727  -12.7658   19.7949 F   0  0  0  0  0  0  0  0  0  0  0  0
  -27.5530  -11.7863   17.6796 F   0  0  0  0  0  0  0  0  0  0  0  0
  1  2  1  0  0  0  0
  1  5  2  0  0  0  0
  2  6  2  0  0  0  0
  3  8  2  0  0  0  0
  3 17  1  0  0  0  0
  4  9  1  0  0  0  0
  4 17  2  0  0  0  0
  5 19  1  0  0  0  0
  6 21  1  0  0  0  0
  7 10  2  0  0  0  0
  7 20  1  0  0  0  0
  8 27  1  0  0  0  0
  9 27  2  0  0  0  0
 10 28  1  0  0  0  0
 11 12  2  0  0  0  0
 11 29  1  0  0  0  0
 12 30  1  0  0  0  0
 13 22  1  0  0  0  0
 13 28  2  0  0  0  0
 14 23  2  0  0  0  0
 14 26  1  0  0  0  0
 15 24  1  0  0  0  0
 15 26  2  0  0  0  0
 16 30  2  0  0  0  0
 16 31  1  0  0  0  0
 17 32  1  0  0  0  0
 18 32  1  0  0  0  0
 18 33  2  0  0  0  0
 18 35  1  0  0  0  0
 19 21  2  0  0  0  0
 19 40  1  0  0  0  0
 20 22  2  0  0  0  0
 20 41  1  0  0  0  0
 21 52  1  0  0  0  0
 22 42  1  0  0  0  0
 23 25  1  0  0  0  0
 23 56  1  0  0  0  0
 24 25  2  0  0  0  0
 24 63  1  0  0  0  0
 25 57  1  0  0  0  0
 26 74  1  0  0  0  0
 27 84  1  0  0  0  0
 28 85  1  0  0  0  0
 29 31  2  0  0  0  0
 29 84  1  0  0  0  0
 30 86  1  0  0  0  0
 31 87  1  0  0  0  0
 32 67  2  0  0  0  0
 33 68  1  0  0  0  0
 33 72  1  0  0  0  0
 34 53  1  0  0  0  0
 34 69  1  0  0  0  0
 34 78  2  0  0  0  0
 35 73  1  0  0  0  0
 35 79  2  0  0  0  0
 36 54  1  0  0  0  0
 36 75  1  0  0  0  0
 36 80  2  0  0  0  0
 37 64  1  0  0  0  0
 37 70  1  0  0  0  0
 37 81  2  0  0  0  0
 38 65  1  0  0  0  0
 38 76  1  0  0  0  0
 38 82  2  0  0  0  0
 39 71  1  0  0  0  0
 39 74  1  0  0  0  0
 39 83  2  0  0  0  0
 40 43  1  0  0  0  0
 41 54  1  0  0  0  0
 42 70  1  0  0  0  0
 43 46  1  0  0  0  0
 44 47  1  0  0  0  0
 44 49  1  0  0  0  0
 45 48  1  0  0  0  0
 45 50  1  0  0  0  0
 46 52  1  0  0  0  0
 47 53  1  0  0  0  0
 48 55  1  0  0  0  0
 49 69  1  0  0  0  0
 50 71  1  0  0  0  0
 51 55  1  0  0  0  0
 51 71  1  0  0  0  0
 52 75  1  0  0  0  0
 53 85  1  0  0  0  0
 54 70  1  0  0  0  0
 55 68  1  0  0  0  0
 58 65  1  0  0  0  0
 59 66  1  0  0  0  0
 60 66  1  0  0  0  0
 61 66  1  0  0  0  0
 62 77  1  0  0  0  0
 63 69  1  0  0  0  0
 64 66  1  0  0  0  0
 64 76  1  0  0  0  0
 65 77  1  0  0  0  0
 67 68  1  0  0  0  0
M  CHG  1  77   1
M  ISO  4  39 100  53 101  74 100  85 101
M  END
> <Batch ID>
0045

> <Smiles>
CNC(C)C(=O)NC(C(=O)N1Cc2cc([101O:1][101CH:1]3CCCN(Cc4cc([100NH:0][100C:0](=O)N5CCCC(n6nc(-c7ccc(Oc8ccc(F)cc8F)cc7)c(C(N)=O)c6N)C5)cc(C)c4C)C3=O)ccc2CC1C(=O)NC1CCCc2ccccc21)C(C)(C)C

> <Shape>
0.248

> <Color>
0.067

> <Negative vol penalty>
0.000

$$$$

  -OEChem-04042322213D

 86 94  0     1  0  0  0  0  0999 V2000
  -26.8346  -35.2961   23.8423 C   0  0  0  0  0  0  0  0  0  0  0  0
  -27.2431  -33.9974   23.5558 C   0  0  0  0  0  0  0  0  0  0  0  0
  -25.0480  -11.7324   21.4221 C   0  0  0  0  0  0  0  0  0  0  0  0
  -23.4921  -13.3915   22.2367 C   0  0  0  0  0  0  0  0  0  0  0  0
  -25.5219  -35.5402   24.2438 C   0  0  0  0  0  0  0  0  0  0  0  0
  -26.3393  -32.9419   23.6718 C   0  0  0  0  0  0  0  0  0  0  0  0
  -26.5608  -29.7542   19.7432 C   0  0  0  0  0  0  0  0  0  0  0  0
  -24.8076  -22.4449   22.5822 C   0  0  0  0  0  0  0  0  0  0  0  0
  -25.1162  -21.3481   21.7776 C   0  0  0  0  0  0  0  0  0  0  0  0
  -24.7083  -10.8929   22.4829 C   0  0  0  0  0  0  0  0  0  0  0  0
  -23.1523  -12.5520   23.2975 C   0  0  0  0  0  0  0  0  0  0  0  0
  -27.6139  -28.8408   19.7229 C   0  0  0  0  0  0  0  0  0  0  0  0
  -22.1871   -8.7873   23.2844 C   0  0  0  0  0  0  0  0  0  0  0  0
  -21.9563   -7.4418   22.9980 C   0  0  0  0  0  0  0  0  0  0  0  0
  -27.4445  -21.9930   21.7915 C   0  0  0  0  0  0  0  0  0  0  0  0
  -26.1351  -27.1265   20.5556 C   0  0  0  0  0  0  0  0  0  0  0  0
  -23.7534   -6.8166   24.4868 C   0  0  0  0  0  0  0  0  0  0  0  0
  -24.4400  -12.9818   21.2990 C   0  0  0  0  0  0  0  0  0  0  0  0
  -27.1359  -23.0899   22.5961 C   0  0  0  0  0  0  0  0  0  0  0  0
  -24.1844  -13.9044   18.9344 C   0  0  0  0  0  0  0  0  0  0  0  0
  -24.5990  -34.4883   24.3555 C   0  0  0  0  0  0  0  0  0  0  0  0
  -25.2874  -29.3627   20.1809 C   0  0  0  0  0  0  0  0  0  0  0  0
  -25.0134  -33.1719   24.0765 C   0  0  0  0  0  0  0  0  0  0  0  0
  -25.0668  -28.0361   20.5781 C   0  0  0  0  0  0  0  0  0  0  0  0
  -25.8174  -23.3158   22.9914 C   0  0  0  0  0  0  0  0  0  0  0  0
  -26.4346  -21.1222   21.3822 C   0  0  0  0  0  0  0  0  0  0  0  0
  -23.7605  -11.3027   23.4206 C   0  0  0  0  0  0  0  0  0  0  0  0
  -27.4018  -27.5274   20.1319 C   0  0  0  0  0  0  0  0  0  0  0  0
  -23.2011   -9.1474   24.1719 C   0  0  0  0  0  0  0  0  0  0  0  0
  -22.7393   -6.4565   23.5993 C   0  0  0  0  0  0  0  0  0  0  0  0
  -23.9842   -8.1621   24.7732 C   0  0  0  0  0  0  0  0  0  0  0  0
  -24.7909  -13.8497   20.2037 C   0  0  0  0  0  0  0  0  0  0  0  0
  -24.8767  -14.8837   18.2650 C   0  0  0  0  0  0  0  0  0  0  0  0
  -28.2308  -24.0010   23.0181 C   0  0  0  0  0  0  0  0  0  0  0  0
  -23.0927  -13.1385   18.4077 C   0  0  0  0  0  0  0  0  0  0  0  0
  -23.3701  -30.2284   22.5638 C   0  0  0  0  0  0  0  0  0  0  0  0
  -21.2818  -28.2299   21.0918 C   0  0  0  0  0  0  0  0  0  0  0  0
  -20.7951  -25.5603   19.0222 C   0  0  0  0  0  0  0  0  0  0  0  0
  -28.0032  -19.6407   20.0818 C   0  0  0  0  0  0  0  0  0  0  0  0
  -23.2037  -34.7951   24.8388 C   0  0  0  0  0  0  0  0  0  0  0  0
  -24.1554  -30.3532   20.1714 C   0  0  0  0  0  0  0  0  0  0  0  0
  -23.7137  -27.5604   21.0374 C   0  0  0  0  0  0  0  0  0  0  0  0
  -22.2066  -33.6696   24.5754 C   0  0  0  0  0  0  0  0  0  0  0  0
  -29.1912  -16.9531   18.0712 C   0  0  0  0  0  0  0  0  0  0  0  0
  -22.7991  -32.3249   24.9848 C   0  0  0  0  0  0  0  0  0  0  0  0
  -28.1392  -15.8594   18.2696 C   0  0  0  0  0  0  0  0  0  0  0  0
  -29.4354  -17.7446   19.3548 C   0  0  0  0  0  0  0  0  0  0  0  0
  -27.1768  -17.2069   20.1788 C   0  0  0  0  0  0  0  0  0  0  0  0
  -24.0557  -32.0037   24.1667 C   0  0  1  0  0  0  0  0  0  0  0  0
  -23.0243  -29.9770   21.1234 C   0  0  1  0  0  0  0  0  0  0  0  0
  -26.8496  -16.4249   18.8962 C   0  0  2  0  0  0  0  0  0  0  0  0
  -25.4593  -24.4827   23.8530 C   0  0  0  0  0  0  0  0  0  0  0  0
  -18.9784  -24.1363   18.0379 C   0  0  0  0  0  0  0  0  0  0  0  0
  -20.9506  -26.8058   23.7699 C   0  0  0  0  0  0  0  0  0  0  0  0
  -19.9163  -24.8850   22.5414 C   0  0  0  0  0  0  0  0  0  0  0  0
  -18.8263  -27.1282   22.4900 C   0  0  0  0  0  0  0  0  0  0  0  0
  -32.0438  -26.6487   21.1678 C   0  0  0  0  0  0  0  0  0  0  0  0
  -21.5431  -26.3121   16.2591 C   0  0  0  0  0  0  0  0  0  0  0  0
  -30.0331  -25.5198   22.2431 C   0  0  0  0  0  0  0  0  0  0  0  0
  -29.7425  -27.1505   20.3188 C   0  0  0  0  0  0  0  0  0  1  0  0
  -20.9619  -26.7577   21.1885 C   0  0  1  0  0  0  0  0  0  0  0  0
  -19.8626  -25.3579   17.8416 C   0  0  2  0  0  0  0  0  0  0  0  0
  -20.1898  -26.4033   22.4907 C   0  0  0  0  0  0  0  0  0  0  0  0
  -30.6401  -26.0845   20.9542 C   0  0  1  0  0  0  0  0  0  0  0  0
  -25.7916  -14.7245   20.3351 N   0  0  0  0  0  0  0  0  0  0  0  0
  -25.8194  -15.3380   19.1397 N   0  0  0  0  0  0  0  0  0  0  0  0
  -22.6404  -28.5679   21.0162 N   0  0  0  0  0  0  0  0  0  0  0  0
  -28.1700  -18.2530   19.8886 N   0  0  0  0  0  0  0  0  0  0  0  0
  -24.7652  -15.3917   17.0193 N   0  0  0  0  0  0  0  0  0  0  0  0
  -22.4954  -12.1735   19.2300 N   0  0  0  0  0  0  0  0  0  0  0  0
  -26.7473  -20.0090   20.5632 N   0  0  0  0  0  0  0  0  0  0  0  0
  -28.9310  -24.6284   21.9954 N   0  0  0  0  0  0  0  0  0  0  0  0
  -23.6933  -31.5425   22.8437 N   0  0  0  0  0  0  0  0  0  0  0  0
  -20.2531  -26.4126   19.9609 N   0  0  0  0  0  0  0  0  0  0  0  0
  -20.6467  -25.1739   16.5877 N   0  3  0  0  0  0  0  0  0  0  0  0
  -28.4711  -24.1362   24.2150 O   0  0  0  0  0  0  0  0  0  0  0  0
  -22.6705  -13.2937   17.2367 O   0  0  0  0  0  0  0  0  0  0  0  0
  -23.3442  -29.2994   23.3625 O   0  0  0  0  0  0  0  0  0  0  0  0
  -20.3598  -29.0494   21.0765 O   0  0  0  0  0  0  0  0  0  0  0  0
  -21.8929  -25.0140   19.1052 O   0  0  0  0  0  0  0  0  0  0  0  0
  -28.8985  -20.4456   19.8124 O   0  0  0  0  0  0  0  0  0  0  0  0
  -23.4286  -10.4836   24.4558 O   0  0  0  0  0  0  0  0  0  0  0  0
  -28.4282  -26.6340   20.1138 O   0  0  0  0  0  0  0  0  0  1  0  0
  -22.5165   -5.1644   23.3254 F   0  0  0  0  0  0  0  0  0  0  0  0
  -24.9591   -8.5019   25.6276 F   0  0  0  0  0  0  0  0  0  0  0  0
  -30.7458  -25.0574   20.0569 F   0  0  0  0  0  0  0  0  0  0  0  0
  1  2  1  0  0  0  0
  1  5  2  0  0  0  0
  2  6  2  0  0  0  0
  3 10  2  0  0  0  0
  3 18  1  0  0  0  0
  4 11  1  0  0  0  0
  4 18  2  0  0  0  0
  5 21  1  0  0  0  0
  6 23  1  0  0  0  0
  7 12  2  0  0  0  0
  7 22  1  0  0  0  0
  8  9  2  0  0  0  0
  8 25  1  0  0  0  0
  9 26  1  0  0  0  0
 10 27  1  0  0  0  0
 11 27  2  0  0  0  0
 12 28  1  0  0  0  0
 13 14  2  0  0  0  0
 13 29  1  0  0  0  0
 14 30  1  0  0  0  0
 15 19  1  0  0  0  0
 15 26  2  0  0  0  0
 16 24  1  0  0  0  0
 16 28  2  0  0  0  0
 17 30  2  0  0  0  0
 17 31  1  0  0  0  0
 18 32  1  0  0  0  0
 19 25  2  0  0  0  0
 19 34  1  0  0  0  0
 20 32  1  0  0  0  0
 20 33  2  0  0  0  0
 20 35  1  0  0  0  0
 21 23  2  0  0  0  0
 21 40  1  0  0  0  0
 22 24  2  0  0  0  0
 22 41  1  0  0  0  0
 23 49  1  0  0  0  0
 24 42  1  0  0  0  0
 25 52  1  0  0  0  0
 26 71  1  0  0  0  0
 27 82  1  0  0  0  0
 28 83  1  0  0  0  0
 29 31  2  0  0  0  0
 29 82  1  0  0  0  0
 30 84  1  0  0  0  0
 31 85  1  0  0  0  0
 32 65  2  0  0  0  0
 33 66  1  0  0  0  0
 33 69  1  0  0  0  0
 34 72  1  0  0  0  0
 34 76  2  0  0  0  0
 35 70  1  0  0  0  0
 35 77  2  0  0  0  0
 36 50  1  0  0  0  0
 36 73  1  0  0  0  0
 36 78  2  0  0  0  0
 37 61  1  0  0  0  0
 37 67  1  0  0  0  0
 37 79  2  0  0  0  0
 38 62  1  0  0  0  0
 38 74  1  0  0  0  0
 38 80  2  0  0  0  0
 39 68  1  0  0  0  0
 39 71  1  0  0  0  0
 39 81  2  0  0  0  0
 40 43  1  0  0  0  0
 41 50  1  0  0  0  0
 42 67  1  0  0  0  0
 43 45  1  0  0  0  0
 44 46  1  0  0  0  0
 44 47  1  0  0  0  0
 45 49  1  0  0  0  0
 46 51  1  0  0  0  0
 47 68  1  0  0  0  0
 48 51  1  0  0  0  0
 48 68  1  0  0  0  0
 49 73  1  0  0  0  0
 50 67  1  0  0  0  0
 51 66  1  0  0  0  0
 53 62  1  0  0  0  0
 54 63  1  0  0  0  0
 55 63  1  0  0  0  0
 56 63  1  0  0  0  0
 57 64  1  0  0  0  0
 58 75  1  0  0  0  0
 59 64  1  0  0  0  0
 59 72  1  0  0  0  0
 60 64  1  0  0  0  0
 60 83  1  0  0  0  0
 61 63  1  0  0  0  0
 61 74  1  0  0  0  0
 62 75  1  0  0  0  0
 64 86  1  0  0  0  0
 65 66  1  0  0  0  0
M  CHG  1  75   1
M  ISO  4  39 100  60 101  71 100  83 101
M  END
> <Batch ID>
0045

> <Smiles>
CNC(C)C(=O)NC(C(=O)N1Cc2cc([101O:1][101CH2:1]C(C)(F)CNC(=O)c3cc([100NH:0][100C:0](=O)N4CCCC(n5nc(-c6ccc(Oc7ccc(F)cc7F)cc6)c(C(N)=O)c5N)C4)ccc3C)ccc2CC1C(=O)NC1CCCc2ccccc21)C(C)(C)C

> <Shape>
0.263

> <Color>
0.083

> <Negative vol penalty>
0.000

$$$$

  -OEChem-04042322213D

 87 96  0     1  0  0  0  0  0999 V2000
  -29.6111  -11.0358   19.5831 C   0  0  0  0  0  0  0  0  0  0  0  0
  -30.2225  -12.1934   19.1124 C   0  0  0  0  0  0  0  0  0  0  0  0
  -21.0799  -26.7693   21.7031 C   0  0  0  0  0  0  0  0  0  0  0  0
  -20.1137  -28.1741   23.4149 C   0  0  0  0  0  0  0  0  0  0  0  0
  -28.3246  -11.0959   20.1169 C   0  0  0  0  0  0  0  0  0  0  0  0
  -29.5472  -13.4118   19.1743 C   0  0  0  0  0  0  0  0  0  0  0  0
  -30.7416  -20.4174   20.0745 C   0  0  0  0  0  0  0  0  0  0  0  0
  -28.4137  -31.4125   18.4719 C   0  0  0  0  0  0  0  0  0  0  0  0
  -19.8198  -26.6020   21.1291 C   0  0  0  0  0  0  0  0  0  0  0  0
  -18.8535  -28.0068   22.8408 C   0  0  0  0  0  0  0  0  0  0  0  0
  -30.4640  -21.6436   19.4717 C   0  0  0  0  0  0  0  0  0  0  0  0
  -17.0453  -24.7595   21.7054 C   0  0  0  0  0  0  0  0  0  0  0  0
  -16.6747  -23.4707   21.3217 C   0  0  0  0  0  0  0  0  0  0  0  0
  -28.8608  -30.3638   17.6683 C   0  0  0  0  0  0  0  0  0  0  0  0
  -28.2758  -21.6405   20.4872 C   0  0  0  0  0  0  0  0  0  0  0  0
  -29.1550  -30.2214   20.4388 C   0  0  0  0  0  0  0  0  0  0  0  0
  -16.4292  -24.2211   19.0383 C   0  0  0  0  0  0  0  0  0  0  0  0
  -21.2269  -27.5553   22.8461 C   0  0  0  0  0  0  0  0  0  0  0  0
  -23.3703  -26.7217   23.9500 C   0  0  0  0  0  0  0  0  0  0  0  0
  -27.6369  -12.3173   20.1943 C   0  0  0  0  0  0  0  0  0  0  0  0
  -29.7827  -19.7873   20.8807 C   0  0  0  0  0  0  0  0  0  0  0  0
  -28.2497  -13.4881   19.7085 C   0  0  0  0  0  0  0  0  0  0  0  0
  -28.5447  -20.4076   21.1012 C   0  0  0  0  0  0  0  0  0  0  0  0
  -28.5609  -31.3414   19.8572 C   0  0  0  0  0  0  0  0  0  0  0  0
  -29.6020  -29.1726   19.6352 C   0  0  0  0  0  0  0  0  0  0  0  0
  -18.7065  -27.2208   21.6979 C   0  0  0  0  0  0  0  0  0  0  0  0
  -29.2299  -22.2539   19.6757 C   0  0  0  0  0  0  0  0  0  0  0  0
  -17.1078  -25.7792   20.7555 C   0  0  0  0  0  0  0  0  0  0  0  0
  -16.3666  -23.2015   19.9882 C   0  0  0  0  0  0  0  0  0  0  0  0
  -16.7998  -25.5099   19.4220 C   0  0  0  0  0  0  0  0  0  0  0  0
  -29.4549  -29.2438   18.2499 C   0  0  0  0  0  0  0  0  0  0  0  0
  -22.5283  -27.7280   23.4399 C   0  0  0  0  0  0  0  0  0  0  0  0
  -24.4801  -27.3965   24.3968 C   0  0  0  0  0  0  0  0  0  0  0  0
  -29.7059  -25.6213   19.7517 C   0  0  0  0  0  0  0  0  0  0  0  0
  -23.1675  -25.3038   24.0140 C   0  0  0  0  0  0  0  0  0  0  0  0
  -28.2011  -17.0333   20.7487 C   0  0  0  0  0  0  0  0  0  0  0  0
  -27.1403  -17.9505   23.6738 C   0  0  0  0  0  0  0  0  0  0  0  0
  -26.0114  -21.0051   25.2269 C   0  0  0  0  0  0  0  0  0  0  0  0
  -26.9310  -32.6523   22.9065 C   0  0  0  0  0  0  0  0  0  0  0  0
  -26.2294  -12.3248   20.7362 C   0  0  0  0  0  0  0  0  0  0  0  0
  -30.1077  -18.4777   21.5454 C   0  0  0  0  0  0  0  0  0  0  0  0
  -27.4887  -19.7823   21.9743 C   0  0  0  0  0  0  0  0  0  0  0  0
  -25.7279  -13.7175   21.1095 C   0  0  0  0  0  0  0  0  0  0  0  0
  -26.9235  -26.3145   20.4579 C   0  0  0  0  0  0  0  0  0  0  0  0
  -25.8312  -31.6427   26.1389 C   0  0  0  0  0  0  0  0  0  0  0  0
  -26.0459  -14.7146   19.9998 C   0  0  0  0  0  0  0  0  0  0  0  0
  -27.2760  -25.0910   19.6138 C   0  0  0  0  0  0  0  0  0  0  0  0
  -24.9360  -30.4342   25.8597 C   0  0  0  0  0  0  0  0  0  0  0  0
  -28.1349  -26.9406   21.1430 C   0  0  0  0  0  0  0  0  0  0  0  0
  -25.6959  -32.7080   25.0532 C   0  0  0  0  0  0  0  0  0  0  0  0
  -25.0162  -31.0128   23.3985 C   0  0  0  0  0  0  0  0  0  0  0  0
  -27.5591  -14.8327   19.7812 C   0  0  1  0  0  0  0  0  0  0  0  0
  -28.6553  -24.5364   19.9463 C   0  0  1  0  0  0  0  0  0  1  0  0
  -28.8663  -17.6793   21.9311 C   0  0  1  0  0  0  0  0  0  0  0  0
  -25.1599  -29.8871   24.4371 C   0  0  2  0  0  0  0  0  0  0  0  0
  -26.0606  -21.7289   27.6292 C   0  0  0  0  0  0  0  0  0  0  0  0
  -24.3066  -16.8233   23.7700 C   0  0  0  0  0  0  0  0  0  0  0  0
  -23.6705  -18.7367   25.2540 C   0  0  0  0  0  0  0  0  0  0  0  0
  -25.3960  -17.0988   26.0041 C   0  0  0  0  0  0  0  0  0  0  0  0
  -27.4826  -23.4876   24.5696 C   0  0  0  0  0  0  0  0  0  0  0  0
  -30.2366  -27.9853   20.2999 C   0  0  0  0  0  0  0  0  0  0  0  0
  -28.0826  -32.4630   20.7163 C   0  0  0  0  0  0  0  0  0  0  0  0
  -25.9687  -18.7555   24.1821 C   0  0  1  0  0  0  0  0  0  0  0  0
  -26.7488  -21.8177   26.2760 C   0  0  2  0  0  0  0  0  0  0  0  0
  -24.8467  -17.8583   24.7769 C   0  0  0  0  0  0  0  0  0  0  0  0
  -23.0577  -28.9492   23.5520 N   0  0  0  0  0  0  0  0  0  0  0  0
  -24.2443  -28.7146   24.1377 N   0  0  0  0  0  0  0  0  0  0  0  0
  -29.3438  -26.8391   20.3336 N   0  0  0  0  0  0  0  0  0  0  0  0
  -27.8516  -18.4986   22.5970 N   0  0  0  0  0  0  0  0  0  0  0  0
  -25.9216  -32.1246   23.7285 N   0  0  0  0  0  0  0  0  0  0  0  0
  -25.6248  -26.9849   24.9823 N   0  0  0  0  0  0  0  0  0  0  0  0
  -21.9709  -24.7766   23.5096 N   0  0  0  0  0  0  0  0  0  0  0  0
  -28.1562  -15.6537   20.8127 N   0  0  0  0  0  0  0  0  0  0  0  0
  -26.5180  -19.7270   25.1217 N   0  0  0  0  0  0  0  0  0  0  0  0
  -27.0826  -32.0371   21.6699 N   0  0  0  0  0  0  0  0  0  0  0  0
  -26.8095  -23.2510   25.8727 N   0  3  0  0  0  0  0  0  0  0  0  0
  -30.7578  -25.4105   19.1505 O   0  0  0  0  0  0  0  0  0  0  0  0
  -24.0150  -24.5291   24.5190 O   0  0  0  0  0  0  0  0  0  0  0  0
  -27.7598  -17.7348   19.8460 O   0  0  0  0  0  0  0  0  0  0  0  0
  -27.4186  -16.8785   24.2169 O   0  0  0  0  0  0  0  0  0  0  0  0
  -25.0769  -21.4577   24.5693 O   0  0  0  0  0  0  0  0  0  0  0  0
  -27.6479  -33.5978   23.2515 O   0  0  0  0  0  0  0  0  0  0  0  0
  -17.4767  -27.0580   21.1378 O   0  0  0  0  0  0  0  0  0  0  0  0
  -28.9560  -23.4504   19.0880 O   0  0  0  0  0  0  0  0  0  1  0  0
  -16.0122  -21.9634   19.6197 F   0  0  0  0  0  0  0  0  0  0  0  0
  -16.8592  -26.4851   18.5048 F   0  0  0  0  0  0  0  0  0  0  0  0
  -29.9962  -27.9654   17.2243 Cl  0  0  0  0  0  0  0  0  0  0  0  0
  1  2  1  0  0  0  0
  1  5  2  0  0  0  0
  2  6  2  0  0  0  0
  3  9  2  0  0  0  0
  3 18  1  0  0  0  0
  4 10  1  0  0  0  0
  4 18  2  0  0  0  0
  5 20  1  0  0  0  0
  6 22  1  0  0  0  0
  7 11  2  0  0  0  0
  7 21  1  0  0  0  0
  8 14  2  0  0  0  0
  8 24  1  0  0  0  0
  9 26  1  0  0  0  0
 10 26  2  0  0  0  0
 11 27  1  0  0  0  0
 12 13  2  0  0  0  0
 12 28  1  0  0  0  0
 13 29  1  0  0  0  0
 14 31  1  0  0  0  0
 15 23  1  0  0  0  0
 15 27  2  0  0  0  0
 16 24  2  0  0  0  0
 16 25  1  0  0  0  0
 17 29  2  0  0  0  0
 17 30  1  0  0  0  0
 18 32  1  0  0  0  0
 19 32  1  0  0  0  0
 19 33  2  0  0  0  0
 19 35  1  0  0  0  0
 20 22  2  0  0  0  0
 20 40  1  0  0  0  0
 21 23  2  0  0  0  0
 21 41  1  0  0  0  0
 22 52  1  0  0  0  0
 23 42  1  0  0  0  0
 24 62  1  0  0  0  0
 25 31  2  0  0  0  0
 25 61  1  0  0  0  0
 26 83  1  0  0  0  0
 27 84  1  0  0  0  0
 28 30  2  0  0  0  0
 28 83  1  0  0  0  0
 29 85  1  0  0  0  0
 30 86  1  0  0  0  0
 31 87  1  0  0  0  0
 32 66  2  0  0  0  0
 33 67  1  0  0  0  0
 33 71  1  0  0  0  0
 34 53  1  0  0  0  0
 34 68  1  0  0  0  0
 34 77  2  0  0  0  0
 35 72  1  0  0  0  0
 35 78  2  0  0  0  0
 36 54  1  0  0  0  0
 36 73  1  0  0  0  0
 36 79  2  0  0  0  0
 37 63  1  0  0  0  0
 37 69  1  0  0  0  0
 37 80  2  0  0  0  0
 38 64  1  0  0  0  0
 38 74  1  0  0  0  0
 38 81  2  0  0  0  0
 39 70  1  0  0  0  0
 39 75  1  0  0  0  0
 39 82  2  0  0  0  0
 40 43  1  0  0  0  0
 41 54  1  0  0  0  0
 42 69  1  0  0  0  0
 43 46  1  0  0  0  0
 44 47  1  0  0  0  0
 44 49  1  0  0  0  0
 45 48  1  0  0  0  0
 45 50  1  0  0  0  0
 46 52  1  0  0  0  0
 47 53  1  0  0  0  0
 48 55  1  0  0  0  0
 49 68  1  0  0  0  0
 50 70  1  0  0  0  0
 51 55  1  0  0  0  0
 51 70  1  0  0  0  0
 52 73  1  0  0  0  0
 53 84  1  0  0  0  0
 54 69  1  0  0  0  0
 55 67  1  0  0  0  0
 56 64  1  0  0  0  0
 57 65  1  0  0  0  0
 58 65  1  0  0  0  0
 59 65  1  0  0  0  0
 60 76  1  0  0  0  0
 61 68  1  0  0  0  0
 62 75  1  0  0  0  0
 63 65  1  0  0  0  0
 63 74  1  0  0  0  0
 64 76  1  0  0  0  0
 66 67  1  0  0  0  0
M  CHG  1  76   1
M  ISO  4  39 100  53 101  75 100  84 101
M  END
> <Batch ID>
0045

> <Smiles>
CNC(C)C(=O)NC(C(=O)N1Cc2cc([101O:1][101CH:1]3CCCN(Cc4cc(C[100NH:0][100C:0](=O)N5CCCC(n6nc(-c7ccc(Oc8ccc(F)cc8F)cc7)c(C(N)=O)c6N)C5)ccc4Cl)C3=O)ccc2CC1C(=O)NC1CCCc2ccccc21)C(C)(C)C

> <Shape>
0.252

> <Color>
0.075

> <Negative vol penalty>
0.000

$$$$
