
  -OEChem-04042322233D

 86 95  0     1  0  0  0  0  0999 V2000
  -27.3625  -34.6958   24.3636 C   0  0  0  0  0  0  0  0  0  0  0  0
  -27.6544  -33.3917   23.9770 C   0  0  0  0  0  0  0  0  0  0  0  0
  -25.4912   -9.9385   18.8845 C   0  0  0  0  0  0  0  0  0  0  0  0
  -27.5559  -11.1653   18.6219 C   0  0  0  0  0  0  0  0  0  0  0  0
  -26.0736  -35.0262   24.7801 C   0  0  0  0  0  0  0  0  0  0  0  0
  -26.6577  -32.4169   24.0077 C   0  0  0  0  0  0  0  0  0  0  0  0
  -26.6265  -29.5383   19.8414 C   0  0  0  0  0  0  0  0  0  0  0  0
  -30.0496  -18.4386   20.5659 C   0  0  0  0  0  0  0  0  0  0  0  0
  -25.9884   -8.9259   18.0641 C   0  0  0  0  0  0  0  0  0  0  0  0
  -28.0532  -10.1527   17.8015 C   0  0  0  0  0  0  0  0  0  0  0  0
  -27.5927  -28.5373   19.7519 C   0  0  0  0  0  0  0  0  0  0  0  0
  -26.4118   -8.3846   14.7547 C   0  0  0  0  0  0  0  0  0  0  0  0
  -25.5664   -7.8770   13.7681 C   0  0  0  0  0  0  0  0  0  0  0  0
  -31.2630  -19.1111   20.4213 C   0  0  0  0  0  0  0  0  0  0  0  0
  -25.9571  -26.9049   20.4441 C   0  0  0  0  0  0  0  0  0  0  0  0
  -28.9324  -20.1882   19.3298 C   0  0  0  0  0  0  0  0  0  0  0  0
  -25.7305   -5.6793   14.7582 C   0  0  0  0  0  0  0  0  0  0  0  0
  -26.2749  -11.0582   19.1634 C   0  0  0  0  0  0  0  0  0  0  0  0
  -25.3457  -11.9870   21.3501 C   0  0  0  0  0  0  0  0  0  0  0  0
  -25.0582  -34.0572   24.8067 C   0  0  0  0  0  0  0  0  0  0  0  0
  -25.3188  -29.2314   20.2442 C   0  0  0  0  0  0  0  0  0  0  0  0
  -25.3544  -32.7344   24.4262 C   0  0  0  0  0  0  0  0  0  0  0  0
  -24.9754  -27.9035   20.5355 C   0  0  0  0  0  0  0  0  0  0  0  0
  -30.1458  -20.8607   19.1852 C   0  0  0  0  0  0  0  0  0  0  0  0
  -28.8843  -18.9771   20.0202 C   0  0  0  0  0  0  0  0  0  0  0  0
  -27.2695   -9.0330   17.5226 C   0  0  0  0  0  0  0  0  0  0  0  0
  -27.2589  -27.2208   20.0560 C   0  0  0  0  0  0  0  0  0  0  0  0
  -26.9166   -7.5395   15.7430 C   0  0  0  0  0  0  0  0  0  0  0  0
  -25.2257   -6.5244   13.7699 C   0  0  0  0  0  0  0  0  0  0  0  0
  -26.5759   -6.1869   15.7448 C   0  0  0  0  0  0  0  0  0  0  0  0
  -31.3111  -20.3222   19.7309 C   0  0  0  0  0  0  0  0  0  0  0  0
  -25.7616  -12.1048   20.0103 C   0  0  0  0  0  0  0  0  0  0  0  0
  -24.9476  -13.2544   21.6987 C   0  0  0  0  0  0  0  0  0  0  0  0
  -30.3204  -24.5753   18.5629 C   0  0  0  0  0  0  0  0  0  0  0  0
  -31.5065  -25.1841   18.4135 C   0  0  0  0  0  0  0  0  0  0  0  0
  -25.3215  -10.8349   22.2032 C   0  0  0  0  0  0  0  0  0  0  0  0
  -23.4656  -30.0795   22.6834 C   0  0  0  0  0  0  0  0  0  0  0  0
  -21.2188  -28.4002   21.0544 C   0  0  0  0  0  0  0  0  0  0  0  0
  -21.0673  -25.2990   19.2168 C   0  0  0  0  0  0  0  0  0  0  0  0
  -26.4039  -18.6890   19.6864 C   0  0  0  0  0  0  0  0  0  0  0  0
  -23.6919  -34.4510   25.3095 C   0  0  0  0  0  0  0  0  0  0  0  0
  -24.2813  -30.3185   20.3100 C   0  0  0  0  0  0  0  0  0  0  0  0
  -23.5805  -27.5185   20.9531 C   0  0  0  0  0  0  0  0  0  0  0  0
  -29.0378  -25.1261   17.9948 C   0  0  0  0  0  0  0  0  0  0  0  0
  -22.5996  -33.4449   24.9563 C   0  0  0  0  0  0  0  0  0  0  0  0
  -23.1423  -17.2661   19.8061 C   0  0  0  0  0  0  0  0  0  0  0  0
  -23.0640  -32.0240   25.2602 C   0  0  0  0  0  0  0  0  0  0  0  0
  -23.4059  -15.7711   20.0001 C   0  0  0  0  0  0  0  0  0  0  0  0
  -27.8673  -23.8634   19.8482 C   0  0  0  0  0  0  0  0  0  0  0  0
  -24.1818  -17.9112   18.8913 C   0  0  0  0  0  0  0  0  0  0  0  0
  -25.8427  -16.1879   19.4751 C   0  0  0  0  0  0  0  0  0  0  0  0
  -29.2260  -23.4485   20.4110 C   0  0  0  0  0  0  0  0  0  0  0  0
  -24.2940  -31.6546   24.4223 C   0  0  1  0  0  0  0  0  0  0  0  0
  -23.1119  -29.9736   21.2270 C   0  0  1  0  0  0  0  0  0  0  0  0
  -24.8590  -15.5076   20.4412 C   0  0  2  0  0  0  0  0  0  0  0  0
  -27.9435  -25.1718   19.0614 C   0  0  1  0  0  0  0  0  0  1  0  0
  -19.5606  -24.5860   17.3409 C   0  0  0  0  0  0  0  0  0  0  0  0
  -19.5041  -27.1992   23.2742 C   0  0  0  0  0  0  0  0  0  0  0  0
  -19.0363  -25.2562   21.7662 C   0  0  0  0  0  0  0  0  0  0  0  0
  -18.3083  -27.5488   21.1057 C   0  0  0  0  0  0  0  0  0  0  0  0
  -23.3628  -24.6428   17.4678 C   0  0  0  0  0  0  0  0  0  0  0  0
  -30.1558  -22.1604   18.4358 C   0  0  0  0  0  0  0  0  0  0  0  0
  -20.7660  -26.9602   21.0345 C   0  0  1  0  0  0  0  0  0  0  0  0
  -20.9272  -25.1392   17.7137 C   0  0  2  0  0  0  0  0  0  0  0  0
  -19.4305  -26.7482   21.8017 C   0  0  0  0  0  0  0  0  0  0  0  0
  -25.6389  -13.3488   19.5398 N   0  0  0  0  0  0  0  0  0  0  0  0
  -25.1414  -14.0243   20.5897 N   0  0  0  0  0  0  0  0  0  0  0  0
  -22.6031  -28.6181   21.0086 N   0  0  0  0  0  0  0  0  0  0  0  0
  -25.5343  -17.6229   19.3735 N   0  0  0  0  0  0  0  0  0  0  0  0
  -24.4542  -13.7743   22.8427 N   0  0  0  0  0  0  0  0  0  0  0  0
  -25.7658   -9.6106   21.6854 N   0  0  0  0  0  0  0  0  0  0  0  0
  -27.6519  -18.2932   20.1665 N   0  0  0  0  0  0  0  0  0  0  0  0
  -23.9038  -31.3329   23.0663 N   0  0  0  0  0  0  0  0  0  0  0  0
  -20.7174  -26.5669   19.6304 N   0  0  0  0  0  0  0  0  0  0  0  0
  -30.2833  -23.3585   19.3356 N   0  3  1  0  0  0  0  0  0  0  0  0
  -21.9687  -24.2095   17.1923 N   0  3  0  0  0  0  0  0  0  0  0  0
  -24.9023  -10.8860   23.3844 O   0  0  0  0  0  0  0  0  0  0  0  0
  -23.3482  -29.0972   23.4067 O   0  0  0  0  0  0  0  0  0  0  0  0
  -20.3750  -29.2988   21.1014 O   0  0  0  0  0  0  0  0  0  0  0  0
  -21.4454  -24.3888   19.9510 O   0  0  0  0  0  0  0  0  0  0  0  0
  -26.0568  -19.8666   19.5650 O   0  0  0  0  0  0  0  0  0  0  0  0
  -27.7551   -8.0450   16.7223 O   0  0  0  0  0  0  0  0  0  0  0  0
  -28.2002  -26.2419   19.9701 O   0  0  0  0  0  0  0  0  0  1  0  0
  -24.4127   -6.0375   12.8233 F   0  0  0  0  0  0  0  0  0  0  0  0
  -27.0567   -5.3703   16.6923 F   0  0  0  0  0  0  0  0  0  0  0  0
  -32.8308  -21.1249   19.5717 Cl  0  0  0  0  0  0  0  0  0  0  0  0
  1  2  1  0  0  0  0
  1  5  2  0  0  0  0
  2  6  2  0  0  0  0
  3  9  2  0  0  0  0
  3 18  1  0  0  0  0
  4 10  1  0  0  0  0
  4 18  2  0  0  0  0
  5 20  1  0  0  0  0
  6 22  1  0  0  0  0
  7 11  2  0  0  0  0
  7 21  1  0  0  0  0
  8 14  2  0  0  0  0
  8 25  1  0  0  0  0
  9 26  1  0  0  0  0
 10 26  2  0  0  0  0
 11 27  1  0  0  0  0
 12 13  2  0  0  0  0
 12 28  1  0  0  0  0
 13 29  1  0  0  0  0
 14 31  1  0  0  0  0
 15 23  1  0  0  0  0
 15 27  2  0  0  0  0
 16 24  1  0  0  0  0
 16 25  2  0  0  0  0
 17 29  2  0  0  0  0
 17 30  1  0  0  0  0
 18 32  1  0  0  0  0
 19 32  1  0  0  0  0
 19 33  2  0  0  0  0
 19 36  1  0  0  0  0
 20 22  2  0  0  0  0
 20 41  1  0  0  0  0
 21 23  2  0  0  0  0
 21 42  1  0  0  0  0
 22 53  1  0  0  0  0
 23 43  1  0  0  0  0
 24 31  2  0  0  0  0
 24 62  1  0  0  0  0
 25 72  1  0  0  0  0
 26 82  1  0  0  0  0
 27 83  1  0  0  0  0
 28 30  2  0  0  0  0
 28 82  1  0  0  0  0
 29 84  1  0  0  0  0
 30 85  1  0  0  0  0
 31 86  1  0  0  0  0
 32 66  2  0  0  0  0
 33 67  1  0  0  0  0
 33 70  1  0  0  0  0
 34 35  2  0  0  0  0
 34 44  1  0  0  0  0
 34 75  1  0  0  0  0
 36 71  1  0  0  0  0
 36 77  2  0  0  0  0
 37 54  1  0  0  0  0
 37 73  1  0  0  0  0
 37 78  2  0  0  0  0
 38 63  1  0  0  0  0
 38 68  1  0  0  0  0
 38 79  2  0  0  0  0
 39 64  1  0  0  0  0
 39 74  1  0  0  0  0
 39 80  2  0  0  0  0
 40 69  1  0  0  0  0
 40 72  1  0  0  0  0
 40 81  2  0  0  0  0
 41 45  1  0  0  0  0
 42 54  1  0  0  0  0
 43 68  1  0  0  0  0
 44 56  1  0  0  0  0
 45 47  1  0  0  0  0
 46 48  1  0  0  0  0
 46 50  1  0  0  0  0
 47 53  1  0  0  0  0
 48 55  1  0  0  0  0
 49 52  1  0  0  0  0
 49 56  1  0  0  0  0
 50 69  1  0  0  0  0
 51 55  1  0  0  0  0
 51 69  1  0  0  0  0
 52 75  1  0  0  0  0
 53 73  1  0  0  0  0
 54 68  1  0  0  0  0
 55 67  1  0  0  0  0
 56 83  1  0  0  0  0
 57 64  1  0  0  0  0
 58 65  1  0  0  0  0
 59 65  1  0  0  0  0
 60 65  1  0  0  0  0
 61 76  1  0  0  0  0
 62 75  1  0  0  0  0
 63 65  1  0  0  0  0
 63 74  1  0  0  0  0
 64 76  1  0  0  0  0
 66 67  1  0  0  0  0
M  CHG  2  75   1  76   1
M  ISO  4  40 100  56 101  72 100  83 101
M  END
> <Batch ID>
0046

> <Smiles>
C=C1C[101CH:1]([101O:1]c2ccc3c(c2)CN(C(=O)C(NC(=O)C(C)NC)C(C)(C)C)C(C(=O)NC2CCCc4ccccc42)C3)CCN1Cc1cc([100NH:0][100C:0](=O)N2CCCC(n3nc(-c4ccc(Oc5ccc(F)cc5F)cc4)c(C(N)=O)c3N)C2)ccc1Cl

> <Shape>
0.266

> <Color>
0.069

> <Negative vol penalty>
0.000

$$$$

  -OEChem-04042322233D

 88 97  0     1  0  0  0  0  0999 V2000
  -20.3694  -11.3943   18.2592 C   0  0  0  0  0  0  0  0  0  0  0  0
  -20.7181  -12.7061   17.9544 C   0  0  0  0  0  0  0  0  0  0  0  0
  -31.3819  -27.7261   21.7869 C   0  0  0  0  0  0  0  0  0  0  0  0
  -31.4180  -28.3516   20.5407 C   0  0  0  0  0  0  0  0  0  0  0  0
  -20.7926  -25.0676   22.7099 C   0  0  0  0  0  0  0  0  0  0  0  0
  -20.8911  -27.1139   23.9906 C   0  0  0  0  0  0  0  0  0  0  0  0
  -21.0504  -10.7088   19.2644 C   0  0  0  0  0  0  0  0  0  0  0  0
  -21.7473  -13.3336   18.6553 C   0  0  0  0  0  0  0  0  0  0  0  0
  -26.9703  -18.1565   17.7743 C   0  0  0  0  0  0  0  0  0  0  0  0
  -30.5256  -26.6460   22.0006 C   0  0  0  0  0  0  0  0  0  0  0  0
  -30.5976  -27.8970   19.5082 C   0  0  0  0  0  0  0  0  0  0  0  0
  -20.2093  -24.4157   23.7963 C   0  0  0  0  0  0  0  0  0  0  0  0
  -20.3078  -26.4620   25.0771 C   0  0  0  0  0  0  0  0  0  0  0  0
  -27.4627  -19.3278   18.3480 C   0  0  0  0  0  0  0  0  0  0  0  0
  -17.1512  -24.1993   25.2226 C   0  0  0  0  0  0  0  0  0  0  0  0
  -16.0507  -23.3797   24.9722 C   0  0  0  0  0  0  0  0  0  0  0  0
  -28.6220  -18.0191   20.0102 C   0  0  0  0  0  0  0  0  0  0  0  0
  -17.2596  -21.4854   25.8596 C   0  0  0  0  0  0  0  0  0  0  0  0
  -21.1336  -26.4167   22.8070 C   0  0  0  0  0  0  0  0  0  0  0  0
  -21.0744  -27.7726   20.6470 C   0  0  0  0  0  0  0  0  0  0  0  0
  -22.0949  -11.3250   19.9714 C   0  0  0  0  0  0  0  0  0  0  0  0
  -27.2918  -16.9061   18.3216 C   0  0  0  0  0  0  0  0  0  0  0  0
  -22.4420  -12.6563   19.6718 C   0  0  0  0  0  0  0  0  0  0  0  0
  -28.1345  -16.8333   19.4399 C   0  0  0  0  0  0  0  0  0  0  0  0
  -29.7052  -26.1914   20.9682 C   0  0  0  0  0  0  0  0  0  0  0  0
  -29.7412  -26.8169   19.7219 C   0  0  0  0  0  0  0  0  0  0  0  0
  -19.9668  -25.1129   24.9799 C   0  0  0  0  0  0  0  0  0  0  0  0
  -28.2864  -19.2594   19.4679 C   0  0  0  0  0  0  0  0  0  0  0  0
  -18.3060  -23.6620   25.7914 C   0  0  0  0  0  0  0  0  0  0  0  0
  -16.1049  -22.0228   25.2907 C   0  0  0  0  0  0  0  0  0  0  0  0
  -18.3601  -22.3050   26.1099 C   0  0  0  0  0  0  0  0  0  0  0  0
  -21.7367  -27.0906   21.6853 C   0  0  0  0  0  0  0  0  0  0  0  0
  -22.0852  -28.2312   19.8380 C   0  0  0  0  0  0  0  0  0  0  0  0
  -28.7465  -22.7277   21.9899 C   0  0  0  0  0  0  0  0  0  0  0  0
  -30.6441  -22.7319   25.1337 C   0  0  0  0  0  0  0  0  0  0  0  0
  -29.1358  -22.4172   23.2357 C   0  0  0  0  0  0  0  0  0  0  0  0
  -30.2564  -23.0420   23.8915 C   0  0  0  0  0  0  0  0  0  0  0  0
  -19.6711  -27.9736   20.4329 C   0  0  0  0  0  0  0  0  0  0  0  0
  -25.6259  -14.5305   19.6197 C   0  0  0  0  0  0  0  0  0  0  0  0
  -28.5020  -13.0303   19.6145 C   0  0  0  0  0  0  0  0  0  0  0  0
  -31.9048  -13.2895   19.5947 C   0  0  0  0  0  0  0  0  0  0  0  0
  -27.4933  -26.3593   18.7582 C   0  0  0  0  0  0  0  0  0  0  0  0
  -22.7704  -10.5598   21.0818 C   0  0  0  0  0  0  0  0  0  0  0  0
  -26.7742  -15.6506   17.6748 C   0  0  0  0  0  0  0  0  0  0  0  0
  -28.5259  -15.5147   20.0535 C   0  0  0  0  0  0  0  0  0  0  0  0
  -27.5736  -22.0709   21.3088 C   0  0  0  0  0  0  0  0  0  0  0  0
  -24.0984  -11.1704   21.5220 C   0  0  0  0  0  0  0  0  0  0  0  0
  -26.6599  -29.6005   19.9594 C   0  0  0  0  0  0  0  0  0  0  0  0
  -23.9571  -12.6777   21.7088 C   0  0  0  0  0  0  0  0  0  0  0  0
  -25.2291  -29.3835   20.4507 C   0  0  0  0  0  0  0  0  0  0  0  0
  -28.7343  -22.6317   19.1321 C   0  0  0  0  0  0  0  0  0  0  0  0
  -27.5605  -28.4054   20.2733 C   0  0  0  0  0  0  0  0  0  0  0  0
  -25.6015  -26.8931   20.2759 C   0  0  0  0  0  0  0  0  0  0  0  0
  -29.9263  -23.1752   19.9185 C   0  0  0  0  0  0  0  0  0  0  0  0
  -23.5693  -13.3628   20.3929 C   0  0  1  0  0  0  0  0  0  0  0  0
  -26.7486  -14.4564   18.6238 C   0  0  1  0  0  0  0  0  0  0  0  0
  -24.6596  -28.0548   19.9229 C   0  0  1  0  0  0  0  0  0  0  0  0
  -27.9601  -21.5723   19.9161 C   0  0  1  0  0  0  0  0  0  1  0  0
  -33.9873  -11.8898   19.6322 C   0  0  0  0  0  0  0  0  0  0  0  0
  -28.0949  -12.5088   22.5931 C   0  0  0  0  0  0  0  0  0  0  0  0
  -30.5375  -11.9871   22.7645 C   0  0  0  0  0  0  0  0  0  0  0  0
  -29.0631  -10.5862   21.3202 C   0  0  0  0  0  0  0  0  0  0  0  0
  -29.5121  -26.1299   17.3274 C   0  0  0  0  0  0  0  0  0  0  0  0
  -32.7938  -14.3344   16.9723 C   0  0  0  0  0  0  0  0  0  0  0  0
  -28.7942  -25.0277   21.2267 C   0  0  0  0  0  0  0  0  0  0  0  0
  -29.6572  -12.9299   20.5811 C   0  0  1  0  0  0  0  0  0  0  0  0
  -32.9631  -12.5949   18.7567 C   0  0  2  0  0  0  0  0  0  0  0  0
  -29.3294  -12.0281   21.8046 C   0  0  0  0  0  0  0  0  0  0  0  0
  -23.0654  -27.1114   21.5506 N   0  0  0  0  0  0  0  0  0  0  0  0
  -23.2462  -27.8120   20.4182 N   0  0  0  0  0  0  0  0  0  0  0  0
  -27.9893  -14.3156   19.3887 N   0  0  0  0  0  0  0  0  0  0  0  0
  -26.9572  -27.1565   19.7871 N   0  0  0  0  0  0  0  0  0  0  0  0
  -22.0853  -28.9480   18.6941 N   0  0  0  0  0  0  0  0  0  0  0  0
  -18.7697  -27.4351   21.3613 N   0  0  0  0  0  0  0  0  0  0  0  0
  -24.7236  -13.4879   19.5289 N   0  0  0  0  0  0  0  0  0  0  0  0
  -30.8054  -12.4830   19.8000 N   0  0  0  0  0  0  0  0  0  0  0  0
  -28.8999  -26.3617   18.6402 N   0  0  0  0  0  0  0  0  0  0  0  0
  -29.5186  -23.7108   21.2711 N   0  3  1  0  0  0  0  0  0  0  0  0
  -33.6776  -13.5839   17.9010 N   0  3  0  0  0  0  0  0  0  0  0  0
  -19.2288  -28.5978   19.4388 O   0  0  0  0  0  0  0  0  0  0  0  0
  -25.5824  -15.4636   20.4129 O   0  0  0  0  0  0  0  0  0  0  0  0
  -28.0751  -12.0070   19.0739 O   0  0  0  0  0  0  0  0  0  0  0  0
  -32.0415  -14.4318   20.0272 O   0  0  0  0  0  0  0  0  0  0  0  0
  -26.7731  -25.6775   18.0190 O   0  0  0  0  0  0  0  0  0  0  0  0
  -19.3974  -24.4771   26.0402 O   0  0  0  0  0  0  0  0  0  0  0  0
  -28.7678  -20.4013   20.0303 O   0  0  0  0  0  0  0  0  0  1  0  0
  -15.0474  -21.2362   25.0516 F   0  0  0  0  0  0  0  0  0  0  0  0
  -19.4663  -21.7833   26.6576 F   0  0  0  0  0  0  0  0  0  0  0  0
  1  2  1  0  0  0  0
  1  7  2  0  0  0  0
  2  8  2  0  0  0  0
  3  4  1  0  0  0  0
  3 10  2  0  0  0  0
  4 11  2  0  0  0  0
  5 12  2  0  0  0  0
  5 19  1  0  0  0  0
  6 13  1  0  0  0  0
  6 19  2  0  0  0  0
  7 21  1  0  0  0  0
  8 23  1  0  0  0  0
  9 14  2  0  0  0  0
  9 22  1  0  0  0  0
 10 25  1  0  0  0  0
 11 26  1  0  0  0  0
 12 27  1  0  0  0  0
 13 27  2  0  0  0  0
 14 28  1  0  0  0  0
 15 16  2  0  0  0  0
 15 29  1  0  0  0  0
 16 30  1  0  0  0  0
 17 24  1  0  0  0  0
 17 28  2  0  0  0  0
 18 30  2  0  0  0  0
 18 31  1  0  0  0  0
 19 32  1  0  0  0  0
 20 32  1  0  0  0  0
 20 33  2  0  0  0  0
 20 38  1  0  0  0  0
 21 23  2  0  0  0  0
 21 43  1  0  0  0  0
 22 24  2  0  0  0  0
 22 44  1  0  0  0  0
 23 55  1  0  0  0  0
 24 45  1  0  0  0  0
 25 26  2  0  0  0  0
 25 65  1  0  0  0  0
 26 77  1  0  0  0  0
 27 85  1  0  0  0  0
 28 86  1  0  0  0  0
 29 31  2  0  0  0  0
 29 85  1  0  0  0  0
 30 87  1  0  0  0  0
 31 88  1  0  0  0  0
 32 69  2  0  0  0  0
 33 70  1  0  0  0  0
 33 73  1  0  0  0  0
 34 36  2  0  0  0  0
 34 46  1  0  0  0  0
 34 78  1  0  0  0  0
 35 37  2  0  0  0  0
 36 37  1  0  0  0  0
 38 74  1  0  0  0  0
 38 80  2  0  0  0  0
 39 56  1  0  0  0  0
 39 75  1  0  0  0  0
 39 81  2  0  0  0  0
 40 66  1  0  0  0  0
 40 71  1  0  0  0  0
 40 82  2  0  0  0  0
 41 67  1  0  0  0  0
 41 76  1  0  0  0  0
 41 83  2  0  0  0  0
 42 72  1  0  0  0  0
 42 77  1  0  0  0  0
 42 84  2  0  0  0  0
 43 47  1  0  0  0  0
 44 56  1  0  0  0  0
 45 71  1  0  0  0  0
 46 58  1  0  0  0  0
 47 49  1  0  0  0  0
 48 50  1  0  0  0  0
 48 52  1  0  0  0  0
 49 55  1  0  0  0  0
 50 57  1  0  0  0  0
 51 54  1  0  0  0  0
 51 58  1  0  0  0  0
 52 72  1  0  0  0  0
 53 57  1  0  0  0  0
 53 72  1  0  0  0  0
 54 78  1  0  0  0  0
 55 75  1  0  0  0  0
 56 71  1  0  0  0  0
 57 70  1  0  0  0  0
 58 86  1  0  0  0  0
 59 67  1  0  0  0  0
 60 68  1  0  0  0  0
 61 68  1  0  0  0  0
 62 68  1  0  0  0  0
 63 77  1  0  0  0  0
 64 79  1  0  0  0  0
 65 78  1  0  0  0  0
 66 68  1  0  0  0  0
 66 76  1  0  0  0  0
 67 79  1  0  0  0  0
 69 70  1  0  0  0  0
M  CHG  2  78   1  79   1
M  ISO  4  42 100  58 101  77 100  86 101
M  END
> <Batch ID>
0046

> <Smiles>
C=CC=C1C[101CH:1]([101O:1]c2ccc3c(c2)CN(C(=O)C(NC(=O)C(C)NC)C(C)(C)C)C(C(=O)NC2CCCc4ccccc42)C3)CCN1Cc1ccccc1[100N:0](C)[100C:0](=O)N1CCCC(n2nc(-c3ccc(Oc4ccc(F)cc4F)cc3)c(C(N)=O)c2N)C1

> <Shape>
0.260

> <Color>
0.066

> <Negative vol penalty>
0.000

$$$$

  -OEChem-04042322233D

 87 96  0     1  0  0  0  0  0999 V2000
  -16.4360  -29.2806   23.9004 C   0  0  0  0  0  0  0  0  0  0  0  0
  -17.1939  -28.4656   23.0657 C   0  0  0  0  0  0  0  0  0  0  0  0
  -22.9663   -9.8862   21.4526 C   0  0  0  0  0  0  0  0  0  0  0  0
  -24.2683  -10.5470   23.3774 C   0  0  0  0  0  0  0  0  0  0  0  0
  -17.0497  -30.3106   24.6119 C   0  0  0  0  0  0  0  0  0  0  0  0
  -18.5660  -28.6809   22.9413 C   0  0  0  0  0  0  0  0  0  0  0  0
  -22.9019  -24.4305   22.1410 C   0  0  0  0  0  0  0  0  0  0  0  0
  -22.2557   -8.9831   22.2432 C   0  0  0  0  0  0  0  0  0  0  0  0
  -23.5577   -9.6439   24.1681 C   0  0  0  0  0  0  0  0  0  0  0  0
  -23.5688  -23.9732   21.0053 C   0  0  0  0  0  0  0  0  0  0  0  0
  -22.7313   -5.8986   23.5409 C   0  0  0  0  0  0  0  0  0  0  0  0
  -22.5176   -4.6188   23.0291 C   0  0  0  0  0  0  0  0  0  0  0  0
  -25.3910  -25.4826   21.4749 C   0  0  0  0  0  0  0  0  0  0  0  0
  -30.8333  -20.1287   20.9025 C   0  0  0  0  0  0  0  0  0  0  0  0
  -31.4100  -17.7984   20.6311 C   0  0  0  0  0  0  0  0  0  0  0  0
  -20.1301   -4.9624   23.1664 C   0  0  0  0  0  0  0  0  0  0  0  0
  -23.9726  -10.6681   22.0196 C   0  0  0  0  0  0  0  0  0  0  0  0
  -24.1869  -12.6891   20.4778 C   0  0  0  0  0  0  0  0  0  0  0  0
  -18.4316  -30.5326   24.5035 C   0  0  0  0  0  0  0  0  0  0  0  0
  -23.4705  -25.4268   22.9475 C   0  0  0  0  0  0  0  0  0  0  0  0
  -19.1986  -29.7157   23.6510 C   0  0  0  0  0  0  0  0  0  0  0  0
  -24.7304  -25.9490   22.6218 C   0  0  0  0  0  0  0  0  0  0  0  0
  -31.7888  -19.1126   20.9051 C   0  0  0  0  0  0  0  0  0  0  0  0
  -29.4990  -19.8308   20.6259 C   0  0  0  0  0  0  0  0  0  0  0  0
  -29.1202  -18.5166   20.3518 C   0  0  0  0  0  0  0  0  0  0  0  0
  -30.0757  -17.5004   20.3545 C   0  0  0  0  0  0  0  0  0  0  0  0
  -22.5514   -8.8620   23.6010 C   0  0  0  0  0  0  0  0  0  0  0  0
  -24.8122  -24.5013   20.6705 C   0  0  0  0  0  0  0  0  0  0  0  0
  -21.6443   -6.7104   23.8656 C   0  0  0  0  0  0  0  0  0  0  0  0
  -21.2171   -4.1507   22.8418 C   0  0  0  0  0  0  0  0  0  0  0  0
  -20.3438   -6.2423   23.6782 C   0  0  0  0  0  0  0  0  0  0  0  0
  -24.7074  -11.6008   21.2033 C   0  0  0  0  0  0  0  0  0  0  0  0
  -25.2833  -13.2557   19.8749 C   0  0  0  0  0  0  0  0  0  0  0  0
  -26.7807  -22.0280   19.2924 C   0  0  0  0  0  0  0  0  0  0  0  0
  -25.7110  -21.3235   18.8879 C   0  0  0  0  0  0  0  0  0  0  0  0
  -22.8334  -13.1471   20.3595 C   0  0  0  0  0  0  0  0  0  0  0  0
  -22.6400  -28.3776   23.7881 C   0  0  0  0  0  0  0  0  0  0  0  0
  -25.2406  -28.1431   25.7127 C   0  0  0  0  0  0  0  0  0  0  0  0
  -28.5974  -26.8455   25.4570 C   0  0  0  0  0  0  0  0  0  0  0  0
  -30.5528  -15.0464   20.0438 C   0  0  0  0  0  0  0  0  0  0  0  0
  -19.0424  -31.6883   25.2558 C   0  0  0  0  0  0  0  0  0  0  0  0
  -22.7504  -25.8902   24.1841 C   0  0  0  0  0  0  0  0  0  0  0  0
  -25.3932  -27.0057   23.4659 C   0  0  0  0  0  0  0  0  0  0  0  0
  -20.5637  -31.6132   25.3571 C   0  0  0  0  0  0  0  0  0  0  0  0
  -30.0382  -11.5756   19.4388 C   0  0  0  0  0  0  0  0  0  0  0  0
  -29.1553  -23.6120   19.0251 C   0  0  0  0  0  0  0  0  0  0  0  0
  -21.1729  -31.2732   24.0006 C   0  0  0  0  0  0  0  0  0  0  0  0
  -27.7900  -24.2902   19.0051 C   0  0  0  0  0  0  0  0  0  0  0  0
  -28.5626  -11.3623   19.7842 C   0  0  0  0  0  0  0  0  0  0  0  0
  -30.6988  -12.5877   20.3731 C   0  0  0  0  0  0  0  0  0  0  0  0
  -28.5298  -13.6643   20.8267 C   0  0  0  0  0  0  0  0  0  0  0  0
  -29.0752  -22.1828   18.4989 C   0  0  0  0  0  0  0  0  0  0  0  0
  -20.6936  -29.9021   23.5086 C   0  0  1  0  0  0  0  0  0  0  0  0
  -26.7460  -23.4665   19.7576 C   0  0  1  0  0  0  0  0  0  1  0  0
  -23.1905  -27.2753   24.6481 C   0  0  1  0  0  0  0  0  0  0  0  0
  -27.8050  -12.7017   19.8719 C   0  0  2  0  0  0  0  0  0  0  0  0
  -33.2152  -19.4309   21.2023 C   0  0  0  0  0  0  0  0  0  0  0  0
  -27.6871  -18.2021   20.0566 C   0  0  0  0  0  0  0  0  0  0  0  0
  -30.1467  -25.9684   27.2256 C   0  0  0  0  0  0  0  0  0  0  0  0
  -26.3199  -30.9964   25.7728 C   0  0  0  0  0  0  0  0  0  0  0  0
  -28.6173  -30.0469   26.0707 C   0  0  0  0  0  0  0  0  0  0  0  0
  -26.8648  -29.6321   27.7967 C   0  0  0  0  0  0  0  0  0  0  0  0
  -28.9557  -24.2760   24.0329 C   0  0  0  0  0  0  0  0  0  0  0  0
  -28.4912  -20.9422   20.6313 C   0  0  0  0  0  0  0  0  0  0  0  0
  -26.7108  -28.4527   25.5657 C   0  0  1  0  0  0  0  0  0  0  0  0
  -29.1468  -25.6054   26.1388 C   0  0  2  0  0  0  0  0  0  0  0  0
  -27.1122  -29.7746   26.2791 C   0  0  0  0  0  0  0  0  0  0  0  0
  -26.0314  -11.4810   21.0743 N   0  0  0  0  0  0  0  0  0  0  0  0
  -26.3521  -12.5014   20.2606 N   0  0  0  0  0  0  0  0  0  0  0  0
  -24.6465  -27.4307   24.6613 N   0  0  0  0  0  0  0  0  0  0  0  0
  -29.9285  -13.8329   20.4023 N   0  0  0  0  0  0  0  0  0  0  0  0
  -25.4277  -14.3205   19.0577 N   0  0  0  0  0  0  0  0  0  0  0  0
  -22.3641  -14.0905   21.2837 N   0  0  0  0  0  0  0  0  0  0  0  0
  -29.7128  -16.1590   20.0776 N   0  0  0  0  0  0  0  0  0  0  0  0
  -21.4036  -28.8430   24.1932 N   0  0  0  0  0  0  0  0  0  0  0  0
  -27.4259  -27.2745   26.0442 N   0  0  0  0  0  0  0  0  0  0  0  0
  -28.0598  -21.3533   19.2505 N   0  3  1  0  0  0  0  0  0  0  0  0
  -29.8293  -24.7279   25.1462 N   0  3  0  0  0  0  0  0  0  0  0  0
  -22.0580  -12.7198   19.4709 O   0  0  0  0  0  0  0  0  0  0  0  0
  -23.2896  -28.7773   22.8290 O   0  0  0  0  0  0  0  0  0  0  0  0
  -24.6431  -28.5131   26.7264 O   0  0  0  0  0  0  0  0  0  0  0  0
  -29.1540  -27.3822   24.5017 O   0  0  0  0  0  0  0  0  0  0  0  0
  -31.7378  -15.0907   19.7036 O   0  0  0  0  0  0  0  0  0  0  0  0
  -21.8581   -7.9811   24.3728 O   0  0  0  0  0  0  0  0  0  0  0  0
  -25.4651  -24.0571   19.5622 O   0  0  0  0  0  0  0  0  0  1  0  0
  -21.0121   -2.9222   22.3489 F   0  0  0  0  0  0  0  0  0  0  0  0
  -19.2956   -7.0180   23.9871 F   0  0  0  0  0  0  0  0  0  0  0  0
  1  2  1  0  0  0  0
  1  5  2  0  0  0  0
  2  6  2  0  0  0  0
  3  8  2  0  0  0  0
  3 17  1  0  0  0  0
  4  9  1  0  0  0  0
  4 17  2  0  0  0  0
  5 19  1  0  0  0  0
  6 21  1  0  0  0  0
  7 10  2  0  0  0  0
  7 20  1  0  0  0  0
  8 27  1  0  0  0  0
  9 27  2  0  0  0  0
 10 28  1  0  0  0  0
 11 12  2  0  0  0  0
 11 29  1  0  0  0  0
 12 30  1  0  0  0  0
 13 22  1  0  0  0  0
 13 28  2  0  0  0  0
 14 23  2  0  0  0  0
 14 24  1  0  0  0  0
 15 23  1  0  0  0  0
 15 26  2  0  0  0  0
 16 30  2  0  0  0  0
 16 31  1  0  0  0  0
 17 32  1  0  0  0  0
 18 32  1  0  0  0  0
 18 33  2  0  0  0  0
 18 36  1  0  0  0  0
 19 21  2  0  0  0  0
 19 41  1  0  0  0  0
 20 22  2  0  0  0  0
 20 42  1  0  0  0  0
 21 53  1  0  0  0  0
 22 43  1  0  0  0  0
 23 57  1  0  0  0  0
 24 25  2  0  0  0  0
 24 64  1  0  0  0  0
 25 26  1  0  0  0  0
 25 58  1  0  0  0  0
 26 74  1  0  0  0  0
 27 84  1  0  0  0  0
 28 85  1  0  0  0  0
 29 31  2  0  0  0  0
 29 84  1  0  0  0  0
 30 86  1  0  0  0  0
 31 87  1  0  0  0  0
 32 68  2  0  0  0  0
 33 69  1  0  0  0  0
 33 72  1  0  0  0  0
 34 35  2  0  0  0  0
 34 54  1  0  0  0  0
 34 77  1  0  0  0  0
 36 73  1  0  0  0  0
 36 79  2  0  0  0  0
 37 55  1  0  0  0  0
 37 75  1  0  0  0  0
 37 80  2  0  0  0  0
 38 65  1  0  0  0  0
 38 70  1  0  0  0  0
 38 81  2  0  0  0  0
 39 66  1  0  0  0  0
 39 76  1  0  0  0  0
 39 82  2  0  0  0  0
 40 71  1  0  0  0  0
 40 74  1  0  0  0  0
 40 83  2  0  0  0  0
 41 44  1  0  0  0  0
 42 55  1  0  0  0  0
 43 70  1  0  0  0  0
 44 47  1  0  0  0  0
 45 49  1  0  0  0  0
 45 50  1  0  0  0  0
 46 48  1  0  0  0  0
 46 52  1  0  0  0  0
 47 53  1  0  0  0  0
 48 54  1  0  0  0  0
 49 56  1  0  0  0  0
 50 71  1  0  0  0  0
 51 56  1  0  0  0  0
 51 71  1  0  0  0  0
 52 77  1  0  0  0  0
 53 75  1  0  0  0  0
 54 85  1  0  0  0  0
 55 70  1  0  0  0  0
 56 69  1  0  0  0  0
 59 66  1  0  0  0  0
 60 67  1  0  0  0  0
 61 67  1  0  0  0  0
 62 67  1  0  0  0  0
 63 78  1  0  0  0  0
 64 77  1  0  0  0  0
 65 67  1  0  0  0  0
 65 76  1  0  0  0  0
 66 78  1  0  0  0  0
 68 69  1  0  0  0  0
M  CHG  2  77   1  78   1
M  ISO  4  40 100  54 101  74 100  85 101
M  END
> <Batch ID>
0046

> <Smiles>
C=C1N(Cc2cc(C)cc([100NH:0][100C:0](=O)N3CCCC(n4nc(-c5ccc(Oc6ccc(F)cc6F)cc5)c(C(N)=O)c4N)C3)c2C)CCC[101CH:1]1[101O:1]c1ccc2c(c1)CN(C(=O)C(NC(=O)C(C)NC)C(C)(C)C)C(C(=O)NC1CCCc3ccccc31)C2

> <Shape>
0.261

> <Color>
0.118

> <Negative vol penalty>
0.000

$$$$

  -OEChem-04042322233D

 89 97  0     1  0  0  0  0  0999 V2000
  -19.3457  -33.8600   23.7908 C   0  0  0  0  0  0  0  0  0  0  0  0
  -20.3930  -33.1943   24.4196 C   0  0  0  0  0  0  0  0  0  0  0  0
  -29.8399  -20.9867   14.8469 C   0  0  0  0  0  0  0  0  0  0  0  0
  -25.3539  -13.5029   21.6795 C   0  0  0  0  0  0  0  0  0  0  0  0
  -26.2686  -13.4933   19.4434 C   0  0  0  0  0  0  0  0  0  0  0  0
  -29.9449  -22.3727   14.7300 C   0  0  0  0  0  0  0  0  0  0  0  0
  -18.4685  -33.1560   22.9668 C   0  0  0  0  0  0  0  0  0  0  0  0
  -20.5630  -31.8239   24.2257 C   0  0  0  0  0  0  0  0  0  0  0  0
  -26.6908  -29.1971   21.4978 C   0  0  0  0  0  0  0  0  0  0  0  0
  -29.2927  -20.4235   15.9998 C   0  0  0  0  0  0  0  0  0  0  0  0
  -24.4331  -12.5236   21.3071 C   0  0  0  0  0  0  0  0  0  0  0  0
  -25.3478  -12.5139   19.0710 C   0  0  0  0  0  0  0  0  0  0  0  0
  -27.9104  -28.5998   21.1785 C   0  0  0  0  0  0  0  0  0  0  0  0
  -22.0783   -9.7667   21.0431 C   0  0  0  0  0  0  0  0  0  0  0  0
  -21.8850   -8.6939   21.9133 C   0  0  0  0  0  0  0  0  0  0  0  0
  -28.9557  -22.6323   16.9188 C   0  0  0  0  0  0  0  0  0  0  0  0
  -26.8746  -26.4162   21.2604 C   0  0  0  0  0  0  0  0  0  0  0  0
  -24.2179   -8.1022   21.7021 C   0  0  0  0  0  0  0  0  0  0  0  0
  -26.2716  -13.9878   20.7476 C   0  0  0  0  0  0  0  0  0  0  0  0
  -29.5028  -23.1955   15.7659 C   0  0  0  0  0  0  0  0  0  0  0  0
  -28.5119  -14.7982   21.6597 C   0  0  0  0  0  0  0  0  0  0  0  0
  -18.6337  -31.7782   22.7550 C   0  0  0  0  0  0  0  0  0  0  0  0
  -25.5537  -28.4063   21.6847 C   0  0  0  0  0  0  0  0  0  0  0  0
  -19.6865  -31.1006   23.3992 C   0  0  0  0  0  0  0  0  0  0  0  0
  -25.6475  -27.0097   21.5681 C   0  0  0  0  0  0  0  0  0  0  0  0
  -28.8506  -21.2463   17.0357 C   0  0  0  0  0  0  0  0  0  0  0  0
  -24.4301  -12.0291   20.0028 C   0  0  0  0  0  0  0  0  0  0  0  0
  -28.0021  -27.2127   21.0604 C   0  0  0  0  0  0  0  0  0  0  0  0
  -23.3414  -10.0073   20.5023 C   0  0  0  0  0  0  0  0  0  0  0  0
  -22.9548   -7.8617   22.2428 C   0  0  0  0  0  0  0  0  0  0  0  0
  -24.4112   -9.1751   20.8319 C   0  0  0  0  0  0  0  0  0  0  0  0
  -27.2226  -14.9998   21.1316 C   0  0  0  0  0  0  0  0  0  0  0  0
  -29.0050  -16.0652   21.8550 C   0  0  0  0  0  0  0  0  0  0  0  0
  -29.6131  -24.6628   15.6428 C   0  0  0  0  0  0  0  0  0  0  0  0
  -29.2022  -13.5750   21.9478 C   0  0  0  0  0  0  0  0  0  0  0  0
  -21.8843  -28.2837   22.4573 C   0  0  0  0  0  0  0  0  0  0  0  0
  -22.4000  -26.2158   20.2508 C   0  0  0  0  0  0  0  0  0  0  0  0
  -30.9265  -26.4918   19.0604 C   0  0  0  0  0  0  0  0  0  0  0  0
  -23.3128  -24.3530   17.5427 C   0  0  0  0  0  0  0  0  0  0  0  0
  -27.8086  -21.3458   19.3272 C   0  0  0  0  0  0  0  0  0  0  0  0
  -17.6321  -31.0510   21.8932 C   0  0  0  0  0  0  0  0  0  0  0  0
  -24.2329  -29.0021   22.0903 C   0  0  0  0  0  0  0  0  0  0  0  0
  -24.4057  -26.1964   21.8119 C   0  0  0  0  0  0  0  0  0  0  0  0
  -18.1046  -29.6712   21.4423 C   0  0  0  0  0  0  0  0  0  0  0  0
  -27.5719  -20.5387   22.7869 C   0  0  0  0  0  0  0  0  0  0  0  0
  -18.6940  -28.8983   22.6179 C   0  0  0  0  0  0  0  0  0  0  0  0
  -27.5790  -19.0084   22.8035 C   0  0  0  0  0  0  0  0  0  0  0  0
  -26.8050  -21.0893   21.5859 C   0  0  0  0  0  0  0  0  0  0  0  0
  -27.2389  -19.0337   20.2994 C   0  0  0  0  0  0  0  0  0  0  0  0
  -19.9186  -29.6194   23.1939 C   0  0  1  0  0  0  0  0  0  0  0  0
  -23.0262  -28.2637   21.4840 C   0  0  1  0  0  0  0  0  0  0  0  0
  -28.0548  -18.4324   21.4554 C   0  0  2  0  0  0  0  0  0  0  0  0
  -22.3793  -22.7628   15.8406 C   0  0  0  0  0  0  0  0  0  0  0  0
  -22.3605  -24.0007   22.3474 C   0  0  0  0  0  0  0  0  0  0  0  0
  -22.3679  -22.3316   20.4812 C   0  0  0  0  0  0  0  0  0  0  0  0
  -20.4657  -23.9281   20.7167 C   0  0  0  0  0  0  0  0  0  0  0  0
  -32.6757  -28.5231   15.6824 C   0  0  0  0  0  0  0  0  0  0  0  0
  -33.5385  -26.2908   14.9801 C   0  0  0  0  0  0  0  0  0  0  0  0
  -24.0157  -26.1553   15.3030 C   0  0  0  0  0  0  0  0  0  0  0  0
  -30.0899  -27.3998   19.9363 C   0  0  0  0  0  0  0  0  0  1  0  0
  -32.7002  -26.5889   17.3198 C   0  0  0  0  0  0  0  0  0  0  0  0
  -31.0660  -26.6372   15.3469 C   0  0  0  0  0  0  0  0  0  0  0  0
  -22.7056  -24.7792   19.9100 C   0  0  1  0  0  0  0  0  0  0  0  0
  -22.6983  -24.2147   16.1615 C   0  0  2  0  0  0  0  0  0  0  0  0
  -21.9955  -23.7794   20.8659 C   0  0  0  0  0  0  0  0  0  0  0  0
  -32.4791  -27.0028   15.8454 C   0  0  0  0  0  0  0  0  0  0  0  0
  -26.9158  -16.2931   21.0000 N   0  0  0  0  0  0  0  0  0  0  0  0
  -28.0193  -16.9156   21.4482 N   0  0  0  0  0  0  0  0  0  0  0  0
  -23.2488  -26.8417   21.1718 N   0  0  0  0  0  0  0  0  0  0  0  0
  -27.3131  -20.5024   20.3441 N   0  0  0  0  0  0  0  0  0  0  0  0
  -30.1811  -16.5237   22.3334 N   0  0  0  0  0  0  0  0  0  0  0  0
  -28.4934  -25.3839   15.7009 N   0  0  0  0  0  0  0  0  0  0  0  0
  -28.5499  -12.3623   21.6869 N   0  0  0  0  0  0  0  0  0  0  0  0
  -28.2950  -20.6733   18.2065 N   0  0  0  0  0  0  0  0  0  0  0  0
  -21.0761  -29.3997   22.3535 N   0  0  0  0  0  0  0  0  0  0  0  0
  -31.7911  -27.2136   18.2526 N   0  0  0  0  0  0  0  0  0  0  0  0
  -22.3577  -24.6105   18.5033 N   0  0  0  0  0  0  0  0  0  0  0  0
  -30.8287  -25.1970   15.4770 N   0  3  0  0  0  0  0  0  0  0  0  0
  -23.6352  -24.7305   15.1237 N   0  3  0  0  0  0  0  0  0  0  0  0
  -30.3568  -13.5581   22.4378 O   0  0  0  0  0  0  0  0  0  0  0  0
  -21.7448  -27.3547   23.2441 O   0  0  0  0  0  0  0  0  0  0  0  0
  -21.4322  -26.7687   19.7207 O   0  0  0  0  0  0  0  0  0  0  0  0
  -30.8264  -25.2682   19.0852 O   0  0  0  0  0  0  0  0  0  0  0  0
  -24.5191  -24.2399   17.7495 O   0  0  0  0  0  0  0  0  0  0  0  0
  -27.8271  -22.5728   19.4534 O   0  0  0  0  0  0  0  0  0  0  0  0
  -23.5319  -11.0733   19.6392 O   0  0  0  0  0  0  0  0  0  0  0  0
  -29.1948  -26.6365   20.7441 O   0  0  0  0  0  0  0  0  0  1  0  0
  -22.7693   -6.8324   23.0797 F   0  0  0  0  0  0  0  0  0  0  0  0
  -25.6272   -9.4019   20.3164 F   0  0  0  0  0  0  0  0  0  0  0  0
  1  2  1  0  0  0  0
  1  7  2  0  0  0  0
  2  8  2  0  0  0  0
  3  6  2  0  0  0  0
  3 10  1  0  0  0  0
  4 11  2  0  0  0  0
  4 19  1  0  0  0  0
  5 12  1  0  0  0  0
  5 19  2  0  0  0  0
  6 20  1  0  0  0  0
  7 22  1  0  0  0  0
  8 24  1  0  0  0  0
  9 13  2  0  0  0  0
  9 23  1  0  0  0  0
 10 26  2  0  0  0  0
 11 27  1  0  0  0  0
 12 27  2  0  0  0  0
 13 28  1  0  0  0  0
 14 15  2  0  0  0  0
 14 29  1  0  0  0  0
 15 30  1  0  0  0  0
 16 20  2  0  0  0  0
 16 26  1  0  0  0  0
 17 25  1  0  0  0  0
 17 28  2  0  0  0  0
 18 30  2  0  0  0  0
 18 31  1  0  0  0  0
 19 32  1  0  0  0  0
 20 34  1  0  0  0  0
 21 32  1  0  0  0  0
 21 33  2  0  0  0  0
 21 35  1  0  0  0  0
 22 24  2  0  0  0  0
 22 41  1  0  0  0  0
 23 25  2  0  0  0  0
 23 42  1  0  0  0  0
 24 50  1  0  0  0  0
 25 43  1  0  0  0  0
 26 74  1  0  0  0  0
 27 86  1  0  0  0  0
 28 87  1  0  0  0  0
 29 31  2  0  0  0  0
 29 86  1  0  0  0  0
 30 88  1  0  0  0  0
 31 89  1  0  0  0  0
 32 67  2  0  0  0  0
 33 68  1  0  0  0  0
 33 71  1  0  0  0  0
 34 72  1  0  0  0  0
 34 78  2  0  0  0  0
 35 73  1  0  0  0  0
 35 80  2  0  0  0  0
 36 51  1  0  0  0  0
 36 75  1  0  0  0  0
 36 81  2  0  0  0  0
 37 63  1  0  0  0  0
 37 69  1  0  0  0  0
 37 82  2  0  0  0  0
 38 60  1  0  0  0  0
 38 76  1  0  0  0  0
 38 83  2  0  0  0  0
 39 64  1  0  0  0  0
 39 77  1  0  0  0  0
 39 84  2  0  0  0  0
 40 70  1  0  0  0  0
 40 74  1  0  0  0  0
 40 85  2  0  0  0  0
 41 44  1  0  0  0  0
 42 51  1  0  0  0  0
 43 69  1  0  0  0  0
 44 46  1  0  0  0  0
 45 47  1  0  0  0  0
 45 48  1  0  0  0  0
 46 50  1  0  0  0  0
 47 52  1  0  0  0  0
 48 70  1  0  0  0  0
 49 52  1  0  0  0  0
 49 70  1  0  0  0  0
 50 75  1  0  0  0  0
 51 69  1  0  0  0  0
 52 68  1  0  0  0  0
 53 64  1  0  0  0  0
 54 65  1  0  0  0  0
 55 65  1  0  0  0  0
 56 65  1  0  0  0  0
 57 66  1  0  0  0  0
 58 66  1  0  0  0  0
 59 79  1  0  0  0  0
 60 87  1  0  0  0  0
 61 66  1  0  0  0  0
 61 76  1  0  0  0  0
 62 66  1  0  0  0  0
 62 78  1  0  0  0  0
 63 65  1  0  0  0  0
 63 77  1  0  0  0  0
 64 79  1  0  0  0  0
 67 68  1  0  0  0  0
M  CHG  2  78   1  79   1
M  ISO  4  40 100  60 101  74 100  87 101
M  END
> <Batch ID>
0046

> <Smiles>
CNC(C)C(=O)NC(C(=O)N1Cc2cc([101O:1][101CH2:1]C(=O)NCC(C)(C)CNC(=N)c3cccc([100NH:0][100C:0](=O)N4CCCC(n5nc(-c6ccc(Oc7ccc(F)cc7F)cc6)c(C(N)=O)c5N)C4)c3)ccc2CC1C(=O)NC1CCCc2ccccc21)C(C)(C)C

> <Shape>
0.219

> <Color>
0.074

> <Negative vol penalty>
0.000

$$$$

  -OEChem-04042322233D

 88 97  0     1  0  0  0  0  0999 V2000
  -25.0922  -34.8260   24.0618 C   0  0  0  0  0  0  0  0  0  0  0  0
  -25.7952  -33.6736   23.7255 C   0  0  0  0  0  0  0  0  0  0  0  0
  -23.5149  -10.9520   23.2157 C   0  0  0  0  0  0  0  0  0  0  0  0
  -24.5055   -9.2770   21.7839 C   0  0  0  0  0  0  0  0  0  0  0  0
  -23.7591  -34.7366   24.4603 C   0  0  0  0  0  0  0  0  0  0  0  0
  -25.1658  -32.4309   23.7886 C   0  0  0  0  0  0  0  0  0  0  0  0
  -26.1311  -29.5559   19.7330 C   0  0  0  0  0  0  0  0  0  0  0  0
  -23.0760   -9.9514   24.0827 C   0  0  0  0  0  0  0  0  0  0  0  0
  -24.0667   -8.2763   22.6509 C   0  0  0  0  0  0  0  0  0  0  0  0
  -27.3699  -28.9180   19.6850 C   0  0  0  0  0  0  0  0  0  0  0  0
  -21.1806   -6.6457   23.3161 C   0  0  0  0  0  0  0  0  0  0  0  0
  -20.5856   -5.5163   22.7541 C   0  0  0  0  0  0  0  0  0  0  0  0
  -26.3371  -26.8696   20.4313 C   0  0  0  0  0  0  0  0  0  0  0  0
  -29.8727  -19.0820   19.8825 C   0  0  0  0  0  0  0  0  0  0  0  0
  -27.4652  -19.2664   19.7965 C   0  0  0  0  0  0  0  0  0  0  0  0
  -22.2991   -4.1248   23.7363 C   0  0  0  0  0  0  0  0  0  0  0  0
  -24.2296  -10.6148   22.0663 C   0  0  0  0  0  0  0  0  0  0  0  0
  -23.8881  -12.5798   20.4758 C   0  0  0  0  0  0  0  0  0  0  0  0
  -23.1102  -33.4932   24.5191 C   0  0  0  0  0  0  0  0  0  0  0  0
  -24.9860  -28.8572   20.1417 C   0  0  0  0  0  0  0  0  0  0  0  0
  -23.8232  -32.3246   24.1897 C   0  0  0  0  0  0  0  0  0  0  0  0
  -25.0846  -27.5003   20.4811 C   0  0  0  0  0  0  0  0  0  0  0  0
  -29.9703  -20.4565   20.0989 C   0  0  0  0  0  0  0  0  0  0  0  0
  -27.5628  -20.6409   20.0130 C   0  0  0  0  0  0  0  0  0  0  0  0
  -28.8154  -21.2359   20.1642 C   0  0  0  0  0  0  0  0  0  0  0  0
  -28.6201  -18.4870   19.7312 C   0  0  0  0  0  0  0  0  0  0  0  0
  -23.3519   -8.6135   23.8003 C   0  0  0  0  0  0  0  0  0  0  0  0
  -27.4735  -27.5754   20.0370 C   0  0  0  0  0  0  0  0  0  0  0  0
  -22.3349   -6.5147   24.0882 C   0  0  0  0  0  0  0  0  0  0  0  0
  -21.1448   -4.2558   22.9641 C   0  0  0  0  0  0  0  0  0  0  0  0
  -22.8941   -5.2542   24.2983 C   0  0  0  0  0  0  0  0  0  0  0  0
  -24.6828  -11.6480   21.1700 C   0  0  0  0  0  0  0  0  0  0  0  0
  -24.7877  -13.3367   19.7655 C   0  0  0  0  0  0  0  0  0  0  0  0
  -29.8129  -24.8331   19.6487 C   0  0  0  0  0  0  0  0  0  0  0  0
  -30.8566  -25.1881   20.4208 C   0  0  0  0  0  0  0  0  0  0  0  0
  -22.4640  -12.7465   20.4732 C   0  0  0  0  0  0  0  0  0  0  0  0
  -22.9196  -29.1443   22.5398 C   0  0  0  0  0  0  0  0  0  0  0  0
  -21.3607  -26.7749   20.9656 C   0  0  0  0  0  0  0  0  0  0  0  0
  -22.2467  -23.7300   19.2449 C   0  0  0  0  0  0  0  0  0  0  0  0
  -29.5668  -16.1730   19.4218 C   0  0  0  0  0  0  0  0  0  0  0  0
  -21.6821  -33.4417   25.0012 C   0  0  0  0  0  0  0  0  0  0  0  0
  -23.6525  -29.5527   20.1624 C   0  0  0  0  0  0  0  0  0  0  0  0
  -23.8819  -26.7000   20.9071 C   0  0  0  0  0  0  0  0  0  0  0  0
  -20.9784  -32.1254   24.6815 C   0  0  0  0  0  0  0  0  0  0  0  0
  -29.1095  -25.3230   16.6146 C   0  0  0  0  0  0  0  0  0  0  0  0
  -29.7324  -12.6508   18.9278 C   0  0  0  0  0  0  0  0  0  0  0  0
  -29.8210  -23.9920   16.8626 C   0  0  0  0  0  0  0  0  0  0  0  0
  -21.8713  -30.9418   25.0402 C   0  0  0  0  0  0  0  0  0  0  0  0
  -29.2114  -26.3459   17.7436 C   0  0  0  0  0  0  0  0  0  0  0  0
  -28.3680  -12.1526   19.4100 C   0  0  0  0  0  0  0  0  0  0  0  0
  -30.2465  -13.8098   19.7800 C   0  0  0  0  0  0  0  0  0  0  0  0
  -27.9485  -14.4353   20.4102 C   0  0  0  0  0  0  0  0  0  0  0  0
  -29.1549  -23.1518   17.9499 C   0  0  0  0  0  0  0  0  0  0  0  0
  -23.1679  -30.9609   24.2218 C   0  0  1  0  0  0  0  0  0  0  0  0
  -28.7984  -25.8222   19.1209 C   0  0  2  0  0  0  0  0  0  1  0  0
  -22.6422  -28.8802   21.0869 C   0  0  1  0  0  0  0  0  0  0  0  0
  -27.3598  -13.3108   19.5426 C   0  0  2  0  0  0  0  0  0  0  0  0
  -31.3233  -21.0693   20.2570 C   0  0  0  0  0  0  0  0  0  0  0  0
  -26.3109  -21.4530   20.0789 C   0  0  0  0  0  0  0  0  0  0  0  0
  -21.0806  -22.5052   17.3909 C   0  0  0  0  0  0  0  0  0  0  0  0
  -20.0897  -25.1612   23.2218 C   0  0  0  0  0  0  0  0  0  0  0  0
  -20.2977  -23.1209   21.7858 C   0  0  0  0  0  0  0  0  0  0  0  0
  -18.8798  -25.0318   21.0369 C   0  0  0  0  0  0  0  0  0  0  0  0
  -24.6588  -23.7908   17.5311 C   0  0  0  0  0  0  0  0  0  0  0  0
  -28.9205  -22.7143   20.3977 C   0  0  0  0  0  0  0  0  0  0  0  0
  -21.3969  -25.2661   20.9978 C   0  0  1  0  0  0  0  0  0  0  0  0
  -22.1897  -23.4824   17.7483 C   0  0  2  0  0  0  0  0  0  0  0  0
  -20.1889  -24.6606   21.7670 C   0  0  0  0  0  0  0  0  0  0  0  0
  -25.9869  -11.7972   20.9230 N   0  0  0  0  0  0  0  0  0  0  0  0
  -26.0186  -12.8316   20.0656 N   0  0  0  0  0  0  0  0  0  0  0  0
  -22.6013  -27.4264   20.9174 N   0  0  0  0  0  0  0  0  0  0  0  0
  -29.2404  -14.8712   19.8572 N   0  0  0  0  0  0  0  0  0  0  0  0
  -24.6380  -14.3782   18.9198 N   0  0  0  0  0  0  0  0  0  0  0  0
  -21.7106  -12.0417   19.5245 N   0  0  0  0  0  0  0  0  0  0  0  0
  -28.5206  -17.0905   19.5123 N   0  0  0  0  0  0  0  0  0  0  0  0
  -22.9240  -30.4843   22.8773 N   0  0  0  0  0  0  0  0  0  0  0  0
  -21.5001  -24.8305   19.6093 N   0  0  0  0  0  0  0  0  0  0  0  0
  -29.7097  -23.4269   19.3278 N   0  3  2  0  0  0  0  0  0  0  0  0
  -23.4836  -22.9215   17.2664 N   0  3  0  0  0  0  0  0  0  0  0  0
  -21.8786  -13.5108   21.2773 O   0  0  0  0  0  0  0  0  0  0  0  0
  -23.1137  -28.2020   23.2988 O   0  0  0  0  0  0  0  0  0  0  0  0
  -20.2716  -27.3541   20.9755 O   0  0  0  0  0  0  0  0  0  0  0  0
  -22.8864  -23.0163   20.0143 O   0  0  0  0  0  0  0  0  0  0  0  0
  -30.6834  -16.4467   18.9744 O   0  0  0  0  0  0  0  0  0  0  0  0
  -22.9240   -7.6369   24.6462 O   0  0  0  0  0  0  0  0  0  0  0  0
  -28.6815  -26.9505   19.9916 O   0  0  0  0  0  0  0  0  0  1  0  0
  -20.5724   -3.1712   22.4256 F   0  0  0  0  0  0  0  0  0  0  0  0
  -24.0023   -5.1219   25.0401 F   0  0  0  0  0  0  0  0  0  0  0  0
  1  2  1  0  0  0  0
  1  5  2  0  0  0  0
  2  6  2  0  0  0  0
  3  8  2  0  0  0  0
  3 17  1  0  0  0  0
  4  9  1  0  0  0  0
  4 17  2  0  0  0  0
  5 19  1  0  0  0  0
  6 21  1  0  0  0  0
  7 10  2  0  0  0  0
  7 20  1  0  0  0  0
  8 27  1  0  0  0  0
  9 27  2  0  0  0  0
 10 28  1  0  0  0  0
 11 12  2  0  0  0  0
 11 29  1  0  0  0  0
 12 30  1  0  0  0  0
 13 22  1  0  0  0  0
 13 28  2  0  0  0  0
 14 23  2  0  0  0  0
 14 26  1  0  0  0  0
 15 24  1  0  0  0  0
 15 26  2  0  0  0  0
 16 30  2  0  0  0  0
 16 31  1  0  0  0  0
 17 32  1  0  0  0  0
 18 32  1  0  0  0  0
 18 33  2  0  0  0  0
 18 36  1  0  0  0  0
 19 21  2  0  0  0  0
 19 41  1  0  0  0  0
 20 22  2  0  0  0  0
 20 42  1  0  0  0  0
 21 54  1  0  0  0  0
 22 43  1  0  0  0  0
 23 25  1  0  0  0  0
 23 58  1  0  0  0  0
 24 25  2  0  0  0  0
 24 59  1  0  0  0  0
 25 65  1  0  0  0  0
 26 75  1  0  0  0  0
 27 85  1  0  0  0  0
 28 86  1  0  0  0  0
 29 31  2  0  0  0  0
 29 85  1  0  0  0  0
 30 87  1  0  0  0  0
 31 88  1  0  0  0  0
 32 69  2  0  0  0  0
 33 70  1  0  0  0  0
 33 73  1  0  0  0  0
 34 35  2  0  0  0  0
 34 55  1  0  0  0  0
 34 78  1  0  0  0  0
 36 74  1  0  0  0  0
 36 80  2  0  0  0  0
 37 56  1  0  0  0  0
 37 76  1  0  0  0  0
 37 81  2  0  0  0  0
 38 66  1  0  0  0  0
 38 71  1  0  0  0  0
 38 82  2  0  0  0  0
 39 67  1  0  0  0  0
 39 77  1  0  0  0  0
 39 83  2  0  0  0  0
 40 72  1  0  0  0  0
 40 75  1  0  0  0  0
 40 84  2  0  0  0  0
 41 44  1  0  0  0  0
 42 56  1  0  0  0  0
 43 71  1  0  0  0  0
 44 48  1  0  0  0  0
 45 47  1  0  0  0  0
 45 49  1  0  0  0  0
 46 50  1  0  0  0  0
 46 51  1  0  0  0  0
 47 53  1  0  0  0  0
 48 54  1  0  0  0  0
 49 55  1  0  0  0  0
 50 57  1  0  0  0  0
 51 72  1  0  0  0  0
 52 57  1  0  0  0  0
 52 72  1  0  0  0  0
 53 78  1  0  0  0  0
 54 76  1  0  0  0  0
 55 86  1  0  0  0  0
 56 71  1  0  0  0  0
 57 70  1  0  0  0  0
 60 67  1  0  0  0  0
 61 68  1  0  0  0  0
 62 68  1  0  0  0  0
 63 68  1  0  0  0  0
 64 79  1  0  0  0  0
 65 78  1  0  0  0  0
 66 68  1  0  0  0  0
 66 77  1  0  0  0  0
 67 79  1  0  0  0  0
 69 70  1  0  0  0  0
M  CHG  2  78   1  79   1
M  ISO  4  40 100  55 101  75 100  86 101
M  END
> <Batch ID>
0046

> <Smiles>
C=C1N(Cc2c(C)cc([100NH:0][100C:0](=O)N3CCCC(n4nc(-c5ccc(Oc6ccc(F)cc6F)cc5)c(C(N)=O)c4N)C3)cc2C)CCCC[101CH:1]1[101O:1]c1ccc2c(c1)CN(C(=O)C(NC(=O)C(C)NC)C(C)(C)C)C(C(=O)NC1CCCc3ccccc31)C2

> <Shape>
0.339

> <Color>
0.119

> <Negative vol penalty>
0.000

$$$$

  -OEChem-04042322233D

 89 97  0     1  0  0  0  0  0999 V2000
  -27.6718  -38.3784   21.8926 C   0  0  0  0  0  0  0  0  0  0  0  0
  -27.7434  -37.0758   21.4095 C   0  0  0  0  0  0  0  0  0  0  0  0
  -23.1421   -9.7704   21.5332 C   0  0  0  0  0  0  0  0  0  0  0  0
  -23.7476  -10.8996   23.5814 C   0  0  0  0  0  0  0  0  0  0  0  0
  -27.3545  -38.6079   23.2307 C   0  0  0  0  0  0  0  0  0  0  0  0
  -27.4988  -36.0018   22.2645 C   0  0  0  0  0  0  0  0  0  0  0  0
  -24.8073  -30.6915   20.8283 C   0  0  0  0  0  0  0  0  0  0  0  0
  -31.7291  -17.4218   21.0245 C   0  0  0  0  0  0  0  0  0  0  0  0
  -22.4194   -8.8289   22.2659 C   0  0  0  0  0  0  0  0  0  0  0  0
  -23.0248   -9.9582   24.3141 C   0  0  0  0  0  0  0  0  0  0  0  0
  -25.3213  -29.4338   20.5159 C   0  0  0  0  0  0  0  0  0  0  0  0
  -23.0736   -6.0772   24.1163 C   0  0  0  0  0  0  0  0  0  0  0  0
  -32.2648  -18.6446   21.4287 C   0  0  0  0  0  0  0  0  0  0  0  0
  -23.2344   -4.7330   23.7802 C   0  0  0  0  0  0  0  0  0  0  0  0
  -25.0305  -28.7514   22.8114 C   0  0  0  0  0  0  0  0  0  0  0  0
  -20.8745   -4.5739   23.2877 C   0  0  0  0  0  0  0  0  0  0  0  0
  -23.8063  -10.8057   22.1910 C   0  0  0  0  0  0  0  0  0  0  0  0
  -30.0470  -19.6021   21.4711 C   0  0  0  0  0  0  0  0  0  0  0  0
  -24.0770  -12.9929   20.9062 C   0  0  0  0  0  0  0  0  0  0  0  0
  -27.0964  -37.5366   24.1003 C   0  0  0  0  0  0  0  0  0  0  0  0
  -24.4105  -30.9927   22.1392 C   0  0  0  0  0  0  0  0  0  0  0  0
  -27.1790  -36.2172   23.6159 C   0  0  0  0  0  0  0  0  0  0  0  0
  -24.5094  -30.0129   23.1373 C   0  0  0  0  0  0  0  0  0  0  0  0
  -30.3524  -17.2891   20.8436 C   0  0  0  0  0  0  0  0  0  0  0  0
  -22.3607   -8.9228   23.6563 C   0  0  0  0  0  0  0  0  0  0  0  0
  -25.4357  -28.4644   21.5081 C   0  0  0  0  0  0  0  0  0  0  0  0
  -21.8132   -6.6697   24.0382 C   0  0  0  0  0  0  0  0  0  0  0  0
  -22.1348   -3.9814   23.3658 C   0  0  0  0  0  0  0  0  0  0  0  0
  -31.4238  -19.7347   21.6520 C   0  0  0  0  0  0  0  0  0  0  0  0
  -20.7136   -5.9180   23.6239 C   0  0  0  0  0  0  0  0  0  0  0  0
  -29.5113  -18.3792   21.0670 C   0  0  0  0  0  0  0  0  0  0  0  0
  -24.5536  -11.7783   21.4347 C   0  0  0  0  0  0  0  0  0  0  0  0
  -25.1672  -13.5460   20.2799 C   0  0  0  0  0  0  0  0  0  0  0  0
  -27.6986  -25.6590   21.6932 C   0  0  0  0  0  0  0  0  0  0  0  0
  -27.0662  -26.8243   21.8575 C   0  0  0  0  0  0  0  0  0  1  0  0
  -29.1933  -20.7918   21.7217 C   0  0  0  0  0  0  0  0  0  0  0  0
  -22.7662  -13.5696   20.9751 C   0  0  0  0  0  0  0  0  0  0  0  0
  -25.3345  -33.0973   24.3348 C   0  0  0  0  0  0  0  0  0  0  0  0
  -22.7887  -31.9248   25.9678 C   0  0  0  0  0  0  0  0  0  0  0  0
  -29.4301  -24.0363   22.1316 C   0  0  0  0  0  0  0  0  0  0  0  0
  -20.6152  -29.3444   26.4819 C   0  0  0  0  0  0  0  0  0  0  0  0
  -30.5747  -14.8693   20.1790 C   0  0  0  0  0  0  0  0  0  0  0  0
  -26.8037  -37.8325   25.5499 C   0  0  0  0  0  0  0  0  0  0  0  0
  -23.8332  -32.3455   22.4542 C   0  0  0  0  0  0  0  0  0  0  0  0
  -24.0786  -30.2794   24.5557 C   0  0  0  0  0  0  0  0  0  0  0  0
  -26.1909  -36.6531   26.3007 C   0  0  0  0  0  0  0  0  0  0  0  0
  -29.6952  -11.5647   19.1875 C   0  0  0  0  0  0  0  0  0  0  0  0
  -26.9601  -35.3707   25.9994 C   0  0  0  0  0  0  0  0  0  0  0  0
  -28.2399  -11.4256   19.6403 C   0  0  0  0  0  0  0  0  0  0  0  0
  -30.5210  -12.3849   20.1770 C   0  0  0  0  0  0  0  0  0  0  0  0
  -28.5051  -13.5607   20.9662 C   0  0  0  0  0  0  0  0  0  0  0  0
  -26.8960  -35.0268   24.5064 C   0  0  1  0  0  0  0  0  0  0  0  0
  -23.9396  -32.7112   23.9315 C   0  0  1  0  0  0  0  0  0  0  0  0
  -27.6184  -12.7972   19.9690 C   0  0  2  0  0  0  0  0  0  0  0  0
  -18.6669  -28.6647   27.9100 C   0  0  0  0  0  0  0  0  0  0  0  0
  -24.6839  -31.4057   28.3021 C   0  0  0  0  0  0  0  0  0  0  0  0
  -22.9437  -29.9006   29.2894 C   0  0  0  0  0  0  0  0  0  0  0  0
  -22.4510  -32.3231   28.9554 C   0  0  0  0  0  0  0  0  0  0  0  0
  -29.4376  -26.1869   23.3554 C   0  0  0  0  0  0  0  0  0  0  0  0
  -18.8369  -29.0767   24.1314 C   0  0  0  0  0  0  0  0  0  0  0  0
  -28.7496  -23.1518   21.0976 C   0  0  0  0  0  0  0  0  0  0  0  0
  -22.5740  -30.7946   26.9453 C   0  0  1  0  0  0  0  0  0  0  0  0
  -19.1025  -29.3107   26.6039 C   0  0  2  0  0  0  0  0  0  0  0  0
  -23.1731  -31.1013   28.3468 C   0  0  0  0  0  0  0  0  0  0  0  0
  -25.8458  -11.5713   21.1674 N   0  0  0  0  0  0  0  0  0  0  0  0
  -26.1905  -12.6633   20.4640 N   0  0  0  0  0  0  0  0  0  0  0  0
  -23.5263  -31.6192   24.8153 N   0  0  0  0  0  0  0  0  0  0  0  0
  -29.8734  -13.6725   20.4370 N   0  0  0  0  0  0  0  0  0  0  0  0
  -25.3407  -14.6965   19.5953 N   0  0  0  0  0  0  0  0  0  0  0  0
  -21.7628  -12.8684   21.6575 N   0  0  0  0  0  0  0  0  0  0  0  0
  -29.8462  -16.0308   20.4334 N   0  0  0  0  0  0  0  0  0  0  0  0
  -29.4745  -21.9117   20.9538 N   0  0  0  0  0  0  0  0  0  0  0  0
  -25.6141  -34.4413   24.1772 N   0  0  0  0  0  0  0  0  0  0  0  0
  -21.1394  -30.5292   26.9537 N   0  0  0  0  0  0  0  0  0  0  0  0
  -28.8225  -25.2908   22.3657 N   0  0  0  0  0  0  0  0  0  0  0  0
  -18.5089  -28.5378   25.4764 N   0  3  0  0  0  0  0  0  0  0  0  0
  -28.3211  -20.7335   22.5844 O   0  0  0  0  0  0  0  0  0  0  0  0
  -22.4887  -14.6664   20.4333 O   0  0  0  0  0  0  0  0  0  0  0  0
  -26.1000  -32.2395   24.7591 O   0  0  0  0  0  0  0  0  0  0  0  0
  -22.3132  -33.0361   26.2143 O   0  0  0  0  0  0  0  0  0  0  0  0
  -30.4492  -23.6501   22.7118 O   0  0  0  0  0  0  0  0  0  0  0  0
  -21.2670  -28.4114   26.0180 O   0  0  0  0  0  0  0  0  0  0  0  0
  -31.7266  -14.8641   19.7372 O   0  0  0  0  0  0  0  0  0  0  0  0
  -21.6553   -8.0044   24.3716 O   0  0  0  0  0  0  0  0  0  0  0  0
  -25.9376  -27.2362   21.2060 O   0  0  0  0  0  0  0  0  0  1  0  0
  -22.2897   -2.6910   23.0415 F   0  0  0  0  0  0  0  0  0  0  0  0
  -31.9522  -20.9042   22.0404 F   0  0  0  0  0  0  0  0  0  0  0  0
  -19.5005   -6.4820   23.5457 F   0  0  0  0  0  0  0  0  0  0  0  0
  -27.7988  -18.2150   20.8417 Cl  0  0  0  0  0  0  0  0  0  0  0  0
  1  2  1  0  0  0  0
  1  5  2  0  0  0  0
  2  6  2  0  0  0  0
  3  9  2  0  0  0  0
  3 17  1  0  0  0  0
  4 10  1  0  0  0  0
  4 17  2  0  0  0  0
  5 20  1  0  0  0  0
  6 22  1  0  0  0  0
  7 11  2  0  0  0  0
  7 21  1  0  0  0  0
  8 13  1  0  0  0  0
  8 24  2  0  0  0  0
  9 25  1  0  0  0  0
 10 25  2  0  0  0  0
 11 26  1  0  0  0  0
 12 14  2  0  0  0  0
 12 27  1  0  0  0  0
 13 29  2  0  0  0  0
 14 28  1  0  0  0  0
 15 23  1  0  0  0  0
 15 26  2  0  0  0  0
 16 28  2  0  0  0  0
 16 30  1  0  0  0  0
 17 32  1  0  0  0  0
 18 29  1  0  0  0  0
 18 31  2  0  0  0  0
 18 36  1  0  0  0  0
 19 32  1  0  0  0  0
 19 33  2  0  0  0  0
 19 37  1  0  0  0  0
 20 22  2  0  0  0  0
 20 43  1  0  0  0  0
 21 23  2  0  0  0  0
 21 44  1  0  0  0  0
 22 52  1  0  0  0  0
 23 45  1  0  0  0  0
 24 31  1  0  0  0  0
 24 71  1  0  0  0  0
 25 84  1  0  0  0  0
 26 85  1  0  0  0  0
 27 30  2  0  0  0  0
 27 84  1  0  0  0  0
 28 86  1  0  0  0  0
 29 87  1  0  0  0  0
 30 88  1  0  0  0  0
 31 89  1  0  0  0  0
 32 65  2  0  0  0  0
 33 66  1  0  0  0  0
 33 69  1  0  0  0  0
 34 35  2  0  0  0  0
 34 75  1  0  0  0  0
 35 85  1  0  0  0  0
 36 72  1  0  0  0  0
 36 77  2  0  0  0  0
 37 70  1  0  0  0  0
 37 78  2  0  0  0  0
 38 53  1  0  0  0  0
 38 73  1  0  0  0  0
 38 79  2  0  0  0  0
 39 62  1  0  0  0  0
 39 67  1  0  0  0  0
 39 80  2  0  0  0  0
 40 61  1  0  0  0  0
 40 75  1  0  0  0  0
 40 81  2  0  0  0  0
 41 63  1  0  0  0  0
 41 74  1  0  0  0  0
 41 82  2  0  0  0  0
 42 68  1  0  0  0  0
 42 71  1  0  0  0  0
 42 83  2  0  0  0  0
 43 46  1  0  0  0  0
 44 53  1  0  0  0  0
 45 67  1  0  0  0  0
 46 48  1  0  0  0  0
 47 49  1  0  0  0  0
 47 50  1  0  0  0  0
 48 52  1  0  0  0  0
 49 54  1  0  0  0  0
 50 68  1  0  0  0  0
 51 54  1  0  0  0  0
 51 68  1  0  0  0  0
 52 73  1  0  0  0  0
 53 67  1  0  0  0  0
 54 66  1  0  0  0  0
 55 63  1  0  0  0  0
 56 64  1  0  0  0  0
 57 64  1  0  0  0  0
 58 64  1  0  0  0  0
 59 75  1  0  0  0  0
 60 76  1  0  0  0  0
 61 72  1  0  0  0  0
 62 64  1  0  0  0  0
 62 74  1  0  0  0  0
 63 76  1  0  0  0  0
 65 66  1  0  0  0  0
M  CHG  1  76   1
M  ISO  4  35 101  42 100  71 100  85 101
M  END
> <Batch ID>
0046

> <Smiles>
CNC(C)C(=O)NC(C(=O)N1Cc2cc([101O:1][101CH:1]=CN(C)C(=O)CNC(=O)c3c(F)ccc([100NH:0][100C:0](=O)N4CCCC(n5nc(-c6ccc(Oc7ccc(F)cc7F)cc6)c(C(N)=O)c5N)C4)c3Cl)ccc2CC1C(=O)NC1CCCc2ccccc21)C(C)(C)C

> <Shape>
0.306

> <Color>
0.161

> <Negative vol penalty>
0.000

$$$$

  -OEChem-04042322233D

 89 98  0     1  0  0  0  0  0999 V2000
  -14.6004  -20.1938   16.1973 C   0  0  0  0  0  0  0  0  0  0  0  0
  -14.8582  -19.1307   17.0569 C   0  0  0  0  0  0  0  0  0  0  0  0
  -27.0248  -25.4259   20.3664 C   0  0  0  0  0  0  0  0  0  0  0  0
  -27.8710  -25.9128   18.1565 C   0  0  0  0  0  0  0  0  0  0  0  0
  -15.6569  -20.8580   15.5756 C   0  0  0  0  0  0  0  0  0  0  0  0
  -16.1727  -18.7305   17.2944 C   0  0  0  0  0  0  0  0  0  0  0  0
  -20.3285  -15.9834   22.4421 C   0  0  0  0  0  0  0  0  0  0  0  0
  -29.1332  -13.3035   21.1041 C   0  0  0  0  0  0  0  0  0  0  0  0
  -30.0846  -14.1688   20.5641 C   0  0  0  0  0  0  0  0  0  0  0  0
  -26.0857  -26.4484   20.2321 C   0  0  0  0  0  0  0  0  0  0  0  0
  -26.9318  -26.9352   18.0221 C   0  0  0  0  0  0  0  0  0  0  0  0
  -21.2203  -14.9343   22.6611 C   0  0  0  0  0  0  0  0  0  0  0  0
  -26.0246  -29.8199   20.4633 C   0  0  0  0  0  0  0  0  0  0  0  0
  -25.8524  -30.6866   21.5425 C   0  0  0  0  0  0  0  0  0  0  0  0
  -22.9698  -16.2066   21.5934 C   0  0  0  0  0  0  0  0  0  0  0  0
  -28.4946  -12.6164   18.8776 C   0  0  0  0  0  0  0  0  0  0  0  0
  -23.5306  -30.0358   21.6946 C   0  0  0  0  0  0  0  0  0  0  0  0
  -27.9176  -25.1581   19.3286 C   0  0  0  0  0  0  0  0  0  0  0  0
  -29.8974  -23.9979   20.4431 C   0  0  0  0  0  0  0  0  0  0  0  0
  -16.9855  -20.4719   15.8131 C   0  0  0  0  0  0  0  0  0  0  0  0
  -20.7486  -17.1495   21.7862 C   0  0  0  0  0  0  0  0  0  0  0  0
  -17.2479  -19.3893   16.6742 C   0  0  0  0  0  0  0  0  0  0  0  0
  -22.0820  -17.2700   21.3695 C   0  0  0  0  0  0  0  0  0  0  0  0
  -28.3382  -12.5272   20.2608 C   0  0  0  0  0  0  0  0  0  0  0  0
  -30.2410  -14.2580   19.1810 C   0  0  0  0  0  0  0  0  0  0  0  0
  -29.4460  -13.4817   18.3376 C   0  0  0  0  0  0  0  0  0  0  0  0
  -26.0391  -27.2030   19.0600 C   0  0  0  0  0  0  0  0  0  0  0  0
  -22.5404  -15.0446   22.2342 C   0  0  0  0  0  0  0  0  0  0  0  0
  -24.9498  -29.0612   19.9996 C   0  0  0  0  0  0  0  0  0  0  0  0
  -24.6054  -30.7945   22.1582 C   0  0  0  0  0  0  0  0  0  0  0  0
  -23.7029  -29.1691   20.6152 C   0  0  0  0  0  0  0  0  0  0  0  0
  -28.8883  -24.1024   19.4670 C   0  0  0  0  0  0  0  0  0  0  0  0
  -30.5453  -22.8247   20.1429 C   0  0  0  0  0  0  0  0  0  0  0  0
  -25.4072  -12.9580   21.6678 C   0  0  0  0  0  0  0  0  0  0  0  0
  -31.4973  -12.4693   15.6241 C   0  0  0  0  0  0  0  0  0  0  0  0
  -30.3310  -12.3817   16.2735 C   0  0  0  0  0  0  0  0  0  0  0  0
  -30.2201  -24.8824   21.5245 C   0  0  0  0  0  0  0  0  0  0  0  0
  -19.9380  -18.6214   19.0881 C   0  0  0  0  0  0  0  0  0  0  0  0
  -21.9682  -20.9034   20.1804 C   0  0  0  0  0  0  0  0  0  0  0  0
  -25.1910  -21.0044   21.7993 C   0  0  0  0  0  0  0  0  0  0  0  0
  -30.4044  -17.5084   18.8528 C   0  0  0  0  0  0  0  0  0  0  0  0
  -18.0919  -21.1897   15.0814 C   0  0  0  0  0  0  0  0  0  0  0  0
  -19.7812  -18.2828   21.5814 C   0  0  0  0  0  0  0  0  0  0  0  0
  -22.5881  -18.5091   20.6788 C   0  0  0  0  0  0  0  0  0  0  0  0
  -19.4756  -20.9446   15.6777 C   0  0  0  0  0  0  0  0  0  0  0  0
  -23.7991  -11.5303   19.6437 C   0  0  0  0  0  0  0  0  0  0  0  0
  -30.2202  -19.8275   16.0806 C   0  0  0  0  0  0  0  0  0  0  0  0
  -19.6818  -19.4589   15.9552 C   0  0  0  0  0  0  0  0  0  0  0  0
  -23.1688  -12.2535   20.8325 C   0  0  0  0  0  0  0  0  0  0  0  0
  -29.9387  -21.1453   16.8047 C   0  0  0  0  0  0  0  0  0  0  0  0
  -25.2708  -11.8792   19.4402 C   0  0  0  0  0  0  0  0  0  0  0  0
  -29.4937  -18.6637   16.7484 C   0  0  0  0  0  0  0  0  0  0  0  0
  -29.5106  -19.8189   18.9253 C   0  0  0  0  0  0  0  0  0  0  0  0
  -18.6615  -18.9416   16.9765 C   0  0  1  0  0  0  0  0  0  0  0  0
  -24.0079  -13.4347   21.3027 C   0  0  1  0  0  0  0  0  0  1  0  0
  -20.1866  -19.2166   20.4451 C   0  0  1  0  0  0  0  0  0  0  0  0
  -30.2348  -21.0310   18.3118 C   0  0  2  0  0  0  0  0  0  0  0  0
  -26.1991  -22.7265   23.3210 C   0  0  0  0  0  0  0  0  0  0  0  0
  -23.1891  -22.0297   17.6209 C   0  0  0  0  0  0  0  0  0  0  0  0
  -25.2752  -22.5212   18.9151 C   0  0  0  0  0  0  0  0  0  0  0  0
  -23.1306  -23.6308   19.5412 C   0  0  0  0  0  0  0  0  0  0  0  0
  -25.7129  -18.9997   23.9129 C   0  0  0  0  0  0  0  0  0  0  0  0
  -29.5954  -13.5607   16.8537 C   0  0  0  0  0  0  0  0  0  0  0  0
  -27.3138  -11.5962   20.8422 C   0  0  0  0  0  0  0  0  0  0  0  0
  -31.2655  -15.1924   18.6260 C   0  0  0  0  0  0  0  0  0  0  0  0
  -23.4472  -21.1731   20.0429 C   0  0  1  0  0  0  0  0  0  0  0  0
  -25.4727  -21.3929   23.2395 C   0  0  2  0  0  0  0  0  0  0  0  0
  -23.7501  -22.3122   19.0289 C   0  0  0  0  0  0  0  0  0  0  0  0
  -28.8912  -23.0773   18.6107 N   0  0  0  0  0  0  0  0  0  0  0  0
  -29.9100  -22.3176   19.0478 N   0  0  0  0  0  0  0  0  0  0  0  0
  -25.9640  -12.1162   20.7012 N   0  0  0  0  0  0  0  0  0  0  0  0
  -21.6023  -19.5872   20.4960 N   0  0  0  0  0  0  0  0  0  0  0  0
  -29.8331  -18.5994   18.1770 N   0  0  0  0  0  0  0  0  0  0  0  0
  -31.5909  -22.1877   20.7116 N   0  0  0  0  0  0  0  0  0  0  0  0
  -31.1447  -25.9101   21.2939 N   0  0  0  0  0  0  0  0  0  0  0  0
  -19.0425  -19.3362   18.3157 N   0  0  0  0  0  0  0  0  0  0  0  0
  -23.9431  -21.4259   21.3914 N   0  0  0  0  0  0  0  0  0  0  0  0
  -30.6727  -16.3899   18.0733 N   0  0  0  0  0  0  0  0  0  0  0  0
  -26.3165  -20.3570   23.8998 N   0  3  0  0  0  0  0  0  0  0  0  0
  -25.9647  -13.3063   22.7071 O   0  0  0  0  0  0  0  0  0  0  0  0
  -29.7161  -24.7547   22.6661 O   0  0  0  0  0  0  0  0  0  0  0  0
  -20.5169  -17.5908   18.7650 O   0  0  0  0  0  0  0  0  0  0  0  0
  -21.1675  -21.8280   20.0209 O   0  0  0  0  0  0  0  0  0  0  0  0
  -25.9987  -20.3918   21.1044 O   0  0  0  0  0  0  0  0  0  0  0  0
  -30.6616  -17.5312   20.0613 O   0  0  0  0  0  0  0  0  0  0  0  0
  -25.1227  -28.2007   18.9284 O   0  0  0  0  0  0  0  0  0  0  0  0
  -23.4128  -14.0219   22.4461 O   0  0  0  0  0  0  0  0  0  1  0  0
  -24.4405  -31.6256   23.1956 F   0  0  0  0  0  0  0  0  0  0  0  0
  -22.6669  -28.4420   20.1750 F   0  0  0  0  0  0  0  0  0  0  0  0
  1  2  1  0  0  0  0
  1  5  2  0  0  0  0
  2  6  2  0  0  0  0
  3 10  2  0  0  0  0
  3 18  1  0  0  0  0
  4 11  1  0  0  0  0
  4 18  2  0  0  0  0
  5 20  1  0  0  0  0
  6 22  1  0  0  0  0
  7 12  2  0  0  0  0
  7 21  1  0  0  0  0
  8  9  2  0  0  0  0
  8 24  1  0  0  0  0
  9 25  1  0  0  0  0
 10 27  1  0  0  0  0
 11 27  2  0  0  0  0
 12 28  1  0  0  0  0
 13 14  2  0  0  0  0
 13 29  1  0  0  0  0
 14 30  1  0  0  0  0
 15 23  1  0  0  0  0
 15 28  2  0  0  0  0
 16 24  2  0  0  0  0
 16 26  1  0  0  0  0
 17 30  2  0  0  0  0
 17 31  1  0  0  0  0
 18 32  1  0  0  0  0
 19 32  1  0  0  0  0
 19 33  2  0  0  0  0
 19 37  1  0  0  0  0
 20 22  2  0  0  0  0
 20 42  1  0  0  0  0
 21 23  2  0  0  0  0
 21 43  1  0  0  0  0
 22 54  1  0  0  0  0
 23 44  1  0  0  0  0
 24 64  1  0  0  0  0
 25 26  2  0  0  0  0
 25 65  1  0  0  0  0
 26 63  1  0  0  0  0
 27 86  1  0  0  0  0
 28 87  1  0  0  0  0
 29 31  2  0  0  0  0
 29 86  1  0  0  0  0
 30 88  1  0  0  0  0
 31 89  1  0  0  0  0
 32 69  2  0  0  0  0
 33 70  1  0  0  0  0
 33 74  1  0  0  0  0
 34 55  1  0  0  0  0
 34 71  1  0  0  0  0
 34 80  2  0  0  0  0
 35 36  2  0  0  0  0
 36 63  1  0  0  0  0
 37 75  1  0  0  0  0
 37 81  2  0  0  0  0
 38 56  1  0  0  0  0
 38 76  1  0  0  0  0
 38 82  2  0  0  0  0
 39 66  1  0  0  0  0
 39 72  1  0  0  0  0
 39 83  2  0  0  0  0
 40 67  1  0  0  0  0
 40 77  1  0  0  0  0
 40 84  2  0  0  0  0
 41 73  1  0  0  0  0
 41 78  1  0  0  0  0
 41 85  2  0  0  0  0
 42 45  1  0  0  0  0
 43 56  1  0  0  0  0
 44 72  1  0  0  0  0
 45 48  1  0  0  0  0
 46 49  1  0  0  0  0
 46 51  1  0  0  0  0
 47 50  1  0  0  0  0
 47 52  1  0  0  0  0
 48 54  1  0  0  0  0
 49 55  1  0  0  0  0
 50 57  1  0  0  0  0
 51 71  1  0  0  0  0
 52 73  1  0  0  0  0
 53 57  1  0  0  0  0
 53 73  1  0  0  0  0
 54 76  1  0  0  0  0
 55 87  1  0  0  0  0
 56 72  1  0  0  0  0
 57 70  1  0  0  0  0
 58 67  1  0  0  0  0
 59 68  1  0  0  0  0
 60 68  1  0  0  0  0
 61 68  1  0  0  0  0
 62 79  1  0  0  0  0
 64 71  1  0  0  0  0
 65 78  1  0  0  0  0
 66 68  1  0  0  0  0
 66 77  1  0  0  0  0
 67 79  1  0  0  0  0
 69 70  1  0  0  0  0
M  CHG  1  79   1
M  ISO  4  41 100  55 101  78 100  87 101
M  END
> <Batch ID>
0046

> <Smiles>
C=CCc1cc(CN2CCC[101CH:1]([101O:1]c3ccc4c(c3)CN(C(=O)C(NC(=O)C(C)NC)C(C)(C)C)C(C(=O)NC3CCCc5ccccc53)C4)C2=O)ccc1C[100NH:0][100C:0](=O)N1CCCC(n2nc(-c3ccc(Oc4ccc(F)cc4F)cc3)c(C(N)=O)c2N)C1

> <Shape>
0.192

> <Color>
0.076

> <Negative vol penalty>
0.000

$$$$

  -OEChem-04042322233D

 85 93  0     1  0  0  0  0  0999 V2000
  -29.3048  -37.6325   21.4477 C   0  0  0  0  0  0  0  0  0  0  0  0
  -29.4498  -36.4835   20.6768 C   0  0  0  0  0  0  0  0  0  0  0  0
  -27.2992  -19.5817   19.0347 C   0  0  0  0  0  0  0  0  0  0  0  0
  -22.9740  -10.8537   19.1329 C   0  0  0  0  0  0  0  0  0  0  0  0
  -23.3246   -9.6009   21.1688 C   0  0  0  0  0  0  0  0  0  0  0  0
  -28.0827  -18.4290   18.9815 C   0  0  0  0  0  0  0  0  0  0  0  0
  -28.7404  -37.5504   22.7199 C   0  0  0  0  0  0  0  0  0  0  0  0
  -29.0314  -35.2515   21.1783 C   0  0  0  0  0  0  0  0  0  0  0  0
  -26.2424  -29.0094   19.0396 C   0  0  0  0  0  0  0  0  0  0  0  0
  -27.8320  -20.7642   19.5481 C   0  0  0  0  0  0  0  0  0  0  0  0
  -22.0233   -9.9195   18.7218 C   0  0  0  0  0  0  0  0  0  0  0  0
  -22.3738   -8.6667   20.7576 C   0  0  0  0  0  0  0  0  0  0  0  0
  -26.4707  -27.6375   19.1382 C   0  0  0  0  0  0  0  0  0  0  0  0
  -19.0047   -8.4225   20.6586 C   0  0  0  0  0  0  0  0  0  0  0  0
  -18.0635   -8.0015   21.5979 C   0  0  0  0  0  0  0  0  0  0  0  0
  -25.4371  -27.6283   21.3179 C   0  0  0  0  0  0  0  0  0  0  0  0
  -18.8347   -5.7253   21.3507 C   0  0  0  0  0  0  0  0  0  0  0  0
  -23.6247  -10.6944   20.3565 C   0  0  0  0  0  0  0  0  0  0  0  0
  -29.3991  -18.4587   19.4418 C   0  0  0  0  0  0  0  0  0  0  0  0
  -24.3825  -12.8246   21.5378 C   0  0  0  0  0  0  0  0  0  0  0  0
  -28.3061  -36.3182   23.2334 C   0  0  0  0  0  0  0  0  0  0  0  0
  -25.6185  -29.7041   20.0858 C   0  0  0  0  0  0  0  0  0  0  0  0
  -28.4619  -35.1526   22.4592 C   0  0  0  0  0  0  0  0  0  0  0  0
  -25.1998  -29.0084   21.2290 C   0  0  0  0  0  0  0  0  0  0  0  0
  -29.1484  -20.7938   20.0084 C   0  0  0  0  0  0  0  0  0  0  0  0
  -29.9320  -19.6411   19.9552 C   0  0  0  0  0  0  0  0  0  0  0  0
  -21.7232   -8.8260   19.5341 C   0  0  0  0  0  0  0  0  0  0  0  0
  -26.0707  -26.9473   20.2787 C   0  0  0  0  0  0  0  0  0  0  0  0
  -19.8609   -7.4948   20.0652 C   0  0  0  0  0  0  0  0  0  0  0  0
  -17.9785   -6.6530   21.9441 C   0  0  0  0  0  0  0  0  0  0  0  0
  -19.7760   -6.1463   20.4113 C   0  0  0  0  0  0  0  0  0  0  0  0
  -24.6073  -11.6587   20.7815 C   0  0  0  0  0  0  0  0  0  0  0  0
  -25.6263  -13.3911   21.6733 C   0  0  0  0  0  0  0  0  0  0  0  0
  -30.2026  -17.2253   19.3714 C   0  0  0  0  0  0  0  0  0  0  0  0
  -23.1587  -13.3485   22.0704 C   0  0  0  0  0  0  0  0  0  0  0  0
  -26.4715  -32.0692   22.0307 C   0  0  0  0  0  0  0  0  0  0  0  0
  -23.3789  -31.8742   22.9897 C   0  0  0  0  0  0  0  0  0  0  0  0
  -27.9628  -23.8798   20.4416 C   0  0  0  0  0  0  0  0  0  0  0  0
  -20.5485  -29.9895   23.2786 C   0  0  0  0  0  0  0  0  0  0  0  0
  -30.4767  -14.9414   19.3880 C   0  0  0  0  0  0  0  0  0  0  0  0
  -27.7455  -36.2720   24.6328 C   0  0  0  0  0  0  0  0  0  0  0  0
  -25.3554  -31.1790   19.9527 C   0  0  0  0  0  0  0  0  0  0  0  0
  -24.5077  -29.7042   22.3716 C   0  0  0  0  0  0  0  0  0  0  0  0
  -26.9843  -34.9854   24.9418 C   0  0  0  0  0  0  0  0  0  0  0  0
  -30.2203  -11.5668   20.6334 C   0  0  0  0  0  0  0  0  0  0  0  0
  -27.7794  -33.7697   24.4760 C   0  0  0  0  0  0  0  0  0  0  0  0
  -28.7141  -11.3760   20.8110 C   0  0  0  0  0  0  0  0  0  0  0  0
  -30.5348  -12.4477   19.4281 C   0  0  0  0  0  0  0  0  0  0  0  0
  -28.3438  -13.5901   19.6361 C   0  0  0  0  0  0  0  0  0  0  0  0
  -27.9975  -33.8016   22.9585 C   0  0  1  0  0  0  0  0  0  0  0  0
  -25.1744  -31.8774   21.2969 C   0  0  1  0  0  0  0  0  0  0  0  0
  -27.9872  -12.7317   20.8618 C   0  0  1  0  0  0  0  0  0  0  0  0
  -31.3439  -19.6766   20.4495 C   0  0  0  0  0  0  0  0  0  0  0  0
  -18.1933  -30.0913   24.1389 C   0  0  0  0  0  0  0  0  0  0  0  0
  -24.4131  -31.5972   25.8469 C   0  0  0  0  0  0  0  0  0  0  0  0
  -22.1475  -30.7649   26.5122 C   0  0  0  0  0  0  0  0  0  0  0  0
  -22.4087  -33.0725   25.6014 C   0  0  0  0  0  0  0  0  0  0  0  0
  -29.7504  -23.7029   18.7022 C   0  0  0  0  0  0  0  0  0  0  0  0
  -19.4209  -29.4940   20.5875 C   0  0  0  0  0  0  0  0  0  0  0  0
  -29.6984  -22.0797   20.5545 C   0  0  0  0  0  0  0  0  0  0  0  0
  -27.4335  -25.0871   19.6967 C   0  0  0  0  0  0  0  0  0  1  0  0
  -22.6340  -31.0929   24.0450 C   0  0  1  0  0  0  0  0  0  0  0  0
  -19.1004  -30.2874   22.9341 C   0  0  2  0  0  0  0  0  0  0  0  0
  -22.9156  -31.6188   25.4809 C   0  0  0  0  0  0  0  0  0  0  0  0
  -25.8928  -11.4932   20.4589 N   0  0  0  0  0  0  0  0  0  0  0  0
  -29.6614  -16.0547   19.4610 N   0  0  0  0  0  0  0  0  0  0  0  0
  -26.4870  -12.5627   21.0152 N   0  0  0  0  0  0  0  0  0  0  0  0
  -24.2787  -31.1479   22.1968 N   0  0  0  0  0  0  0  0  0  0  0  0
  -29.8008  -13.7121   19.4948 N   0  0  0  0  0  0  0  0  0  0  0  0
  -26.0569  -14.5122   22.2899 N   0  0  0  0  0  0  0  0  0  0  0  0
  -21.9717  -12.6404   21.8382 N   0  0  0  0  0  0  0  0  0  0  0  0
  -26.7944  -33.3919   22.2662 N   0  0  0  0  0  0  0  0  0  0  0  0
  -21.2269  -31.1273   23.6613 N   0  0  0  0  0  0  0  0  0  0  0  0
  -29.0915  -23.2470   19.9199 N   0  0  0  0  0  0  0  0  0  0  0  0
  -18.6322  -29.3880   21.8420 N   0  3  0  0  0  0  0  0  0  0  0  0
  -23.1167  -14.4216   22.7187 O   0  0  0  0  0  0  0  0  0  0  0  0
  -27.1299  -31.0895   22.3601 O   0  0  0  0  0  0  0  0  0  0  0  0
  -23.1648  -33.0830   22.8685 O   0  0  0  0  0  0  0  0  0  0  0  0
  -27.3839  -23.5166   21.4701 O   0  0  0  0  0  0  0  0  0  0  0  0
  -21.0287  -28.8598   23.2182 O   0  0  0  0  0  0  0  0  0  0  0  0
  -31.6995  -14.9937   19.2360 O   0  0  0  0  0  0  0  0  0  0  0  0
  -20.7954   -7.9144   19.1333 O   0  0  0  0  0  0  0  0  0  0  0  0
  -26.2929  -25.6084   20.3777 O   0  0  0  0  0  0  0  0  0  1  0  0
  -17.0756   -6.2491   22.8473 F   0  0  0  0  0  0  0  0  0  0  0  0
  -20.5966   -5.2506   19.8455 F   0  0  0  0  0  0  0  0  0  0  0  0
  1  2  1  0  0  0  0
  1  7  2  0  0  0  0
  2  8  2  0  0  0  0
  3  6  1  0  0  0  0
  3 10  2  0  0  0  0
  4 11  2  0  0  0  0
  4 18  1  0  0  0  0
  5 12  1  0  0  0  0
  5 18  2  0  0  0  0
  6 19  2  0  0  0  0
  7 21  1  0  0  0  0
  8 23  1  0  0  0  0
  9 13  2  0  0  0  0
  9 22  1  0  0  0  0
 10 25  1  0  0  0  0
 11 27  1  0  0  0  0
 12 27  2  0  0  0  0
 13 28  1  0  0  0  0
 14 15  2  0  0  0  0
 14 29  1  0  0  0  0
 15 30  1  0  0  0  0
 16 24  1  0  0  0  0
 16 28  2  0  0  0  0
 17 30  2  0  0  0  0
 17 31  1  0  0  0  0
 18 32  1  0  0  0  0
 19 26  1  0  0  0  0
 19 34  1  0  0  0  0
 20 32  1  0  0  0  0
 20 33  2  0  0  0  0
 20 35  1  0  0  0  0
 21 23  2  0  0  0  0
 21 41  1  0  0  0  0
 22 24  2  0  0  0  0
 22 42  1  0  0  0  0
 23 50  1  0  0  0  0
 24 43  1  0  0  0  0
 25 26  2  0  0  0  0
 25 60  1  0  0  0  0
 26 53  1  0  0  0  0
 27 82  1  0  0  0  0
 28 83  1  0  0  0  0
 29 31  2  0  0  0  0
 29 82  1  0  0  0  0
 30 84  1  0  0  0  0
 31 85  1  0  0  0  0
 32 65  2  0  0  0  0
 33 67  1  0  0  0  0
 33 70  1  0  0  0  0
 34 66  2  0  0  0  0
 35 71  1  0  0  0  0
 35 76  2  0  0  0  0
 36 51  1  0  0  0  0
 36 72  1  0  0  0  0
 36 77  2  0  0  0  0
 37 62  1  0  0  0  0
 37 68  1  0  0  0  0
 37 78  2  0  0  0  0
 38 61  1  0  0  0  0
 38 74  1  0  0  0  0
 38 79  2  0  0  0  0
 39 63  1  0  0  0  0
 39 73  1  0  0  0  0
 39 80  2  0  0  0  0
 40 66  1  0  0  0  0
 40 69  1  0  0  0  0
 40 81  2  0  0  0  0
 41 44  1  0  0  0  0
 42 51  1  0  0  0  0
 43 68  1  0  0  0  0
 44 46  1  0  0  0  0
 45 47  1  0  0  0  0
 45 48  1  0  0  0  0
 46 50  1  0  0  0  0
 47 52  1  0  0  0  0
 48 69  1  0  0  0  0
 49 52  1  0  0  0  0
 49 69  1  0  0  0  0
 50 72  1  0  0  0  0
 51 68  1  0  0  0  0
 52 67  1  0  0  0  0
 54 63  1  0  0  0  0
 55 64  1  0  0  0  0
 56 64  1  0  0  0  0
 57 64  1  0  0  0  0
 58 74  1  0  0  0  0
 59 75  1  0  0  0  0
 60 74  1  0  0  0  0
 61 83  1  0  0  0  0
 62 64  1  0  0  0  0
 62 73  1  0  0  0  0
 63 75  1  0  0  0  0
 65 67  1  0  0  0  0
M  CHG  1  75   1
M  ISO  4  40 100  61 101  66 100  83 101
M  END
> <Batch ID>
0046

> <Smiles>
CNC(C)C(=O)NC(C(=O)N1Cc2cc([101O:1][101CH2:1]C(=O)N(C)Cc3cccc(C=[100N:0][100C:0](=O)N4CCCC(n5nc(-c6ccc(Oc7ccc(F)cc7F)cc6)c(C(N)=O)c5N)C4)c3C)ccc2CC1C(=O)NC1CCCc2ccccc21)C(C)(C)C

> <Shape>
0.307

> <Color>
0.118

> <Negative vol penalty>
0.000

$$$$

  -OEChem-04042322233D

 84 92  0     1  0  0  0  0  0999 V2000
  -18.7104  -29.1087   23.3051 C   0  0  0  0  0  0  0  0  0  0  0  0
  -20.0135  -28.8655   23.7272 C   0  0  0  0  0  0  0  0  0  0  0  0
  -24.4804  -12.3484   19.4371 C   0  0  0  0  0  0  0  0  0  0  0  0
  -25.4709  -12.1257   21.6294 C   0  0  0  0  0  0  0  0  0  0  0  0
  -26.5390  -22.5962   27.0757 C   0  0  0  0  0  0  0  0  0  0  0  0
  -18.2235  -28.4868   22.1561 C   0  0  0  0  0  0  0  0  0  0  0  0
  -20.8302  -27.9992   23.0012 C   0  0  0  0  0  0  0  0  0  0  0  0
  -25.5007  -29.8378   22.3300 C   0  0  0  0  0  0  0  0  0  0  0  0
  -25.4702  -21.7317   26.8392 C   0  0  0  0  0  0  0  0  0  0  0  0
  -24.6955  -10.9905   19.2019 C   0  0  0  0  0  0  0  0  0  0  0  0
  -25.6860  -10.7677   21.3943 C   0  0  0  0  0  0  0  0  0  0  0  0
  -26.3801  -29.7513   23.4084 C   0  0  0  0  0  0  0  0  0  0  0  0
  -26.1685   -7.1661   21.5119 C   0  0  0  0  0  0  0  0  0  0  0  0
  -25.8428   -6.2712   22.5310 C   0  0  0  0  0  0  0  0  0  0  0  0
  -27.4727  -22.0315   24.9201 C   0  0  0  0  0  0  0  0  0  0  0  0
  -27.4018  -27.8067   22.4116 C   0  0  0  0  0  0  0  0  0  0  0  0
  -23.5467   -7.0189   22.4538 C   0  0  0  0  0  0  0  0  0  0  0  0
  -24.8682  -12.9160   20.6508 C   0  0  0  0  0  0  0  0  0  0  0  0
  -27.5403  -22.7461   26.1161 C   0  0  0  0  0  0  0  0  0  0  0  0
  -23.5073  -14.9124   21.4694 C   0  0  0  0  0  0  0  0  0  0  0  0
  -19.0378  -27.6201   21.4103 C   0  0  0  0  0  0  0  0  0  0  0  0
  -25.5583  -28.9013   21.2878 C   0  0  0  0  0  0  0  0  0  0  0  0
  -20.3533  -27.3641   21.8419 C   0  0  0  0  0  0  0  0  0  0  0  0
  -26.5237  -27.8849   21.3198 C   0  0  0  0  0  0  0  0  0  0  0  0
  -25.4026  -21.0171   25.6433 C   0  0  0  0  0  0  0  0  0  0  0  0
  -26.4039  -21.1669   24.6837 C   0  0  0  0  0  0  0  0  0  0  0  0
  -25.2982  -10.2001   20.1805 C   0  0  0  0  0  0  0  0  0  0  0  0
  -27.3289  -28.7340   23.4508 C   0  0  0  0  0  0  0  0  0  0  0  0
  -25.1833   -7.9875   20.9638 C   0  0  0  0  0  0  0  0  0  0  0  0
  -24.5320   -6.1975   23.0020 C   0  0  0  0  0  0  0  0  0  0  0  0
  -23.8724   -7.9138   21.4347 C   0  0  0  0  0  0  0  0  0  0  0  0
  -24.6468  -14.3189   20.8941 C   0  0  0  0  0  0  0  0  0  0  0  0
  -23.7886  -16.2567   21.4798 C   0  0  0  0  0  0  0  0  0  0  0  0
  -28.6705  -23.6629   26.3664 C   0  0  0  0  0  0  0  0  0  0  0  0
  -22.3023  -14.3030   21.9514 C   0  0  0  0  0  0  0  0  0  0  0  0
  -23.5519  -26.7406   20.1004 C   0  0  0  0  0  0  0  0  0  0  0  0
  -25.8721  -26.3879   17.8611 C   0  0  0  0  0  0  0  0  0  0  0  0
  -29.1655  -26.7091   17.0261 C   0  0  0  0  0  0  0  0  0  0  0  0
  -27.2741  -20.4967   22.4166 C   0  0  0  0  0  0  0  0  0  0  0  0
  -18.4519  -26.9343   20.2015 C   0  0  0  0  0  0  0  0  0  0  0  0
  -24.6201  -29.0242   20.1185 C   0  0  0  0  0  0  0  0  0  0  0  0
  -26.6401  -26.8667   20.2162 C   0  0  0  0  0  0  0  0  0  0  0  0
  -19.5032  -26.3215   19.2797 C   0  0  0  0  0  0  0  0  0  0  0  0
  -27.5242  -18.8576   19.2657 C   0  0  0  0  0  0  0  0  0  0  0  0
  -20.5302  -25.5360   20.0891 C   0  0  0  0  0  0  0  0  0  0  0  0
  -26.7042  -17.5795   19.4558 C   0  0  0  0  0  0  0  0  0  0  0  0
  -28.2900  -19.2338   20.5329 C   0  0  0  0  0  0  0  0  0  0  0  0
  -26.6515  -18.0472   21.9388 C   0  0  0  0  0  0  0  0  0  0  0  0
  -21.2778  -26.4502   21.0673 C   0  0  1  0  0  0  0  0  0  0  0  0
  -24.4306  -27.7118   19.3640 C   0  0  1  0  0  0  0  0  0  0  0  0
  -25.8116  -17.6638   20.7095 C   0  0  2  0  0  0  0  0  0  0  0  0
  -24.2472  -20.0968   25.4182 C   0  0  0  0  0  0  0  0  0  0  0  0
  -30.7676  -26.3033   15.1377 C   0  0  0  0  0  0  0  0  0  0  0  0
  -25.8408  -23.4002   18.4797 C   0  0  0  0  0  0  0  0  0  0  0  0
  -28.0443  -23.2052   17.3072 C   0  0  0  0  0  0  0  0  0  0  0  0
  -26.0267  -23.9605   16.0495 C   0  0  0  0  0  0  0  0  0  0  0  0
  -29.8547  -29.5813   16.8399 C   0  0  0  0  0  0  0  0  0  0  0  0
  -28.9548  -27.3218   26.3504 C   0  0  0  0  0  0  0  0  0  0  0  0
  -29.4396  -25.9632   26.8283 C   0  0  0  0  0  0  0  0  0  0  0  0
  -28.6497  -27.3442   24.8580 C   0  0  0  0  0  0  0  0  0  1  0  0
  -27.1012  -25.5224   17.7222 C   0  0  1  0  0  0  0  0  0  0  0  0
  -29.8415  -27.3077   15.8058 C   0  0  2  0  0  0  0  0  0  0  0  0
  -26.7500  -24.0400   17.4116 C   0  0  0  0  0  0  0  0  0  0  0  0
  -25.5822  -15.2129   20.5628 N   0  0  0  0  0  0  0  0  0  0  0  0
  -25.0309  -16.3819   20.9311 N   0  0  0  0  0  0  0  0  0  0  0  0
  -25.6962  -27.0253   19.0975 N   0  0  0  0  0  0  0  0  0  0  0  0
  -27.3795  -19.2990   21.6782 N   0  0  0  0  0  0  0  0  0  0  0  0
  -23.0919  -17.3322   21.9046 N   0  0  0  0  0  0  0  0  0  0  0  0
  -29.9023  -23.1534   26.3757 N   0  0  0  0  0  0  0  0  0  0  0  0
  -22.1775  -12.9097   21.8654 N   0  0  0  0  0  0  0  0  0  0  0  0
  -26.3531  -20.4499   23.4626 N   0  0  0  0  0  0  0  0  0  0  0  0
  -22.2846  -27.2210   20.3697 N   0  0  0  0  0  0  0  0  0  0  0  0
  -27.9390  -26.1620   16.7136 N   0  0  0  0  0  0  0  0  0  0  0  0
  -28.4060  -24.9594   26.5742 N   0  3  0  0  0  0  0  0  0  0  0  0
  -30.6443  -28.5024   16.1921 N   0  3  0  0  0  0  0  0  0  0  0  0
  -21.3572  -14.9757   22.4288 O   0  0  0  0  0  0  0  0  0  0  0  0
  -23.9907  -25.6365   20.4007 O   0  0  0  0  0  0  0  0  0  0  0  0
  -25.1005  -26.5003   16.9053 O   0  0  0  0  0  0  0  0  0  0  0  0
  -29.6762  -26.7220   18.1439 O   0  0  0  0  0  0  0  0  0  0  0  0
  -27.9310  -21.4992   22.1243 O   0  0  0  0  0  0  0  0  0  0  0  0
  -25.5080   -8.8749   19.9515 O   0  0  0  0  0  0  0  0  0  0  0  0
  -28.1880  -28.6469   24.5025 O   0  0  0  0  0  0  0  0  0  1  0  0
  -24.2190   -5.3370   23.9796 F   0  0  0  0  0  0  0  0  0  0  0  0
  -22.9214   -8.6996   20.9113 F   0  0  0  0  0  0  0  0  0  0  0  0
  1  2  1  0  0  0  0
  1  6  2  0  0  0  0
  2  7  2  0  0  0  0
  3 10  2  0  0  0  0
  3 18  1  0  0  0  0
  4 11  1  0  0  0  0
  4 18  2  0  0  0  0
  5  9  2  0  0  0  0
  5 19  1  0  0  0  0
  6 21  1  0  0  0  0
  7 23  1  0  0  0  0
  8 12  2  0  0  0  0
  8 22  1  0  0  0  0
  9 25  1  0  0  0  0
 10 27  1  0  0  0  0
 11 27  2  0  0  0  0
 12 28  1  0  0  0  0
 13 14  2  0  0  0  0
 13 29  1  0  0  0  0
 14 30  1  0  0  0  0
 15 19  2  0  0  0  0
 15 26  1  0  0  0  0
 16 24  1  0  0  0  0
 16 28  2  0  0  0  0
 17 30  2  0  0  0  0
 17 31  1  0  0  0  0
 18 32  1  0  0  0  0
 19 34  1  0  0  0  0
 20 32  1  0  0  0  0
 20 33  2  0  0  0  0
 20 35  1  0  0  0  0
 21 23  2  0  0  0  0
 21 40  1  0  0  0  0
 22 24  2  0  0  0  0
 22 41  1  0  0  0  0
 23 49  1  0  0  0  0
 24 42  1  0  0  0  0
 25 26  2  0  0  0  0
 25 52  1  0  0  0  0
 26 71  1  0  0  0  0
 27 81  1  0  0  0  0
 28 82  1  0  0  0  0
 29 31  2  0  0  0  0
 29 81  1  0  0  0  0
 30 83  1  0  0  0  0
 31 84  1  0  0  0  0
 32 64  2  0  0  0  0
 33 65  1  0  0  0  0
 33 68  1  0  0  0  0
 34 69  1  0  0  0  0
 34 74  2  0  0  0  0
 35 70  1  0  0  0  0
 35 76  2  0  0  0  0
 36 50  1  0  0  0  0
 36 72  1  0  0  0  0
 36 77  2  0  0  0  0
 37 61  1  0  0  0  0
 37 66  1  0  0  0  0
 37 78  2  0  0  0  0
 38 62  1  0  0  0  0
 38 73  1  0  0  0  0
 38 79  2  0  0  0  0
 39 67  1  0  0  0  0
 39 71  1  0  0  0  0
 39 80  2  0  0  0  0
 40 43  1  0  0  0  0
 41 50  1  0  0  0  0
 42 66  1  0  0  0  0
 43 45  1  0  0  0  0
 44 46  1  0  0  0  0
 44 47  1  0  0  0  0
 45 49  1  0  0  0  0
 46 51  1  0  0  0  0
 47 67  1  0  0  0  0
 48 51  1  0  0  0  0
 48 67  1  0  0  0  0
 49 72  1  0  0  0  0
 50 66  1  0  0  0  0
 51 65  1  0  0  0  0
 53 62  1  0  0  0  0
 54 63  1  0  0  0  0
 55 63  1  0  0  0  0
 56 63  1  0  0  0  0
 57 75  1  0  0  0  0
 58 59  1  0  0  0  0
 58 60  1  0  0  0  0
 59 74  1  0  0  0  0
 60 82  1  0  0  0  0
 61 63  1  0  0  0  0
 61 73  1  0  0  0  0
 62 75  1  0  0  0  0
 64 65  1  0  0  0  0
M  CHG  2  74   1  75   1
M  ISO  4  39 100  60 101  71 100  82 101
M  END
> <Batch ID>
0046

> <Smiles>
CNC(C)C(=O)NC(C(=O)N1Cc2cc([101O:1][101CH2:1]CCNC(=N)c3ccc(C)c([100NH:0][100C:0](=O)N4CCCC(n5nc(-c6ccc(Oc7ccc(F)cc7F)cc6)c(C(N)=O)c5N)C4)c3)ccc2CC1C(=O)NC1CCCc2ccccc21)C(C)(C)C

> <Shape>
0.187

> <Color>
0.068

> <Negative vol penalty>
0.000

$$$$

  -OEChem-04042322233D

 87 96  0     1  0  0  0  0  0999 V2000
  -17.4811  -26.7322   21.9157 C   0  0  0  0  0  0  0  0  0  0  0  0
  -18.7582  -26.1844   21.8506 C   0  0  0  0  0  0  0  0  0  0  0  0
  -23.3186   -8.7681   20.2417 C   0  0  0  0  0  0  0  0  0  0  0  0
  -23.4262  -10.4879   21.9352 C   0  0  0  0  0  0  0  0  0  0  0  0
  -17.3199  -28.0934   22.1707 C   0  0  0  0  0  0  0  0  0  0  0  0
  -19.8750  -26.9977   22.0394 C   0  0  0  0  0  0  0  0  0  0  0  0
  -23.3198  -24.8894   25.0945 C   0  0  0  0  0  0  0  0  0  0  0  0
  -22.5371   -7.9827   21.0890 C   0  0  0  0  0  0  0  0  0  0  0  0
  -22.6447   -9.7025   22.7825 C   0  0  0  0  0  0  0  0  0  0  0  0
  -24.1393  -23.9040   24.5458 C   0  0  0  0  0  0  0  0  0  0  0  0
  -23.0154   -5.9574   23.7524 C   0  0  0  0  0  0  0  0  0  0  0  0
  -23.3370   -4.6045   23.8606 C   0  0  0  0  0  0  0  0  0  0  0  0
  -25.9053  -25.5264   24.2848 C   0  0  0  0  0  0  0  0  0  0  0  0
  -27.5263  -18.2234   23.8201 C   0  0  0  0  0  0  0  0  0  0  0  0
  -29.8721  -16.8757   23.1392 C   0  0  0  0  0  0  0  0  0  0  0  0
  -21.1376   -4.0170   23.0514 C   0  0  0  0  0  0  0  0  0  0  0  0
  -23.7632  -10.0207   20.6648 C   0  0  0  0  0  0  0  0  0  0  0  0
  -24.2193  -11.3199   18.5173 C   0  0  0  0  0  0  0  0  0  0  0  0
  -18.4350  -28.9221   22.3723 C   0  0  0  0  0  0  0  0  0  0  0  0
  -23.7840  -26.2055   25.2326 C   0  0  0  0  0  0  0  0  0  0  0  0
  -19.7286  -28.3716   22.2960 C   0  0  0  0  0  0  0  0  0  0  0  0
  -25.0907  -26.5261   24.8379 C   0  0  0  0  0  0  0  0  0  0  0  0
  -28.7233  -18.5384   24.4632 C   0  0  0  0  0  0  0  0  0  0  0  0
  -28.6751  -16.5607   22.4962 C   0  0  0  0  0  0  0  0  0  0  0  0
  -22.2001   -8.4498   22.3594 C   0  0  0  0  0  0  0  0  0  0  0  0
  -25.4313  -24.2230   24.1382 C   0  0  0  0  0  0  0  0  0  0  0  0
  -21.7548   -6.3402   23.2939 C   0  0  0  0  0  0  0  0  0  0  0  0
  -22.3982   -3.6342   23.5101 C   0  0  0  0  0  0  0  0  0  0  0  0
  -27.5021  -17.2345   22.8367 C   0  0  0  0  0  0  0  0  0  0  0  0
  -29.8962  -17.8646   24.1227 C   0  0  0  0  0  0  0  0  0  0  0  0
  -20.8160   -5.3699   22.9433 C   0  0  0  0  0  0  0  0  0  0  0  0
  -24.5710  -10.8323   19.7902 C   0  0  0  0  0  0  0  0  0  0  0  0
  -25.3205  -12.0298   18.1052 C   0  0  0  0  0  0  0  0  0  0  0  0
  -27.4299  -21.5516   24.7815 C   0  0  0  0  0  0  0  0  0  0  0  0
  -23.0056  -11.1467   17.7739 C   0  0  0  0  0  0  0  0  0  0  0  0
  -22.9069  -29.0278   24.0625 C   0  0  0  0  0  0  0  0  0  0  0  0
  -25.1811  -30.1384   26.0915 C   0  0  0  0  0  0  0  0  0  0  0  0
  -28.5061  -29.1708   27.1043 C   0  0  0  0  0  0  0  0  0  0  0  0
  -29.7293  -14.7939   21.0425 C   0  0  0  0  0  0  0  0  0  0  0  0
  -18.2123  -30.3965   22.5981 C   0  0  0  0  0  0  0  0  0  0  0  0
  -22.8968  -27.2509   25.8510 C   0  0  0  0  0  0  0  0  0  0  0  0
  -25.6437  -27.9195   24.9835 C   0  0  0  0  0  0  0  0  0  0  0  0
  -19.4351  -31.1184   23.1583 C   0  0  0  0  0  0  0  0  0  0  0  0
  -29.9029  -22.9237   24.0145 C   0  0  0  0  0  0  0  0  0  0  0  0
  -30.0777  -12.1994   18.6291 C   0  0  0  0  0  0  0  0  0  0  0  0
  -20.6899  -30.7196   22.3879 C   0  0  0  0  0  0  0  0  0  0  0  0
  -28.5997  -23.2834   23.3320 C   0  0  0  0  0  0  0  0  0  0  0  0
  -28.6717  -11.6027   18.5326 C   0  0  0  0  0  0  0  0  0  0  0  0
  -29.9124  -21.4429   24.3490 C   0  0  0  0  0  0  0  0  0  0  0  0
  -30.4190  -12.6191   20.0578 C   0  0  0  0  0  0  0  0  0  0  0  0
  -28.0332  -12.9120   20.5979 C   0  0  0  0  0  0  0  0  0  0  0  0
  -20.9639  -29.2166   22.5199 C   0  0  1  0  0  0  0  0  0  0  0  0
  -27.4502  -22.9883   24.2753 C   0  0  1  0  0  0  0  0  0  1  0  0
  -23.2949  -28.6736   25.4703 C   0  0  1  0  0  0  0  0  0  0  0  0
  -27.6196  -12.5341   19.1662 C   0  0  2  0  0  0  0  0  0  0  0  0
  -29.7495  -29.5973   29.2419 C   0  0  0  0  0  0  0  0  0  0  0  0
  -26.3069  -32.5596   24.6149 C   0  0  0  0  0  0  0  0  0  0  0  0
  -28.5097  -32.1230   25.7218 C   0  0  0  0  0  0  0  0  0  0  0  0
  -26.5075  -32.6705   27.1053 C   0  0  0  0  0  0  0  0  0  0  0  0
  -29.0136  -26.2850   27.5205 C   0  0  0  0  0  0  0  0  0  0  0  0
  -28.7459  -19.6038   25.5208 C   0  0  0  0  0  0  0  0  0  0  0  0
  -26.6637  -30.4055   25.9928 C   0  0  1  0  0  0  0  0  0  0  0  0
  -28.9165  -28.6012   28.4502 C   0  0  2  0  0  0  0  0  0  0  0  0
  -26.9844  -31.9195   25.8430 C   0  0  0  0  0  0  0  0  0  0  0  0
  -25.7997  -11.2011   20.1622 N   0  0  0  0  0  0  0  0  0  0  0  0
  -26.2296  -11.9279   19.1168 N   0  0  0  0  0  0  0  0  0  0  0  0
  -28.6746  -20.9416   24.9485 N   0  0  0  0  0  0  0  0  0  0  0  0
  -24.7355  -28.9081   25.5879 N   0  0  0  0  0  0  0  0  0  0  0  0
  -29.3805  -13.5034   20.5910 N   0  0  0  0  0  0  0  0  0  0  0  0
  -25.5902  -12.7248   16.9798 N   0  0  0  0  0  0  0  0  0  0  0  0
  -21.9747  -10.3881   18.3450 N   0  0  0  0  0  0  0  0  0  0  0  0
  -28.6536  -15.5559   21.4974 N   0  0  0  0  0  0  0  0  0  0  0  0
  -21.5528  -28.9215   23.8085 N   0  0  0  0  0  0  0  0  0  0  0  0
  -27.2701  -29.7791   27.1626 N   0  0  0  0  0  0  0  0  0  0  0  0
  -29.7198  -27.3598   28.2641 N   0  3  0  0  0  0  0  0  0  0  0  0
  -26.3569  -21.0196   25.0780 O   0  0  0  0  0  0  0  0  0  0  0  0
  -22.8463  -11.6361   16.6299 O   0  0  0  0  0  0  0  0  0  0  0  0
  -23.7719  -29.3734   23.2662 O   0  0  0  0  0  0  0  0  0  0  0  0
  -24.4465  -30.9870   26.6033 O   0  0  0  0  0  0  0  0  0  0  0  0
  -29.2131  -29.0880   26.1023 O   0  0  0  0  0  0  0  0  0  0  0  0
  -30.8923  -15.2035   21.0013 O   0  0  0  0  0  0  0  0  0  0  0  0
  -21.4373   -7.6838   23.1863 O   0  0  0  0  0  0  0  0  0  0  0  0
  -26.2330  -23.2631   23.6017 O   0  0  0  0  0  0  0  0  0  1  0  0
  -22.7077   -2.3351   23.6125 F   0  0  0  0  0  0  0  0  0  0  0  0
  -26.3459  -16.9398   22.2251 F   0  0  0  0  0  0  0  0  0  0  0  0
  -31.0510  -18.1603   24.7352 F   0  0  0  0  0  0  0  0  0  0  0  0
  -19.6038   -5.7315   22.5010 F   0  0  0  0  0  0  0  0  0  0  0  0
  1  2  1  0  0  0  0
  1  5  2  0  0  0  0
  2  6  2  0  0  0  0
  3  8  2  0  0  0  0
  3 17  1  0  0  0  0
  4  9  1  0  0  0  0
  4 17  2  0  0  0  0
  5 19  1  0  0  0  0
  6 21  1  0  0  0  0
  7 10  2  0  0  0  0
  7 20  1  0  0  0  0
  8 25  1  0  0  0  0
  9 25  2  0  0  0  0
 10 26  1  0  0  0  0
 11 12  2  0  0  0  0
 11 27  1  0  0  0  0
 12 28  1  0  0  0  0
 13 22  1  0  0  0  0
 13 26  2  0  0  0  0
 14 23  1  0  0  0  0
 14 29  2  0  0  0  0
 15 24  2  0  0  0  0
 15 30  1  0  0  0  0
 16 28  2  0  0  0  0
 16 31  1  0  0  0  0
 17 32  1  0  0  0  0
 18 32  1  0  0  0  0
 18 33  2  0  0  0  0
 18 35  1  0  0  0  0
 19 21  2  0  0  0  0
 19 40  1  0  0  0  0
 20 22  2  0  0  0  0
 20 41  1  0  0  0  0
 21 52  1  0  0  0  0
 22 42  1  0  0  0  0
 23 30  2  0  0  0  0
 23 61  1  0  0  0  0
 24 29  1  0  0  0  0
 24 72  1  0  0  0  0
 25 82  1  0  0  0  0
 26 83  1  0  0  0  0
 27 31  2  0  0  0  0
 27 82  1  0  0  0  0
 28 84  1  0  0  0  0
 29 85  1  0  0  0  0
 30 86  1  0  0  0  0
 31 87  1  0  0  0  0
 32 65  2  0  0  0  0
 33 66  1  0  0  0  0
 33 70  1  0  0  0  0
 34 53  1  0  0  0  0
 34 67  1  0  0  0  0
 34 76  2  0  0  0  0
 35 71  1  0  0  0  0
 35 77  2  0  0  0  0
 36 54  1  0  0  0  0
 36 73  1  0  0  0  0
 36 78  2  0  0  0  0
 37 62  1  0  0  0  0
 37 68  1  0  0  0  0
 37 79  2  0  0  0  0
 38 63  1  0  0  0  0
 38 74  1  0  0  0  0
 38 80  2  0  0  0  0
 39 69  1  0  0  0  0
 39 72  1  0  0  0  0
 39 81  2  0  0  0  0
 40 43  1  0  0  0  0
 41 54  1  0  0  0  0
 42 68  1  0  0  0  0
 43 46  1  0  0  0  0
 44 47  1  0  0  0  0
 44 49  1  0  0  0  0
 45 48  1  0  0  0  0
 45 50  1  0  0  0  0
 46 52  1  0  0  0  0
 47 53  1  0  0  0  0
 48 55  1  0  0  0  0
 49 67  1  0  0  0  0
 50 69  1  0  0  0  0
 51 55  1  0  0  0  0
 51 69  1  0  0  0  0
 52 73  1  0  0  0  0
 53 83  1  0  0  0  0
 54 68  1  0  0  0  0
 55 66  1  0  0  0  0
 56 63  1  0  0  0  0
 57 64  1  0  0  0  0
 58 64  1  0  0  0  0
 59 64  1  0  0  0  0
 60 75  1  0  0  0  0
 61 67  1  0  0  0  0
 62 64  1  0  0  0  0
 62 74  1  0  0  0  0
 63 75  1  0  0  0  0
 65 66  1  0  0  0  0
M  CHG  1  75   1
M  ISO  4  39 100  53 101  72 100  83 101
M  END
> <Batch ID>
0046

> <Smiles>
CNC(C)C(=O)NC(C(=O)N1Cc2cc([101O:1][101CH:1]3CCCN(Cc4cc(F)c([100NH:0][100C:0](=O)N5CCCC(n6nc(-c7ccc(Oc8ccc(F)cc8F)cc7)c(C(N)=O)c6N)C5)cc4F)C3=O)ccc2CC1C(=O)NC1CCCc2ccccc21)C(C)(C)C

> <Shape>
0.237

> <Color>
0.097

> <Negative vol penalty>
0.000

$$$$

  -OEChem-04042322233D

 86 94  0     1  0  0  0  0  0999 V2000
  -31.8592  -17.9499   24.1335 C   0  0  0  0  0  0  0  0  0  0  0  0
  -30.7054  -18.7168   24.0061 C   0  0  0  0  0  0  0  0  0  0  0  0
  -17.5362  -27.7799   23.9968 C   0  0  0  0  0  0  0  0  0  0  0  0
  -28.9062  -26.1254   20.1412 C   0  0  0  0  0  0  0  0  0  0  0  0
  -26.9507  -25.7611   18.7700 C   0  0  0  0  0  0  0  0  0  0  0  0
  -17.7413  -26.5032   23.4739 C   0  0  0  0  0  0  0  0  0  0  0  0
  -31.9707  -16.7413   23.4475 C   0  0  0  0  0  0  0  0  0  0  0  0
  -29.6630  -18.2760   23.1916 C   0  0  0  0  0  0  0  0  0  0  0  0
  -23.6649  -19.0818   24.1294 C   0  0  0  0  0  0  0  0  0  0  0  0
  -18.2887  -28.8557   23.5256 C   0  0  0  0  0  0  0  0  0  0  0  0
  -29.3411  -24.8292   19.8654 C   0  0  0  0  0  0  0  0  0  0  0  0
  -27.3856  -24.4648   18.4941 C   0  0  0  0  0  0  0  0  0  0  0  0
  -22.7519  -20.0053   23.6220 C   0  0  0  0  0  0  0  0  0  0  0  0
  -27.7985  -20.9381   17.7188 C   0  0  0  0  0  0  0  0  0  0  0  0
  -26.8588  -19.9098   17.7910 C   0  0  0  0  0  0  0  0  0  0  0  0
  -22.0893  -18.4138   21.9345 C   0  0  0  0  0  0  0  0  0  0  0  0
  -26.4668  -20.4314   20.1172 C   0  0  0  0  0  0  0  0  0  0  0  0
  -27.7109  -26.5914   19.5936 C   0  0  0  0  0  0  0  0  0  0  0  0
  -18.6991  -26.3022   22.4799 C   0  0  0  0  0  0  0  0  0  0  0  0
  -27.5537  -29.0987   19.1501 C   0  0  0  0  0  0  0  0  0  0  0  0
  -30.9252  -16.2807   22.6318 C   0  0  0  0  0  0  0  0  0  0  0  0
  -23.8050  -17.8193   23.5355 C   0  0  0  0  0  0  0  0  0  0  0  0
  -29.7612  -17.0607   22.4929 C   0  0  0  0  0  0  0  0  0  0  0  0
  -23.0030  -17.4752   22.4379 C   0  0  0  0  0  0  0  0  0  0  0  0
  -19.2465  -28.6548   22.5317 C   0  0  0  0  0  0  0  0  0  0  0  0
  -28.5808  -23.9989   19.0419 C   0  0  0  0  0  0  0  0  0  0  0  0
  -21.9660  -19.6724   22.5226 C   0  0  0  0  0  0  0  0  0  0  0  0
  -28.0724  -21.7130   18.8458 C   0  0  0  0  0  0  0  0  0  0  0  0
  -26.1929  -19.6565   18.9902 C   0  0  0  0  0  0  0  0  0  0  0  0
  -27.4065  -21.4596   20.0450 C   0  0  0  0  0  0  0  0  0  0  0  0
  -19.4516  -27.3780   22.0088 C   0  0  0  0  0  0  0  0  0  0  0  0
  -27.2608  -27.9302   19.8786 C   0  0  0  0  0  0  0  0  0  0  0  0
  -26.8943  -30.0976   19.8237 C   0  0  0  0  0  0  0  0  0  0  0  0
  -18.8850  -24.9370   21.9530 C   0  0  0  0  0  0  0  0  0  0  0  0
  -28.3506  -29.2661   17.9700 C   0  0  0  0  0  0  0  0  0  0  0  0
  -26.1743  -16.2715   22.0883 C   0  0  0  0  0  0  0  0  0  0  0  0
  -24.0571  -13.8139   22.1033 C   0  0  0  0  0  0  0  0  0  0  0  0
  -19.9686  -22.7097   21.9938 C   0  0  0  0  0  0  0  0  0  0  0  0
  -20.8025  -12.7943   22.2255 C   0  0  0  0  0  0  0  0  0  0  0  0
  -22.0943  -30.1215   23.4029 C   0  0  0  0  0  0  0  0  0  0  0  0
  -31.1110  -14.9908   21.8726 C   0  0  0  0  0  0  0  0  0  0  0  0
  -24.7753  -16.8247   24.1114 C   0  0  0  0  0  0  0  0  0  0  0  0
  -23.1005  -16.1255   21.7766 C   0  0  0  0  0  0  0  0  0  0  0  0
  -29.8083  -14.4134   21.3249 C   0  0  0  0  0  0  0  0  0  0  0  0
  -25.3637  -31.2857   24.1982 C   0  0  0  0  0  0  0  0  0  0  0  0
  -28.9860  -15.5029   20.6441 C   0  0  0  0  0  0  0  0  0  0  0  0
  -26.2471  -30.6632   23.1156 C   0  0  0  0  0  0  0  0  0  0  0  0
  -24.2399  -30.3422   24.6212 C   0  0  0  0  0  0  0  0  0  0  0  0
  -24.2912  -29.2122   22.4317 C   0  0  0  0  0  0  0  0  0  0  0  0
  -28.5987  -16.6042   21.6384 C   0  0  1  0  0  0  0  0  0  0  0  0
  -25.2003  -15.7556   23.1095 C   0  0  1  0  0  0  0  0  0  0  0  0
  -25.4053  -30.1481   21.9327 C   0  0  2  0  0  0  0  0  0  0  0  0
  -19.3835  -10.7251   22.1811 C   0  0  0  0  0  0  0  0  0  0  0  0
  -24.5043  -13.5749   19.0944 C   0  0  0  0  0  0  0  0  0  0  0  0
  -22.4213  -12.1918   18.9652 C   0  0  0  0  0  0  0  0  0  0  0  0
  -24.3669  -11.3911   20.3054 C   0  0  0  0  0  0  0  0  0  0  0  0
  -20.6123  -24.4972   23.6712 C   0  0  0  0  0  0  0  0  0  0  0  0
  -19.7002  -13.3523   24.9149 C   0  0  0  0  0  0  0  0  0  0  0  0
  -20.0286  -29.8371   22.0572 C   0  0  0  0  0  0  0  0  0  0  0  0
  -20.9965  -21.8385   22.6780 C   0  0  0  0  0  0  0  0  0  1  0  0
  -22.9815  -13.3237   21.1643 C   0  0  1  0  0  0  0  0  0  0  0  0
  -20.1107  -11.7312   23.0595 C   0  0  2  0  0  0  0  0  0  0  0  0
  -23.5678  -12.6466   19.8934 C   0  0  0  0  0  0  0  0  0  0  0  0
  -26.4765  -28.1637   20.9342 N   0  0  0  0  0  0  0  0  0  0  0  0
  -26.2710  -29.4904   20.8740 N   0  0  0  0  0  0  0  0  0  0  0  0
  -24.0685  -15.1899   22.3725 N   0  0  0  0  0  0  0  0  0  0  0  0
  -23.4791  -29.8916   23.4533 N   0  0  0  0  0  0  0  0  0  0  0  0
  -26.7926  -31.4273   19.6142 N   0  0  0  0  0  0  0  0  0  0  0  0
  -28.9569  -28.1348   17.4071 N   0  0  0  0  0  0  0  0  0  0  0  0
  -27.4980  -16.1690   22.4712 N   0  0  0  0  0  0  0  0  0  0  0  0
  -22.1123  -12.4590   21.9550 N   0  0  0  0  0  0  0  0  0  0  0  0
  -21.4505  -29.6683   22.2580 N   0  0  0  0  0  0  0  0  0  0  0  0
  -19.7772  -24.0756   22.5148 N   0  0  0  0  0  0  0  0  0  0  0  0
  -18.1367  -24.6572   20.8824 N   0  3  0  0  0  0  0  0  0  0  0  0
  -19.1178  -12.3578   23.9775 N   0  3  0  0  0  0  0  0  0  0  0  0
  -28.5333  -30.3883   17.4400 O   0  0  0  0  0  0  0  0  0  0  0  0
  -25.7559  -16.7274   21.0305 O   0  0  0  0  0  0  0  0  0  0  0  0
  -24.8533  -13.0047   22.5859 O   0  0  0  0  0  0  0  0  0  0  0  0
  -19.3198  -22.3144   21.0303 O   0  0  0  0  0  0  0  0  0  0  0  0
  -20.2365  -13.8180   21.8484 O   0  0  0  0  0  0  0  0  0  0  0  0
  -21.4782  -30.6934   24.3087 O   0  0  0  0  0  0  0  0  0  0  0  0
  -29.0050  -22.7340   18.7723 O   0  0  0  0  0  0  0  0  0  0  0  0
  -21.0746  -20.5721   22.0249 O   0  0  0  0  0  0  0  0  0  1  0  0
  -25.2894  -18.6700   19.0589 F   0  0  0  0  0  0  0  0  0  0  0  0
  -27.6646  -22.2015   21.1308 F   0  0  0  0  0  0  0  0  0  0  0  0
  -20.6416  -27.1298   20.7746 Cl  0  0  0  0  0  0  0  0  0  0  0  0
  1  2  1  0  0  0  0
  1  7  2  0  0  0  0
  2  8  2  0  0  0  0
  3  6  2  0  0  0  0
  3 10  1  0  0  0  0
  4 11  2  0  0  0  0
  4 18  1  0  0  0  0
  5 12  1  0  0  0  0
  5 18  2  0  0  0  0
  6 19  1  0  0  0  0
  7 21  1  0  0  0  0
  8 23  1  0  0  0  0
  9 13  2  0  0  0  0
  9 22  1  0  0  0  0
 10 25  2  0  0  0  0
 11 26  1  0  0  0  0
 12 26  2  0  0  0  0
 13 27  1  0  0  0  0
 14 15  2  0  0  0  0
 14 28  1  0  0  0  0
 15 29  1  0  0  0  0
 16 24  1  0  0  0  0
 16 27  2  0  0  0  0
 17 29  2  0  0  0  0
 17 30  1  0  0  0  0
 18 32  1  0  0  0  0
 19 31  2  0  0  0  0
 19 34  1  0  0  0  0
 20 32  1  0  0  0  0
 20 33  2  0  0  0  0
 20 35  1  0  0  0  0
 21 23  2  0  0  0  0
 21 41  1  0  0  0  0
 22 24  2  0  0  0  0
 22 42  1  0  0  0  0
 23 50  1  0  0  0  0
 24 43  1  0  0  0  0
 25 31  1  0  0  0  0
 25 59  1  0  0  0  0
 26 82  1  0  0  0  0
 27 83  1  0  0  0  0
 28 30  2  0  0  0  0
 28 82  1  0  0  0  0
 29 84  1  0  0  0  0
 30 85  1  0  0  0  0
 31 86  1  0  0  0  0
 32 64  2  0  0  0  0
 33 65  1  0  0  0  0
 33 68  1  0  0  0  0
 34 73  1  0  0  0  0
 34 74  2  0  0  0  0
 35 69  1  0  0  0  0
 35 76  2  0  0  0  0
 36 51  1  0  0  0  0
 36 70  1  0  0  0  0
 36 77  2  0  0  0  0
 37 61  1  0  0  0  0
 37 66  1  0  0  0  0
 37 78  2  0  0  0  0
 38 60  1  0  0  0  0
 38 73  1  0  0  0  0
 38 79  2  0  0  0  0
 39 62  1  0  0  0  0
 39 71  1  0  0  0  0
 39 80  2  0  0  0  0
 40 67  1  0  0  0  0
 40 72  1  0  0  0  0
 40 81  2  0  0  0  0
 41 44  1  0  0  0  0
 42 51  1  0  0  0  0
 43 66  1  0  0  0  0
 44 46  1  0  0  0  0
 45 47  1  0  0  0  0
 45 48  1  0  0  0  0
 46 50  1  0  0  0  0
 47 52  1  0  0  0  0
 48 67  1  0  0  0  0
 49 52  1  0  0  0  0
 49 67  1  0  0  0  0
 50 70  1  0  0  0  0
 51 66  1  0  0  0  0
 52 65  1  0  0  0  0
 53 62  1  0  0  0  0
 54 63  1  0  0  0  0
 55 63  1  0  0  0  0
 56 63  1  0  0  0  0
 57 73  1  0  0  0  0
 58 75  1  0  0  0  0
 59 72  1  0  0  0  0
 60 83  1  0  0  0  0
 61 63  1  0  0  0  0
 61 71  1  0  0  0  0
 62 75  1  0  0  0  0
 64 65  1  0  0  0  0
M  CHG  2  74   1  75   1
M  ISO  4  40 100  60 101  72 100  83 101
M  END
> <Batch ID>
0046

> <Smiles>
CNC(C)C(=O)NC(C(=O)N1Cc2cc([101O:1][101CH2:1]C(=O)N(C)C(=N)c3cccc(C[100NH:0][100C:0](=O)N4CCCC(n5nc(-c6ccc(Oc7ccc(F)cc7F)cc6)c(C(N)=O)c5N)C4)c3Cl)ccc2CC1C(=O)NC1CCCc2ccccc21)C(C)(C)C

> <Shape>
0.222

> <Color>
0.066

> <Negative vol penalty>
0.000

$$$$

  -OEChem-04042322233D

 89 98  0     1  0  0  0  0  0999 V2000
  -28.2057  -34.6438   23.1317 C   0  0  0  0  0  0  0  0  0  0  0  0
  -28.3350  -33.2618   23.2250 C   0  0  0  0  0  0  0  0  0  0  0  0
  -23.8341   -9.3844   19.9434 C   0  0  0  0  0  0  0  0  0  0  0  0
  -23.0107  -10.0509   22.1148 C   0  0  0  0  0  0  0  0  0  0  0  0
  -26.9406  -35.2286   23.1699 C   0  0  0  0  0  0  0  0  0  0  0  0
  -27.1992  -32.4638   23.3576 C   0  0  0  0  0  0  0  0  0  0  0  0
  -27.3198  -28.3965   20.3430 C   0  0  0  0  0  0  0  0  0  0  0  0
  -23.1425   -8.1779   20.0515 C   0  0  0  0  0  0  0  0  0  0  0  0
  -22.3191   -8.8444   22.2229 C   0  0  0  0  0  0  0  0  0  0  0  0
  -28.1119  -27.3244   20.7515 C   0  0  0  0  0  0  0  0  0  0  0  0
  -23.0266   -5.6265   22.9815 C   0  0  0  0  0  0  0  0  0  0  0  0
  -23.1067   -4.9400   24.1930 C   0  0  0  0  0  0  0  0  0  0  0  0
  -26.1468  -26.1951   21.5776 C   0  0  0  0  0  0  0  0  0  0  0  0
  -26.9866  -19.7669   18.3806 C   0  0  0  0  0  0  0  0  0  0  0  0
  -27.9443  -17.9169   17.1570 C   0  0  0  0  0  0  0  0  0  0  0  0
  -20.7089   -5.1001   24.4421 C   0  0  0  0  0  0  0  0  0  0  0  0
  -23.7682  -10.3209   20.9751 C   0  0  0  0  0  0  0  0  0  0  0  0
  -25.8719  -11.7401   20.7143 C   0  0  0  0  0  0  0  0  0  0  0  0
  -25.7881  -34.4366   23.2934 C   0  0  0  0  0  0  0  0  0  0  0  0
  -25.9343  -28.3807   20.5589 C   0  0  0  0  0  0  0  0  0  0  0  0
  -25.9176  -33.0386   23.3988 C   0  0  0  0  0  0  0  0  0  0  0  0
  -25.3390  -27.2671   21.1686 C   0  0  0  0  0  0  0  0  0  0  0  0
  -28.1512  -20.5062   18.1744 C   0  0  0  0  0  0  0  0  0  0  0  0
  -29.2124  -19.9509   17.4595 C   0  0  0  0  0  0  0  0  0  0  0  0
  -26.8831  -18.4722   17.8720 C   0  0  0  0  0  0  0  0  0  0  0  0
  -22.3850   -7.9079   21.1912 C   0  0  0  0  0  0  0  0  0  0  0  0
  -27.5258  -26.2248   21.3716 C   0  0  0  0  0  0  0  0  0  0  0  0
  -21.7877   -6.0500   22.5003 C   0  0  0  0  0  0  0  0  0  0  0  0
  -21.9478   -4.6767   24.9233 C   0  0  0  0  0  0  0  0  0  0  0  0
  -20.6289   -5.7867   23.2306 C   0  0  0  0  0  0  0  0  0  0  0  0
  -29.1090  -18.6562   16.9508 C   0  0  0  0  0  0  0  0  0  0  0  0
  -24.4829  -11.5671   20.8643 C   0  0  0  0  0  0  0  0  0  0  0  0
  -26.0441  -13.1016   20.6566 C   0  0  0  0  0  0  0  0  0  0  0  0
  -29.1846  -23.3520   20.4298 C   0  0  0  0  0  0  0  0  0  0  0  0
  -32.5427  -24.1298   19.1637 C   0  0  0  0  0  0  0  0  0  0  0  0
  -30.3170  -24.0247   20.1662 C   0  0  0  0  0  0  0  0  0  0  0  0
  -31.4152  -23.4594   19.4258 C   0  0  0  0  0  0  0  0  0  0  0  0
  -26.9134  -10.7580   20.6341 C   0  0  0  0  0  0  0  0  0  0  0  0
  -23.9018  -30.1765   22.2165 C   0  0  0  0  0  0  0  0  0  0  0  0
  -21.6792  -28.3055   20.7737 C   0  0  0  0  0  0  0  0  0  0  0  0
  -21.2988  -24.8076   19.9754 C   0  0  0  0  0  0  0  0  0  0  0  0
  -24.5550  -18.1239   18.7693 C   0  0  0  0  0  0  0  0  0  0  0  0
  -24.4451  -35.1176   23.3777 C   0  0  0  0  0  0  0  0  0  0  0  0
  -25.0903  -29.5333   20.0882 C   0  0  0  0  0  0  0  0  0  0  0  0
  -23.8535  -27.1923   21.4052 C   0  0  0  0  0  0  0  0  0  0  0  0
  -23.2681  -34.1742   23.1433 C   0  0  0  0  0  0  0  0  0  0  0  0
  -22.8066  -16.8745   21.6081 C   0  0  0  0  0  0  0  0  0  0  0  0
  -27.4609  -21.5159   21.7999 C   0  0  0  0  0  0  0  0  0  0  0  0
  -23.4436  -32.8911   23.9494 C   0  0  0  0  0  0  0  0  0  0  0  0
  -27.6101  -22.9415   22.3195 C   0  0  0  0  0  0  0  0  0  0  0  0
  -23.2011  -15.3966   21.6553 C   0  0  0  0  0  0  0  0  0  0  0  0
  -22.6469  -17.3733   20.1731 C   0  0  0  0  0  0  0  0  0  0  0  0
  -24.1922  -15.6432   19.3437 C   0  0  0  0  0  0  0  0  0  0  0  0
  -28.7202  -21.0527   21.0748 C   0  0  0  0  0  0  0  0  0  0  0  0
  -24.7077  -32.1375   23.5187 C   0  0  1  0  0  0  0  0  0  0  0  0
  -28.0077  -23.9047   21.2020 C   0  0  1  0  0  0  0  0  0  1  0  0
  -23.7567  -29.6362   20.8220 C   0  0  1  0  0  0  0  0  0  0  0  0
  -24.4281  -15.1122   20.7670 C   0  0  2  0  0  0  0  0  0  0  0  0
  -30.4561  -20.7573   17.2481 C   0  0  0  0  0  0  0  0  0  0  0  0
  -19.9927  -23.6831   18.1514 C   0  0  0  0  0  0  0  0  0  0  0  0
  -19.4797  -28.0916   22.8777 C   0  0  0  0  0  0  0  0  0  0  0  0
  -18.9310  -25.8226   21.9727 C   0  0  0  0  0  0  0  0  0  0  0  0
  -18.6941  -27.8347   20.5174 C   0  0  0  0  0  0  0  0  0  0  0  0
  -23.6911  -23.3715   18.9886 C   0  0  0  0  0  0  0  0  0  0  0  0
  -28.2362  -21.8960   18.7334 C   0  0  0  0  0  0  0  0  0  0  0  0
  -21.0054  -26.9961   21.1061 C   0  0  1  0  0  0  0  0  0  0  0  0
  -21.3603  -24.1786   18.5952 C   0  0  2  0  0  0  0  0  0  0  0  0
  -19.5538  -27.1922   21.6276 C   0  0  0  0  0  0  0  0  0  0  0  0
  -23.8198  -12.7260   20.8998 N   0  0  0  0  0  0  0  0  0  0  0  0
  -24.7964  -13.6403   20.7714 N   0  0  0  0  0  0  0  0  0  0  0  0
  -23.0716  -28.3468   20.9327 N   0  0  0  0  0  0  0  0  0  0  0  0
  -23.8491  -17.0731   19.3924 N   0  0  0  0  0  0  0  0  0  0  0  0
  -27.1395  -13.8785   20.5194 N   0  0  0  0  0  0  0  0  0  0  0  0
  -27.5266  -10.3360   21.8217 N   0  0  0  0  0  0  0  0  0  0  0  0
  -25.6998  -17.7216   18.0821 N   0  0  0  0  0  0  0  0  0  0  0  0
  -24.4768  -31.4316   22.2766 N   0  0  0  0  0  0  0  0  0  0  0  0
  -21.1031  -26.1708   19.9071 N   0  0  0  0  0  0  0  0  0  0  0  0
  -29.1106  -21.9879   19.9536 N   0  3  1  0  0  0  0  0  0  0  0  0
  -22.3018  -23.0234   18.5938 N   0  3  0  0  0  0  0  0  0  0  0  0
  -27.3004  -10.2813   19.5403 O   0  0  0  0  0  0  0  0  0  0  0  0
  -23.5190  -29.5051   23.1674 O   0  0  0  0  0  0  0  0  0  0  0  0
  -20.9961  -29.2544   20.3805 O   0  0  0  0  0  0  0  0  0  0  0  0
  -21.4093  -24.1544   21.0106 O   0  0  0  0  0  0  0  0  0  0  0  0
  -24.1873  -19.2978   18.8629 O   0  0  0  0  0  0  0  0  0  0  0  0
  -21.7098   -6.7308   21.2969 O   0  0  0  0  0  0  0  0  0  0  0  0
  -28.2968  -25.1773   21.7719 O   0  0  0  0  0  0  0  0  0  1  0  0
  -22.0247   -4.0160   26.0859 F   0  0  0  0  0  0  0  0  0  0  0  0
  -19.4357   -6.1900   22.7728 F   0  0  0  0  0  0  0  0  0  0  0  0
  -30.3987  -17.9337   16.0586 Cl  0  0  0  0  0  0  0  0  0  0  0  0
  1  2  1  0  0  0  0
  1  5  2  0  0  0  0
  2  6  2  0  0  0  0
  3  8  2  0  0  0  0
  3 17  1  0  0  0  0
  4  9  1  0  0  0  0
  4 17  2  0  0  0  0
  5 19  1  0  0  0  0
  6 21  1  0  0  0  0
  7 10  2  0  0  0  0
  7 20  1  0  0  0  0
  8 26  1  0  0  0  0
  9 26  2  0  0  0  0
 10 27  1  0  0  0  0
 11 12  2  0  0  0  0
 11 28  1  0  0  0  0
 12 29  1  0  0  0  0
 13 22  1  0  0  0  0
 13 27  2  0  0  0  0
 14 23  1  0  0  0  0
 14 25  2  0  0  0  0
 15 25  1  0  0  0  0
 15 31  2  0  0  0  0
 16 29  2  0  0  0  0
 16 30  1  0  0  0  0
 17 32  1  0  0  0  0
 18 32  1  0  0  0  0
 18 33  2  0  0  0  0
 18 38  1  0  0  0  0
 19 21  2  0  0  0  0
 19 43  1  0  0  0  0
 20 22  2  0  0  0  0
 20 44  1  0  0  0  0
 21 55  1  0  0  0  0
 22 45  1  0  0  0  0
 23 24  2  0  0  0  0
 23 65  1  0  0  0  0
 24 31  1  0  0  0  0
 24 59  1  0  0  0  0
 25 75  1  0  0  0  0
 26 85  1  0  0  0  0
 27 86  1  0  0  0  0
 28 30  2  0  0  0  0
 28 85  1  0  0  0  0
 29 87  1  0  0  0  0
 30 88  1  0  0  0  0
 31 89  1  0  0  0  0
 32 69  2  0  0  0  0
 33 70  1  0  0  0  0
 33 73  1  0  0  0  0
 34 36  2  0  0  0  0
 34 56  1  0  0  0  0
 34 78  1  0  0  0  0
 35 37  2  0  0  0  0
 36 37  1  0  0  0  0
 38 74  1  0  0  0  0
 38 80  2  0  0  0  0
 39 57  1  0  0  0  0
 39 76  1  0  0  0  0
 39 81  2  0  0  0  0
 40 66  1  0  0  0  0
 40 71  1  0  0  0  0
 40 82  2  0  0  0  0
 41 67  1  0  0  0  0
 41 77  1  0  0  0  0
 41 83  2  0  0  0  0
 42 72  1  0  0  0  0
 42 75  1  0  0  0  0
 42 84  2  0  0  0  0
 43 46  1  0  0  0  0
 44 57  1  0  0  0  0
 45 71  1  0  0  0  0
 46 49  1  0  0  0  0
 47 51  1  0  0  0  0
 47 52  1  0  0  0  0
 48 50  1  0  0  0  0
 48 54  1  0  0  0  0
 49 55  1  0  0  0  0
 50 56  1  0  0  0  0
 51 58  1  0  0  0  0
 52 72  1  0  0  0  0
 53 58  1  0  0  0  0
 53 72  1  0  0  0  0
 54 78  1  0  0  0  0
 55 76  1  0  0  0  0
 56 86  1  0  0  0  0
 57 71  1  0  0  0  0
 58 70  1  0  0  0  0
 60 67  1  0  0  0  0
 61 68  1  0  0  0  0
 62 68  1  0  0  0  0
 63 68  1  0  0  0  0
 64 79  1  0  0  0  0
 65 78  1  0  0  0  0
 66 68  1  0  0  0  0
 66 77  1  0  0  0  0
 67 79  1  0  0  0  0
 69 70  1  0  0  0  0
M  CHG  2  78   1  79   1
M  ISO  4  42 100  56 101  75 100  86 101
M  END
> <Batch ID>
0046

> <Smiles>
C=CC=C1N(Cc2cc([100NH:0][100C:0](=O)N3CCCC(n4nc(-c5ccc(Oc6ccc(F)cc6F)cc5)c(C(N)=O)c4N)C3)cc(Cl)c2C)CCC[101CH:1]1[101O:1]c1ccc2c(c1)CN(C(=O)C(NC(=O)C(C)NC)C(C)(C)C)C(C(=O)NC1CCCc3ccccc31)C2

> <Shape>
0.293

> <Color>
0.087

> <Negative vol penalty>
0.000

$$$$

  -OEChem-04042322233D

 87 96  0     1  0  0  0  0  0999 V2000
  -16.5665  -29.6650   24.0760 C   0  0  0  0  0  0  0  0  0  0  0  0
  -17.0106  -28.6584   23.2246 C   0  0  0  0  0  0  0  0  0  0  0  0
  -26.6029  -25.1434   17.2807 C   0  0  0  0  0  0  0  0  0  0  0  0
  -26.8658  -12.8444   19.9154 C   0  0  0  0  0  0  0  0  0  0  0  0
  -25.0299  -13.3670   21.3965 C   0  0  0  0  0  0  0  0  0  0  0  0
  -17.3277  -30.8210   24.2435 C   0  0  0  0  0  0  0  0  0  0  0  0
  -18.2158  -28.8078   22.5393 C   0  0  0  0  0  0  0  0  0  0  0  0
  -23.5675  -24.0580   23.3699 C   0  0  0  0  0  0  0  0  0  0  0  0
  -26.2716  -24.1048   16.4107 C   0  0  0  0  0  0  0  0  0  0  0  0
  -27.7167  -25.0279   18.1126 C   0  0  0  0  0  0  0  0  0  0  0  0
  -26.6908  -11.4858   20.1779 C   0  0  0  0  0  0  0  0  0  0  0  0
  -24.8549  -12.0082   21.6589 C   0  0  0  0  0  0  0  0  0  0  0  0
  -24.5596  -23.0788   23.3136 C   0  0  0  0  0  0  0  0  0  0  0  0
  -23.4514   -9.3390   20.1339 C   0  0  0  0  0  0  0  0  0  0  0  0
  -22.1489   -8.8402   20.1198 C   0  0  0  0  0  0  0  0  0  0  0  0
  -25.8760  -24.4816   21.8482 C   0  0  0  0  0  0  0  0  0  0  0  0
  -28.1675  -22.8350   17.2044 C   0  0  0  0  0  0  0  0  0  0  0  0
  -22.3865   -8.1546   22.4243 C   0  0  0  0  0  0  0  0  0  0  0  0
  -26.0353  -13.7851   20.5247 C   0  0  0  0  0  0  0  0  0  0  0  0
  -27.3685  -15.9598   20.4969 C   0  0  0  0  0  0  0  0  0  0  0  0
  -18.5475  -30.9805   23.5673 C   0  0  0  0  0  0  0  0  0  0  0  0
  -23.7331  -25.2605   22.6770 C   0  0  0  0  0  0  0  0  0  0  0  0
  -18.9933  -29.9676   22.6968 C   0  0  0  0  0  0  0  0  0  0  0  0
  -24.8913  -25.4712   21.9108 C   0  0  0  0  0  0  0  0  0  0  0  0
  -27.0538  -22.9506   16.3725 C   0  0  0  0  0  0  0  0  0  0  0  0
  -28.4989  -23.8737   18.0745 C   0  0  0  0  0  0  0  0  0  0  0  0
  -25.6854  -11.0676   21.0496 C   0  0  0  0  0  0  0  0  0  0  0  0
  -25.7108  -23.2900   22.5544 C   0  0  0  0  0  0  0  0  0  0  0  0
  -24.2216   -9.2455   21.2931 C   0  0  0  0  0  0  0  0  0  0  0  0
  -21.6164   -8.2481   21.2650 C   0  0  0  0  0  0  0  0  0  0  0  0
  -23.6891   -8.6534   22.4383 C   0  0  0  0  0  0  0  0  0  0  0  0
  -26.2159  -15.1888   20.2545 C   0  0  0  0  0  0  0  0  0  0  0  0
  -27.0339  -17.2215   20.0694 C   0  0  0  0  0  0  0  0  0  0  0  0
  -30.5540  -23.7620   21.2286 C   0  0  0  0  0  0  0  0  0  0  0  0
  -31.2136  -24.9146   21.4380 C   0  0  0  0  0  0  0  0  0  0  0  0
  -28.6290  -15.5704   21.0583 C   0  0  0  0  0  0  0  0  0  0  0  0
  -22.3193  -28.6254   21.8083 C   0  0  0  0  0  0  0  0  0  0  0  0
  -25.3234  -29.0183   22.2894 C   0  0  0  0  0  0  0  0  0  0  0  0
  -28.5771  -29.0998   23.3111 C   0  0  0  0  0  0  0  0  0  0  0  0
  -24.7146  -20.6299   16.3080 C   0  0  0  0  0  0  0  0  0  0  0  0
  -19.3124  -32.2683   23.7437 C   0  0  0  0  0  0  0  0  0  0  0  0
  -22.6629  -26.3179   22.6594 C   0  0  0  0  0  0  0  0  0  0  0  0
  -25.0108  -26.7658   21.1541 C   0  0  0  0  0  0  0  0  0  0  0  0
  -31.0494  -22.4604   21.7970 C   0  0  0  0  0  0  0  0  0  0  0  0
  -20.7611  -32.1861   23.2696 C   0  0  0  0  0  0  0  0  0  0  0  0
  -30.3972  -22.1536   23.1438 C   0  0  0  0  0  0  0  0  0  0  0  0
  -22.5593  -19.1665   18.7348 C   0  0  0  0  0  0  0  0  0  0  0  0
  -20.8374  -31.5198   21.8995 C   0  0  0  0  0  0  0  0  0  0  0  0
  -23.4112  -18.0614   19.3616 C   0  0  0  0  0  0  0  0  0  0  0  0
  -28.9199  -21.7794   23.0622 C   0  0  0  0  0  0  0  0  0  0  0  0
  -22.8352  -19.3125   17.2399 C   0  0  0  0  0  0  0  0  0  0  0  0
  -25.1067  -18.3969   17.5147 C   0  0  0  0  0  0  0  0  0  0  0  0
  -28.3020  -22.8164   20.8157 C   0  0  0  0  0  0  0  0  0  0  0  0
  -20.3074  -30.0820   21.9550 C   0  0  1  0  0  0  0  0  0  0  0  0
  -23.2289  -27.7487   22.6179 C   0  0  1  0  0  0  0  0  0  0  0  0
  -24.9043  -18.2495   19.0324 C   0  0  2  0  0  0  0  0  0  0  0  0
  -28.0260  -22.7762   22.3198 C   0  0  1  0  0  0  0  0  0  1  0  0
  -30.5065  -30.6748   23.6176 C   0  0  0  0  0  0  0  0  0  0  0  0
  -25.7819  -29.0376   19.2739 C   0  0  0  0  0  0  0  0  0  0  0  0
  -28.1382  -29.7640   19.7083 C   0  0  0  0  0  0  0  0  0  0  0  0
  -26.2369  -31.2172   20.4127 C   0  0  0  0  0  0  0  0  0  0  0  0
  -28.7074  -28.5586   26.2178 C   0  0  0  0  0  0  0  0  0  0  0  0
  -26.6997  -21.8411   15.4409 C   0  0  0  0  0  0  0  0  0  0  0  0
  -29.6964  -23.7493   18.9697 C   0  0  0  0  0  0  0  0  0  0  0  0
  -26.7033  -29.0830   21.6853 C   0  0  1  0  0  0  0  0  0  0  0  0
  -29.3067  -30.0142   24.2785 C   0  0  2  0  0  0  0  0  0  0  0  0
  -26.7050  -29.7515   20.2815 C   0  0  0  0  0  0  0  0  0  0  0  0
  -25.2231  -15.9011   19.7149 N   0  0  0  0  0  0  0  0  0  0  0  0
  -25.7510  -17.1330   19.6149 N   0  0  0  0  0  0  0  0  0  0  0  0
  -24.5572  -27.8836   21.9962 N   0  0  0  0  0  0  0  0  0  0  0  0
  -24.2687  -19.4893   16.9959 N   0  0  0  0  0  0  0  0  0  0  0  0
  -27.7147  -18.3868   20.0418 N   0  0  0  0  0  0  0  0  0  0  0  0
  -28.7983  -15.6597   22.4467 N   0  0  0  0  0  0  0  0  0  0  0  0
  -21.2965  -29.2008   22.5378 N   0  0  0  0  0  0  0  0  0  0  0  0
  -27.5479  -29.7540   22.6676 N   0  0  0  0  0  0  0  0  0  0  0  0
  -26.0888  -20.7230   16.1246 N   0  0  0  0  0  0  0  0  0  0  0  0
  -29.3499  -23.8351   20.4362 N   0  3  2  0  0  0  0  0  0  0  0  0
  -29.7867  -29.2419   25.4593 N   0  3  0  0  0  0  0  0  0  0  0  0
  -29.5827  -15.1710   20.3480 O   0  0  0  0  0  0  0  0  0  0  0  0
  -22.5297  -28.7711   20.6099 O   0  0  0  0  0  0  0  0  0  0  0  0
  -24.9307  -29.9496   22.9977 O   0  0  0  0  0  0  0  0  0  0  0  0
  -28.8913  -27.9240   23.1403 O   0  0  0  0  0  0  0  0  0  0  0  0
  -23.9454  -21.5035   15.8929 O   0  0  0  0  0  0  0  0  0  0  0  0
  -25.5143   -9.7418   21.3058 O   0  0  0  0  0  0  0  0  0  0  0  0
  -26.6774  -22.3318   22.5075 O   0  0  0  0  0  0  0  0  0  1  0  0
  -20.3650   -7.7706   21.2518 F   0  0  0  0  0  0  0  0  0  0  0  0
  -24.4237   -8.5618   23.5554 F   0  0  0  0  0  0  0  0  0  0  0  0
  1  2  1  0  0  0  0
  1  6  2  0  0  0  0
  2  7  2  0  0  0  0
  3  9  1  0  0  0  0
  3 10  2  0  0  0  0
  4 11  2  0  0  0  0
  4 19  1  0  0  0  0
  5 12  1  0  0  0  0
  5 19  2  0  0  0  0
  6 21  1  0  0  0  0
  7 23  1  0  0  0  0
  8 13  2  0  0  0  0
  8 22  1  0  0  0  0
  9 25  2  0  0  0  0
 10 26  1  0  0  0  0
 11 27  1  0  0  0  0
 12 27  2  0  0  0  0
 13 28  1  0  0  0  0
 14 15  2  0  0  0  0
 14 29  1  0  0  0  0
 15 30  1  0  0  0  0
 16 24  1  0  0  0  0
 16 28  2  0  0  0  0
 17 25  1  0  0  0  0
 17 26  2  0  0  0  0
 18 30  2  0  0  0  0
 18 31  1  0  0  0  0
 19 32  1  0  0  0  0
 20 32  1  0  0  0  0
 20 33  2  0  0  0  0
 20 36  1  0  0  0  0
 21 23  2  0  0  0  0
 21 41  1  0  0  0  0
 22 24  2  0  0  0  0
 22 42  1  0  0  0  0
 23 54  1  0  0  0  0
 24 43  1  0  0  0  0
 25 63  1  0  0  0  0
 26 64  1  0  0  0  0
 27 84  1  0  0  0  0
 28 85  1  0  0  0  0
 29 31  2  0  0  0  0
 29 84  1  0  0  0  0
 30 86  1  0  0  0  0
 31 87  1  0  0  0  0
 32 68  2  0  0  0  0
 33 69  1  0  0  0  0
 33 72  1  0  0  0  0
 34 35  2  0  0  0  0
 34 44  1  0  0  0  0
 34 77  1  0  0  0  0
 36 73  1  0  0  0  0
 36 79  2  0  0  0  0
 37 55  1  0  0  0  0
 37 74  1  0  0  0  0
 37 80  2  0  0  0  0
 38 65  1  0  0  0  0
 38 70  1  0  0  0  0
 38 81  2  0  0  0  0
 39 66  1  0  0  0  0
 39 75  1  0  0  0  0
 39 82  2  0  0  0  0
 40 71  1  0  0  0  0
 40 76  1  0  0  0  0
 40 83  2  0  0  0  0
 41 45  1  0  0  0  0
 42 55  1  0  0  0  0
 43 70  1  0  0  0  0
 44 46  1  0  0  0  0
 45 48  1  0  0  0  0
 46 50  1  0  0  0  0
 47 49  1  0  0  0  0
 47 51  1  0  0  0  0
 48 54  1  0  0  0  0
 49 56  1  0  0  0  0
 50 57  1  0  0  0  0
 51 71  1  0  0  0  0
 52 56  1  0  0  0  0
 52 71  1  0  0  0  0
 53 57  1  0  0  0  0
 53 77  1  0  0  0  0
 54 74  1  0  0  0  0
 55 70  1  0  0  0  0
 56 69  1  0  0  0  0
 57 85  1  0  0  0  0
 58 66  1  0  0  0  0
 59 67  1  0  0  0  0
 60 67  1  0  0  0  0
 61 67  1  0  0  0  0
 62 78  1  0  0  0  0
 63 76  1  0  0  0  0
 64 77  1  0  0  0  0
 65 67  1  0  0  0  0
 65 75  1  0  0  0  0
 66 78  1  0  0  0  0
 68 69  1  0  0  0  0
M  CHG  2  77   1  78   1
M  ISO  4  40 100  57 101  76 100  85 101
M  END
> <Batch ID>
0046

> <Smiles>
C=C1CCC[101CH:1]([101O:1]c2ccc3c(c2)CN(C(=O)C(NC(=O)C(C)NC)C(C)(C)C)C(C(=O)NC2CCCc4ccccc42)C3)CN1Cc1cccc(C[100NH:0][100C:0](=O)N2CCCC(n3nc(-c4ccc(Oc5ccc(F)cc5F)cc4)c(C(N)=O)c3N)C2)c1

> <Shape>
0.220

> <Color>
0.067

> <Negative vol penalty>
0.000

$$$$

  -OEChem-04042322233D

 86 95  0     1  0  0  0  0  0999 V2000
  -22.0625   -8.3931   21.2595 C   0  0  0  0  0  0  0  0  0  0  0  0
  -22.5722   -9.0112   22.3957 C   0  0  0  0  0  0  0  0  0  0  0  0
  -19.8809  -28.4474   23.4468 C   0  0  0  0  0  0  0  0  0  0  0  0
  -21.1723  -26.5416   22.7139 C   0  0  0  0  0  0  0  0  0  0  0  0
  -22.6297   -8.6555   20.0142 C   0  0  0  0  0  0  0  0  0  0  0  0
  -23.6414   -9.9009   22.2856 C   0  0  0  0  0  0  0  0  0  0  0  0
  -29.1689  -16.0827   23.0823 C   0  0  0  0  0  0  0  0  0  0  0  0
  -30.7556  -25.1515   19.9902 C   0  0  0  0  0  0  0  0  0  0  0  0
  -30.0230  -26.2575   20.4211 C   0  0  0  0  0  0  0  0  0  0  0  0
  -18.7173  -27.8406   22.9744 C   0  0  0  0  0  0  0  0  0  0  0  0
  -20.0086  -25.9348   22.2415 C   0  0  0  0  0  0  0  0  0  0  0  0
  -29.9017  -16.8640   22.1900 C   0  0  0  0  0  0  0  0  0  0  0  0
  -17.3907  -24.2301   23.5304 C   0  0  0  0  0  0  0  0  0  0  0  0
  -17.1999  -22.8803   23.8255 C   0  0  0  0  0  0  0  0  0  0  0  0
  -27.9834  -16.9882   20.7326 C   0  0  0  0  0  0  0  0  0  0  0  0
  -29.6637  -23.7804   21.6530 C   0  0  0  0  0  0  0  0  0  0  0  0
  -17.1386  -22.3728   21.4642 C   0  0  0  0  0  0  0  0  0  0  0  0
  -21.1085  -27.7980   23.3165 C   0  0  0  0  0  0  0  0  0  0  0  0
  -22.5897  -28.8154   25.1272 C   0  0  0  0  0  0  0  0  0  0  0  0
  -23.7144   -9.5394   19.8913 C   0  0  0  0  0  0  0  0  0  0  0  0
  -27.8389  -15.7385   22.8008 C   0  0  0  0  0  0  0  0  0  0  0  0
  -24.2121  -10.1971   21.0346 C   0  0  0  0  0  0  0  0  0  0  0  0
  -27.2351  -16.2045   21.6242 C   0  0  0  0  0  0  0  0  0  0  0  0
  -30.5759  -23.9129   20.6061 C   0  0  0  0  0  0  0  0  0  0  0  0
  -29.1107  -26.1249   21.4679 C   0  0  0  0  0  0  0  0  0  0  0  0
  -18.7811  -26.5843   22.3718 C   0  0  0  0  0  0  0  0  0  0  0  0
  -29.3099  -17.3145   21.0135 C   0  0  0  0  0  0  0  0  0  0  0  0
  -17.4554  -24.6514   22.2022 C   0  0  0  0  0  0  0  0  0  0  0  0
  -17.0738  -21.9516   22.7924 C   0  0  0  0  0  0  0  0  0  0  0  0
  -17.3294  -23.7227   21.1691 C   0  0  0  0  0  0  0  0  0  0  0  0
  -28.9311  -24.8864   22.0839 C   0  0  0  0  0  0  0  0  0  0  0  0
  -22.3111  -28.4245   23.8038 C   0  0  0  0  0  0  0  0  0  0  0  0
  -23.8508  -29.3564   25.0671 C   0  0  0  0  0  0  0  0  0  0  0  0
  -30.5300  -20.4129   20.3385 C   0  0  0  0  0  0  0  0  0  0  0  0
  -21.7811  -28.6997   26.3054 C   0  0  0  0  0  0  0  0  0  0  0  0
  -26.2794  -13.0086   22.3325 C   0  0  0  0  0  0  0  0  0  0  0  0
  -23.6826  -14.9520   22.2872 C   0  0  0  0  0  0  0  0  0  0  0  0
  -22.8307  -18.1772   20.9124 C   0  0  0  0  0  0  0  0  0  0  0  0
  -28.4631  -28.5568   21.3533 C   0  0  0  0  0  0  0  0  0  0  0  0
  -24.2849   -9.7931   18.5182 C   0  0  0  0  0  0  0  0  0  0  0  0
  -27.0537  -14.9172   23.7863 C   0  0  0  0  0  0  0  0  0  0  0  0
  -25.8040  -15.8798   21.2850 C   0  0  0  0  0  0  0  0  0  0  0  0
  -25.6844  -10.3980   18.5583 C   0  0  0  0  0  0  0  0  0  0  0  0
  -28.7557  -20.8662   18.0508 C   0  0  0  0  0  0  0  0  0  0  0  0
  -26.8114  -31.6293   22.0666 C   0  0  0  0  0  0  0  0  0  0  0  0
  -25.7100  -11.5861   19.5083 C   0  0  0  0  0  0  0  0  0  0  0  0
  -29.2199  -19.4621   18.3769 C   0  0  0  0  0  0  0  0  0  0  0  0
  -25.4979  -31.1919   22.7190 C   0  0  0  0  0  0  0  0  0  0  0  0
  -29.8558  -21.8579   18.3842 C   0  0  0  0  0  0  0  0  0  0  0  0
  -27.2336  -30.6779   20.9483 C   0  0  0  0  0  0  0  0  0  0  0  0
  -25.9833  -28.8237   21.9818 C   0  0  0  0  0  0  0  0  0  0  0  0
  -25.3942  -11.1450   20.9431 C   0  0  1  0  0  0  0  0  0  0  0  0
  -29.5241  -19.3740   19.8595 C   0  0  1  0  0  0  0  0  0  1  0  0
  -25.8668  -14.1978   23.1531 C   0  0  1  0  0  0  0  0  0  0  0  0
  -25.5508  -29.7152   23.1573 C   0  0  2  0  0  0  0  0  0  0  0  0
  -21.1515  -19.8815   21.6693 C   0  0  0  0  0  0  0  0  0  0  0  0
  -21.8240  -13.5815   20.2929 C   0  0  0  0  0  0  0  0  0  0  0  0
  -20.9149  -15.8368   19.6965 C   0  0  0  0  0  0  0  0  0  0  0  0
  -20.6615  -14.9666   22.0206 C   0  0  0  0  0  0  0  0  0  0  0  0
  -24.8839  -20.3034   21.0631 C   0  0  0  0  0  0  0  0  0  0  0  0
  -31.3651  -22.7230   20.1420 C   0  0  0  0  0  0  0  0  0  0  0  0
  -22.9388  -15.7179   21.2198 C   0  0  1  0  0  0  0  0  0  0  0  0
  -22.6144  -19.4660   21.6848 C   0  0  2  0  0  0  0  0  0  0  0  0
  -21.6126  -15.0202   20.8052 C   0  0  0  0  0  0  0  0  0  0  0  0
  -23.3143  -28.6945   22.9643 N   0  0  0  0  0  0  0  0  0  0  0  0
  -24.2356  -29.2608   23.7621 N   0  0  0  0  0  0  0  0  0  0  0  0
  -30.5028  -21.6436   19.6798 N   0  0  0  0  0  0  0  0  0  0  0  0
  -25.0798  -15.0685   22.2775 N   0  0  0  0  0  0  0  0  0  0  0  0
  -27.2656  -29.2981   21.4380 N   0  0  0  0  0  0  0  0  0  0  0  0
  -24.6568  -29.8999   26.0037 N   0  0  0  0  0  0  0  0  0  0  0  0
  -20.5108  -28.1188   26.1896 N   0  0  0  0  0  0  0  0  0  0  0  0
  -28.3820  -27.2681   21.8800 N   0  0  0  0  0  0  0  0  0  0  0  0
  -25.2221  -12.3186   21.7707 N   0  0  0  0  0  0  0  0  0  0  0  0
  -22.7661  -17.0720   21.7344 N   0  0  0  0  0  0  0  0  0  0  0  0
  -23.4223  -20.5681   21.0903 N   0  3  0  0  0  0  0  0  0  0  0  0
  -31.2614  -20.1626   21.3001 O   0  0  0  0  0  0  0  0  0  0  0  0
  -22.1667  -29.1144   27.4247 O   0  0  0  0  0  0  0  0  0  0  0  0
  -27.4689  -12.7381   22.2163 O   0  0  0  0  0  0  0  0  0  0  0  0
  -23.0468  -14.2811   23.1041 O   0  0  0  0  0  0  0  0  0  0  0  0
  -23.0329  -18.1530   19.7003 O   0  0  0  0  0  0  0  0  0  0  0  0
  -29.4928  -29.0396   20.8752 O   0  0  0  0  0  0  0  0  0  0  0  0
  -17.6457  -25.9917   21.9109 O   0  0  0  0  0  0  0  0  0  0  0  0
  -30.0231  -18.0768   20.1405 O   0  0  0  0  0  0  0  0  0  1  0  0
  -16.8921  -20.6552   23.0759 F   0  0  0  0  0  0  0  0  0  0  0  0
  -17.3919  -24.1212   19.8912 F   0  0  0  0  0  0  0  0  0  0  0  0
  -27.8123  -24.6782   23.3839 Cl  0  0  0  0  0  0  0  0  0  0  0  0
  1  2  1  0  0  0  0
  1  5  2  0  0  0  0
  2  6  2  0  0  0  0
  3 10  2  0  0  0  0
  3 18  1  0  0  0  0
  4 11  1  0  0  0  0
  4 18  2  0  0  0  0
  5 20  1  0  0  0  0
  6 22  1  0  0  0  0
  7 12  2  0  0  0  0
  7 21  1  0  0  0  0
  8  9  2  0  0  0  0
  8 24  1  0  0  0  0
  9 25  1  0  0  0  0
 10 26  1  0  0  0  0
 11 26  2  0  0  0  0
 12 27  1  0  0  0  0
 13 14  2  0  0  0  0
 13 28  1  0  0  0  0
 14 29  1  0  0  0  0
 15 23  1  0  0  0  0
 15 27  2  0  0  0  0
 16 24  2  0  0  0  0
 16 31  1  0  0  0  0
 17 29  2  0  0  0  0
 17 30  1  0  0  0  0
 18 32  1  0  0  0  0
 19 32  1  0  0  0  0
 19 33  2  0  0  0  0
 19 35  1  0  0  0  0
 20 22  2  0  0  0  0
 20 40  1  0  0  0  0
 21 23  2  0  0  0  0
 21 41  1  0  0  0  0
 22 52  1  0  0  0  0
 23 42  1  0  0  0  0
 24 61  1  0  0  0  0
 25 31  2  0  0  0  0
 25 72  1  0  0  0  0
 26 82  1  0  0  0  0
 27 83  1  0  0  0  0
 28 30  2  0  0  0  0
 28 82  1  0  0  0  0
 29 84  1  0  0  0  0
 30 85  1  0  0  0  0
 31 86  1  0  0  0  0
 32 65  2  0  0  0  0
 33 66  1  0  0  0  0
 33 70  1  0  0  0  0
 34 53  1  0  0  0  0
 34 67  1  0  0  0  0
 34 76  2  0  0  0  0
 35 71  1  0  0  0  0
 35 77  2  0  0  0  0
 36 54  1  0  0  0  0
 36 73  1  0  0  0  0
 36 78  2  0  0  0  0
 37 62  1  0  0  0  0
 37 68  1  0  0  0  0
 37 79  2  0  0  0  0
 38 63  1  0  0  0  0
 38 74  1  0  0  0  0
 38 80  2  0  0  0  0
 39 69  1  0  0  0  0
 39 72  1  0  0  0  0
 39 81  2  0  0  0  0
 40 43  1  0  0  0  0
 41 54  1  0  0  0  0
 42 68  1  0  0  0  0
 43 46  1  0  0  0  0
 44 47  1  0  0  0  0
 44 49  1  0  0  0  0
 45 48  1  0  0  0  0
 45 50  1  0  0  0  0
 46 52  1  0  0  0  0
 47 53  1  0  0  0  0
 48 55  1  0  0  0  0
 49 67  1  0  0  0  0
 50 69  1  0  0  0  0
 51 55  1  0  0  0  0
 51 69  1  0  0  0  0
 52 73  1  0  0  0  0
 53 83  1  0  0  0  0
 54 68  1  0  0  0  0
 55 66  1  0  0  0  0
 56 63  1  0  0  0  0
 57 64  1  0  0  0  0
 58 64  1  0  0  0  0
 59 64  1  0  0  0  0
 60 75  1  0  0  0  0
 61 67  1  0  0  0  0
 62 64  1  0  0  0  0
 62 74  1  0  0  0  0
 63 75  1  0  0  0  0
 65 66  1  0  0  0  0
M  CHG  1  75   1
M  ISO  4  39 100  53 101  72 100  83 101
M  END
> <Batch ID>
0046

> <Smiles>
CNC(C)C(=O)NC(C(=O)N1Cc2cc([101O:1][101CH:1]3CCCN(Cc4ccc([100NH:0][100C:0](=O)N5CCCC(n6nc(-c7ccc(Oc8ccc(F)cc8F)cc7)c(C(N)=O)c6N)C5)c(Cl)c4)C3=O)ccc2CC1C(=O)NC1CCCc2ccccc21)C(C)(C)C

> <Shape>
0.232

> <Color>
0.060

> <Negative vol penalty>
0.000

$$$$

  -OEChem-04042322233D

 88 97  0     1  0  0  0  0  0999 V2000
  -30.2414  -35.3778   21.0028 C   0  0  0  0  0  0  0  0  0  0  0  0
  -30.1566  -33.9893   20.9836 C   0  0  0  0  0  0  0  0  0  0  0  0
  -22.9772  -11.8506   22.7678 C   0  0  0  0  0  0  0  0  0  0  0  0
  -24.2137   -9.8418   22.2456 C   0  0  0  0  0  0  0  0  0  0  0  0
  -29.3551  -36.1185   21.7836 C   0  0  0  0  0  0  0  0  0  0  0  0
  -29.1859  -33.3407   21.7462 C   0  0  0  0  0  0  0  0  0  0  0  0
  -26.8358  -29.6626   19.1783 C   0  0  0  0  0  0  0  0  0  0  0  0
  -30.3204  -20.0407   18.2138 C   0  0  0  0  0  0  0  0  0  0  0  0
  -30.2086  -18.6704   18.4493 C   0  0  0  0  0  0  0  0  0  0  0  0
  -22.3174  -11.1772   23.7959 C   0  0  0  0  0  0  0  0  0  0  0  0
  -23.5540   -9.1684   23.2737 C   0  0  0  0  0  0  0  0  0  0  0  0
  -27.5161  -28.4548   19.0300 C   0  0  0  0  0  0  0  0  0  0  0  0
  -20.5393   -7.7211   23.7713 C   0  0  0  0  0  0  0  0  0  0  0  0
  -20.0519   -6.4425   23.5005 C   0  0  0  0  0  0  0  0  0  0  0  0
  -26.2240  -27.5122   20.8359 C   0  0  0  0  0  0  0  0  0  0  0  0
  -28.0077  -20.1098   17.5180 C   0  0  0  0  0  0  0  0  0  0  0  0
  -21.4461   -5.5394   25.2548 C   0  0  0  0  0  0  0  0  0  0  0  0
  -23.9253  -11.1828   21.9926 C   0  0  0  0  0  0  0  0  0  0  0  0
  -24.0246  -12.4866   19.8022 C   0  0  0  0  0  0  0  0  0  0  0  0
  -28.3668  -35.4791   22.5486 C   0  0  0  0  0  0  0  0  0  0  0  0
  -25.8504  -29.8080   20.1653 C   0  0  0  0  0  0  0  0  0  0  0  0
  -28.2863  -34.0734   22.5390 C   0  0  0  0  0  0  0  0  0  0  0  0
  -25.5308  -28.7222   20.9930 C   0  0  0  0  0  0  0  0  0  0  0  0
  -29.2199  -20.7604   17.7482 C   0  0  0  0  0  0  0  0  0  0  0  0
  -27.8960  -18.7395   17.7535 C   0  0  0  0  0  0  0  0  0  0  0  0
  -28.9964  -18.0198   18.2192 C   0  0  0  0  0  0  0  0  0  0  0  0
  -22.6059   -9.8362   24.0489 C   0  0  0  0  0  0  0  0  0  0  0  0
  -27.2123  -27.3803   19.8608 C   0  0  0  0  0  0  0  0  0  0  0  0
  -21.4802   -7.9088   24.7839 C   0  0  0  0  0  0  0  0  0  0  0  0
  -20.5053   -5.3517   24.2422 C   0  0  0  0  0  0  0  0  0  0  0  0
  -21.9335   -6.8180   25.5257 C   0  0  0  0  0  0  0  0  0  0  0  0
  -24.6067  -11.8777   20.9301 C   0  0  0  0  0  0  0  0  0  0  0  0
  -25.0883  -13.0040   19.1041 C   0  0  0  0  0  0  0  0  0  0  0  0
  -29.9616  -24.3405   18.5180 C   0  0  0  0  0  0  0  0  0  0  0  0
  -33.2326  -23.7152   20.0651 C   0  0  0  0  0  0  0  0  0  0  0  0
  -31.2124  -24.5378   18.9613 C   0  0  0  0  0  0  0  0  0  0  0  0
  -31.9855  -23.5179   19.6234 C   0  0  0  0  0  0  0  0  0  0  0  0
  -22.6457  -12.5766   19.4198 C   0  0  0  0  0  0  0  0  0  0  0  0
  -25.4947  -31.6598   22.7243 C   0  0  0  0  0  0  0  0  0  0  0  0
  -22.5615  -30.2790   22.8335 C   0  0  0  0  0  0  0  0  0  0  0  0
  -21.1862  -26.9770   22.3621 C   0  0  0  0  0  0  0  0  0  0  0  0
  -29.9108  -15.7817   18.9273 C   0  0  0  0  0  0  0  0  0  0  0  0
  -27.4615  -36.3196   23.4138 C   0  0  0  0  0  0  0  0  0  0  0  0
  -25.1069  -31.1091   20.2948 C   0  0  0  0  0  0  0  0  0  0  0  0
  -24.4671  -28.8204   22.0547 C   0  0  0  0  0  0  0  0  0  0  0  0
  -29.1575  -25.4110   17.8262 C   0  0  0  0  0  0  0  0  0  0  0  0
  -26.2213  -35.5750   23.9012 C   0  0  0  0  0  0  0  0  0  0  0  0
  -30.0672  -12.3082   19.6936 C   0  0  0  0  0  0  0  0  0  0  0  0
  -26.6009  -34.1968   24.4336 C   0  0  0  0  0  0  0  0  0  0  0  0
  -28.6127  -11.9366   19.9908 C   0  0  0  0  0  0  0  0  0  0  0  0
  -27.1101  -24.1813   18.6601 C   0  0  0  0  0  0  0  0  0  0  0  0
  -30.4102  -13.7076   20.2014 C   0  0  0  0  0  0  0  0  0  0  0  0
  -28.0512  -14.4001   20.0448 C   0  0  0  0  0  0  0  0  0  0  0  0
  -28.0137  -23.2104   19.4188 C   0  0  0  0  0  0  0  0  0  0  0  0
  -27.2311  -33.3346   23.3332 C   0  0  1  0  0  0  0  0  0  0  0  0
  -24.4818  -31.3056   21.6725 C   0  0  1  0  0  0  0  0  0  0  0  0
  -27.6404  -13.0247   19.4944 C   0  0  2  0  0  0  0  0  0  0  0  0
  -27.7706  -25.5445   18.4554 C   0  0  1  0  0  0  0  0  0  1  0  0
  -26.5861  -18.0679   17.4954 C   0  0  0  0  0  0  0  0  0  0  0  0
  -18.8963  -26.2518   21.6353 C   0  0  0  0  0  0  0  0  0  0  0  0
  -21.9777  -30.1240   25.8243 C   0  0  0  0  0  0  0  0  0  0  0  0
  -20.6216  -28.0664   25.3821 C   0  0  0  0  0  0  0  0  0  0  0  0
  -19.9468  -30.2442   24.3699 C   0  0  0  0  0  0  0  0  0  0  0  0
  -22.2782  -25.3550   20.1405 C   0  0  0  0  0  0  0  0  0  0  0  0
  -29.3409  -22.2338   17.4927 C   0  0  0  0  0  0  0  0  0  0  0  0
  -21.9854  -29.0424   23.4799 C   0  0  1  0  0  0  0  0  0  0  0  0
  -20.3310  -26.5062   21.1996 C   0  0  2  0  0  0  0  0  0  0  0  0
  -21.1602  -29.3705   24.7562 C   0  0  0  0  0  0  0  0  0  0  0  0
  -25.9370  -11.9963   20.9512 N   0  0  0  0  0  0  0  0  0  0  0  0
  -26.1996  -12.6856   19.8278 N   0  0  0  0  0  0  0  0  0  0  0  0
  -23.7726  -30.1153   22.1463 N   0  0  0  0  0  0  0  0  0  0  0  0
  -29.4495  -14.6861   19.6872 N   0  0  0  0  0  0  0  0  0  0  0  0
  -25.1721  -13.6957   17.9478 N   0  0  0  0  0  0  0  0  0  0  0  0
  -21.6821  -11.9902   20.2516 N   0  0  0  0  0  0  0  0  0  0  0  0
  -28.9032  -16.6273   18.4644 N   0  0  0  0  0  0  0  0  0  0  0  0
  -26.2083  -32.8116   22.4530 N   0  0  0  0  0  0  0  0  0  0  0  0
  -21.2291  -28.3529   22.4402 N   0  0  0  0  0  0  0  0  0  0  0  0
  -29.3614  -23.0510   18.7548 N   0  3  1  0  0  0  0  0  0  0  0  0
  -20.8803  -25.2431   20.6306 N   0  3  0  0  0  0  0  0  0  0  0  0
  -22.2804  -13.1455   18.3632 O   0  0  0  0  0  0  0  0  0  0  0  0
  -25.6187  -30.9420   23.7098 O   0  0  0  0  0  0  0  0  0  0  0  0
  -21.9555  -31.3493   22.9285 O   0  0  0  0  0  0  0  0  0  0  0  0
  -21.7559  -26.2016   23.1268 O   0  0  0  0  0  0  0  0  0  0  0  0
  -31.1089  -15.9420   18.6806 O   0  0  0  0  0  0  0  0  0  0  0  0
  -21.9625   -9.1789   25.0521 O   0  0  0  0  0  0  0  0  0  0  0  0
  -27.8753  -26.2004   19.7186 O   0  0  0  0  0  0  0  0  0  1  0  0
  -20.0360   -4.1242   23.9830 F   0  0  0  0  0  0  0  0  0  0  0  0
  -22.8364   -6.9923   26.5005 F   0  0  0  0  0  0  0  0  0  0  0  0
  1  2  1  0  0  0  0
  1  5  2  0  0  0  0
  2  6  2  0  0  0  0
  3 10  2  0  0  0  0
  3 18  1  0  0  0  0
  4 11  1  0  0  0  0
  4 18  2  0  0  0  0
  5 20  1  0  0  0  0
  6 22  1  0  0  0  0
  7 12  2  0  0  0  0
  7 21  1  0  0  0  0
  8  9  2  0  0  0  0
  8 24  1  0  0  0  0
  9 26  1  0  0  0  0
 10 27  1  0  0  0  0
 11 27  2  0  0  0  0
 12 28  1  0  0  0  0
 13 14  2  0  0  0  0
 13 29  1  0  0  0  0
 14 30  1  0  0  0  0
 15 23  1  0  0  0  0
 15 28  2  0  0  0  0
 16 24  2  0  0  0  0
 16 25  1  0  0  0  0
 17 30  2  0  0  0  0
 17 31  1  0  0  0  0
 18 32  1  0  0  0  0
 19 32  1  0  0  0  0
 19 33  2  0  0  0  0
 19 38  1  0  0  0  0
 20 22  2  0  0  0  0
 20 43  1  0  0  0  0
 21 23  2  0  0  0  0
 21 44  1  0  0  0  0
 22 55  1  0  0  0  0
 23 45  1  0  0  0  0
 24 65  1  0  0  0  0
 25 26  2  0  0  0  0
 25 59  1  0  0  0  0
 26 75  1  0  0  0  0
 27 85  1  0  0  0  0
 28 86  1  0  0  0  0
 29 31  2  0  0  0  0
 29 85  1  0  0  0  0
 30 87  1  0  0  0  0
 31 88  1  0  0  0  0
 32 69  2  0  0  0  0
 33 70  1  0  0  0  0
 33 73  1  0  0  0  0
 34 36  2  0  0  0  0
 34 46  1  0  0  0  0
 34 78  1  0  0  0  0
 35 37  2  0  0  0  0
 36 37  1  0  0  0  0
 38 74  1  0  0  0  0
 38 80  2  0  0  0  0
 39 56  1  0  0  0  0
 39 76  1  0  0  0  0
 39 81  2  0  0  0  0
 40 66  1  0  0  0  0
 40 71  1  0  0  0  0
 40 82  2  0  0  0  0
 41 67  1  0  0  0  0
 41 77  1  0  0  0  0
 41 83  2  0  0  0  0
 42 72  1  0  0  0  0
 42 75  1  0  0  0  0
 42 84  2  0  0  0  0
 43 47  1  0  0  0  0
 44 56  1  0  0  0  0
 45 71  1  0  0  0  0
 46 58  1  0  0  0  0
 47 49  1  0  0  0  0
 48 50  1  0  0  0  0
 48 52  1  0  0  0  0
 49 55  1  0  0  0  0
 50 57  1  0  0  0  0
 51 54  1  0  0  0  0
 51 58  1  0  0  0  0
 52 72  1  0  0  0  0
 53 57  1  0  0  0  0
 53 72  1  0  0  0  0
 54 78  1  0  0  0  0
 55 76  1  0  0  0  0
 56 71  1  0  0  0  0
 57 70  1  0  0  0  0
 58 86  1  0  0  0  0
 60 67  1  0  0  0  0
 61 68  1  0  0  0  0
 62 68  1  0  0  0  0
 63 68  1  0  0  0  0
 64 79  1  0  0  0  0
 65 78  1  0  0  0  0
 66 68  1  0  0  0  0
 66 77  1  0  0  0  0
 67 79  1  0  0  0  0
 69 70  1  0  0  0  0
M  CHG  2  78   1  79   1
M  ISO  4  42 100  58 101  75 100  86 101
M  END
> <Batch ID>
0046

> <Smiles>
C=CC=C1C[101CH:1]([101O:1]c2ccc3c(c2)CN(C(=O)C(NC(=O)C(C)NC)C(C)(C)C)C(C(=O)NC2CCCc4ccccc42)C3)CCN1Cc1ccc([100NH:0][100C:0](=O)N2CCCC(n3nc(-c4ccc(Oc5ccc(F)cc5F)cc4)c(C(N)=O)c3N)C2)c(C)c1

> <Shape>
0.311

> <Color>
0.090

> <Negative vol penalty>
0.000

$$$$

  -OEChem-04042322233D

 88 97  0     1  0  0  0  0  0999 V2000
  -29.4985  -35.2801   23.5241 C   0  0  0  0  0  0  0  0  0  0  0  0
  -29.4752  -33.9084   23.2931 C   0  0  0  0  0  0  0  0  0  0  0  0
  -22.5853  -11.8922   22.6120 C   0  0  0  0  0  0  0  0  0  0  0  0
  -22.2329  -13.9557   21.4059 C   0  0  0  0  0  0  0  0  0  0  0  0
  -28.3494  -35.9299   23.9727 C   0  0  0  0  0  0  0  0  0  0  0  0
  -28.3029  -33.1855   23.5117 C   0  0  0  0  0  0  0  0  0  0  0  0
  -27.3015  -29.9290   19.7651 C   0  0  0  0  0  0  0  0  0  0  0  0
  -21.3134  -12.0032   23.1737 C   0  0  0  0  0  0  0  0  0  0  0  0
  -20.9609  -14.0667   21.9676 C   0  0  0  0  0  0  0  0  0  0  0  0
  -28.0246  -28.7371   19.7472 C   0  0  0  0  0  0  0  0  0  0  0  0
  -17.8960  -12.7320   21.4725 C   0  0  0  0  0  0  0  0  0  0  0  0
  -16.8434  -13.0799   20.6259 C   0  0  0  0  0  0  0  0  0  0  0  0
  -26.1505  -27.5921   20.7453 C   0  0  0  0  0  0  0  0  0  0  0  0
  -28.4986  -19.8844   18.3389 C   0  0  0  0  0  0  0  0  0  0  0  0
  -27.2871  -21.0875   16.6296 C   0  0  0  0  0  0  0  0  0  0  0  0
  -26.7967  -18.7586   17.0454 C   0  0  0  0  0  0  0  0  0  0  0  0
  -16.4274  -15.0544   21.9545 C   0  0  0  0  0  0  0  0  0  0  0  0
  -23.0451  -12.8684   21.7281 C   0  0  0  0  0  0  0  0  0  0  0  0
  -24.8439  -11.7085   20.3401 C   0  0  0  0  0  0  0  0  0  0  0  0
  -27.1598  -35.2162   24.1877 C   0  0  0  0  0  0  0  0  0  0  0  0
  -25.9993  -29.9637   20.2842 C   0  0  0  0  0  0  0  0  0  0  0  0
  -27.1372  -33.8262   23.9649 C   0  0  0  0  0  0  0  0  0  0  0  0
  -25.4121  -28.7852   20.7663 C   0  0  0  0  0  0  0  0  0  0  0  0
  -28.2583  -21.0617   17.6305 C   0  0  0  0  0  0  0  0  0  0  0  0
  -27.7678  -18.7328   18.0463 C   0  0  0  0  0  0  0  0  0  0  0  0
  -20.5012  -13.0905   22.8515 C   0  0  0  0  0  0  0  0  0  0  0  0
  -27.4502  -27.5690   20.2400 C   0  0  0  0  0  0  0  0  0  0  0  0
  -18.2142  -13.5454   22.5602 C   0  0  0  0  0  0  0  0  0  0  0  0
  -16.1091  -14.2411   20.8669 C   0  0  0  0  0  0  0  0  0  0  0  0
  -17.4799  -14.7066   22.8011 C   0  0  0  0  0  0  0  0  0  0  0  0
  -26.5563  -19.9360   16.3370 C   0  0  0  0  0  0  0  0  0  0  0  0
  -24.3590  -12.7545   21.1479 C   0  0  0  0  0  0  0  0  0  0  0  0
  -26.1366  -12.0702   20.0493 C   0  0  0  0  0  0  0  0  0  0  0  0
  -29.6627  -23.8081   19.7388 C   0  0  0  0  0  0  0  0  0  0  0  0
  -30.8440  -21.6272   22.4467 C   0  0  0  0  0  0  0  0  0  0  0  0
  -30.3650  -23.3607   20.7907 C   0  0  0  0  0  0  0  0  0  0  0  0
  -30.1435  -22.0728   21.3978 C   0  0  0  0  0  0  0  0  0  0  0  0
  -24.1847  -10.5166   19.8925 C   0  0  0  0  0  0  0  0  0  0  0  0
  -24.5876  -31.4688   22.7019 C   0  0  0  0  0  0  0  0  0  0  0  0
  -21.9039  -30.1482   21.4466 C   0  0  0  0  0  0  0  0  0  0  0  0
  -20.9440  -26.9671   20.0408 C   0  0  0  0  0  0  0  0  0  0  0  0
  -28.9405  -17.3404   19.7877 C   0  0  0  0  0  0  0  0  0  0  0  0
  -25.9562  -35.9543   24.7182 C   0  0  0  0  0  0  0  0  0  0  0  0
  -25.2227  -31.2518   20.2718 C   0  0  0  0  0  0  0  0  0  0  0  0
  -24.0098  -28.7650   21.3155 C   0  0  0  0  0  0  0  0  0  0  0  0
  -29.8987  -25.1562   19.1078 C   0  0  0  0  0  0  0  0  0  0  0  0
  -24.6504  -35.1783   24.5668 C   0  0  0  0  0  0  0  0  0  0  0  0
  -29.8195  -14.5598   21.8305 C   0  0  0  0  0  0  0  0  0  0  0  0
  -24.8315  -33.7342   25.0237 C   0  0  0  0  0  0  0  0  0  0  0  0
  -28.5652  -13.6832   21.8088 C   0  0  0  0  0  0  0  0  0  0  0  0
  -27.4854  -25.0441   18.3574 C   0  0  0  0  0  0  0  0  0  0  0  0
  -29.4716  -16.0473   21.8422 C   0  0  0  0  0  0  0  0  0  0  0  0
  -27.3070  -15.6038   20.7528 C   0  0  0  0  0  0  0  0  0  0  0  0
  -27.3178  -23.7327   19.1236 C   0  0  0  0  0  0  0  0  0  0  0  0
  -25.8779  -33.0116   24.1667 C   0  0  1  0  0  0  0  0  0  0  0  0
  -24.0925  -31.2780   21.2961 C   0  0  1  0  0  0  0  0  0  0  0  0
  -27.6073  -14.0980   20.6748 C   0  0  2  0  0  0  0  0  0  0  0  0
  -28.5855  -25.9233   18.9518 C   0  0  1  0  0  0  0  0  0  1  0  0
  -19.1618  -26.3928   18.3700 C   0  0  0  0  0  0  0  0  0  0  0  0
  -20.1780  -29.6123   23.9051 C   0  0  0  0  0  0  0  0  0  0  0  0
  -19.1821  -27.6603   22.6944 C   0  0  0  0  0  0  0  0  0  0  0  0
  -18.8957  -29.9664   21.7874 C   0  0  0  0  0  0  0  0  0  0  0  0
  -22.8874  -25.6296   18.2539 C   0  0  0  0  0  0  0  0  0  0  0  0
  -29.0449  -22.3000   17.9447 C   0  0  0  0  0  0  0  0  0  0  0  0
  -21.1593  -28.8496   21.6421 C   0  0  1  0  0  0  0  0  0  0  0  0
  -20.6415  -26.6720   18.5827 C   0  0  2  0  0  0  0  0  0  0  0  0
  -19.8819  -29.0239   22.5112 C   0  0  0  0  0  0  0  0  0  0  0  0
  -25.2696  -13.7091   21.3571 N   0  0  0  0  0  0  0  0  0  0  0  0
  -26.3397  -13.2642   20.6765 N   0  0  0  0  0  0  0  0  0  0  0  0
  -23.2935  -30.0510   21.2877 N   0  0  0  0  0  0  0  0  0  0  0  0
  -28.5646  -16.3673   20.7378 N   0  0  0  0  0  0  0  0  0  0  0  0
  -27.1081  -11.4802   19.3209 N   0  0  0  0  0  0  0  0  0  0  0  0
  -22.8561  -10.3009   20.2835 N   0  0  0  0  0  0  0  0  0  0  0  0
  -28.0127  -17.5367   18.7653 N   0  0  0  0  0  0  0  0  0  0  0  0
  -25.3109  -32.6310   22.8908 N   0  0  0  0  0  0  0  0  0  0  0  0
  -20.9057  -28.3195   20.3067 N   0  0  0  0  0  0  0  0  0  0  0  0
  -28.6140  -22.9631   19.2237 N   0  3  1  0  0  0  0  0  0  0  0  0
  -21.4148  -25.4836   18.1236 N   0  3  0  0  0  0  0  0  0  0  0  0
  -24.7620   -9.6600   19.1809 O   0  0  0  0  0  0  0  0  0  0  0  0
  -24.3311  -30.6249   23.5526 O   0  0  0  0  0  0  0  0  0  0  0  0
  -21.2748  -31.2091   21.4282 O   0  0  0  0  0  0  0  0  0  0  0  0
  -21.1860  -26.0857   20.8625 O   0  0  0  0  0  0  0  0  0  0  0  0
  -30.0191  -17.9349   19.8596 O   0  0  0  0  0  0  0  0  0  0  0  0
  -19.2600  -13.1991   23.3993 O   0  0  0  0  0  0  0  0  0  0  0  0
  -28.1541  -26.4045   20.2242 O   0  0  0  0  0  0  0  0  0  1  0  0
  -15.0994  -14.5758   20.0529 F   0  0  0  0  0  0  0  0  0  0  0  0
  -17.7817  -15.4925   23.8437 F   0  0  0  0  0  0  0  0  0  0  0  0
  -25.3593  -19.9670   15.1008 Cl  0  0  0  0  0  0  0  0  0  0  0  0
  1  2  1  0  0  0  0
  1  5  2  0  0  0  0
  2  6  2  0  0  0  0
  3  8  2  0  0  0  0
  3 18  1  0  0  0  0
  4  9  1  0  0  0  0
  4 18  2  0  0  0  0
  5 20  1  0  0  0  0
  6 22  1  0  0  0  0
  7 10  2  0  0  0  0
  7 21  1  0  0  0  0
  8 26  1  0  0  0  0
  9 26  2  0  0  0  0
 10 27  1  0  0  0  0
 11 12  2  0  0  0  0
 11 28  1  0  0  0  0
 12 29  1  0  0  0  0
 13 23  1  0  0  0  0
 13 27  2  0  0  0  0
 14 24  2  0  0  0  0
 14 25  1  0  0  0  0
 15 24  1  0  0  0  0
 15 31  2  0  0  0  0
 16 25  2  0  0  0  0
 16 31  1  0  0  0  0
 17 29  2  0  0  0  0
 17 30  1  0  0  0  0
 18 32  1  0  0  0  0
 19 32  1  0  0  0  0
 19 33  2  0  0  0  0
 19 38  1  0  0  0  0
 20 22  2  0  0  0  0
 20 43  1  0  0  0  0
 21 23  2  0  0  0  0
 21 44  1  0  0  0  0
 22 55  1  0  0  0  0
 23 45  1  0  0  0  0
 24 64  1  0  0  0  0
 25 74  1  0  0  0  0
 26 84  1  0  0  0  0
 27 85  1  0  0  0  0
 28 30  2  0  0  0  0
 28 84  1  0  0  0  0
 29 86  1  0  0  0  0
 30 87  1  0  0  0  0
 31 88  1  0  0  0  0
 32 68  2  0  0  0  0
 33 69  1  0  0  0  0
 33 72  1  0  0  0  0
 34 36  2  0  0  0  0
 34 46  1  0  0  0  0
 34 77  1  0  0  0  0
 35 37  2  0  0  0  0
 36 37  1  0  0  0  0
 38 73  1  0  0  0  0
 38 79  2  0  0  0  0
 39 56  1  0  0  0  0
 39 75  1  0  0  0  0
 39 80  2  0  0  0  0
 40 65  1  0  0  0  0
 40 70  1  0  0  0  0
 40 81  2  0  0  0  0
 41 66  1  0  0  0  0
 41 76  1  0  0  0  0
 41 82  2  0  0  0  0
 42 71  1  0  0  0  0
 42 74  1  0  0  0  0
 42 83  2  0  0  0  0
 43 47  1  0  0  0  0
 44 56  1  0  0  0  0
 45 70  1  0  0  0  0
 46 58  1  0  0  0  0
 47 49  1  0  0  0  0
 48 50  1  0  0  0  0
 48 52  1  0  0  0  0
 49 55  1  0  0  0  0
 50 57  1  0  0  0  0
 51 54  1  0  0  0  0
 51 58  1  0  0  0  0
 52 71  1  0  0  0  0
 53 57  1  0  0  0  0
 53 71  1  0  0  0  0
 54 77  1  0  0  0  0
 55 75  1  0  0  0  0
 56 70  1  0  0  0  0
 57 69  1  0  0  0  0
 58 85  1  0  0  0  0
 59 66  1  0  0  0  0
 60 67  1  0  0  0  0
 61 67  1  0  0  0  0
 62 67  1  0  0  0  0
 63 78  1  0  0  0  0
 64 77  1  0  0  0  0
 65 67  1  0  0  0  0
 65 76  1  0  0  0  0
 66 78  1  0  0  0  0
 68 69  1  0  0  0  0
M  CHG  2  77   1  78   1
M  ISO  4  42 100  58 101  74 100  85 101
M  END
> <Batch ID>
0046

> <Smiles>
C=CC=C1C[101CH:1]([101O:1]c2ccc3c(c2)CN(C(=O)C(NC(=O)C(C)NC)C(C)(C)C)C(C(=O)NC2CCCc4ccccc42)C3)CCN1Cc1cc(Cl)cc([100NH:0][100C:0](=O)N2CCCC(n3nc(-c4ccc(Oc5ccc(F)cc5F)cc4)c(C(N)=O)c3N)C2)c1

> <Shape>
0.307

> <Color>
0.079

> <Negative vol penalty>
0.000

$$$$

  -OEChem-04042322233D

 86 95  0     1  0  0  0  0  0999 V2000
  -27.8616  -37.2193   24.1957 C   0  0  0  0  0  0  0  0  0  0  0  0
  -28.4284  -36.2109   23.4228 C   0  0  0  0  0  0  0  0  0  0  0  0
  -24.4555   -9.9925   22.9520 C   0  0  0  0  0  0  0  0  0  0  0  0
  -23.5831  -12.1944   23.4292 C   0  0  0  0  0  0  0  0  0  0  0  0
  -26.8065  -36.9251   25.0584 C   0  0  0  0  0  0  0  0  0  0  0  0
  -27.9411  -34.9075   23.5128 C   0  0  0  0  0  0  0  0  0  0  0  0
  -26.9225  -29.0405   19.5308 C   0  0  0  0  0  0  0  0  0  0  0  0
  -23.9537   -9.5300   24.1684 C   0  0  0  0  0  0  0  0  0  0  0  0
  -23.0812  -11.7318   24.6457 C   0  0  0  0  0  0  0  0  0  0  0  0
  -27.2023  -27.6747   19.5340 C   0  0  0  0  0  0  0  0  0  0  0  0
  -20.9667   -8.5656   25.4257 C   0  0  0  0  0  0  0  0  0  0  0  0
  -20.2957   -7.3427   25.4273 C   0  0  0  0  0  0  0  0  0  0  0  0
  -25.3237  -27.2992   21.0000 C   0  0  0  0  0  0  0  0  0  0  0  0
  -30.0247  -18.7618   21.1577 C   0  0  0  0  0  0  0  0  0  0  0  0
  -27.6195  -18.9301   21.3117 C   0  0  0  0  0  0  0  0  0  0  0  0
  -21.9148   -6.4562   26.9861 C   0  0  0  0  0  0  0  0  0  0  0  0
  -24.2703  -11.3247   22.5824 C   0  0  0  0  0  0  0  0  0  0  0  0
  -24.1297  -11.8119   20.0822 C   0  0  0  0  0  0  0  0  0  0  0  0
  -26.2997  -35.6193   25.1520 C   0  0  0  0  0  0  0  0  0  0  0  0
  -25.8458  -29.5481   20.2722 C   0  0  0  0  0  0  0  0  0  0  0  0
  -26.8791  -34.5954   24.3786 C   0  0  0  0  0  0  0  0  0  0  0  0
  -25.0307  -28.6715   21.0025 C   0  0  0  0  0  0  0  0  0  0  0  0
  -30.1498  -20.0297   21.7255 C   0  0  0  0  0  0  0  0  0  0  0  0
  -27.7446  -20.1980   21.8795 C   0  0  0  0  0  0  0  0  0  0  0  0
  -29.0098  -20.7478   22.0864 C   0  0  0  0  0  0  0  0  0  0  0  0
  -28.7596  -18.2121   20.9507 C   0  0  0  0  0  0  0  0  0  0  0  0
  -23.2665  -10.3996   25.0153 C   0  0  0  0  0  0  0  0  0  0  0  0
  -26.4047  -26.8042   20.2709 C   0  0  0  0  0  0  0  0  0  0  0  0
  -22.1119   -8.7337   26.2043 C   0  0  0  0  0  0  0  0  0  0  0  0
  -20.7697   -6.2881   26.2074 C   0  0  0  0  0  0  0  0  0  0  0  0
  -22.5858   -7.6791   26.9845 C   0  0  0  0  0  0  0  0  0  0  0  0
  -24.7889  -11.8033   21.3261 C   0  0  0  0  0  0  0  0  0  0  0  0
  -25.0412  -12.3621   19.2145 C   0  0  0  0  0  0  0  0  0  0  0  0
  -27.8303  -24.1273   21.9336 C   0  0  0  0  0  0  0  0  0  0  0  0
  -22.8114  -11.3629   19.7417 C   0  0  0  0  0  0  0  0  0  0  0  0
  -25.5527  -31.5862   22.6938 C   0  0  0  0  0  0  0  0  0  0  0  0
  -22.3822  -31.1871   22.1362 C   0  0  0  0  0  0  0  0  0  0  0  0
  -19.8861  -29.2319   20.8738 C   0  0  0  0  0  0  0  0  0  0  0  0
  -29.6608  -16.0778   19.9613 C   0  0  0  0  0  0  0  0  0  0  0  0
  -25.1892  -35.3403   26.1336 C   0  0  0  0  0  0  0  0  0  0  0  0
  -25.5410  -31.0206   20.2369 C   0  0  0  0  0  0  0  0  0  0  0  0
  -23.8508  -29.1636   21.7988 C   0  0  0  0  0  0  0  0  0  0  0  0
  -24.4841  -34.0079   25.8931 C   0  0  0  0  0  0  0  0  0  0  0  0
  -29.7594  -12.8181   18.5322 C   0  0  0  0  0  0  0  0  0  0  0  0
  -25.5048  -32.8963   25.6709 C   0  0  0  0  0  0  0  0  0  0  0  0
  -28.4332  -12.1909   18.9682 C   0  0  0  0  0  0  0  0  0  0  0  0
  -28.6898  -24.2576   19.7135 C   0  0  0  0  0  0  0  0  0  0  0  0
  -30.3479  -13.7141   19.6206 C   0  0  0  0  0  0  0  0  0  0  0  0
  -29.5775  -23.3494   20.5416 C   0  0  0  0  0  0  0  0  0  0  0  0
  -28.1115  -14.1176   20.5718 C   0  0  0  0  0  0  0  0  0  0  0  0
  -26.3618  -33.1741   24.4300 C   0  0  1  0  0  0  0  0  0  0  0  0
  -27.9359  -25.0765   20.7565 C   0  0  1  0  0  0  0  0  0  1  0  0
  -24.7299  -31.4919   21.4400 C   0  0  1  0  0  0  0  0  0  0  0  0
  -27.4477  -13.2579   19.4837 C   0  0  2  0  0  0  0  0  0  0  0  0
  -31.5159  -20.5962   21.9359 C   0  0  0  0  0  0  0  0  0  0  0  0
  -26.5081  -20.9461   22.2572 C   0  0  0  0  0  0  0  0  0  0  0  0
  -17.3930  -29.1543   20.5980 C   0  0  0  0  0  0  0  0  0  0  0  0
  -22.0803  -30.4747   25.0877 C   0  0  0  0  0  0  0  0  0  0  0  0
  -19.8337  -29.5079   24.5528 C   0  0  0  0  0  0  0  0  0  0  0  0
  -20.2665  -31.9355   24.1763 C   0  0  0  0  0  0  0  0  0  0  0  0
  -20.0986  -29.1537   17.9229 C   0  0  0  0  0  0  0  0  0  0  0  0
  -29.1446  -22.1123   22.6981 C   0  0  0  0  0  0  0  0  0  0  0  0
  -21.3211  -30.2344   22.6317 C   0  0  1  0  0  0  0  0  0  0  0  0
  -18.7154  -29.5561   19.9634 C   0  0  2  0  0  0  0  0  0  0  0  0
  -20.8987  -30.5288   24.0988 C   0  0  0  0  0  0  0  0  0  0  0  0
  -26.0238  -12.3077   21.2588 N   0  0  0  0  0  0  0  0  0  0  0  0
  -26.1479  -12.6384   19.9621 N   0  0  0  0  0  0  0  0  0  0  0  0
  -28.8195  -23.1620   21.7571 N   0  0  0  0  0  0  0  0  0  0  0  0
  -23.5974  -30.6126   21.7376 N   0  0  0  0  0  0  0  0  0  0  0  0
  -29.3593  -14.7027   20.0568 N   0  0  0  0  0  0  0  0  0  0  0  0
  -24.9960  -12.6315   17.8924 N   0  0  0  0  0  0  0  0  0  0  0  0
  -22.0067  -10.8236   20.7547 N   0  0  0  0  0  0  0  0  0  0  0  0
  -28.6322  -16.9237   20.3749 N   0  0  0  0  0  0  0  0  0  0  0  0
  -25.6239  -32.8597   23.2254 N   0  0  0  0  0  0  0  0  0  0  0  0
  -20.2271  -30.3054   21.6692 N   0  0  0  0  0  0  0  0  0  0  0  0
  -18.8526  -28.8349   18.6665 N   0  3  0  0  0  0  0  0  0  0  0  0
  -27.0295  -24.2317   22.8503 O   0  0  0  0  0  0  0  0  0  0  0  0
  -22.3663  -11.4224   18.5704 O   0  0  0  0  0  0  0  0  0  0  0  0
  -26.0824  -30.5780   23.1461 O   0  0  0  0  0  0  0  0  0  0  0  0
  -22.1390  -32.3959   22.0972 O   0  0  0  0  0  0  0  0  0  0  0  0
  -20.4401  -28.1348   20.8815 O   0  0  0  0  0  0  0  0  0  0  0  0
  -30.7410  -16.4760   19.5178 O   0  0  0  0  0  0  0  0  0  0  0  0
  -22.7765   -9.9486   26.2023 O   0  0  0  0  0  0  0  0  0  0  0  0
  -26.6761  -25.4707   20.2763 O   0  0  0  0  0  0  0  0  0  1  0  0
  -20.1243   -5.1144   26.2100 F   0  0  0  0  0  0  0  0  0  0  0  0
  -23.6847   -7.8350   27.7354 F   0  0  0  0  0  0  0  0  0  0  0  0
  1  2  1  0  0  0  0
  1  5  2  0  0  0  0
  2  6  2  0  0  0  0
  3  8  2  0  0  0  0
  3 17  1  0  0  0  0
  4  9  1  0  0  0  0
  4 17  2  0  0  0  0
  5 19  1  0  0  0  0
  6 21  1  0  0  0  0
  7 10  2  0  0  0  0
  7 20  1  0  0  0  0
  8 27  1  0  0  0  0
  9 27  2  0  0  0  0
 10 28  1  0  0  0  0
 11 12  2  0  0  0  0
 11 29  1  0  0  0  0
 12 30  1  0  0  0  0
 13 22  1  0  0  0  0
 13 28  2  0  0  0  0
 14 23  2  0  0  0  0
 14 26  1  0  0  0  0
 15 24  1  0  0  0  0
 15 26  2  0  0  0  0
 16 30  2  0  0  0  0
 16 31  1  0  0  0  0
 17 32  1  0  0  0  0
 18 32  1  0  0  0  0
 18 33  2  0  0  0  0
 18 35  1  0  0  0  0
 19 21  2  0  0  0  0
 19 40  1  0  0  0  0
 20 22  2  0  0  0  0
 20 41  1  0  0  0  0
 21 51  1  0  0  0  0
 22 42  1  0  0  0  0
 23 25  1  0  0  0  0
 23 55  1  0  0  0  0
 24 25  2  0  0  0  0
 24 56  1  0  0  0  0
 25 62  1  0  0  0  0
 26 73  1  0  0  0  0
 27 83  1  0  0  0  0
 28 84  1  0  0  0  0
 29 31  2  0  0  0  0
 29 83  1  0  0  0  0
 30 85  1  0  0  0  0
 31 86  1  0  0  0  0
 32 66  2  0  0  0  0
 33 67  1  0  0  0  0
 33 71  1  0  0  0  0
 34 52  1  0  0  0  0
 34 68  1  0  0  0  0
 34 77  2  0  0  0  0
 35 72  1  0  0  0  0
 35 78  2  0  0  0  0
 36 53  1  0  0  0  0
 36 74  1  0  0  0  0
 36 79  2  0  0  0  0
 37 63  1  0  0  0  0
 37 69  1  0  0  0  0
 37 80  2  0  0  0  0
 38 64  1  0  0  0  0
 38 75  1  0  0  0  0
 38 81  2  0  0  0  0
 39 70  1  0  0  0  0
 39 73  1  0  0  0  0
 39 82  2  0  0  0  0
 40 43  1  0  0  0  0
 41 53  1  0  0  0  0
 42 69  1  0  0  0  0
 43 45  1  0  0  0  0
 44 46  1  0  0  0  0
 44 48  1  0  0  0  0
 45 51  1  0  0  0  0
 46 54  1  0  0  0  0
 47 49  1  0  0  0  0
 47 52  1  0  0  0  0
 48 70  1  0  0  0  0
 49 68  1  0  0  0  0
 50 54  1  0  0  0  0
 50 70  1  0  0  0  0
 51 74  1  0  0  0  0
 52 84  1  0  0  0  0
 53 69  1  0  0  0  0
 54 67  1  0  0  0  0
 57 64  1  0  0  0  0
 58 65  1  0  0  0  0
 59 65  1  0  0  0  0
 60 65  1  0  0  0  0
 61 76  1  0  0  0  0
 62 68  1  0  0  0  0
 63 65  1  0  0  0  0
 63 75  1  0  0  0  0
 64 76  1  0  0  0  0
 66 67  1  0  0  0  0
M  CHG  1  76   1
M  ISO  4  39 100  52 101  73 100  84 101
M  END
> <Batch ID>
0046

> <Smiles>
CNC(C)C(=O)NC(C(=O)N1Cc2cc([101O:1][101CH:1]3CCN(Cc4c(C)cc([100NH:0][100C:0](=O)N5CCCC(n6nc(-c7ccc(Oc8ccc(F)cc8F)cc7)c(C(N)=O)c6N)C5)cc4C)C3=O)ccc2CC1C(=O)NC1CCCc2ccccc21)C(C)(C)C

> <Shape>
0.284

> <Color>
0.079

> <Negative vol penalty>
0.000

$$$$

  -OEChem-04042322233D

 85 94  0     1  0  0  0  0  0999 V2000
  -28.5533  -12.1439   20.8656 C   0  0  0  0  0  0  0  0  0  0  0  0
  -28.7371  -13.5215   20.8295 C   0  0  0  0  0  0  0  0  0  0  0  0
  -18.3172  -27.5329   23.9957 C   0  0  0  0  0  0  0  0  0  0  0  0
  -28.9883  -26.2505   18.9400 C   0  0  0  0  0  0  0  0  0  0  0  0
  -26.8782  -25.1320   19.3054 C   0  0  0  0  0  0  0  0  0  0  0  0
  -27.2719  -11.6120   20.7383 C   0  0  0  0  0  0  0  0  0  0  0  0
  -27.6384  -14.3681   20.6779 C   0  0  0  0  0  0  0  0  0  0  0  0
  -23.6839  -21.2260   19.9333 C   0  0  0  0  0  0  0  0  0  0  0  0
  -17.7577  -26.8105   22.9417 C   0  0  0  0  0  0  0  0  0  0  0  0
  -19.5277  -28.2026   23.8171 C   0  0  0  0  0  0  0  0  0  0  0  0
  -29.6212  -25.0143   18.8101 C   0  0  0  0  0  0  0  0  0  0  0  0
  -27.5111  -23.8957   19.1755 C   0  0  0  0  0  0  0  0  0  0  0  0
  -22.4761  -21.7727   19.5020 C   0  0  0  0  0  0  0  0  0  0  0  0
  -29.4290  -21.8662   21.0816 C   0  0  0  0  0  0  0  0  0  0  0  0
  -29.1163  -20.8769   22.0139 C   0  0  0  0  0  0  0  0  0  0  0  0
  -21.2824  -20.2859   20.9797 C   0  0  0  0  0  0  0  0  0  0  0  0
  -19.6193  -27.4275   21.5307 C   0  0  0  0  0  0  0  0  0  0  0  0
  -28.3216  -19.4503   20.2333 C   0  0  0  0  0  0  0  0  0  0  0  0
  -27.6168  -26.3094   19.1877 C   0  0  0  0  0  0  0  0  0  0  0  0
  -26.8944  -28.6121   18.3611 C   0  0  0  0  0  0  0  0  0  0  0  0
  -26.1589  -12.4527   20.5726 C   0  0  0  0  0  0  0  0  0  0  0  0
  -23.6995  -20.1959   20.8847 C   0  0  0  0  0  0  0  0  0  0  0  0
  -26.3344  -13.8515   20.5717 C   0  0  0  0  0  0  0  0  0  0  0  0
  -22.4919  -19.7296   21.4234 C   0  0  0  0  0  0  0  0  0  0  0  0
  -18.4088  -26.7578   21.7092 C   0  0  0  0  0  0  0  0  0  0  0  0
  -20.1788  -28.1499   22.5846 C   0  0  0  0  0  0  0  0  0  0  0  0
  -28.8826  -23.8369   18.9278 C   0  0  0  0  0  0  0  0  0  0  0  0
  -21.2749  -21.3006   20.0231 C   0  0  0  0  0  0  0  0  0  0  0  0
  -29.1880  -21.6476   19.7252 C   0  0  0  0  0  0  0  0  0  0  0  0
  -28.5626  -19.6690   21.5897 C   0  0  0  0  0  0  0  0  0  0  0  0
  -28.6343  -20.4396   19.3011 C   0  0  0  0  0  0  0  0  0  0  0  0
  -26.9626  -27.5860   19.3226 C   0  0  0  0  0  0  0  0  0  0  0  0
  -26.1690  -29.6063   18.9708 C   0  0  0  0  0  0  0  0  0  0  0  0
  -19.1300  -23.9240   20.2720 C   0  0  0  0  0  0  0  0  0  0  0  0
  -27.4381  -28.6619   17.0353 C   0  0  0  0  0  0  0  0  0  0  0  0
  -24.6918  -17.1762   20.9050 C   0  0  0  0  0  0  0  0  0  0  0  0
  -23.9341  -17.3571   24.0539 C   0  0  0  0  0  0  0  0  0  0  0  0
  -21.2717  -18.7581   26.0455 C   0  0  0  0  0  0  0  0  0  0  0  0
  -22.0985  -29.5929   23.3453 C   0  0  0  0  0  0  0  0  0  0  0  0
  -24.7935  -11.8239   20.4473 C   0  0  0  0  0  0  0  0  0  0  0  0
  -25.0121  -19.6353   21.3592 C   0  0  0  0  0  0  0  0  0  0  0  0
  -22.4553  -18.6394   22.4619 C   0  0  0  0  0  0  0  0  0  0  0  0
  -23.7564  -12.7689   19.8494 C   0  0  0  0  0  0  0  0  0  0  0  0
  -17.0406  -22.3852   21.6335 C   0  0  0  0  0  0  0  0  0  0  0  0
  -25.1686  -31.3955   23.2989 C   0  0  0  0  0  0  0  0  0  0  0  0
  -23.7973  -14.1084   20.5695 C   0  0  0  0  0  0  0  0  0  0  0  0
  -17.9531  -21.6993   20.6384 C   0  0  0  0  0  0  0  0  0  0  0  0
  -25.9685  -30.7204   22.1824 C   0  0  0  0  0  0  0  0  0  0  0  0
  -16.7831  -23.8140   21.1895 C   0  0  0  0  0  0  0  0  0  0  0  0
  -24.3330  -30.3880   24.0867 C   0  0  0  0  0  0  0  0  0  0  0  0
  -24.2579  -28.8603   22.1554 C   0  0  0  0  0  0  0  0  0  0  0  0
  -25.1577  -14.7906   20.3771 C   0  0  1  0  0  0  0  0  0  0  0  0
  -19.2745  -22.4406   20.5873 C   0  0  1  0  0  0  0  0  0  1  0  0
  -24.8844  -18.2357   21.9528 C   0  0  1  0  0  0  0  0  0  0  0  0
  -25.0653  -29.8439   21.2927 C   0  0  2  0  0  0  0  0  0  0  0  0
  -21.2620  -19.5618   28.4227 C   0  0  0  0  0  0  0  0  0  0  0  0
  -22.9677  -14.5358   24.6990 C   0  0  0  0  0  0  0  0  0  0  0  0
  -21.4506  -15.5257   26.4272 C   0  0  0  0  0  0  0  0  0  0  0  0
  -23.9223  -15.7822   26.6458 C   0  0  0  0  0  0  0  0  0  0  0  0
  -20.2471  -21.4220   25.2627 C   0  0  0  0  0  0  0  0  0  0  0  0
  -17.8061  -25.9801   20.5751 C   0  0  0  0  0  0  0  0  0  0  0  0
  -22.6918  -17.0971   24.8712 C   0  0  1  0  0  0  0  0  0  0  0  0
  -21.3602  -19.9665   26.9601 C   0  0  2  0  0  0  0  0  0  0  0  0
  -22.7566  -15.7436   25.6337 C   0  0  0  0  0  0  0  0  0  0  0  0
  -26.3311  -27.8996   20.4569 N   0  0  0  0  0  0  0  0  0  0  0  0
  -25.8592  -29.1339   20.2122 N   0  0  0  0  0  0  0  0  0  0  0  0
  -17.9736  -24.5435   20.7495 N   0  0  0  0  0  0  0  0  0  0  0  0
  -23.7646  -18.1189   22.8891 N   0  0  0  0  0  0  0  0  0  0  0  0
  -23.4996  -29.5966   23.1790 N   0  0  0  0  0  0  0  0  0  0  0  0
  -25.7723  -30.8298   18.5608 N   0  0  0  0  0  0  0  0  0  0  0  0
  -28.1566  -27.5540   16.5658 N   0  0  0  0  0  0  0  0  0  0  0  0
  -21.4081  -28.8309   22.4034 N   0  0  0  0  0  0  0  0  0  0  0  0
  -25.2312  -15.9489   21.2401 N   0  0  0  0  0  0  0  0  0  0  0  0
  -22.5195  -18.2611   25.7337 N   0  0  0  0  0  0  0  0  0  0  0  0
  -20.2574  -20.9235   26.6621 N   0  3  0  0  0  0  0  0  0  0  0  0
  -20.0375  -24.5187   19.6847 O   0  0  0  0  0  0  0  0  0  0  0  0
  -27.3051  -29.6659   16.2952 O   0  0  0  0  0  0  0  0  0  0  0  0
  -24.0965  -17.4513   19.8698 O   0  0  0  0  0  0  0  0  0  0  0  0
  -25.0163  -16.9071   24.4387 O   0  0  0  0  0  0  0  0  0  0  0  0
  -20.2025  -18.2987   25.6504 O   0  0  0  0  0  0  0  0  0  0  0  0
  -21.5494  -30.2415   24.2396 O   0  0  0  0  0  0  0  0  0  0  0  0
  -29.4997  -22.6304   18.8008 O   0  0  0  0  0  0  0  0  0  0  0  0
  -20.0945  -21.8320   19.6033 O   0  0  0  0  0  0  0  0  0  1  0  0
  -28.2638  -18.7184   22.4849 F   0  0  0  0  0  0  0  0  0  0  0  0
  -28.4015  -20.2234   17.9992 F   0  0  0  0  0  0  0  0  0  0  0  0
  1  2  1  0  0  0  0
  1  6  2  0  0  0  0
  2  7  2  0  0  0  0
  3  9  2  0  0  0  0
  3 10  1  0  0  0  0
  4 11  2  0  0  0  0
  4 19  1  0  0  0  0
  5 12  1  0  0  0  0
  5 19  2  0  0  0  0
  6 21  1  0  0  0  0
  7 23  1  0  0  0  0
  8 13  2  0  0  0  0
  8 22  1  0  0  0  0
  9 25  1  0  0  0  0
 10 26  2  0  0  0  0
 11 27  1  0  0  0  0
 12 27  2  0  0  0  0
 13 28  1  0  0  0  0
 14 15  2  0  0  0  0
 14 29  1  0  0  0  0
 15 30  1  0  0  0  0
 16 24  1  0  0  0  0
 16 28  2  0  0  0  0
 17 25  2  0  0  0  0
 17 26  1  0  0  0  0
 18 30  2  0  0  0  0
 18 31  1  0  0  0  0
 19 32  1  0  0  0  0
 20 32  1  0  0  0  0
 20 33  2  0  0  0  0
 20 35  1  0  0  0  0
 21 23  2  0  0  0  0
 21 40  1  0  0  0  0
 22 24  2  0  0  0  0
 22 41  1  0  0  0  0
 23 52  1  0  0  0  0
 24 42  1  0  0  0  0
 25 61  1  0  0  0  0
 26 72  1  0  0  0  0
 27 82  1  0  0  0  0
 28 83  1  0  0  0  0
 29 31  2  0  0  0  0
 29 82  1  0  0  0  0
 30 84  1  0  0  0  0
 31 85  1  0  0  0  0
 32 65  2  0  0  0  0
 33 66  1  0  0  0  0
 33 70  1  0  0  0  0
 34 53  1  0  0  0  0
 34 67  1  0  0  0  0
 34 76  2  0  0  0  0
 35 71  1  0  0  0  0
 35 77  2  0  0  0  0
 36 54  1  0  0  0  0
 36 73  1  0  0  0  0
 36 78  2  0  0  0  0
 37 62  1  0  0  0  0
 37 68  1  0  0  0  0
 37 79  2  0  0  0  0
 38 63  1  0  0  0  0
 38 74  1  0  0  0  0
 38 80  2  0  0  0  0
 39 69  1  0  0  0  0
 39 72  1  0  0  0  0
 39 81  2  0  0  0  0
 40 43  1  0  0  0  0
 41 54  1  0  0  0  0
 42 68  1  0  0  0  0
 43 46  1  0  0  0  0
 44 47  1  0  0  0  0
 44 49  1  0  0  0  0
 45 48  1  0  0  0  0
 45 50  1  0  0  0  0
 46 52  1  0  0  0  0
 47 53  1  0  0  0  0
 48 55  1  0  0  0  0
 49 67  1  0  0  0  0
 50 69  1  0  0  0  0
 51 55  1  0  0  0  0
 51 69  1  0  0  0  0
 52 73  1  0  0  0  0
 53 83  1  0  0  0  0
 54 68  1  0  0  0  0
 55 66  1  0  0  0  0
 56 63  1  0  0  0  0
 57 64  1  0  0  0  0
 58 64  1  0  0  0  0
 59 64  1  0  0  0  0
 60 75  1  0  0  0  0
 61 67  1  0  0  0  0
 62 64  1  0  0  0  0
 62 74  1  0  0  0  0
 63 75  1  0  0  0  0
 65 66  1  0  0  0  0
M  CHG  1  75   1
M  ISO  4  39 100  53 101  72 100  83 101
M  END
> <Batch ID>
0046

> <Smiles>
CNC(C)C(=O)NC(C(=O)N1Cc2cc([101O:1][101CH:1]3CCCN(Cc4cccc([100NH:0][100C:0](=O)N5CCCC(n6nc(-c7ccc(Oc8ccc(F)cc8F)cc7)c(C(N)=O)c6N)C5)c4)C3=O)ccc2CC1C(=O)NC1CCCc2ccccc21)C(C)(C)C

> <Shape>
0.219

> <Color>
0.070

> <Negative vol penalty>
0.000

$$$$

  -OEChem-04042322233D

 84 92  0     1  0  0  0  0  0999 V2000
  -28.4402  -23.3861   27.2770 C   0  0  0  0  0  0  0  0  0  0  0  0
  -27.3655  -23.2991   26.3980 C   0  0  0  0  0  0  0  0  0  0  0  0
  -28.9807  -26.0548   20.5440 C   0  0  0  0  0  0  0  0  0  0  0  0
  -27.1738  -26.0678   18.9402 C   0  0  0  0  0  0  0  0  0  0  0  0
  -29.5496  -22.5595   27.1040 C   0  0  0  0  0  0  0  0  0  0  0  0
  -27.3999  -22.3860   25.3446 C   0  0  0  0  0  0  0  0  0  0  0  0
  -23.0459  -19.8525   24.8265 C   0  0  0  0  0  0  0  0  0  0  0  0
  -18.2181  -29.0528   23.3040 C   0  0  0  0  0  0  0  0  0  0  0  0
  -29.3661  -24.7901   20.0996 C   0  0  0  0  0  0  0  0  0  0  0  0
  -27.5592  -24.8031   18.4958 C   0  0  0  0  0  0  0  0  0  0  0  0
  -21.9913  -20.5194   24.2044 C   0  0  0  0  0  0  0  0  0  0  0  0
  -27.8465  -21.4256   17.1842 C   0  0  0  0  0  0  0  0  0  0  0  0
  -17.3669  -27.9725   23.5363 C   0  0  0  0  0  0  0  0  0  0  0  0
  -26.8452  -20.4748   16.9869 C   0  0  0  0  0  0  0  0  0  0  0  0
  -22.4815  -19.3616   22.1457 C   0  0  0  0  0  0  0  0  0  0  0  0
  -19.4713  -27.7250   21.7217 C   0  0  0  0  0  0  0  0  0  0  0  0
  -26.2254  -20.6443   19.3159 C   0  0  0  0  0  0  0  0  0  0  0  0
  -27.8845  -26.6937   19.9643 C   0  0  0  0  0  0  0  0  0  0  0  0
  -27.9275  -29.2441   19.9352 C   0  0  0  0  0  0  0  0  0  0  0  0
  -29.5935  -21.6291   26.0537 C   0  0  0  0  0  0  0  0  0  0  0  0
  -23.8343  -18.9417   24.1087 C   0  0  0  0  0  0  0  0  0  0  0  0
  -28.5115  -21.5471   25.1566 C   0  0  0  0  0  0  0  0  0  0  0  0
  -23.5439  -18.6825   22.7616 C   0  0  0  0  0  0  0  0  0  0  0  0
  -19.2703  -28.9291   22.3966 C   0  0  0  0  0  0  0  0  0  0  0  0
  -18.6201  -26.6447   21.9540 C   0  0  0  0  0  0  0  0  0  0  0  0
  -28.6554  -24.1642   19.0755 C   0  0  0  0  0  0  0  0  0  0  0  0
  -21.7108  -20.2761   22.8630 C   0  0  0  0  0  0  0  0  0  0  0  0
  -28.0373  -21.9857   18.4473 C   0  0  0  0  0  0  0  0  0  0  0  0
  -26.0346  -20.0841   18.0528 C   0  0  0  0  0  0  0  0  0  0  0  0
  -17.5679  -26.7685   22.8613 C   0  0  0  0  0  0  0  0  0  0  0  0
  -27.2268  -21.5951   19.5132 C   0  0  0  0  0  0  0  0  0  0  0  0
  -27.4856  -27.9999   20.4234 C   0  0  0  0  0  0  0  0  0  0  0  0
  -27.2570  -30.1697   20.6969 C   0  0  0  0  0  0  0  0  0  0  0  0
  -28.8607  -29.5371   18.8869 C   0  0  0  0  0  0  0  0  0  0  0  0
  -26.9076  -18.7747   23.3142 C   0  0  0  0  0  0  0  0  0  0  0  0
  -26.0551  -15.8562   22.1838 C   0  0  0  0  0  0  0  0  0  0  0  0
  -19.7654  -23.0768   21.6301 C   0  0  0  0  0  0  0  0  0  0  0  0
  -23.5875  -13.8110   21.0110 C   0  0  0  0  0  0  0  0  0  0  0  0
  -22.0945  -29.9884   23.7246 C   0  0  0  0  0  0  0  0  0  0  0  0
  -30.8344  -20.7898   25.8789 C   0  0  0  0  0  0  0  0  0  0  0  0
  -24.9515  -18.2106   24.8014 C   0  0  0  0  0  0  0  0  0  0  0  0
  -24.3475  -17.6990   21.9522 C   0  0  0  0  0  0  0  0  0  0  0  0
  -30.6322  -19.5878   24.9598 C   0  0  0  0  0  0  0  0  0  0  0  0
  -25.3169  -30.7536   25.0312 C   0  0  0  0  0  0  0  0  0  0  0  0
  -29.8957  -20.0041   23.6906 C   0  0  0  0  0  0  0  0  0  0  0  0
  -26.2780  -30.2469   23.9544 C   0  0  0  0  0  0  0  0  0  0  0  0
  -24.0985  -29.8440   25.1735 C   0  0  0  0  0  0  0  0  0  0  0  0
  -24.3288  -29.0801   22.8417 C   0  0  0  0  0  0  0  0  0  0  0  0
  -28.5010  -20.5519   24.0165 C   0  0  1  0  0  0  0  0  0  0  0  0
  -26.0117  -17.6876   23.8371 C   0  0  1  0  0  0  0  0  0  0  0  0
  -25.5456  -29.9953   22.6226 C   0  0  2  0  0  0  0  0  0  0  0  0
  -23.2029  -11.4928   20.1305 C   0  0  0  0  0  0  0  0  0  0  0  0
  -27.2912  -16.6675   19.5147 C   0  0  0  0  0  0  0  0  0  0  0  0
  -26.0634  -14.7647   18.4470 C   0  0  0  0  0  0  0  0  0  0  0  0
  -27.7673  -14.3135   20.2122 C   0  0  0  0  0  0  0  0  0  0  0  0
  -21.7247  -13.1575   23.2159 C   0  0  0  0  0  0  0  0  0  0  0  0
  -20.1802  -30.0843   22.1481 C   0  0  0  0  0  0  0  0  0  0  0  0
  -18.8394  -25.3495   21.2270 C   0  0  0  0  0  0  0  0  0  0  0  0
  -20.3623  -22.2309   22.7345 C   0  0  0  0  0  0  0  0  0  1  0  0
  -25.5452  -15.3278   20.8648 C   0  0  1  0  0  0  0  0  0  0  0  0
  -23.2103  -12.3834   21.3632 C   0  0  2  0  0  0  0  0  0  0  0  0
  -26.6527  -15.2884   19.7741 C   0  0  0  0  0  0  0  0  0  0  0  0
  -26.6027  -28.1205   21.4183 N   0  0  0  0  0  0  0  0  0  0  0  0
  -26.4845  -29.4515   21.5616 N   0  0  0  0  0  0  0  0  0  0  0  0
  -25.4334  -17.0139   22.6726 N   0  0  0  0  0  0  0  0  0  0  0  0
  -23.4486  -29.6471   23.8755 N   0  0  0  0  0  0  0  0  0  0  0  0
  -27.2587  -31.5196   20.7048 N   0  0  0  0  0  0  0  0  0  0  0  0
  -29.4583  -28.4676   18.2061 N   0  0  0  0  0  0  0  0  0  0  0  0
  -27.5854  -19.4674   24.2992 N   0  0  0  0  0  0  0  0  0  0  0  0
  -19.4290  -24.3438   22.0802 N   0  0  0  0  0  0  0  0  0  0  0  0
  -24.9416  -14.0307   21.1505 N   0  0  0  0  0  0  0  0  0  0  0  0
  -21.5579  -29.7762   22.4605 N   0  0  0  0  0  0  0  0  0  0  0  0
  -21.8543  -12.3431   21.9802 N   0  3  0  0  0  0  0  0  0  0  0  0
  -29.1684  -30.7124   18.5744 O   0  0  0  0  0  0  0  0  0  0  0  0
  -26.9797  -18.9695   22.1065 O   0  0  0  0  0  0  0  0  0  0  0  0
  -26.9664  -15.2595   22.7626 O   0  0  0  0  0  0  0  0  0  0  0  0
  -19.6100  -22.6611   20.4851 O   0  0  0  0  0  0  0  0  0  0  0  0
  -22.7640  -14.6467   20.6450 O   0  0  0  0  0  0  0  0  0  0  0  0
  -21.4154  -30.4531   24.6465 O   0  0  0  0  0  0  0  0  0  0  0  0
  -29.0313  -22.9302   18.6414 O   0  0  0  0  0  0  0  0  0  0  0  0
  -20.6825  -20.9262   22.2532 O   0  0  0  0  0  0  0  0  0  1  0  0
  -25.0721  -19.1722   17.8628 F   0  0  0  0  0  0  0  0  0  0  0  0
  -16.7455  -25.7355   23.0924 F   0  0  0  0  0  0  0  0  0  0  0  0
  -27.4046  -22.1305   20.7287 F   0  0  0  0  0  0  0  0  0  0  0  0
  1  2  1  0  0  0  0
  1  5  2  0  0  0  0
  2  6  2  0  0  0  0
  3  9  2  0  0  0  0
  3 18  1  0  0  0  0
  4 10  1  0  0  0  0
  4 18  2  0  0  0  0
  5 20  1  0  0  0  0
  6 22  1  0  0  0  0
  7 11  2  0  0  0  0
  7 21  1  0  0  0  0
  8 13  2  0  0  0  0
  8 24  1  0  0  0  0
  9 26  1  0  0  0  0
 10 26  2  0  0  0  0
 11 27  1  0  0  0  0
 12 14  2  0  0  0  0
 12 28  1  0  0  0  0
 13 30  1  0  0  0  0
 14 29  1  0  0  0  0
 15 23  1  0  0  0  0
 15 27  2  0  0  0  0
 16 24  2  0  0  0  0
 16 25  1  0  0  0  0
 17 29  2  0  0  0  0
 17 31  1  0  0  0  0
 18 32  1  0  0  0  0
 19 32  1  0  0  0  0
 19 33  2  0  0  0  0
 19 34  1  0  0  0  0
 20 22  2  0  0  0  0
 20 40  1  0  0  0  0
 21 23  2  0  0  0  0
 21 41  1  0  0  0  0
 22 49  1  0  0  0  0
 23 42  1  0  0  0  0
 24 57  1  0  0  0  0
 25 30  2  0  0  0  0
 25 58  1  0  0  0  0
 26 80  1  0  0  0  0
 27 81  1  0  0  0  0
 28 31  2  0  0  0  0
 28 80  1  0  0  0  0
 29 82  1  0  0  0  0
 30 83  1  0  0  0  0
 31 84  1  0  0  0  0
 32 63  2  0  0  0  0
 33 64  1  0  0  0  0
 33 67  1  0  0  0  0
 34 68  1  0  0  0  0
 34 74  2  0  0  0  0
 35 50  1  0  0  0  0
 35 69  1  0  0  0  0
 35 75  2  0  0  0  0
 36 60  1  0  0  0  0
 36 65  1  0  0  0  0
 36 76  2  0  0  0  0
 37 59  1  0  0  0  0
 37 70  1  0  0  0  0
 37 77  2  0  0  0  0
 38 61  1  0  0  0  0
 38 71  1  0  0  0  0
 38 78  2  0  0  0  0
 39 66  1  0  0  0  0
 39 72  1  0  0  0  0
 39 79  2  0  0  0  0
 40 43  1  0  0  0  0
 41 50  1  0  0  0  0
 42 65  1  0  0  0  0
 43 45  1  0  0  0  0
 44 46  1  0  0  0  0
 44 47  1  0  0  0  0
 45 49  1  0  0  0  0
 46 51  1  0  0  0  0
 47 66  1  0  0  0  0
 48 51  1  0  0  0  0
 48 66  1  0  0  0  0
 49 69  1  0  0  0  0
 50 65  1  0  0  0  0
 51 64  1  0  0  0  0
 52 61  1  0  0  0  0
 53 62  1  0  0  0  0
 54 62  1  0  0  0  0
 55 62  1  0  0  0  0
 56 73  1  0  0  0  0
 57 72  1  0  0  0  0
 58 70  1  0  0  0  0
 59 81  1  0  0  0  0
 60 62  1  0  0  0  0
 60 71  1  0  0  0  0
 61 73  1  0  0  0  0
 63 64  1  0  0  0  0
M  CHG  1  73   1
M  ISO  4  39 100  59 101  72 100  81 101
M  END
> <Batch ID>
0046

> <Smiles>
CNC(C)C(=O)NC(C(=O)N1Cc2cc([101O:1][101CH2:1]C(=O)NCc3cc(C[100NH:0][100C:0](=O)N4CCCC(n5nc(-c6ccc(Oc7ccc(F)cc7F)cc6)c(C(N)=O)c5N)C4)ccc3F)ccc2CC1C(=O)NC1CCCc2ccccc21)C(C)(C)C

> <Shape>
0.195

> <Color>
0.078

> <Negative vol penalty>
0.000

$$$$

  -OEChem-04042322233D

 86 95  0     1  0  0  0  0  0999 V2000
  -16.8981  -30.4307   23.5416 C   0  0  0  0  0  0  0  0  0  0  0  0
  -18.1458  -31.0458   23.5233 C   0  0  0  0  0  0  0  0  0  0  0  0
  -28.1558  -12.8405   18.5754 C   0  0  0  0  0  0  0  0  0  0  0  0
  -29.2231  -14.0430   20.3787 C   0  0  0  0  0  0  0  0  0  0  0  0
  -16.8001  -29.0505   23.3701 C   0  0  0  0  0  0  0  0  0  0  0  0
  -19.2963  -30.2809   23.3346 C   0  0  0  0  0  0  0  0  0  0  0  0
  -25.8211  -30.6418   20.3998 C   0  0  0  0  0  0  0  0  0  0  0  0
  -30.4671  -23.3258   23.8210 C   0  0  0  0  0  0  0  0  0  0  0  0
  -29.6733  -22.2086   24.0800 C   0  0  0  0  0  0  0  0  0  0  0  0
  -28.9758  -11.7399   18.8240 C   0  0  0  0  0  0  0  0  0  0  0  0
  -30.0431  -12.9424   20.6274 C   0  0  0  0  0  0  0  0  0  0  0  0
  -27.1605  -30.4275   20.7222 C   0  0  0  0  0  0  0  0  0  0  0  0
  -32.1559  -10.8040   18.1642 C   0  0  0  0  0  0  0  0  0  0  0  0
  -32.7434  -10.1736   17.0674 C   0  0  0  0  0  0  0  0  0  0  0  0
  -26.8635  -28.0615   20.3573 C   0  0  0  0  0  0  0  0  0  0  0  0
  -30.0214  -23.0947   21.4577 C   0  0  0  0  0  0  0  0  0  0  0  0
  -31.6242   -8.1138   17.6520 C   0  0  0  0  0  0  0  0  0  0  0  0
  -28.2795  -13.9921   19.3527 C   0  0  0  0  0  0  0  0  0  0  0  0
  -26.0270  -15.1720   19.1486 C   0  0  0  0  0  0  0  0  0  0  0  0
  -17.9492  -28.2695   23.1695 C   0  0  0  0  0  0  0  0  0  0  0  0
  -24.9887  -29.5645   20.0638 C   0  0  0  0  0  0  0  0  0  0  0  0
  -19.2137  -28.8888   23.1616 C   0  0  0  0  0  0  0  0  0  0  0  0
  -25.5146  -28.2651   20.0286 C   0  0  0  0  0  0  0  0  0  0  0  0
  -30.6412  -23.7689   22.5098 C   0  0  0  0  0  0  0  0  0  0  0  0
  -29.0535  -21.5343   23.0279 C   0  0  0  0  0  0  0  0  0  0  0  0
  -29.2275  -21.9774   21.7168 C   0  0  0  0  0  0  0  0  0  0  0  0
  -29.9194  -11.7908   19.8500 C   0  0  0  0  0  0  0  0  0  0  0  0
  -27.6811  -29.1369   20.7038 C   0  0  0  0  0  0  0  0  0  0  0  0
  -31.3026  -10.0893   19.0050 C   0  0  0  0  0  0  0  0  0  0  0  0
  -32.4775   -8.8285   16.8113 C   0  0  0  0  0  0  0  0  0  0  0  0
  -31.0368   -8.7442   18.7488 C   0  0  0  0  0  0  0  0  0  0  0  0
  -27.4331  -15.1296   19.0961 C   0  0  0  0  0  0  0  0  0  0  0  0
  -25.7103  -16.4692   18.8267 C   0  0  0  0  0  0  0  0  0  0  0  0
  -30.0072  -26.8450   21.6425 C   0  0  0  0  0  0  0  0  0  0  0  0
  -25.0908  -14.1319   19.4606 C   0  0  0  0  0  0  0  0  0  0  0  0
  -22.3527  -28.2942   21.3053 C   0  0  0  0  0  0  0  0  0  0  0  0
  -22.4458  -26.4595   18.6318 C   0  0  0  0  0  0  0  0  0  0  0  0
  -24.9638  -24.7333   16.7090 C   0  0  0  0  0  0  0  0  0  0  0  0
  -28.6863  -21.6308   19.2809 C   0  0  0  0  0  0  0  0  0  0  0  0
  -17.7970  -26.7750   23.0359 C   0  0  0  0  0  0  0  0  0  0  0  0
  -23.5529  -29.8155   19.6925 C   0  0  0  0  0  0  0  0  0  0  0  0
  -24.6679  -27.0769   19.6548 C   0  0  0  0  0  0  0  0  0  0  0  0
  -19.0343  -26.0851   22.4673 C   0  0  0  0  0  0  0  0  0  0  0  0
  -30.3671  -27.9672   24.3255 C   0  0  0  0  0  0  0  0  0  0  0  0
  -27.3344  -20.2065   16.3109 C   0  0  0  0  0  0  0  0  0  0  0  0
  -20.2945  -26.5915   23.1618 C   0  0  0  0  0  0  0  0  0  0  0  0
  -30.0099  -28.8786   23.1700 C   0  0  0  0  0  0  0  0  0  0  0  0
  -27.0727  -18.7483   16.6947 C   0  0  0  0  0  0  0  0  0  0  0  0
  -31.2598  -26.8428   23.8318 C   0  0  0  0  0  0  0  0  0  0  0  0
  -28.6081  -20.7441   16.9608 C   0  0  0  0  0  0  0  0  0  0  0  0
  -28.4184  -19.1180   18.8017 C   0  0  0  0  0  0  0  0  0  0  0  0
  -20.4828  -28.0963   22.9347 C   0  0  1  0  0  0  0  0  0  0  0  0
  -29.2562  -28.0794   22.1252 C   0  0  1  0  0  0  0  0  0  1  0  0
  -22.6673  -28.5854   19.8652 C   0  0  1  0  0  0  0  0  0  0  0  0
  -27.1113  -18.5522   18.2230 C   0  0  2  0  0  0  0  0  0  0  0  0
  -28.2095  -20.3400   23.3349 C   0  0  0  0  0  0  0  0  0  0  0  0
  -25.0217  -24.1164   14.2773 C   0  0  0  0  0  0  0  0  0  0  0  0
  -21.3034  -23.7934   19.5788 C   0  0  0  0  0  0  0  0  0  0  0  0
  -22.7452  -22.6517   17.8800 C   0  0  0  0  0  0  0  0  0  0  0  0
  -20.9853  -24.2582   17.1421 C   0  0  0  0  0  0  0  0  0  0  0  0
  -27.5472  -26.1180   16.3000 C   0  0  0  0  0  0  0  0  0  0  0  0
  -31.4957  -24.9717   22.2320 C   0  0  0  0  0  0  0  0  0  0  0  0
  -23.0736  -25.1368   18.2642 C   0  0  1  0  0  0  0  0  0  0  0  0
  -25.4752  -25.1143   15.3315 C   0  0  2  0  0  0  0  0  0  0  0  0
  -22.0384  -23.9770   18.2360 C   0  0  0  0  0  0  0  0  0  0  0  0
  -27.9725  -16.3062   18.7665 N   0  0  0  0  0  0  0  0  0  0  0  0
  -26.8997  -17.1002   18.6091 N   0  0  0  0  0  0  0  0  0  0  0  0
  -30.8207  -26.2134   22.5852 N   0  0  0  0  0  0  0  0  0  0  0  0
  -23.2686  -27.3730   19.3059 N   0  0  0  0  0  0  0  0  0  0  0  0
  -28.5720  -20.5275   18.4088 N   0  0  0  0  0  0  0  0  0  0  0  0
  -24.5333  -17.1201   18.7114 N   0  0  0  0  0  0  0  0  0  0  0  0
  -25.5860  -12.8575   19.7686 N   0  0  0  0  0  0  0  0  0  0  0  0
  -28.6057  -21.3063   20.6347 N   0  0  0  0  0  0  0  0  0  0  0  0
  -21.0055  -28.3458   21.6085 N   0  0  0  0  0  0  0  0  0  0  0  0
  -23.7654  -25.3511   16.9978 N   0  0  0  0  0  0  0  0  0  0  0  0
  -26.9648  -25.1592   15.3261 N   0  3  0  0  0  0  0  0  0  0  0  0
  -29.8257  -26.4239   20.4971 O   0  0  0  0  0  0  0  0  0  0  0  0
  -23.8510  -14.3227   19.4500 O   0  0  0  0  0  0  0  0  0  0  0  0
  -23.2646  -28.0400   22.0835 O   0  0  0  0  0  0  0  0  0  0  0  0
  -21.2709  -26.6772   18.3255 O   0  0  0  0  0  0  0  0  0  0  0  0
  -25.5652  -23.9616   17.4529 O   0  0  0  0  0  0  0  0  0  0  0  0
  -28.8169  -22.7821   18.8573 O   0  0  0  0  0  0  0  0  0  0  0  0
  -30.7196  -10.7169   20.0931 O   0  0  0  0  0  0  0  0  0  0  0  0
  -28.9879  -28.9248   21.0187 O   0  0  0  0  0  0  0  0  0  1  0  0
  -33.0405   -8.2236   15.7571 F   0  0  0  0  0  0  0  0  0  0  0  0
  -30.2169   -8.0528   19.5523 F   0  0  0  0  0  0  0  0  0  0  0  0
  1  2  1  0  0  0  0
  1  5  2  0  0  0  0
  2  6  2  0  0  0  0
  3 10  2  0  0  0  0
  3 18  1  0  0  0  0
  4 11  1  0  0  0  0
  4 18  2  0  0  0  0
  5 20  1  0  0  0  0
  6 22  1  0  0  0  0
  7 12  2  0  0  0  0
  7 21  1  0  0  0  0
  8  9  2  0  0  0  0
  8 24  1  0  0  0  0
  9 25  1  0  0  0  0
 10 27  1  0  0  0  0
 11 27  2  0  0  0  0
 12 28  1  0  0  0  0
 13 14  2  0  0  0  0
 13 29  1  0  0  0  0
 14 30  1  0  0  0  0
 15 23  1  0  0  0  0
 15 28  2  0  0  0  0
 16 24  2  0  0  0  0
 16 26  1  0  0  0  0
 17 30  2  0  0  0  0
 17 31  1  0  0  0  0
 18 32  1  0  0  0  0
 19 32  1  0  0  0  0
 19 33  2  0  0  0  0
 19 35  1  0  0  0  0
 20 22  2  0  0  0  0
 20 40  1  0  0  0  0
 21 23  2  0  0  0  0
 21 41  1  0  0  0  0
 22 52  1  0  0  0  0
 23 42  1  0  0  0  0
 24 62  1  0  0  0  0
 25 26  2  0  0  0  0
 25 56  1  0  0  0  0
 26 73  1  0  0  0  0
 27 83  1  0  0  0  0
 28 84  1  0  0  0  0
 29 31  2  0  0  0  0
 29 83  1  0  0  0  0
 30 85  1  0  0  0  0
 31 86  1  0  0  0  0
 32 66  2  0  0  0  0
 33 67  1  0  0  0  0
 33 71  1  0  0  0  0
 34 53  1  0  0  0  0
 34 68  1  0  0  0  0
 34 77  2  0  0  0  0
 35 72  1  0  0  0  0
 35 78  2  0  0  0  0
 36 54  1  0  0  0  0
 36 74  1  0  0  0  0
 36 79  2  0  0  0  0
 37 63  1  0  0  0  0
 37 69  1  0  0  0  0
 37 80  2  0  0  0  0
 38 64  1  0  0  0  0
 38 75  1  0  0  0  0
 38 81  2  0  0  0  0
 39 70  1  0  0  0  0
 39 73  1  0  0  0  0
 39 82  2  0  0  0  0
 40 43  1  0  0  0  0
 41 54  1  0  0  0  0
 42 69  1  0  0  0  0
 43 46  1  0  0  0  0
 44 47  1  0  0  0  0
 44 49  1  0  0  0  0
 45 48  1  0  0  0  0
 45 50  1  0  0  0  0
 46 52  1  0  0  0  0
 47 53  1  0  0  0  0
 48 55  1  0  0  0  0
 49 68  1  0  0  0  0
 50 70  1  0  0  0  0
 51 55  1  0  0  0  0
 51 70  1  0  0  0  0
 52 74  1  0  0  0  0
 53 84  1  0  0  0  0
 54 69  1  0  0  0  0
 55 67  1  0  0  0  0
 57 64  1  0  0  0  0
 58 65  1  0  0  0  0
 59 65  1  0  0  0  0
 60 65  1  0  0  0  0
 61 76  1  0  0  0  0
 62 68  1  0  0  0  0
 63 65  1  0  0  0  0
 63 75  1  0  0  0  0
 64 76  1  0  0  0  0
 66 67  1  0  0  0  0
M  CHG  1  76   1
M  ISO  4  39 100  53 101  73 100  84 101
M  END
> <Batch ID>
0046

> <Smiles>
CNC(C)C(=O)NC(C(=O)N1Cc2cc([101O:1][101CH:1]3CCCN(Cc4ccc(C)c([100NH:0][100C:0](=O)N5CCCC(n6nc(-c7ccc(Oc8ccc(F)cc8F)cc7)c(C(N)=O)c6N)C5)c4)C3=O)ccc2CC1C(=O)NC1CCCc2ccccc21)C(C)(C)C

> <Shape>
0.241

> <Color>
0.084

> <Negative vol penalty>
0.000

$$$$

  -OEChem-04042322233D

 86 95  0     1  0  0  0  0  0999 V2000
  -30.2349  -24.1390   19.6307 C   0  0  0  0  0  0  0  0  0  0  0  0
  -28.8734  -24.3422   19.4298 C   0  0  0  0  0  0  0  0  0  0  0  0
  -26.4750  -20.9506   21.9743 C   0  0  0  0  0  0  0  0  0  0  0  0
  -25.7633  -21.1573   19.6748 C   0  0  0  0  0  0  0  0  0  0  0  0
  -30.8627  -24.6866   20.7487 C   0  0  0  0  0  0  0  0  0  0  0  0
  -28.1386  -25.0923   20.3474 C   0  0  0  0  0  0  0  0  0  0  0  0
  -23.4238  -28.8066   19.1306 C   0  0  0  0  0  0  0  0  0  0  0  0
  -27.7775  -20.6914   21.5479 C   0  0  0  0  0  0  0  0  0  0  0  0
  -27.0659  -20.8981   19.2483 C   0  0  0  0  0  0  0  0  0  0  0  0
  -22.0436  -28.6287   19.2149 C   0  0  0  0  0  0  0  0  0  0  0  0
  -30.1283  -19.9355   17.5441 C   0  0  0  0  0  0  0  0  0  0  0  0
  -30.2991  -19.0364   16.4914 C   0  0  0  0  0  0  0  0  0  0  0  0
  -22.0510  -29.6523   21.3992 C   0  0  0  0  0  0  0  0  0  0  0  0
  -17.4093  -23.3635   17.4618 C   0  0  0  0  0  0  0  0  0  0  0  0
  -15.5408  -21.8434   17.6476 C   0  0  0  0  0  0  0  0  0  0  0  0
  -15.2319  -24.1975   18.0945 C   0  0  0  0  0  0  0  0  0  0  0  0
  -29.2400  -17.3033   17.7998 C   0  0  0  0  0  0  0  0  0  0  0  0
  -25.4678  -21.1835   21.0377 C   0  0  0  0  0  0  0  0  0  0  0  0
  -23.6900  -22.5116   22.2959 C   0  0  0  0  0  0  0  0  0  0  0  0
  -30.1373  -25.4519   21.6754 C   0  0  0  0  0  0  0  0  0  0  0  0
  -24.1307  -29.3998   20.1865 C   0  0  0  0  0  0  0  0  0  0  0  0
  -28.7571  -25.6495   21.4795 C   0  0  0  0  0  0  0  0  0  0  0  0
  -23.4398  -29.8389   21.3248 C   0  0  0  0  0  0  0  0  0  0  0  0
  -16.8895  -22.0721   17.3749 C   0  0  0  0  0  0  0  0  0  0  0  0
  -16.5805  -24.4263   17.8217 C   0  0  0  0  0  0  0  0  0  0  0  0
  -28.0730  -20.6652   20.1849 C   0  0  0  0  0  0  0  0  0  0  0  0
  -21.3573  -29.0490   20.3505 C   0  0  0  0  0  0  0  0  0  0  0  0
  -29.5134  -19.5185   18.7247 C   0  0  0  0  0  0  0  0  0  0  0  0
  -29.8549  -17.7203   16.6193 C   0  0  0  0  0  0  0  0  0  0  0  0
  -29.0692  -18.2024   18.8525 C   0  0  0  0  0  0  0  0  0  0  0  0
  -14.7120  -22.9061   18.0075 C   0  0  0  0  0  0  0  0  0  0  0  0
  -24.1220  -21.4507   21.4775 C   0  0  0  0  0  0  0  0  0  0  0  0
  -22.3354  -22.3207   22.4190 C   0  0  0  0  0  0  0  0  0  0  0  0
  -24.4455  -23.5747   22.8914 C   0  0  0  0  0  0  0  0  0  0  0  0
  -26.4435  -28.4514   22.1500 C   0  0  0  0  0  0  0  0  0  0  0  0
  -26.3534  -31.5449   23.1218 C   0  0  0  0  0  0  0  0  0  0  0  0
  -24.5717  -34.4417   23.4059 C   0  0  0  0  0  0  0  0  0  0  0  0
  -18.2789  -19.5574   18.9896 C   0  0  0  0  0  0  0  0  0  0  0  0
  -30.8498  -25.9839   22.8935 C   0  0  0  0  0  0  0  0  0  0  0  0
  -25.6156  -29.6087   20.0689 C   0  0  0  0  0  0  0  0  0  0  0  0
  -24.1493  -30.4998   22.4773 C   0  0  0  0  0  0  0  0  0  0  0  0
  -30.0763  -27.0803   23.6213 C   0  0  0  0  0  0  0  0  0  0  0  0
  -19.0240  -18.8674   22.4021 C   0  0  0  0  0  0  0  0  0  0  0  0
  -18.1340  -25.8486   21.6066 C   0  0  0  0  0  0  0  0  0  0  0  0
  -28.6158  -26.6765   23.7971 C   0  0  0  0  0  0  0  0  0  0  0  0
  -20.3761  -19.5469   22.6260 C   0  0  0  0  0  0  0  0  0  0  0  0
  -18.8042  -27.2149   21.6661 C   0  0  0  0  0  0  0  0  0  0  0  0
  -18.9202  -18.2645   21.0029 C   0  0  0  0  0  0  0  0  0  0  0  0
  -20.5595  -19.8820   20.1254 C   0  0  0  0  0  0  0  0  0  0  0  0
  -17.2085  -25.7280   20.4043 C   0  0  0  0  0  0  0  0  0  0  0  0
  -18.5927  -27.4095   19.1607 C   0  0  0  0  0  0  0  0  0  0  0  0
  -27.9311  -26.4781   22.4394 C   0  0  1  0  0  0  0  0  0  0  0  0
  -26.3069  -29.7579   21.4206 C   0  0  1  0  0  0  0  0  0  0  0  0
  -20.6904  -20.5537   21.5031 C   0  0  2  0  0  0  0  0  0  0  0  0
  -19.5223  -27.5402   20.3601 C   0  0  1  0  0  0  0  0  0  1  0  0
  -24.7519  -36.7877   24.2783 C   0  0  0  0  0  0  0  0  0  0  0  0
  -26.0102  -30.5091   25.9712 C   0  0  0  0  0  0  0  0  0  0  0  0
  -25.2556  -32.8010   26.6392 C   0  0  0  0  0  0  0  0  0  0  0  0
  -27.5609  -32.4587   25.7496 C   0  0  0  0  0  0  0  0  0  0  0  0
  -24.1447  -35.5986   20.7155 C   0  0  0  0  0  0  0  0  0  0  0  0
  -17.7759  -20.9365   16.9885 C   0  0  0  0  0  0  0  0  0  0  0  0
  -17.1405  -25.8152   17.9132 C   0  0  0  0  0  0  0  0  0  0  0  0
  -25.5897  -32.3135   24.1730 C   0  0  1  0  0  0  0  0  0  0  0  0
  -24.9262  -35.8793   23.0712 C   0  0  2  0  0  0  0  0  0  0  0  0
  -26.0907  -32.0064   25.6125 C   0  0  0  0  0  0  0  0  0  0  0  0
  -23.1229  -20.6454   21.1071 N   0  0  0  0  0  0  0  0  0  0  0  0
  -22.0496  -21.2004   21.6954 N   0  0  0  0  0  0  0  0  0  0  0  0
  -25.6022  -30.6761   22.3176 N   0  0  0  0  0  0  0  0  0  0  0  0
  -19.2284  -19.2712   19.9844 N   0  0  0  0  0  0  0  0  0  0  0  0
  -21.3728  -23.0033   23.0746 N   0  0  0  0  0  0  0  0  0  0  0  0
  -24.9865  -23.3757   24.1689 N   0  0  0  0  0  0  0  0  0  0  0  0
  -27.5996  -27.7570   21.8488 N   0  0  0  0  0  0  0  0  0  0  0  0
  -25.6798  -33.7200   23.7963 N   0  0  0  0  0  0  0  0  0  0  0  0
  -18.6483  -20.5287   18.0671 N   0  0  0  0  0  0  0  0  0  0  0  0
  -17.9799  -26.0323   19.1420 N   0  3  2  0  0  0  0  0  0  0  0  0
  -24.0555  -36.3852   21.9726 N   0  3  0  0  0  0  0  0  0  0  0  0
  -24.6215  -24.6748   22.3147 O   0  0  0  0  0  0  0  0  0  0  0  0
  -25.5657  -28.1000   22.9296 O   0  0  0  0  0  0  0  0  0  0  0  0
  -27.5703  -31.7147   23.0133 O   0  0  0  0  0  0  0  0  0  0  0  0
  -23.4256  -34.0038   23.3323 O   0  0  0  0  0  0  0  0  0  0  0  0
  -17.1811  -18.9933   18.9312 O   0  0  0  0  0  0  0  0  0  0  0  0
  -29.3439  -20.4125   19.7685 O   0  0  0  0  0  0  0  0  0  0  0  0
  -20.0102  -28.8760   20.4355 O   0  0  0  0  0  0  0  0  0  1  0  0
  -30.0176  -16.8575   15.6078 F   0  0  0  0  0  0  0  0  0  0  0  0
  -28.4767  -17.7963   19.9838 F   0  0  0  0  0  0  0  0  0  0  0  0
  -13.0482  -22.6236   18.3453 Cl  0  0  0  0  0  0  0  0  0  0  0  0
  1  2  1  0  0  0  0
  1  5  2  0  0  0  0
  2  6  2  0  0  0  0
  3  8  2  0  0  0  0
  3 18  1  0  0  0  0
  4  9  1  0  0  0  0
  4 18  2  0  0  0  0
  5 20  1  0  0  0  0
  6 22  1  0  0  0  0
  7 10  2  0  0  0  0
  7 21  1  0  0  0  0
  8 26  1  0  0  0  0
  9 26  2  0  0  0  0
 10 27  1  0  0  0  0
 11 12  2  0  0  0  0
 11 28  1  0  0  0  0
 12 29  1  0  0  0  0
 13 23  1  0  0  0  0
 13 27  2  0  0  0  0
 14 24  1  0  0  0  0
 14 25  2  0  0  0  0
 15 24  2  0  0  0  0
 15 31  1  0  0  0  0
 16 25  1  0  0  0  0
 16 31  2  0  0  0  0
 17 29  2  0  0  0  0
 17 30  1  0  0  0  0
 18 32  1  0  0  0  0
 19 32  1  0  0  0  0
 19 33  2  0  0  0  0
 19 34  1  0  0  0  0
 20 22  2  0  0  0  0
 20 39  1  0  0  0  0
 21 23  2  0  0  0  0
 21 40  1  0  0  0  0
 22 52  1  0  0  0  0
 23 41  1  0  0  0  0
 24 61  1  0  0  0  0
 25 62  1  0  0  0  0
 26 82  1  0  0  0  0
 27 83  1  0  0  0  0
 28 30  2  0  0  0  0
 28 82  1  0  0  0  0
 29 84  1  0  0  0  0
 30 85  1  0  0  0  0
 31 86  1  0  0  0  0
 32 66  2  0  0  0  0
 33 67  1  0  0  0  0
 33 70  1  0  0  0  0
 34 71  1  0  0  0  0
 34 77  2  0  0  0  0
 35 53  1  0  0  0  0
 35 72  1  0  0  0  0
 35 78  2  0  0  0  0
 36 63  1  0  0  0  0
 36 68  1  0  0  0  0
 36 79  2  0  0  0  0
 37 64  1  0  0  0  0
 37 73  1  0  0  0  0
 37 80  2  0  0  0  0
 38 69  1  0  0  0  0
 38 74  1  0  0  0  0
 38 81  2  0  0  0  0
 39 42  1  0  0  0  0
 40 53  1  0  0  0  0
 41 68  1  0  0  0  0
 42 45  1  0  0  0  0
 43 46  1  0  0  0  0
 43 48  1  0  0  0  0
 44 47  1  0  0  0  0
 44 50  1  0  0  0  0
 45 52  1  0  0  0  0
 46 54  1  0  0  0  0
 47 55  1  0  0  0  0
 48 69  1  0  0  0  0
 49 54  1  0  0  0  0
 49 69  1  0  0  0  0
 50 75  1  0  0  0  0
 51 55  1  0  0  0  0
 51 75  1  0  0  0  0
 52 72  1  0  0  0  0
 53 68  1  0  0  0  0
 54 67  1  0  0  0  0
 55 83  1  0  0  0  0
 56 64  1  0  0  0  0
 57 65  1  0  0  0  0
 58 65  1  0  0  0  0
 59 65  1  0  0  0  0
 60 76  1  0  0  0  0
 61 74  1  0  0  0  0
 62 75  1  0  0  0  0
 63 65  1  0  0  0  0
 63 73  1  0  0  0  0
 64 76  1  0  0  0  0
 66 67  1  0  0  0  0
M  CHG  2  75   1  76   1
M  ISO  4  38 100  55 101  74 100  83 101
M  END
> <Batch ID>
0046

> <Smiles>
CNC(C)C(=O)NC(C(=O)N1Cc2cc([101O:1][101CH:1]3CCCN(Cc4cc(Cl)cc(C[100NH:0][100C:0](=O)N5CCCC(n6nc(-c7ccc(Oc8ccc(F)cc8F)cc7)c(C(N)=O)c6N)C5)c4)C3)ccc2CC1C(=O)NC1CCCc2ccccc21)C(C)(C)C

> <Shape>
0.204

> <Color>
0.058

> <Negative vol penalty>
0.000

$$$$

  -OEChem-04042322233D

 89 98  0     1  0  0  0  0  0999 V2000
  -20.7152  -33.1769   24.8481 C   0  0  0  0  0  0  0  0  0  0  0  0
  -21.9541  -32.7332   24.3965 C   0  0  0  0  0  0  0  0  0  0  0  0
  -24.2261   -9.8909   20.5200 C   0  0  0  0  0  0  0  0  0  0  0  0
  -22.5257  -10.5111   22.1203 C   0  0  0  0  0  0  0  0  0  0  0  0
  -19.6783  -32.2654   25.0430 C   0  0  0  0  0  0  0  0  0  0  0  0
  -22.1570  -31.3775   24.1407 C   0  0  0  0  0  0  0  0  0  0  0  0
  -25.6770  -28.9445   19.7594 C   0  0  0  0  0  0  0  0  0  0  0  0
  -27.6199  -21.4319   19.6630 C   0  0  0  0  0  0  0  0  0  0  0  0
  -26.5611  -20.5489   19.4515 C   0  0  0  0  0  0  0  0  0  0  0  0
  -23.6895   -8.6054   20.4479 C   0  0  0  0  0  0  0  0  0  0  0  0
  -21.9890   -9.2256   22.0482 C   0  0  0  0  0  0  0  0  0  0  0  0
  -26.9722  -28.4288   19.7753 C   0  0  0  0  0  0  0  0  0  0  0  0
  -22.6837   -6.1621   23.2985 C   0  0  0  0  0  0  0  0  0  0  0  0
  -22.3428   -5.5340   24.4963 C   0  0  0  0  0  0  0  0  0  0  0  0
  -26.0767  -26.2043   20.0379 C   0  0  0  0  0  0  0  0  0  0  0  0
  -28.1307  -18.8054   18.8735 C   0  0  0  0  0  0  0  0  0  0  0  0
  -20.0478   -5.3728   23.7587 C   0  0  0  0  0  0  0  0  0  0  0  0
  -23.6443  -10.8437   21.3562 C   0  0  0  0  0  0  0  0  0  0  0  0
  -25.5006  -12.5279   21.8309 C   0  0  0  0  0  0  0  0  0  0  0  0
  -19.8658  -30.8993   24.7802 C   0  0  0  0  0  0  0  0  0  0  0  0
  -24.5704  -28.0938   19.8938 C   0  0  0  0  0  0  0  0  0  0  0  0
  -21.1220  -30.4468   24.3336 C   0  0  0  0  0  0  0  0  0  0  0  0
  -24.7685  -26.7115   20.0208 C   0  0  0  0  0  0  0  0  0  0  0  0
  -28.9341  -21.0018   19.4798 C   0  0  0  0  0  0  0  0  0  0  0  0
  -29.1895  -19.6885   19.0851 C   0  0  0  0  0  0  0  0  0  0  0  0
  -26.8165  -19.2356   19.0567 C   0  0  0  0  0  0  0  0  0  0  0  0
  -22.5709   -8.2728   21.2119 C   0  0  0  0  0  0  0  0  0  0  0  0
  -27.1724  -27.0588   19.9174 C   0  0  0  0  0  0  0  0  0  0  0  0
  -21.7067   -6.3956   22.3307 C   0  0  0  0  0  0  0  0  0  0  0  0
  -21.0249   -5.1394   24.7264 C   0  0  0  0  0  0  0  0  0  0  0  0
  -20.3887   -6.0010   22.5608 C   0  0  0  0  0  0  0  0  0  0  0  0
  -24.1985  -12.1716   21.4316 C   0  0  0  0  0  0  0  0  0  0  0  0
  -25.5281  -13.8973   21.7296 C   0  0  0  0  0  0  0  0  0  0  0  0
  -29.1066  -24.2655   19.7516 C   0  0  0  0  0  0  0  0  0  0  0  0
  -26.5880  -11.6954   22.2553 C   0  0  0  0  0  0  0  0  0  0  0  0
  -22.2174  -27.7914   22.0094 C   0  0  0  0  0  0  0  0  0  0  0  0
  -21.1088  -25.6089   19.8810 C   0  0  0  0  0  0  0  0  0  0  0  0
  -21.7911  -23.4288   17.3456 C   0  0  0  0  0  0  0  0  0  0  0  0
  -24.3793  -18.6025   18.9828 C   0  0  0  0  0  0  0  0  0  0  0  0
  -18.7294  -29.9453   25.0510 C   0  0  0  0  0  0  0  0  0  0  0  0
  -23.1789  -28.6629   19.8479 C   0  0  0  0  0  0  0  0  0  0  0  0
  -23.6134  -25.7533   20.1482 C   0  0  0  0  0  0  0  0  0  0  0  0
  -18.9138  -28.5775   24.3989 C   0  0  0  0  0  0  0  0  0  0  0  0
  -30.0416  -24.3661   22.5510 C   0  0  0  0  0  0  0  0  0  0  0  0
  -21.7832  -17.2216   20.9904 C   0  0  0  0  0  0  0  0  0  0  0  0
  -20.3263  -28.0558   24.6430 C   0  0  0  0  0  0  0  0  0  0  0  0
  -29.7134  -25.6242   21.7491 C   0  0  0  0  0  0  0  0  0  0  0  0
  -22.2872  -15.8140   21.3170 C   0  0  0  0  0  0  0  0  0  0  0  0
  -29.5486  -23.0842   21.8855 C   0  0  0  0  0  0  0  0  0  0  0  0
  -22.1632  -17.6454   19.5727 C   0  0  0  0  0  0  0  0  0  0  0  0
  -24.0947  -16.1161   19.5766 C   0  0  0  0  0  0  0  0  0  0  0  0
  -21.3736  -28.9876   24.0213 C   0  0  1  0  0  0  0  0  0  0  0  0
  -28.6479  -25.3738   20.6896 C   0  0  1  0  0  0  0  0  0  1  0  0
  -22.1420  -27.7601   20.5091 C   0  0  1  0  0  0  0  0  0  0  0  0
  -23.7921  -15.6705   21.0166 C   0  0  2  0  0  0  0  0  0  0  0  0
  -20.6867  -21.7580   15.8335 C   0  0  0  0  0  0  0  0  0  0  0  0
  -31.1899  -18.6198   20.1752 C   0  0  0  0  0  0  0  0  0  0  0  0
  -30.6865  -18.1674   17.7518 C   0  0  0  0  0  0  0  0  0  0  0  0
  -20.9790  -23.6130   22.1852 C   0  0  0  0  0  0  0  0  0  0  0  0
  -20.8013  -21.7767   20.4927 C   0  0  0  0  0  0  0  0  0  0  0  0
  -19.0298  -23.5283   20.6206 C   0  0  0  0  0  0  0  0  0  0  0  0
  -22.5474  -24.9490   14.9215 C   0  0  0  0  0  0  0  0  0  0  0  0
  -30.0571  -21.9707   19.7128 C   0  0  0  0  0  0  0  0  0  0  0  0
  -21.2972  -24.1253   19.6748 C   0  0  1  0  0  0  0  0  0  0  0  0
  -21.1216  -23.2056   16.0015 C   0  0  2  0  0  0  0  0  0  0  0  0
  -30.5884  -19.2052   18.8848 C   0  0  0  0  0  0  0  0  0  0  0  0
  -20.5488  -23.2788   20.7429 C   0  0  0  0  0  0  0  0  0  0  0  0
  -23.4528  -13.2294   21.1014 N   0  0  0  0  0  0  0  0  0  0  0  0
  -24.2890  -14.2638   21.2931 N   0  0  0  0  0  0  0  0  0  0  0  0
  -29.6141  -23.1543   20.4303 N   0  0  0  0  0  0  0  0  0  0  0  0
  -22.2722  -26.3589   20.1041 N   0  0  0  0  0  0  0  0  0  0  0  0
  -23.6038  -17.4865   19.3622 N   0  0  0  0  0  0  0  0  0  0  0  0
  -26.4911  -14.8118   21.9723 N   0  0  0  0  0  0  0  0  0  0  0  0
  -26.7111  -11.4013   23.6201 N   0  0  0  0  0  0  0  0  0  0  0  0
  -25.7413  -18.3377   18.8436 N   0  0  0  0  0  0  0  0  0  0  0  0
  -21.4482  -28.7812   22.5909 N   0  0  0  0  0  0  0  0  0  0  0  0
  -20.8904  -23.8493   18.3012 N   0  0  0  0  0  0  0  0  0  0  0  0
  -22.0580  -23.5467   14.8934 N   0  3  0  0  0  0  0  0  0  0  0  0
  -29.0147  -24.3656   18.5294 O   0  0  0  0  0  0  0  0  0  0  0  0
  -27.4351  -11.2396   21.4502 O   0  0  0  0  0  0  0  0  0  0  0  0
  -22.9203  -26.9769   22.5961 O   0  0  0  0  0  0  0  0  0  0  0  0
  -19.9720  -26.0859   19.8383 O   0  0  0  0  0  0  0  0  0  0  0  0
  -22.9921  -23.2448   17.5302 O   0  0  0  0  0  0  0  0  0  0  0  0
  -23.8765  -19.7175   18.8216 O   0  0  0  0  0  0  0  0  0  0  0  0
  -22.0469   -7.0186   21.1417 O   0  0  0  0  0  0  0  0  0  0  0  0
  -28.4355  -26.5528   19.9339 O   0  0  0  0  0  0  0  0  0  1  0  0
  -20.6979   -4.5348   25.8762 F   0  0  0  0  0  0  0  0  0  0  0  0
  -19.4460   -6.2215   21.6343 F   0  0  0  0  0  0  0  0  0  0  0  0
  -31.4565  -20.2169   18.5155 F   0  0  0  0  0  0  0  0  0  0  0  0
  1  2  1  0  0  0  0
  1  5  2  0  0  0  0
  2  6  2  0  0  0  0
  3 10  2  0  0  0  0
  3 18  1  0  0  0  0
  4 11  1  0  0  0  0
  4 18  2  0  0  0  0
  5 20  1  0  0  0  0
  6 22  1  0  0  0  0
  7 12  2  0  0  0  0
  7 21  1  0  0  0  0
  8  9  2  0  0  0  0
  8 24  1  0  0  0  0
  9 26  1  0  0  0  0
 10 27  1  0  0  0  0
 11 27  2  0  0  0  0
 12 28  1  0  0  0  0
 13 14  2  0  0  0  0
 13 29  1  0  0  0  0
 14 30  1  0  0  0  0
 15 23  1  0  0  0  0
 15 28  2  0  0  0  0
 16 25  1  0  0  0  0
 16 26  2  0  0  0  0
 17 30  2  0  0  0  0
 17 31  1  0  0  0  0
 18 32  1  0  0  0  0
 19 32  1  0  0  0  0
 19 33  2  0  0  0  0
 19 35  1  0  0  0  0
 20 22  2  0  0  0  0
 20 40  1  0  0  0  0
 21 23  2  0  0  0  0
 21 41  1  0  0  0  0
 22 52  1  0  0  0  0
 23 42  1  0  0  0  0
 24 25  2  0  0  0  0
 24 63  1  0  0  0  0
 25 66  1  0  0  0  0
 26 75  1  0  0  0  0
 27 85  1  0  0  0  0
 28 86  1  0  0  0  0
 29 31  2  0  0  0  0
 29 85  1  0  0  0  0
 30 87  1  0  0  0  0
 31 88  1  0  0  0  0
 32 68  2  0  0  0  0
 33 69  1  0  0  0  0
 33 73  1  0  0  0  0
 34 53  1  0  0  0  0
 34 70  1  0  0  0  0
 34 79  2  0  0  0  0
 35 74  1  0  0  0  0
 35 80  2  0  0  0  0
 36 54  1  0  0  0  0
 36 76  1  0  0  0  0
 36 81  2  0  0  0  0
 37 64  1  0  0  0  0
 37 71  1  0  0  0  0
 37 82  2  0  0  0  0
 38 65  1  0  0  0  0
 38 77  1  0  0  0  0
 38 83  2  0  0  0  0
 39 72  1  0  0  0  0
 39 75  1  0  0  0  0
 39 84  2  0  0  0  0
 40 43  1  0  0  0  0
 41 54  1  0  0  0  0
 42 71  1  0  0  0  0
 43 46  1  0  0  0  0
 44 47  1  0  0  0  0
 44 49  1  0  0  0  0
 45 48  1  0  0  0  0
 45 50  1  0  0  0  0
 46 52  1  0  0  0  0
 47 53  1  0  0  0  0
 48 55  1  0  0  0  0
 49 70  1  0  0  0  0
 50 72  1  0  0  0  0
 51 55  1  0  0  0  0
 51 72  1  0  0  0  0
 52 76  1  0  0  0  0
 53 86  1  0  0  0  0
 54 71  1  0  0  0  0
 55 69  1  0  0  0  0
 56 65  1  0  0  0  0
 57 66  1  0  0  0  0
 58 66  1  0  0  0  0
 59 67  1  0  0  0  0
 60 67  1  0  0  0  0
 61 67  1  0  0  0  0
 62 78  1  0  0  0  0
 63 70  1  0  0  0  0
 64 67  1  0  0  0  0
 64 77  1  0  0  0  0
 65 78  1  0  0  0  0
 66 89  1  0  0  0  0
 68 69  1  0  0  0  0
M  CHG  1  78   1
M  ISO  4  39 100  53 101  75 100  86 101
M  END
> <Batch ID>
0046

> <Smiles>
CNC(C)C(=O)NC(C(=O)N1Cc2cc([101O:1][101CH:1]3CCCN(Cc4ccc([100NH:0][100C:0](=O)N5CCCC(n6nc(-c7ccc(Oc8ccc(F)cc8F)cc7)c(C(N)=O)c6N)C5)cc4C(C)(C)F)C3=O)ccc2CC1C(=O)NC1CCCc2ccccc21)C(C)(C)C

> <Shape>
0.235

> <Color>
0.098

> <Negative vol penalty>
0.000

$$$$

  -OEChem-04042322233D

 89 98  0     1  0  0  0  0  0999 V2000
  -20.9707  -30.9277   23.2659 C   0  0  0  0  0  0  0  0  0  0  0  0
  -21.9702  -30.0539   23.6787 C   0  0  0  0  0  0  0  0  0  0  0  0
  -30.5589  -23.8220   19.7978 C   0  0  0  0  0  0  0  0  0  0  0  0
  -28.5044  -23.1103   20.8511 C   0  0  0  0  0  0  0  0  0  0  0  0
  -19.7654  -30.4233   22.7821 C   0  0  0  0  0  0  0  0  0  0  0  0
  -21.7695  -28.6756   23.5966 C   0  0  0  0  0  0  0  0  0  0  0  0
  -23.4510  -20.9400   24.3424 C   0  0  0  0  0  0  0  0  0  0  0  0
  -24.9442  -11.4241   20.0680 C   0  0  0  0  0  0  0  0  0  0  0  0
  -25.9330  -12.3080   19.6361 C   0  0  0  0  0  0  0  0  0  0  0  0
  -30.0234  -25.0968   19.6147 C   0  0  0  0  0  0  0  0  0  0  0  0
  -27.9689  -24.3851   20.6680 C   0  0  0  0  0  0  0  0  0  0  0  0
  -22.8672  -19.6754   24.4036 C   0  0  0  0  0  0  0  0  0  0  0  0
  -28.1989  -27.4170   22.1429 C   0  0  0  0  0  0  0  0  0  0  0  0
  -27.5227  -27.9947   23.2175 C   0  0  0  0  0  0  0  0  0  0  0  0
  -21.7744  -20.0844   22.2922 C   0  0  0  0  0  0  0  0  0  0  0  0
  -25.0982  -13.9865   21.1602 C   0  0  0  0  0  0  0  0  0  0  0  0
  -25.5151  -28.1319   21.8804 C   0  0  0  0  0  0  0  0  0  0  0  0
  -29.7994  -22.8286   20.4160 C   0  0  0  0  0  0  0  0  0  0  0  0
  -31.5049  -21.1701   21.3370 C   0  0  0  0  0  0  0  0  0  0  0  0
  -19.5458  -29.0380   22.7061 C   0  0  0  0  0  0  0  0  0  0  0  0
  -23.1917  -21.7920   23.2592 C   0  0  0  0  0  0  0  0  0  0  0  0
  -20.5690  -28.1469   23.0888 C   0  0  0  0  0  0  0  0  0  0  0  0
  -22.3581  -21.3584   22.2185 C   0  0  0  0  0  0  0  0  0  0  0  0
  -24.0324  -11.8213   21.0460 C   0  0  0  0  0  0  0  0  0  0  0  0
  -24.1094  -13.1025   21.5922 C   0  0  0  0  0  0  0  0  0  0  0  0
  -26.0100  -13.5892   20.1822 C   0  0  0  0  0  0  0  0  0  0  0  0
  -28.7284  -25.3784   20.0498 C   0  0  0  0  0  0  0  0  0  0  0  0
  -22.0265  -19.2485   23.3798 C   0  0  0  0  0  0  0  0  0  0  0  0
  -27.5332  -27.1968   20.9371 C   0  0  0  0  0  0  0  0  0  0  0  0
  -26.1808  -28.3521   23.0862 C   0  0  0  0  0  0  0  0  0  0  0  0
  -26.1913  -27.5542   20.8058 C   0  0  0  0  0  0  0  0  0  0  0  0
  -30.3518  -21.5114   20.6050 C   0  0  0  0  0  0  0  0  0  0  0  0
  -31.6005  -19.8057   21.2105 C   0  0  0  0  0  0  0  0  0  0  0  0
  -22.4995  -15.9116   22.9490 C   0  0  0  0  0  0  0  0  0  0  0  0
  -32.4086  -22.0111   22.0661 C   0  0  0  0  0  0  0  0  0  0  0  0
  -21.8509  -24.6549   22.9281 C   0  0  0  0  0  0  0  0  0  0  0  0
  -22.8298  -24.3266   19.8530 C   0  0  0  0  0  0  0  0  0  0  0  0
  -22.9193  -21.6967   17.3846 C   0  0  0  0  0  0  0  0  0  0  0  0
  -27.2395  -15.7966   20.1783 C   0  0  0  0  0  0  0  0  0  0  0  0
  -18.2255  -28.5465   22.1672 C   0  0  0  0  0  0  0  0  0  0  0  0
  -23.8504  -23.1427   23.1951 C   0  0  0  0  0  0  0  0  0  0  0  0
  -22.0639  -22.2271   21.0238 C   0  0  0  0  0  0  0  0  0  0  0  0
  -17.9383  -27.0937   22.5321 C   0  0  0  0  0  0  0  0  0  0  0  0
  -20.7615  -15.7341   20.5963 C   0  0  0  0  0  0  0  0  0  0  0  0
  -30.0442  -16.7946   17.7572 C   0  0  0  0  0  0  0  0  0  0  0  0
  -19.1442  -26.2267   22.2023 C   0  0  0  0  0  0  0  0  0  0  0  0
  -20.4639  -16.7524   21.6770 C   0  0  0  0  0  0  0  0  0  0  0  0
  -30.9115  -17.6235   18.7017 C   0  0  0  0  0  0  0  0  0  0  0  0
  -21.3446  -14.4802   21.2229 C   0  0  0  0  0  0  0  0  0  0  0  0
  -29.1626  -15.8019   18.5043 C   0  0  0  0  0  0  0  0  0  0  0  0
  -28.6612  -17.8181   19.8969 C   0  0  0  0  0  0  0  0  0  0  0  0
  -20.3614  -26.6440   23.0373 C   0  0  1  0  0  0  0  0  0  0  0  0
  -21.7553  -17.1146   22.3837 C   0  0  1  0  0  0  0  0  0  1  0  0
  -23.1082  -24.1274   22.2968 C   0  0  1  0  0  0  0  0  0  0  0  0
  -30.1810  -18.0202   19.9999 C   0  0  2  0  0  0  0  0  0  0  0  0
  -24.4466  -21.3510   15.4236 C   0  0  0  0  0  0  0  0  0  0  0  0
  -20.6549  -25.7709   18.2738 C   0  0  0  0  0  0  0  0  0  0  0  0
  -21.0827  -24.1942   16.3766 C   0  0  0  0  0  0  0  0  0  0  0  0
  -22.8936  -25.7205   17.1602 C   0  0  0  0  0  0  0  0  0  0  0  0
  -23.6840  -18.9913   18.3091 C   0  0  0  0  0  0  0  0  0  0  0  0
  -23.1403  -13.5514   22.6474 C   0  0  0  0  0  0  0  0  0  0  0  0
  -22.2274  -23.7485   18.5952 C   0  0  1  0  0  0  0  0  0  0  0  0
  -24.1520  -20.9769   16.8679 C   0  0  2  0  0  0  0  0  0  0  0  0
  -22.9821  -10.8577   21.4919 C   0  0  0  0  0  0  0  0  0  0  0  0
  -21.7076  -24.8486   17.6272 C   0  0  0  0  0  0  0  0  0  0  0  0
  -29.7576  -20.4495   20.0542 N   0  0  0  0  0  0  0  0  0  0  0  0
  -30.5404  -19.4276   20.4402 N   0  0  0  0  0  0  0  0  0  0  0  0
  -22.3812  -14.7219   22.2279 N   0  0  0  0  0  0  0  0  0  0  0  0
  -22.7267  -23.5416   21.0101 N   0  0  0  0  0  0  0  0  0  0  0  0
  -28.3327  -16.4329   19.5408 N   0  0  0  0  0  0  0  0  0  0  0  0
  -32.4871  -18.9047   21.6842 N   0  0  0  0  0  0  0  0  0  0  0  0
  -32.1629  -23.3906   22.0932 N   0  0  0  0  0  0  0  0  0  0  0  0
  -27.0158  -14.4871   19.7450 N   0  0  0  0  0  0  0  0  0  0  0  0
  -21.5301  -25.9448   22.5503 N   0  0  0  0  0  0  0  0  0  0  0  0
  -23.2453  -22.8772   18.0182 N   0  0  0  0  0  0  0  0  0  0  0  0
  -23.9586  -19.5010   16.9410 N   0  3  0  0  0  0  0  0  0  0  0  0
  -23.2080  -16.0423   23.9505 O   0  0  0  0  0  0  0  0  0  0  0  0
  -33.4138  -21.5547   22.6618 O   0  0  0  0  0  0  0  0  0  0  0  0
  -21.2179  -23.9438   23.6997 O   0  0  0  0  0  0  0  0  0  0  0  0
  -23.3781  -25.4307   19.8087 O   0  0  0  0  0  0  0  0  0  0  0  0
  -21.7809  -21.2577   17.2372 O   0  0  0  0  0  0  0  0  0  0  0  0
  -26.5722  -16.3678   21.0434 O   0  0  0  0  0  0  0  0  0  0  0  0
  -28.2057  -26.6224   19.8715 O   0  0  0  0  0  0  0  0  0  0  0  0
  -21.4549  -18.0149   23.4373 O   0  0  0  0  0  0  0  0  0  1  0  0
  -25.5312  -28.9055   24.1187 F   0  0  0  0  0  0  0  0  0  0  0  0
  -25.5461  -27.3440   19.6502 F   0  0  0  0  0  0  0  0  0  0  0  0
  -23.0457   -9.6500   20.8586 F   0  0  0  0  0  0  0  0  0  0  0  0
  -23.0404  -10.5665   22.8243 F   0  0  0  0  0  0  0  0  0  0  0  0
  -21.7186  -11.3223   21.2718 F   0  0  0  0  0  0  0  0  0  0  0  0
  1  2  1  0  0  0  0
  1  5  2  0  0  0  0
  2  6  2  0  0  0  0
  3 10  2  0  0  0  0
  3 18  1  0  0  0  0
  4 11  1  0  0  0  0
  4 18  2  0  0  0  0
  5 20  1  0  0  0  0
  6 22  1  0  0  0  0
  7 12  2  0  0  0  0
  7 21  1  0  0  0  0
  8  9  2  0  0  0  0
  8 24  1  0  0  0  0
  9 26  1  0  0  0  0
 10 27  1  0  0  0  0
 11 27  2  0  0  0  0
 12 28  1  0  0  0  0
 13 14  2  0  0  0  0
 13 29  1  0  0  0  0
 14 30  1  0  0  0  0
 15 23  1  0  0  0  0
 15 28  2  0  0  0  0
 16 25  1  0  0  0  0
 16 26  2  0  0  0  0
 17 30  2  0  0  0  0
 17 31  1  0  0  0  0
 18 32  1  0  0  0  0
 19 32  1  0  0  0  0
 19 33  2  0  0  0  0
 19 35  1  0  0  0  0
 20 22  2  0  0  0  0
 20 40  1  0  0  0  0
 21 23  2  0  0  0  0
 21 41  1  0  0  0  0
 22 52  1  0  0  0  0
 23 42  1  0  0  0  0
 24 25  2  0  0  0  0
 24 64  1  0  0  0  0
 25 61  1  0  0  0  0
 26 73  1  0  0  0  0
 27 83  1  0  0  0  0
 28 84  1  0  0  0  0
 29 31  2  0  0  0  0
 29 83  1  0  0  0  0
 30 85  1  0  0  0  0
 31 86  1  0  0  0  0
 32 66  2  0  0  0  0
 33 67  1  0  0  0  0
 33 71  1  0  0  0  0
 34 53  1  0  0  0  0
 34 68  1  0  0  0  0
 34 77  2  0  0  0  0
 35 72  1  0  0  0  0
 35 78  2  0  0  0  0
 36 54  1  0  0  0  0
 36 74  1  0  0  0  0
 36 79  2  0  0  0  0
 37 62  1  0  0  0  0
 37 69  1  0  0  0  0
 37 80  2  0  0  0  0
 38 63  1  0  0  0  0
 38 75  1  0  0  0  0
 38 81  2  0  0  0  0
 39 70  1  0  0  0  0
 39 73  1  0  0  0  0
 39 82  2  0  0  0  0
 40 43  1  0  0  0  0
 41 54  1  0  0  0  0
 42 69  1  0  0  0  0
 43 46  1  0  0  0  0
 44 47  1  0  0  0  0
 44 49  1  0  0  0  0
 45 48  1  0  0  0  0
 45 50  1  0  0  0  0
 46 52  1  0  0  0  0
 47 53  1  0  0  0  0
 48 55  1  0  0  0  0
 49 68  1  0  0  0  0
 50 70  1  0  0  0  0
 51 55  1  0  0  0  0
 51 70  1  0  0  0  0
 52 74  1  0  0  0  0
 53 84  1  0  0  0  0
 54 69  1  0  0  0  0
 55 67  1  0  0  0  0
 56 63  1  0  0  0  0
 57 65  1  0  0  0  0
 58 65  1  0  0  0  0
 59 65  1  0  0  0  0
 60 76  1  0  0  0  0
 61 68  1  0  0  0  0
 62 65  1  0  0  0  0
 62 75  1  0  0  0  0
 63 76  1  0  0  0  0
 64 87  1  0  0  0  0
 64 88  1  0  0  0  0
 64 89  1  0  0  0  0
 66 67  1  0  0  0  0
M  CHG  1  76   1
M  ISO  4  39 100  53 101  73 100  84 101
M  END
> <Batch ID>
0046

> <Smiles>
CNC(C)C(=O)NC(C(=O)N1Cc2cc([101O:1][101CH:1]3CCCN(Cc4cc([100NH:0][100C:0](=O)N5CCCC(n6nc(-c7ccc(Oc8ccc(F)cc8F)cc7)c(C(N)=O)c6N)C5)ccc4C(F)(F)F)C3=O)ccc2CC1C(=O)NC1CCCc2ccccc21)C(C)(C)C

> <Shape>
0.202

> <Color>
0.073

> <Negative vol penalty>
0.000

$$$$

  -OEChem-04042322233D

 84 92  0     1  0  0  0  0  0999 V2000
  -32.6412  -26.2633   17.5210 C   0  0  0  0  0  0  0  0  0  0  0  0
  -31.3408  -25.9814   17.9269 C   0  0  0  0  0  0  0  0  0  0  0  0
  -24.6256   -9.2111   21.9708 C   0  0  0  0  0  0  0  0  0  0  0  0
  -23.0233  -10.3837   20.5944 C   0  0  0  0  0  0  0  0  0  0  0  0
  -33.4486  -27.0926   18.2984 C   0  0  0  0  0  0  0  0  0  0  0  0
  -30.8473  -26.5277   19.1112 C   0  0  0  0  0  0  0  0  0  0  0  0
  -26.1643  -28.3836   18.5910 C   0  0  0  0  0  0  0  0  0  0  0  0
  -22.9274  -19.3423   18.7082 C   0  0  0  0  0  0  0  0  0  0  0  0
  -23.8323  -18.3011   18.9143 C   0  0  0  0  0  0  0  0  0  0  0  0
  -23.5931   -8.4613   22.5340 C   0  0  0  0  0  0  0  0  0  0  0  0
  -21.9907   -9.6338   21.1576 C   0  0  0  0  0  0  0  0  0  0  0  0
  -25.1135  -27.4674   18.5843 C   0  0  0  0  0  0  0  0  0  0  0  0
  -21.6994   -5.7936   21.6796 C   0  0  0  0  0  0  0  0  0  0  0  0
  -21.8943   -4.4187   21.8118 C   0  0  0  0  0  0  0  0  0  0  0  0
  -24.6607  -27.9788   20.8979 C   0  0  0  0  0  0  0  0  0  0  0  0
  -25.0137  -19.6486   20.5347 C   0  0  0  0  0  0  0  0  0  0  0  0
  -21.6142   -4.6091   24.2039 C   0  0  0  0  0  0  0  0  0  0  0  0
  -24.3407  -10.1724   21.0010 C   0  0  0  0  0  0  0  0  0  0  0  0
  -26.1600  -10.6316   19.2727 C   0  0  0  0  0  0  0  0  0  0  0  0
  -32.9615  -27.6572   19.4878 C   0  0  0  0  0  0  0  0  0  0  0  0
  -26.4787  -29.0975   19.7563 C   0  0  0  0  0  0  0  0  0  0  0  0
  -31.6493  -27.3643   19.9059 C   0  0  0  0  0  0  0  0  0  0  0  0
  -25.7144  -28.9053   20.9161 C   0  0  0  0  0  0  0  0  0  0  0  0
  -23.0656  -20.5368   19.4153 C   0  0  0  0  0  0  0  0  0  0  0  0
  -24.8754  -18.4542   19.8276 C   0  0  0  0  0  0  0  0  0  0  0  0
  -22.2757   -8.6726   22.1274 C   0  0  0  0  0  0  0  0  0  0  0  0
  -24.3633  -27.2628   19.7386 C   0  0  0  0  0  0  0  0  0  0  0  0
  -21.4620   -6.5762   22.8096 C   0  0  0  0  0  0  0  0  0  0  0  0
  -21.8516   -3.8265   23.0739 C   0  0  0  0  0  0  0  0  0  0  0  0
  -24.1087  -20.6899   20.3285 C   0  0  0  0  0  0  0  0  0  0  0  0
  -21.4193   -5.9839   24.0717 C   0  0  0  0  0  0  0  0  0  0  0  0
  -25.4068  -10.9477   20.4193 C   0  0  0  0  0  0  0  0  0  0  0  0
  -27.0390  -11.6786   19.1399 C   0  0  0  0  0  0  0  0  0  0  0  0
  -26.0729   -9.4933   18.4053 C   0  0  0  0  0  0  0  0  0  0  0  0
  -29.0218  -29.2861   21.6539 C   0  0  0  0  0  0  0  0  0  0  0  0
  -27.2957  -31.6310   23.0837 C   0  0  0  0  0  0  0  0  0  0  0  0
  -22.7254  -24.0615   19.4462 C   0  0  0  0  0  0  0  0  0  0  0  0
  -24.2329  -32.9915   23.7279 C   0  0  0  0  0  0  0  0  0  0  0  0
  -26.8866  -17.3855   20.9043 C   0  0  0  0  0  0  0  0  0  0  0  0
  -33.8873  -28.5096   20.3191 C   0  0  0  0  0  0  0  0  0  0  0  0
  -27.5984  -30.1017   19.7396 C   0  0  0  0  0  0  0  0  0  0  0  0
  -25.9984  -29.6615   22.1873 C   0  0  0  0  0  0  0  0  0  0  0  0
  -33.1638  -29.3499   21.3682 C   0  0  0  0  0  0  0  0  0  0  0  0
  -29.3653  -14.9667   21.7305 C   0  0  0  0  0  0  0  0  0  0  0  0
  -32.1440  -28.5015   22.1213 C   0  0  0  0  0  0  0  0  0  0  0  0
  -28.7023  -13.6332   21.3779 C   0  0  0  0  0  0  0  0  0  0  0  0
  -28.3624  -15.9632   22.3093 C   0  0  0  0  0  0  0  0  0  0  0  0
  -26.5021  -14.8529   21.1364 C   0  0  0  0  0  0  0  0  0  0  0  0
  -31.0698  -27.9579   21.1715 C   0  0  1  0  0  0  0  0  0  0  0  0
  -28.1571  -30.3968   21.1282 C   0  0  1  0  0  0  0  0  0  0  0  0
  -27.4598  -13.8391   20.4894 C   0  0  2  0  0  0  0  0  0  0  0  0
  -23.1377  -34.8854   24.9571 C   0  0  0  0  0  0  0  0  0  0  0  0
  -27.7108  -30.1555   25.7220 C   0  0  0  0  0  0  0  0  0  0  0  0
  -25.8553  -31.5234   26.6987 C   0  0  0  0  0  0  0  0  0  0  0  0
  -27.9260  -32.6425   25.8726 C   0  0  0  0  0  0  0  0  0  0  0  0
  -23.4268  -22.7486   17.4371 C   0  0  0  0  0  0  0  0  0  0  0  0
  -23.1158  -34.1198   21.2303 C   0  0  0  0  0  0  0  0  0  0  0  0
  -22.0882  -21.6543   19.1918 C   0  0  0  0  0  0  0  0  0  0  0  0
  -23.4535  -25.2506   18.8557 C   0  0  0  0  0  0  0  0  0  1  0  0
  -26.2860  -31.6831   24.2047 C   0  0  1  0  0  0  0  0  0  0  0  0
  -23.7248  -34.4189   23.6341 C   0  0  2  0  0  0  0  0  0  0  0  0
  -26.9401  -31.4853   25.6013 C   0  0  0  0  0  0  0  0  0  0  0  0
  -25.7752  -12.1049   20.9753 N   0  0  0  0  0  0  0  0  0  0  0  0
  -26.7696  -12.5251   20.1749 N   0  0  0  0  0  0  0  0  0  0  0  0
  -27.1073  -30.6278   22.1225 N   0  0  0  0  0  0  0  0  0  0  0  0
  -27.2145  -16.1105   21.4119 N   0  0  0  0  0  0  0  0  0  0  0  0
  -28.0084  -11.9485   18.2401 N   0  0  0  0  0  0  0  0  0  0  0  0
  -25.1136   -8.5109   18.6864 N   0  0  0  0  0  0  0  0  0  0  0  0
  -25.7959  -17.3972   20.0355 N   0  0  0  0  0  0  0  0  0  0  0  0
  -30.1079  -28.9910   20.8522 N   0  0  0  0  0  0  0  0  0  0  0  0
  -25.5722  -32.9463   24.0528 N   0  0  0  0  0  0  0  0  0  0  0  0
  -22.7464  -22.8701   18.7205 N   0  0  0  0  0  0  0  0  0  0  0  0
  -22.6689  -34.5252   22.5878 N   0  3  0  0  0  0  0  0  0  0  0  0
  -26.8344   -9.3435   17.4198 O   0  0  0  0  0  0  0  0  0  0  0  0
  -28.7264  -28.7384   22.7096 O   0  0  0  0  0  0  0  0  0  0  0  0
  -28.2136  -32.4547   23.0578 O   0  0  0  0  0  0  0  0  0  0  0  0
  -22.1579  -24.1943   20.5349 O   0  0  0  0  0  0  0  0  0  0  0  0
  -23.5127  -32.0142   23.5360 O   0  0  0  0  0  0  0  0  0  0  0  0
  -27.5430  -18.3885   21.1959 O   0  0  0  0  0  0  0  0  0  0  0  0
  -21.2680   -7.9408   22.6766 O   0  0  0  0  0  0  0  0  0  0  0  0
  -23.3375  -26.3686   19.7349 O   0  0  0  0  0  0  0  0  0  1  0  0
  -22.0372   -2.5060   23.2006 F   0  0  0  0  0  0  0  0  0  0  0  0
  -24.2497  -21.8337   21.0127 F   0  0  0  0  0  0  0  0  0  0  0  0
  -21.1905   -6.7304   25.1608 F   0  0  0  0  0  0  0  0  0  0  0  0
  1  2  1  0  0  0  0
  1  5  2  0  0  0  0
  2  6  2  0  0  0  0
  3 10  2  0  0  0  0
  3 18  1  0  0  0  0
  4 11  1  0  0  0  0
  4 18  2  0  0  0  0
  5 20  1  0  0  0  0
  6 22  1  0  0  0  0
  7 12  2  0  0  0  0
  7 21  1  0  0  0  0
  8  9  2  0  0  0  0
  8 24  1  0  0  0  0
  9 25  1  0  0  0  0
 10 26  1  0  0  0  0
 11 26  2  0  0  0  0
 12 27  1  0  0  0  0
 13 14  2  0  0  0  0
 13 28  1  0  0  0  0
 14 29  1  0  0  0  0
 15 23  1  0  0  0  0
 15 27  2  0  0  0  0
 16 25  2  0  0  0  0
 16 30  1  0  0  0  0
 17 29  2  0  0  0  0
 17 31  1  0  0  0  0
 18 32  1  0  0  0  0
 19 32  1  0  0  0  0
 19 33  2  0  0  0  0
 19 34  1  0  0  0  0
 20 22  2  0  0  0  0
 20 40  1  0  0  0  0
 21 23  2  0  0  0  0
 21 41  1  0  0  0  0
 22 49  1  0  0  0  0
 23 42  1  0  0  0  0
 24 30  2  0  0  0  0
 24 58  1  0  0  0  0
 25 69  1  0  0  0  0
 26 80  1  0  0  0  0
 27 81  1  0  0  0  0
 28 31  2  0  0  0  0
 28 80  1  0  0  0  0
 29 82  1  0  0  0  0
 30 83  1  0  0  0  0
 31 84  1  0  0  0  0
 32 63  2  0  0  0  0
 33 64  1  0  0  0  0
 33 67  1  0  0  0  0
 34 68  1  0  0  0  0
 34 74  2  0  0  0  0
 35 50  1  0  0  0  0
 35 70  1  0  0  0  0
 35 75  2  0  0  0  0
 36 60  1  0  0  0  0
 36 65  1  0  0  0  0
 36 76  2  0  0  0  0
 37 59  1  0  0  0  0
 37 72  1  0  0  0  0
 37 77  2  0  0  0  0
 38 61  1  0  0  0  0
 38 71  1  0  0  0  0
 38 78  2  0  0  0  0
 39 66  1  0  0  0  0
 39 69  1  0  0  0  0
 39 79  2  0  0  0  0
 40 43  1  0  0  0  0
 41 50  1  0  0  0  0
 42 65  1  0  0  0  0
 43 45  1  0  0  0  0
 44 46  1  0  0  0  0
 44 47  1  0  0  0  0
 45 49  1  0  0  0  0
 46 51  1  0  0  0  0
 47 66  1  0  0  0  0
 48 51  1  0  0  0  0
 48 66  1  0  0  0  0
 49 70  1  0  0  0  0
 50 65  1  0  0  0  0
 51 64  1  0  0  0  0
 52 61  1  0  0  0  0
 53 62  1  0  0  0  0
 54 62  1  0  0  0  0
 55 62  1  0  0  0  0
 56 72  1  0  0  0  0
 57 73  1  0  0  0  0
 58 72  1  0  0  0  0
 59 81  1  0  0  0  0
 60 62  1  0  0  0  0
 60 71  1  0  0  0  0
 61 73  1  0  0  0  0
 63 64  1  0  0  0  0
M  CHG  1  73   1
M  ISO  4  39 100  59 101  69 100  81 101
M  END
> <Batch ID>
0046

> <Smiles>
CNC(C)C(=O)NC(C(=O)N1Cc2cc([101O:1][101CH2:1]C(=O)N(C)Cc3ccc([100NH:0][100C:0](=O)N4CCCC(n5nc(-c6ccc(Oc7ccc(F)cc7F)cc6)c(C(N)=O)c5N)C4)cc3F)ccc2CC1C(=O)NC1CCCc2ccccc21)C(C)(C)C

> <Shape>
0.264

> <Color>
0.096

> <Negative vol penalty>
0.000

$$$$

  -OEChem-04042322233D

 92101  0     1  0  0  0  0  0999 V2000
  -24.8253  -24.6132   18.9113 C   0  0  0  0  0  0  0  0  0  0  0  0
  -24.5844  -23.2464   18.9933 C   0  0  0  0  0  0  0  0  0  0  0  0
  -23.6595  -28.9839   23.9106 C   0  0  0  0  0  0  0  0  0  0  0  0
  -24.0287  -30.4761   22.0467 C   0  0  0  0  0  0  0  0  0  0  0  0
  -24.9757  -25.3616   20.0768 C   0  0  0  0  0  0  0  0  0  0  0  0
  -24.4821  -22.6297   20.2407 C   0  0  0  0  0  0  0  0  0  0  0  0
  -23.1099  -17.9055   20.2926 C   0  0  0  0  0  0  0  0  0  0  0  0
  -28.3528  -19.1109   21.3104 C   0  0  0  0  0  0  0  0  0  0  0  0
  -28.3374  -20.4623   20.9653 C   0  0  0  0  0  0  0  0  0  0  0  0
  -22.2812  -29.1359   23.7592 C   0  0  0  0  0  0  0  0  0  0  0  0
  -22.6504  -30.6280   21.8953 C   0  0  0  0  0  0  0  0  0  0  0  0
  -23.9475  -16.8727   19.8735 C   0  0  0  0  0  0  0  0  0  0  0  0
  -19.8502  -27.9375   21.7375 C   0  0  0  0  0  0  0  0  0  0  0  0
  -19.0616  -26.7883   21.7913 C   0  0  0  0  0  0  0  0  0  0  0  0
  -24.3708  -16.2899   22.1757 C   0  0  0  0  0  0  0  0  0  0  0  0
  -30.4169  -18.8224   20.0883 C   0  0  0  0  0  0  0  0  0  0  0  0
  -17.8695  -27.6951   23.6871 C   0  0  0  0  0  0  0  0  0  0  0  0
  -24.5332  -29.6541   23.0544 C   0  0  0  0  0  0  0  0  0  0  0  0
  -26.7278  -29.8165   24.3448 C   0  0  0  0  0  0  0  0  0  0  0  0
  -24.8875  -24.7508   21.3386 C   0  0  0  0  0  0  0  0  0  0  0  0
  -22.9047  -18.1455   21.6589 C   0  0  0  0  0  0  0  0  0  0  0  0
  -24.6072  -23.3722   21.4288 C   0  0  0  0  0  0  0  0  0  0  0  0
  -23.5281  -17.3247   22.6095 C   0  0  0  0  0  0  0  0  0  0  0  0
  -29.3926  -18.2909   20.8720 C   0  0  0  0  0  0  0  0  0  0  0  0
  -29.3616  -20.9937   20.1817 C   0  0  0  0  0  0  0  0  0  0  0  0
  -30.4014  -20.1738   19.7431 C   0  0  0  0  0  0  0  0  0  0  0  0
  -21.7767  -29.9579   22.7516 C   0  0  0  0  0  0  0  0  0  0  0  0
  -24.5803  -16.0666   20.8151 C   0  0  0  0  0  0  0  0  0  0  0  0
  -19.6486  -28.9655   22.6586 C   0  0  0  0  0  0  0  0  0  0  0  0
  -18.0712  -26.6671   22.7660 C   0  0  0  0  0  0  0  0  0  0  0  0
  -18.6582  -28.8443   23.6333 C   0  0  0  0  0  0  0  0  0  0  0  0
  -25.9571  -29.4980   23.2106 C   0  0  0  0  0  0  0  0  0  0  0  0
  -28.0129  -29.4853   23.9907 C   0  0  0  0  0  0  0  0  0  0  0  0
  -29.5208  -14.5966   20.3247 C   0  0  0  0  0  0  0  0  0  0  0  0
  -26.3187  -30.3628   25.6057 C   0  0  0  0  0  0  0  0  0  0  0  0
  -30.6002  -14.2055   19.6306 C   0  0  0  0  0  0  0  0  0  0  0  0
  -23.4770  -20.5814   23.6191 C   0  0  0  0  0  0  0  0  0  0  0  0
  -21.8622  -18.7415   25.7474 C   0  0  0  0  0  0  0  0  0  0  0  0
  -21.7306  -15.2485   26.6412 C   0  0  0  0  0  0  0  0  0  0  0  0
  -30.2806  -25.6178   20.0219 C   0  0  0  0  0  0  0  0  0  0  0  0
  -25.0506  -25.6098   22.5677 C   0  0  0  0  0  0  0  0  0  0  0  0
  -21.9772  -19.2466   22.0943 C   0  0  0  0  0  0  0  0  0  0  0  0
  -23.3249  -17.5280   24.0880 C   0  0  0  0  0  0  0  0  0  0  0  0
  -28.7926  -13.6960   21.2851 C   0  0  0  0  0  0  0  0  0  0  0  0
  -25.3673  -24.8004   23.8210 C   0  0  0  0  0  0  0  0  0  0  0  0
  -27.2996  -13.6921   20.9799 C   0  0  0  0  0  0  0  0  0  0  0  0
  -30.8694  -29.1261   20.1694 C   0  0  0  0  0  0  0  0  0  0  0  0
  -24.3870  -23.6446   23.9547 C   0  0  0  0  0  0  0  0  0  0  0  0
  -29.7468  -29.6480   21.0679 C   0  0  0  0  0  0  0  0  0  0  0  0
  -30.3939  -27.9788   19.2808 C   0  0  0  0  0  0  0  0  0  0  0  0
  -28.6339  -27.3826   20.8996 C   0  0  0  0  0  0  0  0  0  0  0  0
  -27.5492  -15.9072   19.7986 C   0  0  0  0  0  0  0  0  0  0  0  0
  -24.5223  -22.6744   22.7743 C   0  0  1  0  0  0  0  0  0  0  0  0
  -22.2457  -19.7262   23.5174 C   0  0  1  0  0  0  0  0  0  0  0  0
  -29.0800  -28.5033   21.8542 C   0  0  2  0  0  0  0  0  0  0  0  0
  -26.7575  -15.1140   20.8351 C   0  0  1  0  0  0  0  0  0  1  0  0
  -31.5085  -20.7205   18.9029 C   0  0  0  0  0  0  0  0  0  0  0  0
  -31.3070  -15.1248   18.6794 C   0  0  0  0  0  0  0  0  0  0  0  0
  -31.1687  -12.8237   19.7612 C   0  0  0  0  0  0  0  0  0  0  0  0
  -19.8766  -13.8914   27.6505 C   0  0  0  0  0  0  0  0  0  0  0  0
  -23.2180  -19.3966   28.4012 C   0  0  0  0  0  0  0  0  0  0  0  0
  -22.6824  -17.0744   29.1683 C   0  0  0  0  0  0  0  0  0  0  0  0
  -20.8379  -18.6551   28.6007 C   0  0  0  0  0  0  0  0  0  0  0  0
  -21.8158  -13.2775   24.4350 C   0  0  0  0  0  0  0  0  0  0  0  0
  -29.4087  -16.8373   21.2429 C   0  0  0  0  0  0  0  0  0  0  0  0
  -30.0493  -23.2965   20.8688 C   0  0  0  0  0  0  0  0  0  0  0  0
  -22.2444  -17.6733   26.7434 C   0  0  1  0  0  0  0  0  0  0  0  0
  -20.5922  -14.2825   26.3668 C   0  0  2  0  0  0  0  0  0  0  0  0
  -29.3230  -22.4433   19.8239 C   0  0  0  0  0  0  0  0  0  0  0  0
  -22.2608  -18.2042   28.2047 C   0  0  0  0  0  0  0  0  0  0  0  0
  -26.6913  -29.0027   22.2108 N   0  0  0  0  0  0  0  0  0  0  0  0
  -27.9368  -29.0075   22.7155 N   0  0  0  0  0  0  0  0  0  0  0  0
  -22.4137  -18.6216   24.4639 N   0  0  0  0  0  0  0  0  0  0  0  0
  -29.7729  -26.9259   20.0879 N   0  0  0  0  0  0  0  0  0  0  0  0
  -29.1893  -29.5592   24.6487 N   0  0  0  0  0  0  0  0  0  0  0  0
  -24.9599  -30.6446   25.8024 N   0  0  0  0  0  0  0  0  0  0  0  0
  -23.4428  -21.7133   22.8271 N   0  0  0  0  0  0  0  0  0  0  0  0
  -21.3264  -16.5613   26.5218 N   0  0  0  0  0  0  0  0  0  0  0  0
  -29.6382  -24.6821   20.8234 N   0  0  0  0  0  0  0  0  0  0  0  0
  -29.0271  -15.9341   20.1029 N   0  3  1  0  0  0  0  0  0  0  0  0
  -21.1090  -13.0430   25.7205 N   0  3  0  0  0  0  0  0  0  0  0  0
  -27.1362  -30.6094   26.5246 O   0  0  0  0  0  0  0  0  0  0  0  0
  -24.3897  -20.2405   24.3623 O   0  0  0  0  0  0  0  0  0  0  0  0
  -21.0967  -19.6448   26.0933 O   0  0  0  0  0  0  0  0  0  0  0  0
  -22.8641  -14.8757   26.9360 O   0  0  0  0  0  0  0  0  0  0  0  0
  -31.2390  -25.3081   19.3060 O   0  0  0  0  0  0  0  0  0  0  0  0
  -20.4318  -30.1062   22.6034 O   0  0  0  0  0  0  0  0  0  0  0  0
  -25.3989  -15.0582   20.4088 O   0  0  0  0  0  0  0  0  0  1  0  0
  -17.3129  -25.5641   22.8166 F   0  0  0  0  0  0  0  0  0  0  0  0
  -18.4590  -29.8291   24.5201 F   0  0  0  0  0  0  0  0  0  0  0  0
  -29.8967  -22.7022   18.6053 F   0  0  0  0  0  0  0  0  0  0  0  0
  -28.0439  -22.9253   19.7110 F   0  0  0  0  0  0  0  0  0  0  0  0
  1  2  1  0  0  0  0
  1  5  2  0  0  0  0
  2  6  2  0  0  0  0
  3 10  2  0  0  0  0
  3 18  1  0  0  0  0
  4 11  1  0  0  0  0
  4 18  2  0  0  0  0
  5 20  1  0  0  0  0
  6 22  1  0  0  0  0
  7 12  2  0  0  0  0
  7 21  1  0  0  0  0
  8  9  2  0  0  0  0
  8 24  1  0  0  0  0
  9 25  1  0  0  0  0
 10 27  1  0  0  0  0
 11 27  2  0  0  0  0
 12 28  1  0  0  0  0
 13 14  2  0  0  0  0
 13 29  1  0  0  0  0
 14 30  1  0  0  0  0
 15 23  1  0  0  0  0
 15 28  2  0  0  0  0
 16 24  2  0  0  0  0
 16 26  1  0  0  0  0
 17 30  2  0  0  0  0
 17 31  1  0  0  0  0
 18 32  1  0  0  0  0
 19 32  1  0  0  0  0
 19 33  2  0  0  0  0
 19 35  1  0  0  0  0
 20 22  2  0  0  0  0
 20 41  1  0  0  0  0
 21 23  2  0  0  0  0
 21 42  1  0  0  0  0
 22 53  1  0  0  0  0
 23 43  1  0  0  0  0
 24 65  1  0  0  0  0
 25 26  2  0  0  0  0
 25 69  1  0  0  0  0
 26 57  1  0  0  0  0
 27 87  1  0  0  0  0
 28 88  1  0  0  0  0
 29 31  2  0  0  0  0
 29 87  1  0  0  0  0
 30 89  1  0  0  0  0
 31 90  1  0  0  0  0
 32 71  2  0  0  0  0
 33 72  1  0  0  0  0
 33 75  1  0  0  0  0
 34 36  2  0  0  0  0
 34 44  1  0  0  0  0
 34 80  1  0  0  0  0
 35 76  1  0  0  0  0
 35 82  2  0  0  0  0
 36 58  1  0  0  0  0
 36 59  1  0  0  0  0
 37 54  1  0  0  0  0
 37 77  1  0  0  0  0
 37 83  2  0  0  0  0
 38 67  1  0  0  0  0
 38 73  1  0  0  0  0
 38 84  2  0  0  0  0
 39 68  1  0  0  0  0
 39 78  1  0  0  0  0
 39 85  2  0  0  0  0
 40 74  1  0  0  0  0
 40 79  1  0  0  0  0
 40 86  2  0  0  0  0
 41 45  1  0  0  0  0
 42 54  1  0  0  0  0
 43 73  1  0  0  0  0
 44 46  1  0  0  0  0
 45 48  1  0  0  0  0
 46 56  1  0  0  0  0
 47 49  1  0  0  0  0
 47 50  1  0  0  0  0
 48 53  1  0  0  0  0
 49 55  1  0  0  0  0
 50 74  1  0  0  0  0
 51 55  1  0  0  0  0
 51 74  1  0  0  0  0
 52 56  1  0  0  0  0
 52 80  1  0  0  0  0
 53 77  1  0  0  0  0
 54 73  1  0  0  0  0
 55 72  1  0  0  0  0
 56 88  1  0  0  0  0
 60 68  1  0  0  0  0
 61 70  1  0  0  0  0
 62 70  1  0  0  0  0
 63 70  1  0  0  0  0
 64 81  1  0  0  0  0
 65 80  1  0  0  0  0
 66 69  1  0  0  0  0
 66 79  1  0  0  0  0
 67 70  1  0  0  0  0
 67 78  1  0  0  0  0
 68 81  1  0  0  0  0
 69 91  1  0  0  0  0
 69 92  1  0  0  0  0
 71 72  1  0  0  0  0
M  CHG  2  80   1  81   1
M  ISO  4  40 100  56 101  79 100  88 101
M  END
> <Batch ID>
0046

> <Smiles>
CNC(C)C(=O)NC(C(=O)N1Cc2cc([101O:1][101CH:1]3CCC(=C(C)C)N(Cc4ccc(C(F)(F)C[100NH:0][100C:0](=O)N5CCCC(n6nc(-c7ccc(Oc8ccc(F)cc8F)cc7)c(C(N)=O)c6N)C5)c(C)c4)C3)ccc2CC1C(=O)NC1CCCc2ccccc21)C(C)(C)C

> <Shape>
0.250

> <Color>
0.046

> <Negative vol penalty>
0.000

$$$$

  -OEChem-04042322233D

 85 93  0     1  0  0  0  0  0999 V2000
  -20.5220  -25.8451   25.7620 C   0  0  0  0  0  0  0  0  0  0  0  0
  -21.6185  -25.6451   24.9294 C   0  0  0  0  0  0  0  0  0  0  0  0
  -24.6256   -9.2507   21.6035 C   0  0  0  0  0  0  0  0  0  0  0  0
  -23.1386  -11.1374   21.3465 C   0  0  0  0  0  0  0  0  0  0  0  0
  -19.4256  -26.5755   25.3057 C   0  0  0  0  0  0  0  0  0  0  0  0
  -21.6186  -26.1746   23.6394 C   0  0  0  0  0  0  0  0  0  0  0  0
  -26.0095  -28.4020   22.4544 C   0  0  0  0  0  0  0  0  0  0  0  0
  -23.8101   -8.7459   22.6162 C   0  0  0  0  0  0  0  0  0  0  0  0
  -22.3230  -10.6326   22.3592 C   0  0  0  0  0  0  0  0  0  0  0  0
  -27.0718  -27.5695   22.1050 C   0  0  0  0  0  0  0  0  0  0  0  0
  -20.8930   -7.0528   22.8540 C   0  0  0  0  0  0  0  0  0  0  0  0
  -20.5882   -5.6920   22.8231 C   0  0  0  0  0  0  0  0  0  0  0  0
  -26.6431  -28.0113   19.7726 C   0  0  0  0  0  0  0  0  0  0  0  0
  -28.1874  -19.1072   20.4648 C   0  0  0  0  0  0  0  0  0  0  0  0
  -26.4484  -20.7786   20.6037 C   0  0  0  0  0  0  0  0  0  0  0  0
  -25.9526  -18.5912   19.7054 C   0  0  0  0  0  0  0  0  0  0  0  0
  -21.6204   -5.4117   24.9895 C   0  0  0  0  0  0  0  0  0  0  0  0
  -24.2899  -10.4465   20.9686 C   0  0  0  0  0  0  0  0  0  0  0  0
  -25.0365  -10.7057   18.5431 C   0  0  0  0  0  0  0  0  0  0  0  0
  -19.4164  -27.1225   24.0129 C   0  0  0  0  0  0  0  0  0  0  0  0
  -25.2478  -29.0379   21.4634 C   0  0  0  0  0  0  0  0  0  0  0  0
  -20.5205  -26.9120   23.1649 C   0  0  0  0  0  0  0  0  0  0  0  0
  -25.5732  -28.8534   20.1121 C   0  0  0  0  0  0  0  0  0  0  0  0
  -27.7730  -20.3934   20.8105 C   0  0  0  0  0  0  0  0  0  0  0  0
  -27.2772  -18.2061   19.9122 C   0  0  0  0  0  0  0  0  0  0  0  0
  -22.6588   -9.4368   22.9941 C   0  0  0  0  0  0  0  0  0  0  0  0
  -27.3870  -27.3718   20.7639 C   0  0  0  0  0  0  0  0  0  0  0  0
  -21.5616   -7.5930   23.9526 C   0  0  0  0  0  0  0  0  0  0  0  0
  -20.9519   -4.8714   23.8908 C   0  0  0  0  0  0  0  0  0  0  0  0
  -21.9252   -6.7725   25.0203 C   0  0  0  0  0  0  0  0  0  0  0  0
  -25.5381  -19.8775   20.0512 C   0  0  0  0  0  0  0  0  0  0  0  0
  -25.1322  -10.9688   19.9227 C   0  0  0  0  0  0  0  0  0  0  0  0
  -26.0569  -11.4347   17.9829 C   0  0  0  0  0  0  0  0  0  0  0  0
  -24.1081   -9.8765   17.8315 C   0  0  0  0  0  0  0  0  0  0  0  0
  -22.1965  -28.9489   20.5774 C   0  0  0  0  0  0  0  0  0  0  0  0
  -23.1055  -31.3529   18.5983 C   0  0  0  0  0  0  0  0  0  0  0  0
  -28.5229  -23.6069   20.3089 C   0  0  0  0  0  0  0  0  0  0  0  0
  -25.6213  -32.9124   16.8995 C   0  0  0  0  0  0  0  0  0  0  0  0
  -28.9760  -16.3582   19.6986 C   0  0  0  0  0  0  0  0  0  0  0  0
  -18.1888  -27.8647   23.5474 C   0  0  0  0  0  0  0  0  0  0  0  0
  -24.1218  -29.9540   21.8576 C   0  0  0  0  0  0  0  0  0  0  0  0
  -24.7994  -29.5291   19.0107 C   0  0  0  0  0  0  0  0  0  0  0  0
  -18.4253  -28.7104   22.2987 C   0  0  0  0  0  0  0  0  0  0  0  0
  -30.4041  -13.1756   18.9855 C   0  0  0  0  0  0  0  0  0  0  0  0
  -19.1878  -27.9096   21.2480 C   0  0  0  0  0  0  0  0  0  0  0  0
  -29.2047  -12.2255   19.0134 C   0  0  0  0  0  0  0  0  0  0  0  0
  -30.2831  -14.2728   20.0415 C   0  0  0  0  0  0  0  0  0  0  0  0
  -27.8270  -14.0817   20.0349 C   0  0  0  0  0  0  0  0  0  0  0  0
  -20.5686  -27.4916   21.7678 C   0  0  1  0  0  0  0  0  0  0  0  0
  -23.0905  -30.1442   20.7496 C   0  0  1  0  0  0  0  0  0  0  0  0
  -27.8724  -12.9977   18.9457 C   0  0  2  0  0  0  0  0  0  0  0  0
  -26.0505  -34.8280   15.3363 C   0  0  0  0  0  0  0  0  0  0  0  0
  -21.9257  -29.7352   16.2958 C   0  0  0  0  0  0  0  0  0  0  0  0
  -23.1982  -31.1957   14.7096 C   0  0  0  0  0  0  0  0  0  0  0  0
  -21.4571  -32.1897   16.1940 C   0  0  0  0  0  0  0  0  0  0  0  0
  -30.3234  -22.0090   19.6192 C   0  0  0  0  0  0  0  0  0  0  0  0
  -27.4371  -34.2313   18.8288 C   0  0  0  0  0  0  0  0  0  0  0  0
  -28.7529  -21.3636   21.4045 C   0  0  0  0  0  0  0  0  0  0  0  0
  -29.0842  -24.5561   19.2552 C   0  0  0  0  0  0  0  0  0  0  0  0
  -28.3249  -25.8743   19.1720 C   0  0  0  0  0  0  0  0  0  1  0  0
  -23.6523  -31.4320   17.1934 C   0  0  1  0  0  0  0  0  0  0  0  0
  -26.0044  -34.3770   16.7880 C   0  0  2  0  0  0  0  0  0  0  0  0
  -22.5719  -31.1237   16.1186 C   0  0  0  0  0  0  0  0  0  0  0  0
  -26.1344  -11.8000   20.2208 N   0  0  0  0  0  0  0  0  0  0  0  0
  -26.6778  -12.0653   19.0207 N   0  0  0  0  0  0  0  0  0  0  0  0
  -23.7034  -30.4102   19.4466 N   0  0  0  0  0  0  0  0  0  0  0  0
  -28.9982  -14.9639   19.9136 N   0  0  0  0  0  0  0  0  0  0  0  0
  -26.4746  -11.5914   16.7088 N   0  0  0  0  0  0  0  0  0  0  0  0
  -23.1226   -9.1982   18.5615 N   0  0  0  0  0  0  0  0  0  0  0  0
  -27.6985  -16.8999   19.5601 N   0  0  0  0  0  0  0  0  0  0  0  0
  -21.4881  -28.6078   21.7138 N   0  0  0  0  0  0  0  0  0  0  0  0
  -24.2620  -32.7513   17.0664 N   0  0  0  0  0  0  0  0  0  0  0  0
  -29.1746  -22.3754   20.4384 N   0  0  0  0  0  0  0  0  0  0  0  0
  -27.3455  -34.6093   17.3950 N   0  3  0  0  0  0  0  0  0  0  0  0
  -24.1615   -9.7282   16.5871 O   0  0  0  0  0  0  0  0  0  0  0  0
  -22.1514  -28.3793   19.4934 O   0  0  0  0  0  0  0  0  0  0  0  0
  -22.1867  -32.1048   18.9328 O   0  0  0  0  0  0  0  0  0  0  0  0
  -27.5497  -23.9340   20.9931 O   0  0  0  0  0  0  0  0  0  0  0  0
  -26.4448  -32.0020   16.8405 O   0  0  0  0  0  0  0  0  0  0  0  0
  -30.0146  -17.0185   19.6144 O   0  0  0  0  0  0  0  0  0  0  0  0
  -21.8627   -8.9444   23.9821 O   0  0  0  0  0  0  0  0  0  0  0  0
  -28.4230  -26.5592   20.4201 O   0  0  0  0  0  0  0  0  0  1  0  0
  -20.6578   -3.5650   23.8617 F   0  0  0  0  0  0  0  0  0  0  0  0
  -22.5666   -7.2859   26.0790 F   0  0  0  0  0  0  0  0  0  0  0  0
  -23.9042  -20.3531   19.7942 Cl  0  0  0  0  0  0  0  0  0  0  0  0
  1  2  1  0  0  0  0
  1  5  2  0  0  0  0
  2  6  2  0  0  0  0
  3  8  2  0  0  0  0
  3 18  1  0  0  0  0
  4  9  1  0  0  0  0
  4 18  2  0  0  0  0
  5 20  1  0  0  0  0
  6 22  1  0  0  0  0
  7 10  2  0  0  0  0
  7 21  1  0  0  0  0
  8 26  1  0  0  0  0
  9 26  2  0  0  0  0
 10 27  1  0  0  0  0
 11 12  2  0  0  0  0
 11 28  1  0  0  0  0
 12 29  1  0  0  0  0
 13 23  1  0  0  0  0
 13 27  2  0  0  0  0
 14 24  2  0  0  0  0
 14 25  1  0  0  0  0
 15 24  1  0  0  0  0
 15 31  2  0  0  0  0
 16 25  2  0  0  0  0
 16 31  1  0  0  0  0
 17 29  2  0  0  0  0
 17 30  1  0  0  0  0
 18 32  1  0  0  0  0
 19 32  1  0  0  0  0
 19 33  2  0  0  0  0
 19 34  1  0  0  0  0
 20 22  2  0  0  0  0
 20 40  1  0  0  0  0
 21 23  2  0  0  0  0
 21 41  1  0  0  0  0
 22 49  1  0  0  0  0
 23 42  1  0  0  0  0
 24 58  1  0  0  0  0
 25 70  1  0  0  0  0
 26 81  1  0  0  0  0
 27 82  1  0  0  0  0
 28 30  2  0  0  0  0
 28 81  1  0  0  0  0
 29 83  1  0  0  0  0
 30 84  1  0  0  0  0
 31 85  1  0  0  0  0
 32 64  2  0  0  0  0
 33 65  1  0  0  0  0
 33 68  1  0  0  0  0
 34 69  1  0  0  0  0
 34 75  2  0  0  0  0
 35 50  1  0  0  0  0
 35 71  1  0  0  0  0
 35 76  2  0  0  0  0
 36 61  1  0  0  0  0
 36 66  1  0  0  0  0
 36 77  2  0  0  0  0
 37 59  1  0  0  0  0
 37 73  1  0  0  0  0
 37 78  2  0  0  0  0
 38 62  1  0  0  0  0
 38 72  1  0  0  0  0
 38 79  2  0  0  0  0
 39 67  1  0  0  0  0
 39 70  1  0  0  0  0
 39 80  2  0  0  0  0
 40 43  1  0  0  0  0
 41 50  1  0  0  0  0
 42 66  1  0  0  0  0
 43 45  1  0  0  0  0
 44 46  1  0  0  0  0
 44 47  1  0  0  0  0
 45 49  1  0  0  0  0
 46 51  1  0  0  0  0
 47 67  1  0  0  0  0
 48 51  1  0  0  0  0
 48 67  1  0  0  0  0
 49 71  1  0  0  0  0
 50 66  1  0  0  0  0
 51 65  1  0  0  0  0
 52 62  1  0  0  0  0
 53 63  1  0  0  0  0
 54 63  1  0  0  0  0
 55 63  1  0  0  0  0
 56 73  1  0  0  0  0
 57 74  1  0  0  0  0
 58 73  1  0  0  0  0
 59 60  1  0  0  0  0
 60 82  1  0  0  0  0
 61 63  1  0  0  0  0
 61 72  1  0  0  0  0
 62 74  1  0  0  0  0
 64 65  1  0  0  0  0
M  CHG  1  74   1
M  ISO  4  39 100  60 101  70 100  82 101
M  END
> <Batch ID>
0046

> <Smiles>
CNC(C)C(=O)NC(C(=O)N1Cc2cc([101O:1][101CH2:1]CC(=O)N(C)Cc3cc(Cl)cc([100NH:0][100C:0](=O)N4CCCC(n5nc(-c6ccc(Oc7ccc(F)cc7F)cc6)c(C(N)=O)c5N)C4)c3)ccc2CC1C(=O)NC1CCCc2ccccc21)C(C)(C)C

> <Shape>
0.272

> <Color>
0.110

> <Negative vol penalty>
0.000

$$$$

  -OEChem-04042322233D

 83 91  0     1  0  0  0  0  0999 V2000
  -20.8716  -34.8951   22.2180 C   0  0  0  0  0  0  0  0  0  0  0  0
  -22.0818  -34.2998   21.8767 C   0  0  0  0  0  0  0  0  0  0  0  0
  -24.6645  -12.2441   19.8115 C   0  0  0  0  0  0  0  0  0  0  0  0
  -25.5036  -13.2461   21.8435 C   0  0  0  0  0  0  0  0  0  0  0  0
  -19.9515  -34.2011   23.0027 C   0  0  0  0  0  0  0  0  0  0  0  0
  -22.3730  -33.0104   22.3208 C   0  0  0  0  0  0  0  0  0  0  0  0
  -25.5438  -28.7128   19.3238 C   0  0  0  0  0  0  0  0  0  0  0  0
  -28.7282  -21.7552   22.8385 C   0  0  0  0  0  0  0  0  0  0  0  0
  -27.7468  -21.0589   22.1333 C   0  0  0  0  0  0  0  0  0  0  0  0
  -25.3232  -11.0554   20.1256 C   0  0  0  0  0  0  0  0  0  0  0  0
  -26.1623  -12.0574   22.1577 C   0  0  0  0  0  0  0  0  0  0  0  0
  -26.8724  -28.2985   19.4068 C   0  0  0  0  0  0  0  0  0  0  0  0
  -26.4884   -7.6410   20.5717 C   0  0  0  0  0  0  0  0  0  0  0  0
  -25.7844   -6.4476   20.4113 C   0  0  0  0  0  0  0  0  0  0  0  0
  -26.2178  -26.5181   20.8971 C   0  0  0  0  0  0  0  0  0  0  0  0
  -28.5239  -22.0511   20.0720 C   0  0  0  0  0  0  0  0  0  0  0  0
  -24.1338   -7.2072   22.0037 C   0  0  0  0  0  0  0  0  0  0  0  0
  -24.7547  -13.3395   20.6704 C   0  0  0  0  0  0  0  0  0  0  0  0
  -22.7646  -14.9350   20.7065 C   0  0  0  0  0  0  0  0  0  0  0  0
  -20.2275  -32.8989   23.4486 C   0  0  0  0  0  0  0  0  0  0  0  0
  -24.5421  -28.0384   20.0366 C   0  0  0  0  0  0  0  0  0  0  0  0
  -21.4563  -32.2989   23.1133 C   0  0  0  0  0  0  0  0  0  0  0  0
  -24.8769  -26.9243   20.8194 C   0  0  0  0  0  0  0  0  0  0  0  0
  -29.6075  -22.5996   22.1605 C   0  0  0  0  0  0  0  0  0  0  0  0
  -27.6446  -21.2068   20.7500 C   0  0  0  0  0  0  0  0  0  0  0  0
  -29.5054  -22.7475   20.7773 C   0  0  0  0  0  0  0  0  0  0  0  0
  -26.0721  -10.9620   21.2987 C   0  0  0  0  0  0  0  0  0  0  0  0
  -27.2100  -27.2028   20.1958 C   0  0  0  0  0  0  0  0  0  0  0  0
  -26.0151   -8.6175   21.4481 C   0  0  0  0  0  0  0  0  0  0  0  0
  -24.6072   -6.2307   21.1273 C   0  0  0  0  0  0  0  0  0  0  0  0
  -24.8378   -8.4006   22.1641 C   0  0  0  0  0  0  0  0  0  0  0  0
  -24.0750  -14.5679   20.3462 C   0  0  0  0  0  0  0  0  0  0  0  0
  -22.5957  -16.1843   20.1612 C   0  0  0  0  0  0  0  0  0  0  0  0
  -21.7873  -14.2115   21.4663 C   0  0  0  0  0  0  0  0  0  0  0  0
  -22.4974  -28.8402   22.3345 C   0  0  0  0  0  0  0  0  0  0  0  0
  -21.3405  -25.8555   21.8095 C   0  0  0  0  0  0  0  0  0  0  0  0
  -30.0536  -24.9734   19.8725 C   0  0  0  0  0  0  0  0  0  0  0  0
  -21.9051  -22.6882   20.6710 C   0  0  0  0  0  0  0  0  0  0  0  0
  -26.4094  -20.5327   18.6605 C   0  0  0  0  0  0  0  0  0  0  0  0
  -19.2220  -32.2064   24.3340 C   0  0  0  0  0  0  0  0  0  0  0  0
  -23.1098  -28.4814   19.9153 C   0  0  0  0  0  0  0  0  0  0  0  0
  -23.8360  -26.1536   21.5883 C   0  0  0  0  0  0  0  0  0  0  0  0
  -19.4483  -30.7013   24.4514 C   0  0  0  0  0  0  0  0  0  0  0  0
  -24.0788  -18.9095   16.5132 C   0  0  0  0  0  0  0  0  0  0  0  0
  -20.9209  -30.4017   24.7132 C   0  0  0  0  0  0  0  0  0  0  0  0
  -23.6895  -17.6484   17.2879 C   0  0  0  0  0  0  0  0  0  0  0  0
  -25.5532  -19.2605   16.7051 C   0  0  0  0  0  0  0  0  0  0  0  0
  -25.6010  -18.1007   18.8781 C   0  0  0  0  0  0  0  0  0  0  0  0
  -21.7981  -30.8925   23.5552 C   0  0  1  0  0  0  0  0  0  0  0  0
  -22.2450  -28.0360   21.0906 C   0  0  1  0  0  0  0  0  0  0  0  0
  -24.1096  -17.7439   18.7678 C   0  0  2  0  0  0  0  0  0  0  0  0
  -30.6490  -23.3330   22.9417 C   0  0  0  0  0  0  0  0  0  0  0  0
  -20.7809  -20.4603   20.4066 C   0  0  0  0  0  0  0  0  0  0  0  0
  -21.6682  -25.3382   24.7986 C   0  0  0  0  0  0  0  0  0  0  0  0
  -21.4532  -22.8887   24.3274 C   0  0  0  0  0  0  0  0  0  0  0  0
  -19.5603  -24.4279   23.8073 C   0  0  0  0  0  0  0  0  0  0  0  0
  -31.6691  -23.0676   19.5340 C   0  0  0  0  0  0  0  0  0  0  0  0
  -22.2250  -22.7456   17.7294 C   0  0  0  0  0  0  0  0  0  0  0  0
  -28.7382  -25.4067   20.5034 C   0  0  0  0  0  0  0  0  0  1  0  0
  -21.6348  -24.4822   22.3630 C   0  0  1  0  0  0  0  0  0  0  0  0
  -21.1015  -21.7921   19.7461 C   0  0  2  0  0  0  0  0  0  0  0  0
  -21.0993  -24.2997   23.8112 C   0  0  0  0  0  0  0  0  0  0  0  0
  -24.6946  -15.5078   19.6275 N   0  0  0  0  0  0  0  0  0  0  0  0
  -23.7694  -16.4779   19.5317 N   0  0  0  0  0  0  0  0  0  0  0  0
  -22.4505  -26.6295   21.4424 N   0  0  0  0  0  0  0  0  0  0  0  0
  -25.8772  -19.3379   18.1313 N   0  0  0  0  0  0  0  0  0  0  0  0
  -21.5593  -17.0492   20.1636 N   0  0  0  0  0  0  0  0  0  0  0  0
  -22.1254  -12.9411   21.9522 N   0  0  0  0  0  0  0  0  0  0  0  0
  -26.6474  -20.4992   20.0341 N   0  0  0  0  0  0  0  0  0  0  0  0
  -21.7182  -29.9768   22.4373 N   0  0  0  0  0  0  0  0  0  0  0  0
  -21.0920  -23.5294   21.4008 N   0  0  0  0  0  0  0  0  0  0  0  0
  -30.4091  -23.6199   20.0549 N   0  0  0  0  0  0  0  0  0  0  0  0
  -21.8633  -21.5241   18.4936 N   0  3  0  0  0  0  0  0  0  0  0  0
  -20.6423  -14.6709   21.6931 O   0  0  0  0  0  0  0  0  0  0  0  0
  -23.3358  -28.4571   23.1419 O   0  0  0  0  0  0  0  0  0  0  0  0
  -20.1687  -26.2250   21.6999 O   0  0  0  0  0  0  0  0  0  0  0  0
  -30.7326  -25.8148   19.2785 O   0  0  0  0  0  0  0  0  0  0  0  0
  -23.1313  -22.6437   20.7420 O   0  0  0  0  0  0  0  0  0  0  0  0
  -26.6118  -21.5225   17.9525 O   0  0  0  0  0  0  0  0  0  0  0  0
  -26.7147   -9.8022   21.6057 O   0  0  0  0  0  0  0  0  0  0  0  0
  -28.5062  -26.7967   20.2791 O   0  0  0  0  0  0  0  0  0  1  0  0
  -23.9304   -5.0852   20.9720 F   0  0  0  0  0  0  0  0  0  0  0  0
  -24.3776   -9.3356   23.0067 F   0  0  0  0  0  0  0  0  0  0  0  0
  1  2  1  0  0  0  0
  1  5  2  0  0  0  0
  2  6  2  0  0  0  0
  3 10  2  0  0  0  0
  3 18  1  0  0  0  0
  4 11  1  0  0  0  0
  4 18  2  0  0  0  0
  5 20  1  0  0  0  0
  6 22  1  0  0  0  0
  7 12  2  0  0  0  0
  7 21  1  0  0  0  0
  8  9  2  0  0  0  0
  8 24  1  0  0  0  0
  9 25  1  0  0  0  0
 10 27  1  0  0  0  0
 11 27  2  0  0  0  0
 12 28  1  0  0  0  0
 13 14  2  0  0  0  0
 13 29  1  0  0  0  0
 14 30  1  0  0  0  0
 15 23  1  0  0  0  0
 15 28  2  0  0  0  0
 16 25  2  0  0  0  0
 16 26  1  0  0  0  0
 17 30  2  0  0  0  0
 17 31  1  0  0  0  0
 18 32  1  0  0  0  0
 19 32  1  0  0  0  0
 19 33  2  0  0  0  0
 19 34  1  0  0  0  0
 20 22  2  0  0  0  0
 20 40  1  0  0  0  0
 21 23  2  0  0  0  0
 21 41  1  0  0  0  0
 22 49  1  0  0  0  0
 23 42  1  0  0  0  0
 24 26  2  0  0  0  0
 24 52  1  0  0  0  0
 25 69  1  0  0  0  0
 26 72  1  0  0  0  0
 27 80  1  0  0  0  0
 28 81  1  0  0  0  0
 29 31  2  0  0  0  0
 29 80  1  0  0  0  0
 30 82  1  0  0  0  0
 31 83  1  0  0  0  0
 32 63  2  0  0  0  0
 33 64  1  0  0  0  0
 33 67  1  0  0  0  0
 34 68  1  0  0  0  0
 34 74  2  0  0  0  0
 35 50  1  0  0  0  0
 35 70  1  0  0  0  0
 35 75  2  0  0  0  0
 36 60  1  0  0  0  0
 36 65  1  0  0  0  0
 36 76  2  0  0  0  0
 37 59  1  0  0  0  0
 37 72  1  0  0  0  0
 37 77  2  0  0  0  0
 38 61  1  0  0  0  0
 38 71  1  0  0  0  0
 38 78  2  0  0  0  0
 39 66  1  0  0  0  0
 39 69  1  0  0  0  0
 39 79  2  0  0  0  0
 40 43  1  0  0  0  0
 41 50  1  0  0  0  0
 42 65  1  0  0  0  0
 43 45  1  0  0  0  0
 44 46  1  0  0  0  0
 44 47  1  0  0  0  0
 45 49  1  0  0  0  0
 46 51  1  0  0  0  0
 47 66  1  0  0  0  0
 48 51  1  0  0  0  0
 48 66  1  0  0  0  0
 49 70  1  0  0  0  0
 50 65  1  0  0  0  0
 51 64  1  0  0  0  0
 53 61  1  0  0  0  0
 54 62  1  0  0  0  0
 55 62  1  0  0  0  0
 56 62  1  0  0  0  0
 57 72  1  0  0  0  0
 58 73  1  0  0  0  0
 59 81  1  0  0  0  0
 60 62  1  0  0  0  0
 60 71  1  0  0  0  0
 61 73  1  0  0  0  0
 63 64  1  0  0  0  0
M  CHG  1  73   1
M  ISO  4  39 100  59 101  69 100  81 101
M  END
> <Batch ID>
0046

> <Smiles>
CNC(C)C(=O)NC(C(=O)N1Cc2cc([101O:1][101CH2:1]C(=O)N(C)c3cc([100NH:0][100C:0](=O)N4CCCC(n5nc(-c6ccc(Oc7ccc(F)cc7F)cc6)c(C(N)=O)c5N)C4)ccc3C)ccc2CC1C(=O)NC1CCCc2ccccc21)C(C)(C)C

> <Shape>
0.187

> <Color>
0.117

> <Negative vol penalty>
0.000

$$$$

  -OEChem-04042322233D

 83 91  0     1  0  0  0  0  0999 V2000
  -18.1397  -17.1895   19.9910 C   0  0  0  0  0  0  0  0  0  0  0  0
  -19.3950  -17.1643   20.5902 C   0  0  0  0  0  0  0  0  0  0  0  0
  -23.1908   -9.8191   19.9315 C   0  0  0  0  0  0  0  0  0  0  0  0
  -23.5684   -9.9994   22.3110 C   0  0  0  0  0  0  0  0  0  0  0  0
  -16.9936  -17.0339   20.7695 C   0  0  0  0  0  0  0  0  0  0  0  0
  -19.5048  -16.9844   21.9687 C   0  0  0  0  0  0  0  0  0  0  0  0
  -23.9319  -13.9794   24.9481 C   0  0  0  0  0  0  0  0  0  0  0  0
  -30.5600  -11.6698   25.8640 C   0  0  0  0  0  0  0  0  0  0  0  0
  -22.4247   -8.6723   20.1400 C   0  0  0  0  0  0  0  0  0  0  0  0
  -22.8022   -8.8526   22.5195 C   0  0  0  0  0  0  0  0  0  0  0  0
  -25.0802  -14.4143   25.6084 C   0  0  0  0  0  0  0  0  0  0  0  0
  -23.2038   -5.5060   22.2554 C   0  0  0  0  0  0  0  0  0  0  0  0
  -23.7021   -4.5447   23.1347 C   0  0  0  0  0  0  0  0  0  0  0  0
  -29.9322  -11.5869   27.1068 C   0  0  0  0  0  0  0  0  0  0  0  0
  -23.8867  -14.3647   27.7042 C   0  0  0  0  0  0  0  0  0  0  0  0
  -30.5380  -14.0811   26.0137 C   0  0  0  0  0  0  0  0  0  0  0  0
  -21.7450   -4.8043   24.5274 C   0  0  0  0  0  0  0  0  0  0  0  0
  -23.7628  -10.4826   21.0171 C   0  0  0  0  0  0  0  0  0  0  0  0
  -24.1012  -12.9993   20.7736 C   0  0  0  0  0  0  0  0  0  0  0  0
  -17.0898  -16.8423   22.1568 C   0  0  0  0  0  0  0  0  0  0  0  0
  -22.7472  -13.7440   25.6606 C   0  0  0  0  0  0  0  0  0  0  0  0
  -18.3588  -16.8273   22.7666 C   0  0  0  0  0  0  0  0  0  0  0  0
  -22.7254  -13.9245   27.0509 C   0  0  0  0  0  0  0  0  0  0  0  0
  -30.8630  -12.9169   25.3175 C   0  0  0  0  0  0  0  0  0  0  0  0
  -29.9102  -13.9982   27.2565 C   0  0  0  0  0  0  0  0  0  0  0  0
  -22.2303   -8.1891   21.4339 C   0  0  0  0  0  0  0  0  0  0  0  0
  -25.0570  -14.6098   26.9862 C   0  0  0  0  0  0  0  0  0  0  0  0
  -21.9762   -6.1166   22.5121 C   0  0  0  0  0  0  0  0  0  0  0  0
  -22.9727   -4.1938   24.2707 C   0  0  0  0  0  0  0  0  0  0  0  0
  -21.2468   -5.7657   23.6481 C   0  0  0  0  0  0  0  0  0  0  0  0
  -29.6073  -12.7511   27.8031 C   0  0  0  0  0  0  0  0  0  0  0  0
  -24.5548  -11.6670   20.8023 C   0  0  0  0  0  0  0  0  0  0  0  0
  -25.2323  -13.7422   20.5386 C   0  0  0  0  0  0  0  0  0  0  0  0
  -22.7758  -13.5190   20.9440 C   0  0  0  0  0  0  0  0  0  0  0  0
  -19.8183  -14.9781   25.6133 C   0  0  0  0  0  0  0  0  0  0  0  0
  -28.4466  -15.7631   27.7436 C   0  0  0  0  0  0  0  0  0  0  0  0
  -19.2028  -12.5984   27.7300 C   0  0  0  0  0  0  0  0  0  0  0  0
  -20.4001  -10.4164   30.0650 C   0  0  0  0  0  0  0  0  0  0  0  0
  -31.0469  -12.7530   21.5696 C   0  0  0  0  0  0  0  0  0  0  0  0
  -15.8207  -16.7259   22.9633 C   0  0  0  0  0  0  0  0  0  0  0  0
  -21.5246  -13.2496   24.9374 C   0  0  0  0  0  0  0  0  0  0  0  0
  -21.4846  -13.6664   27.8647 C   0  0  0  0  0  0  0  0  0  0  0  0
  -16.0398  -16.1652   24.3661 C   0  0  0  0  0  0  0  0  0  0  0  0
  -29.5204  -13.4703   18.4340 C   0  0  0  0  0  0  0  0  0  0  0  0
  -17.2237  -16.8539   25.0375 C   0  0  0  0  0  0  0  0  0  0  0  0
  -28.0337  -13.2097   18.6828 C   0  0  0  0  0  0  0  0  0  0  0  0
  -30.4016  -12.4810   19.1934 C   0  0  0  0  0  0  0  0  0  0  0  0
  -28.6476  -12.1379   20.8903 C   0  0  0  0  0  0  0  0  0  0  0  0
  -18.5200  -16.6096   24.2555 C   0  0  1  0  0  0  0  0  0  0  0  0
  -20.2288  -13.5348   25.6903 C   0  0  1  0  0  0  0  0  0  0  0  0
  -27.7202  -13.1456   20.1898 C   0  0  2  0  0  0  0  0  0  0  0  0
  -28.1634  -17.0244   28.5247 C   0  0  0  0  0  0  0  0  0  0  0  0
  -20.3750   -8.5229   31.7116 C   0  0  0  0  0  0  0  0  0  0  0  0
  -18.0954  -14.7291   29.6124 C   0  0  0  0  0  0  0  0  0  0  0  0
  -18.2545  -13.0655   31.4766 C   0  0  0  0  0  0  0  0  0  0  0  0
  -16.7615  -12.6153   29.5295 C   0  0  0  0  0  0  0  0  0  0  0  0
  -21.0367   -8.4295   27.9660 C   0  0  0  0  0  0  0  0  0  0  0  0
  -31.5363  -13.0041   23.9896 C   0  0  0  0  0  0  0  0  0  0  0  0
  -27.3395  -15.2610   26.8380 C   0  0  0  0  0  0  0  0  0  1  0  0
  -19.2674  -12.4603   29.2319 C   0  0  1  0  0  0  0  0  0  0  0  0
  -20.1794   -8.9271   30.2586 C   0  0  2  0  0  0  0  0  0  0  0  0
  -18.1177  -13.2244   29.9473 C   0  0  0  0  0  0  0  0  0  0  0  0
  -25.8714  -11.5661   20.6016 N   0  0  0  0  0  0  0  0  0  0  0  0
  -29.5953  -15.1862   27.9323 N   0  0  0  0  0  0  0  0  0  0  0  0
  -26.2548  -12.8445   20.4443 N   0  0  0  0  0  0  0  0  0  0  0  0
  -20.3130  -13.1901   27.1110 N   0  0  0  0  0  0  0  0  0  0  0  0
  -30.0546  -12.4698   20.6166 N   0  0  0  0  0  0  0  0  0  0  0  0
  -25.4421  -15.0691   20.4055 N   0  0  0  0  0  0  0  0  0  0  0  0
  -21.7292  -12.6166   21.1777 N   0  0  0  0  0  0  0  0  0  0  0  0
  -19.0276  -15.2806   24.5211 N   0  0  0  0  0  0  0  0  0  0  0  0
  -19.2964  -11.0283   29.5093 N   0  0  0  0  0  0  0  0  0  0  0  0
  -30.6323  -12.7275   22.8955 N   0  0  0  0  0  0  0  0  0  0  0  0
  -21.1354   -8.1486   29.4214 N   0  3  0  0  0  0  0  0  0  0  0  0
  -22.5245  -14.7460   20.8743 O   0  0  0  0  0  0  0  0  0  0  0  0
  -20.1901  -15.7592   26.4812 O   0  0  0  0  0  0  0  0  0  0  0  0
  -18.2071  -12.1896   27.1274 O   0  0  0  0  0  0  0  0  0  0  0  0
  -21.4455  -10.9812   30.3790 O   0  0  0  0  0  0  0  0  0  0  0  0
  -32.2146  -13.0148   21.2613 O   0  0  0  0  0  0  0  0  0  0  0  0
  -21.4825   -7.0702   21.6377 O   0  0  0  0  0  0  0  0  0  0  0  0
  -26.1762  -15.0348   27.6330 O   0  0  0  0  0  0  0  0  0  1  0  0
  -23.4505   -3.2695   25.1142 F   0  0  0  0  0  0  0  0  0  0  0  0
  -20.0663   -6.3479   23.8994 F   0  0  0  0  0  0  0  0  0  0  0  0
  -28.8310  -12.6087   29.3387 Cl  0  0  0  0  0  0  0  0  0  0  0  0
  1  2  1  0  0  0  0
  1  5  2  0  0  0  0
  2  6  2  0  0  0  0
  3  9  2  0  0  0  0
  3 18  1  0  0  0  0
  4 10  1  0  0  0  0
  4 18  2  0  0  0  0
  5 20  1  0  0  0  0
  6 22  1  0  0  0  0
  7 11  2  0  0  0  0
  7 21  1  0  0  0  0
  8 14  2  0  0  0  0
  8 24  1  0  0  0  0
  9 26  1  0  0  0  0
 10 26  2  0  0  0  0
 11 27  1  0  0  0  0
 12 13  2  0  0  0  0
 12 28  1  0  0  0  0
 13 29  1  0  0  0  0
 14 31  1  0  0  0  0
 15 23  1  0  0  0  0
 15 27  2  0  0  0  0
 16 24  2  0  0  0  0
 16 25  1  0  0  0  0
 17 29  2  0  0  0  0
 17 30  1  0  0  0  0
 18 32  1  0  0  0  0
 19 32  1  0  0  0  0
 19 33  2  0  0  0  0
 19 34  1  0  0  0  0
 20 22  2  0  0  0  0
 20 40  1  0  0  0  0
 21 23  2  0  0  0  0
 21 41  1  0  0  0  0
 22 49  1  0  0  0  0
 23 42  1  0  0  0  0
 24 58  1  0  0  0  0
 25 31  2  0  0  0  0
 25 64  1  0  0  0  0
 26 79  1  0  0  0  0
 27 80  1  0  0  0  0
 28 30  2  0  0  0  0
 28 79  1  0  0  0  0
 29 81  1  0  0  0  0
 30 82  1  0  0  0  0
 31 83  1  0  0  0  0
 32 63  2  0  0  0  0
 33 65  1  0  0  0  0
 33 68  1  0  0  0  0
 34 69  1  0  0  0  0
 34 74  2  0  0  0  0
 35 50  1  0  0  0  0
 35 70  1  0  0  0  0
 35 75  2  0  0  0  0
 36 52  1  0  0  0  0
 36 59  1  0  0  0  0
 36 64  2  0  0  0  0
 37 60  1  0  0  0  0
 37 66  1  0  0  0  0
 37 76  2  0  0  0  0
 38 61  1  0  0  0  0
 38 71  1  0  0  0  0
 38 77  2  0  0  0  0
 39 67  1  0  0  0  0
 39 72  1  0  0  0  0
 39 78  2  0  0  0  0
 40 43  1  0  0  0  0
 41 50  1  0  0  0  0
 42 66  1  0  0  0  0
 43 45  1  0  0  0  0
 44 46  1  0  0  0  0
 44 47  1  0  0  0  0
 45 49  1  0  0  0  0
 46 51  1  0  0  0  0
 47 67  1  0  0  0  0
 48 51  1  0  0  0  0
 48 67  1  0  0  0  0
 49 70  1  0  0  0  0
 50 66  1  0  0  0  0
 51 65  1  0  0  0  0
 53 61  1  0  0  0  0
 54 62  1  0  0  0  0
 55 62  1  0  0  0  0
 56 62  1  0  0  0  0
 57 73  1  0  0  0  0
 58 72  1  0  0  0  0
 59 80  1  0  0  0  0
 60 62  1  0  0  0  0
 60 71  1  0  0  0  0
 61 73  1  0  0  0  0
 63 65  1  0  0  0  0
M  CHG  1  73   1
M  ISO  4  39 100  59 101  72 100  80 101
M  END
> <Batch ID>
0046

> <Smiles>
C=C(Nc1cc(C[100NH:0][100C:0](=O)N2CCCC(n3nc(-c4ccc(Oc5ccc(F)cc5F)cc4)c(C(N)=O)c3N)C2)ccc1Cl)[101CH2:1][101O:1]c1ccc2c(c1)CN(C(=O)C(NC(=O)C(C)NC)C(C)(C)C)C(C(=O)NC1CCCc3ccccc31)C2

> <Shape>
0.141

> <Color>
0.186

> <Negative vol penalty>
0.000

$$$$

  -OEChem-04042322233D

 86 95  0     1  0  0  0  0  0999 V2000
  -21.2463  -21.2712   35.2373 C   0  0  0  0  0  0  0  0  0  0  0  0
  -21.5615  -19.9211   35.3521 C   0  0  0  0  0  0  0  0  0  0  0  0
  -22.8460  -10.1061   20.1100 C   0  0  0  0  0  0  0  0  0  0  0  0
  -24.2789   -9.5474   21.9733 C   0  0  0  0  0  0  0  0  0  0  0  0
  -20.8325  -21.7873   34.0100 C   0  0  0  0  0  0  0  0  0  0  0  0
  -21.4621  -19.0860   34.2398 C   0  0  0  0  0  0  0  0  0  0  0  0
  -27.1821  -15.4378   31.8184 C   0  0  0  0  0  0  0  0  0  0  0  0
  -32.8439  -13.5277   23.5784 C   0  0  0  0  0  0  0  0  0  0  0  0
  -22.1379   -8.9193   20.2986 C   0  0  0  0  0  0  0  0  0  0  0  0
  -23.5707   -8.3606   22.1620 C   0  0  0  0  0  0  0  0  0  0  0  0
  -28.1777  -14.5447   31.4218 C   0  0  0  0  0  0  0  0  0  0  0  0
  -20.6416   -7.4035   23.5495 C   0  0  0  0  0  0  0  0  0  0  0  0
  -20.2847   -7.0641   24.8544 C   0  0  0  0  0  0  0  0  0  0  0  0
  -33.6578  -13.7783   24.6831 C   0  0  0  0  0  0  0  0  0  0  0  0
  -26.7654  -13.7510   29.6264 C   0  0  0  0  0  0  0  0  0  0  0  0
  -21.5549   -5.0172   24.6694 C   0  0  0  0  0  0  0  0  0  0  0  0
  -23.9166  -10.4201   20.9472 C   0  0  0  0  0  0  0  0  0  0  0  0
  -24.1412  -12.9574   20.8090 C   0  0  0  0  0  0  0  0  0  0  0  0
  -20.7371  -20.9601   32.8798 C   0  0  0  0  0  0  0  0  0  0  0  0
  -25.9789  -15.5018   31.1101 C   0  0  0  0  0  0  0  0  0  0  0  0
  -21.0453  -19.5913   32.9966 C   0  0  0  0  0  0  0  0  0  0  0  0
  -25.7694  -14.6524   30.0113 C   0  0  0  0  0  0  0  0  0  0  0  0
  -31.8047  -13.2986   26.1572 C   0  0  0  0  0  0  0  0  0  0  0  0
  -31.5103  -13.1627   23.7631 C   0  0  0  0  0  0  0  0  0  0  0  0
  -22.5002   -8.0465   21.3246 C   0  0  0  0  0  0  0  0  0  0  0  0
  -27.9698  -13.7032   30.3286 C   0  0  0  0  0  0  0  0  0  0  0  0
  -21.4551   -6.5497   22.8044 C   0  0  0  0  0  0  0  0  0  0  0  0
  -20.7413   -5.8710   25.4145 C   0  0  0  0  0  0  0  0  0  0  0  0
  -21.9117   -5.3566   23.3644 C   0  0  0  0  0  0  0  0  0  0  0  0
  -33.1382  -13.6638   25.9725 C   0  0  0  0  0  0  0  0  0  0  0  0
  -30.9907  -13.0481   25.0525 C   0  0  0  0  0  0  0  0  0  0  0  0
  -24.6489  -11.6456   20.7525 C   0  0  0  0  0  0  0  0  0  0  0  0
  -25.2287  -13.7577   20.5570 C   0  0  0  0  0  0  0  0  0  0  0  0
  -31.3075  -11.9887   28.2157 C   0  0  0  0  0  0  0  0  0  0  0  0
  -31.3652  -10.7438   27.7026 C   0  0  0  0  0  0  0  0  0  0  0  0
  -22.8060  -13.4120   21.0665 C   0  0  0  0  0  0  0  0  0  0  0  0
  -22.6086  -17.1101   30.7487 C   0  0  0  0  0  0  0  0  0  0  0  0
  -23.7269  -16.7385   27.9165 C   0  0  0  0  0  0  0  0  0  0  0  0
  -25.6025  -16.9803   25.4012 C   0  0  0  0  0  0  0  0  0  0  0  0
  -31.1112  -12.9981   21.2812 C   0  0  0  0  0  0  0  0  0  0  0  0
  -20.2398  -21.5537   31.5856 C   0  0  0  0  0  0  0  0  0  0  0  0
  -24.8547  -16.4051   31.5392 C   0  0  0  0  0  0  0  0  0  0  0  0
  -24.4460  -14.7316   29.3005 C   0  0  0  0  0  0  0  0  0  0  0  0
  -31.2332  -12.1206   29.7276 C   0  0  0  0  0  0  0  0  0  0  0  0
  -20.5206  -20.6788   30.3666 C   0  0  0  0  0  0  0  0  0  0  0  0
  -29.4206  -13.7590   18.2414 C   0  0  0  0  0  0  0  0  0  0  0  0
  -20.1421  -19.2289   30.6516 C   0  0  0  0  0  0  0  0  0  0  0  0
  -27.9580  -13.4285   18.5475 C   0  0  0  0  0  0  0  0  0  0  0  0
  -30.6151  -14.5296   29.4638 C   0  0  0  0  0  0  0  0  0  0  0  0
  -30.3771  -12.7782   18.9173 C   0  0  0  0  0  0  0  0  0  0  0  0
  -30.5350  -14.3655   27.9478 C   0  0  0  0  0  0  0  0  0  0  0  0
  -28.7170  -12.2846   20.6694 C   0  0  0  0  0  0  0  0  0  0  0  0
  -20.9736  -18.6586   31.8070 C   0  0  1  0  0  0  0  0  0  0  0  0
  -24.0499  -16.9709   30.3554 C   0  0  1  0  0  0  0  0  0  0  0  0
  -27.7182  -13.2839   20.0631 C   0  0  2  0  0  0  0  0  0  0  0  0
  -30.2946  -13.2305   30.1898 C   0  0  1  0  0  0  0  0  0  1  0  0
  -26.7413  -17.2490   23.1813 C   0  0  0  0  0  0  0  0  0  0  0  0
  -21.9781  -14.2630   27.5739 C   0  0  0  0  0  0  0  0  0  0  0  0
  -22.6039  -14.2434   25.1498 C   0  0  0  0  0  0  0  0  0  0  0  0
  -21.3628  -16.1874   26.1001 C   0  0  0  0  0  0  0  0  0  0  0  0
  -25.6328  -19.9298   25.6432 C   0  0  0  0  0  0  0  0  0  0  0  0
  -23.8000  -15.8647   26.6899 C   0  0  1  0  0  0  0  0  0  0  0  0
  -25.8245  -17.8937   24.2092 C   0  0  2  0  0  0  0  0  0  0  0  0
  -22.4563  -15.1387   26.3986 C   0  0  0  0  0  0  0  0  0  0  0  0
  -25.9571  -11.6101   20.4853 N   0  0  0  0  0  0  0  0  0  0  0  0
  -26.2806  -12.9095   20.3716 N   0  0  0  0  0  0  0  0  0  0  0  0
  -31.2787  -13.1830   27.4761 N   0  0  0  0  0  0  0  0  0  0  0  0
  -24.0449  -16.1381   29.1407 N   0  0  0  0  0  0  0  0  0  0  0  0
  -30.0934  -12.6962   20.3518 N   0  0  0  0  0  0  0  0  0  0  0  0
  -25.3781  -15.0970   20.4779 N   0  0  0  0  0  0  0  0  0  0  0  0
  -21.8092  -12.4562   21.3057 N   0  0  0  0  0  0  0  0  0  0  0  0
  -30.7155  -12.9177   22.6159 N   0  0  0  0  0  0  0  0  0  0  0  0
  -22.3037  -18.3157   31.3513 N   0  0  0  0  0  0  0  0  0  0  0  0
  -24.2633  -16.7225   25.6046 N   0  0  0  0  0  0  0  0  0  0  0  0
  -26.4401  -19.1779   24.6483 N   0  3  0  0  0  0  0  0  0  0  0  0
  -22.5024  -14.6291   21.0676 O   0  0  0  0  0  0  0  0  0  0  0  0
  -21.8290  -16.1924   30.5214 O   0  0  0  0  0  0  0  0  0  0  0  0
  -23.3917  -17.9202   27.7960 O   0  0  0  0  0  0  0  0  0  0  0  0
  -26.5250  -16.5366   26.0814 O   0  0  0  0  0  0  0  0  0  0  0  0
  -32.2423  -13.3319   20.9192 O   0  0  0  0  0  0  0  0  0  0  0  0
  -21.8092   -6.8885   21.5092 O   0  0  0  0  0  0  0  0  0  0  0  0
  -28.9477  -12.8369   29.9441 O   0  0  0  0  0  0  0  0  0  1  0  0
  -20.3998   -5.5459   26.6682 F   0  0  0  0  0  0  0  0  0  0  0  0
  -22.6945   -4.5330   22.6540 F   0  0  0  0  0  0  0  0  0  0  0  0
  -34.1860  -13.9855   27.3086 Cl  0  0  0  0  0  0  0  0  0  0  0  0
  -29.3301  -12.5941   25.2772 Cl  0  0  0  0  0  0  0  0  0  0  0  0
  1  2  1  0  0  0  0
  1  5  2  0  0  0  0
  2  6  2  0  0  0  0
  3  9  2  0  0  0  0
  3 17  1  0  0  0  0
  4 10  1  0  0  0  0
  4 17  2  0  0  0  0
  5 19  1  0  0  0  0
  6 21  1  0  0  0  0
  7 11  2  0  0  0  0
  7 20  1  0  0  0  0
  8 14  1  0  0  0  0
  8 24  2  0  0  0  0
  9 25  1  0  0  0  0
 10 25  2  0  0  0  0
 11 26  1  0  0  0  0
 12 13  2  0  0  0  0
 12 27  1  0  0  0  0
 13 28  1  0  0  0  0
 14 30  2  0  0  0  0
 15 22  1  0  0  0  0
 15 26  2  0  0  0  0
 16 28  2  0  0  0  0
 16 29  1  0  0  0  0
 17 32  1  0  0  0  0
 18 32  1  0  0  0  0
 18 33  2  0  0  0  0
 18 36  1  0  0  0  0
 19 21  2  0  0  0  0
 19 41  1  0  0  0  0
 20 22  2  0  0  0  0
 20 42  1  0  0  0  0
 21 53  1  0  0  0  0
 22 43  1  0  0  0  0
 23 30  1  0  0  0  0
 23 31  2  0  0  0  0
 23 67  1  0  0  0  0
 24 31  1  0  0  0  0
 24 72  1  0  0  0  0
 25 81  1  0  0  0  0
 26 82  1  0  0  0  0
 27 29  2  0  0  0  0
 27 81  1  0  0  0  0
 28 83  1  0  0  0  0
 29 84  1  0  0  0  0
 30 85  1  0  0  0  0
 31 86  1  0  0  0  0
 32 65  2  0  0  0  0
 33 66  1  0  0  0  0
 33 70  1  0  0  0  0
 34 35  2  0  0  0  0
 34 44  1  0  0  0  0
 34 67  1  0  0  0  0
 36 71  1  0  0  0  0
 36 76  2  0  0  0  0
 37 54  1  0  0  0  0
 37 73  1  0  0  0  0
 37 77  2  0  0  0  0
 38 62  1  0  0  0  0
 38 68  1  0  0  0  0
 38 78  2  0  0  0  0
 39 63  1  0  0  0  0
 39 74  1  0  0  0  0
 39 79  2  0  0  0  0
 40 69  1  0  0  0  0
 40 72  1  0  0  0  0
 40 80  2  0  0  0  0
 41 45  1  0  0  0  0
 42 54  1  0  0  0  0
 43 68  1  0  0  0  0
 44 56  1  0  0  0  0
 45 47  1  0  0  0  0
 46 48  1  0  0  0  0
 46 50  1  0  0  0  0
 47 53  1  0  0  0  0
 48 55  1  0  0  0  0
 49 51  1  0  0  0  0
 49 56  1  0  0  0  0
 50 69  1  0  0  0  0
 51 67  1  0  0  0  0
 52 55  1  0  0  0  0
 52 69  1  0  0  0  0
 53 73  1  0  0  0  0
 54 68  1  0  0  0  0
 55 66  1  0  0  0  0
 56 82  1  0  0  0  0
 57 63  1  0  0  0  0
 58 64  1  0  0  0  0
 59 64  1  0  0  0  0
 60 64  1  0  0  0  0
 61 75  1  0  0  0  0
 62 64  1  0  0  0  0
 62 74  1  0  0  0  0
 63 75  1  0  0  0  0
 65 66  1  0  0  0  0
M  CHG  1  75   1
M  ISO  4  40 100  56 101  72 100  82 101
M  END
> <Batch ID>
0046

> <Smiles>
C=C1C[101CH:1]([101O:1]c2ccc3c(c2)CN(C(=O)C(NC(=O)C(C)NC)C(C)(C)C)C(C(=O)NC2CCCc4ccccc42)C3)CCN1c1c(Cl)ccc([100NH:0][100C:0](=O)N2CCCC(n3nc(-c4ccc(Oc5ccc(F)cc5F)cc4)c(C(N)=O)c3N)C2)c1Cl

> <Shape>
0.151

> <Color>
0.181

> <Negative vol penalty>
0.000

$$$$

  -OEChem-04042322233D

 88 97  0     1  0  0  0  0  0999 V2000
  -21.9059  -31.0447   26.9558 C   0  0  0  0  0  0  0  0  0  0  0  0
  -21.0213  -30.0528   26.5447 C   0  0  0  0  0  0  0  0  0  0  0  0
  -22.7250  -10.2293   20.2294 C   0  0  0  0  0  0  0  0  0  0  0  0
  -24.3990   -9.3256   21.7188 C   0  0  0  0  0  0  0  0  0  0  0  0
  -22.4001  -31.9635   26.0309 C   0  0  0  0  0  0  0  0  0  0  0  0
  -20.6295  -29.9798   25.2084 C   0  0  0  0  0  0  0  0  0  0  0  0
  -21.1408  -24.0371   20.1637 C   0  0  0  0  0  0  0  0  0  0  0  0
  -21.9936   -9.0462   20.3336 C   0  0  0  0  0  0  0  0  0  0  0  0
  -23.6676   -8.1425   21.8230 C   0  0  0  0  0  0  0  0  0  0  0  0
  -21.3214  -23.1107   19.1364 C   0  0  0  0  0  0  0  0  0  0  0  0
  -20.9439   -7.0385   23.4914 C   0  0  0  0  0  0  0  0  0  0  0  0
  -20.7770   -6.4915   24.7635 C   0  0  0  0  0  0  0  0  0  0  0  0
  -21.3675  -24.9030   17.5136 C   0  0  0  0  0  0  0  0  0  0  0  0
  -25.8118  -19.6815   17.3192 C   0  0  0  0  0  0  0  0  0  0  0  0
  -21.8939   -4.4741   24.0425 C   0  0  0  0  0  0  0  0  0  0  0  0
  -23.9277  -10.3690   20.9220 C   0  0  0  0  0  0  0  0  0  0  0  0
  -27.5113  -18.2100   16.4340 C   0  0  0  0  0  0  0  0  0  0  0  0
  -24.2607  -12.8864   21.1665 C   0  0  0  0  0  0  0  0  0  0  0  0
  -22.0216  -31.8958   24.6808 C   0  0  0  0  0  0  0  0  0  0  0  0
  -21.0882  -25.4028   19.8711 C   0  0  0  0  0  0  0  0  0  0  0  0
  -21.1180  -30.8994   24.2648 C   0  0  0  0  0  0  0  0  0  0  0  0
  -21.1992  -25.8365   18.5398 C   0  0  0  0  0  0  0  0  0  0  0  0
  -27.1940  -18.6221   15.1398 C   0  0  0  0  0  0  0  0  0  0  0  0
  -26.1855  -19.5639   14.9353 C   0  0  0  0  0  0  0  0  0  0  0  0
  -25.4945  -20.0936   16.0250 C   0  0  0  0  0  0  0  0  0  0  0  0
  -22.4649   -8.0028   21.1304 C   0  0  0  0  0  0  0  0  0  0  0  0
  -21.4342  -23.5425   17.8147 C   0  0  0  0  0  0  0  0  0  0  0  0
  -21.5857   -6.3034   22.4947 C   0  0  0  0  0  0  0  0  0  0  0  0
  -21.2521   -5.2093   25.0392 C   0  0  0  0  0  0  0  0  0  0  0  0
  -22.0608   -5.0212   22.7703 C   0  0  0  0  0  0  0  0  0  0  0  0
  -26.8203  -18.7397   17.5238 C   0  0  0  0  0  0  0  0  0  0  0  0
  -24.6840  -11.5907   20.8144 C   0  0  0  0  0  0  0  0  0  0  0  0
  -25.3362  -13.6898   20.8759 C   0  0  0  0  0  0  0  0  0  0  0  0
  -23.3057  -20.7650   15.0728 C   0  0  0  0  0  0  0  0  0  0  0  0
  -28.5795  -17.2145   16.6334 C   0  0  0  0  0  0  0  0  0  0  0  0
  -23.0075  -13.3245   21.7079 C   0  0  0  0  0  0  0  0  0  0  0  0
  -20.7398  -28.9017   21.1795 C   0  0  0  0  0  0  0  0  0  0  0  0
  -22.8818  -28.9802   18.9849 C   0  0  0  0  0  0  0  0  0  0  0  0
  -25.4759  -28.5621   16.8095 C   0  0  0  0  0  0  0  0  0  0  0  0
  -29.4020  -15.1929   17.3599 C   0  0  0  0  0  0  0  0  0  0  0  0
  -22.5452  -32.9401   23.7269 C   0  0  0  0  0  0  0  0  0  0  0  0
  -20.8334  -26.4319   20.9387 C   0  0  0  0  0  0  0  0  0  0  0  0
  -21.1022  -27.3129   18.2683 C   0  0  0  0  0  0  0  0  0  0  0  0
  -22.4148  -21.9306   14.6721 C   0  0  0  0  0  0  0  0  0  0  0  0
  -22.3726  -32.5642   22.2575 C   0  0  0  0  0  0  0  0  0  0  0  0
  -30.1046  -12.5259   19.6834 C   0  0  0  0  0  0  0  0  0  0  0  0
  -20.9626  -32.0410   22.0024 C   0  0  0  0  0  0  0  0  0  0  0  0
  -28.7167  -12.1292   20.1863 C   0  0  0  0  0  0  0  0  0  0  0  0
  -23.7513  -23.4818   16.0588 C   0  0  0  0  0  0  0  0  0  0  0  0
  -30.0697  -12.9474   18.2175 C   0  0  0  0  0  0  0  0  0  0  0  0
  -24.5193  -22.3039   16.6382 C   0  0  0  0  0  0  0  0  0  0  0  0
  -27.6996  -13.6451   18.4291 C   0  0  0  0  0  0  0  0  0  0  0  0
  -20.6887  -30.7724   22.8192 C   0  0  1  0  0  0  0  0  0  0  0  0
  -21.5765  -27.7566   20.6896 C   0  0  1  0  0  0  0  0  0  0  0  0
  -27.6905  -13.2436   19.9140 C   0  0  1  0  0  0  0  0  0  0  0  0
  -22.3479  -23.0628   15.6747 C   0  0  2  0  0  0  0  0  0  1  0  0
  -27.9320  -18.0569   13.9661 C   0  0  0  0  0  0  0  0  0  0  0  0
  -25.8455  -20.0051   13.5457 C   0  0  0  0  0  0  0  0  0  0  0  0
  -27.2802  -29.8432   15.6259 C   0  0  0  0  0  0  0  0  0  0  0  0
  -20.8128  -30.0853   17.0350 C   0  0  0  0  0  0  0  0  0  0  0  0
  -22.6730  -30.5149   15.4153 C   0  0  0  0  0  0  0  0  0  0  0  0
  -22.6493  -31.6783   17.6217 C   0  0  0  0  0  0  0  0  0  0  0  0
  -27.6132  -26.9898   18.1206 C   0  0  0  0  0  0  0  0  0  0  0  0
  -23.1916  -29.2107   17.5275 C   0  0  1  0  0  0  0  0  0  0  0  0
  -26.9188  -29.0312   16.8600 C   0  0  2  0  0  0  0  0  0  0  0  0
  -22.3272  -30.3462   16.9102 C   0  0  0  0  0  0  0  0  0  0  0  0
  -25.9310  -11.5678   20.3365 N   0  0  0  0  0  0  0  0  0  0  0  0
  -28.3519  -16.0776   17.2052 N   0  0  0  0  0  0  0  0  0  0  0  0
  -26.3006  -12.8589   20.3862 N   0  0  0  0  0  0  0  0  0  0  0  0
  -24.4445  -21.0718   15.8361 N   0  0  0  0  0  0  0  0  0  0  0  0
  -21.8673  -28.0608   19.2782 N   0  0  0  0  0  0  0  0  0  0  0  0
  -29.0606  -13.9831   17.9918 N   0  0  0  0  0  0  0  0  0  0  0  0
  -25.5415  -15.0188   20.9940 N   0  0  0  0  0  0  0  0  0  0  0  0
  -22.0114  -12.3677   21.9458 N   0  0  0  0  0  0  0  0  0  0  0  0
  -21.3219  -29.6270   22.2015 N   0  0  0  0  0  0  0  0  0  0  0  0
  -24.6295  -29.4438   17.4477 N   0  0  0  0  0  0  0  0  0  0  0  0
  -27.8407  -27.8631   16.9405 N   0  3  0  0  0  0  0  0  0  0  0  0
  -23.0057  -19.6416   14.6579 O   0  0  0  0  0  0  0  0  0  0  0  0
  -22.7719  -14.5310   21.9575 O   0  0  0  0  0  0  0  0  0  0  0  0
  -19.6467  -29.1136   20.6677 O   0  0  0  0  0  0  0  0  0  0  0  0
  -23.5164  -29.6014   19.8420 O   0  0  0  0  0  0  0  0  0  0  0  0
  -25.1334  -27.5197   16.2558 O   0  0  0  0  0  0  0  0  0  0  0  0
  -30.5530  -15.4186   16.9786 O   0  0  0  0  0  0  0  0  0  0  0  0
  -21.7513   -6.8482   21.2324 O   0  0  0  0  0  0  0  0  0  0  0  0
  -21.6149  -22.6331   16.8172 O   0  0  0  0  0  0  0  0  0  1  0  0
  -21.0931   -4.6846   26.2613 F   0  0  0  0  0  0  0  0  0  0  0  0
  -22.6793   -4.3106   21.8172 F   0  0  0  0  0  0  0  0  0  0  0  0
  -27.1792  -18.2595   19.1443 Cl  0  0  0  0  0  0  0  0  0  0  0  0
  1  2  1  0  0  0  0
  1  5  2  0  0  0  0
  2  6  2  0  0  0  0
  3  8  2  0  0  0  0
  3 16  1  0  0  0  0
  4  9  1  0  0  0  0
  4 16  2  0  0  0  0
  5 19  1  0  0  0  0
  6 21  1  0  0  0  0
  7 10  2  0  0  0  0
  7 20  1  0  0  0  0
  8 26  1  0  0  0  0
  9 26  2  0  0  0  0
 10 27  1  0  0  0  0
 11 12  2  0  0  0  0
 11 28  1  0  0  0  0
 12 29  1  0  0  0  0
 13 22  1  0  0  0  0
 13 27  2  0  0  0  0
 14 25  1  0  0  0  0
 14 31  2  0  0  0  0
 15 29  2  0  0  0  0
 15 30  1  0  0  0  0
 16 32  1  0  0  0  0
 17 23  2  0  0  0  0
 17 31  1  0  0  0  0
 17 35  1  0  0  0  0
 18 32  1  0  0  0  0
 18 33  2  0  0  0  0
 18 36  1  0  0  0  0
 19 21  2  0  0  0  0
 19 41  1  0  0  0  0
 20 22  2  0  0  0  0
 20 42  1  0  0  0  0
 21 53  1  0  0  0  0
 22 43  1  0  0  0  0
 23 24  1  0  0  0  0
 23 57  1  0  0  0  0
 24 25  2  0  0  0  0
 24 58  1  0  0  0  0
 25 70  1  0  0  0  0
 26 84  1  0  0  0  0
 27 85  1  0  0  0  0
 28 30  2  0  0  0  0
 28 84  1  0  0  0  0
 29 86  1  0  0  0  0
 30 87  1  0  0  0  0
 31 88  1  0  0  0  0
 32 67  2  0  0  0  0
 33 69  1  0  0  0  0
 33 73  1  0  0  0  0
 34 44  1  0  0  0  0
 34 70  1  0  0  0  0
 34 78  2  0  0  0  0
 35 68  2  0  0  0  0
 36 74  1  0  0  0  0
 36 79  2  0  0  0  0
 37 54  1  0  0  0  0
 37 75  1  0  0  0  0
 37 80  2  0  0  0  0
 38 64  1  0  0  0  0
 38 71  1  0  0  0  0
 38 81  2  0  0  0  0
 39 65  1  0  0  0  0
 39 76  1  0  0  0  0
 39 82  2  0  0  0  0
 40 68  1  0  0  0  0
 40 72  1  0  0  0  0
 40 83  2  0  0  0  0
 41 45  1  0  0  0  0
 42 54  1  0  0  0  0
 43 71  1  0  0  0  0
 44 56  1  0  0  0  0
 45 47  1  0  0  0  0
 46 48  1  0  0  0  0
 46 50  1  0  0  0  0
 47 53  1  0  0  0  0
 48 55  1  0  0  0  0
 49 51  1  0  0  0  0
 49 56  1  0  0  0  0
 50 72  1  0  0  0  0
 51 70  1  0  0  0  0
 52 55  1  0  0  0  0
 52 72  1  0  0  0  0
 53 75  1  0  0  0  0
 54 71  1  0  0  0  0
 55 69  1  0  0  0  0
 56 85  1  0  0  0  0
 59 65  1  0  0  0  0
 60 66  1  0  0  0  0
 61 66  1  0  0  0  0
 62 66  1  0  0  0  0
 63 77  1  0  0  0  0
 64 66  1  0  0  0  0
 64 76  1  0  0  0  0
 65 77  1  0  0  0  0
 67 69  1  0  0  0  0
M  CHG  1  77   1
M  ISO  4  40 100  56 101  68 100  85 101
M  END
> <Batch ID>
0046

> <Smiles>
CNC(C)C(=O)NC(C(=O)N1Cc2cc([101O:1][101CH:1]3CCN(c4cc(Cl)c(C=[100N:0][100C:0](=O)N5CCCC(n6nc(-c7ccc(Oc8ccc(F)cc8F)cc7)c(C(N)=O)c6N)C5)c(C)c4C)C(=O)C3)ccc2CC1C(=O)NC1CCCc2ccccc21)C(C)(C)C

> <Shape>
0.203

> <Color>
0.173

> <Negative vol penalty>
0.000

$$$$

  -OEChem-04042322233D

 84 92  0     1  0  0  0  0  0999 V2000
  -32.5109  -19.4785   25.9471 C   0  0  0  0  0  0  0  0  0  0  0  0
  -31.2913  -20.0870   26.2262 C   0  0  0  0  0  0  0  0  0  0  0  0
  -29.0425  -26.1264   20.5422 C   0  0  0  0  0  0  0  0  0  0  0  0
  -27.2390  -26.1241   18.9345 C   0  0  0  0  0  0  0  0  0  0  0  0
  -32.7091  -18.8475   24.7197 C   0  0  0  0  0  0  0  0  0  0  0  0
  -30.2696  -20.0657   25.2774 C   0  0  0  0  0  0  0  0  0  0  0  0
  -23.1285  -19.8184   24.7680 C   0  0  0  0  0  0  0  0  0  0  0  0
  -29.4409  -24.8660   20.0970 C   0  0  0  0  0  0  0  0  0  0  0  0
  -27.6375  -24.8637   18.4893 C   0  0  0  0  0  0  0  0  0  0  0  0
  -22.0680  -20.4907   24.1621 C   0  0  0  0  0  0  0  0  0  0  0  0
  -27.3359  -21.6528   19.5043 C   0  0  0  0  0  0  0  0  0  0  0  0
  -26.3444  -20.6917   19.3073 C   0  0  0  0  0  0  0  0  0  0  0  0
  -22.4967  -19.3025   22.1070 C   0  0  0  0  0  0  0  0  0  0  0  0
  -19.5164  -27.7040   21.7011 C   0  0  0  0  0  0  0  0  0  0  0  0
  -17.6185  -26.7264   22.8322 C   0  0  0  0  0  0  0  0  0  0  0  0
  -18.2444  -29.0163   23.2814 C   0  0  0  0  0  0  0  0  0  0  0  0
  -26.9665  -20.5272   16.9786 C   0  0  0  0  0  0  0  0  0  0  0  0
  -27.9415  -26.7555   19.9610 C   0  0  0  0  0  0  0  0  0  0  0  0
  -27.9601  -29.3063   19.9351 C   0  0  0  0  0  0  0  0  0  0  0  0
  -31.6860  -18.8102   23.7593 C   0  0  0  0  0  0  0  0  0  0  0  0
  -23.8892  -18.8895   24.0436 C   0  0  0  0  0  0  0  0  0  0  0  0
  -30.4548  -19.4348   24.0355 C   0  0  0  0  0  0  0  0  0  0  0  0
  -23.5647  -18.6178   22.7068 C   0  0  0  0  0  0  0  0  0  0  0  0
  -18.6751  -26.6149   21.9284 C   0  0  0  0  0  0  0  0  0  0  0  0
  -19.3011  -28.9048   22.3777 C   0  0  0  0  0  0  0  0  0  0  0  0
  -28.7385  -24.2346   19.0706 C   0  0  0  0  0  0  0  0  0  0  0  0
  -21.7538  -20.2349   22.8306 C   0  0  0  0  0  0  0  0  0  0  0  0
  -28.1427  -22.0511   18.4384 C   0  0  0  0  0  0  0  0  0  0  0  0
  -26.1597  -20.1289   18.0445 C   0  0  0  0  0  0  0  0  0  0  0  0
  -27.9580  -21.4883   17.1756 C   0  0  0  0  0  0  0  0  0  0  0  0
  -17.4032  -27.9272   23.5087 C   0  0  0  0  0  0  0  0  0  0  0  0
  -27.5290  -28.0572   20.4208 C   0  0  0  0  0  0  0  0  0  0  0  0
  -27.2790  -30.2243   20.6966 C   0  0  0  0  0  0  0  0  0  0  0  0
  -28.8926  -29.6095   18.8892 C   0  0  0  0  0  0  0  0  0  0  0  0
  -26.9411  -18.6753   23.1812 C   0  0  0  0  0  0  0  0  0  0  0  0
  -26.0279  -15.7542   22.1062 C   0  0  0  0  0  0  0  0  0  0  0  0
  -19.8143  -23.0443   21.6083 C   0  0  0  0  0  0  0  0  0  0  0  0
  -23.5096  -13.7256   21.0153 C   0  0  0  0  0  0  0  0  0  0  0  0
  -22.1120  -29.9896   23.7130 C   0  0  0  0  0  0  0  0  0  0  0  0
  -31.9633  -18.1572   22.4283 C   0  0  0  0  0  0  0  0  0  0  0  0
  -25.0131  -18.1531   24.7194 C   0  0  0  0  0  0  0  0  0  0  0  0
  -24.3377  -17.6149   21.8912 C   0  0  0  0  0  0  0  0  0  0  0  0
  -30.7018  -17.8544   21.6238 C   0  0  0  0  0  0  0  0  0  0  0  0
  -25.3242  -30.7841   25.0274 C   0  0  0  0  0  0  0  0  0  0  0  0
  -29.7687  -19.0612   21.6199 C   0  0  0  0  0  0  0  0  0  0  0  0
  -26.2924  -30.2880   23.9520 C   0  0  0  0  0  0  0  0  0  0  0  0
  -24.1143  -29.8626   25.1660 C   0  0  0  0  0  0  0  0  0  0  0  0
  -24.3568  -29.1040   22.8337 C   0  0  0  0  0  0  0  0  0  0  0  0
  -29.3137  -19.4114   23.0418 C   0  0  1  0  0  0  0  0  0  0  0  0
  -26.0445  -17.6056   23.7376 C   0  0  1  0  0  0  0  0  0  0  0  0
  -25.5653  -30.0311   22.6184 C   0  0  2  0  0  0  0  0  0  0  0  0
  -23.0771  -11.4020   20.1721 C   0  0  0  0  0  0  0  0  0  0  0  0
  -27.2119  -16.5183   19.3999 C   0  0  0  0  0  0  0  0  0  0  0  0
  -25.9371  -14.6182   18.3839 C   0  0  0  0  0  0  0  0  0  0  0  0
  -27.6756  -14.1672   20.1150 C   0  0  0  0  0  0  0  0  0  0  0  0
  -21.6903  -13.1214   23.2700 C   0  0  0  0  0  0  0  0  0  0  0  0
  -18.9065  -25.3233   21.1988 C   0  0  0  0  0  0  0  0  0  0  0  0
  -20.2003  -30.0692   22.1325 C   0  0  0  0  0  0  0  0  0  0  0  0
  -20.4262  -22.2044   22.7091 C   0  0  0  0  0  0  0  0  0  1  0  0
  -25.4815  -15.2164   20.8057 C   0  0  1  0  0  0  0  0  0  0  0  0
  -23.1234  -12.3071   21.3934 C   0  0  2  0  0  0  0  0  0  0  0  0
  -26.5630  -15.1504   19.6907 C   0  0  0  0  0  0  0  0  0  0  0  0
  -26.6429  -28.1680   21.4140 N   0  0  0  0  0  0  0  0  0  0  0  0
  -26.5116  -29.4977   21.5587 N   0  0  0  0  0  0  0  0  0  0  0  0
  -25.4316  -16.9252   22.5949 N   0  0  0  0  0  0  0  0  0  0  0  0
  -23.4691  -29.6612   23.8663 N   0  0  0  0  0  0  0  0  0  0  0  0
  -27.2678  -31.5742   20.7062 N   0  0  0  0  0  0  0  0  0  0  0  0
  -29.5019  -28.5467   18.2084 N   0  0  0  0  0  0  0  0  0  0  0  0
  -28.2787  -18.4999   23.4802 N   0  0  0  0  0  0  0  0  0  0  0  0
  -19.5035  -24.3207   22.0505 N   0  0  0  0  0  0  0  0  0  0  0  0
  -24.8691  -13.9303   21.1211 N   0  0  0  0  0  0  0  0  0  0  0  0
  -21.5803  -29.7739   22.4475 N   0  0  0  0  0  0  0  0  0  0  0  0
  -21.7816  -12.2908   22.0416 N   0  3  0  0  0  0  0  0  0  0  0  0
  -29.1896  -30.7881   18.5789 O   0  0  0  0  0  0  0  0  0  0  0  0
  -26.4555  -19.5911   22.5276 O   0  0  0  0  0  0  0  0  0  0  0  0
  -26.9450  -15.1533   22.6713 O   0  0  0  0  0  0  0  0  0  0  0  0
  -19.6276  -22.6170   20.4723 O   0  0  0  0  0  0  0  0  0  0  0  0
  -22.6879  -14.5669   20.6579 O   0  0  0  0  0  0  0  0  0  0  0  0
  -21.4266  -30.4466   24.6340 O   0  0  0  0  0  0  0  0  0  0  0  0
  -29.1272  -23.0048   18.6358 O   0  0  0  0  0  0  0  0  0  0  0  0
  -20.7195  -20.8902   22.2366 O   0  0  0  0  0  0  0  0  0  1  0  0
  -25.2085  -19.2049   17.8558 F   0  0  0  0  0  0  0  0  0  0  0  0
  -28.7308  -21.8661   16.1480 F   0  0  0  0  0  0  0  0  0  0  0  0
  -16.1002  -28.0644   24.6248 Cl  0  0  0  0  0  0  0  0  0  0  0  0
  1  2  1  0  0  0  0
  1  5  2  0  0  0  0
  2  6  2  0  0  0  0
  3  8  2  0  0  0  0
  3 18  1  0  0  0  0
  4  9  1  0  0  0  0
  4 18  2  0  0  0  0
  5 20  1  0  0  0  0
  6 22  1  0  0  0  0
  7 10  2  0  0  0  0
  7 21  1  0  0  0  0
  8 26  1  0  0  0  0
  9 26  2  0  0  0  0
 10 27  1  0  0  0  0
 11 12  2  0  0  0  0
 11 28  1  0  0  0  0
 12 29  1  0  0  0  0
 13 23  1  0  0  0  0
 13 27  2  0  0  0  0
 14 24  2  0  0  0  0
 14 25  1  0  0  0  0
 15 24  1  0  0  0  0
 15 31  2  0  0  0  0
 16 25  2  0  0  0  0
 16 31  1  0  0  0  0
 17 29  2  0  0  0  0
 17 30  1  0  0  0  0
 18 32  1  0  0  0  0
 19 32  1  0  0  0  0
 19 33  2  0  0  0  0
 19 34  1  0  0  0  0
 20 22  2  0  0  0  0
 20 40  1  0  0  0  0
 21 23  2  0  0  0  0
 21 41  1  0  0  0  0
 22 49  1  0  0  0  0
 23 42  1  0  0  0  0
 24 57  1  0  0  0  0
 25 58  1  0  0  0  0
 26 80  1  0  0  0  0
 27 81  1  0  0  0  0
 28 30  2  0  0  0  0
 28 80  1  0  0  0  0
 29 82  1  0  0  0  0
 30 83  1  0  0  0  0
 31 84  1  0  0  0  0
 32 63  2  0  0  0  0
 33 64  1  0  0  0  0
 33 67  1  0  0  0  0
 34 68  1  0  0  0  0
 34 74  2  0  0  0  0
 35 50  1  0  0  0  0
 35 69  1  0  0  0  0
 35 75  2  0  0  0  0
 36 60  1  0  0  0  0
 36 65  1  0  0  0  0
 36 76  2  0  0  0  0
 37 59  1  0  0  0  0
 37 70  1  0  0  0  0
 37 77  2  0  0  0  0
 38 61  1  0  0  0  0
 38 71  1  0  0  0  0
 38 78  2  0  0  0  0
 39 66  1  0  0  0  0
 39 72  1  0  0  0  0
 39 79  2  0  0  0  0
 40 43  1  0  0  0  0
 41 50  1  0  0  0  0
 42 65  1  0  0  0  0
 43 45  1  0  0  0  0
 44 46  1  0  0  0  0
 44 47  1  0  0  0  0
 45 49  1  0  0  0  0
 46 51  1  0  0  0  0
 47 66  1  0  0  0  0
 48 51  1  0  0  0  0
 48 66  1  0  0  0  0
 49 69  1  0  0  0  0
 50 65  1  0  0  0  0
 51 64  1  0  0  0  0
 52 61  1  0  0  0  0
 53 62  1  0  0  0  0
 54 62  1  0  0  0  0
 55 62  1  0  0  0  0
 56 73  1  0  0  0  0
 57 70  1  0  0  0  0
 58 72  1  0  0  0  0
 59 81  1  0  0  0  0
 60 62  1  0  0  0  0
 60 71  1  0  0  0  0
 61 73  1  0  0  0  0
 63 64  1  0  0  0  0
M  CHG  1  73   1
M  ISO  4  39 100  59 101  72 100  81 101
M  END
> <Batch ID>
0046

> <Smiles>
CNC(C)C(=O)NC(C(=O)N1Cc2cc([101O:1][101CH2:1]C(=O)NCc3cc(Cl)cc(C[100NH:0][100C:0](=O)N4CCCC(n5nc(-c6ccc(Oc7ccc(F)cc7F)cc6)c(C(N)=O)c5N)C4)c3)ccc2CC1C(=O)NC1CCCc2ccccc21)C(C)(C)C

> <Shape>
0.209

> <Color>
0.077

> <Negative vol penalty>
0.000

$$$$

  -OEChem-04042322233D

 88 97  0     1  0  0  0  0  0999 V2000
  -31.1173  -34.1538   19.7900 C   0  0  0  0  0  0  0  0  0  0  0  0
  -30.7529  -32.8123   19.8442 C   0  0  0  0  0  0  0  0  0  0  0  0
  -23.8519   -9.8093   21.9738 C   0  0  0  0  0  0  0  0  0  0  0  0
  -22.1391  -10.2490   20.3275 C   0  0  0  0  0  0  0  0  0  0  0  0
  -30.5024  -35.0767   20.6350 C   0  0  0  0  0  0  0  0  0  0  0  0
  -29.7741  -32.3927   20.7444 C   0  0  0  0  0  0  0  0  0  0  0  0
  -26.4306  -29.2237   18.6411 C   0  0  0  0  0  0  0  0  0  0  0  0
  -23.4807   -8.4650   22.0009 C   0  0  0  0  0  0  0  0  0  0  0  0
  -21.7680   -8.9047   20.3546 C   0  0  0  0  0  0  0  0  0  0  0  0
  -26.8300  -27.8991   18.4691 C   0  0  0  0  0  0  0  0  0  0  0  0
  -21.0375   -6.5835   23.3848 C   0  0  0  0  0  0  0  0  0  0  0  0
  -20.9130   -5.9713   24.6319 C   0  0  0  0  0  0  0  0  0  0  0  0
  -25.6096  -27.2795   20.4555 C   0  0  0  0  0  0  0  0  0  0  0  0
  -25.6315  -20.5330   17.6784 C   0  0  0  0  0  0  0  0  0  0  0  0
  -23.6227  -20.8759   19.5836 C   0  0  0  0  0  0  0  0  0  0  0  0
  -22.6204   -4.3756   24.0192 C   0  0  0  0  0  0  0  0  0  0  0  0
  -23.1810  -10.7013   21.1371 C   0  0  0  0  0  0  0  0  0  0  0  0
  -24.8220  -12.6185   20.7641 C   0  0  0  0  0  0  0  0  0  0  0  0
  -29.5087  -34.6699   21.5393 C   0  0  0  0  0  0  0  0  0  0  0  0
  -25.6254  -29.5887   19.7296 C   0  0  0  0  0  0  0  0  0  0  0  0
  -29.1463  -33.3108   21.6033 C   0  0  0  0  0  0  0  0  0  0  0  0
  -25.1993  -28.6090   20.6377 C   0  0  0  0  0  0  0  0  0  0  0  0
  -24.7332  -19.4982   17.9386 C   0  0  0  0  0  0  0  0  0  0  0  0
  -25.5255  -21.7393   18.3708 C   0  0  0  0  0  0  0  0  0  0  0  0
  -23.7288  -19.6696   18.8912 C   0  0  0  0  0  0  0  0  0  0  0  0
  -22.4388   -8.0127   21.1913 C   0  0  0  0  0  0  0  0  0  0  0  0
  -26.4219  -26.9272   19.3779 C   0  0  0  0  0  0  0  0  0  0  0  0
  -21.9535   -6.0917   22.4548 C   0  0  0  0  0  0  0  0  0  0  0  0
  -21.7044   -4.8675   24.9492 C   0  0  0  0  0  0  0  0  0  0  0  0
  -22.7449   -4.9878   22.7720 C   0  0  0  0  0  0  0  0  0  0  0  0
  -24.5211  -21.9107   19.3233 C   0  0  0  0  0  0  0  0  0  0  0  0
  -23.5636  -12.0902   21.1091 C   0  0  0  0  0  0  0  0  0  0  0  0
  -24.6713  -13.9775   20.8942 C   0  0  0  0  0  0  0  0  0  0  0  0
  -26.0760  -24.0430   17.6032 C   0  0  0  0  0  0  0  0  0  0  0  0
  -22.8725  -23.5850   15.8666 C   0  0  0  0  0  0  0  0  0  0  0  0
  -24.9624  -24.3130   16.8936 C   0  0  0  0  0  0  0  0  0  0  0  0
  -23.9776  -23.3164   16.5709 C   0  0  0  0  0  0  0  0  0  0  0  0
  -26.0201  -11.9414   20.3618 C   0  0  0  0  0  0  0  0  0  0  0  0
  -25.9711  -31.5264   22.2255 C   0  0  0  0  0  0  0  0  0  0  0  0
  -22.8568  -30.7802   22.7418 C   0  0  0  0  0  0  0  0  0  0  0  0
  -20.2890  -28.5808   22.2768 C   0  0  0  0  0  0  0  0  0  0  0  0
  -21.7590  -18.6544   20.0894 C   0  0  0  0  0  0  0  0  0  0  0  0
  -28.9060  -35.6961   22.4657 C   0  0  0  0  0  0  0  0  0  0  0  0
  -25.1811  -31.0172   19.8862 C   0  0  0  0  0  0  0  0  0  0  0  0
  -24.3177  -28.9455   21.8116 C   0  0  0  0  0  0  0  0  0  0  0  0
  -27.6118  -35.2323   23.1291 C   0  0  0  0  0  0  0  0  0  0  0  0
  -28.7892  -23.5296   18.5400 C   0  0  0  0  0  0  0  0  0  0  0  0
  -20.9239  -16.6948   22.9424 C   0  0  0  0  0  0  0  0  0  0  0  0
  -27.7694  -33.8168   23.6754 C   0  0  0  0  0  0  0  0  0  0  0  0
  -28.4937  -24.7717   17.7096 C   0  0  0  0  0  0  0  0  0  0  0  0
  -21.6397  -15.3656   22.6914 C   0  0  0  0  0  0  0  0  0  0  0  0
  -27.8744  -22.3738   18.1472 C   0  0  0  0  0  0  0  0  0  0  0  0
  -20.3792  -17.2986   21.6492 C   0  0  0  0  0  0  0  0  0  0  0  0
  -22.0787  -16.1125   20.3172 C   0  0  0  0  0  0  0  0  0  0  0  0
  -28.0711  -32.8211   22.5490 C   0  0  1  0  0  0  0  0  0  0  0  0
  -27.0336  -25.1875   17.8737 C   0  0  2  0  0  0  0  0  0  1  0  0
  -24.7848  -31.3662   21.3174 C   0  0  1  0  0  0  0  0  0  0  0  0
  -22.7010  -15.4979   21.5816 C   0  0  2  0  0  0  0  0  0  0  0  0
  -24.8710  -18.2165   17.1827 C   0  0  0  0  0  0  0  0  0  0  0  0
  -17.8719  -28.2251   22.8498 C   0  0  0  0  0  0  0  0  0  0  0  0
  -23.6498  -29.9734   25.5756 C   0  0  0  0  0  0  0  0  0  0  0  0
  -21.4639  -28.7682   25.7694 C   0  0  0  0  0  0  0  0  0  0  0  0
  -21.4977  -31.2371   25.4143 C   0  0  0  0  0  0  0  0  0  0  0  0
  -19.4918  -28.5921   19.4267 C   0  0  0  0  0  0  0  0  0  0  0  0
  -22.1286  -29.7018   23.5072 C   0  0  1  0  0  0  0  0  0  0  0  0
  -18.8523  -28.7891   21.8332 C   0  0  2  0  0  0  0  0  0  0  0  0
  -22.2032  -29.9138   25.0457 C   0  0  0  0  0  0  0  0  0  0  0  0
  -22.6787  -13.0364   21.4342 N   0  0  0  0  0  0  0  0  0  0  0  0
  -23.3821  -14.1729   21.2941 N   0  0  0  0  0  0  0  0  0  0  0  0
  -26.4571  -22.7773   18.0823 N   0  0  0  0  0  0  0  0  0  0  0  0
  -23.9151  -30.3571   21.9251 N   0  0  0  0  0  0  0  0  0  0  0  0
  -21.4414  -17.3973   20.6458 N   0  0  0  0  0  0  0  0  0  0  0  0
  -25.5171  -15.0124   20.7046 N   0  0  0  0  0  0  0  0  0  0  0  0
  -26.0015  -10.5424   20.2799 N   0  0  0  0  0  0  0  0  0  0  0  0
  -22.8075  -18.6299   19.1703 N   0  0  0  0  0  0  0  0  0  0  0  0
  -26.8625  -32.5013   21.8199 N   0  0  0  0  0  0  0  0  0  0  0  0
  -20.7711  -29.6685   22.9738 N   0  0  0  0  0  0  0  0  0  0  0  0
  -18.6115  -28.1169   20.5250 N   0  3  0  0  0  0  0  0  0  0  0  0
  -27.0806  -12.5577   20.0990 O   0  0  0  0  0  0  0  0  0  0  0  0
  -26.0697  -30.8190   23.2213 O   0  0  0  0  0  0  0  0  0  0  0  0
  -22.4954  -31.9538   22.8586 O   0  0  0  0  0  0  0  0  0  0  0  0
  -20.9194  -27.5543   22.0330 O   0  0  0  0  0  0  0  0  0  0  0  0
  -21.1642  -19.6817   20.4253 O   0  0  0  0  0  0  0  0  0  0  0  0
  -22.0765   -6.7010   21.2173 O   0  0  0  0  0  0  0  0  0  0  0  0
  -26.8108  -25.6337   19.2127 O   0  0  0  0  0  0  0  0  0  1  0  0
  -21.5858   -4.2807   26.1474 F   0  0  0  0  0  0  0  0  0  0  0  0
  -23.6275   -4.5115   21.8832 F   0  0  0  0  0  0  0  0  0  0  0  0
  -24.3543  -23.3885   20.2027 Cl  0  0  0  0  0  0  0  0  0  0  0  0
  1  2  1  0  0  0  0
  1  5  2  0  0  0  0
  2  6  2  0  0  0  0
  3  8  2  0  0  0  0
  3 17  1  0  0  0  0
  4  9  1  0  0  0  0
  4 17  2  0  0  0  0
  5 19  1  0  0  0  0
  6 21  1  0  0  0  0
  7 10  2  0  0  0  0
  7 20  1  0  0  0  0
  8 26  1  0  0  0  0
  9 26  2  0  0  0  0
 10 27  1  0  0  0  0
 11 12  2  0  0  0  0
 11 28  1  0  0  0  0
 12 29  1  0  0  0  0
 13 22  1  0  0  0  0
 13 27  2  0  0  0  0
 14 23  2  0  0  0  0
 14 24  1  0  0  0  0
 15 25  2  0  0  0  0
 15 31  1  0  0  0  0
 16 29  2  0  0  0  0
 16 30  1  0  0  0  0
 17 32  1  0  0  0  0
 18 32  1  0  0  0  0
 18 33  2  0  0  0  0
 18 38  1  0  0  0  0
 19 21  2  0  0  0  0
 19 43  1  0  0  0  0
 20 22  2  0  0  0  0
 20 44  1  0  0  0  0
 21 55  1  0  0  0  0
 22 45  1  0  0  0  0
 23 25  1  0  0  0  0
 23 59  1  0  0  0  0
 24 31  2  0  0  0  0
 24 70  1  0  0  0  0
 25 75  1  0  0  0  0
 26 84  1  0  0  0  0
 27 85  1  0  0  0  0
 28 30  2  0  0  0  0
 28 84  1  0  0  0  0
 29 86  1  0  0  0  0
 30 87  1  0  0  0  0
 31 88  1  0  0  0  0
 32 68  2  0  0  0  0
 33 69  1  0  0  0  0
 33 73  1  0  0  0  0
 34 36  2  0  0  0  0
 34 56  1  0  0  0  0
 34 70  1  0  0  0  0
 35 37  2  0  0  0  0
 36 37  1  0  0  0  0
 38 74  1  0  0  0  0
 38 79  2  0  0  0  0
 39 57  1  0  0  0  0
 39 76  1  0  0  0  0
 39 80  2  0  0  0  0
 40 65  1  0  0  0  0
 40 71  1  0  0  0  0
 40 81  2  0  0  0  0
 41 66  1  0  0  0  0
 41 77  1  0  0  0  0
 41 82  2  0  0  0  0
 42 72  1  0  0  0  0
 42 75  1  0  0  0  0
 42 83  2  0  0  0  0
 43 46  1  0  0  0  0
 44 57  1  0  0  0  0
 45 71  1  0  0  0  0
 46 49  1  0  0  0  0
 47 50  1  0  0  0  0
 47 52  1  0  0  0  0
 48 51  1  0  0  0  0
 48 53  1  0  0  0  0
 49 55  1  0  0  0  0
 50 56  1  0  0  0  0
 51 58  1  0  0  0  0
 52 70  1  0  0  0  0
 53 72  1  0  0  0  0
 54 58  1  0  0  0  0
 54 72  1  0  0  0  0
 55 76  1  0  0  0  0
 56 85  1  0  0  0  0
 57 71  1  0  0  0  0
 58 69  1  0  0  0  0
 60 66  1  0  0  0  0
 61 67  1  0  0  0  0
 62 67  1  0  0  0  0
 63 67  1  0  0  0  0
 64 78  1  0  0  0  0
 65 67  1  0  0  0  0
 65 77  1  0  0  0  0
 66 78  1  0  0  0  0
 68 69  1  0  0  0  0
M  CHG  1  78   1
M  ISO  4  42 100  56 101  75 100  85 101
M  END
> <Batch ID>
0046

> <Smiles>
C=CC=C1N(c2cc(C)c([100NH:0][100C:0](=O)N3CCCC(n4nc(-c5ccc(Oc6ccc(F)cc6F)cc5)c(C(N)=O)c4N)C3)cc2Cl)CCC[101CH:1]1[101O:1]c1ccc2c(c1)CN(C(=O)C(NC(=O)C(C)NC)C(C)(C)C)C(C(=O)NC1CCCc3ccccc31)C2

> <Shape>
0.249

> <Color>
0.137

> <Negative vol penalty>
0.000

$$$$

  -OEChem-04042322233D

 86 95  0     1  0  0  0  0  0999 V2000
  -16.5499  -29.8490   23.4272 C   0  0  0  0  0  0  0  0  0  0  0  0
  -17.6185  -30.6957   23.6994 C   0  0  0  0  0  0  0  0  0  0  0  0
  -20.3834  -24.4553   14.3767 C   0  0  0  0  0  0  0  0  0  0  0  0
  -20.4690  -23.4292   12.1911 C   0  0  0  0  0  0  0  0  0  0  0  0
  -16.7902  -28.5433   23.0046 C   0  0  0  0  0  0  0  0  0  0  0  0
  -18.9277  -30.2409   23.5375 C   0  0  0  0  0  0  0  0  0  0  0  0
  -27.0797  -29.3285   22.0834 C   0  0  0  0  0  0  0  0  0  0  0  0
  -29.4552  -20.7441   15.9777 C   0  0  0  0  0  0  0  0  0  0  0  0
  -19.1217  -23.8995   14.5882 C   0  0  0  0  0  0  0  0  0  0  0  0
  -19.2073  -22.8733   12.4026 C   0  0  0  0  0  0  0  0  0  0  0  0
  -27.8673  -28.3347   21.5040 C   0  0  0  0  0  0  0  0  0  0  0  0
  -15.9855  -23.8926   12.2921 C   0  0  0  0  0  0  0  0  0  0  0  0
  -15.0586  -23.9749   11.2531 C   0  0  0  0  0  0  0  0  0  0  0  0
  -29.9126  -20.0718   17.1110 C   0  0  0  0  0  0  0  0  0  0  0  0
  -26.1785  -27.9886   19.8165 C   0  0  0  0  0  0  0  0  0  0  0  0
  -28.0394  -22.1231   17.3672 C   0  0  0  0  0  0  0  0  0  0  0  0
  -14.9261  -21.5637   11.1802 C   0  0  0  0  0  0  0  0  0  0  0  0
  -21.0570  -24.2202   13.1781 C   0  0  0  0  0  0  0  0  0  0  0  0
  -22.6960  -26.1616   12.9497 C   0  0  0  0  0  0  0  0  0  0  0  0
  -18.1033  -28.0692   22.8497 C   0  0  0  0  0  0  0  0  0  0  0  0
  -25.8286  -29.6528   21.5392 C   0  0  0  0  0  0  0  0  0  0  0  0
  -19.1907  -28.9339   23.0889 C   0  0  0  0  0  0  0  0  0  0  0  0
  -25.3781  -28.9887   20.3894 C   0  0  0  0  0  0  0  0  0  0  0  0
  -28.4968  -21.4508   18.5006 C   0  0  0  0  0  0  0  0  0  0  0  0
  -28.5186  -21.7698   16.1058 C   0  0  0  0  0  0  0  0  0  0  0  0
  -18.5336  -23.1085   13.6012 C   0  0  0  0  0  0  0  0  0  0  0  0
  -27.4155  -27.6625   20.3721 C   0  0  0  0  0  0  0  0  0  0  0  0
  -16.3828  -22.6458   12.7752 C   0  0  0  0  0  0  0  0  0  0  0  0
  -14.5289  -22.8105   10.6971 C   0  0  0  0  0  0  0  0  0  0  0  0
  -15.8531  -21.4813   12.2193 C   0  0  0  0  0  0  0  0  0  0  0  0
  -29.4334  -20.4251   18.3724 C   0  0  0  0  0  0  0  0  0  0  0  0
  -22.3602  -24.7945   12.9587 C   0  0  0  0  0  0  0  0  0  0  0  0
  -24.0465  -26.1817   12.7001 C   0  0  0  0  0  0  0  0  0  0  0  0
  -27.8944  -24.3187   20.0057 C   0  0  0  0  0  0  0  0  0  0  0  0
  -21.8619  -27.3106   13.1491 C   0  0  0  0  0  0  0  0  0  0  0  0
  -22.8297  -29.5411   22.5868 C   0  0  0  0  0  0  0  0  0  0  0  0
  -22.2032  -31.0306   19.7741 C   0  0  0  0  0  0  0  0  0  0  0  0
  -23.2943  -30.7517   16.3464 C   0  0  0  0  0  0  0  0  0  0  0  0
  -28.4290  -22.2277   13.6302 C   0  0  0  0  0  0  0  0  0  0  0  0
  -18.3060  -26.6495   22.3821 C   0  0  0  0  0  0  0  0  0  0  0  0
  -25.0028  -30.7458   22.1603 C   0  0  0  0  0  0  0  0  0  0  0  0
  -24.0515  -29.3134   19.7545 C   0  0  0  0  0  0  0  0  0  0  0  0
  -19.7096  -26.1246   22.6663 C   0  0  0  0  0  0  0  0  0  0  0  0
  -30.3836  -24.2715   21.5514 C   0  0  0  0  0  0  0  0  0  0  0  0
  -27.4885  -23.6702   10.5139 C   0  0  0  0  0  0  0  0  0  0  0  0
  -20.7470  -27.1277   22.1844 C   0  0  0  0  0  0  0  0  0  0  0  0
  -30.0174  -25.5042   20.7516 C   0  0  0  0  0  0  0  0  0  0  0  0
  -26.0998  -24.2520   10.7880 C   0  0  0  0  0  0  0  0  0  0  0  0
  -29.9018  -23.0291   20.8239 C   0  0  0  0  0  0  0  0  0  0  0  0
  -27.7080  -22.3528   11.2554 C   0  0  0  0  0  0  0  0  0  0  0  0
  -26.0599  -22.9846   12.9741 C   0  0  0  0  0  0  0  0  0  0  0  0
  -20.6232  -28.4515   22.9493 C   0  0  1  0  0  0  0  0  0  0  0  0
  -28.5093  -25.5733   20.6130 C   0  0  1  0  0  0  0  0  0  1  0  0
  -23.5186  -30.6375   21.8246 C   0  0  1  0  0  0  0  0  0  0  0  0
  -25.8161  -24.3447   12.3002 C   0  0  2  0  0  0  0  0  0  0  0  0
  -23.3883  -32.4693   14.5193 C   0  0  0  0  0  0  0  0  0  0  0  0
  -19.4524  -29.9511   19.0140 C   0  0  0  0  0  0  0  0  0  0  0  0
  -20.0887  -30.2201   16.6076 C   0  0  0  0  0  0  0  0  0  0  0  0
  -19.9733  -32.2184   18.0963 C   0  0  0  0  0  0  0  0  0  0  0  0
  -26.1740  -30.2595   15.8733 C   0  0  0  0  0  0  0  0  0  0  0  0
  -27.9567  -21.8609   19.8401 C   0  0  0  0  0  0  0  0  0  0  0  0
  -21.8744  -30.5748   18.3730 C   0  0  1  0  0  0  0  0  0  0  0  0
  -24.1750  -31.7302   15.5906 C   0  0  2  0  0  0  0  0  0  0  0  0
  -20.3631  -30.7252   18.0402 C   0  0  0  0  0  0  0  0  0  0  0  0
  -23.4124  -24.0035   12.7328 N   0  0  0  0  0  0  0  0  0  0  0  0
  -24.4227  -24.8763   12.5793 N   0  0  0  0  0  0  0  0  0  0  0  0
  -28.5371  -23.1150   20.3011 N   0  0  0  0  0  0  0  0  0  0  0  0
  -23.2777  -30.3854   20.4024 N   0  0  0  0  0  0  0  0  0  0  0  0
  -27.4246  -22.5180   12.6828 N   0  0  0  0  0  0  0  0  0  0  0  0
  -24.9370  -27.1885   12.5744 N   0  0  0  0  0  0  0  0  0  0  0  0
  -20.4966  -27.1105   13.3945 N   0  0  0  0  0  0  0  0  0  0  0  0
  -28.0549  -22.4533   14.9545 N   0  0  0  0  0  0  0  0  0  0  0  0
  -21.4766  -29.4387   22.3256 N   0  0  0  0  0  0  0  0  0  0  0  0
  -22.7591  -31.3193   17.4834 N   0  0  0  0  0  0  0  0  0  0  0  0
  -25.3028  -31.0111   14.9335 N   0  3  0  0  0  0  0  0  0  0  0  0
  -26.8507  -24.4000   19.3529 O   0  0  0  0  0  0  0  0  0  0  0  0
  -22.3109  -28.4806   13.0945 O   0  0  0  0  0  0  0  0  0  0  0  0
  -23.4780  -28.8390   23.3539 O   0  0  0  0  0  0  0  0  0  0  0  0
  -21.5358  -31.9311   20.2893 O   0  0  0  0  0  0  0  0  0  0  0  0
  -23.0975  -29.6003   15.9643 O   0  0  0  0  0  0  0  0  0  0  0  0
  -29.5481  -21.8356   13.2901 O   0  0  0  0  0  0  0  0  0  0  0  0
  -17.3026  -22.5657   13.8073 O   0  0  0  0  0  0  0  0  0  0  0  0
  -28.1820  -26.6916   19.8049 O   0  0  0  0  0  0  0  0  0  1  0  0
  -13.6376  -22.8897    9.7004 F   0  0  0  0  0  0  0  0  0  0  0  0
  -16.2300  -20.2807   12.6800 F   0  0  0  0  0  0  0  0  0  0  0  0
  -30.0231  -19.5710   19.7515 Cl  0  0  0  0  0  0  0  0  0  0  0  0
  1  2  1  0  0  0  0
  1  5  2  0  0  0  0
  2  6  2  0  0  0  0
  3  9  2  0  0  0  0
  3 18  1  0  0  0  0
  4 10  1  0  0  0  0
  4 18  2  0  0  0  0
  5 20  1  0  0  0  0
  6 22  1  0  0  0  0
  7 11  2  0  0  0  0
  7 21  1  0  0  0  0
  8 14  2  0  0  0  0
  8 25  1  0  0  0  0
  9 26  1  0  0  0  0
 10 26  2  0  0  0  0
 11 27  1  0  0  0  0
 12 13  2  0  0  0  0
 12 28  1  0  0  0  0
 13 29  1  0  0  0  0
 14 31  1  0  0  0  0
 15 23  1  0  0  0  0
 15 27  2  0  0  0  0
 16 24  1  0  0  0  0
 16 25  2  0  0  0  0
 17 29  2  0  0  0  0
 17 30  1  0  0  0  0
 18 32  1  0  0  0  0
 19 32  1  0  0  0  0
 19 33  2  0  0  0  0
 19 35  1  0  0  0  0
 20 22  2  0  0  0  0
 20 40  1  0  0  0  0
 21 23  2  0  0  0  0
 21 41  1  0  0  0  0
 22 52  1  0  0  0  0
 23 42  1  0  0  0  0
 24 31  2  0  0  0  0
 24 61  1  0  0  0  0
 25 72  1  0  0  0  0
 26 82  1  0  0  0  0
 27 83  1  0  0  0  0
 28 30  2  0  0  0  0
 28 82  1  0  0  0  0
 29 84  1  0  0  0  0
 30 85  1  0  0  0  0
 31 86  1  0  0  0  0
 32 65  2  0  0  0  0
 33 66  1  0  0  0  0
 33 70  1  0  0  0  0
 34 53  1  0  0  0  0
 34 67  1  0  0  0  0
 34 76  2  0  0  0  0
 35 71  1  0  0  0  0
 35 77  2  0  0  0  0
 36 54  1  0  0  0  0
 36 73  1  0  0  0  0
 36 78  2  0  0  0  0
 37 62  1  0  0  0  0
 37 68  1  0  0  0  0
 37 79  2  0  0  0  0
 38 63  1  0  0  0  0
 38 74  1  0  0  0  0
 38 80  2  0  0  0  0
 39 69  1  0  0  0  0
 39 72  1  0  0  0  0
 39 81  2  0  0  0  0
 40 43  1  0  0  0  0
 41 54  1  0  0  0  0
 42 68  1  0  0  0  0
 43 46  1  0  0  0  0
 44 47  1  0  0  0  0
 44 49  1  0  0  0  0
 45 48  1  0  0  0  0
 45 50  1  0  0  0  0
 46 52  1  0  0  0  0
 47 53  1  0  0  0  0
 48 55  1  0  0  0  0
 49 67  1  0  0  0  0
 50 69  1  0  0  0  0
 51 55  1  0  0  0  0
 51 69  1  0  0  0  0
 52 73  1  0  0  0  0
 53 83  1  0  0  0  0
 54 68  1  0  0  0  0
 55 66  1  0  0  0  0
 56 63  1  0  0  0  0
 57 64  1  0  0  0  0
 58 64  1  0  0  0  0
 59 64  1  0  0  0  0
 60 75  1  0  0  0  0
 61 67  1  0  0  0  0
 62 64  1  0  0  0  0
 62 74  1  0  0  0  0
 63 75  1  0  0  0  0
 65 66  1  0  0  0  0
M  CHG  1  75   1
M  ISO  4  39 100  53 101  72 100  83 101
M  END
> <Batch ID>
0046

> <Smiles>
CNC(C)C(=O)NC(C(=O)N1Cc2cc([101O:1][101CH:1]3CCCN(Cc4cc([100NH:0][100C:0](=O)N5CCCC(n6nc(-c7ccc(Oc8ccc(F)cc8F)cc7)c(C(N)=O)c6N)C5)ccc4Cl)C3=O)ccc2CC1C(=O)NC1CCCc2ccccc21)C(C)(C)C

> <Shape>
0.172

> <Color>
0.122

> <Negative vol penalty>
0.000

$$$$

  -OEChem-04042322233D

 88 97  0     1  0  0  0  0  0999 V2000
  -16.7027  -28.3226   23.6524 C   0  0  0  0  0  0  0  0  0  0  0  0
  -17.6150  -27.6265   22.8658 C   0  0  0  0  0  0  0  0  0  0  0  0
  -22.4167  -11.1712   22.2590 C   0  0  0  0  0  0  0  0  0  0  0  0
  -23.7246   -9.5417   21.0462 C   0  0  0  0  0  0  0  0  0  0  0  0
  -16.9541  -29.6489   24.0012 C   0  0  0  0  0  0  0  0  0  0  0  0
  -18.7788  -28.2568   22.4267 C   0  0  0  0  0  0  0  0  0  0  0  0
  -22.8860  -25.3428   22.9602 C   0  0  0  0  0  0  0  0  0  0  0  0
  -31.1358  -19.3489   20.6622 C   0  0  0  0  0  0  0  0  0  0  0  0
  -30.8381  -18.1164   21.2434 C   0  0  0  0  0  0  0  0  0  0  0  0
  -21.5204  -10.1712   22.6361 C   0  0  0  0  0  0  0  0  0  0  0  0
  -22.8283   -8.5416   21.4232 C   0  0  0  0  0  0  0  0  0  0  0  0
  -23.0813  -24.3383   22.0134 C   0  0  0  0  0  0  0  0  0  0  0  0
  -22.2033   -6.6625   24.1616 C   0  0  0  0  0  0  0  0  0  0  0  0
  -22.7348   -5.4558   24.6165 C   0  0  0  0  0  0  0  0  0  0  0  0
  -24.6772  -25.7375   20.8669 C   0  0  0  0  0  0  0  0  0  0  0  0
  -28.5776  -18.8596   21.6617 C   0  0  0  0  0  0  0  0  0  0  0  0
  -21.6166   -4.2868   22.8221 C   0  0  0  0  0  0  0  0  0  0  0  0
  -23.5188  -10.8565   21.4640 C   0  0  0  0  0  0  0  0  0  0  0  0
  -24.1602  -13.0480   20.3266 C   0  0  0  0  0  0  0  0  0  0  0  0
  -18.1262  -30.2927   23.5741 C   0  0  0  0  0  0  0  0  0  0  0  0
  -23.5778  -26.5585   22.8612 C   0  0  0  0  0  0  0  0  0  0  0  0
  -19.0454  -29.5934   22.7689 C   0  0  0  0  0  0  0  0  0  0  0  0
  -24.4908  -26.7549   21.8152 C   0  0  0  0  0  0  0  0  0  0  0  0
  -30.1545  -20.3369   20.5809 C   0  0  0  0  0  0  0  0  0  0  0  0
  -28.8754  -20.0922   21.0806 C   0  0  0  0  0  0  0  0  0  0  0  0
  -29.5590  -17.8717   21.7431 C   0  0  0  0  0  0  0  0  0  0  0  0
  -21.7262   -8.8564   22.2182 C   0  0  0  0  0  0  0  0  0  0  0  0
  -23.9749  -24.5366   20.9649 C   0  0  0  0  0  0  0  0  0  0  0  0
  -21.3783   -6.6814   23.0370 C   0  0  0  0  0  0  0  0  0  0  0  0
  -22.4415   -4.2680   23.9468 C   0  0  0  0  0  0  0  0  0  0  0  0
  -21.0850   -5.4935   22.3672 C   0  0  0  0  0  0  0  0  0  0  0  0
  -24.4447  -11.8892   21.0737 C   0  0  0  0  0  0  0  0  0  0  0  0
  -25.3666  -13.6971   20.2273 C   0  0  0  0  0  0  0  0  0  0  0  0
  -25.5461  -21.5608   20.2122 C   0  0  0  0  0  0  0  0  0  0  0  0
  -23.6123  -18.7013   21.4647 C   0  0  0  0  0  0  0  0  0  0  0  0
  -24.5276  -20.8341   20.7011 C   0  0  0  0  0  0  0  0  0  0  0  0
  -24.6270  -19.4244   20.9778 C   0  0  0  0  0  0  0  0  0  0  0  0
  -22.9168  -13.4974   19.7721 C   0  0  0  0  0  0  0  0  0  0  0  0
  -22.7291  -29.5979   22.4799 C   0  0  0  0  0  0  0  0  0  0  0  0
  -25.8968  -30.1328   22.9294 C   0  0  0  0  0  0  0  0  0  0  0  0
  -28.9982  -28.6192   21.8772 C   0  0  0  0  0  0  0  0  0  0  0  0
  -30.1124  -15.5302   22.4900 C   0  0  0  0  0  0  0  0  0  0  0  0
  -18.3317  -31.7421   23.9370 C   0  0  0  0  0  0  0  0  0  0  0  0
  -23.3759  -27.6218   23.9057 C   0  0  0  0  0  0  0  0  0  0  0  0
  -25.2734  -28.0341   21.6754 C   0  0  0  0  0  0  0  0  0  0  0  0
  -19.7682  -32.2208   23.7431 C   0  0  0  0  0  0  0  0  0  0  0  0
  -30.0457  -12.1480   21.3796 C   0  0  0  0  0  0  0  0  0  0  0  0
  -27.3189  -22.6215   18.2243 C   0  0  0  0  0  0  0  0  0  0  0  0
  -20.3047  -31.7651   22.3899 C   0  0  0  0  0  0  0  0  0  0  0  0
  -25.9826  -23.3071   18.4864 C   0  0  0  0  0  0  0  0  0  0  0  0
  -28.5591  -11.8745   21.1396 C   0  0  0  0  0  0  0  0  0  0  0  0
  -30.2676  -13.0522   22.5907 C   0  0  0  0  0  0  0  0  0  0  0  0
  -28.0241  -14.0369   22.3332 C   0  0  0  0  0  0  0  0  0  0  0  0
  -27.2481  -21.1286   18.5285 C   0  0  0  0  0  0  0  0  0  0  0  0
  -20.3311  -30.2348   22.2938 C   0  0  1  0  0  0  0  0  0  0  0  0
  -25.4871  -23.0407   19.9070 C   0  0  1  0  0  0  0  0  0  1  0  0
  -23.7501  -29.0178   23.4173 C   0  0  1  0  0  0  0  0  0  0  0  0
  -27.7470  -13.1833   21.0849 C   0  0  2  0  0  0  0  0  0  0  0  0
  -30.4971  -21.6489   19.9550 C   0  0  0  0  0  0  0  0  0  0  0  0
  -31.2578  -28.6013   22.9688 C   0  0  0  0  0  0  0  0  0  0  0  0
  -26.4495  -32.5573   21.1612 C   0  0  0  0  0  0  0  0  0  0  0  0
  -28.7785  -31.6992   20.8325 C   0  0  0  0  0  0  0  0  0  0  0  0
  -27.9904  -32.3192   23.1166 C   0  0  0  0  0  0  0  0  0  0  0  0
  -29.1222  -25.6625   21.8380 C   0  0  0  0  0  0  0  0  0  0  0  0
  -27.8034  -21.1389   21.0022 C   0  0  0  0  0  0  0  0  0  0  0  0
  -27.1054  -30.2156   22.0286 C   0  0  1  0  0  0  0  0  0  0  0  0
  -29.9653  -27.8323   22.7434 C   0  0  2  0  0  0  0  0  0  0  0  0
  -27.5585  -31.6816   21.7780 C   0  0  0  0  0  0  0  0  0  0  0  0
  -25.7308  -11.8043   21.4240 N   0  0  0  0  0  0  0  0  0  0  0  0
  -26.2653  -12.9179   20.8946 N   0  0  0  0  0  0  0  0  0  0  0  0
  -25.0364  -29.0461   22.7182 N   0  0  0  0  0  0  0  0  0  0  0  0
  -29.4699  -14.2742   22.4675 N   0  0  0  0  0  0  0  0  0  0  0  0
  -25.7356  -14.8527   19.6350 N   0  0  0  0  0  0  0  0  0  0  0  0
  -22.5806  -13.0951   18.4723 N   0  0  0  0  0  0  0  0  0  0  0  0
  -29.2556  -16.6190   22.3318 N   0  0  0  0  0  0  0  0  0  0  0  0
  -21.4624  -29.7021   23.0223 N   0  0  0  0  0  0  0  0  0  0  0  0
  -28.1268  -29.3702   22.6373 N   0  0  0  0  0  0  0  0  0  0  0  0
  -26.7787  -20.8545   19.9386 N   0  3  1  0  0  0  0  0  0  0  0  0
  -30.2989  -26.5316   22.0971 N   0  3  0  0  0  0  0  0  0  0  0  0
  -22.1347  -14.2473   20.4042 O   0  0  0  0  0  0  0  0  0  0  0  0
  -23.0659  -29.9280   21.3489 O   0  0  0  0  0  0  0  0  0  0  0  0
  -25.7263  -30.9965   23.7934 O   0  0  0  0  0  0  0  0  0  0  0  0
  -29.0167  -28.5750   20.6491 O   0  0  0  0  0  0  0  0  0  0  0  0
  -31.3359  -15.6313   22.6114 O   0  0  0  0  0  0  0  0  0  0  0  0
  -20.8519   -7.8803   22.5862 O   0  0  0  0  0  0  0  0  0  0  0  0
  -24.1669  -23.5580   20.0390 O   0  0  0  0  0  0  0  0  0  1  0  0
  -22.9533   -3.1095   24.3828 F   0  0  0  0  0  0  0  0  0  0  0  0
  -20.2940   -5.5054   21.2856 F   0  0  0  0  0  0  0  0  0  0  0  0
  1  2  1  0  0  0  0
  1  5  2  0  0  0  0
  2  6  2  0  0  0  0
  3 10  2  0  0  0  0
  3 18  1  0  0  0  0
  4 11  1  0  0  0  0
  4 18  2  0  0  0  0
  5 20  1  0  0  0  0
  6 22  1  0  0  0  0
  7 12  2  0  0  0  0
  7 21  1  0  0  0  0
  8  9  2  0  0  0  0
  8 24  1  0  0  0  0
  9 26  1  0  0  0  0
 10 27  1  0  0  0  0
 11 27  2  0  0  0  0
 12 28  1  0  0  0  0
 13 14  2  0  0  0  0
 13 29  1  0  0  0  0
 14 30  1  0  0  0  0
 15 23  1  0  0  0  0
 15 28  2  0  0  0  0
 16 25  1  0  0  0  0
 16 26  2  0  0  0  0
 17 30  2  0  0  0  0
 17 31  1  0  0  0  0
 18 32  1  0  0  0  0
 19 32  1  0  0  0  0
 19 33  2  0  0  0  0
 19 38  1  0  0  0  0
 20 22  2  0  0  0  0
 20 43  1  0  0  0  0
 21 23  2  0  0  0  0
 21 44  1  0  0  0  0
 22 55  1  0  0  0  0
 23 45  1  0  0  0  0
 24 25  2  0  0  0  0
 24 59  1  0  0  0  0
 25 65  1  0  0  0  0
 26 75  1  0  0  0  0
 27 85  1  0  0  0  0
 28 86  1  0  0  0  0
 29 31  2  0  0  0  0
 29 85  1  0  0  0  0
 30 87  1  0  0  0  0
 31 88  1  0  0  0  0
 32 69  2  0  0  0  0
 33 70  1  0  0  0  0
 33 73  1  0  0  0  0
 34 36  2  0  0  0  0
 34 56  1  0  0  0  0
 34 78  1  0  0  0  0
 35 37  2  0  0  0  0
 36 37  1  0  0  0  0
 38 74  1  0  0  0  0
 38 80  2  0  0  0  0
 39 57  1  0  0  0  0
 39 76  1  0  0  0  0
 39 81  2  0  0  0  0
 40 66  1  0  0  0  0
 40 71  1  0  0  0  0
 40 82  2  0  0  0  0
 41 67  1  0  0  0  0
 41 77  1  0  0  0  0
 41 83  2  0  0  0  0
 42 72  1  0  0  0  0
 42 75  1  0  0  0  0
 42 84  2  0  0  0  0
 43 46  1  0  0  0  0
 44 57  1  0  0  0  0
 45 71  1  0  0  0  0
 46 49  1  0  0  0  0
 47 51  1  0  0  0  0
 47 52  1  0  0  0  0
 48 50  1  0  0  0  0
 48 54  1  0  0  0  0
 49 55  1  0  0  0  0
 50 56  1  0  0  0  0
 51 58  1  0  0  0  0
 52 72  1  0  0  0  0
 53 58  1  0  0  0  0
 53 72  1  0  0  0  0
 54 78  1  0  0  0  0
 55 76  1  0  0  0  0
 56 86  1  0  0  0  0
 57 71  1  0  0  0  0
 58 70  1  0  0  0  0
 60 67  1  0  0  0  0
 61 68  1  0  0  0  0
 62 68  1  0  0  0  0
 63 68  1  0  0  0  0
 64 79  1  0  0  0  0
 65 78  1  0  0  0  0
 66 68  1  0  0  0  0
 66 77  1  0  0  0  0
 67 79  1  0  0  0  0
 69 70  1  0  0  0  0
M  CHG  2  78   1  79   1
M  ISO  4  42 100  56 101  75 100  86 101
M  END
> <Batch ID>
0046

> <Smiles>
C=CC=C1N(Cc2cc([100NH:0][100C:0](=O)N3CCCC(n4nc(-c5ccc(Oc6ccc(F)cc6F)cc5)c(C(N)=O)c4N)C3)ccc2C)CCC[101CH:1]1[101O:1]c1ccc2c(c1)CN(C(=O)C(NC(=O)C(C)NC)C(C)(C)C)C(C(=O)NC1CCCc3ccccc31)C2

> <Shape>
0.294

> <Color>
0.110

> <Negative vol penalty>
0.000

$$$$

  -OEChem-04042322233D

 88 96  0     1  0  0  0  0  0999 V2000
  -28.8184  -33.1642   23.7562 C   0  0  0  0  0  0  0  0  0  0  0  0
  -28.7666  -31.7855   23.5779 C   0  0  0  0  0  0  0  0  0  0  0  0
  -24.5673   -9.4636   22.0864 C   0  0  0  0  0  0  0  0  0  0  0  0
  -24.0580   -9.2998   19.7303 C   0  0  0  0  0  0  0  0  0  0  0  0
  -27.6484  -33.8768   24.0156 C   0  0  0  0  0  0  0  0  0  0  0  0
  -27.5449  -31.1184   23.6599 C   0  0  0  0  0  0  0  0  0  0  0  0
  -26.9234  -27.7385   19.9403 C   0  0  0  0  0  0  0  0  0  0  0  0
  -29.5400  -19.3713   25.8534 C   0  0  0  0  0  0  0  0  0  0  0  0
  -30.6259  -18.5165   26.0421 C   0  0  0  0  0  0  0  0  0  0  0  0
  -23.4482   -8.6855   22.3824 C   0  0  0  0  0  0  0  0  0  0  0  0
  -22.9389   -8.5216   20.0263 C   0  0  0  0  0  0  0  0  0  0  0  0
  -27.5891  -26.5202   20.0692 C   0  0  0  0  0  0  0  0  0  0  0  0
  -20.1044   -9.1196   22.6169 C   0  0  0  0  0  0  0  0  0  0  0  0
  -19.2807   -9.5409   23.6608 C   0  0  0  0  0  0  0  0  0  0  0  0
  -25.5475  -25.4934   20.8418 C   0  0  0  0  0  0  0  0  0  0  0  0
  -28.6818  -17.9025   24.1379 C   0  0  0  0  0  0  0  0  0  0  0  0
  -19.6963   -7.4657   24.8262 C   0  0  0  0  0  0  0  0  0  0  0  0
  -24.8722   -9.7709   20.7603 C   0  0  0  0  0  0  0  0  0  0  0  0
  -27.3366  -10.1218   20.2024 C   0  0  0  0  0  0  0  0  0  0  0  0
  -26.4104  -33.2194   24.0912 C   0  0  0  0  0  0  0  0  0  0  0  0
  -25.5652  -27.8460   20.2721 C   0  0  0  0  0  0  0  0  0  0  0  0
  -26.3574  -31.8227   23.9218 C   0  0  0  0  0  0  0  0  0  0  0  0
  -24.8663  -26.7135   20.7138 C   0  0  0  0  0  0  0  0  0  0  0  0
  -28.5679  -19.0643   24.9013 C   0  0  0  0  0  0  0  0  0  0  0  0
  -30.7398  -17.3546   25.2787 C   0  0  0  0  0  0  0  0  0  0  0  0
  -29.7677  -17.0476   24.3266 C   0  0  0  0  0  0  0  0  0  0  0  0
  -22.6340   -8.2144   21.3524 C   0  0  0  0  0  0  0  0  0  0  0  0
  -26.9018  -25.3981   20.5228 C   0  0  0  0  0  0  0  0  0  0  0  0
  -20.7240   -7.8713   22.6776 C   0  0  0  0  0  0  0  0  0  0  0  0
  -19.0767   -8.7140   24.7655 C   0  0  0  0  0  0  0  0  0  0  0  0
  -20.5200   -7.0444   23.7823 C   0  0  0  0  0  0  0  0  0  0  0  0
  -26.0278  -10.5751   20.4539 C   0  0  0  0  0  0  0  0  0  0  0  0
  -28.0572  -11.2670   19.9662 C   0  0  0  0  0  0  0  0  0  0  0  0
  -32.2168  -15.9473   20.7146 C   0  0  0  0  0  0  0  0  0  0  0  0
  -31.6602  -16.1385   21.9127 C   0  0  0  0  0  0  0  0  0  0  0  0
  -27.8546   -8.7850   20.1838 C   0  0  0  0  0  0  0  0  0  0  0  0
  -28.1322  -22.6116   22.0907 C   0  0  0  0  0  0  0  0  0  0  0  0
  -28.1454  -21.9958   23.4576 C   0  0  0  0  0  0  0  0  0  0  0  0
  -23.9035  -29.5104   22.4104 C   0  0  0  0  0  0  0  0  0  0  0  0
  -21.3613  -28.2385   20.8477 C   0  0  0  0  0  0  0  0  0  0  0  0
  -20.1241  -25.7390   18.8807 C   0  0  0  0  0  0  0  0  0  0  0  0
  -29.4230  -16.4691   21.0866 C   0  0  0  0  0  0  0  0  0  0  0  0
  -25.1792  -34.0258   24.4206 C   0  0  0  0  0  0  0  0  0  0  0  0
  -24.8551  -29.1610   20.1021 C   0  0  0  0  0  0  0  0  0  0  0  0
  -23.4025  -26.7714   21.0637 C   0  0  0  0  0  0  0  0  0  0  0  0
  -23.8735  -33.2943   24.1201 C   0  0  0  0  0  0  0  0  0  0  0  0
  -26.5463  -16.0233   19.2046 C   0  0  0  0  0  0  0  0  0  0  0  0
  -23.9267  -31.8662   24.6536 C   0  0  0  0  0  0  0  0  0  0  0  0
  -26.2481  -14.5306   19.3370 C   0  0  0  0  0  0  0  0  0  0  0  0
  -27.0138  -16.6043   20.5336 C   0  0  0  0  0  0  0  0  0  0  0  0
  -27.9353  -14.4190   21.2397 C   0  0  0  0  0  0  0  0  0  0  0  0
  -25.0477  -31.0666   23.9787 C   0  0  1  0  0  0  0  0  0  0  0  0
  -23.5976  -29.2761   20.9581 C   0  0  1  0  0  0  0  0  0  0  0  0
  -27.4563  -13.7780   19.9207 C   0  0  1  0  0  0  0  0  0  0  0  0
  -31.9119  -16.4553   25.4977 C   0  0  0  0  0  0  0  0  0  0  0  0
  -28.8100  -21.8486   20.9894 C   0  0  0  0  0  0  0  0  0  0  0  0
  -18.0010  -24.9510   17.7996 C   0  0  0  0  0  0  0  0  0  0  0  0
  -20.3585  -27.2396   23.5507 C   0  0  0  0  0  0  0  0  0  0  0  0
  -18.8103  -25.6978   22.3283 C   0  0  0  0  0  0  0  0  0  0  0  0
  -18.5806  -28.1668   22.0562 C   0  0  0  0  0  0  0  0  0  0  0  0
  -21.2872  -25.9586   16.1682 C   0  0  0  0  0  0  0  0  0  0  0  0
  -27.3994  -19.9848   24.6981 C   0  0  0  0  0  0  0  0  0  0  0  0
  -29.8689  -15.8095   23.4974 C   0  0  0  0  0  0  0  0  0  0  0  0
  -20.5406  -26.9793   20.9885 C   0  0  1  0  0  0  0  0  0  0  0  0
  -19.2685  -25.7736   17.6273 C   0  0  2  0  0  0  0  0  0  0  0  0
  -19.6006  -27.0199   22.2263 C   0  0  0  0  0  0  0  0  0  0  0  0
  -25.9203  -11.9046   20.3842 N   0  0  0  0  0  0  0  0  0  0  0  0
  -27.5149  -23.7438   21.9759 N   0  0  0  0  0  0  0  0  0  1  0  0
  -27.1708  -12.2965   20.0862 N   0  0  0  0  0  0  0  0  0  0  0  0
  -22.7540  -28.0813   20.8868 N   0  0  0  0  0  0  0  0  0  0  0  0
  -28.1574  -15.8622   21.0650 N   0  0  0  0  0  0  0  0  0  0  0  0
  -29.3562  -11.4836   19.6696 N   0  0  0  0  0  0  0  0  0  0  0  0
  -26.9771   -7.7246   20.4480 N   0  0  0  0  0  0  0  0  0  0  0  0
  -27.5301  -20.7655   23.4901 N   0  0  0  0  0  0  0  0  0  0  0  0
  -24.6445  -30.6514   22.6523 N   0  0  0  0  0  0  0  0  0  0  0  0
  -19.8475  -26.7995   19.7174 N   0  0  0  0  0  0  0  0  0  0  0  0
  -30.2977  -16.0941   22.1231 N   0  0  0  0  0  0  0  0  0  0  0  0
  -20.0280  -25.2291   16.4664 N   0  3  0  0  0  0  0  0  0  0  0  0
  -29.0635   -8.5393   19.9564 O   0  0  0  0  0  0  0  0  0  0  0  0
  -28.6627  -22.6257   24.3659 O   0  0  0  0  0  0  0  0  0  0  0  0
  -23.4961  -28.7157   23.2495 O   0  0  0  0  0  0  0  0  0  0  0  0
  -20.7880  -29.3208   20.7010 O   0  0  0  0  0  0  0  0  0  0  0  0
  -20.9523  -24.8572   19.0977 O   0  0  0  0  0  0  0  0  0  0  0  0
  -29.7420  -17.3120   20.2371 O   0  0  0  0  0  0  0  0  0  0  0  0
  -21.5420   -7.4548   21.6408 O   0  0  0  0  0  0  0  0  0  0  0  0
  -27.5493  -24.2080   20.6501 O   0  0  0  0  0  0  0  0  0  1  0  0
  -18.2870   -9.1193   25.7685 F   0  0  0  0  0  0  0  0  0  0  0  0
  -21.1134   -5.8447   23.8468 F   0  0  0  0  0  0  0  0  0  0  0  0
  1  2  1  0  0  0  0
  1  5  2  0  0  0  0
  2  6  2  0  0  0  0
  3 10  2  0  0  0  0
  3 18  1  0  0  0  0
  4 11  1  0  0  0  0
  4 18  2  0  0  0  0
  5 20  1  0  0  0  0
  6 22  1  0  0  0  0
  7 12  2  0  0  0  0
  7 21  1  0  0  0  0
  8  9  2  0  0  0  0
  8 24  1  0  0  0  0
  9 25  1  0  0  0  0
 10 27  1  0  0  0  0
 11 27  2  0  0  0  0
 12 28  1  0  0  0  0
 13 14  2  0  0  0  0
 13 29  1  0  0  0  0
 14 30  1  0  0  0  0
 15 23  1  0  0  0  0
 15 28  2  0  0  0  0
 16 24  2  0  0  0  0
 16 26  1  0  0  0  0
 17 30  2  0  0  0  0
 17 31  1  0  0  0  0
 18 32  1  0  0  0  0
 19 32  1  0  0  0  0
 19 33  2  0  0  0  0
 19 36  1  0  0  0  0
 20 22  2  0  0  0  0
 20 43  1  0  0  0  0
 21 23  2  0  0  0  0
 21 44  1  0  0  0  0
 22 52  1  0  0  0  0
 23 45  1  0  0  0  0
 24 62  1  0  0  0  0
 25 26  2  0  0  0  0
 25 55  1  0  0  0  0
 26 63  1  0  0  0  0
 27 85  1  0  0  0  0
 28 86  1  0  0  0  0
 29 31  2  0  0  0  0
 29 85  1  0  0  0  0
 30 87  1  0  0  0  0
 31 88  1  0  0  0  0
 32 67  2  0  0  0  0
 33 69  1  0  0  0  0
 33 72  1  0  0  0  0
 34 35  2  0  0  0  0
 35 77  1  0  0  0  0
 36 73  1  0  0  0  0
 36 79  2  0  0  0  0
 37 38  1  0  0  0  0
 37 56  1  0  0  0  0
 37 68  2  0  0  0  0
 38 74  1  0  0  0  0
 38 80  2  0  0  0  0
 39 53  1  0  0  0  0
 39 75  1  0  0  0  0
 39 81  2  0  0  0  0
 40 64  1  0  0  0  0
 40 70  1  0  0  0  0
 40 82  2  0  0  0  0
 41 65  1  0  0  0  0
 41 76  1  0  0  0  0
 41 83  2  0  0  0  0
 42 71  1  0  0  0  0
 42 77  1  0  0  0  0
 42 84  2  0  0  0  0
 43 46  1  0  0  0  0
 44 53  1  0  0  0  0
 45 70  1  0  0  0  0
 46 48  1  0  0  0  0
 47 49  1  0  0  0  0
 47 50  1  0  0  0  0
 48 52  1  0  0  0  0
 49 54  1  0  0  0  0
 50 71  1  0  0  0  0
 51 54  1  0  0  0  0
 51 71  1  0  0  0  0
 52 75  1  0  0  0  0
 53 70  1  0  0  0  0
 54 69  1  0  0  0  0
 57 65  1  0  0  0  0
 58 66  1  0  0  0  0
 59 66  1  0  0  0  0
 60 66  1  0  0  0  0
 61 78  1  0  0  0  0
 62 74  1  0  0  0  0
 63 77  1  0  0  0  0
 64 66  1  0  0  0  0
 64 76  1  0  0  0  0
 65 78  1  0  0  0  0
 67 69  1  0  0  0  0
 68 86  1  0  0  0  0
M  CHG  1  78   1
M  ISO  4  42 100  68 101  77 100  86 101
M  END
> <Batch ID>
0046

> <Smiles>
C=C[100N:0](Cc1cc(CNC(=O)C(C)=[101N:1][101O:1]c2ccc3c(c2)CN(C(=O)C(NC(=O)C(C)NC)C(C)(C)C)C(C(=O)NC2CCCc4ccccc42)C3)ccc1C)[100C:0](=O)N1CCCC(n2nc(-c3ccc(Oc4ccc(F)cc4F)cc3)c(C(N)=O)c2N)C1

> <Shape>
0.266

> <Color>
0.077

> <Negative vol penalty>
0.000

$$$$

  -OEChem-04042322233D

 88 97  0     1  0  0  0  0  0999 V2000
  -25.0267  -36.5351   22.1271 C   0  0  0  0  0  0  0  0  0  0  0  0
  -25.6435  -35.4411   22.7255 C   0  0  0  0  0  0  0  0  0  0  0  0
  -22.6184  -10.3627   20.2240 C   0  0  0  0  0  0  0  0  0  0  0  0
  -24.3043   -9.4047   21.6653 C   0  0  0  0  0  0  0  0  0  0  0  0
  -23.7771  -36.3871   21.5266 C   0  0  0  0  0  0  0  0  0  0  0  0
  -25.0106  -34.1986   22.7247 C   0  0  0  0  0  0  0  0  0  0  0  0
  -28.1483  -28.4404   19.7430 C   0  0  0  0  0  0  0  0  0  0  0  0
  -21.8359   -9.2185   20.3788 C   0  0  0  0  0  0  0  0  0  0  0  0
  -23.5217   -8.2605   21.8201 C   0  0  0  0  0  0  0  0  0  0  0  0
  -28.7730  -27.2469   19.3805 C   0  0  0  0  0  0  0  0  0  0  0  0
  -20.8157   -7.3193   23.6125 C   0  0  0  0  0  0  0  0  0  0  0  0
  -20.6728   -6.8031   24.9004 C   0  0  0  0  0  0  0  0  0  0  0  0
  -26.7591  -26.0187   19.9132 C   0  0  0  0  0  0  0  0  0  0  0  0
  -31.8558  -18.1510   20.4086 C   0  0  0  0  0  0  0  0  0  0  0  0
  -29.7307  -18.3585   21.5389 C   0  0  0  0  0  0  0  0  0  0  0  0
  -21.6628   -4.7217   24.1760 C   0  0  0  0  0  0  0  0  0  0  0  0
  -23.8527  -10.4558   20.8672 C   0  0  0  0  0  0  0  0  0  0  0  0
  -24.3151  -12.9579   21.0504 C   0  0  0  0  0  0  0  0  0  0  0  0
  -23.1329  -35.1399   21.5099 C   0  0  0  0  0  0  0  0  0  0  0  0
  -26.8201  -28.4294   20.1779 C   0  0  0  0  0  0  0  0  0  0  0  0
  -23.7506  -34.0340   22.1245 C   0  0  0  0  0  0  0  0  0  0  0  0
  -26.1242  -27.2125   20.2658 C   0  0  0  0  0  0  0  0  0  0  0  0
  -30.9256  -17.6700   21.3300 C   0  0  0  0  0  0  0  0  0  0  0  0
  -31.5911  -19.3207   19.6962 C   0  0  0  0  0  0  0  0  0  0  0  0
  -30.3962  -20.0093   19.9052 C   0  0  0  0  0  0  0  0  0  0  0  0
  -22.2875   -8.1674   21.1769 C   0  0  0  0  0  0  0  0  0  0  0  0
  -28.0801  -26.0390   19.4657 C   0  0  0  0  0  0  0  0  0  0  0  0
  -21.3821   -6.5367   22.6063 C   0  0  0  0  0  0  0  0  0  0  0  0
  -21.0964   -5.5043   25.1822 C   0  0  0  0  0  0  0  0  0  0  0  0
  -21.8056   -5.2379   22.8880 C   0  0  0  0  0  0  0  0  0  0  0  0
  -29.4659  -19.5282   20.8265 C   0  0  0  0  0  0  0  0  0  0  0  0
  -24.6618  -11.6373   20.7073 C   0  0  0  0  0  0  0  0  0  0  0  0
  -25.4156  -13.7029   20.7034 C   0  0  0  0  0  0  0  0  0  0  0  0
  -23.1065  -13.4657   21.6309 C   0  0  0  0  0  0  0  0  0  0  0  0
  -23.8730  -30.4175   21.3770 C   0  0  0  0  0  0  0  0  0  0  0  0
  -22.7862  -28.2767   19.4674 C   0  0  0  0  0  0  0  0  0  0  0  0
  -22.0465  -26.0531   16.9885 C   0  0  0  0  0  0  0  0  0  0  0  0
  -30.9441  -14.4577   20.5934 C   0  0  0  0  0  0  0  0  0  0  0  0
  -21.7616  -35.0395   20.8902 C   0  0  0  0  0  0  0  0  0  0  0  0
  -26.1269  -29.6834   20.6371 C   0  0  0  0  0  0  0  0  0  0  0  0
  -24.7080  -27.2446   20.7720 C   0  0  0  0  0  0  0  0  0  0  0  0
  -21.3262  -33.6047   20.6038 C   0  0  0  0  0  0  0  0  0  0  0  0
  -29.5158  -12.4631   18.0131 C   0  0  0  0  0  0  0  0  0  0  0  0
  -21.6068  -32.7113   21.8079 C   0  0  0  0  0  0  0  0  0  0  0  0
  -28.1000  -12.1745   18.5151 C   0  0  0  0  0  0  0  0  0  0  0  0
  -27.6503  -22.7369   18.7521 C   0  0  0  0  0  0  0  0  0  0  0  0
  -28.5765  -22.3598   17.5906 C   0  0  0  0  0  0  0  0  0  0  0  0
  -29.4491  -23.1049   20.5681 C   0  0  0  0  0  0  0  0  0  0  0  0
  -30.5272  -12.4830   19.1570 C   0  0  0  0  0  0  0  0  0  0  0  0
  -30.5576  -22.4902   19.7096 C   0  0  0  0  0  0  0  0  0  0  0  0
  -28.7705  -13.1010   20.7714 C   0  0  0  0  0  0  0  0  0  0  0  0
  -23.1070  -32.6644   22.1224 C   0  0  1  0  0  0  0  0  0  0  0  0
  -24.6267  -29.7040   20.2934 C   0  0  1  0  0  0  0  0  0  0  0  0
  -27.7064  -13.1262   19.6608 C   0  0  2  0  0  0  0  0  0  0  0  0
  -28.2771  -23.6884   19.7759 C   0  0  1  0  0  0  0  0  0  1  0  0
  -29.4821  -21.1424   17.8637 C   0  0  1  0  0  0  0  0  0  0  0  0
  -32.6079  -19.8103   18.7165 C   0  0  0  0  0  0  0  0  0  0  0  0
  -30.5321  -21.0209   16.7550 C   0  0  0  0  0  0  0  0  0  0  0  0
  -20.1151  -25.1462   15.6677 C   0  0  0  0  0  0  0  0  0  0  0  0
  -21.9384  -26.5965   21.8679 C   0  0  0  0  0  0  0  0  0  0  0  0
  -20.7096  -25.0905   20.2899 C   0  0  0  0  0  0  0  0  0  0  0  0
  -20.0460  -27.4863   20.4962 C   0  0  0  0  0  0  0  0  0  0  0  0
  -23.1922  -27.0132   14.4341 C   0  0  0  0  0  0  0  0  0  0  0  0
  -31.2099  -16.4190   22.0906 C   0  0  0  0  0  0  0  0  0  0  0  0
  -22.2027  -26.8947   19.3169 C   0  0  1  0  0  0  0  0  0  0  0  0
  -21.2174  -26.1923   15.7245 C   0  0  2  0  0  0  0  0  0  0  0  0
  -21.2520  -26.5218   20.4894 C   0  0  0  0  0  0  0  0  0  0  0  0
  -25.8866  -11.5455   20.1825 N   0  0  0  0  0  0  0  0  0  0  0  0
  -26.3192  -12.8178   20.1931 N   0  0  0  0  0  0  0  0  0  0  0  0
  -30.1418  -21.1843   19.1827 N   0  0  3  0  0  0  0  0  0  0  0  0
  -23.9879  -28.3820   20.1783 N   0  0  0  0  0  0  0  0  0  0  0  0
  -30.0958  -13.4060   20.2096 N   0  0  0  0  0  0  0  0  0  0  0  0
  -25.6888  -15.0222   20.7880 N   0  0  0  0  0  0  0  0  0  0  0  0
  -23.0131  -13.5330   23.0277 N   0  0  0  0  0  0  0  0  0  0  0  0
  -23.7900  -31.7852   21.1978 N   0  0  0  0  0  0  0  0  0  0  0  0
  -21.5721  -26.8588   18.0018 N   0  0  0  0  0  0  0  0  0  0  0  0
  -30.4559  -15.2899   21.5934 N   0  0  0  0  0  0  0  0  0  0  0  0
  -22.0794  -26.0327   14.5193 N   0  3  0  0  0  0  0  0  0  0  0  0
  -22.1318  -13.8331   20.9320 O   0  0  0  0  0  0  0  0  0  0  0  0
  -23.3996  -29.7754   22.3072 O   0  0  0  0  0  0  0  0  0  0  0  0
  -22.1919  -29.2394   18.9741 O   0  0  0  0  0  0  0  0  0  0  0  0
  -23.0157  -25.3017   17.0699 O   0  0  0  0  0  0  0  0  0  0  0  0
  -32.0520  -14.6446   20.0791 O   0  0  0  0  0  0  0  0  0  0  0  0
  -21.5240   -7.0509   21.3283 O   0  0  0  0  0  0  0  0  0  0  0  0
  -28.6946  -24.8781   19.1059 O   0  0  0  0  0  0  0  0  0  1  0  0
  -20.9605   -5.0093   26.4194 F   0  0  0  0  0  0  0  0  0  0  0  0
  -22.3515   -4.4817   21.9258 F   0  0  0  0  0  0  0  0  0  0  0  0
  -27.9725  -20.3475   21.1168 Cl  0  0  0  0  0  0  0  0  0  0  0  0
  1  2  1  0  0  0  0
  1  5  2  0  0  0  0
  2  6  2  0  0  0  0
  3  8  2  0  0  0  0
  3 17  1  0  0  0  0
  4  9  1  0  0  0  0
  4 17  2  0  0  0  0
  5 19  1  0  0  0  0
  6 21  1  0  0  0  0
  7 10  2  0  0  0  0
  7 20  1  0  0  0  0
  8 26  1  0  0  0  0
  9 26  2  0  0  0  0
 10 27  1  0  0  0  0
 11 12  2  0  0  0  0
 11 28  1  0  0  0  0
 12 29  1  0  0  0  0
 13 22  1  0  0  0  0
 13 27  2  0  0  0  0
 14 23  1  0  0  0  0
 14 24  2  0  0  0  0
 15 23  2  0  0  0  0
 15 31  1  0  0  0  0
 16 29  2  0  0  0  0
 16 30  1  0  0  0  0
 17 32  1  0  0  0  0
 18 32  1  0  0  0  0
 18 33  2  0  0  0  0
 18 34  1  0  0  0  0
 19 21  2  0  0  0  0
 19 39  1  0  0  0  0
 20 22  2  0  0  0  0
 20 40  1  0  0  0  0
 21 52  1  0  0  0  0
 22 41  1  0  0  0  0
 23 64  1  0  0  0  0
 24 25  1  0  0  0  0
 24 57  1  0  0  0  0
 25 31  2  0  0  0  0
 25 70  1  0  0  0  0
 26 84  1  0  0  0  0
 27 85  1  0  0  0  0
 28 30  2  0  0  0  0
 28 84  1  0  0  0  0
 29 86  1  0  0  0  0
 30 87  1  0  0  0  0
 31 88  1  0  0  0  0
 32 68  2  0  0  0  0
 33 69  1  0  0  0  0
 33 73  1  0  0  0  0
 34 74  1  0  0  0  0
 34 79  2  0  0  0  0
 35 53  1  0  0  0  0
 35 75  1  0  0  0  0
 35 80  2  0  0  0  0
 36 65  1  0  0  0  0
 36 71  1  0  0  0  0
 36 81  2  0  0  0  0
 37 66  1  0  0  0  0
 37 76  1  0  0  0  0
 37 82  2  0  0  0  0
 38 72  1  0  0  0  0
 38 77  1  0  0  0  0
 38 83  2  0  0  0  0
 39 42  1  0  0  0  0
 40 53  1  0  0  0  0
 41 71  1  0  0  0  0
 42 44  1  0  0  0  0
 43 45  1  0  0  0  0
 43 49  1  0  0  0  0
 44 52  1  0  0  0  0
 45 54  1  0  0  0  0
 46 47  1  0  0  0  0
 46 55  1  0  0  0  0
 47 56  1  0  0  0  0
 48 50  1  0  0  0  0
 48 55  1  0  0  0  0
 49 72  1  0  0  0  0
 50 70  1  0  0  0  0
 51 54  1  0  0  0  0
 51 72  1  0  0  0  0
 52 75  1  0  0  0  0
 53 71  1  0  0  0  0
 54 69  1  0  0  0  0
 55 85  1  0  0  0  0
 56 58  1  0  0  0  0
 56 70  1  0  0  0  0
 59 66  1  0  0  0  0
 60 67  1  0  0  0  0
 61 67  1  0  0  0  0
 62 67  1  0  0  0  0
 63 78  1  0  0  0  0
 64 77  1  0  0  0  0
 65 67  1  0  0  0  0
 65 76  1  0  0  0  0
 66 78  1  0  0  0  0
 68 69  1  0  0  0  0
M  CHG  1  78   1
M  ISO  4  38 100  55 101  77 100  85 101
M  END
> <Batch ID>
0046

> <Smiles>
CNC(C)C(=O)NC(C(=O)N1Cc2cc([101O:1][101CH:1]3CCC(C)N(c4c(C)cc(C[100NH:0][100C:0](=O)N5CCCC(n6nc(-c7ccc(Oc8ccc(F)cc8F)cc7)c(C(N)=O)c6N)C5)cc4Cl)CC3)ccc2CC1C(=O)NC1CCCc2ccccc21)C(C)(C)C

> <Shape>
0.369

> <Color>
0.196

> <Negative vol penalty>
0.000

$$$$

  -OEChem-04042322233D

 86 95  0     1  0  0  0  0  0999 V2000
  -22.4254  -26.3432   30.1829 C   0  0  0  0  0  0  0  0  0  0  0  0
  -22.9460  -25.3599   29.3476 C   0  0  0  0  0  0  0  0  0  0  0  0
  -33.6847  -11.9505   24.6043 C   0  0  0  0  0  0  0  0  0  0  0  0
  -22.8468  -10.1054   20.1097 C   0  0  0  0  0  0  0  0  0  0  0  0
  -24.2808   -9.5463   21.9719 C   0  0  0  0  0  0  0  0  0  0  0  0
  -22.7713  -26.3637   31.5334 C   0  0  0  0  0  0  0  0  0  0  0  0
  -23.8138  -24.3973   29.8622 C   0  0  0  0  0  0  0  0  0  0  0  0
  -24.2399  -18.5330   28.1492 C   0  0  0  0  0  0  0  0  0  0  0  0
  -32.8714  -12.2872   23.5222 C   0  0  0  0  0  0  0  0  0  0  0  0
  -22.1392   -8.9183   20.2981 C   0  0  0  0  0  0  0  0  0  0  0  0
  -23.5731   -8.3591   22.1604 C   0  0  0  0  0  0  0  0  0  0  0  0
  -25.1146  -17.8676   27.2913 C   0  0  0  0  0  0  0  0  0  0  0  0
  -21.9168   -5.3527   23.3589 C   0  0  0  0  0  0  0  0  0  0  0  0
  -21.5612   -5.0089   24.6631 C   0  0  0  0  0  0  0  0  0  0  0  0
  -33.1498  -11.9070   25.8918 C   0  0  0  0  0  0  0  0  0  0  0  0
  -26.4696  -17.2250   29.1808 C   0  0  0  0  0  0  0  0  0  0  0  0
  -20.2889   -7.0538   24.8553 C   0  0  0  0  0  0  0  0  0  0  0  0
  -23.9177  -10.4194   20.9466 C   0  0  0  0  0  0  0  0  0  0  0  0
  -24.1413  -12.9569   20.8096 C   0  0  0  0  0  0  0  0  0  0  0  0
  -23.6361  -25.3951   32.0668 C   0  0  0  0  0  0  0  0  0  0  0  0
  -24.4799  -18.5587   29.5306 C   0  0  0  0  0  0  0  0  0  0  0  0
  -24.1726  -24.4057   31.2208 C   0  0  0  0  0  0  0  0  0  0  0  0
  -25.5951  -17.8892   30.0544 C   0  0  0  0  0  0  0  0  0  0  0  0
  -30.9885  -12.5371   25.0153 C   0  0  0  0  0  0  0  0  0  0  0  0
  -31.5233  -12.5806   23.7277 C   0  0  0  0  0  0  0  0  0  0  0  0
  -22.5023   -8.0451   21.3235 C   0  0  0  0  0  0  0  0  0  0  0  0
  -26.2311  -17.2159   27.8067 C   0  0  0  0  0  0  0  0  0  0  0  0
  -21.4586   -6.5472   22.8030 C   0  0  0  0  0  0  0  0  0  0  0  0
  -20.7473   -5.8594   25.4113 C   0  0  0  0  0  0  0  0  0  0  0  0
  -20.6446   -7.3976   23.5511 C   0  0  0  0  0  0  0  0  0  0  0  0
  -31.8017  -12.2003   26.0973 C   0  0  0  0  0  0  0  0  0  0  0  0
  -24.6494  -11.6453   20.7521 C   0  0  0  0  0  0  0  0  0  0  0  0
  -25.2284  -13.7576   20.5574 C   0  0  0  0  0  0  0  0  0  0  0  0
  -27.8397  -14.5401   24.8313 C   0  0  0  0  0  0  0  0  0  0  0  0
  -27.5118  -14.8958   23.5799 C   0  0  0  0  0  0  0  0  0  0  0  0
  -22.8061  -13.4109   21.0680 C   0  0  0  0  0  0  0  0  0  0  0  0
  -25.0458  -20.8432   31.6670 C   0  0  0  0  0  0  0  0  0  0  0  0
  -24.8464  -18.3836   33.7724 C   0  0  0  0  0  0  0  0  0  0  0  0
  -25.9736  -14.9602   33.9369 C   0  0  0  0  0  0  0  0  0  0  0  0
  -31.1115  -12.9998   21.2780 C   0  0  0  0  0  0  0  0  0  0  0  0
  -24.0184  -25.4862   33.5229 C   0  0  0  0  0  0  0  0  0  0  0  0
  -23.5124  -19.2582   30.4455 C   0  0  0  0  0  0  0  0  0  0  0  0
  -25.8865  -17.8698   31.5319 C   0  0  0  0  0  0  0  0  0  0  0  0
  -26.8252  -14.3964   25.9363 C   0  0  0  0  0  0  0  0  0  0  0  0
  -24.6483  -24.2073   34.0685 C   0  0  0  0  0  0  0  0  0  0  0  0
  -29.4191  -13.7617   18.2396 C   0  0  0  0  0  0  0  0  0  0  0  0
  -25.7106  -23.6833   33.1072 C   0  0  0  0  0  0  0  0  0  0  0  0
  -27.9567  -13.4305   18.5462 C   0  0  0  0  0  0  0  0  0  0  0  0
  -28.7284  -14.8986   27.5254 C   0  0  0  0  0  0  0  0  0  0  0  0
  -30.3763  -12.7808   18.9145 C   0  0  0  0  0  0  0  0  0  0  0  0
  -28.7173  -12.2858   20.6671 C   0  0  0  0  0  0  0  0  0  0  0  0
  -29.6521  -15.1317   26.3307 C   0  0  0  0  0  0  0  0  0  0  0  0
  -25.0973  -23.3296   31.7470 C   0  0  1  0  0  0  0  0  0  0  0  0
  -24.1334  -19.6549   31.7812 C   0  0  1  0  0  0  0  0  0  0  0  0
  -27.7178  -13.2850   20.0619 C   0  0  2  0  0  0  0  0  0  0  0  0
  -27.2629  -15.1658   27.1828 C   0  0  1  0  0  0  0  0  0  1  0  0
  -25.0327  -12.9904   35.1747 C   0  0  0  0  0  0  0  0  0  0  0  0
  -26.8339  -19.1703   35.9498 C   0  0  0  0  0  0  0  0  0  0  0  0
  -27.2435  -16.7345   36.3588 C   0  0  0  0  0  0  0  0  0  0  0  0
  -24.9696  -17.6935   36.7231 C   0  0  0  0  0  0  0  0  0  0  0  0
  -25.7855  -13.3477   31.4623 C   0  0  0  0  0  0  0  0  0  0  0  0
  -29.5369  -12.8546   25.2231 C   0  0  0  0  0  0  0  0  0  0  0  0
  -25.8273  -17.3997   34.3630 C   0  0  1  0  0  0  0  0  0  0  0  0
  -25.1121  -13.7141   33.8395 C   0  0  2  0  0  0  0  0  0  0  0  0
  -26.2225  -17.7607   35.8228 C   0  0  0  0  0  0  0  0  0  0  0  0
  -25.9575  -11.6104   20.4842 N   0  0  0  0  0  0  0  0  0  0  0  0
  -26.2805  -12.9100   20.3710 N   0  0  0  0  0  0  0  0  0  0  0  0
  -24.9144  -18.5734   32.3849 N   0  0  0  0  0  0  0  0  0  0  0  0
  -30.0934  -12.6980   20.3490 N   0  0  0  0  0  0  0  0  0  0  0  0
  -25.3773  -15.0971   20.4790 N   0  0  0  0  0  0  0  0  0  0  0  0
  -21.8098  -12.4546   21.3072 N   0  0  0  0  0  0  0  0  0  0  0  0
  -30.7166  -12.9185   22.6129 N   0  0  0  0  0  0  0  0  0  0  0  0
  -24.4074  -22.0594   31.8185 N   0  0  0  0  0  0  0  0  0  0  0  0
  -25.2208  -16.0810   34.2169 N   0  0  0  0  0  0  0  0  0  0  0  0
  -29.2351  -14.3244   25.1237 N   0  3  1  0  0  0  0  0  0  0  0  0
  -25.6731  -12.7742   32.8281 N   0  3  0  0  0  0  0  0  0  0  0  0
  -22.5020  -14.6279   21.0700 O   0  0  0  0  0  0  0  0  0  0  0  0
  -26.2408  -20.6696   31.4583 O   0  0  0  0  0  0  0  0  0  0  0  0
  -24.0446  -18.9571   34.5138 O   0  0  0  0  0  0  0  0  0  0  0  0
  -27.1929  -14.9406   33.7839 O   0  0  0  0  0  0  0  0  0  0  0  0
  -32.2424  -13.3342   20.9156 O   0  0  0  0  0  0  0  0  0  0  0  0
  -21.8118   -6.8867   21.5078 O   0  0  0  0  0  0  0  0  0  0  0  0
  -27.0868  -16.5663   26.9715 O   0  0  0  0  0  0  0  0  0  1  0  0
  -20.4046   -5.5283   26.6632 F   0  0  0  0  0  0  0  0  0  0  0  0
  -20.2003   -8.5459   23.0220 F   0  0  0  0  0  0  0  0  0  0  0  0
  -31.1802  -12.1349   27.7071 Cl  0  0  0  0  0  0  0  0  0  0  0  0
  1  2  1  0  0  0  0
  1  6  2  0  0  0  0
  2  7  2  0  0  0  0
  3  9  2  0  0  0  0
  3 15  1  0  0  0  0
  4 10  2  0  0  0  0
  4 18  1  0  0  0  0
  5 11  1  0  0  0  0
  5 18  2  0  0  0  0
  6 20  1  0  0  0  0
  7 22  1  0  0  0  0
  8 12  2  0  0  0  0
  8 21  1  0  0  0  0
  9 25  1  0  0  0  0
 10 26  1  0  0  0  0
 11 26  2  0  0  0  0
 12 27  1  0  0  0  0
 13 14  2  0  0  0  0
 13 28  1  0  0  0  0
 14 29  1  0  0  0  0
 15 31  2  0  0  0  0
 16 23  1  0  0  0  0
 16 27  2  0  0  0  0
 17 29  2  0  0  0  0
 17 30  1  0  0  0  0
 18 32  1  0  0  0  0
 19 32  1  0  0  0  0
 19 33  2  0  0  0  0
 19 36  1  0  0  0  0
 20 22  2  0  0  0  0
 20 41  1  0  0  0  0
 21 23  2  0  0  0  0
 21 42  1  0  0  0  0
 22 53  1  0  0  0  0
 23 43  1  0  0  0  0
 24 25  2  0  0  0  0
 24 31  1  0  0  0  0
 24 62  1  0  0  0  0
 25 72  1  0  0  0  0
 26 82  1  0  0  0  0
 27 83  1  0  0  0  0
 28 30  2  0  0  0  0
 28 82  1  0  0  0  0
 29 84  1  0  0  0  0
 30 85  1  0  0  0  0
 31 86  1  0  0  0  0
 32 66  2  0  0  0  0
 33 67  1  0  0  0  0
 33 70  1  0  0  0  0
 34 35  2  0  0  0  0
 34 44  1  0  0  0  0
 34 75  1  0  0  0  0
 36 71  1  0  0  0  0
 36 77  2  0  0  0  0
 37 54  1  0  0  0  0
 37 73  1  0  0  0  0
 37 78  2  0  0  0  0
 38 63  1  0  0  0  0
 38 68  1  0  0  0  0
 38 79  2  0  0  0  0
 39 64  1  0  0  0  0
 39 74  1  0  0  0  0
 39 80  2  0  0  0  0
 40 69  1  0  0  0  0
 40 72  1  0  0  0  0
 40 81  2  0  0  0  0
 41 45  1  0  0  0  0
 42 54  1  0  0  0  0
 43 68  1  0  0  0  0
 44 56  1  0  0  0  0
 45 47  1  0  0  0  0
 46 48  1  0  0  0  0
 46 50  1  0  0  0  0
 47 53  1  0  0  0  0
 48 55  1  0  0  0  0
 49 52  1  0  0  0  0
 49 56  1  0  0  0  0
 50 69  1  0  0  0  0
 51 55  1  0  0  0  0
 51 69  1  0  0  0  0
 52 75  1  0  0  0  0
 53 73  1  0  0  0  0
 54 68  1  0  0  0  0
 55 67  1  0  0  0  0
 56 83  1  0  0  0  0
 57 64  1  0  0  0  0
 58 65  1  0  0  0  0
 59 65  1  0  0  0  0
 60 65  1  0  0  0  0
 61 76  1  0  0  0  0
 62 75  1  0  0  0  0
 63 65  1  0  0  0  0
 63 74  1  0  0  0  0
 64 76  1  0  0  0  0
 66 67  1  0  0  0  0
M  CHG  2  75   1  76   1
M  ISO  4  40 100  56 101  72 100  83 101
M  END
> <Batch ID>
0046

> <Smiles>
C=C1C[101CH:1]([101O:1]c2ccc3c(c2)CN(C(=O)C(NC(=O)C(C)NC)C(C)(C)C)C(C(=O)NC2CCCc4ccccc42)C3)CCN1Cc1c(Cl)cccc1[100NH:0][100C:0](=O)N1CCCC(n2nc(-c3ccc(Oc4ccc(F)cc4F)cc3)c(C(N)=O)c2N)C1

> <Shape>
0.148

> <Color>
0.174

> <Negative vol penalty>
0.000

$$$$

  -OEChem-04042322233D

 84 92  0     1  0  0  0  0  0999 V2000
  -27.9314  -19.7398   15.3984 C   0  0  0  0  0  0  0  0  0  0  0  0
  -28.5156  -18.7988   16.2388 C   0  0  0  0  0  0  0  0  0  0  0  0
  -22.8719  -29.2801   21.1830 C   0  0  0  0  0  0  0  0  0  0  0  0
  -24.0801  -28.4288   23.0942 C   0  0  0  0  0  0  0  0  0  0  0  0
  -29.3774  -20.9686   23.3570 C   0  0  0  0  0  0  0  0  0  0  0  0
  -26.5576  -19.9637   15.4574 C   0  0  0  0  0  0  0  0  0  0  0  0
  -27.7244  -18.0730   17.1300 C   0  0  0  0  0  0  0  0  0  0  0  0
  -29.9195  -14.4428   19.6214 C   0  0  0  0  0  0  0  0  0  0  0  0
  -29.0335  -22.0062   22.4906 C   0  0  0  0  0  0  0  0  0  0  0  0
  -21.7768  -29.5604   22.0002 C   0  0  0  0  0  0  0  0  0  0  0  0
  -22.9851  -28.7092   23.9114 C   0  0  0  0  0  0  0  0  0  0  0  0
  -30.8285  -14.6782   20.6519 C   0  0  0  0  0  0  0  0  0  0  0  0
  -19.2260  -27.8552   23.4178 C   0  0  0  0  0  0  0  0  0  0  0  0
  -17.9617  -27.4937   22.9525 C   0  0  0  0  0  0  0  0  0  0  0  0
  -29.1265  -14.1286   22.2706 C   0  0  0  0  0  0  0  0  0  0  0  0
  -28.5314  -20.3955   20.7612 C   0  0  0  0  0  0  0  0  0  0  0  0
  -17.2638  -29.8045   23.0535 C   0  0  0  0  0  0  0  0  0  0  0  0
  -24.0236  -28.7142   21.7300 C   0  0  0  0  0  0  0  0  0  0  0  0
  -29.2984  -19.6445   22.9256 C   0  0  0  0  0  0  0  0  0  0  0  0
  -26.2327  -29.2781   20.5857 C   0  0  0  0  0  0  0  0  0  0  0  0
  -25.7517  -19.2488   16.3587 C   0  0  0  0  0  0  0  0  0  0  0  0
  -28.6018  -14.0584   19.9085 C   0  0  0  0  0  0  0  0  0  0  0  0
  -26.3325  -18.2675   17.1877 C   0  0  0  0  0  0  0  0  0  0  0  0
  -28.2034  -13.8864   21.2419 C   0  0  0  0  0  0  0  0  0  0  0  0
  -28.8754  -19.3580   21.6277 C   0  0  0  0  0  0  0  0  0  0  0  0
  -28.6105  -21.7197   21.1926 C   0  0  0  0  0  0  0  0  0  0  0  0
  -21.8334  -29.2750   23.3643 C   0  0  0  0  0  0  0  0  0  0  0  0
  -30.4312  -14.5240   21.9769 C   0  0  0  0  0  0  0  0  0  0  0  0
  -19.5092  -29.1913   23.7010 C   0  0  0  0  0  0  0  0  0  0  0  0
  -16.9806  -28.4683   22.7703 C   0  0  0  0  0  0  0  0  0  0  0  0
  -18.5281  -30.1660   23.5188 C   0  0  0  0  0  0  0  0  0  0  0  0
  -25.1549  -28.4238   20.8863 C   0  0  0  0  0  0  0  0  0  0  0  0
  -27.0343  -28.5387   19.7506 C   0  0  0  0  0  0  0  0  0  0  0  0
  -29.6714  -18.5596   23.8694 C   0  0  0  0  0  0  0  0  0  0  0  0
  -26.4866  -30.6199   21.0223 C   0  0  0  0  0  0  0  0  0  0  0  0
  -25.7318  -15.3179   19.3790 C   0  0  0  0  0  0  0  0  0  0  0  0
  -24.6982  -12.4966   20.6014 C   0  0  0  0  0  0  0  0  0  0  0  0
  -25.3425   -9.7795   22.5634 C   0  0  0  0  0  0  0  0  0  0  0  0
  -27.8224  -22.6641   18.9941 C   0  0  0  0  0  0  0  0  0  0  0  0
  -24.2690  -19.5255   16.3752 C   0  0  0  0  0  0  0  0  0  0  0  0
  -27.6410  -13.7823   18.7847 C   0  0  0  0  0  0  0  0  0  0  0  0
  -26.8060  -13.4557   21.6027 C   0  0  0  0  0  0  0  0  0  0  0  0
  -23.5868  -19.0348   17.6480 C   0  0  0  0  0  0  0  0  0  0  0  0
  -26.8288  -25.0162   16.5127 C   0  0  0  0  0  0  0  0  0  0  0  0
  -23.9877  -17.5947   17.9305 C   0  0  0  0  0  0  0  0  0  0  0  0
  -26.3906  -26.2369   17.3251 C   0  0  0  0  0  0  0  0  0  0  0  0
  -26.4498  -23.7083   17.2052 C   0  0  0  0  0  0  0  0  0  0  0  0
  -26.4651  -24.8091   19.4091 C   0  0  0  0  0  0  0  0  0  0  0  0
  -25.4964  -17.4880   18.1865 C   0  0  1  0  0  0  0  0  0  0  0  0
  -26.1793  -13.8938   19.2073 C   0  0  1  0  0  0  0  0  0  0  0  0
  -26.8828  -26.1498   18.7831 C   0  0  2  0  0  0  0  0  0  0  0  0
  -28.7830  -17.9489   21.1399 C   0  0  0  0  0  0  0  0  0  0  0  0
  -24.2911   -7.6600   23.3999 C   0  0  0  0  0  0  0  0  0  0  0  0
  -23.0258  -14.1095   22.5792 C   0  0  0  0  0  0  0  0  0  0  0  0
  -22.7690  -12.0306   23.9504 C   0  0  0  0  0  0  0  0  0  0  0  0
  -21.8698  -12.1077   21.6248 C   0  0  0  0  0  0  0  0  0  0  0  0
  -27.4133   -8.1057   21.2716 C   0  0  0  0  0  0  0  0  0  0  0  0
  -32.6948  -16.3951   24.0637 C   0  0  0  0  0  0  0  0  0  0  0  0
  -31.5155  -17.1207   24.6972 C   0  0  0  0  0  0  0  0  0  0  0  0
  -32.3373  -15.7214   22.7444 C   0  0  0  0  0  0  0  0  0  1  0  0
  -24.3695  -11.9868   21.9838 C   0  0  1  0  0  0  0  0  0  0  0  0
  -25.1536   -8.2932   22.3192 C   0  0  2  0  0  0  0  0  0  0  0  0
  -23.0344  -12.5687   22.5281 C   0  0  0  0  0  0  0  0  0  0  0  0
  -25.2592  -27.2329   20.2905 N   0  0  0  0  0  0  0  0  0  0  0  0
  -26.4120  -27.3336   19.6071 N   0  0  0  0  0  0  0  0  0  0  0  0
  -25.9015  -13.2039   20.4687 N   0  0  0  0  0  0  0  0  0  0  0  0
  -26.9528  -23.6953   18.5805 N   0  0  0  0  0  0  0  0  0  0  0  0
  -28.2037  -28.8084   19.1324 N   0  0  0  0  0  0  0  0  0  0  0  0
  -25.5603  -31.2304   21.8788 N   0  0  0  0  0  0  0  0  0  0  0  0
  -28.2613  -22.7743   20.3131 N   0  0  0  0  0  0  0  0  0  0  0  0
  -31.0066  -18.1716   23.8600 N   0  0  0  0  0  0  0  0  0  0  0  0
  -25.8682  -16.0914   18.2421 N   0  0  0  0  0  0  0  0  0  0  0  0
  -24.3961  -10.5306   21.8989 N   0  0  0  0  0  0  0  0  0  0  0  0
  -26.4723   -7.5992   22.3036 N   0  3  0  0  0  0  0  0  0  0  0  0
  -28.8039  -18.0566   24.5785 O   0  0  0  0  0  0  0  0  0  0  0  0
  -27.4964  -31.2645   20.6504 O   0  0  0  0  0  0  0  0  0  0  0  0
  -25.2938  -15.6871   20.4622 O   0  0  0  0  0  0  0  0  0  0  0  0
  -23.9196  -12.2692   19.6720 O   0  0  0  0  0  0  0  0  0  0  0  0
  -26.2375  -10.2291   23.2756 O   0  0  0  0  0  0  0  0  0  0  0  0
  -28.1749  -21.7653   18.2260 O   0  0  0  0  0  0  0  0  0  0  0  0
  -20.7651  -29.5487   24.1621 O   0  0  0  0  0  0  0  0  0  0  0  0
  -31.3163  -14.7538   22.9847 O   0  0  0  0  0  0  0  0  0  1  0  0
  -15.7671  -28.1212   22.3220 F   0  0  0  0  0  0  0  0  0  0  0  0
  -18.7946  -31.4514   23.7880 F   0  0  0  0  0  0  0  0  0  0  0  0
  1  2  1  0  0  0  0
  1  6  2  0  0  0  0
  2  7  2  0  0  0  0
  3 10  2  0  0  0  0
  3 18  1  0  0  0  0
  4 11  1  0  0  0  0
  4 18  2  0  0  0  0
  5  9  2  0  0  0  0
  5 19  1  0  0  0  0
  6 21  1  0  0  0  0
  7 23  1  0  0  0  0
  8 12  2  0  0  0  0
  8 22  1  0  0  0  0
  9 26  1  0  0  0  0
 10 27  1  0  0  0  0
 11 27  2  0  0  0  0
 12 28  1  0  0  0  0
 13 14  2  0  0  0  0
 13 29  1  0  0  0  0
 14 30  1  0  0  0  0
 15 24  1  0  0  0  0
 15 28  2  0  0  0  0
 16 25  1  0  0  0  0
 16 26  2  0  0  0  0
 17 30  2  0  0  0  0
 17 31  1  0  0  0  0
 18 32  1  0  0  0  0
 19 25  2  0  0  0  0
 19 34  1  0  0  0  0
 20 32  1  0  0  0  0
 20 33  2  0  0  0  0
 20 35  1  0  0  0  0
 21 23  2  0  0  0  0
 21 40  1  0  0  0  0
 22 24  2  0  0  0  0
 22 41  1  0  0  0  0
 23 49  1  0  0  0  0
 24 42  1  0  0  0  0
 25 52  1  0  0  0  0
 26 70  1  0  0  0  0
 27 81  1  0  0  0  0
 28 82  1  0  0  0  0
 29 31  2  0  0  0  0
 29 81  1  0  0  0  0
 30 83  1  0  0  0  0
 31 84  1  0  0  0  0
 32 64  2  0  0  0  0
 33 65  1  0  0  0  0
 33 68  1  0  0  0  0
 34 71  1  0  0  0  0
 34 75  2  0  0  0  0
 35 69  1  0  0  0  0
 35 76  2  0  0  0  0
 36 50  1  0  0  0  0
 36 72  1  0  0  0  0
 36 77  2  0  0  0  0
 37 61  1  0  0  0  0
 37 66  1  0  0  0  0
 37 78  2  0  0  0  0
 38 62  1  0  0  0  0
 38 73  1  0  0  0  0
 38 79  2  0  0  0  0
 39 67  1  0  0  0  0
 39 70  1  0  0  0  0
 39 80  2  0  0  0  0
 40 43  1  0  0  0  0
 41 50  1  0  0  0  0
 42 66  1  0  0  0  0
 43 45  1  0  0  0  0
 44 46  1  0  0  0  0
 44 47  1  0  0  0  0
 45 49  1  0  0  0  0
 46 51  1  0  0  0  0
 47 67  1  0  0  0  0
 48 51  1  0  0  0  0
 48 67  1  0  0  0  0
 49 72  1  0  0  0  0
 50 66  1  0  0  0  0
 51 65  1  0  0  0  0
 53 62  1  0  0  0  0
 54 63  1  0  0  0  0
 55 63  1  0  0  0  0
 56 63  1  0  0  0  0
 57 74  1  0  0  0  0
 58 59  1  0  0  0  0
 58 60  1  0  0  0  0
 59 71  1  0  0  0  0
 60 82  1  0  0  0  0
 61 63  1  0  0  0  0
 61 73  1  0  0  0  0
 62 74  1  0  0  0  0
 64 65  1  0  0  0  0
M  CHG  1  74   1
M  ISO  4  39 100  60 101  70 100  82 101
M  END
> <Batch ID>
0046

> <Smiles>
CNC(C)C(=O)NC(C(=O)N1Cc2cc([101O:1][101CH2:1]CCNC(=O)c3ccc([100NH:0][100C:0](=O)N4CCCC(n5nc(-c6ccc(Oc7ccc(F)cc7F)cc6)c(C(N)=O)c5N)C4)cc3C)ccc2CC1C(=O)NC1CCCc2ccccc21)C(C)(C)C

> <Shape>
0.270

> <Color>
0.047

> <Negative vol penalty>
0.000

$$$$

  -OEChem-04042322233D

 85 93  0     1  0  0  0  0  0999 V2000
  -33.9112  -27.7938   17.6789 C   0  0  0  0  0  0  0  0  0  0  0  0
  -33.1588  -27.0842   18.6093 C   0  0  0  0  0  0  0  0  0  0  0  0
  -23.0575   -9.6755   19.9638 C   0  0  0  0  0  0  0  0  0  0  0  0
  -23.6227   -9.9411   22.2977 C   0  0  0  0  0  0  0  0  0  0  0  0
  -33.9680  -29.1853   17.7454 C   0  0  0  0  0  0  0  0  0  0  0  0
  -32.4635  -27.7657   19.6076 C   0  0  0  0  0  0  0  0  0  0  0  0
  -27.7473  -26.0268   20.2234 C   0  0  0  0  0  0  0  0  0  0  0  0
  -22.2834   -8.5587   20.2783 C   0  0  0  0  0  0  0  0  0  0  0  0
  -22.8485   -8.8242   22.6123 C   0  0  0  0  0  0  0  0  0  0  0  0
  -27.5948  -24.8394   20.9379 C   0  0  0  0  0  0  0  0  0  0  0  0
  -23.1507   -5.4603   22.4590 C   0  0  0  0  0  0  0  0  0  0  0  0
  -23.6932   -4.5222   23.3372 C   0  0  0  0  0  0  0  0  0  0  0  0
  -26.9888  -26.1049   22.9001 C   0  0  0  0  0  0  0  0  0  0  0  0
  -31.5745  -18.5709   23.9599 C   0  0  0  0  0  0  0  0  0  0  0  0
  -31.8668  -16.6435   22.5327 C   0  0  0  0  0  0  0  0  0  0  0  0
  -21.8568   -4.8890   24.8636 C   0  0  0  0  0  0  0  0  0  0  0  0
  -23.7272  -10.3668   20.9735 C   0  0  0  0  0  0  0  0  0  0  0  0
  -24.1040  -12.8619   20.5992 C   0  0  0  0  0  0  0  0  0  0  0  0
  -33.2652  -29.8848   18.7391 C   0  0  0  0  0  0  0  0  0  0  0  0
  -27.5320  -27.2647   20.8460 C   0  0  0  0  0  0  0  0  0  0  0  0
  -32.5119  -29.1678   19.6883 C   0  0  0  0  0  0  0  0  0  0  0  0
  -27.1368  -27.3065   22.1907 C   0  0  0  0  0  0  0  0  0  0  0  0
  -30.2039  -18.5542   23.7018 C   0  0  0  0  0  0  0  0  0  0  0  0
  -29.6647  -17.5822   22.8592 C   0  0  0  0  0  0  0  0  0  0  0  0
  -30.4961  -16.6268   22.2746 C   0  0  0  0  0  0  0  0  0  0  0  0
  -22.1789   -8.1330   21.6025 C   0  0  0  0  0  0  0  0  0  0  0  0
  -27.2183  -24.8784   22.2772 C   0  0  0  0  0  0  0  0  0  0  0  0
  -21.9612   -6.1128   22.7831 C   0  0  0  0  0  0  0  0  0  0  0  0
  -23.0463   -4.2365   24.5394 C   0  0  0  0  0  0  0  0  0  0  0  0
  -21.3142   -5.8272   23.9854 C   0  0  0  0  0  0  0  0  0  0  0  0
  -32.4060  -17.6156   23.3753 C   0  0  0  0  0  0  0  0  0  0  0  0
  -24.5274  -11.5202   20.6492 C   0  0  0  0  0  0  0  0  0  0  0  0
  -25.2304  -13.5646   20.2474 C   0  0  0  0  0  0  0  0  0  0  0  0
  -22.8083  -13.4228   20.8487 C   0  0  0  0  0  0  0  0  0  0  0  0
  -29.3341  -29.8100   21.4608 C   0  0  0  0  0  0  0  0  0  0  0  0
  -26.5225  -31.0709   22.4745 C   0  0  0  0  0  0  0  0  0  0  0  0
  -28.1548  -21.7077   23.7664 C   0  0  0  0  0  0  0  0  0  0  0  0
  -23.3698  -30.5360   23.6666 C   0  0  0  0  0  0  0  0  0  0  0  0
  -30.6733  -14.6187   20.7638 C   0  0  0  0  0  0  0  0  0  0  0  0
  -33.3950  -31.3862   18.7995 C   0  0  0  0  0  0  0  0  0  0  0  0
  -27.6748  -28.5356   20.0542 C   0  0  0  0  0  0  0  0  0  0  0  0
  -26.8738  -28.6090   22.8998 C   0  0  0  0  0  0  0  0  0  0  0  0
  -32.3273  -32.0557   19.6610 C   0  0  0  0  0  0  0  0  0  0  0  0
  -29.7362  -11.9536   18.5968 C   0  0  0  0  0  0  0  0  0  0  0  0
  -32.1757  -31.3217   20.9895 C   0  0  0  0  0  0  0  0  0  0  0  0
  -28.2627  -11.7136   18.9335 C   0  0  0  0  0  0  0  0  0  0  0  0
  -30.5498  -12.3160   19.8380 C   0  0  0  0  0  0  0  0  0  0  0  0
  -28.5415  -13.1935   20.9630 C   0  0  0  0  0  0  0  0  0  0  0  0
  -31.7238  -29.8727   20.7709 C   0  0  1  0  0  0  0  0  0  0  0  0
  -27.9297  -29.7592   20.9289 C   0  0  1  0  0  0  0  0  0  0  0  0
  -27.6689  -12.8890   19.7344 C   0  0  2  0  0  0  0  0  0  0  0  0
  -21.3212  -31.7627   24.4384 C   0  0  0  0  0  0  0  0  0  0  0  0
  -27.9102  -31.7236   25.1124 C   0  0  0  0  0  0  0  0  0  0  0  0
  -25.6506  -32.0509   26.1397 C   0  0  0  0  0  0  0  0  0  0  0  0
  -26.3892  -33.5175   24.2619 C   0  0  0  0  0  0  0  0  0  0  0  0
  -21.7056  -29.3347   21.5344 C   0  0  0  0  0  0  0  0  0  0  0  0
  -29.3312  -19.5938   24.3436 C   0  0  0  0  0  0  0  0  0  0  0  0
  -28.1934  -17.5681   22.5852 C   0  0  0  0  0  0  0  0  0  0  0  0
  -27.8837  -22.6162   22.5863 C   0  0  0  0  0  0  0  0  0  1  0  0
  -25.7803  -31.1098   23.7885 C   0  0  1  0  0  0  0  0  0  0  0  0
  -22.0269  -31.1138   23.2578 C   0  0  2  0  0  0  0  0  0  0  0  0
  -26.4393  -32.0758   24.8130 C   0  0  0  0  0  0  0  0  0  0  0  0
  -25.8218  -11.3767   20.3525 N   0  0  0  0  0  0  0  0  0  0  0  0
  -26.2214  -12.6372   20.1128 N   0  0  0  0  0  0  0  0  0  0  0  0
  -27.0329  -29.8245   22.0846 N   0  0  0  0  0  0  0  0  0  0  0  0
  -29.9300  -13.4398   20.5434 N   0  0  0  0  0  0  0  0  0  0  0  0
  -25.4600  -14.8791   20.0429 N   0  0  0  0  0  0  0  0  0  0  0  0
  -21.7623  -12.5584   21.1996 N   0  0  0  0  0  0  0  0  0  0  0  0
  -29.9693  -15.6309   21.4153 N   0  0  0  0  0  0  0  0  0  0  0  0
  -30.3071  -29.8236   20.4797 N   0  0  0  0  0  0  0  0  0  0  0  0
  -28.9295  -20.6164   23.4056 N   0  0  0  0  0  0  0  0  0  0  0  0
  -24.3954  -31.4355   23.4655 N   0  0  0  0  0  0  0  0  0  0  0  0
  -21.1454  -30.0419   22.7147 N   0  3  0  0  0  0  0  0  0  0  0  0
  -22.5808  -14.6522   20.7470 O   0  0  0  0  0  0  0  0  0  0  0  0
  -29.5210  -29.8364   22.6716 O   0  0  0  0  0  0  0  0  0  0  0  0
  -26.6389  -32.1067   21.8148 O   0  0  0  0  0  0  0  0  0  0  0  0
  -27.7250  -21.9367   24.8937 O   0  0  0  0  0  0  0  0  0  0  0  0
  -23.4959  -29.4016   24.1224 O   0  0  0  0  0  0  0  0  0  0  0  0
  -31.8393  -14.7325   20.3771 O   0  0  0  0  0  0  0  0  0  0  0  0
  -21.4234   -7.0433   21.9099 O   0  0  0  0  0  0  0  0  0  0  0  0
  -27.0693  -23.7208   22.9771 O   0  0  0  0  0  0  0  0  0  1  0  0
  -23.5666   -3.3345   25.3820 F   0  0  0  0  0  0  0  0  0  0  0  0
  -20.1706   -6.4500   24.3017 F   0  0  0  0  0  0  0  0  0  0  0  0
  -27.9596  -17.7267   21.2537 F   0  0  0  0  0  0  0  0  0  0  0  0
  -34.0972  -17.6372   23.6930 Cl  0  0  0  0  0  0  0  0  0  0  0  0
  1  2  1  0  0  0  0
  1  5  2  0  0  0  0
  2  6  2  0  0  0  0
  3  8  2  0  0  0  0
  3 17  1  0  0  0  0
  4  9  1  0  0  0  0
  4 17  2  0  0  0  0
  5 19  1  0  0  0  0
  6 21  1  0  0  0  0
  7 10  2  0  0  0  0
  7 20  1  0  0  0  0
  8 26  1  0  0  0  0
  9 26  2  0  0  0  0
 10 27  1  0  0  0  0
 11 12  2  0  0  0  0
 11 28  1  0  0  0  0
 12 29  1  0  0  0  0
 13 22  1  0  0  0  0
 13 27  2  0  0  0  0
 14 23  1  0  0  0  0
 14 31  2  0  0  0  0
 15 25  2  0  0  0  0
 15 31  1  0  0  0  0
 16 29  2  0  0  0  0
 16 30  1  0  0  0  0
 17 32  1  0  0  0  0
 18 32  1  0  0  0  0
 18 33  2  0  0  0  0
 18 34  1  0  0  0  0
 19 21  2  0  0  0  0
 19 40  1  0  0  0  0
 20 22  2  0  0  0  0
 20 41  1  0  0  0  0
 21 49  1  0  0  0  0
 22 42  1  0  0  0  0
 23 24  2  0  0  0  0
 23 57  1  0  0  0  0
 24 25  1  0  0  0  0
 24 58  1  0  0  0  0
 25 69  1  0  0  0  0
 26 80  1  0  0  0  0
 27 81  1  0  0  0  0
 28 30  2  0  0  0  0
 28 80  1  0  0  0  0
 29 82  1  0  0  0  0
 30 83  1  0  0  0  0
 31 85  1  0  0  0  0
 32 63  2  0  0  0  0
 33 64  1  0  0  0  0
 33 67  1  0  0  0  0
 34 68  1  0  0  0  0
 34 74  2  0  0  0  0
 35 50  1  0  0  0  0
 35 70  1  0  0  0  0
 35 75  2  0  0  0  0
 36 60  1  0  0  0  0
 36 65  1  0  0  0  0
 36 76  2  0  0  0  0
 37 59  1  0  0  0  0
 37 71  1  0  0  0  0
 37 77  2  0  0  0  0
 38 61  1  0  0  0  0
 38 72  1  0  0  0  0
 38 78  2  0  0  0  0
 39 66  1  0  0  0  0
 39 69  1  0  0  0  0
 39 79  2  0  0  0  0
 40 43  1  0  0  0  0
 41 50  1  0  0  0  0
 42 65  1  0  0  0  0
 43 45  1  0  0  0  0
 44 46  1  0  0  0  0
 44 47  1  0  0  0  0
 45 49  1  0  0  0  0
 46 51  1  0  0  0  0
 47 66  1  0  0  0  0
 48 51  1  0  0  0  0
 48 66  1  0  0  0  0
 49 70  1  0  0  0  0
 50 65  1  0  0  0  0
 51 64  1  0  0  0  0
 52 61  1  0  0  0  0
 53 62  1  0  0  0  0
 54 62  1  0  0  0  0
 55 62  1  0  0  0  0
 56 73  1  0  0  0  0
 57 71  1  0  0  0  0
 58 84  1  0  0  0  0
 59 81  1  0  0  0  0
 60 62  1  0  0  0  0
 60 72  1  0  0  0  0
 61 73  1  0  0  0  0
 63 64  1  0  0  0  0
M  CHG  1  73   1
M  ISO  4  39 100  59 101  69 100  81 101
M  END
> <Batch ID>
0046

> <Smiles>
CNC(C)C(=O)NC(C(=O)N1Cc2cc([101O:1][101CH2:1]C(=O)NCc3cc(Cl)cc([100NH:0][100C:0](=O)N4CCCC(n5nc(-c6ccc(Oc7ccc(F)cc7F)cc6)c(C(N)=O)c5N)C4)c3CF)ccc2CC1C(=O)NC1CCCc2ccccc21)C(C)(C)C

> <Shape>
0.302

> <Color>
0.217

> <Negative vol penalty>
0.000

$$$$

  -OEChem-04042322233D

 87 96  0     1  0  0  0  0  0999 V2000
  -29.4949  -35.2803   23.5246 C   0  0  0  0  0  0  0  0  0  0  0  0
  -29.4723  -33.9087   23.2936 C   0  0  0  0  0  0  0  0  0  0  0  0
  -26.5592  -19.9365   16.3369 C   0  0  0  0  0  0  0  0  0  0  0  0
  -22.5817  -11.8986   22.6126 C   0  0  0  0  0  0  0  0  0  0  0  0
  -22.2313  -13.9620   21.4057 C   0  0  0  0  0  0  0  0  0  0  0  0
  -28.3456  -35.9295   23.9734 C   0  0  0  0  0  0  0  0  0  0  0  0
  -28.3005  -33.1851   23.5122 C   0  0  0  0  0  0  0  0  0  0  0  0
  -27.3005  -29.9284   19.7654 C   0  0  0  0  0  0  0  0  0  0  0  0
  -27.2901  -21.0879   16.6294 C   0  0  0  0  0  0  0  0  0  0  0  0
  -26.7997  -18.7590   17.0450 C   0  0  0  0  0  0  0  0  0  0  0  0
  -21.3098  -12.0110   23.1741 C   0  0  0  0  0  0  0  0  0  0  0  0
  -20.9594  -14.0744   21.9671 C   0  0  0  0  0  0  0  0  0  0  0  0
  -28.0242  -28.7369   19.7473 C   0  0  0  0  0  0  0  0  0  0  0  0
  -17.8933  -12.7422   21.4719 C   0  0  0  0  0  0  0  0  0  0  0  0
  -16.8413  -13.0907   20.6249 C   0  0  0  0  0  0  0  0  0  0  0  0
  -26.1508  -27.5909   20.7454 C   0  0  0  0  0  0  0  0  0  0  0  0
  -28.5023  -19.8843   18.3380 C   0  0  0  0  0  0  0  0  0  0  0  0
  -16.4267  -15.0661   21.9527 C   0  0  0  0  0  0  0  0  0  0  0  0
  -23.0425  -12.8741   21.7285 C   0  0  0  0  0  0  0  0  0  0  0  0
  -24.8406  -11.7121   20.3413 C   0  0  0  0  0  0  0  0  0  0  0  0
  -27.1564  -35.2152   24.1884 C   0  0  0  0  0  0  0  0  0  0  0  0
  -25.9983  -29.9624   20.2845 C   0  0  0  0  0  0  0  0  0  0  0  0
  -27.1345  -33.8252   23.9655 C   0  0  0  0  0  0  0  0  0  0  0  0
  -25.4117  -28.7836   20.7666 C   0  0  0  0  0  0  0  0  0  0  0  0
  -28.2617  -21.0618   17.6299 C   0  0  0  0  0  0  0  0  0  0  0  0
  -27.7713  -18.7329   18.0455 C   0  0  0  0  0  0  0  0  0  0  0  0
  -20.4986  -13.0989   22.8513 C   0  0  0  0  0  0  0  0  0  0  0  0
  -27.4505  -27.5685   20.2400 C   0  0  0  0  0  0  0  0  0  0  0  0
  -18.2121  -13.5557   22.5593 C   0  0  0  0  0  0  0  0  0  0  0  0
  -16.1080  -14.2526   20.8653 C   0  0  0  0  0  0  0  0  0  0  0  0
  -17.4788  -14.7176   22.7997 C   0  0  0  0  0  0  0  0  0  0  0  0
  -24.3565  -12.7588   21.1486 C   0  0  0  0  0  0  0  0  0  0  0  0
  -26.1337  -12.0725   20.0506 C   0  0  0  0  0  0  0  0  0  0  0  0
  -29.6649  -23.8088   19.7383 C   0  0  0  0  0  0  0  0  0  0  0  0
  -30.8475  -21.6283   22.4459 C   0  0  0  0  0  0  0  0  0  0  0  0
  -30.3674  -23.3617   20.7901 C   0  0  0  0  0  0  0  0  0  0  0  0
  -30.1467  -22.0736   21.3971 C   0  0  0  0  0  0  0  0  0  0  0  0
  -24.1804  -10.5206   19.8940 C   0  0  0  0  0  0  0  0  0  0  0  0
  -24.5860  -31.4666   22.7025 C   0  0  0  0  0  0  0  0  0  0  0  0
  -21.9028  -30.1447   21.4473 C   0  0  0  0  0  0  0  0  0  0  0  0
  -20.9445  -26.9632   20.0413 C   0  0  0  0  0  0  0  0  0  0  0  0
  -28.9423  -17.3401   19.7876 C   0  0  0  0  0  0  0  0  0  0  0  0
  -25.9525  -35.9526   24.7191 C   0  0  0  0  0  0  0  0  0  0  0  0
  -25.2211  -31.2502   20.2723 C   0  0  0  0  0  0  0  0  0  0  0  0
  -24.0095  -28.7626   21.3160 C   0  0  0  0  0  0  0  0  0  0  0  0
  -29.9001  -25.1570   19.1074 C   0  0  0  0  0  0  0  0  0  0  0  0
  -24.6470  -35.1759   24.5677 C   0  0  0  0  0  0  0  0  0  0  0  0
  -29.8184  -14.5595   21.8316 C   0  0  0  0  0  0  0  0  0  0  0  0
  -24.8289  -33.7319   25.0245 C   0  0  0  0  0  0  0  0  0  0  0  0
  -28.5634  -13.6840   21.8100 C   0  0  0  0  0  0  0  0  0  0  0  0
  -27.4868  -25.0437   18.3572 C   0  0  0  0  0  0  0  0  0  0  0  0
  -29.4719  -16.0473   21.8427 C   0  0  0  0  0  0  0  0  0  0  0  0
  -27.3071  -15.6053   20.7530 C   0  0  0  0  0  0  0  0  0  0  0  0
  -27.3200  -23.7322   19.1233 C   0  0  0  0  0  0  0  0  0  0  0  0
  -25.8756  -33.0099   24.1674 C   0  0  1  0  0  0  0  0  0  0  0  0
  -24.0909  -31.2757   21.2968 C   0  0  1  0  0  0  0  0  0  0  0  0
  -27.6060  -14.0992   20.6757 C   0  0  2  0  0  0  0  0  0  0  0  0
  -28.5865  -25.9235   18.9516 C   0  0  1  0  0  0  0  0  0  1  0  0
  -19.1625  -26.3881   18.3706 C   0  0  0  0  0  0  0  0  0  0  0  0
  -20.1775  -29.6077   23.9060 C   0  0  0  0  0  0  0  0  0  0  0  0
  -19.1825  -27.6552   22.6952 C   0  0  0  0  0  0  0  0  0  0  0  0
  -18.8948  -29.9613   21.7884 C   0  0  0  0  0  0  0  0  0  0  0  0
  -22.8885  -25.6269   18.2542 C   0  0  0  0  0  0  0  0  0  0  0  0
  -29.0477  -22.3006   17.9441 C   0  0  0  0  0  0  0  0  0  0  0  0
  -21.1589  -28.8457   21.6428 C   0  0  1  0  0  0  0  0  0  0  0  0
  -20.6421  -26.6680   18.5833 C   0  0  2  0  0  0  0  0  0  0  0  0
  -19.8816  -29.0192   22.5120 C   0  0  0  0  0  0  0  0  0  0  0  0
  -25.2679  -13.7126   21.3576 N   0  0  0  0  0  0  0  0  0  0  0  0
  -26.3377  -13.2665   20.6774 N   0  0  0  0  0  0  0  0  0  0  0  0
  -23.2925  -30.0482   21.2883 N   0  0  0  0  0  0  0  0  0  0  0  0
  -28.5653  -16.3677   20.7380 N   0  0  0  0  0  0  0  0  0  0  0  0
  -27.1048  -11.4814   19.3226 N   0  0  0  0  0  0  0  0  0  0  0  0
  -22.8516  -10.3062   20.2847 N   0  0  0  0  0  0  0  0  0  0  0  0
  -28.0149  -17.5368   18.7650 N   0  0  0  0  0  0  0  0  0  0  0  0
  -25.3087  -32.6292   22.8915 N   0  0  0  0  0  0  0  0  0  0  0  0
  -20.9055  -28.3155   20.3074 N   0  0  0  0  0  0  0  0  0  0  0  0
  -28.6166  -22.9633   19.2232 N   0  3  1  0  0  0  0  0  0  0  0  0
  -21.4159  -25.4801   18.1240 N   0  3  0  0  0  0  0  0  0  0  0  0
  -24.7571   -9.6632   19.1828 O   0  0  0  0  0  0  0  0  0  0  0  0
  -24.3300  -30.6225   23.5531 O   0  0  0  0  0  0  0  0  0  0  0  0
  -21.2732  -31.2053   21.4291 O   0  0  0  0  0  0  0  0  0  0  0  0
  -21.1871  -26.0819   20.8629 O   0  0  0  0  0  0  0  0  0  0  0  0
  -30.0214  -17.9337   19.8595 O   0  0  0  0  0  0  0  0  0  0  0  0
  -19.2574  -13.2087   23.3988 O   0  0  0  0  0  0  0  0  0  0  0  0
  -28.1549  -26.4043   20.2241 O   0  0  0  0  0  0  0  0  0  1  0  0
  -15.0987  -14.5879   20.0510 F   0  0  0  0  0  0  0  0  0  0  0  0
  -17.7810  -15.5037   23.8420 F   0  0  0  0  0  0  0  0  0  0  0  0
  1  2  1  0  0  0  0
  1  6  2  0  0  0  0
  2  7  2  0  0  0  0
  3  9  2  0  0  0  0
  3 10  1  0  0  0  0
  4 11  2  0  0  0  0
  4 19  1  0  0  0  0
  5 12  1  0  0  0  0
  5 19  2  0  0  0  0
  6 21  1  0  0  0  0
  7 23  1  0  0  0  0
  8 13  2  0  0  0  0
  8 22  1  0  0  0  0
  9 25  1  0  0  0  0
 10 26  2  0  0  0  0
 11 27  1  0  0  0  0
 12 27  2  0  0  0  0
 13 28  1  0  0  0  0
 14 15  2  0  0  0  0
 14 29  1  0  0  0  0
 15 30  1  0  0  0  0
 16 24  1  0  0  0  0
 16 28  2  0  0  0  0
 17 25  2  0  0  0  0
 17 26  1  0  0  0  0
 18 30  2  0  0  0  0
 18 31  1  0  0  0  0
 19 32  1  0  0  0  0
 20 32  1  0  0  0  0
 20 33  2  0  0  0  0
 20 38  1  0  0  0  0
 21 23  2  0  0  0  0
 21 43  1  0  0  0  0
 22 24  2  0  0  0  0
 22 44  1  0  0  0  0
 23 55  1  0  0  0  0
 24 45  1  0  0  0  0
 25 64  1  0  0  0  0
 26 74  1  0  0  0  0
 27 84  1  0  0  0  0
 28 85  1  0  0  0  0
 29 31  2  0  0  0  0
 29 84  1  0  0  0  0
 30 86  1  0  0  0  0
 31 87  1  0  0  0  0
 32 68  2  0  0  0  0
 33 69  1  0  0  0  0
 33 72  1  0  0  0  0
 34 36  2  0  0  0  0
 34 46  1  0  0  0  0
 34 77  1  0  0  0  0
 35 37  2  0  0  0  0
 36 37  1  0  0  0  0
 38 73  1  0  0  0  0
 38 79  2  0  0  0  0
 39 56  1  0  0  0  0
 39 75  1  0  0  0  0
 39 80  2  0  0  0  0
 40 65  1  0  0  0  0
 40 70  1  0  0  0  0
 40 81  2  0  0  0  0
 41 66  1  0  0  0  0
 41 76  1  0  0  0  0
 41 82  2  0  0  0  0
 42 71  1  0  0  0  0
 42 74  1  0  0  0  0
 42 83  2  0  0  0  0
 43 47  1  0  0  0  0
 44 56  1  0  0  0  0
 45 70  1  0  0  0  0
 46 58  1  0  0  0  0
 47 49  1  0  0  0  0
 48 50  1  0  0  0  0
 48 52  1  0  0  0  0
 49 55  1  0  0  0  0
 50 57  1  0  0  0  0
 51 54  1  0  0  0  0
 51 58  1  0  0  0  0
 52 71  1  0  0  0  0
 53 57  1  0  0  0  0
 53 71  1  0  0  0  0
 54 77  1  0  0  0  0
 55 75  1  0  0  0  0
 56 70  1  0  0  0  0
 57 69  1  0  0  0  0
 58 85  1  0  0  0  0
 59 66  1  0  0  0  0
 60 67  1  0  0  0  0
 61 67  1  0  0  0  0
 62 67  1  0  0  0  0
 63 78  1  0  0  0  0
 64 77  1  0  0  0  0
 65 67  1  0  0  0  0
 65 76  1  0  0  0  0
 66 78  1  0  0  0  0
 68 69  1  0  0  0  0
M  CHG  2  77   1  78   1
M  ISO  4  42 100  58 101  74 100  85 101
M  END
> <Batch ID>
0046

> <Smiles>
C=CC=C1C[101CH:1]([101O:1]c2ccc3c(c2)CN(C(=O)C(NC(=O)C(C)NC)C(C)(C)C)C(C(=O)NC2CCCc4ccccc42)C3)CCN1Cc1cccc([100NH:0][100C:0](=O)N2CCCC(n3nc(-c4ccc(Oc5ccc(F)cc5F)cc4)c(C(N)=O)c3N)C2)c1

> <Shape>
0.308

> <Color>
0.080

> <Negative vol penalty>
0.000

$$$$

  -OEChem-04042322233D

 84 92  0     1  0  0  0  0  0999 V2000
  -30.3785  -25.0709   24.6909 C   0  0  0  0  0  0  0  0  0  0  0  0
  -29.1164  -24.4882   24.6363 C   0  0  0  0  0  0  0  0  0  0  0  0
  -25.4607  -31.0794   21.3770 C   0  0  0  0  0  0  0  0  0  0  0  0
  -24.2879  -29.3208   22.5470 C   0  0  0  0  0  0  0  0  0  0  0  0
  -31.2652  -24.9118   23.6268 C   0  0  0  0  0  0  0  0  0  0  0  0
  -28.7399  -23.7469   23.5168 C   0  0  0  0  0  0  0  0  0  0  0  0
  -25.1594  -18.7793   23.4251 C   0  0  0  0  0  0  0  0  0  0  0  0
  -21.4218  -22.7573   16.3554 C   0  0  0  0  0  0  0  0  0  0  0  0
  -24.7864  -32.0349   22.1372 C   0  0  0  0  0  0  0  0  0  0  0  0
  -23.6136  -30.2763   23.3073 C   0  0  0  0  0  0  0  0  0  0  0  0
  -23.8058  -18.6037   23.1408 C   0  0  0  0  0  0  0  0  0  0  0  0
  -23.6393  -34.9259   24.0191 C   0  0  0  0  0  0  0  0  0  0  0  0
  -20.3183  -21.9111   16.4643 C   0  0  0  0  0  0  0  0  0  0  0  0
  -24.3855  -35.9800   24.5461 C   0  0  0  0  0  0  0  0  0  0  0  0
  -24.3651  -18.0194   20.8682 C   0  0  0  0  0  0  0  0  0  0  0  0
  -25.7453  -34.4042   25.7728 C   0  0  0  0  0  0  0  0  0  0  0  0
  -25.2115  -29.7223   21.5819 C   0  0  0  0  0  0  0  0  0  0  0  0
  -20.7229  -21.6885   18.8358 C   0  0  0  0  0  0  0  0  0  0  0  0
  -27.1356  -28.1180   21.1008 C   0  0  0  0  0  0  0  0  0  0  0  0
  -30.9030  -24.1600   22.4980 C   0  0  0  0  0  0  0  0  0  0  0  0
  -26.1268  -18.5864   22.4284 C   0  0  0  0  0  0  0  0  0  0  0  0
  -29.6221  -23.5787   22.4360 C   0  0  0  0  0  0  0  0  0  0  0  0
  -25.7304  -18.1906   21.1430 C   0  0  0  0  0  0  0  0  0  0  0  0
  -22.1760  -23.0690   17.4867 C   0  0  0  0  0  0  0  0  0  0  0  0
  -23.8628  -31.6333   23.1024 C   0  0  0  0  0  0  0  0  0  0  0  0
  -23.4083  -18.2266   21.8615 C   0  0  0  0  0  0  0  0  0  0  0  0
  -23.9461  -33.6109   24.3691 C   0  0  0  0  0  0  0  0  0  0  0  0
  -25.4385  -35.7191   25.4229 C   0  0  0  0  0  0  0  0  0  0  0  0
  -19.9688  -21.3768   17.7044 C   0  0  0  0  0  0  0  0  0  0  0  0
  -24.9990  -33.3500   25.2459 C   0  0  0  0  0  0  0  0  0  0  0  0
  -21.8265  -22.5346   18.7269 C   0  0  0  0  0  0  0  0  0  0  0  0
  -25.9073  -28.7349   20.7965 C   0  0  0  0  0  0  0  0  0  0  0  0
  -27.3618  -27.2655   20.0479 C   0  0  0  0  0  0  0  0  0  0  0  0
  -20.3214  -21.1038   20.1309 C   0  0  0  0  0  0  0  0  0  0  0  0
  -27.9951  -28.2992   22.2340 C   0  0  0  0  0  0  0  0  0  0  0  0
  -28.2946  -20.4351   21.0189 C   0  0  0  0  0  0  0  0  0  0  0  0
  -29.2016  -17.6465   19.6320 C   0  0  0  0  0  0  0  0  0  0  0  0
  -28.3608  -14.4830   18.6665 C   0  0  0  0  0  0  0  0  0  0  0  0
  -23.7418  -24.5299   16.1599 C   0  0  0  0  0  0  0  0  0  0  0  0
  -31.8779  -24.0554   21.3520 C   0  0  0  0  0  0  0  0  0  0  0  0
  -27.5848  -18.7538   22.7582 C   0  0  0  0  0  0  0  0  0  0  0  0
  -26.7311  -17.9512   20.0431 C   0  0  0  0  0  0  0  0  0  0  0  0
  -31.5397  -22.9416   20.3644 C   0  0  0  0  0  0  0  0  0  0  0  0
  -26.4185  -26.7449   15.3817 C   0  0  0  0  0  0  0  0  0  0  0  0
  -30.0568  -22.9759   20.0084 C   0  0  0  0  0  0  0  0  0  0  0  0
  -26.7070  -27.4461   16.7111 C   0  0  0  0  0  0  0  0  0  0  0  0
  -24.9252  -26.4873   15.1888 C   0  0  0  0  0  0  0  0  0  0  0  0
  -24.5578  -26.4802   17.6248 C   0  0  0  0  0  0  0  0  0  0  0  0
  -29.1861  -22.7465   21.2496 C   0  0  1  0  0  0  0  0  0  0  0  0
  -28.4471  -19.0306   21.5305 C   0  0  1  0  0  0  0  0  0  0  0  0
  -26.0551  -26.7026   17.8934 C   0  0  2  0  0  0  0  0  0  0  0  0
  -29.3014  -12.4568   17.5232 C   0  0  0  0  0  0  0  0  0  0  0  0
  -28.9239  -19.0432   16.9335 C   0  0  0  0  0  0  0  0  0  0  0  0
  -28.9352  -16.7890   15.8441 C   0  0  0  0  0  0  0  0  0  0  0  0
  -30.9249  -17.5570   17.1379 C   0  0  0  0  0  0  0  0  0  0  0  0
  -27.9591  -12.7989   21.0668 C   0  0  0  0  0  0  0  0  0  0  0  0
  -19.9180  -19.0744   21.4784 C   0  0  0  0  0  0  0  0  0  0  0  0
  -21.1589  -18.8493   22.3182 C   0  0  0  0  0  0  0  0  0  1  0  0
  -28.8189  -16.9036   18.3748 C   0  0  1  0  0  0  0  0  0  0  0  0
  -29.0651  -13.1515   18.8552 C   0  0  2  0  0  0  0  0  0  0  0  0
  -29.3815  -17.5795   17.0925 C   0  0  0  0  0  0  0  0  0  0  0  0
  -25.3896  -28.3105   19.6407 N   0  0  0  0  0  0  0  0  0  0  0  0
  -26.2969  -27.4179   19.2095 N   0  0  0  0  0  0  0  0  0  0  0  0
  -28.1443  -18.1338   20.4132 N   0  0  0  0  0  0  0  0  0  0  0  0
  -24.3770  -25.7759   16.3457 N   0  0  0  0  0  0  0  0  0  0  0  0
  -28.3658  -26.4079   19.7668 N   0  0  0  0  0  0  0  0  0  0  0  0
  -19.9997  -21.9346   21.1224 N   0  0  0  0  0  0  0  0  0  0  0  0
  -27.6117  -29.2144   23.2238 N   0  0  0  0  0  0  0  0  0  0  0  0
  -23.2894  -23.9323   17.3358 N   0  0  0  0  0  0  0  0  0  0  0  0
  -29.1619  -21.3420   21.5975 N   0  0  0  0  0  0  0  0  0  0  0  0
  -29.2577  -15.5254   18.5654 N   0  0  0  0  0  0  0  0  0  0  0  0
  -20.3018  -19.7707   20.2479 N   0  3  0  0  0  0  0  0  0  0  0  0
  -28.2479  -12.2508   19.7166 N   0  3  0  0  0  0  0  0  0  0  0  0
  -29.0793  -27.6804   22.3568 O   0  0  0  0  0  0  0  0  0  0  0  0
  -27.4535  -20.6777   20.1614 O   0  0  0  0  0  0  0  0  0  0  0  0
  -30.3947  -17.7829   19.9143 O   0  0  0  0  0  0  0  0  0  0  0  0
  -27.1375  -14.5874   18.6104 O   0  0  0  0  0  0  0  0  0  0  0  0
  -23.6331  -24.0170   15.0432 O   0  0  0  0  0  0  0  0  0  0  0  0
  -23.2048  -32.5654   23.8445 O   0  0  0  0  0  0  0  0  0  0  0  0
  -22.0877  -18.0552   21.5812 O   0  0  0  0  0  0  0  0  0  1  0  0
  -26.1559  -36.7314   25.9276 F   0  0  0  0  0  0  0  0  0  0  0  0
  -18.9058  -20.5653   17.7972 F   0  0  0  0  0  0  0  0  0  0  0  0
  -25.2992  -32.0888   25.5849 F   0  0  0  0  0  0  0  0  0  0  0  0
  -22.7613  -22.9184   20.1362 Cl  0  0  0  0  0  0  0  0  0  0  0  0
  1  2  1  0  0  0  0
  1  5  2  0  0  0  0
  2  6  2  0  0  0  0
  3  9  2  0  0  0  0
  3 17  1  0  0  0  0
  4 10  1  0  0  0  0
  4 17  2  0  0  0  0
  5 20  1  0  0  0  0
  6 22  1  0  0  0  0
  7 11  2  0  0  0  0
  7 21  1  0  0  0  0
  8 13  1  0  0  0  0
  8 24  2  0  0  0  0
  9 25  1  0  0  0  0
 10 25  2  0  0  0  0
 11 26  1  0  0  0  0
 12 14  2  0  0  0  0
 12 27  1  0  0  0  0
 13 29  2  0  0  0  0
 14 28  1  0  0  0  0
 15 23  1  0  0  0  0
 15 26  2  0  0  0  0
 16 28  2  0  0  0  0
 16 30  1  0  0  0  0
 17 32  1  0  0  0  0
 18 29  1  0  0  0  0
 18 31  2  0  0  0  0
 18 34  1  0  0  0  0
 19 32  1  0  0  0  0
 19 33  2  0  0  0  0
 19 35  1  0  0  0  0
 20 22  2  0  0  0  0
 20 40  1  0  0  0  0
 21 23  2  0  0  0  0
 21 41  1  0  0  0  0
 22 49  1  0  0  0  0
 23 42  1  0  0  0  0
 24 31  1  0  0  0  0
 24 69  1  0  0  0  0
 25 79  1  0  0  0  0
 26 80  1  0  0  0  0
 27 30  2  0  0  0  0
 27 79  1  0  0  0  0
 28 81  1  0  0  0  0
 29 82  1  0  0  0  0
 30 83  1  0  0  0  0
 31 84  1  0  0  0  0
 32 62  2  0  0  0  0
 33 63  1  0  0  0  0
 33 66  1  0  0  0  0
 34 67  1  0  0  0  0
 34 72  2  0  0  0  0
 35 68  1  0  0  0  0
 35 74  2  0  0  0  0
 36 50  1  0  0  0  0
 36 70  1  0  0  0  0
 36 75  2  0  0  0  0
 37 59  1  0  0  0  0
 37 64  1  0  0  0  0
 37 76  2  0  0  0  0
 38 60  1  0  0  0  0
 38 71  1  0  0  0  0
 38 77  2  0  0  0  0
 39 65  1  0  0  0  0
 39 69  1  0  0  0  0
 39 78  2  0  0  0  0
 40 43  1  0  0  0  0
 41 50  1  0  0  0  0
 42 64  1  0  0  0  0
 43 45  1  0  0  0  0
 44 46  1  0  0  0  0
 44 47  1  0  0  0  0
 45 49  1  0  0  0  0
 46 51  1  0  0  0  0
 47 65  1  0  0  0  0
 48 51  1  0  0  0  0
 48 65  1  0  0  0  0
 49 70  1  0  0  0  0
 50 64  1  0  0  0  0
 51 63  1  0  0  0  0
 52 60  1  0  0  0  0
 53 61  1  0  0  0  0
 54 61  1  0  0  0  0
 55 61  1  0  0  0  0
 56 73  1  0  0  0  0
 57 58  1  0  0  0  0
 57 72  1  0  0  0  0
 58 80  1  0  0  0  0
 59 61  1  0  0  0  0
 59 71  1  0  0  0  0
 60 73  1  0  0  0  0
 62 63  1  0  0  0  0
M  CHG  2  72   1  73   1
M  ISO  4  39 100  58 101  69 100  80 101
M  END
> <Batch ID>
0046

> <Smiles>
CNC(C)C(=O)NC(C(=O)N1Cc2cc([101O:1][101CH2:1]CNC(=N)c3c(F)ccc([100NH:0][100C:0](=O)N4CCCC(n5nc(-c6ccc(Oc7ccc(F)cc7F)cc6)c(C(N)=O)c5N)C4)c3Cl)ccc2CC1C(=O)NC1CCCc2ccccc21)C(C)(C)C

> <Shape>
0.198

> <Color>
0.066

> <Negative vol penalty>
0.000

$$$$

  -OEChem-04042322233D

 88 97  0     1  0  0  0  0  0999 V2000
  -17.0556  -28.3578   18.0283 C   0  0  0  0  0  0  0  0  0  0  0  0
  -18.1740  -27.5850   18.3242 C   0  0  0  0  0  0  0  0  0  0  0  0
  -22.8111   -9.8797   20.0679 C   0  0  0  0  0  0  0  0  0  0  0  0
  -24.5469   -8.9446   21.4643 C   0  0  0  0  0  0  0  0  0  0  0  0
  -17.1271  -29.7475   18.1153 C   0  0  0  0  0  0  0  0  0  0  0  0
  -19.3649  -28.2016   18.7062 C   0  0  0  0  0  0  0  0  0  0  0  0
  -21.5373  -25.9368   22.6806 C   0  0  0  0  0  0  0  0  0  0  0  0
  -29.8840  -20.3357   22.1786 C   0  0  0  0  0  0  0  0  0  0  0  0
  -21.8412   -9.3532   20.9210 C   0  0  0  0  0  0  0  0  0  0  0  0
  -23.5770   -8.4181   22.3174 C   0  0  0  0  0  0  0  0  0  0  0  0
  -22.2358  -24.7551   22.4367 C   0  0  0  0  0  0  0  0  0  0  0  0
  -21.4819   -5.7651   22.3715 C   0  0  0  0  0  0  0  0  0  0  0  0
  -21.6416   -4.4472   22.7994 C   0  0  0  0  0  0  0  0  0  0  0  0
  -30.9933  -19.8252   21.5044 C   0  0  0  0  0  0  0  0  0  0  0  0
  -24.3122  -25.9826   22.4707 C   0  0  0  0  0  0  0  0  0  0  0  0
  -28.6027  -18.3878   21.5451 C   0  0  0  0  0  0  0  0  0  0  0  0
  -21.7123   -5.2006   25.0938 C   0  0  0  0  0  0  0  0  0  0  0  0
  -24.1640   -9.6753   20.3395 C   0  0  0  0  0  0  0  0  0  0  0  0
  -25.3366   -9.9383   18.0893 C   0  0  0  0  0  0  0  0  0  0  0  0
  -18.3167  -30.3810   18.5079 C   0  0  0  0  0  0  0  0  0  0  0  0
  -22.2213  -27.1540   22.8107 C   0  0  0  0  0  0  0  0  0  0  0  0
  -19.4528  -29.6012   18.7972 C   0  0  0  0  0  0  0  0  0  0  0  0
  -23.6203  -27.1779   22.7187 C   0  0  0  0  0  0  0  0  0  0  0  0
  -28.6887  -19.6169   22.1990 C   0  0  0  0  0  0  0  0  0  0  0  0
  -29.7120  -17.8774   20.8709 C   0  0  0  0  0  0  0  0  0  0  0  0
  -22.2241   -8.6224   22.0457 C   0  0  0  0  0  0  0  0  0  0  0  0
  -23.6232  -24.7783   22.3288 C   0  0  0  0  0  0  0  0  0  0  0  0
  -21.4374   -6.8009   23.3048 C   0  0  0  0  0  0  0  0  0  0  0  0
  -21.7568   -4.1649   24.1605 C   0  0  0  0  0  0  0  0  0  0  0  0
  -21.5526   -6.5186   24.6659 C   0  0  0  0  0  0  0  0  0  0  0  0
  -30.9073  -18.5961   20.8506 C   0  0  0  0  0  0  0  0  0  0  0  0
  -25.1663  -10.2184   19.4584 C   0  0  0  0  0  0  0  0  0  0  0  0
  -26.4169  -10.6995   17.7149 C   0  0  0  0  0  0  0  0  0  0  0  0
  -25.1619  -20.7626   22.6567 C   0  0  0  0  0  0  0  0  0  0  0  0
  -24.2560  -19.8297   22.3266 C   0  0  0  0  0  0  0  0  0  0  0  0
  -24.5855   -9.0679   17.2327 C   0  0  0  0  0  0  0  0  0  0  0  0
  -22.2275  -29.9050   21.2182 C   0  0  0  0  0  0  0  0  0  0  0  0
  -24.1766  -30.8498   23.6329 C   0  0  0  0  0  0  0  0  0  0  0  0
  -26.9219  -29.4437   25.5047 C   0  0  0  0  0  0  0  0  0  0  0  0
  -28.4646  -15.8013   20.1509 C   0  0  0  0  0  0  0  0  0  0  0  0
  -18.3595  -31.8882   18.5418 C   0  0  0  0  0  0  0  0  0  0  0  0
  -21.4554  -28.4157   23.1002 C   0  0  0  0  0  0  0  0  0  0  0  0
  -24.4033  -28.4554   22.8708 C   0  0  0  0  0  0  0  0  0  0  0  0
  -24.8818  -21.8654   23.6448 C   0  0  0  0  0  0  0  0  0  0  0  0
  -19.5506  -32.4464   19.3165 C   0  0  0  0  0  0  0  0  0  0  0  0
  -30.1851  -12.3728   20.2476 C   0  0  0  0  0  0  0  0  0  0  0  0
  -20.8342  -31.7282   18.9124 C   0  0  0  0  0  0  0  0  0  0  0  0
  -29.2969  -11.6156   19.2633 C   0  0  0  0  0  0  0  0  0  0  0  0
  -26.6502  -23.1922   22.4152 C   0  0  0  0  0  0  0  0  0  0  0  0
  -30.1358  -13.8797   20.0288 C   0  0  0  0  0  0  0  0  0  0  0  0
  -27.6723  -13.4491   19.9908 C   0  0  0  0  0  0  0  0  0  0  0  0
  -26.7801  -22.0591   21.3984 C   0  0  0  0  0  0  0  0  0  0  0  0
  -20.7554  -30.2320   19.2391 C   0  0  1  0  0  0  0  0  0  0  0  0
  -22.2131  -29.6791   22.7036 C   0  0  1  0  0  0  0  0  0  0  0  0
  -27.9677  -12.3392   18.9699 C   0  0  2  0  0  0  0  0  0  0  0  0
  -25.2680  -23.2272   23.0672 C   0  0  1  0  0  0  0  0  0  1  0  0
  -24.1425  -19.1428   19.9333 C   0  0  0  0  0  0  0  0  0  0  0  0
  -27.7229  -29.9223   27.8342 C   0  0  0  0  0  0  0  0  0  0  0  0
  -26.0764  -32.8077   22.2665 C   0  0  0  0  0  0  0  0  0  0  0  0
  -27.8412  -32.1339   23.9096 C   0  0  0  0  0  0  0  0  0  0  0  0
  -25.7404  -33.2142   24.7111 C   0  0  0  0  0  0  0  0  0  0  0  0
  -26.7169  -26.5962   26.2848 C   0  0  0  0  0  0  0  0  0  0  0  0
  -27.4958  -20.1661   22.9246 C   0  0  0  0  0  0  0  0  0  0  0  0
  -24.5131  -18.7264   21.3481 C   0  0  0  0  0  0  0  0  0  0  0  0
  -25.6666  -30.8296   23.8743 C   0  0  1  0  0  0  0  0  0  0  0  0
  -26.8979  -28.9956   26.9549 C   0  0  2  0  0  0  0  0  0  0  0  0
  -26.3185  -32.2269   23.6740 C   0  0  0  0  0  0  0  0  0  0  0  0
  -26.0664  -11.0894   19.9223 N   0  0  0  0  0  0  0  0  0  0  0  0
  -26.8127  -11.3631   18.8388 N   0  0  0  0  0  0  0  0  0  0  0  0
  -23.6087  -29.6637   23.1468 N   0  0  0  0  0  0  0  0  0  0  0  0
  -28.7695  -14.4218   20.0500 N   0  0  0  0  0  0  0  0  0  0  0  0
  -27.0573  -10.8591   16.5373 N   0  0  0  0  0  0  0  0  0  0  0  0
  -24.9902   -7.7310   17.1179 N   0  0  0  0  0  0  0  0  0  0  0  0
  -29.5905  -16.6264   20.2158 N   0  0  0  0  0  0  0  0  0  0  0  0
  -20.9710  -30.0114   20.6531 N   0  0  0  0  0  0  0  0  0  0  0  0
  -25.8567  -30.2671   25.2069 N   0  0  0  0  0  0  0  0  0  0  0  0
  -26.4446  -20.7144   21.9997 N   0  3  1  0  0  0  0  0  0  0  0  0
  -27.4479  -27.6161   27.0799 N   0  3  0  0  0  0  0  0  0  0  0  0
  -23.5949   -9.4681   16.5753 O   0  0  0  0  0  0  0  0  0  0  0  0
  -23.2993  -29.9788   20.6287 O   0  0  0  0  0  0  0  0  0  0  0  0
  -23.5388  -31.8779   23.8739 O   0  0  0  0  0  0  0  0  0  0  0  0
  -27.7999  -29.1009   24.7160 O   0  0  0  0  0  0  0  0  0  0  0  0
  -27.3010  -16.2083   20.1648 O   0  0  0  0  0  0  0  0  0  0  0  0
  -21.2780   -8.1087   22.8785 O   0  0  0  0  0  0  0  0  0  0  0  0
  -24.3074  -23.6264   22.0902 O   0  0  0  0  0  0  0  0  0  1  0  0
  -21.9086   -2.8991   24.5714 F   0  0  0  0  0  0  0  0  0  0  0  0
  -21.5094   -7.5093   25.5673 F   0  0  0  0  0  0  0  0  0  0  0  0
  -32.3052  -18.0016   20.0276 Cl  0  0  0  0  0  0  0  0  0  0  0  0
  1  2  1  0  0  0  0
  1  5  2  0  0  0  0
  2  6  2  0  0  0  0
  3  9  2  0  0  0  0
  3 18  1  0  0  0  0
  4 10  1  0  0  0  0
  4 18  2  0  0  0  0
  5 20  1  0  0  0  0
  6 22  1  0  0  0  0
  7 11  2  0  0  0  0
  7 21  1  0  0  0  0
  8 14  2  0  0  0  0
  8 24  1  0  0  0  0
  9 26  1  0  0  0  0
 10 26  2  0  0  0  0
 11 27  1  0  0  0  0
 12 13  2  0  0  0  0
 12 28  1  0  0  0  0
 13 29  1  0  0  0  0
 14 31  1  0  0  0  0
 15 23  1  0  0  0  0
 15 27  2  0  0  0  0
 16 24  2  0  0  0  0
 16 25  1  0  0  0  0
 17 29  2  0  0  0  0
 17 30  1  0  0  0  0
 18 32  1  0  0  0  0
 19 32  1  0  0  0  0
 19 33  2  0  0  0  0
 19 36  1  0  0  0  0
 20 22  2  0  0  0  0
 20 41  1  0  0  0  0
 21 23  2  0  0  0  0
 21 42  1  0  0  0  0
 22 53  1  0  0  0  0
 23 43  1  0  0  0  0
 24 63  1  0  0  0  0
 25 31  2  0  0  0  0
 25 74  1  0  0  0  0
 26 84  1  0  0  0  0
 27 85  1  0  0  0  0
 28 30  2  0  0  0  0
 28 84  1  0  0  0  0
 29 86  1  0  0  0  0
 30 87  1  0  0  0  0
 31 88  1  0  0  0  0
 32 68  2  0  0  0  0
 33 69  1  0  0  0  0
 33 72  1  0  0  0  0
 34 35  2  0  0  0  0
 34 44  1  0  0  0  0
 34 77  1  0  0  0  0
 35 64  1  0  0  0  0
 36 73  1  0  0  0  0
 36 79  2  0  0  0  0
 37 54  1  0  0  0  0
 37 75  1  0  0  0  0
 37 80  2  0  0  0  0
 38 65  1  0  0  0  0
 38 70  1  0  0  0  0
 38 81  2  0  0  0  0
 39 66  1  0  0  0  0
 39 76  1  0  0  0  0
 39 82  2  0  0  0  0
 40 71  1  0  0  0  0
 40 74  1  0  0  0  0
 40 83  2  0  0  0  0
 41 45  1  0  0  0  0
 42 54  1  0  0  0  0
 43 70  1  0  0  0  0
 44 56  1  0  0  0  0
 45 47  1  0  0  0  0
 46 48  1  0  0  0  0
 46 50  1  0  0  0  0
 47 53  1  0  0  0  0
 48 55  1  0  0  0  0
 49 52  1  0  0  0  0
 49 56  1  0  0  0  0
 50 71  1  0  0  0  0
 51 55  1  0  0  0  0
 51 71  1  0  0  0  0
 52 77  1  0  0  0  0
 53 75  1  0  0  0  0
 54 70  1  0  0  0  0
 55 69  1  0  0  0  0
 56 85  1  0  0  0  0
 57 64  1  0  0  0  0
 58 66  1  0  0  0  0
 59 67  1  0  0  0  0
 60 67  1  0  0  0  0
 61 67  1  0  0  0  0
 62 78  1  0  0  0  0
 63 77  1  0  0  0  0
 65 67  1  0  0  0  0
 65 76  1  0  0  0  0
 66 78  1  0  0  0  0
 68 69  1  0  0  0  0
M  CHG  2  77   1  78   1
M  ISO  4  40 100  56 101  74 100  85 101
M  END
> <Batch ID>
0046

> <Smiles>
CCC=C1C[101CH:1]([101O:1]c2ccc3c(c2)CN(C(=O)C(NC(=O)C(C)NC)C(C)(C)C)C(C(=O)NC2CCCc4ccccc42)C3)CCN1Cc1ccc(Cl)c([100NH:0][100C:0](=O)N2CCCC(n3nc(-c4ccc(Oc5ccc(F)cc5F)cc4)c(C(N)=O)c3N)C2)c1

> <Shape>
0.245

> <Color>
0.079

> <Negative vol penalty>
0.000

$$$$

  -OEChem-04042322233D

 83 91  0     1  0  0  0  0  0999 V2000
  -24.6738  -32.0797   24.5032 C   0  0  0  0  0  0  0  0  0  0  0  0
  -24.7620  -30.7577   24.9275 C   0  0  0  0  0  0  0  0  0  0  0  0
  -24.5992  -12.0095   19.8305 C   0  0  0  0  0  0  0  0  0  0  0  0
  -25.4225  -12.3300   22.0792 C   0  0  0  0  0  0  0  0  0  0  0  0
  -24.5958  -32.3700   23.1418 C   0  0  0  0  0  0  0  0  0  0  0  0
  -24.7712  -29.7251   23.9904 C   0  0  0  0  0  0  0  0  0  0  0  0
  -27.8410  -24.4393   24.3671 C   0  0  0  0  0  0  0  0  0  0  0  0
  -30.8441  -20.0866   22.4044 C   0  0  0  0  0  0  0  0  0  0  0  0
  -24.8769  -10.6457   19.9232 C   0  0  0  0  0  0  0  0  0  0  0  0
  -25.7001  -10.9662   22.1719 C   0  0  0  0  0  0  0  0  0  0  0  0
  -27.4560  -23.1565   24.7545 C   0  0  0  0  0  0  0  0  0  0  0  0
  -23.4652   -7.9050   21.3120 C   0  0  0  0  0  0  0  0  0  0  0  0
  -22.4933   -7.0133   20.8583 C   0  0  0  0  0  0  0  0  0  0  0  0
  -31.8989  -20.3446   23.2798 C   0  0  0  0  0  0  0  0  0  0  0  0
  -30.6863  -19.2541   25.0623 C   0  0  0  0  0  0  0  0  0  0  0  0
  -27.0957  -22.5726   22.4418 C   0  0  0  0  0  0  0  0  0  0  0  0
  -24.0592   -6.1272   19.2458 C   0  0  0  0  0  0  0  0  0  0  0  0
  -24.8721  -12.8516   20.9085 C   0  0  0  0  0  0  0  0  0  0  0  0
  -29.6314  -18.9961   24.1869 C   0  0  0  0  0  0  0  0  0  0  0  0
  -23.3860  -14.9098   21.1602 C   0  0  0  0  0  0  0  0  0  0  0  0
  -24.6137  -31.3409   22.1871 C   0  0  0  0  0  0  0  0  0  0  0  0
  -27.8458  -24.8023   23.0126 C   0  0  0  0  0  0  0  0  0  0  0  0
  -24.6920  -30.0018   22.6150 C   0  0  0  0  0  0  0  0  0  0  0  0
  -27.4837  -23.8598   22.0396 C   0  0  0  0  0  0  0  0  0  0  0  0
  -29.7103  -19.4123   22.8579 C   0  0  0  0  0  0  0  0  0  0  0  0
  -25.4273  -10.1240   21.0939 C   0  0  0  0  0  0  0  0  0  0  0  0
  -27.0805  -22.2239   23.7921 C   0  0  0  0  0  0  0  0  0  0  0  0
  -24.7341   -7.9079   20.7327 C   0  0  0  0  0  0  0  0  0  0  0  0
  -22.7903   -6.1244   19.8252 C   0  0  0  0  0  0  0  0  0  0  0  0
  -25.0311   -7.0190   19.6996 C   0  0  0  0  0  0  0  0  0  0  0  0
  -31.8200  -19.9284   24.6087 C   0  0  0  0  0  0  0  0  0  0  0  0
  -24.5860  -14.2606   20.8132 C   0  0  0  0  0  0  0  0  0  0  0  0
  -23.6209  -16.2350   20.8862 C   0  0  0  0  0  0  0  0  0  0  0  0
  -28.4469  -18.2813   24.7034 C   0  0  0  0  0  0  0  0  0  0  0  0
  -22.1679  -14.3638   21.6835 C   0  0  0  0  0  0  0  0  0  0  0  0
  -27.3896  -18.9381   25.2389 C   0  0  0  0  0  0  0  0  0  0  0  0
  -26.3057  -26.9646   21.2644 C   0  0  0  0  0  0  0  0  0  0  0  0
  -28.3031  -25.9277   18.9282 C   0  0  0  0  0  0  0  0  0  0  0  0
  -30.2819  -23.4304   17.7056 C   0  0  0  0  0  0  0  0  0  0  0  0
  -28.6018  -19.5234   20.5984 C   0  0  0  0  0  0  0  0  0  0  0  0
  -24.4795  -31.7012   20.7287 C   0  0  0  0  0  0  0  0  0  0  0  0
  -28.2894  -26.1817   22.6090 C   0  0  0  0  0  0  0  0  0  0  0  0
  -27.4913  -24.1933   20.5709 C   0  0  0  0  0  0  0  0  0  0  0  0
  -24.8730  -30.5694   19.7830 C   0  0  0  0  0  0  0  0  0  0  0  0
  -26.2009  -19.0641   18.0096 C   0  0  0  0  0  0  0  0  0  0  0  0
  -24.2404  -29.2555   20.2307 C   0  0  0  0  0  0  0  0  0  0  0  0
  -25.4012  -17.8429   18.4694 C   0  0  0  0  0  0  0  0  0  0  0  0
  -27.6813  -18.9393   18.3654 C   0  0  0  0  0  0  0  0  0  0  0  0
  -27.1582  -17.4255   20.2373 C   0  0  0  0  0  0  0  0  0  0  0  0
  -24.7298  -28.8554   21.6278 C   0  0  1  0  0  0  0  0  0  0  0  0
  -27.7636  -26.6018   21.2399 C   0  0  1  0  0  0  0  0  0  0  0  0
  -25.6501  -17.5343   19.9588 C   0  0  2  0  0  0  0  0  0  0  0  0
  -28.5549  -16.7830   24.5845 C   0  0  0  0  0  0  0  0  0  0  0  0
  -26.1555  -18.2269   25.7449 C   0  0  0  0  0  0  0  0  0  0  0  0
  -31.7566  -22.8611   15.7567 C   0  0  0  0  0  0  0  0  0  0  0  0
  -25.8330  -25.4478   17.2024 C   0  0  0  0  0  0  0  0  0  0  0  0
  -27.2456  -24.0312   15.6971 C   0  0  0  0  0  0  0  0  0  0  0  0
  -27.7752  -26.4515   15.9879 C   0  0  0  0  0  0  0  0  0  0  0  0
  -32.6567  -23.1204   19.4443 C   0  0  0  0  0  0  0  0  0  0  0  0
  -27.2934  -20.4444   25.3554 C   0  0  0  0  0  0  0  0  0  1  0  0
  -28.2498  -24.8428   17.8798 C   0  0  1  0  0  0  0  0  0  0  0  0
  -31.6985  -23.4433   17.1604 C   0  0  2  0  0  0  0  0  0  0  0  0
  -27.2738  -25.1873   16.7195 C   0  0  0  0  0  0  0  0  0  0  0  0
  -25.5143  -15.1039   20.3536 N   0  0  0  0  0  0  0  0  0  0  0  0
  -24.8975  -16.2966   20.4099 N   0  0  0  0  0  0  0  0  0  0  0  0
  -27.9267  -25.5570   20.2270 N   0  0  0  0  0  0  0  0  0  0  0  0
  -27.8400  -18.6511   19.7925 N   0  0  0  0  0  0  0  0  0  0  0  0
  -22.8580  -17.3420   21.0085 N   0  0  0  0  0  0  0  0  0  0  0  0
  -22.0965  -12.9818   21.9058 N   0  0  0  0  0  0  0  0  0  0  0  0
  -28.6551  -19.1652   21.9451 N   0  0  0  0  0  0  0  0  0  0  0  0
  -26.0614  -28.2932   21.5551 N   0  0  0  0  0  0  0  0  0  0  0  0
  -29.6273  -24.6178   17.4549 N   0  0  0  0  0  0  0  0  0  0  0  0
  -32.5988  -22.6437   18.0385 N   0  3  0  0  0  0  0  0  0  0  0  0
  -21.1668  -15.0779   21.9307 O   0  0  0  0  0  0  0  0  0  0  0  0
  -25.4648  -26.1032   21.0349 O   0  0  0  0  0  0  0  0  0  0  0  0
  -28.6721  -27.0604   18.6082 O   0  0  0  0  0  0  0  0  0  0  0  0
  -29.8025  -22.4623   18.2918 O   0  0  0  0  0  0  0  0  0  0  0  0
  -29.1428  -20.5300   20.1337 O   0  0  0  0  0  0  0  0  0  0  0  0
  -25.6981   -8.7933   21.1848 O   0  0  0  0  0  0  0  0  0  0  0  0
  -26.7037  -20.9713   24.1676 O   0  0  0  0  0  0  0  0  0  1  0  0
  -21.8574   -5.2671   19.3906 F   0  0  0  0  0  0  0  0  0  0  0  0
  -26.2487   -7.0162   19.1399 F   0  0  0  0  0  0  0  0  0  0  0  0
  -33.1223  -20.2473   25.6882 Cl  0  0  0  0  0  0  0  0  0  0  0  0
  1  2  1  0  0  0  0
  1  5  2  0  0  0  0
  2  6  2  0  0  0  0
  3  9  2  0  0  0  0
  3 18  1  0  0  0  0
  4 10  1  0  0  0  0
  4 18  2  0  0  0  0
  5 21  1  0  0  0  0
  6 23  1  0  0  0  0
  7 11  2  0  0  0  0
  7 22  1  0  0  0  0
  8 14  2  0  0  0  0
  8 25  1  0  0  0  0
  9 26  1  0  0  0  0
 10 26  2  0  0  0  0
 11 27  1  0  0  0  0
 12 13  2  0  0  0  0
 12 28  1  0  0  0  0
 13 29  1  0  0  0  0
 14 31  1  0  0  0  0
 15 19  1  0  0  0  0
 15 31  2  0  0  0  0
 16 24  1  0  0  0  0
 16 27  2  0  0  0  0
 17 29  2  0  0  0  0
 17 30  1  0  0  0  0
 18 32  1  0  0  0  0
 19 25  2  0  0  0  0
 19 34  1  0  0  0  0
 20 32  1  0  0  0  0
 20 33  2  0  0  0  0
 20 35  1  0  0  0  0
 21 23  2  0  0  0  0
 21 41  1  0  0  0  0
 22 24  2  0  0  0  0
 22 42  1  0  0  0  0
 23 50  1  0  0  0  0
 24 43  1  0  0  0  0
 25 70  1  0  0  0  0
 26 79  1  0  0  0  0
 27 80  1  0  0  0  0
 28 30  2  0  0  0  0
 28 79  1  0  0  0  0
 29 81  1  0  0  0  0
 30 82  1  0  0  0  0
 31 83  1  0  0  0  0
 32 64  2  0  0  0  0
 33 65  1  0  0  0  0
 33 68  1  0  0  0  0
 34 36  2  0  0  0  0
 34 53  1  0  0  0  0
 35 69  1  0  0  0  0
 35 74  2  0  0  0  0
 36 54  1  0  0  0  0
 36 60  1  0  0  0  0
 37 51  1  0  0  0  0
 37 71  1  0  0  0  0
 37 75  2  0  0  0  0
 38 61  1  0  0  0  0
 38 66  1  0  0  0  0
 38 76  2  0  0  0  0
 39 62  1  0  0  0  0
 39 72  1  0  0  0  0
 39 77  2  0  0  0  0
 40 67  1  0  0  0  0
 40 70  1  0  0  0  0
 40 78  2  0  0  0  0
 41 44  1  0  0  0  0
 42 51  1  0  0  0  0
 43 66  1  0  0  0  0
 44 46  1  0  0  0  0
 45 47  1  0  0  0  0
 45 48  1  0  0  0  0
 46 50  1  0  0  0  0
 47 52  1  0  0  0  0
 48 67  1  0  0  0  0
 49 52  1  0  0  0  0
 49 67  1  0  0  0  0
 50 71  1  0  0  0  0
 51 66  1  0  0  0  0
 52 65  1  0  0  0  0
 55 62  1  0  0  0  0
 56 63  1  0  0  0  0
 57 63  1  0  0  0  0
 58 63  1  0  0  0  0
 59 73  1  0  0  0  0
 60 80  1  0  0  0  0
 61 63  1  0  0  0  0
 61 72  1  0  0  0  0
 62 73  1  0  0  0  0
 64 65  1  0  0  0  0
M  CHG  1  73   1
M  ISO  4  40 100  60 101  70 100  80 101
M  END
> <Batch ID>
0046

> <Smiles>
CNC(C)C(=O)NC(C(=O)N1Cc2cc([101O:1][101CH2:1]C(C)=C(C)c3cc(Cl)ccc3[100NH:0][100C:0](=O)N3CCCC(n4nc(-c5ccc(Oc6ccc(F)cc6F)cc5)c(C(N)=O)c4N)C3)ccc2CC1C(=O)NC1CCCc2ccccc21)C(C)(C)C

> <Shape>
0.187

> <Color>
0.086

> <Negative vol penalty>
0.000

$$$$

  -OEChem-04042322233D

 87 96  0     1  0  0  0  0  0999 V2000
  -16.6365  -29.7932   23.8180 C   0  0  0  0  0  0  0  0  0  0  0  0
  -17.0452  -28.4848   24.0560 C   0  0  0  0  0  0  0  0  0  0  0  0
  -22.6627  -10.2019   20.2047 C   0  0  0  0  0  0  0  0  0  0  0  0
  -24.3138   -9.4578   21.8039 C   0  0  0  0  0  0  0  0  0  0  0  0
  -17.4577  -30.6584   23.0962 C   0  0  0  0  0  0  0  0  0  0  0  0
  -18.2749  -28.0406   23.5713 C   0  0  0  0  0  0  0  0  0  0  0  0
  -23.6369  -23.5793   25.2029 C   0  0  0  0  0  0  0  0  0  0  0  0
  -32.7257  -17.3595   23.4843 C   0  0  0  0  0  0  0  0  0  0  0  0
  -32.0992  -16.5243   22.5593 C   0  0  0  0  0  0  0  0  0  0  0  0
  -21.9308   -9.0336   20.4167 C   0  0  0  0  0  0  0  0  0  0  0  0
  -23.5819   -8.2895   22.0159 C   0  0  0  0  0  0  0  0  0  0  0  0
  -24.3785  -22.5379   24.6468 C   0  0  0  0  0  0  0  0  0  0  0  0
  -20.8332   -7.3534   23.7448 C   0  0  0  0  0  0  0  0  0  0  0  0
  -20.6468   -6.9375   25.0631 C   0  0  0  0  0  0  0  0  0  0  0  0
  -25.7491  -24.1444   23.4807 C   0  0  0  0  0  0  0  0  0  0  0  0
  -21.7767   -4.8603   24.5675 C   0  0  0  0  0  0  0  0  0  0  0  0
  -23.8543  -10.4140   20.8983 C   0  0  0  0  0  0  0  0  0  0  0  0
  -24.1812  -12.9440   20.8917 C   0  0  0  0  0  0  0  0  0  0  0  0
  -18.7024  -30.2274   22.6107 C   0  0  0  0  0  0  0  0  0  0  0  0
  -23.9394  -24.9131   24.8929 C   0  0  0  0  0  0  0  0  0  0  0  0
  -19.1129  -28.9005   22.8412 C   0  0  0  0  0  0  0  0  0  0  0  0
  -25.0114  -25.2010   24.0361 C   0  0  0  0  0  0  0  0  0  0  0  0
  -31.9615  -18.1922   24.3019 C   0  0  0  0  0  0  0  0  0  0  0  0
  -30.5708  -18.1897   24.1943 C   0  0  0  0  0  0  0  0  0  0  0  0
  -29.9443  -17.3546   23.2693 C   0  0  0  0  0  0  0  0  0  0  0  0
  -30.7085  -16.5219   22.4518 C   0  0  0  0  0  0  0  0  0  0  0  0
  -22.3904   -8.0774   21.3223 C   0  0  0  0  0  0  0  0  0  0  0  0
  -25.4329  -22.8202   23.7833 C   0  0  0  0  0  0  0  0  0  0  0  0
  -21.4913   -6.5227   22.8378 C   0  0  0  0  0  0  0  0  0  0  0  0
  -21.1185   -5.6910   25.4745 C   0  0  0  0  0  0  0  0  0  0  0  0
  -21.9630   -5.2762   23.2492 C   0  0  0  0  0  0  0  0  0  0  0  0
  -24.6111  -11.6204   20.6793 C   0  0  0  0  0  0  0  0  0  0  0  0
  -25.2604  -13.7165   20.5381 C   0  0  0  0  0  0  0  0  0  0  0  0
  -27.8669  -20.4959   24.2779 C   0  0  0  0  0  0  0  0  0  0  0  0
  -22.9192  -13.4316   21.3664 C   0  0  0  0  0  0  0  0  0  0  0  0
  -22.3795  -27.2981   23.4851 C   0  0  0  0  0  0  0  0  0  0  0  0
  -24.9871  -29.0107   24.3738 C   0  0  0  0  0  0  0  0  0  0  0  0
  -28.5612  -28.5226   24.4392 C   0  0  0  0  0  0  0  0  0  0  0  0
  -30.7243  -14.7846   20.6276 C   0  0  0  0  0  0  0  0  0  0  0  0
  -19.5345  -31.1849   21.7951 C   0  0  0  0  0  0  0  0  0  0  0  0
  -23.1469  -26.0259   25.5219 C   0  0  0  0  0  0  0  0  0  0  0  0
  -25.3897  -26.6166   23.6873 C   0  0  0  0  0  0  0  0  0  0  0  0
  -20.9884  -30.7469   21.6379 C   0  0  0  0  0  0  0  0  0  0  0  0
  -29.8461  -21.7249   22.4631 C   0  0  0  0  0  0  0  0  0  0  0  0
  -29.5623  -12.4809   18.1740 C   0  0  0  0  0  0  0  0  0  0  0  0
  -21.0634  -29.2713   21.2588 C   0  0  0  0  0  0  0  0  0  0  0  0
  -28.3405  -21.8255   22.2255 C   0  0  0  0  0  0  0  0  0  0  0  0
  -28.1352  -12.1606   18.6245 C   0  0  0  0  0  0  0  0  0  0  0  0
  -30.2013  -21.2158   23.8573 C   0  0  0  0  0  0  0  0  0  0  0  0
  -30.5061  -12.6570   19.3622 C   0  0  0  0  0  0  0  0  0  0  0  0
  -28.6309  -13.3030   20.8236 C   0  0  0  0  0  0  0  0  0  0  0  0
  -20.4508  -28.3888   22.3531 C   0  0  1  0  0  0  0  0  0  0  0  0
  -27.5452  -21.7791   23.5239 C   0  0  1  0  0  0  0  0  0  1  0  0
  -23.2167  -27.3295   24.7324 C   0  0  1  0  0  0  0  0  0  0  0  0
  -27.6297  -13.1809   19.6633 C   0  0  2  0  0  0  0  0  0  0  0  0
  -32.6575  -19.0765   25.2839 C   0  0  0  0  0  0  0  0  0  0  0  0
  -28.4517  -17.3535   23.1557 C   0  0  0  0  0  0  0  0  0  0  0  0
  -30.3203  -29.5406   25.9112 C   0  0  0  0  0  0  0  0  0  0  0  0
  -25.2800  -31.0488   22.1221 C   0  0  0  0  0  0  0  0  0  0  0  0
  -27.7515  -31.0317   22.5222 C   0  0  0  0  0  0  0  0  0  0  0  0
  -26.2030  -31.7887   24.3255 C   0  0  0  0  0  0  0  0  0  0  0  0
  -29.5542  -25.8665   25.2866 C   0  0  0  0  0  0  0  0  0  0  0  0
  -29.7509  -19.0870   25.0757 C   0  0  0  0  0  0  0  0  0  0  0  0
  -26.3212  -29.3311   23.7442 C   0  0  1  0  0  0  0  0  0  0  0  0
  -29.4300  -28.3316   25.6694 C   0  0  2  0  0  0  0  0  0  0  0  0
  -26.3751  -30.7759   23.1725 C   0  0  0  0  0  0  0  0  0  0  0  0
  -25.8655  -11.5522   20.2257 N   0  0  0  0  0  0  0  0  0  0  0  0
  -26.2331  -12.8427   20.1501 N   0  0  0  0  0  0  0  0  0  0  0  0
  -29.2386  -20.2389   24.3529 N   0  0  0  0  0  0  0  0  0  0  0  0
  -24.5807  -27.6698   24.3227 N   0  0  0  0  0  0  0  0  0  0  0  0
  -29.9644  -13.6412   20.3019 N   0  0  0  0  0  0  0  0  0  0  0  0
  -25.4627  -15.0511   20.5242 N   0  0  0  0  0  0  0  0  0  0  0  0
  -21.9203  -12.5013   21.6844 N   0  0  0  0  0  0  0  0  0  0  0  0
  -30.0933  -15.6654   21.5054 N   0  0  0  0  0  0  0  0  0  0  0  0
  -21.3720  -28.2435   23.4598 N   0  0  0  0  0  0  0  0  0  0  0  0
  -27.3297  -29.0528   24.7610 N   0  0  0  0  0  0  0  0  0  0  0  0
  -30.2998  -27.1322   25.5081 N   0  3  0  0  0  0  0  0  0  0  0  0
  -26.9879  -19.7890   24.7676 O   0  0  0  0  0  0  0  0  0  0  0  0
  -22.6787  -14.6566   21.4888 O   0  0  0  0  0  0  0  0  0  0  0  0
  -22.6301  -26.4779   22.6097 O   0  0  0  0  0  0  0  0  0  0  0  0
  -24.3330  -29.9156   24.8982 O   0  0  0  0  0  0  0  0  0  0  0  0
  -28.9388  -28.2340   23.3058 O   0  0  0  0  0  0  0  0  0  0  0  0
  -31.8405  -14.9822   20.1408 O   0  0  0  0  0  0  0  0  0  0  0  0
  -21.6763   -6.9374   21.5296 O   0  0  0  0  0  0  0  0  0  0  0  0
  -26.1580  -21.8055   23.2387 O   0  0  0  0  0  0  0  0  0  1  0  0
  -20.9408   -5.2924   26.7408 F   0  0  0  0  0  0  0  0  0  0  0  0
  -22.5971   -4.4743   22.3828 F   0  0  0  0  0  0  0  0  0  0  0  0
  1  2  1  0  0  0  0
  1  5  2  0  0  0  0
  2  6  2  0  0  0  0
  3 10  2  0  0  0  0
  3 17  1  0  0  0  0
  4 11  1  0  0  0  0
  4 17  2  0  0  0  0
  5 19  1  0  0  0  0
  6 21  1  0  0  0  0
  7 12  2  0  0  0  0
  7 20  1  0  0  0  0
  8  9  1  0  0  0  0
  8 23  2  0  0  0  0
  9 26  2  0  0  0  0
 10 27  1  0  0  0  0
 11 27  2  0  0  0  0
 12 28  1  0  0  0  0
 13 14  2  0  0  0  0
 13 29  1  0  0  0  0
 14 30  1  0  0  0  0
 15 22  1  0  0  0  0
 15 28  2  0  0  0  0
 16 30  2  0  0  0  0
 16 31  1  0  0  0  0
 17 32  1  0  0  0  0
 18 32  1  0  0  0  0
 18 33  2  0  0  0  0
 18 35  1  0  0  0  0
 19 21  2  0  0  0  0
 19 40  1  0  0  0  0
 20 22  2  0  0  0  0
 20 41  1  0  0  0  0
 21 52  1  0  0  0  0
 22 42  1  0  0  0  0
 23 24  1  0  0  0  0
 23 56  1  0  0  0  0
 24 25  2  0  0  0  0
 24 63  1  0  0  0  0
 25 26  1  0  0  0  0
 25 57  1  0  0  0  0
 26 74  1  0  0  0  0
 27 84  1  0  0  0  0
 28 85  1  0  0  0  0
 29 31  2  0  0  0  0
 29 84  1  0  0  0  0
 30 86  1  0  0  0  0
 31 87  1  0  0  0  0
 32 67  2  0  0  0  0
 33 68  1  0  0  0  0
 33 72  1  0  0  0  0
 34 53  1  0  0  0  0
 34 69  1  0  0  0  0
 34 78  2  0  0  0  0
 35 73  1  0  0  0  0
 35 79  2  0  0  0  0
 36 54  1  0  0  0  0
 36 75  1  0  0  0  0
 36 80  2  0  0  0  0
 37 64  1  0  0  0  0
 37 70  1  0  0  0  0
 37 81  2  0  0  0  0
 38 65  1  0  0  0  0
 38 76  1  0  0  0  0
 38 82  2  0  0  0  0
 39 71  1  0  0  0  0
 39 74  1  0  0  0  0
 39 83  2  0  0  0  0
 40 43  1  0  0  0  0
 41 54  1  0  0  0  0
 42 70  1  0  0  0  0
 43 46  1  0  0  0  0
 44 47  1  0  0  0  0
 44 49  1  0  0  0  0
 45 48  1  0  0  0  0
 45 50  1  0  0  0  0
 46 52  1  0  0  0  0
 47 53  1  0  0  0  0
 48 55  1  0  0  0  0
 49 69  1  0  0  0  0
 50 71  1  0  0  0  0
 51 55  1  0  0  0  0
 51 71  1  0  0  0  0
 52 75  1  0  0  0  0
 53 85  1  0  0  0  0
 54 70  1  0  0  0  0
 55 68  1  0  0  0  0
 58 65  1  0  0  0  0
 59 66  1  0  0  0  0
 60 66  1  0  0  0  0
 61 66  1  0  0  0  0
 62 77  1  0  0  0  0
 63 69  1  0  0  0  0
 64 66  1  0  0  0  0
 64 76  1  0  0  0  0
 65 77  1  0  0  0  0
 67 68  1  0  0  0  0
M  CHG  1  77   1
M  ISO  4  39 100  53 101  74 100  85 101
M  END
> <Batch ID>
0046

> <Smiles>
CNC(C)C(=O)NC(C(=O)N1Cc2cc([101O:1][101CH:1]3CCCN(Cc4c(C)ccc([100NH:0][100C:0](=O)N5CCCC(n6nc(-c7ccc(Oc8ccc(F)cc8F)cc7)c(C(N)=O)c6N)C5)c4C)C3=O)ccc2CC1C(=O)NC1CCCc2ccccc21)C(C)(C)C

> <Shape>
0.305

> <Color>
0.225

> <Negative vol penalty>
0.000

$$$$

  -OEChem-04042322233D

 88 97  0     1  0  0  0  0  0999 V2000
  -31.9454  -14.2496   20.7145 C   0  0  0  0  0  0  0  0  0  0  0  0
  -31.3547  -15.3879   20.1754 C   0  0  0  0  0  0  0  0  0  0  0  0
  -20.3430  -27.1286   23.5711 C   0  0  0  0  0  0  0  0  0  0  0  0
  -19.3150  -28.2800   21.7124 C   0  0  0  0  0  0  0  0  0  0  0  0
  -31.2441  -13.0447   20.7349 C   0  0  0  0  0  0  0  0  0  0  0  0
  -30.0625  -15.3217   19.6554 C   0  0  0  0  0  0  0  0  0  0  0  0
  -27.1794  -19.2211   21.1141 C   0  0  0  0  0  0  0  0  0  0  0  0
  -19.2528  -26.2610   23.6367 C   0  0  0  0  0  0  0  0  0  0  0  0
  -18.2247  -27.4124   21.7780 C   0  0  0  0  0  0  0  0  0  0  0  0
  -27.3731  -20.4363   20.4589 C   0  0  0  0  0  0  0  0  0  0  0  0
  -17.4912  -24.2589   20.8095 C   0  0  0  0  0  0  0  0  0  0  0  0
  -17.0132  -23.7295   19.6108 C   0  0  0  0  0  0  0  0  0  0  0  0
  -25.4384  -19.9978   19.0864 C   0  0  0  0  0  0  0  0  0  0  0  0
  -29.9528  -28.0244   23.1933 C   0  0  0  0  0  0  0  0  0  0  0  0
  -14.8594  -24.7442   20.0217 C   0  0  0  0  0  0  0  0  0  0  0  0
  -30.1202  -25.6754   23.7329 C   0  0  0  0  0  0  0  0  0  0  0  0
  -20.3741  -28.1381   22.6090 C   0  0  0  0  0  0  0  0  0  0  0  0
  -21.9592  -29.9006   23.5517 C   0  0  0  0  0  0  0  0  0  0  0  0
  -29.9391  -12.9661   20.2237 C   0  0  0  0  0  0  0  0  0  0  0  0
  -26.1183  -18.3786   20.7524 C   0  0  0  0  0  0  0  0  0  0  0  0
  -29.3436  -14.1144   19.6678 C   0  0  0  0  0  0  0  0  0  0  0  0
  -25.2319  -18.7735   19.7403 C   0  0  0  0  0  0  0  0  0  0  0  0
  -29.6194  -27.6987   21.8787 C   0  0  0  0  0  0  0  0  0  0  0  0
  -29.5363  -26.3614   21.4911 C   0  0  0  0  0  0  0  0  0  0  0  0
  -18.1936  -26.4029   22.7401 C   0  0  0  0  0  0  0  0  0  0  0  0
  -26.5043  -20.8235   19.4428 C   0  0  0  0  0  0  0  0  0  0  0  0
  -16.6534  -25.0309   21.6143 C   0  0  0  0  0  0  0  0  0  0  0  0
  -15.6973  -23.9722   19.2169 C   0  0  0  0  0  0  0  0  0  0  0  0
  -15.3375  -25.2736   21.2204 C   0  0  0  0  0  0  0  0  0  0  0  0
  -29.7867  -25.3497   22.4182 C   0  0  0  0  0  0  0  0  0  0  0  0
  -30.2033  -27.0128   24.1205 C   0  0  0  0  0  0  0  0  0  0  0  0
  -21.4998  -29.0349   22.5410 C   0  0  0  0  0  0  0  0  0  0  0  0
  -23.0460  -30.5306   22.9963 C   0  0  0  0  0  0  0  0  0  0  0  0
  -28.0017  -23.8771   19.5144 C   0  0  0  0  0  0  0  0  0  0  0  0
  -21.4493  -30.1158   24.8743 C   0  0  0  0  0  0  0  0  0  0  0  0
  -25.8925  -15.4318   19.5822 C   0  0  0  0  0  0  0  0  0  0  0  0
  -22.7182  -15.9076   20.0514 C   0  0  0  0  0  0  0  0  0  0  0  0
  -20.3598  -18.5961   19.5748 C   0  0  0  0  0  0  0  0  0  0  0  0
  -27.4802  -29.4781   19.4264 C   0  0  0  0  0  0  0  0  0  0  0  0
  -29.2383  -11.6305   20.2248 C   0  0  0  0  0  0  0  0  0  0  0  0
  -25.9073  -17.0832   21.4871 C   0  0  0  0  0  0  0  0  0  0  0  0
  -24.0654  -17.9145   19.3281 C   0  0  0  0  0  0  0  0  0  0  0  0
  -27.7328  -11.7325   19.9942 C   0  0  0  0  0  0  0  0  0  0  0  0
  -25.5152  -25.4371   19.8379 C   0  0  0  0  0  0  0  0  0  0  0  0
  -24.6260  -31.3320   18.3807 C   0  0  0  0  0  0  0  0  0  0  0  0
  -27.4336  -12.6683   18.8273 C   0  0  0  0  0  0  0  0  0  0  0  0
  -25.5623  -24.1167   19.0711 C   0  0  0  0  0  0  0  0  0  0  0  0
  -23.5716  -31.0091   19.4409 C   0  0  0  0  0  0  0  0  0  0  0  0
  -26.7724  -25.6976   20.6628 C   0  0  0  0  0  0  0  0  0  0  0  0
  -25.5071  -30.1229   18.0745 C   0  0  0  0  0  0  0  0  0  0  0  0
  -25.0882  -29.1823   20.3136 C   0  0  0  0  0  0  0  0  0  0  0  0
  -27.9344  -14.0885   19.1167 C   0  0  1  0  0  0  0  0  0  0  0  0
  -26.6482  -23.1836   19.5915 C   0  0  1  0  0  0  0  0  0  1  0  0
  -25.0972  -16.0677   20.6872 C   0  0  1  0  0  0  0  0  0  0  0  0
  -24.2113  -30.3867   20.6966 C   0  0  2  0  0  0  0  0  0  0  0  0
  -18.2037  -19.1033   20.7545 C   0  0  0  0  0  0  0  0  0  0  0  0
  -21.4362  -14.3428   17.7672 C   0  0  0  0  0  0  0  0  0  0  0  0
  -19.5534  -15.9929   17.7861 C   0  0  0  0  0  0  0  0  0  0  0  0
  -19.9990  -14.5884   19.7990 C   0  0  0  0  0  0  0  0  0  0  0  0
  -21.2535  -21.3281   20.2794 C   0  0  0  0  0  0  0  0  0  0  0  0
  -29.1798  -25.9894   20.0809 C   0  0  0  0  0  0  0  0  0  0  0  0
  -29.3549  -28.7987   20.9039 C   0  0  0  0  0  0  0  0  0  0  0  0
  -21.5876  -16.4692   19.2236 C   0  0  1  0  0  0  0  0  0  0  0  0
  -19.6884  -19.4190   20.6595 C   0  0  2  0  0  0  0  0  0  0  0  0
  -20.6709  -15.3570   18.6404 C   0  0  0  0  0  0  0  0  0  0  0  0
  -22.2345  -29.1061   21.4279 N   0  0  0  0  0  0  0  0  0  0  0  0
  -23.1665  -30.0240   21.7357 N   0  0  0  0  0  0  0  0  0  0  0  0
  -27.9746  -25.1796   20.0202 N   0  0  0  0  0  0  0  0  0  0  0  0
  -23.9048  -16.6542   20.0721 N   0  0  0  0  0  0  0  0  0  0  0  0
  -26.0844  -29.5812   19.3071 N   0  0  0  0  0  0  0  0  0  0  0  0
  -23.9007  -31.4629   23.4681 N   0  0  0  0  0  0  0  0  0  0  0  0
  -20.3257  -29.3853   25.2843 N   0  0  0  0  0  0  0  0  0  0  0  0
  -27.0270  -14.7714   20.0137 N   0  0  0  0  0  0  0  0  0  0  0  0
  -20.8944  -17.4284   20.0768 N   0  0  0  0  0  0  0  0  0  0  0  0
  -27.9445  -28.9602   20.6293 N   0  0  0  0  0  0  0  0  0  0  0  0
  -19.8423  -20.8739   20.3760 N   0  3  0  0  0  0  0  0  0  0  0  0
  -28.9972  -23.3162   19.0599 O   0  0  0  0  0  0  0  0  0  0  0  0
  -21.9646  -30.9438   25.6633 O   0  0  0  0  0  0  0  0  0  0  0  0
  -25.5047  -15.5317   18.4240 O   0  0  0  0  0  0  0  0  0  0  0  0
  -22.5523  -14.8493   20.6629 O   0  0  0  0  0  0  0  0  0  0  0  0
  -20.4022  -18.9517   18.3991 O   0  0  0  0  0  0  0  0  0  0  0  0
  -28.2554  -29.8269   18.5295 O   0  0  0  0  0  0  0  0  0  0  0  0
  -17.1297  -25.5564   22.8037 O   0  0  0  0  0  0  0  0  0  0  0  0
  -26.6914  -22.0089   18.8012 O   0  0  0  0  0  0  0  0  0  1  0  0
  -15.2388  -23.4651   18.0650 F   0  0  0  0  0  0  0  0  0  0  0  0
  -14.5282  -26.0154   21.9889 F   0  0  0  0  0  0  0  0  0  0  0  0
  -29.7093  -24.0614   22.0558 F   0  0  0  0  0  0  0  0  0  0  0  0
  -30.6140  -27.4145   25.7424 Cl  0  0  0  0  0  0  0  0  0  0  0  0
  1  2  1  0  0  0  0
  1  5  2  0  0  0  0
  2  6  2  0  0  0  0
  3  8  2  0  0  0  0
  3 17  1  0  0  0  0
  4  9  1  0  0  0  0
  4 17  2  0  0  0  0
  5 19  1  0  0  0  0
  6 21  1  0  0  0  0
  7 10  2  0  0  0  0
  7 20  1  0  0  0  0
  8 25  1  0  0  0  0
  9 25  2  0  0  0  0
 10 26  1  0  0  0  0
 11 12  2  0  0  0  0
 11 27  1  0  0  0  0
 12 28  1  0  0  0  0
 13 22  1  0  0  0  0
 13 26  2  0  0  0  0
 14 23  1  0  0  0  0
 14 31  2  0  0  0  0
 15 28  2  0  0  0  0
 15 29  1  0  0  0  0
 16 30  2  0  0  0  0
 16 31  1  0  0  0  0
 17 32  1  0  0  0  0
 18 32  1  0  0  0  0
 18 33  2  0  0  0  0
 18 35  1  0  0  0  0
 19 21  2  0  0  0  0
 19 40  1  0  0  0  0
 20 22  2  0  0  0  0
 20 41  1  0  0  0  0
 21 52  1  0  0  0  0
 22 42  1  0  0  0  0
 23 24  2  0  0  0  0
 23 62  1  0  0  0  0
 24 30  1  0  0  0  0
 24 61  1  0  0  0  0
 25 83  1  0  0  0  0
 26 84  1  0  0  0  0
 27 29  2  0  0  0  0
 27 83  1  0  0  0  0
 28 85  1  0  0  0  0
 29 86  1  0  0  0  0
 30 87  1  0  0  0  0
 31 88  1  0  0  0  0
 32 66  2  0  0  0  0
 33 67  1  0  0  0  0
 33 71  1  0  0  0  0
 34 53  1  0  0  0  0
 34 68  1  0  0  0  0
 34 77  2  0  0  0  0
 35 72  1  0  0  0  0
 35 78  2  0  0  0  0
 36 54  1  0  0  0  0
 36 73  1  0  0  0  0
 36 79  2  0  0  0  0
 37 63  1  0  0  0  0
 37 69  1  0  0  0  0
 37 80  2  0  0  0  0
 38 64  1  0  0  0  0
 38 74  1  0  0  0  0
 38 81  2  0  0  0  0
 39 70  1  0  0  0  0
 39 75  1  0  0  0  0
 39 82  2  0  0  0  0
 40 43  1  0  0  0  0
 41 54  1  0  0  0  0
 42 69  1  0  0  0  0
 43 46  1  0  0  0  0
 44 47  1  0  0  0  0
 44 49  1  0  0  0  0
 45 48  1  0  0  0  0
 45 50  1  0  0  0  0
 46 52  1  0  0  0  0
 47 53  1  0  0  0  0
 48 55  1  0  0  0  0
 49 68  1  0  0  0  0
 50 70  1  0  0  0  0
 51 55  1  0  0  0  0
 51 70  1  0  0  0  0
 52 73  1  0  0  0  0
 53 84  1  0  0  0  0
 54 69  1  0  0  0  0
 55 67  1  0  0  0  0
 56 64  1  0  0  0  0
 57 65  1  0  0  0  0
 58 65  1  0  0  0  0
 59 65  1  0  0  0  0
 60 76  1  0  0  0  0
 61 68  1  0  0  0  0
 62 75  1  0  0  0  0
 63 65  1  0  0  0  0
 63 74  1  0  0  0  0
 64 76  1  0  0  0  0
 66 67  1  0  0  0  0
M  CHG  1  76   1
M  ISO  4  39 100  53 101  75 100  84 101
M  END
> <Batch ID>
0046

> <Smiles>
CNC(C)C(=O)NC(C(=O)N1Cc2cc([101O:1][101CH:1]3CCCN(Cc4c(F)cc(Cl)cc4C[100NH:0][100C:0](=O)N4CCCC(n5nc(-c6ccc(Oc7ccc(F)cc7F)cc6)c(C(N)=O)c5N)C4)C3=O)ccc2CC1C(=O)NC1CCCc2ccccc21)C(C)(C)C

> <Shape>
0.211

> <Color>
0.079

> <Negative vol penalty>
0.000

$$$$

  -OEChem-04042322233D

 85 93  0     1  0  0  0  0  0999 V2000
  -31.3633  -22.7377   20.5533 C   0  0  0  0  0  0  0  0  0  0  0  0
  -30.2013  -23.3358   20.0766 C   0  0  0  0  0  0  0  0  0  0  0  0
  -25.3478  -12.8770   21.6172 C   0  0  0  0  0  0  0  0  0  0  0  0
  -25.6083  -12.7581   19.2182 C   0  0  0  0  0  0  0  0  0  0  0  0
  -31.5884  -22.6508   21.9265 C   0  0  0  0  0  0  0  0  0  0  0  0
  -29.2630  -23.8465   20.9729 C   0  0  0  0  0  0  0  0  0  0  0  0
  -27.5661  -28.4200   19.6135 C   0  0  0  0  0  0  0  0  0  0  0  0
  -24.3402  -11.9145   21.5555 C   0  0  0  0  0  0  0  0  0  0  0  0
  -24.6007  -11.7955   19.1565 C   0  0  0  0  0  0  0  0  0  0  0  0
  -26.6120  -28.4692   18.5980 C   0  0  0  0  0  0  0  0  0  0  0  0
  -24.1206   -8.5545   21.2470 C   0  0  0  0  0  0  0  0  0  0  0  0
  -24.1559   -7.5184   22.1802 C   0  0  0  0  0  0  0  0  0  0  0  0
  -23.7042  -23.5297   15.1973 C   0  0  0  0  0  0  0  0  0  0  0  0
  -24.8741  -28.7238   20.2514 C   0  0  0  0  0  0  0  0  0  0  0  0
  -25.7665  -22.2758   15.3069 C   0  0  0  0  0  0  0  0  0  0  0  0
  -21.9850   -8.1862   23.0038 C   0  0  0  0  0  0  0  0  0  0  0  0
  -25.9818  -13.2989   20.4485 C   0  0  0  0  0  0  0  0  0  0  0  0
  -24.0484  -24.1985   16.3719 C   0  0  0  0  0  0  0  0  0  0  0  0
  -28.4030  -14.0706   20.6723 C   0  0  0  0  0  0  0  0  0  0  0  0
  -30.6570  -23.1693   22.8399 C   0  0  0  0  0  0  0  0  0  0  0  0
  -27.1795  -28.5115   20.9583 C   0  0  0  0  0  0  0  0  0  0  0  0
  -29.4752  -23.7652   22.3596 C   0  0  0  0  0  0  0  0  0  0  0  0
  -25.8254  -28.6780   21.2820 C   0  0  0  0  0  0  0  0  0  0  0  0
  -24.5632  -22.5682   14.6648 C   0  0  0  0  0  0  0  0  0  0  0  0
  -26.1107  -22.9448   16.4815 C   0  0  0  0  0  0  0  0  0  0  0  0
  -25.2517  -23.9061   17.0140 C   0  0  0  0  0  0  0  0  0  0  0  0
  -23.9667  -11.3737   20.3252 C   0  0  0  0  0  0  0  0  0  0  0  0
  -25.2655  -28.6182   18.9170 C   0  0  0  0  0  0  0  0  0  0  0  0
  -23.0176   -9.4065   21.1923 C   0  0  0  0  0  0  0  0  0  0  0  0
  -23.0881   -7.3342   23.0586 C   0  0  0  0  0  0  0  0  0  0  0  0
  -21.9498   -9.2223   22.0706 C   0  0  0  0  0  0  0  0  0  0  0  0
  -27.0223  -14.2936   20.5115 C   0  0  0  0  0  0  0  0  0  0  0  0
  -28.9565  -15.3276   20.6693 C   0  0  0  0  0  0  0  0  0  0  0  0
  -23.1236  -25.2122   16.9175 C   0  0  0  0  0  0  0  0  0  0  0  0
  -29.1210  -12.8374   20.8119 C   0  0  0  0  0  0  0  0  0  0  0  0
  -27.3853  -26.5962   23.4867 C   0  0  0  0  0  0  0  0  0  0  0  0
  -26.2117  -29.1828   25.0535 C   0  0  0  0  0  0  0  0  0  0  0  0
  -24.4495  -32.1020   24.9126 C   0  0  0  0  0  0  0  0  0  0  0  0
  -27.1568  -20.4120   18.2681 C   0  0  0  0  0  0  0  0  0  0  0  0
  -30.9218  -23.0097   24.3161 C   0  0  0  0  0  0  0  0  0  0  0  0
  -28.2236  -28.4836   22.0407 C   0  0  0  0  0  0  0  0  0  0  0  0
  -25.3605  -28.8013   22.7093 C   0  0  0  0  0  0  0  0  0  0  0  0
  -30.0541  -23.9104   25.1914 C   0  0  0  0  0  0  0  0  0  0  0  0
  -27.9317  -19.8733   21.7620 C   0  0  0  0  0  0  0  0  0  0  0  0
  -28.5980  -23.8505   24.7406 C   0  0  0  0  0  0  0  0  0  0  0  0
  -27.9158  -18.3459   21.8450 C   0  0  0  0  0  0  0  0  0  0  0  0
  -26.8492  -20.3868   20.8171 C   0  0  0  0  0  0  0  0  0  0  0  0
  -26.8951  -18.2904   19.5223 C   0  0  0  0  0  0  0  0  0  0  0  0
  -28.4454  -24.3530   23.2999 C   0  0  1  0  0  0  0  0  0  0  0  0
  -27.6653  -28.0698   23.3988 C   0  0  1  0  0  0  0  0  0  0  0  0
  -27.9813  -17.7079   20.4447 C   0  0  2  0  0  0  0  0  0  0  0  0
  -24.1959  -21.8523   13.4090 C   0  0  0  0  0  0  0  0  0  0  0  0
  -25.6222  -24.6235   18.2734 C   0  0  0  0  0  0  0  0  0  0  0  0
  -23.6244  -33.9768   26.3623 C   0  0  0  0  0  0  0  0  0  0  0  0
  -24.0149  -27.3684   26.1453 C   0  0  0  0  0  0  0  0  0  0  0  0
  -22.7280  -29.4217   26.7743 C   0  0  0  0  0  0  0  0  0  0  0  0
  -24.9560  -28.9832   27.8070 C   0  0  0  0  0  0  0  0  0  0  0  0
  -26.0030  -34.1133   23.3959 C   0  0  0  0  0  0  0  0  0  0  0  0
  -27.4050  -22.6131   17.1497 C   0  0  0  0  0  0  0  0  0  0  0  0
  -22.4115  -27.5753   16.9905 C   0  0  0  0  0  0  0  0  0  0  0  0
  -23.0304  -28.1709   18.2388 C   0  0  0  0  0  0  0  0  0  1  0  0
  -24.8314  -29.6966   25.3847 C   0  0  1  0  0  0  0  0  0  0  0  0
  -24.7470  -33.4857   25.4616 C   0  0  2  0  0  0  0  0  0  0  0  0
  -24.1408  -28.8633   26.5009 C   0  0  0  0  0  0  0  0  0  0  0  0
  -26.7174  -15.5903   20.4136 N   0  0  0  0  0  0  0  0  0  0  0  0
  -27.9143  -16.1934   20.5133 N   0  0  0  0  0  0  0  0  0  0  0  0
  -26.4187  -28.7620   23.7322 N   0  0  0  0  0  0  0  0  0  0  0  0
  -26.9790  -19.7545   19.4967 N   0  0  0  0  0  0  0  0  0  0  0  0
  -30.2281  -15.7657   20.7849 N   0  0  0  0  0  0  0  0  0  0  0  0
  -22.1909  -24.8113   17.7814 N   0  0  0  0  0  0  0  0  0  0  0  0
  -28.3974  -11.6372   20.7935 N   0  0  0  0  0  0  0  0  0  0  0  0
  -28.4912  -25.7990   23.2615 N   0  0  0  0  0  0  0  0  0  0  0  0
  -24.9885  -31.1111   25.7056 N   0  0  0  0  0  0  0  0  0  0  0  0
  -27.2190  -21.7987   18.3301 N   0  0  0  0  0  0  0  0  0  0  0  0
  -23.2640  -26.4817   16.5177 N   0  3  0  0  0  0  0  0  0  0  0  0
  -24.9156  -34.4601   24.3468 N   0  3  0  0  0  0  0  0  0  0  0  0
  -30.3654  -12.8017   20.9652 O   0  0  0  0  0  0  0  0  0  0  0  0
  -26.2502  -26.2111   23.7416 O   0  0  0  0  0  0  0  0  0  0  0  0
  -27.0765  -29.1624   25.9329 O   0  0  0  0  0  0  0  0  0  0  0  0
  -23.8006  -31.9184   23.8851 O   0  0  0  0  0  0  0  0  0  0  0  0
  -27.2581  -19.8075   17.1951 O   0  0  0  0  0  0  0  0  0  0  0  0
  -22.9837  -10.4342   20.2647 O   0  0  0  0  0  0  0  0  0  0  0  0
  -24.3322  -28.6659   17.9278 O   0  0  0  0  0  0  0  0  0  1  0  0
  -23.1215   -6.3383   23.9536 F   0  0  0  0  0  0  0  0  0  0  0  0
  -20.8868  -10.0369   22.0219 F   0  0  0  0  0  0  0  0  0  0  0  0
  1  2  1  0  0  0  0
  1  5  2  0  0  0  0
  2  6  2  0  0  0  0
  3  8  2  0  0  0  0
  3 17  1  0  0  0  0
  4  9  1  0  0  0  0
  4 17  2  0  0  0  0
  5 20  1  0  0  0  0
  6 22  1  0  0  0  0
  7 10  2  0  0  0  0
  7 21  1  0  0  0  0
  8 27  1  0  0  0  0
  9 27  2  0  0  0  0
 10 28  1  0  0  0  0
 11 12  2  0  0  0  0
 11 29  1  0  0  0  0
 12 30  1  0  0  0  0
 13 18  1  0  0  0  0
 13 24  2  0  0  0  0
 14 23  1  0  0  0  0
 14 28  2  0  0  0  0
 15 24  1  0  0  0  0
 15 25  2  0  0  0  0
 16 30  2  0  0  0  0
 16 31  1  0  0  0  0
 17 32  1  0  0  0  0
 18 26  2  0  0  0  0
 18 34  1  0  0  0  0
 19 32  1  0  0  0  0
 19 33  2  0  0  0  0
 19 35  1  0  0  0  0
 20 22  2  0  0  0  0
 20 40  1  0  0  0  0
 21 23  2  0  0  0  0
 21 41  1  0  0  0  0
 22 49  1  0  0  0  0
 23 42  1  0  0  0  0
 24 52  1  0  0  0  0
 25 26  1  0  0  0  0
 25 59  1  0  0  0  0
 26 53  1  0  0  0  0
 27 82  1  0  0  0  0
 28 83  1  0  0  0  0
 29 31  2  0  0  0  0
 29 82  1  0  0  0  0
 30 84  1  0  0  0  0
 31 85  1  0  0  0  0
 32 65  2  0  0  0  0
 33 66  1  0  0  0  0
 33 69  1  0  0  0  0
 34 70  1  0  0  0  0
 34 75  2  0  0  0  0
 35 71  1  0  0  0  0
 35 77  2  0  0  0  0
 36 50  1  0  0  0  0
 36 72  1  0  0  0  0
 36 78  2  0  0  0  0
 37 62  1  0  0  0  0
 37 67  1  0  0  0  0
 37 79  2  0  0  0  0
 38 63  1  0  0  0  0
 38 73  1  0  0  0  0
 38 80  2  0  0  0  0
 39 68  1  0  0  0  0
 39 74  1  0  0  0  0
 39 81  2  0  0  0  0
 40 43  1  0  0  0  0
 41 50  1  0  0  0  0
 42 67  1  0  0  0  0
 43 45  1  0  0  0  0
 44 46  1  0  0  0  0
 44 47  1  0  0  0  0
 45 49  1  0  0  0  0
 46 51  1  0  0  0  0
 47 68  1  0  0  0  0
 48 51  1  0  0  0  0
 48 68  1  0  0  0  0
 49 72  1  0  0  0  0
 50 67  1  0  0  0  0
 51 66  1  0  0  0  0
 54 63  1  0  0  0  0
 55 64  1  0  0  0  0
 56 64  1  0  0  0  0
 57 64  1  0  0  0  0
 58 76  1  0  0  0  0
 59 74  1  0  0  0  0
 60 61  1  0  0  0  0
 60 75  1  0  0  0  0
 61 83  1  0  0  0  0
 62 64  1  0  0  0  0
 62 73  1  0  0  0  0
 63 76  1  0  0  0  0
 65 66  1  0  0  0  0
M  CHG  2  75   1  76   1
M  ISO  4  39 100  61 101  74 100  83 101
M  END
> <Batch ID>
0046

> <Smiles>
CNC(C)C(=O)NC(C(=O)N1Cc2cc([101O:1][101CH2:1]CNC(=N)c3cc(C)cc(C[100NH:0][100C:0](=O)N4CCCC(n5nc(-c6ccc(Oc7ccc(F)cc7F)cc6)c(C(N)=O)c5N)C4)c3C)ccc2CC1C(=O)NC1CCCc2ccccc21)C(C)(C)C

> <Shape>
0.215

> <Color>
0.062

> <Negative vol penalty>
0.000

$$$$

  -OEChem-04042322233D

 87 96  0     1  0  0  0  0  0999 V2000
  -22.9103   -8.3063   21.9991 C   0  0  0  0  0  0  0  0  0  0  0  0
  -24.1423   -8.9503   21.9457 C   0  0  0  0  0  0  0  0  0  0  0  0
  -19.2070  -28.6509   22.4634 C   0  0  0  0  0  0  0  0  0  0  0  0
  -20.3917  -26.6162   23.0052 C   0  0  0  0  0  0  0  0  0  0  0  0
  -21.8250   -8.8204   21.2908 C   0  0  0  0  0  0  0  0  0  0  0  0
  -24.2900  -10.1082   21.1829 C   0  0  0  0  0  0  0  0  0  0  0  0
  -27.8762  -16.3087   21.0838 C   0  0  0  0  0  0  0  0  0  0  0  0
  -17.9990  -27.9541   22.4877 C   0  0  0  0  0  0  0  0  0  0  0  0
  -19.1836  -25.9193   23.0295 C   0  0  0  0  0  0  0  0  0  0  0  0
  -28.6856  -17.0714   20.2430 C   0  0  0  0  0  0  0  0  0  0  0  0
  -17.0249  -24.5968   20.7885 C   0  0  0  0  0  0  0  0  0  0  0  0
  -16.9765  -23.3612   20.1432 C   0  0  0  0  0  0  0  0  0  0  0  0
  -26.7208  -17.9124   19.1244 C   0  0  0  0  0  0  0  0  0  0  0  0
  -29.0841  -24.4542   21.1339 C   0  0  0  0  0  0  0  0  0  0  0  0
  -28.7042  -23.2815   23.6365 C   0  0  0  0  0  0  0  0  0  0  0  0
  -16.3996  -22.2928   22.2320 C   0  0  0  0  0  0  0  0  0  0  0  0
  -20.4034  -27.9819   22.7221 C   0  0  0  0  0  0  0  0  0  0  0  0
  -22.0189  -29.7954   23.5025 C   0  0  0  0  0  0  0  0  0  0  0  0
  -21.9570   -9.9906   20.5267 C   0  0  0  0  0  0  0  0  0  0  0  0
  -26.4812  -16.3337   20.9437 C   0  0  0  0  0  0  0  0  0  0  0  0
  -23.2058  -10.6376   20.4626 C   0  0  0  0  0  0  0  0  0  0  0  0
  -25.8958  -17.1510   19.9663 C   0  0  0  0  0  0  0  0  0  0  0  0
  -29.7511  -23.2732   21.4591 C   0  0  0  0  0  0  0  0  0  0  0  0
  -28.0372  -24.4626   23.3113 C   0  0  0  0  0  0  0  0  0  0  0  0
  -28.2271  -25.0490   22.0600 C   0  0  0  0  0  0  0  0  0  0  0  0
  -17.9873  -26.5883   22.7707 C   0  0  0  0  0  0  0  0  0  0  0  0
  -28.1081  -17.8713   19.2613 C   0  0  0  0  0  0  0  0  0  0  0  0
  -16.7608  -24.6805   22.1556 C   0  0  0  0  0  0  0  0  0  0  0  0
  -16.6638  -22.2092   20.8649 C   0  0  0  0  0  0  0  0  0  0  0  0
  -29.5612  -22.6868   22.7104 C   0  0  0  0  0  0  0  0  0  0  0  0
  -16.4481  -23.5285   22.8773 C   0  0  0  0  0  0  0  0  0  0  0  0
  -21.6517  -28.7011   22.6967 C   0  0  0  0  0  0  0  0  0  0  0  0
  -23.2912  -30.1118   23.0930 C   0  0  0  0  0  0  0  0  0  0  0  0
  -29.5583  -20.6239   19.5722 C   0  0  0  0  0  0  0  0  0  0  0  0
  -21.2765  -30.4659   24.5296 C   0  0  0  0  0  0  0  0  0  0  0  0
  -24.2580  -14.1728   20.2424 C   0  0  0  0  0  0  0  0  0  0  0  0
  -22.2293  -16.6135   20.9129 C   0  0  0  0  0  0  0  0  0  0  0  0
  -22.0650  -20.1573   20.2559 C   0  0  0  0  0  0  0  0  0  0  0  0
  -27.6528  -26.9490   20.5088 C   0  0  0  0  0  0  0  0  0  0  0  0
  -20.7676  -10.4819   19.7402 C   0  0  0  0  0  0  0  0  0  0  0  0
  -25.6208  -15.5256   21.8760 C   0  0  0  0  0  0  0  0  0  0  0  0
  -24.4022  -17.2288   19.7882 C   0  0  0  0  0  0  0  0  0  0  0  0
  -20.9106  -11.9225   19.2559 C   0  0  0  0  0  0  0  0  0  0  0  0
  -28.8960  -22.0816   17.1179 C   0  0  0  0  0  0  0  0  0  0  0  0
  -26.1452  -29.9197   19.2521 C   0  0  0  0  0  0  0  0  0  0  0  0
  -22.2870  -12.1434   18.6365 C   0  0  0  0  0  0  0  0  0  0  0  0
  -29.0234  -20.5730   17.0863 C   0  0  0  0  0  0  0  0  0  0  0  0
  -24.8582  -30.0473   20.0704 C   0  0  0  0  0  0  0  0  0  0  0  0
  -29.8856  -22.6567   18.1154 C   0  0  0  0  0  0  0  0  0  0  0  0
  -26.4711  -28.4622   18.9311 C   0  0  0  0  0  0  0  0  0  0  0  0
  -25.2234  -27.6920   20.9109 C   0  0  0  0  0  0  0  0  0  0  0  0
  -23.3992  -11.9098   19.6661 C   0  0  1  0  0  0  0  0  0  0  0  0
  -28.7063  -20.0214   18.4623 C   0  0  1  0  0  0  0  0  0  1  0  0
  -24.2358  -15.2323   21.3076 C   0  0  1  0  0  0  0  0  0  0  0  0
  -24.8887  -29.1374   21.3141 C   0  0  2  0  0  0  0  0  0  0  0  0
  -27.1272  -25.0785   24.3239 C   0  0  0  0  0  0  0  0  0  0  0  0
  -20.9424  -22.0030   21.5327 C   0  0  0  0  0  0  0  0  0  0  0  0
  -19.8997  -16.1247   19.0039 C   0  0  0  0  0  0  0  0  0  0  0  0
  -19.5194  -18.5986   18.9456 C   0  0  0  0  0  0  0  0  0  0  0  0
  -19.2939  -17.3541   21.0958 C   0  0  0  0  0  0  0  0  0  0  0  0
  -24.5833  -21.6970   20.4715 C   0  0  0  0  0  0  0  0  0  0  0  0
  -30.6721  -22.6348   20.4599 C   0  0  0  0  0  0  0  0  0  0  0  0
  -21.5940  -17.7257   20.1141 C   0  0  1  0  0  0  0  0  0  0  0  0
  -22.2516  -21.2778   21.2628 C   0  0  2  0  0  0  0  0  0  0  0  0
  -20.1020  -17.4399   19.7826 C   0  0  0  0  0  0  0  0  0  0  0  0
  -22.6129  -28.3463   21.8398 N   0  0  0  0  0  0  0  0  0  0  0  0
  -23.5966  -29.2227   22.1049 N   0  0  0  0  0  0  0  0  0  0  0  0
  -29.9396  -21.9558   19.3994 N   0  0  0  0  0  0  0  0  0  0  0  0
  -23.6038  -16.4153   20.7200 N   0  0  0  0  0  0  0  0  0  0  0  0
  -26.4868  -27.6614   20.1573 N   0  0  0  0  0  0  0  0  0  0  0  0
  -24.1672  -31.0611   23.4851 N   0  0  0  0  0  0  0  0  0  0  0  0
  -19.9836  -30.0120   24.8240 N   0  0  0  0  0  0  0  0  0  0  0  0
  -27.5607  -26.2500   21.7119 N   0  0  0  0  0  0  0  0  0  0  0  0
  -23.5159  -13.0488   20.5512 N   0  0  0  0  0  0  0  0  0  0  0  0
  -21.8129  -18.9512   20.8748 N   0  0  0  0  0  0  0  0  0  0  0  0
  -23.2424  -22.2694   20.7568 N   0  3  0  0  0  0  0  0  0  0  0  0
  -29.8164  -19.9587   20.5787 O   0  0  0  0  0  0  0  0  0  0  0  0
  -21.7394  -31.4491   25.1561 O   0  0  0  0  0  0  0  0  0  0  0  0
  -24.8997  -14.3617   19.2156 O   0  0  0  0  0  0  0  0  0  0  0  0
  -21.5331  -15.9497   21.6852 O   0  0  0  0  0  0  0  0  0  0  0  0
  -22.1322  -20.3349   19.0416 O   0  0  0  0  0  0  0  0  0  0  0  0
  -28.6682  -26.9804   19.8088 O   0  0  0  0  0  0  0  0  0  0  0  0
  -16.8086  -25.9080   22.7947 O   0  0  0  0  0  0  0  0  0  0  0  0
  -28.8958  -18.6163   18.4389 O   0  0  0  0  0  0  0  0  0  1  0  0
  -16.6157  -21.0229   20.2447 F   0  0  0  0  0  0  0  0  0  0  0  0
  -30.1979  -21.5520   23.0317 F   0  0  0  0  0  0  0  0  0  0  0  0
  -16.1923  -23.6028   24.1907 F   0  0  0  0  0  0  0  0  0  0  0  0
  1  2  1  0  0  0  0
  1  5  2  0  0  0  0
  2  6  2  0  0  0  0
  3  8  2  0  0  0  0
  3 17  1  0  0  0  0
  4  9  1  0  0  0  0
  4 17  2  0  0  0  0
  5 19  1  0  0  0  0
  6 21  1  0  0  0  0
  7 10  2  0  0  0  0
  7 20  1  0  0  0  0
  8 26  1  0  0  0  0
  9 26  2  0  0  0  0
 10 27  1  0  0  0  0
 11 12  2  0  0  0  0
 11 28  1  0  0  0  0
 12 29  1  0  0  0  0
 13 22  1  0  0  0  0
 13 27  2  0  0  0  0
 14 23  1  0  0  0  0
 14 25  2  0  0  0  0
 15 24  2  0  0  0  0
 15 30  1  0  0  0  0
 16 29  2  0  0  0  0
 16 31  1  0  0  0  0
 17 32  1  0  0  0  0
 18 32  1  0  0  0  0
 18 33  2  0  0  0  0
 18 35  1  0  0  0  0
 19 21  2  0  0  0  0
 19 40  1  0  0  0  0
 20 22  2  0  0  0  0
 20 41  1  0  0  0  0
 21 52  1  0  0  0  0
 22 42  1  0  0  0  0
 23 30  2  0  0  0  0
 23 62  1  0  0  0  0
 24 25  1  0  0  0  0
 24 56  1  0  0  0  0
 25 73  1  0  0  0  0
 26 83  1  0  0  0  0
 27 84  1  0  0  0  0
 28 31  2  0  0  0  0
 28 83  1  0  0  0  0
 29 85  1  0  0  0  0
 30 86  1  0  0  0  0
 31 87  1  0  0  0  0
 32 66  2  0  0  0  0
 33 67  1  0  0  0  0
 33 71  1  0  0  0  0
 34 53  1  0  0  0  0
 34 68  1  0  0  0  0
 34 77  2  0  0  0  0
 35 72  1  0  0  0  0
 35 78  2  0  0  0  0
 36 54  1  0  0  0  0
 36 74  1  0  0  0  0
 36 79  2  0  0  0  0
 37 63  1  0  0  0  0
 37 69  1  0  0  0  0
 37 80  2  0  0  0  0
 38 64  1  0  0  0  0
 38 75  1  0  0  0  0
 38 81  2  0  0  0  0
 39 70  1  0  0  0  0
 39 73  1  0  0  0  0
 39 82  2  0  0  0  0
 40 43  1  0  0  0  0
 41 54  1  0  0  0  0
 42 69  1  0  0  0  0
 43 46  1  0  0  0  0
 44 47  1  0  0  0  0
 44 49  1  0  0  0  0
 45 48  1  0  0  0  0
 45 50  1  0  0  0  0
 46 52  1  0  0  0  0
 47 53  1  0  0  0  0
 48 55  1  0  0  0  0
 49 68  1  0  0  0  0
 50 70  1  0  0  0  0
 51 55  1  0  0  0  0
 51 70  1  0  0  0  0
 52 74  1  0  0  0  0
 53 84  1  0  0  0  0
 54 69  1  0  0  0  0
 55 67  1  0  0  0  0
 57 64  1  0  0  0  0
 58 65  1  0  0  0  0
 59 65  1  0  0  0  0
 60 65  1  0  0  0  0
 61 76  1  0  0  0  0
 62 68  1  0  0  0  0
 63 65  1  0  0  0  0
 63 75  1  0  0  0  0
 64 76  1  0  0  0  0
 66 67  1  0  0  0  0
M  CHG  1  76   1
M  ISO  4  39 100  53 101  73 100  84 101
M  END
> <Batch ID>
0046

> <Smiles>
CNC(C)C(=O)NC(C(=O)N1Cc2cc([101O:1][101CH:1]3CCCN(Cc4cc([100NH:0][100C:0](=O)N5CCCC(n6nc(-c7ccc(Oc8ccc(F)cc8F)cc7)c(C(N)=O)c6N)C5)c(C)cc4F)C3=O)ccc2CC1C(=O)NC1CCCc2ccccc21)C(C)(C)C

> <Shape>
0.232

> <Color>
0.079

> <Negative vol penalty>
0.000

$$$$

  -OEChem-04042322233D

 87 96  0     1  0  0  0  0  0999 V2000
  -28.2551  -38.4431   22.3449 C   0  0  0  0  0  0  0  0  0  0  0  0
  -28.7948  -37.6161   23.3248 C   0  0  0  0  0  0  0  0  0  0  0  0
  -24.4948   -9.1083   21.2509 C   0  0  0  0  0  0  0  0  0  0  0  0
  -22.6104  -10.5321   20.7420 C   0  0  0  0  0  0  0  0  0  0  0  0
  -26.8812  -38.4361   22.1076 C   0  0  0  0  0  0  0  0  0  0  0  0
  -27.9607  -36.7822   24.0687 C   0  0  0  0  0  0  0  0  0  0  0  0
  -28.9230  -29.6433   24.0964 C   0  0  0  0  0  0  0  0  0  0  0  0
  -23.6291   -8.0321   21.4457 C   0  0  0  0  0  0  0  0  0  0  0  0
  -21.7446   -9.4559   20.9368 C   0  0  0  0  0  0  0  0  0  0  0  0
  -29.1723  -28.2891   24.3205 C   0  0  0  0  0  0  0  0  0  0  0  0
  -21.5554   -6.9110   23.8679 C   0  0  0  0  0  0  0  0  0  0  0  0
  -21.7643   -6.1067   24.9882 C   0  0  0  0  0  0  0  0  0  0  0  0
  -27.2012  -28.1458   25.7141 C   0  0  0  0  0  0  0  0  0  0  0  0
  -23.2774  -21.8604   24.1798 C   0  0  0  0  0  0  0  0  0  0  0  0
  -24.8769  -23.5093   24.9279 C   0  0  0  0  0  0  0  0  0  0  0  0
  -22.0946   -4.1922   23.5520 C   0  0  0  0  0  0  0  0  0  0  0  0
  -23.9854  -10.3583   20.8991 C   0  0  0  0  0  0  0  0  0  0  0  0
  -25.9225  -11.5637   19.7578 C   0  0  0  0  0  0  0  0  0  0  0  0
  -26.0310  -37.5946   22.8423 C   0  0  0  0  0  0  0  0  0  0  0  0
  -27.8019  -30.2509   24.6685 C   0  0  0  0  0  0  0  0  0  0  0  0
  -26.5740  -36.7649   23.8418 C   0  0  0  0  0  0  0  0  0  0  0  0
  -26.9394  -29.4989   25.4831 C   0  0  0  0  0  0  0  0  0  0  0  0
  -24.2084  -21.3736   23.2622 C   0  0  0  0  0  0  0  0  0  0  0  0
  -25.4737  -21.9546   23.1775 C   0  0  0  0  0  0  0  0  0  0  0  0
  -25.8080  -23.0225   24.0103 C   0  0  0  0  0  0  0  0  0  0  0  0
  -22.2540   -8.2059   21.2886 C   0  0  0  0  0  0  0  0  0  0  0  0
  -28.3137  -27.5423   25.1276 C   0  0  0  0  0  0  0  0  0  0  0  0
  -21.6159   -6.3559   22.5896 C   0  0  0  0  0  0  0  0  0  0  0  0
  -22.0340   -4.7473   24.8302 C   0  0  0  0  0  0  0  0  0  0  0  0
  -21.8856   -4.9965   22.4317 C   0  0  0  0  0  0  0  0  0  0  0  0
  -23.6117  -22.9284   25.0126 C   0  0  0  0  0  0  0  0  0  0  0  0
  -24.8791  -11.4706   20.6982 C   0  0  0  0  0  0  0  0  0  0  0  0
  -26.4650  -12.8077   19.9688 C   0  0  0  0  0  0  0  0  0  0  0  0
  -28.1892  -23.2001   24.7084 C   0  0  0  0  0  0  0  0  0  0  0  0
  -28.2630  -22.0446   25.4001 C   0  0  0  0  0  0  0  0  0  0  0  0
  -26.3619  -10.6108   18.7806 C   0  0  0  0  0  0  0  0  0  0  0  0
  -25.7718  -33.3786   25.0839 C   0  0  0  0  0  0  0  0  0  0  0  0
  -23.7854  -31.0630   24.7634 C   0  0  0  0  0  0  0  0  0  0  0  0
  -22.2389  -28.6174   23.5266 C   0  0  0  0  0  0  0  0  0  0  0  0
  -24.1645  -17.7807   22.1671 C   0  0  0  0  0  0  0  0  0  0  0  0
  -24.5467  -37.6564   22.5824 C   0  0  0  0  0  0  0  0  0  0  0  0
  -27.5279  -31.7212   24.5043 C   0  0  0  0  0  0  0  0  0  0  0  0
  -25.7649  -30.2027   26.1059 C   0  0  0  0  0  0  0  0  0  0  0  0
  -29.4396  -24.0655   24.7292 C   0  0  0  0  0  0  0  0  0  0  0  0
  -23.7778  -36.4694   23.1571 C   0  0  0  0  0  0  0  0  0  0  0  0
  -27.1094  -16.0785   23.4030 C   0  0  0  0  0  0  0  0  0  0  0  0
  -24.2167  -36.1931   24.5916 C   0  0  0  0  0  0  0  0  0  0  0  0
  -26.9620  -14.7029   22.7503 C   0  0  0  0  0  0  0  0  0  0  0  0
  -28.4053  -25.5482   23.0140 C   0  0  0  0  0  0  0  0  0  0  0  0
  -25.7544  -16.6370   23.8275 C   0  0  0  0  0  0  0  0  0  0  0  0
  -27.0360  -24.9093   23.2119 C   0  0  0  0  0  0  0  0  0  0  0  0
  -24.6006  -15.3426   22.0762 C   0  0  0  0  0  0  0  0  0  0  0  0
  -25.7049  -35.8282   24.6526 C   0  0  1  0  0  0  0  0  0  0  0  0
  -26.0262  -32.0510   24.4326 C   0  0  1  0  0  0  0  0  0  0  0  0
  -25.9335  -14.7338   21.6042 C   0  0  2  0  0  0  0  0  0  0  0  0
  -29.2217  -25.5102   24.2953 C   0  0  1  0  0  0  0  0  0  1  0  0
  -26.4694  -21.4301   22.1910 C   0  0  0  0  0  0  0  0  0  0  0  0
  -20.6562  -26.8725   22.6616 C   0  0  0  0  0  0  0  0  0  0  0  0
  -23.3609  -31.0375   27.7839 C   0  0  0  0  0  0  0  0  0  0  0  0
  -21.4603  -29.4463   27.4320 C   0  0  0  0  0  0  0  0  0  0  0  0
  -21.3620  -31.7394   26.4550 C   0  0  0  0  0  0  0  0  0  0  0  0
  -21.7827  -30.1111   21.0127 C   0  0  0  0  0  0  0  0  0  0  0  0
  -23.8253  -20.2293   22.3820 C   0  0  0  0  0  0  0  0  0  0  0  0
  -22.9272  -30.0288   25.4471 C   0  0  1  0  0  0  0  0  0  0  0  0
  -21.0565  -28.3390   22.6161 C   0  0  2  0  0  0  0  0  0  0  0  0
  -22.3037  -30.5568   26.7699 C   0  0  0  0  0  0  0  0  0  0  0  0
  -24.7639  -12.5679   21.4509 N   0  0  0  0  0  0  0  0  0  0  0  0
  -25.7420  -13.3624   20.9836 N   0  0  0  0  0  0  0  0  0  0  0  0
  -27.0966  -23.6297   23.9391 N   0  0  0  0  0  0  0  0  0  0  0  0
  -25.1381  -31.1003   25.1230 N   0  0  0  0  0  0  0  0  0  0  0  0
  -24.8278  -16.6567   22.6868 N   0  0  0  0  0  0  0  0  0  0  0  0
  -27.4852  -13.4702   19.3836 N   0  0  0  0  0  0  0  0  0  0  0  0
  -27.3495   -9.6860   19.1462 N   0  0  0  0  0  0  0  0  0  0  0  0
  -25.9069  -34.4582   24.2320 N   0  0  0  0  0  0  0  0  0  0  0  0
  -21.9482  -29.5920   24.4576 N   0  0  0  0  0  0  0  0  0  0  0  0
  -24.4288  -18.9857   22.8065 N   0  0  0  0  0  0  0  0  0  0  0  0
  -21.3932  -28.6908   21.2077 N   0  3  0  0  0  0  0  0  0  0  0  0
  -25.9044  -10.5910   17.6128 O   0  0  0  0  0  0  0  0  0  0  0  0
  -25.4733  -33.4216   26.2716 O   0  0  0  0  0  0  0  0  0  0  0  0
  -23.2718  -31.8222   23.9369 O   0  0  0  0  0  0  0  0  0  0  0  0
  -23.3117  -28.0264   23.4247 O   0  0  0  0  0  0  0  0  0  0  0  0
  -23.3970  -17.7162   21.2006 O   0  0  0  0  0  0  0  0  0  0  0  0
  -21.4090   -7.1559   21.4784 O   0  0  0  0  0  0  0  0  0  0  0  0
  -28.5606  -26.2197   25.3385 O   0  0  0  0  0  0  0  0  0  1  0  0
  -22.2362   -3.9753   25.9060 F   0  0  0  0  0  0  0  0  0  0  0  0
  -21.9462   -4.4577   21.2062 F   0  0  0  0  0  0  0  0  0  0  0  0
  -22.4631  -23.5283   26.1451 Cl  0  0  0  0  0  0  0  0  0  0  0  0
  1  2  1  0  0  0  0
  1  5  2  0  0  0  0
  2  6  2  0  0  0  0
  3  8  2  0  0  0  0
  3 17  1  0  0  0  0
  4  9  1  0  0  0  0
  4 17  2  0  0  0  0
  5 19  1  0  0  0  0
  6 21  1  0  0  0  0
  7 10  2  0  0  0  0
  7 20  1  0  0  0  0
  8 26  1  0  0  0  0
  9 26  2  0  0  0  0
 10 27  1  0  0  0  0
 11 12  2  0  0  0  0
 11 28  1  0  0  0  0
 12 29  1  0  0  0  0
 13 22  1  0  0  0  0
 13 27  2  0  0  0  0
 14 23  2  0  0  0  0
 14 31  1  0  0  0  0
 15 25  1  0  0  0  0
 15 31  2  0  0  0  0
 16 29  2  0  0  0  0
 16 30  1  0  0  0  0
 17 32  1  0  0  0  0
 18 32  1  0  0  0  0
 18 33  2  0  0  0  0
 18 36  1  0  0  0  0
 19 21  2  0  0  0  0
 19 41  1  0  0  0  0
 20 22  2  0  0  0  0
 20 42  1  0  0  0  0
 21 53  1  0  0  0  0
 22 43  1  0  0  0  0
 23 24  1  0  0  0  0
 23 63  1  0  0  0  0
 24 25  2  0  0  0  0
 24 57  1  0  0  0  0
 25 69  1  0  0  0  0
 26 83  1  0  0  0  0
 27 84  1  0  0  0  0
 28 30  2  0  0  0  0
 28 83  1  0  0  0  0
 29 85  1  0  0  0  0
 30 86  1  0  0  0  0
 31 87  1  0  0  0  0
 32 67  2  0  0  0  0
 33 68  1  0  0  0  0
 33 72  1  0  0  0  0
 34 35  2  0  0  0  0
 34 44  1  0  0  0  0
 34 69  1  0  0  0  0
 36 73  1  0  0  0  0
 36 78  2  0  0  0  0
 37 54  1  0  0  0  0
 37 74  1  0  0  0  0
 37 79  2  0  0  0  0
 38 64  1  0  0  0  0
 38 70  1  0  0  0  0
 38 80  2  0  0  0  0
 39 65  1  0  0  0  0
 39 75  1  0  0  0  0
 39 81  2  0  0  0  0
 40 71  1  0  0  0  0
 40 76  1  0  0  0  0
 40 82  2  0  0  0  0
 41 45  1  0  0  0  0
 42 54  1  0  0  0  0
 43 70  1  0  0  0  0
 44 56  1  0  0  0  0
 45 47  1  0  0  0  0
 46 48  1  0  0  0  0
 46 50  1  0  0  0  0
 47 53  1  0  0  0  0
 48 55  1  0  0  0  0
 49 51  1  0  0  0  0
 49 56  1  0  0  0  0
 50 71  1  0  0  0  0
 51 69  1  0  0  0  0
 52 55  1  0  0  0  0
 52 71  1  0  0  0  0
 53 74  1  0  0  0  0
 54 70  1  0  0  0  0
 55 68  1  0  0  0  0
 56 84  1  0  0  0  0
 58 65  1  0  0  0  0
 59 66  1  0  0  0  0
 60 66  1  0  0  0  0
 61 66  1  0  0  0  0
 62 77  1  0  0  0  0
 63 76  1  0  0  0  0
 64 66  1  0  0  0  0
 64 75  1  0  0  0  0
 65 77  1  0  0  0  0
 67 68  1  0  0  0  0
M  CHG  1  77   1
M  ISO  4  40 100  56 101  76 100  84 101
M  END
> <Batch ID>
0046

> <Smiles>
C=C1C[101CH:1]([101O:1]c2ccc3c(c2)CN(C(=O)C(NC(=O)C(C)NC)C(C)(C)C)C(C(=O)NC2CCCc4ccccc42)C3)CCN1c1cc(Cl)cc(C[100NH:0][100C:0](=O)N2CCCC(n3nc(-c4ccc(Oc5ccc(F)cc5F)cc4)c(C(N)=O)c3N)C2)c1C

> <Shape>
0.255

> <Color>
0.117

> <Negative vol penalty>
0.000

$$$$

  -OEChem-04042322233D

 85 93  0     1  0  0  0  0  0999 V2000
  -18.3247  -28.7571   22.5918 C   0  0  0  0  0  0  0  0  0  0  0  0
  -18.2909  -27.4728   22.0579 C   0  0  0  0  0  0  0  0  0  0  0  0
  -29.4233  -22.6997   21.2412 C   0  0  0  0  0  0  0  0  0  0  0  0
  -29.2968  -22.2255   18.8756 C   0  0  0  0  0  0  0  0  0  0  0  0
  -19.5183  -29.2686   23.0992 C   0  0  0  0  0  0  0  0  0  0  0  0
  -19.4510  -26.6998   22.0302 C   0  0  0  0  0  0  0  0  0  0  0  0
  -19.8457  -20.6270   22.7175 C   0  0  0  0  0  0  0  0  0  0  0  0
  -26.6305  -11.3465   20.8318 C   0  0  0  0  0  0  0  0  0  0  0  0
  -29.8416  -23.9999   20.9583 C   0  0  0  0  0  0  0  0  0  0  0  0
  -29.7150  -23.5257   18.5926 C   0  0  0  0  0  0  0  0  0  0  0  0
  -19.9545  -19.5842   21.7986 C   0  0  0  0  0  0  0  0  0  0  0  0
  -28.4293  -26.9160   19.9917 C   0  0  0  0  0  0  0  0  0  0  0  0
  -27.8360  -27.9575   20.7051 C   0  0  0  0  0  0  0  0  0  0  0  0
  -25.4834  -11.1468   21.5998 C   0  0  0  0  0  0  0  0  0  0  0  0
  -22.3497  -19.5896   22.0853 C   0  0  0  0  0  0  0  0  0  0  0  0
  -29.9995  -28.5984   21.5687 C   0  0  0  0  0  0  0  0  0  0  0  0
  -29.1510  -21.8124   20.1999 C   0  0  0  0  0  0  0  0  0  0  0  0
  -27.3958  -20.0174   20.6527 C   0  0  0  0  0  0  0  0  0  0  0  0
  -20.6915  -28.4978   23.0865 C   0  0  0  0  0  0  0  0  0  0  0  0
  -20.9909  -21.1672   23.3200 C   0  0  0  0  0  0  0  0  0  0  0  0
  -20.6618  -27.2020   22.5367 C   0  0  0  0  0  0  0  0  0  0  0  0
  -22.2525  -20.6376   23.0134 C   0  0  0  0  0  0  0  0  0  0  0  0
  -26.6097  -12.2495   19.7688 C   0  0  0  0  0  0  0  0  0  0  0  0
  -24.2945  -12.7529   20.2418 C   0  0  0  0  0  0  0  0  0  0  0  0
  -29.9874  -24.4129   19.6340 C   0  0  0  0  0  0  0  0  0  0  0  0
  -21.2069  -19.0672   21.4802 C   0  0  0  0  0  0  0  0  0  0  0  0
  -29.8077  -26.7156   20.0669 C   0  0  0  0  0  0  0  0  0  0  0  0
  -28.6211  -28.7988   21.4935 C   0  0  0  0  0  0  0  0  0  0  0  0
  -30.5928  -27.5569   20.8553 C   0  0  0  0  0  0  0  0  0  0  0  0
  -24.3154  -11.8500   21.3048 C   0  0  0  0  0  0  0  0  0  0  0  0
  -25.4417  -12.9526   19.4738 C   0  0  0  0  0  0  0  0  0  0  0  0
  -28.7194  -20.4690   20.4916 C   0  0  0  0  0  0  0  0  0  0  0  0
  -27.5206  -18.6748   20.9143 C   0  0  0  0  0  0  0  0  0  0  0  0
  -26.1637  -20.7463   20.5730 C   0  0  0  0  0  0  0  0  0  0  0  0
  -22.3738  -24.0291   23.3461 C   0  0  0  0  0  0  0  0  0  0  0  0
  -24.3233  -22.6359   25.5327 C   0  0  0  0  0  0  0  0  0  0  0  0
  -22.0546  -15.7744   20.2205 C   0  0  0  0  0  0  0  0  0  0  0  0
  -25.6692  -19.7691   26.8042 C   0  0  0  0  0  0  0  0  0  0  0  0
  -29.8107  -13.6998   19.8419 C   0  0  0  0  0  0  0  0  0  0  0  0
  -21.9687  -29.1112   23.6033 C   0  0  0  0  0  0  0  0  0  0  0  0
  -20.8543  -22.2741   24.3293 C   0  0  0  0  0  0  0  0  0  0  0  0
  -23.5110  -21.1687   23.6478 C   0  0  0  0  0  0  0  0  0  0  0  0
  -23.0681  -28.0883   23.8780 C   0  0  0  0  0  0  0  0  0  0  0  0
  -31.6078  -15.8964   21.9918 C   0  0  0  0  0  0  0  0  0  0  0  0
  -23.1930  -27.1128   22.7120 C   0  0  0  0  0  0  0  0  0  0  0  0
  -30.9116  -17.2451   21.8016 C   0  0  0  0  0  0  0  0  0  0  0  0
  -31.6681  -15.1036   20.6880 C   0  0  0  0  0  0  0  0  0  0  0  0
  -29.6721  -16.2644   19.8266 C   0  0  0  0  0  0  0  0  0  0  0  0
  -21.8937  -26.3234   22.5115 C   0  0  1  0  0  0  0  0  0  0  0  0
  -22.1312  -23.0922   24.4954 C   0  0  1  0  0  0  0  0  0  0  0  0
  -29.5373  -17.0764   21.1262 C   0  0  2  0  0  0  0  0  0  0  0  0
  -27.2590  -18.9516   28.5653 C   0  0  0  0  0  0  0  0  0  0  0  0
  -26.6815  -23.5330   23.8168 C   0  0  0  0  0  0  0  0  0  0  0  0
  -28.1211  -21.9149   25.0728 C   0  0  0  0  0  0  0  0  0  0  0  0
  -27.0219  -23.8010   26.2799 C   0  0  0  0  0  0  0  0  0  0  0  0
  -23.5505  -18.2063   28.1560 C   0  0  0  0  0  0  0  0  0  0  0  0
  -27.8628  -12.4303   18.9740 C   0  0  0  0  0  0  0  0  0  0  0  0
  -23.0348  -13.5074   19.9286 C   0  0  0  0  0  0  0  0  0  0  0  0
  -22.4068  -17.1460   20.7556 C   0  0  0  0  0  0  0  0  0  1  0  0
  -25.6172  -21.8607   25.4711 C   0  0  1  0  0  0  0  0  0  0  0  0
  -25.8098  -19.2686   28.2304 C   0  0  2  0  0  0  0  0  0  0  0  0
  -26.8371  -22.7685   25.1466 C   0  0  0  0  0  0  0  0  0  0  0  0
  -29.6189  -19.4926   20.6387 N   0  0  0  0  0  0  0  0  0  0  0  0
  -28.8591  -18.4141   20.8951 N   0  0  0  0  0  0  0  0  0  0  0  0
  -23.3259  -22.2554   24.6237 N   0  0  0  0  0  0  0  0  0  0  0  0
  -30.3325  -14.9783   20.0995 N   0  0  0  0  0  0  0  0  0  0  0  0
  -26.6147  -17.7037   21.1567 N   0  0  0  0  0  0  0  0  0  0  0  0
  -26.2164  -22.1192   20.2958 N   0  0  0  0  0  0  0  0  0  0  0  0
  -21.7850  -25.2700   23.4979 N   0  0  0  0  0  0  0  0  0  0  0  0
  -23.1075  -14.8840   20.3607 N   0  0  0  0  0  0  0  0  0  0  0  0
  -25.7251  -21.1453   26.7380 N   0  0  0  0  0  0  0  0  0  0  0  0
  -28.5361  -13.6705   19.2894 N   0  0  0  0  0  0  0  0  0  0  0  0
  -25.0007  -18.0328   28.4278 N   0  3  0  0  0  0  0  0  0  0  0  0
  -25.0501  -20.1998   20.7588 O   0  0  0  0  0  0  0  0  0  0  0  0
  -23.0468  -23.6546   22.3930 O   0  0  0  0  0  0  0  0  0  0  0  0
  -24.1994  -23.5410   26.3616 O   0  0  0  0  0  0  0  0  0  0  0  0
  -20.9607  -15.5147   19.7268 O   0  0  0  0  0  0  0  0  0  0  0  0
  -25.5279  -19.0146   25.8443 O   0  0  0  0  0  0  0  0  0  0  0  0
  -30.4323  -12.6614   20.0911 O   0  0  0  0  0  0  0  0  0  0  0  0
  -30.3953  -25.6817   19.3575 O   0  0  0  0  0  0  0  0  0  0  0  0
  -21.3160  -18.0498   20.5831 O   0  0  0  0  0  0  0  0  0  1  0  0
  -28.0515  -29.7998   22.1773 F   0  0  0  0  0  0  0  0  0  0  0  0
  -31.9176  -27.3700   20.9306 F   0  0  0  0  0  0  0  0  0  0  0  0
  -22.9189  -11.5713   22.2819 Cl  0  0  0  0  0  0  0  0  0  0  0  0
  -25.4225  -14.0727   18.1519 Cl  0  0  0  0  0  0  0  0  0  0  0  0
  1  2  1  0  0  0  0
  1  5  2  0  0  0  0
  2  6  2  0  0  0  0
  3  9  2  0  0  0  0
  3 17  1  0  0  0  0
  4 10  1  0  0  0  0
  4 17  2  0  0  0  0
  5 19  1  0  0  0  0
  6 21  1  0  0  0  0
  7 11  2  0  0  0  0
  7 20  1  0  0  0  0
  8 14  1  0  0  0  0
  8 23  2  0  0  0  0
  9 25  1  0  0  0  0
 10 25  2  0  0  0  0
 11 26  1  0  0  0  0
 12 13  2  0  0  0  0
 12 27  1  0  0  0  0
 13 28  1  0  0  0  0
 14 30  2  0  0  0  0
 15 22  1  0  0  0  0
 15 26  2  0  0  0  0
 16 28  2  0  0  0  0
 16 29  1  0  0  0  0
 17 32  1  0  0  0  0
 18 32  1  0  0  0  0
 18 33  2  0  0  0  0
 18 34  1  0  0  0  0
 19 21  2  0  0  0  0
 19 40  1  0  0  0  0
 20 22  2  0  0  0  0
 20 41  1  0  0  0  0
 21 49  1  0  0  0  0
 22 42  1  0  0  0  0
 23 31  1  0  0  0  0
 23 57  1  0  0  0  0
 24 30  1  0  0  0  0
 24 31  2  0  0  0  0
 24 58  1  0  0  0  0
 25 80  1  0  0  0  0
 26 81  1  0  0  0  0
 27 29  2  0  0  0  0
 27 80  1  0  0  0  0
 28 82  1  0  0  0  0
 29 83  1  0  0  0  0
 30 84  1  0  0  0  0
 31 85  1  0  0  0  0
 32 63  2  0  0  0  0
 33 64  1  0  0  0  0
 33 67  1  0  0  0  0
 34 68  1  0  0  0  0
 34 74  2  0  0  0  0
 35 50  1  0  0  0  0
 35 69  1  0  0  0  0
 35 75  2  0  0  0  0
 36 60  1  0  0  0  0
 36 65  1  0  0  0  0
 36 76  2  0  0  0  0
 37 59  1  0  0  0  0
 37 70  1  0  0  0  0
 37 77  2  0  0  0  0
 38 61  1  0  0  0  0
 38 71  1  0  0  0  0
 38 78  2  0  0  0  0
 39 66  1  0  0  0  0
 39 72  1  0  0  0  0
 39 79  2  0  0  0  0
 40 43  1  0  0  0  0
 41 50  1  0  0  0  0
 42 65  1  0  0  0  0
 43 45  1  0  0  0  0
 44 46  1  0  0  0  0
 44 47  1  0  0  0  0
 45 49  1  0  0  0  0
 46 51  1  0  0  0  0
 47 66  1  0  0  0  0
 48 51  1  0  0  0  0
 48 66  1  0  0  0  0
 49 69  1  0  0  0  0
 50 65  1  0  0  0  0
 51 64  1  0  0  0  0
 52 61  1  0  0  0  0
 53 62  1  0  0  0  0
 54 62  1  0  0  0  0
 55 62  1  0  0  0  0
 56 73  1  0  0  0  0
 57 72  1  0  0  0  0
 58 70  1  0  0  0  0
 59 81  1  0  0  0  0
 60 62  1  0  0  0  0
 60 71  1  0  0  0  0
 61 73  1  0  0  0  0
 63 64  1  0  0  0  0
M  CHG  1  73   1
M  ISO  4  39 100  59 101  72 100  81 101
M  END
> <Batch ID>
0046

> <Smiles>
CNC(C)C(=O)NC(C(=O)N1Cc2cc([101O:1][101CH2:1]C(=O)NCc3c(Cl)ccc(C[100NH:0][100C:0](=O)N4CCCC(n5nc(-c6ccc(Oc7ccc(F)cc7F)cc6)c(C(N)=O)c5N)C4)c3Cl)ccc2CC1C(=O)NC1CCCc2ccccc21)C(C)(C)C

> <Shape>
0.253

> <Color>
0.048

> <Negative vol penalty>
0.000

$$$$

  -OEChem-04042322233D

 84 92  0     1  0  0  0  0  0999 V2000
  -16.6135  -29.0897   23.7652 C   0  0  0  0  0  0  0  0  0  0  0  0
  -17.2282  -28.4519   22.6924 C   0  0  0  0  0  0  0  0  0  0  0  0
  -28.0715   -9.9772   21.4740 C   0  0  0  0  0  0  0  0  0  0  0  0
  -26.2519  -11.2877   20.5747 C   0  0  0  0  0  0  0  0  0  0  0  0
  -17.2233  -30.1928   24.3613 C   0  0  0  0  0  0  0  0  0  0  0  0
  -18.4525  -28.9176   22.2143 C   0  0  0  0  0  0  0  0  0  0  0  0
  -21.7463  -25.1728   21.3355 C   0  0  0  0  0  0  0  0  0  0  0  0
  -27.4091  -21.5624   21.2982 C   0  0  0  0  0  0  0  0  0  0  0  0
  -28.3226  -20.5126   21.2039 C   0  0  0  0  0  0  0  0  0  0  0  0
  -27.1555   -9.1586   22.1345 C   0  0  0  0  0  0  0  0  0  0  0  0
  -25.3359  -10.4689   21.2351 C   0  0  0  0  0  0  0  0  0  0  0  0
  -21.5764  -24.4375   20.1632 C   0  0  0  0  0  0  0  0  0  0  0  0
  -23.9510   -7.4186   20.7900 C   0  0  0  0  0  0  0  0  0  0  0  0
  -22.8352   -6.9870   20.0729 C   0  0  0  0  0  0  0  0  0  0  0  0
  -26.8347  -19.3533   19.6942 C   0  0  0  0  0  0  0  0  0  0  0  0
  -23.3244  -25.7238   19.1101 C   0  0  0  0  0  0  0  0  0  0  0  0
  -21.3868   -8.0727   21.6731 C   0  0  0  0  0  0  0  0  0  0  0  0
  -27.6198  -11.0419   20.6941 C   0  0  0  0  0  0  0  0  0  0  0  0
  -25.9211  -20.4031   19.7885 C   0  0  0  0  0  0  0  0  0  0  0  0
  -29.0810  -11.7133   18.7138 C   0  0  0  0  0  0  0  0  0  0  0  0
  -18.4604  -30.6663   23.8964 C   0  0  0  0  0  0  0  0  0  0  0  0
  -22.7006  -26.1982   21.4005 C   0  0  0  0  0  0  0  0  0  0  0  0
  -19.0787  -30.0289   22.8039 C   0  0  0  0  0  0  0  0  0  0  0  0
  -23.5062  -26.4690   20.2852 C   0  0  0  0  0  0  0  0  0  0  0  0
  -26.2082  -21.5077   20.5905 C   0  0  0  0  0  0  0  0  0  0  0  0
  -28.0354  -19.4081   20.4019 C   0  0  0  0  0  0  0  0  0  0  0  0
  -25.7877   -9.4043   22.0150 C   0  0  0  0  0  0  0  0  0  0  0  0
  -22.3635  -24.7148   19.0494 C   0  0  0  0  0  0  0  0  0  0  0  0
  -23.7848   -8.1771   21.9487 C   0  0  0  0  0  0  0  0  0  0  0  0
  -21.5531   -7.3141   20.5144 C   0  0  0  0  0  0  0  0  0  0  0  0
  -22.5027   -8.5042   22.3903 C   0  0  0  0  0  0  0  0  0  0  0  0
  -28.5655  -11.8883   20.0121 C   0  0  0  0  0  0  0  0  0  0  0  0
  -29.9328  -12.7761   18.5365 C   0  0  0  0  0  0  0  0  0  0  0  0
  -24.6557  -20.3261   19.0313 C   0  0  0  0  0  0  0  0  0  0  0  0
  -28.8136  -10.6824   17.7539 C   0  0  0  0  0  0  0  0  0  0  0  0
  -22.5903  -29.3377   21.8852 C   0  0  0  0  0  0  0  0  0  0  0  0
  -25.8221  -29.0581   21.8858 C   0  0  0  0  0  0  0  0  0  0  0  0
  -28.5777  -27.2951   20.9137 C   0  0  0  0  0  0  0  0  0  0  0  0
  -30.2004  -18.2390   20.9428 C   0  0  0  0  0  0  0  0  0  0  0  0
  -19.0581  -31.8911   24.5424 C   0  0  0  0  0  0  0  0  0  0  0  0
  -22.8899  -26.9643   22.6809 C   0  0  0  0  0  0  0  0  0  0  0  0
  -24.5588  -27.5460   20.3100 C   0  0  0  0  0  0  0  0  0  0  0  0
  -20.5358  -32.0919   24.2166 C   0  0  0  0  0  0  0  0  0  0  0  0
  -32.7574  -15.7618   20.9944 C   0  0  0  0  0  0  0  0  0  0  0  0
  -20.7826  -31.9093   22.7224 C   0  0  0  0  0  0  0  0  0  0  0  0
  -32.0207  -14.4725   20.6242 C   0  0  0  0  0  0  0  0  0  0  0  0
  -31.8978  -16.6761   21.8655 C   0  0  0  0  0  0  0  0  0  0  0  0
  -29.8321  -15.6934   20.9510 C   0  0  0  0  0  0  0  0  0  0  0  0
  -20.4189  -30.4891   22.2726 C   0  0  1  0  0  0  0  0  0  0  0  0
  -23.5381  -28.3292   22.4703 C   0  0  1  0  0  0  0  0  0  0  0  0
  -30.6341  -14.7693   20.0201 C   0  0  2  0  0  0  0  0  0  0  0  0
  -25.2466  -22.6446   20.7071 C   0  0  0  0  0  0  0  0  0  0  0  0
  -31.0002  -26.6579   20.7619 C   0  0  0  0  0  0  0  0  0  0  0  0
  -25.8855  -31.2328   19.7465 C   0  0  0  0  0  0  0  0  0  0  0  0
  -28.2435  -30.5640   19.2356 C   0  0  0  0  0  0  0  0  0  0  0  0
  -27.6594  -31.4396   21.4973 C   0  0  0  0  0  0  0  0  0  0  0  0
  -28.3955  -25.5747   23.3149 C   0  0  0  0  0  0  0  0  0  0  0  0
  -23.2376  -22.4871   16.3564 C   0  0  0  0  0  0  0  0  0  0  0  0
  -23.1776  -21.3099   17.3155 C   0  0  0  0  0  0  0  0  0  0  0  0
  -23.3488  -23.8252   17.0761 C   0  0  0  0  0  0  0  0  0  1  0  0
  -26.9008  -29.1215   20.8316 C   0  0  1  0  0  0  0  0  0  0  0  0
  -29.8035  -26.8369   21.6831 C   0  0  2  0  0  0  0  0  0  0  0  0
  -27.1512  -30.5704   20.3263 C   0  0  0  0  0  0  0  0  0  0  0  0
  -29.0496  -12.9764   20.6168 N   0  0  0  0  0  0  0  0  0  0  0  0
  -29.8782  -13.4948   19.6944 N   0  0  0  0  0  0  0  0  0  0  0  0
  -24.7015  -28.2716   21.5830 N   0  0  0  0  0  0  0  0  0  0  0  0
  -30.6015  -16.9166   21.2278 N   0  0  0  0  0  0  0  0  0  0  0  0
  -30.7158  -13.1565   17.5047 N   0  0  0  0  0  0  0  0  0  0  0  0
  -23.8313  -19.3103   19.2874 N   0  0  0  0  0  0  0  0  0  0  0  0
  -27.9122   -9.6660   18.0987 N   0  0  0  0  0  0  0  0  0  0  0  0
  -28.9639  -18.3419   20.3064 N   0  0  0  0  0  0  0  0  0  0  0  0
  -21.4603  -29.5574   22.6495 N   0  0  0  0  0  0  0  0  0  0  0  0
  -28.0758  -28.4792   21.4108 N   0  0  0  0  0  0  0  0  0  0  0  0
  -24.3969  -21.2763   18.1235 N   0  3  0  0  0  0  0  0  0  0  0  0
  -29.5338  -25.5375   22.3611 N   0  3  0  0  0  0  0  0  0  0  0  0
  -29.3703  -10.6541   16.6302 O   0  0  0  0  0  0  0  0  0  0  0  0
  -22.8647  -29.8777   20.8199 O   0  0  0  0  0  0  0  0  0  0  0  0
  -25.9715  -29.6776   22.9420 O   0  0  0  0  0  0  0  0  0  0  0  0
  -28.1143  -26.6674   19.9641 O   0  0  0  0  0  0  0  0  0  0  0  0
  -30.9144  -19.2070   21.2167 O   0  0  0  0  0  0  0  0  0  0  0  0
  -24.8936   -8.6055   22.6592 O   0  0  0  0  0  0  0  0  0  0  0  0
  -22.1993  -23.9990   17.9037 O   0  0  0  0  0  0  0  0  0  1  0  0
  -20.4817   -6.9009   19.8248 F   0  0  0  0  0  0  0  0  0  0  0  0
  -22.3367   -9.2337   23.5021 F   0  0  0  0  0  0  0  0  0  0  0  0
  1  2  1  0  0  0  0
  1  5  2  0  0  0  0
  2  6  2  0  0  0  0
  3 10  2  0  0  0  0
  3 18  1  0  0  0  0
  4 11  1  0  0  0  0
  4 18  2  0  0  0  0
  5 21  1  0  0  0  0
  6 23  1  0  0  0  0
  7 12  2  0  0  0  0
  7 22  1  0  0  0  0
  8  9  2  0  0  0  0
  8 25  1  0  0  0  0
  9 26  1  0  0  0  0
 10 27  1  0  0  0  0
 11 27  2  0  0  0  0
 12 28  1  0  0  0  0
 13 14  2  0  0  0  0
 13 29  1  0  0  0  0
 14 30  1  0  0  0  0
 15 19  1  0  0  0  0
 15 26  2  0  0  0  0
 16 24  1  0  0  0  0
 16 28  2  0  0  0  0
 17 30  2  0  0  0  0
 17 31  1  0  0  0  0
 18 32  1  0  0  0  0
 19 25  2  0  0  0  0
 19 34  1  0  0  0  0
 20 32  1  0  0  0  0
 20 33  2  0  0  0  0
 20 35  1  0  0  0  0
 21 23  2  0  0  0  0
 21 40  1  0  0  0  0
 22 24  2  0  0  0  0
 22 41  1  0  0  0  0
 23 49  1  0  0  0  0
 24 42  1  0  0  0  0
 25 52  1  0  0  0  0
 26 71  1  0  0  0  0
 27 81  1  0  0  0  0
 28 82  1  0  0  0  0
 29 31  2  0  0  0  0
 29 81  1  0  0  0  0
 30 83  1  0  0  0  0
 31 84  1  0  0  0  0
 32 64  2  0  0  0  0
 33 65  1  0  0  0  0
 33 68  1  0  0  0  0
 34 69  1  0  0  0  0
 34 74  2  0  0  0  0
 35 70  1  0  0  0  0
 35 76  2  0  0  0  0
 36 50  1  0  0  0  0
 36 72  1  0  0  0  0
 36 77  2  0  0  0  0
 37 61  1  0  0  0  0
 37 66  1  0  0  0  0
 37 78  2  0  0  0  0
 38 62  1  0  0  0  0
 38 73  1  0  0  0  0
 38 79  2  0  0  0  0
 39 67  1  0  0  0  0
 39 71  1  0  0  0  0
 39 80  2  0  0  0  0
 40 43  1  0  0  0  0
 41 50  1  0  0  0  0
 42 66  1  0  0  0  0
 43 45  1  0  0  0  0
 44 46  1  0  0  0  0
 44 47  1  0  0  0  0
 45 49  1  0  0  0  0
 46 51  1  0  0  0  0
 47 67  1  0  0  0  0
 48 51  1  0  0  0  0
 48 67  1  0  0  0  0
 49 72  1  0  0  0  0
 50 66  1  0  0  0  0
 51 65  1  0  0  0  0
 53 62  1  0  0  0  0
 54 63  1  0  0  0  0
 55 63  1  0  0  0  0
 56 63  1  0  0  0  0
 57 75  1  0  0  0  0
 58 59  1  0  0  0  0
 58 60  1  0  0  0  0
 59 74  1  0  0  0  0
 60 82  1  0  0  0  0
 61 63  1  0  0  0  0
 61 73  1  0  0  0  0
 62 75  1  0  0  0  0
 64 65  1  0  0  0  0
M  CHG  2  74   1  75   1
M  ISO  4  39 100  60 101  71 100  82 101
M  END
> <Batch ID>
0046

> <Smiles>
CNC(C)C(=O)NC(C(=O)N1Cc2cc([101O:1][101CH2:1]CCNC(=N)c3cc([100NH:0][100C:0](=O)N4CCCC(n5nc(-c6ccc(Oc7ccc(F)cc7F)cc6)c(C(N)=O)c5N)C4)ccc3C)ccc2CC1C(=O)NC1CCCc2ccccc21)C(C)(C)C

> <Shape>
0.276

> <Color>
0.070

> <Negative vol penalty>
0.000

$$$$

  -OEChem-04042322233D

 86 95  0     1  0  0  0  0  0999 V2000
  -18.1365  -27.3301   22.5503 C   0  0  0  0  0  0  0  0  0  0  0  0
  -18.8040  -28.2564   21.7570 C   0  0  0  0  0  0  0  0  0  0  0  0
  -24.5949  -11.9291   20.6892 C   0  0  0  0  0  0  0  0  0  0  0  0
  -25.9081  -12.9239   22.4564 C   0  0  0  0  0  0  0  0  0  0  0  0
  -18.8519  -26.5499   23.4562 C   0  0  0  0  0  0  0  0  0  0  0  0
  -20.1886  -28.3945   21.8609 C   0  0  0  0  0  0  0  0  0  0  0  0
  -28.3375  -29.6086   20.6270 C   0  0  0  0  0  0  0  0  0  0  0  0
  -24.9809  -10.6590   21.1174 C   0  0  0  0  0  0  0  0  0  0  0  0
  -26.2941  -11.6538   22.8846 C   0  0  0  0  0  0  0  0  0  0  0  0
  -29.5016  -29.0024   21.0973 C   0  0  0  0  0  0  0  0  0  0  0  0
  -24.1369   -8.4955   23.5750 C   0  0  0  0  0  0  0  0  0  0  0  0
  -23.1492   -7.5151   23.6690 C   0  0  0  0  0  0  0  0  0  0  0  0
  -28.4455  -26.8418   20.9089 C   0  0  0  0  0  0  0  0  0  0  0  0
  -30.0026  -21.6087   25.1042 C   0  0  0  0  0  0  0  0  0  0  0  0
  -28.1208  -20.3059   24.3306 C   0  0  0  0  0  0  0  0  0  0  0  0
  -29.6590  -21.2706   22.7368 C   0  0  0  0  0  0  0  0  0  0  0  0
  -24.3414   -6.1599   22.0630 C   0  0  0  0  0  0  0  0  0  0  0  0
  -25.0585  -13.0616   21.3587 C   0  0  0  0  0  0  0  0  0  0  0  0
  -23.3506  -14.8832   20.8366 C   0  0  0  0  0  0  0  0  0  0  0  0
  -20.2443  -26.6880   23.5795 C   0  0  0  0  0  0  0  0  0  0  0  0
  -27.2131  -28.8355   20.3039 C   0  0  0  0  0  0  0  0  0  0  0  0
  -20.9315  -27.5994   22.7523 C   0  0  0  0  0  0  0  0  0  0  0  0
  -27.2692  -27.4404   20.4323 C   0  0  0  0  0  0  0  0  0  0  0  0
  -28.8626  -20.8529   25.3776 C   0  0  0  0  0  0  0  0  0  0  0  0
  -30.4008  -21.8176   23.7838 C   0  0  0  0  0  0  0  0  0  0  0  0
  -28.5190  -20.5148   23.0102 C   0  0  0  0  0  0  0  0  0  0  0  0
  -25.8304  -10.5213   22.2151 C   0  0  0  0  0  0  0  0  0  0  0  0
  -29.5548  -27.6191   21.2411 C   0  0  0  0  0  0  0  0  0  0  0  0
  -25.2269   -8.3081   22.7249 C   0  0  0  0  0  0  0  0  0  0  0  0
  -23.2514   -6.3473   22.9130 C   0  0  0  0  0  0  0  0  0  0  0  0
  -25.3291   -7.1404   21.9689 C   0  0  0  0  0  0  0  0  0  0  0  0
  -24.6606  -14.3740   20.9165 C   0  0  0  0  0  0  0  0  0  0  0  0
  -23.5079  -16.1626   20.3625 C   0  0  0  0  0  0  0  0  0  0  0  0
  -30.9025  -24.8106   22.5978 C   0  0  0  0  0  0  0  0  0  0  0  0
  -22.1031  -14.2558   21.1620 C   0  0  0  0  0  0  0  0  0  0  0  0
  -24.2287  -28.6565   21.3833 C   0  0  0  0  0  0  0  0  0  0  0  0
  -23.8670  -26.6022   18.8990 C   0  0  0  0  0  0  0  0  0  0  0  0
  -25.7703  -23.9346   17.3894 C   0  0  0  0  0  0  0  0  0  0  0  0
  -28.0227  -20.0707   20.5806 C   0  0  0  0  0  0  0  0  0  0  0  0
  -20.9699  -25.8126   24.5706 C   0  0  0  0  0  0  0  0  0  0  0  0
  -25.9740  -29.5023   19.7725 C   0  0  0  0  0  0  0  0  0  0  0  0
  -26.0963  -26.5637   20.0798 C   0  0  0  0  0  0  0  0  0  0  0  0
  -22.3573  -26.3385   24.9242 C   0  0  0  0  0  0  0  0  0  0  0  0
  -31.4476  -26.0489   25.1972 C   0  0  0  0  0  0  0  0  0  0  0  0
  -26.4291  -18.8194   17.6528 C   0  0  0  0  0  0  0  0  0  0  0  0
  -23.1274  -26.6680   23.6542 C   0  0  0  0  0  0  0  0  0  0  0  0
  -31.4951  -26.8892   23.9382 C   0  0  0  0  0  0  0  0  0  0  0  0
  -25.6706  -17.5873   18.1514 C   0  0  0  0  0  0  0  0  0  0  0  0
  -31.9368  -24.6444   24.8922 C   0  0  0  0  0  0  0  0  0  0  0  0
  -27.7731  -18.9828   18.3604 C   0  0  0  0  0  0  0  0  0  0  0  0
  -26.9483  -17.7477   20.3260 C   0  0  0  0  0  0  0  0  0  0  0  0
  -22.4331  -27.7886   22.8697 C   0  0  1  0  0  0  0  0  0  0  0  0
  -30.5842  -26.2702   22.8964 C   0  0  1  0  0  0  0  0  0  1  0  0
  -24.7151  -28.6616   19.9616 C   0  0  1  0  0  0  0  0  0  0  0  0
  -25.5596  -17.5777   19.6887 C   0  0  2  0  0  0  0  0  0  0  0  0
  -28.4368  -20.6298   26.7894 C   0  0  0  0  0  0  0  0  0  0  0  0
  -25.7722  -23.0605   15.0371 C   0  0  0  0  0  0  0  0  0  0  0  0
  -21.8313  -24.5887   19.9535 C   0  0  0  0  0  0  0  0  0  0  0  0
  -22.9077  -22.8495   18.5095 C   0  0  0  0  0  0  0  0  0  0  0  0
  -21.8466  -24.8517   17.4665 C   0  0  0  0  0  0  0  0  0  0  0  0
  -28.6905  -24.3330   17.1204 C   0  0  0  0  0  0  0  0  0  0  0  0
  -31.6280  -22.6311   23.4897 C   0  0  0  0  0  0  0  0  0  0  0  0
  -24.0323  -25.1136   18.7100 C   0  0  1  0  0  0  0  0  0  0  0  0
  -26.4679  -23.9660   16.0415 C   0  0  2  0  0  0  0  0  0  0  0  0
  -22.6698  -24.3652   18.6791 C   0  0  0  0  0  0  0  0  0  0  0  0
  -25.5821  -15.2577   20.5244 N   0  0  0  0  0  0  0  0  0  0  0  0
  -24.8502  -16.3351   20.1935 N   0  0  0  0  0  0  0  0  0  0  0  0
  -31.3918  -24.0576   23.6668 N   0  0  0  0  0  0  0  0  0  0  0  0
  -24.9052  -27.2633   19.5704 N   0  0  0  0  0  0  0  0  0  0  0  0
  -27.5892  -18.9689   19.8133 N   0  0  0  0  0  0  0  0  0  0  0  0
  -22.6275  -17.1456   20.0777 N   0  0  0  0  0  0  0  0  0  0  0  0
  -22.1221  -12.9371   21.6364 N   0  0  0  0  0  0  0  0  0  0  0  0
  -27.7655  -19.9590   21.9466 N   0  0  0  0  0  0  0  0  0  0  0  0
  -23.0715  -27.9270   21.5793 N   0  0  0  0  0  0  0  0  0  0  0  0
  -24.8358  -24.9419   17.5044 N   0  0  0  0  0  0  0  0  0  0  0  0
  -27.8818  -23.5159   16.1795 N   0  3  0  0  0  0  0  0  0  0  0  0
  -30.6631  -24.3456   21.4804 O   0  0  0  0  0  0  0  0  0  0  0  0
  -21.0029  -14.8414   21.0202 O   0  0  0  0  0  0  0  0  0  0  0  0
  -24.8575  -29.2678   22.2392 O   0  0  0  0  0  0  0  0  0  0  0  0
  -22.8573  -27.1590   18.4607 O   0  0  0  0  0  0  0  0  0  0  0  0
  -26.0259  -23.0977   18.2524 O   0  0  0  0  0  0  0  0  0  0  0  0
  -28.5564  -21.0539   20.0605 O   0  0  0  0  0  0  0  0  0  0  0  0
  -26.2071   -9.2820   22.6333 O   0  0  0  0  0  0  0  0  0  0  0  0
  -30.6896  -27.0249   21.7005 O   0  0  0  0  0  0  0  0  0  1  0  0
  -22.3036   -5.4053   23.0046 F   0  0  0  0  0  0  0  0  0  0  0  0
  -26.3745   -6.9542   21.1514 F   0  0  0  0  0  0  0  0  0  0  0  0
  1  2  1  0  0  0  0
  1  5  2  0  0  0  0
  2  6  2  0  0  0  0
  3  8  2  0  0  0  0
  3 18  1  0  0  0  0
  4  9  1  0  0  0  0
  4 18  2  0  0  0  0
  5 20  1  0  0  0  0
  6 22  1  0  0  0  0
  7 10  2  0  0  0  0
  7 21  1  0  0  0  0
  8 27  1  0  0  0  0
  9 27  2  0  0  0  0
 10 28  1  0  0  0  0
 11 12  2  0  0  0  0
 11 29  1  0  0  0  0
 12 30  1  0  0  0  0
 13 23  1  0  0  0  0
 13 28  2  0  0  0  0
 14 24  2  0  0  0  0
 14 25  1  0  0  0  0
 15 24  1  0  0  0  0
 15 26  2  0  0  0  0
 16 25  2  0  0  0  0
 16 26  1  0  0  0  0
 17 30  2  0  0  0  0
 17 31  1  0  0  0  0
 18 32  1  0  0  0  0
 19 32  1  0  0  0  0
 19 33  2  0  0  0  0
 19 35  1  0  0  0  0
 20 22  2  0  0  0  0
 20 40  1  0  0  0  0
 21 23  2  0  0  0  0
 21 41  1  0  0  0  0
 22 52  1  0  0  0  0
 23 42  1  0  0  0  0
 24 56  1  0  0  0  0
 25 62  1  0  0  0  0
 26 73  1  0  0  0  0
 27 83  1  0  0  0  0
 28 84  1  0  0  0  0
 29 31  2  0  0  0  0
 29 83  1  0  0  0  0
 30 85  1  0  0  0  0
 31 86  1  0  0  0  0
 32 66  2  0  0  0  0
 33 67  1  0  0  0  0
 33 71  1  0  0  0  0
 34 53  1  0  0  0  0
 34 68  1  0  0  0  0
 34 77  2  0  0  0  0
 35 72  1  0  0  0  0
 35 78  2  0  0  0  0
 36 54  1  0  0  0  0
 36 74  1  0  0  0  0
 36 79  2  0  0  0  0
 37 63  1  0  0  0  0
 37 69  1  0  0  0  0
 37 80  2  0  0  0  0
 38 64  1  0  0  0  0
 38 75  1  0  0  0  0
 38 81  2  0  0  0  0
 39 70  1  0  0  0  0
 39 73  1  0  0  0  0
 39 82  2  0  0  0  0
 40 43  1  0  0  0  0
 41 54  1  0  0  0  0
 42 69  1  0  0  0  0
 43 46  1  0  0  0  0
 44 47  1  0  0  0  0
 44 49  1  0  0  0  0
 45 48  1  0  0  0  0
 45 50  1  0  0  0  0
 46 52  1  0  0  0  0
 47 53  1  0  0  0  0
 48 55  1  0  0  0  0
 49 68  1  0  0  0  0
 50 70  1  0  0  0  0
 51 55  1  0  0  0  0
 51 70  1  0  0  0  0
 52 74  1  0  0  0  0
 53 84  1  0  0  0  0
 54 69  1  0  0  0  0
 55 67  1  0  0  0  0
 57 64  1  0  0  0  0
 58 65  1  0  0  0  0
 59 65  1  0  0  0  0
 60 65  1  0  0  0  0
 61 76  1  0  0  0  0
 62 68  1  0  0  0  0
 63 65  1  0  0  0  0
 63 75  1  0  0  0  0
 64 76  1  0  0  0  0
 66 67  1  0  0  0  0
M  CHG  1  76   1
M  ISO  4  39 100  53 101  73 100  84 101
M  END
> <Batch ID>
0046

> <Smiles>
CNC(C)C(=O)NC(C(=O)N1Cc2cc([101O:1][101CH:1]3CCCN(Cc4cc(C)cc([100NH:0][100C:0](=O)N5CCCC(n6nc(-c7ccc(Oc8ccc(F)cc8F)cc7)c(C(N)=O)c6N)C5)c4)C3=O)ccc2CC1C(=O)NC1CCCc2ccccc21)C(C)(C)C

> <Shape>
0.210

> <Color>
0.084

> <Negative vol penalty>
0.000

$$$$

  -OEChem-04042322233D

 87 96  0     1  0  0  0  0  0999 V2000
  -25.8331  -35.1929   22.3909 C   0  0  0  0  0  0  0  0  0  0  0  0
  -26.4174  -33.9377   22.2553 C   0  0  0  0  0  0  0  0  0  0  0  0
  -25.1425  -16.5927   19.5356 C   0  0  0  0  0  0  0  0  0  0  0  0
  -25.3605  -16.0508   21.8800 C   0  0  0  0  0  0  0  0  0  0  0  0
  -24.5627  -35.3121   22.9529 C   0  0  0  0  0  0  0  0  0  0  0  0
  -25.7321  -32.8010   22.6827 C   0  0  0  0  0  0  0  0  0  0  0  0
  -25.9776  -29.0105   19.3335 C   0  0  0  0  0  0  0  0  0  0  0  0
  -33.3197  -21.5753   18.2584 C   0  0  0  0  0  0  0  0  0  0  0  0
  -23.8812  -15.9974   19.5153 C   0  0  0  0  0  0  0  0  0  0  0  0
  -24.0992  -15.4555   21.8596 C   0  0  0  0  0  0  0  0  0  0  0  0
  -27.1601  -28.2731   19.2919 C   0  0  0  0  0  0  0  0  0  0  0  0
  -22.7417  -12.5288   20.8485 C   0  0  0  0  0  0  0  0  0  0  0  0
  -22.5995  -11.2903   21.4742 C   0  0  0  0  0  0  0  0  0  0  0  0
  -33.6757  -21.0733   17.0067 C   0  0  0  0  0  0  0  0  0  0  0  0
  -26.1214  -26.5443   20.6153 C   0  0  0  0  0  0  0  0  0  0  0  0
  -33.1854  -23.2177   16.0073 C   0  0  0  0  0  0  0  0  0  0  0  0
  -20.9476  -12.2329   22.9641 C   0  0  0  0  0  0  0  0  0  0  0  0
  -25.8821  -16.6194   20.7180 C   0  0  0  0  0  0  0  0  0  0  0  0
  -28.3091  -16.8704   19.9734 C   0  0  0  0  0  0  0  0  0  0  0  0
  -23.8575  -34.1754   23.3786 C   0  0  0  0  0  0  0  0  0  0  0  0
  -24.8596  -28.5245   20.0266 C   0  0  0  0  0  0  0  0  0  0  0  0
  -24.4516  -32.9053   23.2522 C   0  0  0  0  0  0  0  0  0  0  0  0
  -24.9251  -27.2763   20.6620 C   0  0  0  0  0  0  0  0  0  0  0  0
  -32.8965  -22.8985   18.3847 C   0  0  0  0  0  0  0  0  0  0  0  0
  -32.8294  -23.7196   17.2591 C   0  0  0  0  0  0  0  0  0  0  0  0
  -23.3596  -15.4288   20.6772 C   0  0  0  0  0  0  0  0  0  0  0  0
  -27.2330  -27.0412   19.9354 C   0  0  0  0  0  0  0  0  0  0  0  0
  -21.9870  -13.6193   21.2806 C   0  0  0  0  0  0  0  0  0  0  0  0
  -21.7024  -11.1424   22.5320 C   0  0  0  0  0  0  0  0  0  0  0  0
  -21.0899  -13.4714   22.3384 C   0  0  0  0  0  0  0  0  0  0  0  0
  -33.6086  -21.8945   15.8811 C   0  0  0  0  0  0  0  0  0  0  0  0
  -27.1853  -17.2337   20.7395 C   0  0  0  0  0  0  0  0  0  0  0  0
  -29.2879  -17.7532   20.3597 C   0  0  0  0  0  0  0  0  0  0  0  0
  -30.3843  -25.8883   18.6571 C   0  0  0  0  0  0  0  0  0  0  0  0
  -28.4552  -15.8283   18.9997 C   0  0  0  0  0  0  0  0  0  0  0  0
  -23.1540  -29.5250   22.5153 C   0  0  0  0  0  0  0  0  0  0  0  0
  -21.2646  -27.0056   21.7373 C   0  0  0  0  0  0  0  0  0  0  0  0
  -21.7357  -23.5853   20.6901 C   0  0  0  0  0  0  0  0  0  0  0  0
  -30.9563  -22.9321   21.6012 C   0  0  0  0  0  0  0  0  0  0  0  0
  -22.5064  -34.3586   24.0234 C   0  0  0  0  0  0  0  0  0  0  0  0
  -23.5830  -29.3198   20.0394 C   0  0  0  0  0  0  0  0  0  0  0  0
  -23.7466  -26.7006   21.4026 C   0  0  0  0  0  0  0  0  0  0  0  0
  -21.6919  -33.0703   24.1075 C   0  0  0  0  0  0  0  0  0  0  0  0
  -28.8549  -24.0514   16.9227 C   0  0  0  0  0  0  0  0  0  0  0  0
  -29.4264  -21.0411   24.2012 C   0  0  0  0  0  0  0  0  0  0  0  0
  -22.5557  -31.9256   24.6275 C   0  0  0  0  0  0  0  0  0  0  0  0
  -28.3165  -24.5576   18.2596 C   0  0  0  0  0  0  0  0  0  0  0  0
  -28.7948  -19.8561   23.4686 C   0  0  0  0  0  0  0  0  0  0  0  0
  -30.0844  -24.8171   16.4419 C   0  0  0  0  0  0  0  0  0  0  0  0
  -29.3406  -22.3243   23.3779 C   0  0  0  0  0  0  0  0  0  0  0  0
  -29.2542  -21.0360   21.2787 C   0  0  0  0  0  0  0  0  0  0  0  0
  -23.7296  -31.6464   23.6812 C   0  0  1  0  0  0  0  0  0  0  0  0
  -28.8626  -25.9332   18.6202 C   0  0  1  0  0  0  0  0  0  1  0  0
  -22.6693  -28.9643   21.2082 C   0  0  1  0  0  0  0  0  0  0  0  0
  -29.3663  -19.7073   22.0457 C   0  0  2  0  0  0  0  0  0  0  0  0
  -20.2629  -22.0789   19.3266 C   0  0  0  0  0  0  0  0  0  0  0  0
  -20.2179  -26.0607   24.4432 C   0  0  0  0  0  0  0  0  0  0  0  0
  -20.1140  -23.7383   23.5137 C   0  0  0  0  0  0  0  0  0  0  0  0
  -18.7201  -25.5460   22.5077 C   0  0  0  0  0  0  0  0  0  0  0  0
  -23.8952  -23.0470   18.7392 C   0  0  0  0  0  0  0  0  0  0  0  0
  -32.3754  -25.1464   17.3703 C   0  0  0  0  0  0  0  0  0  0  0  0
  -32.5196  -23.4138   19.7348 C   0  0  0  0  0  0  0  0  0  0  0  0
  -21.2184  -25.5458   22.1194 C   0  0  1  0  0  0  0  0  0  0  0  0
  -21.4641  -23.0114   19.3112 C   0  0  2  0  0  0  0  0  0  0  0  0
  -20.0920  -25.2373   23.1458 C   0  0  0  0  0  0  0  0  0  0  0  0
  -27.4266  -18.2667   21.5512 N   0  0  0  0  0  0  0  0  0  0  0  0
  -28.7133  -18.5600   21.2973 N   0  0  0  0  0  0  0  0  0  0  0  0
  -30.9362  -25.2472   17.5447 N   0  0  0  0  0  0  0  0  0  0  0  0
  -22.5228  -27.5189   21.3918 N   0  0  0  0  0  0  0  0  0  0  0  0
  -29.9006  -22.1162   22.0403 N   0  0  0  0  0  0  0  0  0  0  0  0
  -30.5754  -17.9103   19.9854 N   0  0  0  0  0  0  0  0  0  0  0  0
  -27.3495  -15.0127   18.7229 N   0  0  0  0  0  0  0  0  0  0  0  0
  -23.2804  -30.9010   22.5248 N   0  0  0  0  0  0  0  0  0  0  0  0
  -21.1091  -24.8002   20.8702 N   0  0  0  0  0  0  0  0  0  0  0  0
  -31.4325  -22.6639   20.3236 N   0  0  0  0  0  0  0  0  0  0  0  0
  -22.6472  -22.2458   18.8265 N   0  3  0  0  0  0  0  0  0  0  0  0
  -31.0295  -26.3849   19.5786 O   0  0  0  0  0  0  0  0  0  0  0  0
  -29.5390  -15.6157   18.4050 O   0  0  0  0  0  0  0  0  0  0  0  0
  -23.3940  -28.7656   23.4466 O   0  0  0  0  0  0  0  0  0  0  0  0
  -20.2217  -27.6643   21.7383 O   0  0  0  0  0  0  0  0  0  0  0  0
  -22.4310  -23.0112   21.5253 O   0  0  0  0  0  0  0  0  0  0  0  0
  -31.4423  -23.8293   22.2981 O   0  0  0  0  0  0  0  0  0  0  0  0
  -22.1288  -14.8480   20.6578 O   0  0  0  0  0  0  0  0  0  0  0  0
  -28.3862  -26.3197   19.8969 O   0  0  0  0  0  0  0  0  0  1  0  0
  -21.5647   -9.9526   23.1318 F   0  0  0  0  0  0  0  0  0  0  0  0
  -20.3612  -14.5151   22.7572 F   0  0  0  0  0  0  0  0  0  0  0  0
  -34.0461  -21.2744   14.3369 Cl  0  0  0  0  0  0  0  0  0  0  0  0
  1  2  1  0  0  0  0
  1  5  2  0  0  0  0
  2  6  2  0  0  0  0
  3  9  2  0  0  0  0
  3 18  1  0  0  0  0
  4 10  1  0  0  0  0
  4 18  2  0  0  0  0
  5 20  1  0  0  0  0
  6 22  1  0  0  0  0
  7 11  2  0  0  0  0
  7 21  1  0  0  0  0
  8 14  2  0  0  0  0
  8 24  1  0  0  0  0
  9 26  1  0  0  0  0
 10 26  2  0  0  0  0
 11 27  1  0  0  0  0
 12 13  2  0  0  0  0
 12 28  1  0  0  0  0
 13 29  1  0  0  0  0
 14 31  1  0  0  0  0
 15 23  1  0  0  0  0
 15 27  2  0  0  0  0
 16 25  1  0  0  0  0
 16 31  2  0  0  0  0
 17 29  2  0  0  0  0
 17 30  1  0  0  0  0
 18 32  1  0  0  0  0
 19 32  1  0  0  0  0
 19 33  2  0  0  0  0
 19 35  1  0  0  0  0
 20 22  2  0  0  0  0
 20 40  1  0  0  0  0
 21 23  2  0  0  0  0
 21 41  1  0  0  0  0
 22 52  1  0  0  0  0
 23 42  1  0  0  0  0
 24 25  2  0  0  0  0
 24 62  1  0  0  0  0
 25 61  1  0  0  0  0
 26 83  1  0  0  0  0
 27 84  1  0  0  0  0
 28 30  2  0  0  0  0
 28 83  1  0  0  0  0
 29 85  1  0  0  0  0
 30 86  1  0  0  0  0
 31 87  1  0  0  0  0
 32 66  2  0  0  0  0
 33 67  1  0  0  0  0
 33 71  1  0  0  0  0
 34 53  1  0  0  0  0
 34 68  1  0  0  0  0
 34 77  2  0  0  0  0
 35 72  1  0  0  0  0
 35 78  2  0  0  0  0
 36 54  1  0  0  0  0
 36 73  1  0  0  0  0
 36 79  2  0  0  0  0
 37 63  1  0  0  0  0
 37 69  1  0  0  0  0
 37 80  2  0  0  0  0
 38 64  1  0  0  0  0
 38 74  1  0  0  0  0
 38 81  2  0  0  0  0
 39 70  1  0  0  0  0
 39 75  1  0  0  0  0
 39 82  2  0  0  0  0
 40 43  1  0  0  0  0
 41 54  1  0  0  0  0
 42 69  1  0  0  0  0
 43 46  1  0  0  0  0
 44 47  1  0  0  0  0
 44 49  1  0  0  0  0
 45 48  1  0  0  0  0
 45 50  1  0  0  0  0
 46 52  1  0  0  0  0
 47 53  1  0  0  0  0
 48 55  1  0  0  0  0
 49 68  1  0  0  0  0
 50 70  1  0  0  0  0
 51 55  1  0  0  0  0
 51 70  1  0  0  0  0
 52 73  1  0  0  0  0
 53 84  1  0  0  0  0
 54 69  1  0  0  0  0
 55 67  1  0  0  0  0
 56 64  1  0  0  0  0
 57 65  1  0  0  0  0
 58 65  1  0  0  0  0
 59 65  1  0  0  0  0
 60 76  1  0  0  0  0
 61 68  1  0  0  0  0
 62 75  1  0  0  0  0
 63 65  1  0  0  0  0
 63 74  1  0  0  0  0
 64 76  1  0  0  0  0
 66 67  1  0  0  0  0
M  CHG  1  76   1
M  ISO  4  39 100  53 101  75 100  84 101
M  END
> <Batch ID>
0046

> <Smiles>
CNC(C)C(=O)NC(C(=O)N1Cc2cc([101O:1][101CH:1]3CCCN(Cc4cc(Cl)ccc4C[100NH:0][100C:0](=O)N4CCCC(n5nc(-c6ccc(Oc7ccc(F)cc7F)cc6)c(C(N)=O)c5N)C4)C3=O)ccc2CC1C(=O)NC1CCCc2ccccc21)C(C)(C)C

> <Shape>
0.233

> <Color>
0.091

> <Negative vol penalty>
0.000

$$$$

  -OEChem-04042322233D

 87 96  0     1  0  0  0  0  0999 V2000
  -16.5337  -29.8951   22.8473 C   0  0  0  0  0  0  0  0  0  0  0  0
  -17.5191  -30.7313   23.3622 C   0  0  0  0  0  0  0  0  0  0  0  0
  -27.1609  -15.8895   22.9798 C   0  0  0  0  0  0  0  0  0  0  0  0
  -24.8578  -16.4744   22.5434 C   0  0  0  0  0  0  0  0  0  0  0  0
  -16.8528  -28.5895   22.4766 C   0  0  0  0  0  0  0  0  0  0  0  0
  -18.8241  -30.2620   23.5076 C   0  0  0  0  0  0  0  0  0  0  0  0
  -25.6249  -32.4935   23.2137 C   0  0  0  0  0  0  0  0  0  0  0  0
  -27.0567  -14.8176   22.0934 C   0  0  0  0  0  0  0  0  0  0  0  0
  -24.7536  -15.4025   21.6569 C   0  0  0  0  0  0  0  0  0  0  0  0
  -26.7961  -32.4814   23.9700 C   0  0  0  0  0  0  0  0  0  0  0  0
  -25.7890  -11.6844   22.1123 C   0  0  0  0  0  0  0  0  0  0  0  0
  -26.3169  -10.4578   22.5150 C   0  0  0  0  0  0  0  0  0  0  0  0
  -27.2485  -30.2329   23.2222 C   0  0  0  0  0  0  0  0  0  0  0  0
  -32.0413  -25.7786   27.6981 C   0  0  0  0  0  0  0  0  0  0  0  0
  -30.1306  -25.7881   26.2196 C   0  0  0  0  0  0  0  0  0  0  0  0
  -27.8184  -10.4826   20.6223 C   0  0  0  0  0  0  0  0  0  0  0  0
  -26.0614  -16.7179   23.2049 C   0  0  0  0  0  0  0  0  0  0  0  0
  -26.4815  -17.7665   25.4922 C   0  0  0  0  0  0  0  0  0  0  0  0
  -18.1644  -28.1070   22.6086 C   0  0  0  0  0  0  0  0  0  0  0  0
  -25.2505  -31.3696   22.4633 C   0  0  0  0  0  0  0  0  0  0  0  0
  -19.1608  -28.9482   23.1396 C   0  0  0  0  0  0  0  0  0  0  0  0
  -26.0734  -30.2343   22.4552 C   0  0  0  0  0  0  0  0  0  0  0  0
  -31.2663  -26.4170   26.7298 C   0  0  0  0  0  0  0  0  0  0  0  0
  -31.6806  -24.5114   28.1560 C   0  0  0  0  0  0  0  0  0  0  0  0
  -29.7698  -24.5209   26.6775 C   0  0  0  0  0  0  0  0  0  0  0  0
  -25.8531  -14.5741   21.4319 C   0  0  0  0  0  0  0  0  0  0  0  0
  -27.6066  -31.3499   23.9766 C   0  0  0  0  0  0  0  0  0  0  0  0
  -26.2757  -12.3102   20.9646 C   0  0  0  0  0  0  0  0  0  0  0  0
  -27.3316   -9.8569   21.7700 C   0  0  0  0  0  0  0  0  0  0  0  0
  -27.2904  -11.7093   20.2196 C   0  0  0  0  0  0  0  0  0  0  0  0
  -30.5448  -23.8826   27.6458 C   0  0  0  0  0  0  0  0  0  0  0  0
  -26.1682  -17.8249   24.1209 C   0  0  0  0  0  0  0  0  0  0  0  0
  -26.4575  -19.0759   25.9059 C   0  0  0  0  0  0  0  0  0  0  0  0
  -30.0094  -29.4100   25.3937 C   0  0  0  0  0  0  0  0  0  0  0  0
  -26.7685  -16.6301   26.3180 C   0  0  0  0  0  0  0  0  0  0  0  0
  -22.7726  -29.3788   22.4896 C   0  0  0  0  0  0  0  0  0  0  0  0
  -24.1899  -28.1994   19.8208 C   0  0  0  0  0  0  0  0  0  0  0  0
  -27.5467  -27.4386   18.7391 C   0  0  0  0  0  0  0  0  0  0  0  0
  -27.7528  -24.4411   25.1704 C   0  0  0  0  0  0  0  0  0  0  0  0
  -18.4512  -26.6733   22.2386 C   0  0  0  0  0  0  0  0  0  0  0  0
  -23.9978  -31.4083   21.6317 C   0  0  0  0  0  0  0  0  0  0  0  0
  -25.7265  -29.0092   21.6507 C   0  0  0  0  0  0  0  0  0  0  0  0
  -19.9387  -26.3724   22.0745 C   0  0  0  0  0  0  0  0  0  0  0  0
  -29.1840  -29.9930   28.1443 C   0  0  0  0  0  0  0  0  0  0  0  0
  -24.8161  -23.2451   23.5509 C   0  0  0  0  0  0  0  0  0  0  0  0
  -20.7332  -26.9574   23.2378 C   0  0  0  0  0  0  0  0  0  0  0  0
  -28.9984  -31.0390   27.0650 C   0  0  0  0  0  0  0  0  0  0  0  0
  -24.9318  -21.7235   23.6677 C   0  0  0  0  0  0  0  0  0  0  0  0
  -30.4444  -29.1929   27.8687 C   0  0  0  0  0  0  0  0  0  0  0  0
  -26.1770  -23.9018   23.3262 C   0  0  0  0  0  0  0  0  0  0  0  0
  -27.3261  -22.0178   24.4213 C   0  0  0  0  0  0  0  0  0  0  0  0
  -20.5932  -28.4836   23.2894 C   0  0  1  0  0  0  0  0  0  0  0  0
  -28.8534  -30.3455   25.7247 C   0  0  1  0  0  0  0  0  0  1  0  0
  -23.4497  -30.0209   21.3120 C   0  0  1  0  0  0  0  0  0  0  0  0
  -25.9890  -21.3173   24.7131 C   0  0  2  0  0  0  0  0  0  0  0  0
  -32.5415  -23.8657   29.1940 C   0  0  0  0  0  0  0  0  0  0  0  0
  -28.5424  -27.3685   16.4367 C   0  0  0  0  0  0  0  0  0  0  0  0
  -23.5252  -25.2238   19.9386 C   0  0  0  0  0  0  0  0  0  0  0  0
  -25.6795  -24.7665   18.7478 C   0  0  0  0  0  0  0  0  0  0  0  0
  -23.9031  -26.1178   17.6338 C   0  0  0  0  0  0  0  0  0  0  0  0
  -29.6786  -29.3542   19.4767 C   0  0  0  0  0  0  0  0  0  0  0  0
  -31.6546  -27.7814   26.2380 C   0  0  0  0  0  0  0  0  0  0  0  0
  -25.2190  -27.1311   19.5400 C   0  0  1  0  0  0  0  0  0  0  0  0
  -28.3601  -28.1920   17.7021 C   0  0  2  0  0  0  0  0  0  0  0  0
  -24.5815  -25.8242   18.9896 C   0  0  0  0  0  0  0  0  0  0  0  0
  -25.9604  -19.0727   23.6922 N   0  0  0  0  0  0  0  0  0  0  0  0
  -26.1433  -19.8105   24.8005 N   0  0  0  0  0  0  0  0  0  0  0  0
  -30.6078  -28.7657   26.4781 N   0  0  0  0  0  0  0  0  0  0  0  0
  -24.4883  -29.0936   20.8587 N   0  0  0  0  0  0  0  0  0  0  0  0
  -27.1257  -23.4740   24.3566 N   0  0  0  0  0  0  0  0  0  0  0  0
  -26.6748  -19.6592   27.1038 N   0  0  0  0  0  0  0  0  0  0  0  0
  -26.7507  -15.3570   25.7323 N   0  0  0  0  0  0  0  0  0  0  0  0
  -28.6095  -23.9140   26.1363 N   0  0  0  0  0  0  0  0  0  0  0  0
  -21.4339  -29.1024   22.2870 N   0  0  0  0  0  0  0  0  0  0  0  0
  -26.2034  -27.7367   18.6498 N   0  0  0  0  0  0  0  0  0  0  0  0
  -29.7077  -28.5262   18.2436 N   0  3  0  0  0  0  0  0  0  0  0  0
  -30.3214  -29.2113   24.2167 O   0  0  0  0  0  0  0  0  0  0  0  0
  -27.0169  -16.7391   27.5428 O   0  0  0  0  0  0  0  0  0  0  0  0
  -23.4173  -29.1497   23.5063 O   0  0  0  0  0  0  0  0  0  0  0  0
  -23.1625  -28.2433   19.1396 O   0  0  0  0  0  0  0  0  0  0  0  0
  -28.0520  -26.6604   19.5451 O   0  0  0  0  0  0  0  0  0  0  0  0
  -27.5242  -25.6463   25.0394 O   0  0  0  0  0  0  0  0  0  0  0  0
  -25.7511  -13.5284   20.5666 O   0  0  0  0  0  0  0  0  0  0  0  0
  -28.7499  -31.3352   24.7144 O   0  0  0  0  0  0  0  0  0  1  0  0
  -27.8395   -8.6796   22.1576 F   0  0  0  0  0  0  0  0  0  0  0  0
  -27.7629  -12.3063   19.1168 F   0  0  0  0  0  0  0  0  0  0  0  0
  -30.1022  -22.3074   28.2188 Cl  0  0  0  0  0  0  0  0  0  0  0  0
  1  2  1  0  0  0  0
  1  5  2  0  0  0  0
  2  6  2  0  0  0  0
  3  8  2  0  0  0  0
  3 17  1  0  0  0  0
  4  9  1  0  0  0  0
  4 17  2  0  0  0  0
  5 19  1  0  0  0  0
  6 21  1  0  0  0  0
  7 10  2  0  0  0  0
  7 20  1  0  0  0  0
  8 26  1  0  0  0  0
  9 26  2  0  0  0  0
 10 27  1  0  0  0  0
 11 12  2  0  0  0  0
 11 28  1  0  0  0  0
 12 29  1  0  0  0  0
 13 22  1  0  0  0  0
 13 27  2  0  0  0  0
 14 23  1  0  0  0  0
 14 24  2  0  0  0  0
 15 23  2  0  0  0  0
 15 25  1  0  0  0  0
 16 29  2  0  0  0  0
 16 30  1  0  0  0  0
 17 32  1  0  0  0  0
 18 32  1  0  0  0  0
 18 33  2  0  0  0  0
 18 35  1  0  0  0  0
 19 21  2  0  0  0  0
 19 40  1  0  0  0  0
 20 22  2  0  0  0  0
 20 41  1  0  0  0  0
 21 52  1  0  0  0  0
 22 42  1  0  0  0  0
 23 62  1  0  0  0  0
 24 31  1  0  0  0  0
 24 56  1  0  0  0  0
 25 31  2  0  0  0  0
 25 73  1  0  0  0  0
 26 83  1  0  0  0  0
 27 84  1  0  0  0  0
 28 30  2  0  0  0  0
 28 83  1  0  0  0  0
 29 85  1  0  0  0  0
 30 86  1  0  0  0  0
 31 87  1  0  0  0  0
 32 66  2  0  0  0  0
 33 67  1  0  0  0  0
 33 71  1  0  0  0  0
 34 53  1  0  0  0  0
 34 68  1  0  0  0  0
 34 77  2  0  0  0  0
 35 72  1  0  0  0  0
 35 78  2  0  0  0  0
 36 54  1  0  0  0  0
 36 74  1  0  0  0  0
 36 79  2  0  0  0  0
 37 63  1  0  0  0  0
 37 69  1  0  0  0  0
 37 80  2  0  0  0  0
 38 64  1  0  0  0  0
 38 75  1  0  0  0  0
 38 81  2  0  0  0  0
 39 70  1  0  0  0  0
 39 73  1  0  0  0  0
 39 82  2  0  0  0  0
 40 43  1  0  0  0  0
 41 54  1  0  0  0  0
 42 69  1  0  0  0  0
 43 46  1  0  0  0  0
 44 47  1  0  0  0  0
 44 49  1  0  0  0  0
 45 48  1  0  0  0  0
 45 50  1  0  0  0  0
 46 52  1  0  0  0  0
 47 53  1  0  0  0  0
 48 55  1  0  0  0  0
 49 68  1  0  0  0  0
 50 70  1  0  0  0  0
 51 55  1  0  0  0  0
 51 70  1  0  0  0  0
 52 74  1  0  0  0  0
 53 84  1  0  0  0  0
 54 69  1  0  0  0  0
 55 67  1  0  0  0  0
 57 64  1  0  0  0  0
 58 65  1  0  0  0  0
 59 65  1  0  0  0  0
 60 65  1  0  0  0  0
 61 76  1  0  0  0  0
 62 68  1  0  0  0  0
 63 65  1  0  0  0  0
 63 75  1  0  0  0  0
 64 76  1  0  0  0  0
 66 67  1  0  0  0  0
M  CHG  1  76   1
M  ISO  4  39 100  53 101  73 100  84 101
M  END
> <Batch ID>
0046

> <Smiles>
CNC(C)C(=O)NC(C(=O)N1Cc2cc([101O:1][101CH:1]3CCCN(Cc4cc(C)c(Cl)c([100NH:0][100C:0](=O)N5CCCC(n6nc(-c7ccc(Oc8ccc(F)cc8F)cc7)c(C(N)=O)c6N)C5)c4)C3=O)ccc2CC1C(=O)NC1CCCc2ccccc21)C(C)(C)C

> <Shape>
0.203

> <Color>
0.097

> <Negative vol penalty>
0.000

$$$$

  -OEChem-04042322233D

 88 97  0     1  0  0  0  0  0999 V2000
  -28.6283  -37.6294   20.8223 C   0  0  0  0  0  0  0  0  0  0  0  0
  -28.7636  -36.4782   20.0530 C   0  0  0  0  0  0  0  0  0  0  0  0
  -23.4716  -16.7355   21.1014 C   0  0  0  0  0  0  0  0  0  0  0  0
  -25.1538  -16.2698   22.7718 C   0  0  0  0  0  0  0  0  0  0  0  0
  -28.2863  -37.5294   22.1702 C   0  0  0  0  0  0  0  0  0  0  0  0
  -28.5580  -35.2262   20.6315 C   0  0  0  0  0  0  0  0  0  0  0  0
  -26.1095  -28.6814   19.0543 C   0  0  0  0  0  0  0  0  0  0  0  0
  -23.1262  -17.9067   21.7757 C   0  0  0  0  0  0  0  0  0  0  0  0
  -24.8085  -17.4410   23.4461 C   0  0  0  0  0  0  0  0  0  0  0  0
  -26.4884  -27.3420   19.1322 C   0  0  0  0  0  0  0  0  0  0  0  0
  -22.3703  -18.4808   25.5448 C   0  0  0  0  0  0  0  0  0  0  0  0
  -22.2279  -18.4127   26.9307 C   0  0  0  0  0  0  0  0  0  0  0  0
  -25.8236  -27.2950   21.4506 C   0  0  0  0  0  0  0  0  0  0  0  0
  -30.1776  -18.5818   20.2091 C   0  0  0  0  0  0  0  0  0  0  0  0
  -31.9821  -17.6677   21.5302 C   0  0  0  0  0  0  0  0  0  0  0  0
  -23.9818  -20.0537   27.1915 C   0  0  0  0  0  0  0  0  0  0  0  0
  -24.4854  -15.9171   21.5994 C   0  0  0  0  0  0  0  0  0  0  0  0
  -24.0074  -13.6075   20.6272 C   0  0  0  0  0  0  0  0  0  0  0  0
  -28.0669  -36.2761   22.7632 C   0  0  0  0  0  0  0  0  0  0  0  0
  -25.5940  -29.3419   20.1789 C   0  0  0  0  0  0  0  0  0  0  0  0
  -28.2140  -35.1093   21.9890 C   0  0  0  0  0  0  0  0  0  0  0  0
  -25.4365  -28.6421   21.3837 C   0  0  0  0  0  0  0  0  0  0  0  0
  -30.5984  -19.8729   20.5277 C   0  0  0  0  0  0  0  0  0  0  0  0
  -31.7111  -20.0615   21.3474 C   0  0  0  0  0  0  0  0  0  0  0  0
  -30.8694  -17.4792   20.7104 C   0  0  0  0  0  0  0  0  0  0  0  0
  -23.7947  -18.2595   22.9480 C   0  0  0  0  0  0  0  0  0  0  0  0
  -26.3482  -26.6494   20.3312 C   0  0  0  0  0  0  0  0  0  0  0  0
  -23.3185  -19.3353   24.9823 C   0  0  0  0  0  0  0  0  0  0  0  0
  -23.0336  -19.1991   27.7541 C   0  0  0  0  0  0  0  0  0  0  0  0
  -24.1242  -20.1217   25.8056 C   0  0  0  0  0  0  0  0  0  0  0  0
  -32.4030  -18.9589   21.8487 C   0  0  0  0  0  0  0  0  0  0  0  0
  -24.8422  -14.7068   20.9036 C   0  0  0  0  0  0  0  0  0  0  0  0
  -24.8143  -12.7249   19.9518 C   0  0  0  0  0  0  0  0  0  0  0  0
  -28.6598  -23.0750   20.6048 C   0  0  0  0  0  0  0  0  0  0  0  0
  -29.3249  -24.0480   21.2502 C   0  0  0  0  0  0  0  0  0  0  0  0
  -22.6260  -13.4026   20.9519 C   0  0  0  0  0  0  0  0  0  0  0  0
  -26.5035  -31.8347   21.9289 C   0  0  0  0  0  0  0  0  0  0  0  0
  -23.6402  -31.3658   23.3795 C   0  0  0  0  0  0  0  0  0  0  0  0
  -21.0984  -29.2222   24.1481 C   0  0  0  0  0  0  0  0  0  0  0  0
  -29.3571  -15.7938   19.5872 C   0  0  0  0  0  0  0  0  0  0  0  0
  -27.7452  -36.2159   24.2355 C   0  0  0  0  0  0  0  0  0  0  0  0
  -25.1650  -30.7795   20.0712 C   0  0  0  0  0  0  0  0  0  0  0  0
  -24.8694  -29.2997   22.6143 C   0  0  0  0  0  0  0  0  0  0  0  0
  -27.1777  -34.8705   24.6804 C   0  0  0  0  0  0  0  0  0  0  0  0
  -29.5829  -11.9597   19.9262 C   0  0  0  0  0  0  0  0  0  0  0  0
  -26.6624  -21.0512   20.2471 C   0  0  0  0  0  0  0  0  0  0  0  0
  -28.0070  -33.7255   24.1075 C   0  0  0  0  0  0  0  0  0  0  0  0
  -26.3414  -22.5008   19.8919 C   0  0  0  0  0  0  0  0  0  0  0  0
  -28.0839  -11.8720   20.1839 C   0  0  0  0  0  0  0  0  0  0  0  0
  -30.0661  -13.3972   20.0978 C   0  0  0  0  0  0  0  0  0  0  0  0
  -28.1534  -13.8722   18.5655 C   0  0  0  0  0  0  0  0  0  0  0  0
  -27.7076  -20.9643   21.3523 C   0  0  0  0  0  0  0  0  0  0  0  0
  -27.9748  -33.7345   22.5744 C   0  0  1  0  0  0  0  0  0  0  0  0
  -27.6099  -23.2856   19.5249 C   0  0  1  0  0  0  0  0  0  0  0  0
  -25.1318  -31.4956   21.4179 C   0  0  1  0  0  0  0  0  0  0  0  0
  -27.2903  -12.7708   19.2146 C   0  0  2  0  0  0  0  0  0  0  0  0
  -32.1490  -21.4539   21.6808 C   0  0  0  0  0  0  0  0  0  0  0  0
  -18.9133  -29.1180   25.3778 C   0  0  0  0  0  0  0  0  0  0  0  0
  -25.1414  -31.2746   26.0343 C   0  0  0  0  0  0  0  0  0  0  0  0
  -23.1077  -30.2442   27.0691 C   0  0  0  0  0  0  0  0  0  0  0  0
  -22.9845  -32.5388   26.0984 C   0  0  0  0  0  0  0  0  0  0  0  0
  -19.6104  -28.5407   21.6823 C   0  0  0  0  0  0  0  0  0  0  0  0
  -29.8354  -21.0409   19.9757 C   0  0  0  0  0  0  0  0  0  0  0  0
  -27.2419  -24.7427   19.2259 C   0  0  0  0  0  0  0  0  0  1  0  0
  -23.1571  -30.5463   24.5517 C   0  0  1  0  0  0  0  0  0  0  0  0
  -19.5911  -29.3668   24.0393 C   0  0  2  0  0  0  0  0  0  0  0  0
  -23.6102  -31.1388   25.9159 C   0  0  0  0  0  0  0  0  0  0  0  0
  -26.0843  -14.5400   20.4417 N   0  0  0  0  0  0  0  0  0  0  0  0
  -26.0360  -13.3256   19.8683 N   0  0  0  0  0  0  0  0  0  0  0  0
  -24.4703  -30.7084   22.4605 N   0  0  0  0  0  0  0  0  0  0  0  0
  -29.1932  -14.3919   19.4573 N   0  0  0  0  0  0  0  0  0  0  0  0
  -24.5911  -11.5012   19.4272 N   0  0  0  0  0  0  0  0  0  0  0  0
  -22.3102  -12.7893   22.1719 N   0  0  0  0  0  0  0  0  0  0  0  0
  -30.4409  -16.1671   20.3866 N   0  0  0  0  0  0  0  0  0  0  0  0
  -26.7242  -33.1890   22.0919 N   0  0  0  0  0  0  0  0  0  0  0  0
  -21.7105  -30.4316   24.4009 N   0  0  0  0  0  0  0  0  0  0  0  0
  -28.9686  -21.7167   21.0023 N   0  3  1  0  0  0  0  0  0  0  0  0
  -19.0476  -28.3945   23.0493 N   0  3  0  0  0  0  0  0  0  0  0  0
  -21.6996  -13.7381   20.1755 O   0  0  0  0  0  0  0  0  0  0  0  0
  -27.3019  -30.9342   22.1597 O   0  0  0  0  0  0  0  0  0  0  0  0
  -23.2881  -32.5438   23.2790 O   0  0  0  0  0  0  0  0  0  0  0  0
  -21.6747  -28.1437   24.0251 O   0  0  0  0  0  0  0  0  0  0  0  0
  -28.5979  -16.5891   19.0297 O   0  0  0  0  0  0  0  0  0  0  0  0
  -23.4581  -19.4023   23.6062 O   0  0  0  0  0  0  0  0  0  0  0  0
  -26.7179  -25.3421   20.4102 O   0  0  0  0  0  0  0  0  0  1  0  0
  -22.8957  -19.1348   29.0849 F   0  0  0  0  0  0  0  0  0  0  0  0
  -25.0361  -20.9454   25.2710 F   0  0  0  0  0  0  0  0  0  0  0  0
  -33.7862  -19.1496   22.8644 Cl  0  0  0  0  0  0  0  0  0  0  0  0
  1  2  1  0  0  0  0
  1  5  2  0  0  0  0
  2  6  2  0  0  0  0
  3  8  2  0  0  0  0
  3 17  1  0  0  0  0
  4  9  1  0  0  0  0
  4 17  2  0  0  0  0
  5 19  1  0  0  0  0
  6 21  1  0  0  0  0
  7 10  2  0  0  0  0
  7 20  1  0  0  0  0
  8 26  1  0  0  0  0
  9 26  2  0  0  0  0
 10 27  1  0  0  0  0
 11 12  2  0  0  0  0
 11 28  1  0  0  0  0
 12 29  1  0  0  0  0
 13 22  1  0  0  0  0
 13 27  2  0  0  0  0
 14 23  1  0  0  0  0
 14 25  2  0  0  0  0
 15 25  1  0  0  0  0
 15 31  2  0  0  0  0
 16 29  2  0  0  0  0
 16 30  1  0  0  0  0
 17 32  1  0  0  0  0
 18 32  1  0  0  0  0
 18 33  2  0  0  0  0
 18 36  1  0  0  0  0
 19 21  2  0  0  0  0
 19 41  1  0  0  0  0
 20 22  2  0  0  0  0
 20 42  1  0  0  0  0
 21 53  1  0  0  0  0
 22 43  1  0  0  0  0
 23 24  2  0  0  0  0
 23 63  1  0  0  0  0
 24 31  1  0  0  0  0
 24 57  1  0  0  0  0
 25 74  1  0  0  0  0
 26 84  1  0  0  0  0
 27 85  1  0  0  0  0
 28 30  2  0  0  0  0
 28 84  1  0  0  0  0
 29 86  1  0  0  0  0
 30 87  1  0  0  0  0
 31 88  1  0  0  0  0
 32 68  2  0  0  0  0
 33 69  1  0  0  0  0
 33 72  1  0  0  0  0
 34 35  2  0  0  0  0
 34 54  1  0  0  0  0
 34 77  1  0  0  0  0
 36 73  1  0  0  0  0
 36 79  2  0  0  0  0
 37 55  1  0  0  0  0
 37 75  1  0  0  0  0
 37 80  2  0  0  0  0
 38 65  1  0  0  0  0
 38 70  1  0  0  0  0
 38 81  2  0  0  0  0
 39 66  1  0  0  0  0
 39 76  1  0  0  0  0
 39 82  2  0  0  0  0
 40 71  1  0  0  0  0
 40 74  1  0  0  0  0
 40 83  2  0  0  0  0
 41 44  1  0  0  0  0
 42 55  1  0  0  0  0
 43 70  1  0  0  0  0
 44 47  1  0  0  0  0
 45 49  1  0  0  0  0
 45 50  1  0  0  0  0
 46 48  1  0  0  0  0
 46 52  1  0  0  0  0
 47 53  1  0  0  0  0
 48 54  1  0  0  0  0
 49 56  1  0  0  0  0
 50 71  1  0  0  0  0
 51 56  1  0  0  0  0
 51 71  1  0  0  0  0
 52 77  1  0  0  0  0
 53 75  1  0  0  0  0
 54 64  1  0  0  0  0
 55 70  1  0  0  0  0
 56 69  1  0  0  0  0
 58 66  1  0  0  0  0
 59 67  1  0  0  0  0
 60 67  1  0  0  0  0
 61 67  1  0  0  0  0
 62 78  1  0  0  0  0
 63 77  1  0  0  0  0
 64 85  1  0  0  0  0
 65 67  1  0  0  0  0
 65 76  1  0  0  0  0
 66 78  1  0  0  0  0
 68 69  1  0  0  0  0
M  CHG  2  77   1  78   1
M  ISO  4  40 100  64 101  74 100  85 101
M  END
> <Batch ID>
0046

> <Smiles>
C=C1C([101CH2:1][101O:1]c2ccc3c(c2)CN(C(=O)C(NC(=O)C(C)NC)C(C)(C)C)C(C(=O)NC2CCCc4ccccc42)C3)CCCN1Cc1cc([100NH:0][100C:0](=O)N2CCCC(n3nc(-c4ccc(Oc5ccc(F)cc5F)cc4)c(C(N)=O)c3N)C2)cc(Cl)c1C

> <Shape>
0.264

> <Color>
0.097

> <Negative vol penalty>
0.000

$$$$

  -OEChem-04042322233D

 86 94  0     1  0  0  0  0  0999 V2000
  -25.8968  -37.5268   21.4549 C   0  0  0  0  0  0  0  0  0  0  0  0
  -26.5279  -36.3981   20.9418 C   0  0  0  0  0  0  0  0  0  0  0  0
  -31.8258  -18.9585   19.0133 C   0  0  0  0  0  0  0  0  0  0  0  0
  -22.8116  -12.8952   23.0963 C   0  0  0  0  0  0  0  0  0  0  0  0
  -22.6953  -14.7937   21.6066 C   0  0  0  0  0  0  0  0  0  0  0  0
  -25.1913  -37.4447   22.6547 C   0  0  0  0  0  0  0  0  0  0  0  0
  -26.4548  -35.1869   21.6289 C   0  0  0  0  0  0  0  0  0  0  0  0
  -26.1911  -29.5779   19.1844 C   0  0  0  0  0  0  0  0  0  0  0  0
  -30.9774  -19.7384   18.2275 C   0  0  0  0  0  0  0  0  0  0  0  0
  -31.4457  -17.6677   19.3807 C   0  0  0  0  0  0  0  0  0  0  0  0
  -21.7970  -13.4468   23.8785 C   0  0  0  0  0  0  0  0  0  0  0  0
  -21.6807  -15.3453   22.3888 C   0  0  0  0  0  0  0  0  0  0  0  0
  -27.1640  -28.6037   18.9648 C   0  0  0  0  0  0  0  0  0  0  0  0
  -21.4245  -17.0451   25.3002 C   0  0  0  0  0  0  0  0  0  0  0  0
  -21.5098  -18.4026   25.6091 C   0  0  0  0  0  0  0  0  0  0  0  0
  -26.5496  -27.5318   21.0368 C   0  0  0  0  0  0  0  0  0  0  0  0
  -29.3685  -17.9368   18.1767 C   0  0  0  0  0  0  0  0  0  0  0  0
  -19.3961  -18.7870   24.5039 C   0  0  0  0  0  0  0  0  0  0  0  0
  -23.2608  -13.5686   21.9603 C   0  0  0  0  0  0  0  0  0  0  0  0
  -24.1600  -12.1299   20.0553 C   0  0  0  0  0  0  0  0  0  0  0  0
  -25.1014  -36.2296   23.3519 C   0  0  0  0  0  0  0  0  0  0  0  0
  -25.3962  -29.5425   20.3391 C   0  0  0  0  0  0  0  0  0  0  0  0
  -25.7485  -35.0888   22.8398 C   0  0  0  0  0  0  0  0  0  0  0  0
  -25.5656  -28.5053   21.2673 C   0  0  0  0  0  0  0  0  0  0  0  0
  -29.7487  -19.2276   17.8092 C   0  0  0  0  0  0  0  0  0  0  0  0
  -30.2170  -17.1569   18.9624 C   0  0  0  0  0  0  0  0  0  0  0  0
  -21.2316  -14.6719   23.5248 C   0  0  0  0  0  0  0  0  0  0  0  0
  -27.3453  -27.5821   19.8925 C   0  0  0  0  0  0  0  0  0  0  0  0
  -20.3250  -16.5585   24.5930 C   0  0  0  0  0  0  0  0  0  0  0  0
  -20.4956  -19.2735   25.2110 C   0  0  0  0  0  0  0  0  0  0  0  0
  -19.3108  -17.4294   24.1949 C   0  0  0  0  0  0  0  0  0  0  0  0
  -24.3092  -12.9996   21.1522 C   0  0  0  0  0  0  0  0  0  0  0  0
  -25.4444  -11.8814   19.6369 C   0  0  0  0  0  0  0  0  0  0  0  0
  -28.0169  -23.3581   18.6902 C   0  0  0  0  0  0  0  0  0  0  0  0
  -28.6966  -24.3145   19.3385 C   0  0  0  0  0  0  0  0  0  0  0  0
  -22.9670  -11.5947   19.4670 C   0  0  0  0  0  0  0  0  0  0  0  0
  -28.7467  -22.3665   17.8484 C   0  0  0  0  0  0  0  0  0  0  0  0
  -24.9581  -31.4794   22.8210 C   0  0  0  0  0  0  0  0  0  0  0  0
  -22.6375  -29.3439   23.5807 C   0  0  0  0  0  0  0  0  0  0  0  0
  -21.4178  -26.1689   23.3008 C   0  0  0  0  0  0  0  0  0  0  0  0
  -30.5557  -14.9400   20.1102 C   0  0  0  0  0  0  0  0  0  0  0  0
  -24.3672  -36.2010   24.6690 C   0  0  0  0  0  0  0  0  0  0  0  0
  -24.3330  -30.5857   20.5480 C   0  0  0  0  0  0  0  0  0  0  0  0
  -24.7243  -28.4107   22.5130 C   0  0  0  0  0  0  0  0  0  0  0  0
  -24.0232  -34.7916   25.1441 C   0  0  0  0  0  0  0  0  0  0  0  0
  -29.9361  -11.6346   21.2794 C   0  0  0  0  0  0  0  0  0  0  0  0
  -25.2326  -33.8722   25.0076 C   0  0  0  0  0  0  0  0  0  0  0  0
  -28.4094  -11.5283   21.2738 C   0  0  0  0  0  0  0  0  0  0  0  0
  -30.4061  -13.0286   21.6910 C   0  0  0  0  0  0  0  0  0  0  0  0
  -28.2908  -14.0276   20.9184 C   0  0  0  0  0  0  0  0  0  0  0  0
  -25.6712  -33.7511   23.5432 C   0  0  1  0  0  0  0  0  0  0  0  0
  -23.9293  -30.7427   22.0108 C   0  0  1  0  0  0  0  0  0  0  0  0
  -27.7687  -12.6605   20.4473 C   0  0  2  0  0  0  0  0  0  0  0  0
  -25.7437  -20.9612   17.5259 C   0  0  0  0  0  0  0  0  0  0  0  0
  -19.5225  -24.7123   24.0647 C   0  0  0  0  0  0  0  0  0  0  0  0
  -23.9366  -29.0999   26.3308 C   0  0  0  0  0  0  0  0  0  0  0  0
  -22.6227  -26.9989   26.6880 C   0  0  0  0  0  0  0  0  0  0  0  0
  -21.4368  -29.1689   26.3603 C   0  0  0  0  0  0  0  0  0  0  0  0
  -20.4965  -25.7131   20.5255 C   0  0  0  0  0  0  0  0  0  0  0  0
  -28.8358  -20.0674   16.9634 C   0  0  0  0  0  0  0  0  0  0  0  0
  -28.0435  -25.3320   20.2173 C   0  0  0  0  0  0  0  0  0  1  0  0
  -26.9234  -20.6891   18.3959 C   0  0  0  0  0  0  0  0  0  0  0  0
  -22.5795  -28.0710   24.3902 C   0  0  1  0  0  0  0  0  0  0  0  0
  -20.0288  -25.6483   22.9782 C   0  0  2  0  0  0  0  0  0  0  0  0
  -22.6612  -28.3373   25.9199 C   0  0  0  0  0  0  0  0  0  0  0  0
  -25.5876  -13.2842   21.4143 N   0  0  0  0  0  0  0  0  0  0  0  0
  -26.2534  -12.5894   20.4762 N   0  0  0  0  0  0  0  0  0  0  0  0
  -23.7022  -29.4578   22.6756 N   0  0  0  0  0  0  0  0  0  0  0  0
  -29.7609  -14.0494   20.8624 N   0  0  0  0  0  0  0  0  0  0  0  0
  -25.9494  -11.1284   18.6367 N   0  0  0  0  0  0  0  0  0  0  0  0
  -21.7303  -11.9527   20.0209 N   0  0  0  0  0  0  0  0  0  0  0  0
  -29.8314  -15.8453   19.3353 N   0  0  0  0  0  0  0  0  0  0  0  0
  -24.7937  -32.8514   22.8256 N   0  0  0  0  0  0  0  0  0  0  0  0
  -21.3690  -27.3742   23.9689 N   0  0  0  0  0  0  0  0  0  0  0  0
  -28.1655  -21.0996   17.7438 N   0  0  0  0  0  0  0  0  0  0  0  0
  -20.0412  -24.9055   21.6863 N   0  3  0  0  0  0  0  0  0  0  0  0
  -22.9976  -10.8090   18.4897 O   0  0  0  0  0  0  0  0  0  0  0  0
  -29.8115  -22.6830   17.3158 O   0  0  0  0  0  0  0  0  0  0  0  0
  -25.8352  -30.8496   23.4004 O   0  0  0  0  0  0  0  0  0  0  0  0
  -21.7662  -30.2024   23.7402 O   0  0  0  0  0  0  0  0  0  0  0  0
  -22.4434  -25.5649   22.9944 O   0  0  0  0  0  0  0  0  0  0  0  0
  -31.7880  -14.8847   20.1295 O   0  0  0  0  0  0  0  0  0  0  0  0
  -20.2413  -15.2103   24.2878 O   0  0  0  0  0  0  0  0  0  0  0  0
  -28.2947  -26.6303   19.6810 O   0  0  0  0  0  0  0  0  0  1  0  0
  -20.5769  -20.5769   25.5091 F   0  0  0  0  0  0  0  0  0  0  0  0
  -18.2515  -16.9676   23.5163 F   0  0  0  0  0  0  0  0  0  0  0  0
  1  2  1  0  0  0  0
  1  6  2  0  0  0  0
  2  7  2  0  0  0  0
  3  9  2  0  0  0  0
  3 10  1  0  0  0  0
  4 11  2  0  0  0  0
  4 19  1  0  0  0  0
  5 12  1  0  0  0  0
  5 19  2  0  0  0  0
  6 21  1  0  0  0  0
  7 23  1  0  0  0  0
  8 13  2  0  0  0  0
  8 22  1  0  0  0  0
  9 25  1  0  0  0  0
 10 26  2  0  0  0  0
 11 27  1  0  0  0  0
 12 27  2  0  0  0  0
 13 28  1  0  0  0  0
 14 15  2  0  0  0  0
 14 29  1  0  0  0  0
 15 30  1  0  0  0  0
 16 24  1  0  0  0  0
 16 28  2  0  0  0  0
 17 25  2  0  0  0  0
 17 26  1  0  0  0  0
 18 30  2  0  0  0  0
 18 31  1  0  0  0  0
 19 32  1  0  0  0  0
 20 32  1  0  0  0  0
 20 33  2  0  0  0  0
 20 36  1  0  0  0  0
 21 23  2  0  0  0  0
 21 42  1  0  0  0  0
 22 24  2  0  0  0  0
 22 43  1  0  0  0  0
 23 51  1  0  0  0  0
 24 44  1  0  0  0  0
 25 60  1  0  0  0  0
 26 72  1  0  0  0  0
 27 83  1  0  0  0  0
 28 84  1  0  0  0  0
 29 31  2  0  0  0  0
 29 83  1  0  0  0  0
 30 85  1  0  0  0  0
 31 86  1  0  0  0  0
 32 66  2  0  0  0  0
 33 67  1  0  0  0  0
 33 70  1  0  0  0  0
 34 35  2  0  0  0  0
 34 37  1  0  0  0  0
 35 61  1  0  0  0  0
 36 71  1  0  0  0  0
 36 77  2  0  0  0  0
 37 75  1  0  0  0  0
 37 78  2  0  0  0  0
 38 52  1  0  0  0  0
 38 73  1  0  0  0  0
 38 79  2  0  0  0  0
 39 63  1  0  0  0  0
 39 68  1  0  0  0  0
 39 80  2  0  0  0  0
 40 64  1  0  0  0  0
 40 74  1  0  0  0  0
 40 81  2  0  0  0  0
 41 69  1  0  0  0  0
 41 72  1  0  0  0  0
 41 82  2  0  0  0  0
 42 45  1  0  0  0  0
 43 52  1  0  0  0  0
 44 68  1  0  0  0  0
 45 47  1  0  0  0  0
 46 48  1  0  0  0  0
 46 49  1  0  0  0  0
 47 51  1  0  0  0  0
 48 53  1  0  0  0  0
 49 69  1  0  0  0  0
 50 53  1  0  0  0  0
 50 69  1  0  0  0  0
 51 73  1  0  0  0  0
 52 68  1  0  0  0  0
 53 67  1  0  0  0  0
 54 62  1  0  0  0  0
 55 64  1  0  0  0  0
 56 65  1  0  0  0  0
 57 65  1  0  0  0  0
 58 65  1  0  0  0  0
 59 76  1  0  0  0  0
 60 75  1  0  0  0  0
 61 84  1  0  0  0  0
 62 75  1  0  0  0  0
 63 65  1  0  0  0  0
 63 74  1  0  0  0  0
 64 76  1  0  0  0  0
 66 67  1  0  0  0  0
M  CHG  1  76   1
M  ISO  4  41 100  61 101  72 100  84 101
M  END
> <Batch ID>
0046

> <Smiles>
CCN(Cc1cccc([100NH:0][100C:0](=O)N2CCCC(n3nc(-c4ccc(Oc5ccc(F)cc5F)cc4)c(C(N)=O)c3N)C2)c1)C(=O)C=C[101CH2:1][101O:1]c1ccc2c(c1)CN(C(=O)C(NC(=O)C(C)NC)C(C)(C)C)C(C(=O)NC1CCCc3ccccc31)C2

> <Shape>
0.259

> <Color>
0.087

> <Negative vol penalty>
0.000

$$$$

  -OEChem-04042322233D

 88 97  0     1  0  0  0  0  0999 V2000
  -25.5645  -35.4001   22.7838 C   0  0  0  0  0  0  0  0  0  0  0  0
  -26.1936  -34.1718   22.6078 C   0  0  0  0  0  0  0  0  0  0  0  0
  -24.3676  -13.7289   23.2121 C   0  0  0  0  0  0  0  0  0  0  0  0
  -25.9538  -14.3940   21.5154 C   0  0  0  0  0  0  0  0  0  0  0  0
  -24.2736  -35.4521   23.3080 C   0  0  0  0  0  0  0  0  0  0  0  0
  -25.5324  -32.9947   22.9568 C   0  0  0  0  0  0  0  0  0  0  0  0
  -26.0086  -29.3826   19.4396 C   0  0  0  0  0  0  0  0  0  0  0  0
  -23.8030  -12.8124   22.3250 C   0  0  0  0  0  0  0  0  0  0  0  0
  -25.3892  -13.4776   20.6283 C   0  0  0  0  0  0  0  0  0  0  0  0
  -27.2153  -28.6852   19.4024 C   0  0  0  0  0  0  0  0  0  0  0  0
  -22.1761  -10.0422   20.6238 C   0  0  0  0  0  0  0  0  0  0  0  0
  -21.8947   -8.7633   21.1044 C   0  0  0  0  0  0  0  0  0  0  0  0
  -26.1917  -26.8621   20.6056 C   0  0  0  0  0  0  0  0  0  0  0  0
  -30.1113  -22.1114   20.1958 C   0  0  0  0  0  0  0  0  0  0  0  0
  -30.5024  -20.3712   18.0507 C   0  0  0  0  0  0  0  0  0  0  0  0
  -24.2322   -8.4447   21.6254 C   0  0  0  0  0  0  0  0  0  0  0  0
  -25.4430  -14.5197   22.8073 C   0  0  0  0  0  0  0  0  0  0  0  0
  -26.6207  -15.1898   24.9687 C   0  0  0  0  0  0  0  0  0  0  0  0
  -23.5926  -34.2745   23.6546 C   0  0  0  0  0  0  0  0  0  0  0  0
  -24.8855  -28.8287   20.0707 C   0  0  0  0  0  0  0  0  0  0  0  0
  -24.2316  -33.0311   23.4874 C   0  0  0  0  0  0  0  0  0  0  0  0
  -24.9713  -27.5534   20.6472 C   0  0  0  0  0  0  0  0  0  0  0  0
  -31.1521  -22.3375   19.2951 C   0  0  0  0  0  0  0  0  0  0  0  0
  -31.3476  -21.4674   18.2225 C   0  0  0  0  0  0  0  0  0  0  0  0
  -29.2661  -21.0151   20.0240 C   0  0  0  0  0  0  0  0  0  0  0  0
  -24.3138  -12.6868   21.0331 C   0  0  0  0  0  0  0  0  0  0  0  0
  -27.3078  -27.4260   19.9880 C   0  0  0  0  0  0  0  0  0  0  0  0
  -23.4856  -10.5223   20.6440 C   0  0  0  0  0  0  0  0  0  0  0  0
  -22.9227   -7.9646   21.6052 C   0  0  0  0  0  0  0  0  0  0  0  0
  -24.5137   -9.7236   21.1448 C   0  0  0  0  0  0  0  0  0  0  0  0
  -29.4616  -20.1450   18.9514 C   0  0  0  0  0  0  0  0  0  0  0  0
  -26.0263  -15.4670   23.7230 C   0  0  0  0  0  0  0  0  0  0  0  0
  -27.0158  -16.4174   25.4413 C   0  0  0  0  0  0  0  0  0  0  0  0
  -30.8505  -25.3163   18.3834 C   0  0  0  0  0  0  0  0  0  0  0  0
  -29.8834  -25.0129   17.5011 C   0  0  0  0  0  0  0  0  0  0  0  0
  -26.7997  -13.9349   25.6387 C   0  0  0  0  0  0  0  0  0  0  0  0
  -23.0693  -29.6524   22.5458 C   0  0  0  0  0  0  0  0  0  0  0  0
  -21.2891  -27.1168   21.5848 C   0  0  0  0  0  0  0  0  0  0  0  0
  -21.1480  -24.1394   19.9228 C   0  0  0  0  0  0  0  0  0  0  0  0
  -27.9100  -21.5936   22.0749 C   0  0  0  0  0  0  0  0  0  0  0  0
  -22.2163  -34.3838   24.2618 C   0  0  0  0  0  0  0  0  0  0  0  0
  -23.5838  -29.5824   20.0788 C   0  0  0  0  0  0  0  0  0  0  0  0
  -23.7892  -26.9058   21.3193 C   0  0  0  0  0  0  0  0  0  0  0  0
  -21.4421  -33.0682   24.2565 C   0  0  0  0  0  0  0  0  0  0  0  0
  -25.6385  -21.0366   24.9365 C   0  0  0  0  0  0  0  0  0  0  0  0
  -33.3388  -26.4245   19.2742 C   0  0  0  0  0  0  0  0  0  0  0  0
  -22.3256  -31.9267   24.7496 C   0  0  0  0  0  0  0  0  0  0  0  0
  -32.0885  -27.2999   19.2469 C   0  0  0  0  0  0  0  0  0  0  0  0
  -25.7040  -19.5400   25.2446 C   0  0  0  0  0  0  0  0  0  0  0  0
  -26.9386  -21.5801   24.3601 C   0  0  0  0  0  0  0  0  0  0  0  0
  -27.0944  -19.4113   23.1180 C   0  0  0  0  0  0  0  0  0  0  0  0
  -33.2779  -25.3290   18.2170 C   0  0  0  0  0  0  0  0  0  0  0  0
  -23.5377  -31.7309   23.8309 C   0  0  1  0  0  0  0  0  0  0  0  0
  -30.8093  -26.4606   19.3843 C   0  0  1  0  0  0  0  0  0  0  0  0
  -22.6453  -29.1417   21.1979 C   0  0  1  0  0  0  0  0  0  0  0  0
  -26.8546  -18.8239   24.5176 C   0  0  2  0  0  0  0  0  0  0  0  0
  -32.4554  -21.6891   17.2457 C   0  0  0  0  0  0  0  0  0  0  0  0
  -19.5649  -22.2811   19.3412 C   0  0  0  0  0  0  0  0  0  0  0  0
  -21.5024  -26.0466   24.4342 C   0  0  0  0  0  0  0  0  0  0  0  0
  -20.7581  -23.8149   23.5775 C   0  0  0  0  0  0  0  0  0  0  0  0
  -19.2448  -25.7891   23.3895 C   0  0  0  0  0  0  0  0  0  0  0  0
  -21.4666  -24.6203   17.0200 C   0  0  0  0  0  0  0  0  0  0  0  0
  -32.0503  -23.5211   19.5027 C   0  0  0  0  0  0  0  0  0  0  0  0
  -29.5841  -27.3771   19.3012 C   0  0  0  0  0  0  0  0  0  1  0  0
  -21.2783  -25.6393   21.8946 C   0  0  1  0  0  0  0  0  0  0  0  0
  -20.1665  -23.6048   18.8955 C   0  0  2  0  0  0  0  0  0  0  0  0
  -20.7189  -25.3352   23.3130 C   0  0  0  0  0  0  0  0  0  0  0  0
  -26.0402  -16.7685   23.4233 N   0  0  0  0  0  0  0  0  0  0  0  0
  -26.6481  -17.3201   24.4874 N   0  0  0  0  0  0  0  0  0  0  0  0
  -22.5402  -27.6853   21.3068 N   0  0  0  0  0  0  0  0  0  0  0  0
  -27.3253  -20.8658   23.1399 N   0  0  0  0  0  0  0  0  0  0  0  0
  -27.6383  -16.8020   26.5758 N   0  0  0  0  0  0  0  0  0  0  0  0
  -27.9757  -13.2112   25.3986 N   0  0  0  0  0  0  0  0  0  0  0  0
  -28.2208  -20.8123   20.9591 N   0  0  0  0  0  0  0  0  0  0  0  0
  -23.1503  -31.0296   22.6257 N   0  0  0  0  0  0  0  0  0  0  0  0
  -20.5391  -25.0005   20.8111 N   0  0  0  0  0  0  0  0  0  0  0  0
  -32.0346  -24.4828   18.3465 N   0  3  1  0  0  0  0  0  0  0  0  0
  -20.8491  -23.3941   17.5876 N   0  3  0  0  0  0  0  0  0  0  0  0
  -25.9349  -13.4614   26.4141 O   0  0  0  0  0  0  0  0  0  0  0  0
  -23.3041  -28.8561   23.4472 O   0  0  0  0  0  0  0  0  0  0  0  0
  -20.2257  -27.7419   21.5825 O   0  0  0  0  0  0  0  0  0  0  0  0
  -22.3351  -23.8218   19.9382 O   0  0  0  0  0  0  0  0  0  0  0  0
  -28.1008  -22.8094   22.1493 O   0  0  0  0  0  0  0  0  0  0  0  0
  -23.7633  -11.7924   20.1673 O   0  0  0  0  0  0  0  0  0  0  0  0
  -28.4845  -26.7435   19.9537 O   0  0  0  0  0  0  0  0  0  1  0  0
  -22.6521   -6.7371   22.0681 F   0  0  0  0  0  0  0  0  0  0  0  0
  -25.7735  -10.1798   21.1679 F   0  0  0  0  0  0  0  0  0  0  0  0
  -28.4379  -18.7757   18.7011 Cl  0  0  0  0  0  0  0  0  0  0  0  0
  1  2  1  0  0  0  0
  1  5  2  0  0  0  0
  2  6  2  0  0  0  0
  3  8  2  0  0  0  0
  3 17  1  0  0  0  0
  4  9  1  0  0  0  0
  4 17  2  0  0  0  0
  5 19  1  0  0  0  0
  6 21  1  0  0  0  0
  7 10  2  0  0  0  0
  7 20  1  0  0  0  0
  8 26  1  0  0  0  0
  9 26  2  0  0  0  0
 10 27  1  0  0  0  0
 11 12  2  0  0  0  0
 11 28  1  0  0  0  0
 12 29  1  0  0  0  0
 13 22  1  0  0  0  0
 13 27  2  0  0  0  0
 14 23  1  0  0  0  0
 14 25  2  0  0  0  0
 15 24  1  0  0  0  0
 15 31  2  0  0  0  0
 16 29  2  0  0  0  0
 16 30  1  0  0  0  0
 17 32  1  0  0  0  0
 18 32  1  0  0  0  0
 18 33  2  0  0  0  0
 18 36  1  0  0  0  0
 19 21  2  0  0  0  0
 19 41  1  0  0  0  0
 20 22  2  0  0  0  0
 20 42  1  0  0  0  0
 21 53  1  0  0  0  0
 22 43  1  0  0  0  0
 23 24  2  0  0  0  0
 23 63  1  0  0  0  0
 24 57  1  0  0  0  0
 25 31  1  0  0  0  0
 25 74  1  0  0  0  0
 26 84  1  0  0  0  0
 27 85  1  0  0  0  0
 28 30  2  0  0  0  0
 28 84  1  0  0  0  0
 29 86  1  0  0  0  0
 30 87  1  0  0  0  0
 31 88  1  0  0  0  0
 32 68  2  0  0  0  0
 33 69  1  0  0  0  0
 33 72  1  0  0  0  0
 34 35  2  0  0  0  0
 34 54  1  0  0  0  0
 34 77  1  0  0  0  0
 36 73  1  0  0  0  0
 36 79  2  0  0  0  0
 37 55  1  0  0  0  0
 37 75  1  0  0  0  0
 37 80  2  0  0  0  0
 38 65  1  0  0  0  0
 38 70  1  0  0  0  0
 38 81  2  0  0  0  0
 39 66  1  0  0  0  0
 39 76  1  0  0  0  0
 39 82  2  0  0  0  0
 40 71  1  0  0  0  0
 40 74  1  0  0  0  0
 40 83  2  0  0  0  0
 41 44  1  0  0  0  0
 42 55  1  0  0  0  0
 43 70  1  0  0  0  0
 44 47  1  0  0  0  0
 45 49  1  0  0  0  0
 45 50  1  0  0  0  0
 46 48  1  0  0  0  0
 46 52  1  0  0  0  0
 47 53  1  0  0  0  0
 48 54  1  0  0  0  0
 49 56  1  0  0  0  0
 50 71  1  0  0  0  0
 51 56  1  0  0  0  0
 51 71  1  0  0  0  0
 52 77  1  0  0  0  0
 53 75  1  0  0  0  0
 54 64  1  0  0  0  0
 55 70  1  0  0  0  0
 56 69  1  0  0  0  0
 58 66  1  0  0  0  0
 59 67  1  0  0  0  0
 60 67  1  0  0  0  0
 61 67  1  0  0  0  0
 62 78  1  0  0  0  0
 63 77  1  0  0  0  0
 64 85  1  0  0  0  0
 65 67  1  0  0  0  0
 65 76  1  0  0  0  0
 66 78  1  0  0  0  0
 68 69  1  0  0  0  0
M  CHG  2  77   1  78   1
M  ISO  4  40 100  64 101  74 100  85 101
M  END
> <Batch ID>
0046

> <Smiles>
C=C1C([101CH2:1][101O:1]c2ccc3c(c2)CN(C(=O)C(NC(=O)C(C)NC)C(C)(C)C)C(C(=O)NC2CCCc4ccccc42)C3)CCCN1Cc1cc([100NH:0][100C:0](=O)N2CCCC(n3nc(-c4ccc(Oc5ccc(F)cc5F)cc4)c(C(N)=O)c3N)C2)c(Cl)cc1C

> <Shape>
0.254

> <Color>
0.076

> <Negative vol penalty>
0.000

$$$$

  -OEChem-04042322233D

 89 98  0     1  0  0  0  0  0999 V2000
  -22.9877   -7.6352   21.1721 C   0  0  0  0  0  0  0  0  0  0  0  0
  -22.9150   -8.4863   20.0752 C   0  0  0  0  0  0  0  0  0  0  0  0
  -28.5413  -26.6114   18.0079 C   0  0  0  0  0  0  0  0  0  0  0  0
  -26.7150  -25.4016   19.0268 C   0  0  0  0  0  0  0  0  0  0  0  0
  -22.9930   -8.1643   22.4609 C   0  0  0  0  0  0  0  0  0  0  0  0
  -22.8597   -9.8674   20.2663 C   0  0  0  0  0  0  0  0  0  0  0  0
  -22.4109  -17.5552   18.2867 C   0  0  0  0  0  0  0  0  0  0  0  0
  -18.5472  -27.9448   21.0340 C   0  0  0  0  0  0  0  0  0  0  0  0
  -17.9925  -26.8572   20.3594 C   0  0  0  0  0  0  0  0  0  0  0  0
  -29.3128  -25.4494   18.0110 C   0  0  0  0  0  0  0  0  0  0  0  0
  -27.4866  -24.2395   19.0298 C   0  0  0  0  0  0  0  0  0  0  0  0
  -22.0920  -18.8164   18.7881 C   0  0  0  0  0  0  0  0  0  0  0  0
  -31.1378  -23.6777   20.2369 C   0  0  0  0  0  0  0  0  0  0  0  0
  -32.4619  -23.7810   20.6630 C   0  0  0  0  0  0  0  0  0  0  0  0
  -23.6991  -18.5113   20.5611 C   0  0  0  0  0  0  0  0  0  0  0  0
  -19.7863  -26.4325   22.4534 C   0  0  0  0  0  0  0  0  0  0  0  0
  -33.2169  -22.9903   18.5085 C   0  0  0  0  0  0  0  0  0  0  0  0
  -27.2424  -26.5875   18.5158 C   0  0  0  0  0  0  0  0  0  0  0  0
  -26.0582  -28.5490   17.3943 C   0  0  0  0  0  0  0  0  0  0  0  0
  -22.9252   -9.5520   22.6674 C   0  0  0  0  0  0  0  0  0  0  0  0
  -23.3701  -16.7567   18.9261 C   0  0  0  0  0  0  0  0  0  0  0  0
  -22.8882  -10.4220   21.5587 C   0  0  0  0  0  0  0  0  0  0  0  0
  -24.0303  -17.2414   20.0643 C   0  0  0  0  0  0  0  0  0  0  0  0
  -19.4441  -27.7325   22.0809 C   0  0  0  0  0  0  0  0  0  0  0  0
  -18.3347  -25.5572   20.7319 C   0  0  0  0  0  0  0  0  0  0  0  0
  -19.2316  -25.3449   21.7789 C   0  0  0  0  0  0  0  0  0  0  0  0
  -28.7855  -24.2635   18.5219 C   0  0  0  0  0  0  0  0  0  0  0  0
  -22.7340  -19.2935   19.9271 C   0  0  0  0  0  0  0  0  0  0  0  0
  -30.8531  -23.2306   18.9467 C   0  0  0  0  0  0  0  0  0  0  0  0
  -33.5015  -23.4374   19.7988 C   0  0  0  0  0  0  0  0  0  0  0  0
  -31.8927  -22.8870   18.0825 C   0  0  0  0  0  0  0  0  0  0  0  0
  -26.4450  -27.7877   18.5135 C   0  0  0  0  0  0  0  0  0  0  0  0
  -25.3173  -29.5795   17.9195 C   0  0  0  0  0  0  0  0  0  0  0  0
  -21.5071  -22.4850   22.5557 C   0  0  0  0  0  0  0  0  0  0  0  0
  -23.8265  -24.4167   24.6470 C   0  0  0  0  0  0  0  0  0  0  0  0
  -22.4323  -22.7818   23.4809 C   0  0  0  0  0  0  0  0  0  0  0  0
  -22.9040  -24.1214   23.7244 C   0  0  0  0  0  0  0  0  0  0  0  0
  -26.3430  -28.3432   16.0043 C   0  0  0  0  0  0  0  0  0  0  0  0
  -23.3347  -13.9154   20.3506 C   0  0  0  0  0  0  0  0  0  0  0  0
  -26.5397  -14.3897   20.5100 C   0  0  0  0  0  0  0  0  0  0  0  0
  -28.7620  -17.1352   21.2455 C   0  0  0  0  0  0  0  0  0  0  0  0
  -22.1601  -30.1687   22.9728 C   0  0  0  0  0  0  0  0  0  0  0  0
  -22.9422  -10.0712   24.0835 C   0  0  0  0  0  0  0  0  0  0  0  0
  -23.7221  -15.4095   18.3573 C   0  0  0  0  0  0  0  0  0  0  0  0
  -25.0821  -16.4317   20.7760 C   0  0  0  0  0  0  0  0  0  0  0  0
  -21.0174  -21.0820   22.3052 C   0  0  0  0  0  0  0  0  0  0  0  0
  -22.4353  -11.5053   24.1971 C   0  0  0  0  0  0  0  0  0  0  0  0
  -24.8580  -32.2204   21.8825 C   0  0  0  0  0  0  0  0  0  0  0  0
  -23.1298  -12.3850   23.1683 C   0  0  0  0  0  0  0  0  0  0  0  0
  -25.5358  -31.3857   20.7945 C   0  0  0  0  0  0  0  0  0  0  0  0
  -20.4809  -21.8641   19.9600 C   0  0  0  0  0  0  0  0  0  0  0  0
  -24.3386  -31.3470   23.0224 C   0  0  0  0  0  0  0  0  0  0  0  0
  -24.1332  -29.4078   21.5154 C   0  0  0  0  0  0  0  0  0  0  0  0
  -21.1024  -23.2226   20.2809 C   0  0  0  0  0  0  0  0  0  0  0  0
  -22.7964  -11.9259   21.7431 C   0  0  1  0  0  0  0  0  0  0  0  0
  -24.3443  -14.4705   19.3861 C   0  0  1  0  0  0  0  0  0  0  0  0
  -24.6239  -30.2392   20.3177 C   0  0  2  0  0  0  0  0  0  0  0  0
  -21.0707  -20.7429   20.8154 C   0  0  1  0  0  0  0  0  0  1  0  0
  -17.7271  -24.4085   19.9957 C   0  0  0  0  0  0  0  0  0  0  0  0
  -31.1178  -17.5722   20.4993 C   0  0  0  0  0  0  0  0  0  0  0  0
  -27.3143  -13.0268   23.1277 C   0  0  0  0  0  0  0  0  0  0  0  0
  -29.1685  -14.6923   23.3653 C   0  0  0  0  0  0  0  0  0  0  0  0
  -29.1416  -13.1269   21.4232 C   0  0  0  0  0  0  0  0  0  0  0  0
  -28.0467  -19.7916   20.1545 C   0  0  0  0  0  0  0  0  0  0  0  0
  -20.0367  -28.8955   22.8023 C   0  0  0  0  0  0  0  0  0  0  0  0
  -19.6142  -23.9558   22.1973 C   0  0  0  0  0  0  0  0  0  0  0  0
  -27.4777  -15.0287   21.5054 C   0  0  1  0  0  0  0  0  0  0  0  0
  -29.6472  -17.8769   20.2602 C   0  0  2  0  0  0  0  0  0  0  0  0
  -28.2485  -13.9773   22.3527 C   0  0  0  0  0  0  0  0  0  0  0  0
  -25.9879  -28.2915   19.6629 N   0  0  0  0  0  0  0  0  0  0  0  0
  -25.3062  -29.3806   19.2688 N   0  0  0  0  0  0  0  0  0  0  0  0
  -25.3867  -15.1182   20.1849 N   0  0  0  0  0  0  0  0  0  0  0  0
  -23.4792  -30.2803   22.5032 N   0  0  0  0  0  0  0  0  0  0  0  0
  -24.6809  -30.6272   17.3542 N   0  0  0  0  0  0  0  0  0  0  0  0
  -25.4536  -27.5680   15.2477 N   0  0  0  0  0  0  0  0  0  0  0  0
  -23.6323  -12.6457   20.8077 N   0  0  0  0  0  0  0  0  0  0  0  0
  -28.3369  -15.9250   20.7394 N   0  0  0  0  0  0  0  0  0  0  0  0
  -21.4117  -29.1344   22.4242 N   0  0  0  0  0  0  0  0  0  0  0  0
  -20.9950  -23.5646   21.7485 N   0  3  1  0  0  0  0  0  0  0  0  0
  -29.4451  -19.3479   20.3881 N   0  3  0  0  0  0  0  0  0  0  0  0
  -27.3647  -28.8186   15.4534 O   0  0  0  0  0  0  0  0  0  0  0  0
  -22.3589  -14.5896   20.6585 O   0  0  0  0  0  0  0  0  0  0  0  0
  -26.8233  -13.2881   20.0328 O   0  0  0  0  0  0  0  0  0  0  0  0
  -28.4793  -17.5827   22.3547 O   0  0  0  0  0  0  0  0  0  0  0  0
  -21.6828  -30.9374   23.8144 O   0  0  0  0  0  0  0  0  0  0  0  0
  -29.5380  -23.1293   18.5249 O   0  0  0  0  0  0  0  0  0  0  0  0
  -22.4241  -20.5239   20.4190 O   0  0  0  0  0  0  0  0  0  1  0  0
  -34.7730  -23.5381   20.2076 F   0  0  0  0  0  0  0  0  0  0  0  0
  -31.6255  -22.4580   16.8413 F   0  0  0  0  0  0  0  0  0  0  0  0
  1  2  1  0  0  0  0
  1  5  2  0  0  0  0
  2  6  2  0  0  0  0
  3 10  2  0  0  0  0
  3 18  1  0  0  0  0
  4 11  1  0  0  0  0
  4 18  2  0  0  0  0
  5 20  1  0  0  0  0
  6 22  1  0  0  0  0
  7 12  2  0  0  0  0
  7 21  1  0  0  0  0
  8  9  2  0  0  0  0
  8 24  1  0  0  0  0
  9 25  1  0  0  0  0
 10 27  1  0  0  0  0
 11 27  2  0  0  0  0
 12 28  1  0  0  0  0
 13 14  2  0  0  0  0
 13 29  1  0  0  0  0
 14 30  1  0  0  0  0
 15 23  1  0  0  0  0
 15 28  2  0  0  0  0
 16 24  2  0  0  0  0
 16 26  1  0  0  0  0
 17 30  2  0  0  0  0
 17 31  1  0  0  0  0
 18 32  1  0  0  0  0
 19 32  1  0  0  0  0
 19 33  2  0  0  0  0
 19 38  1  0  0  0  0
 20 22  2  0  0  0  0
 20 43  1  0  0  0  0
 21 23  2  0  0  0  0
 21 44  1  0  0  0  0
 22 55  1  0  0  0  0
 23 45  1  0  0  0  0
 24 65  1  0  0  0  0
 25 26  2  0  0  0  0
 25 59  1  0  0  0  0
 26 66  1  0  0  0  0
 27 86  1  0  0  0  0
 28 87  1  0  0  0  0
 29 31  2  0  0  0  0
 29 86  1  0  0  0  0
 30 88  1  0  0  0  0
 31 89  1  0  0  0  0
 32 70  2  0  0  0  0
 33 71  1  0  0  0  0
 33 74  1  0  0  0  0
 34 36  2  0  0  0  0
 34 46  1  0  0  0  0
 34 79  1  0  0  0  0
 35 37  2  0  0  0  0
 36 37  1  0  0  0  0
 38 75  1  0  0  0  0
 38 81  2  0  0  0  0
 39 56  1  0  0  0  0
 39 76  1  0  0  0  0
 39 82  2  0  0  0  0
 40 67  1  0  0  0  0
 40 72  1  0  0  0  0
 40 83  2  0  0  0  0
 41 68  1  0  0  0  0
 41 77  1  0  0  0  0
 41 84  2  0  0  0  0
 42 73  1  0  0  0  0
 42 78  1  0  0  0  0
 42 85  2  0  0  0  0
 43 47  1  0  0  0  0
 44 56  1  0  0  0  0
 45 72  1  0  0  0  0
 46 58  1  0  0  0  0
 47 49  1  0  0  0  0
 48 50  1  0  0  0  0
 48 52  1  0  0  0  0
 49 55  1  0  0  0  0
 50 57  1  0  0  0  0
 51 54  1  0  0  0  0
 51 58  1  0  0  0  0
 52 73  1  0  0  0  0
 53 57  1  0  0  0  0
 53 73  1  0  0  0  0
 54 79  1  0  0  0  0
 55 76  1  0  0  0  0
 56 72  1  0  0  0  0
 57 71  1  0  0  0  0
 58 87  1  0  0  0  0
 60 68  1  0  0  0  0
 61 69  1  0  0  0  0
 62 69  1  0  0  0  0
 63 69  1  0  0  0  0
 64 80  1  0  0  0  0
 65 78  1  0  0  0  0
 66 79  1  0  0  0  0
 67 69  1  0  0  0  0
 67 77  1  0  0  0  0
 68 80  1  0  0  0  0
 70 71  1  0  0  0  0
M  CHG  2  79   1  80   1
M  ISO  4  42 100  58 101  78 100  87 101
M  END
> <Batch ID>
0046

> <Smiles>
C=CC=C1C[101CH:1]([101O:1]c2ccc3c(c2)CN(C(=O)C(NC(=O)C(C)NC)C(C)(C)C)C(C(=O)NC2CCCc4ccccc42)C3)CCN1Cc1cc(C[100NH:0][100C:0](=O)N2CCCC(n3nc(-c4ccc(Oc5ccc(F)cc5F)cc4)c(C(N)=O)c3N)C2)ccc1C

> <Shape>
0.251

> <Color>
0.075

> <Negative vol penalty>
0.000

$$$$

  -OEChem-04042322233D

 87 96  0     1  0  0  0  0  0999 V2000
  -32.1387  -13.3349   22.1155 C   0  0  0  0  0  0  0  0  0  0  0  0
  -31.8613  -14.6595   21.7932 C   0  0  0  0  0  0  0  0  0  0  0  0
  -19.4581  -28.3702   23.4578 C   0  0  0  0  0  0  0  0  0  0  0  0
  -25.7643  -29.6341   20.2748 C   0  0  0  0  0  0  0  0  0  0  0  0
  -24.6149  -27.5558   20.7184 C   0  0  0  0  0  0  0  0  0  0  0  0
  -31.3048  -12.3171   21.6546 C   0  0  0  0  0  0  0  0  0  0  0  0
  -30.7502  -14.9669   21.0087 C   0  0  0  0  0  0  0  0  0  0  0  0
  -24.7499  -19.7450   22.4895 C   0  0  0  0  0  0  0  0  0  0  0  0
  -20.5443  -27.4954   23.4801 C   0  0  0  0  0  0  0  0  0  0  0  0
  -18.4643  -28.2236   22.4901 C   0  0  0  0  0  0  0  0  0  0  0  0
  -26.9100  -28.9240   19.9160 C   0  0  0  0  0  0  0  0  0  0  0  0
  -25.7606  -26.8456   20.3596 C   0  0  0  0  0  0  0  0  0  0  0  0
  -23.5589  -20.4395   22.7028 C   0  0  0  0  0  0  0  0  0  0  0  0
  -29.4484  -27.3356   21.4838 C   0  0  0  0  0  0  0  0  0  0  0  0
  -30.6706  -27.7818   21.9865 C   0  0  0  0  0  0  0  0  0  0  0  0
  -22.4092  -18.9579   21.1760 C   0  0  0  0  0  0  0  0  0  0  0  0
  -31.4759  -28.1148   19.7332 C   0  0  0  0  0  0  0  0  0  0  0  0
  -24.6168  -28.9500   20.6761 C   0  0  0  0  0  0  0  0  0  0  0  0
  -23.3077  -30.6256   22.0855 C   0  0  0  0  0  0  0  0  0  0  0  0
  -30.1775  -12.6130   20.8721 C   0  0  0  0  0  0  0  0  0  0  0  0
  -24.7716  -18.6435   21.6295 C   0  0  0  0  0  0  0  0  0  0  0  0
  -29.9011  -13.9520   20.5357 C   0  0  0  0  0  0  0  0  0  0  0  0
  -23.5964  -18.2508   20.9681 C   0  0  0  0  0  0  0  0  0  0  0  0
  -20.6368  -26.4740   22.5346 C   0  0  0  0  0  0  0  0  0  0  0  0
  -19.6430  -26.3274   21.5668 C   0  0  0  0  0  0  0  0  0  0  0  0
  -18.5567  -27.2022   21.5446 C   0  0  0  0  0  0  0  0  0  0  0  0
  -26.9081  -27.5297   19.9584 C   0  0  0  0  0  0  0  0  0  0  0  0
  -22.3915  -20.0470   22.0474 C   0  0  0  0  0  0  0  0  0  0  0  0
  -29.2400  -27.2789   20.1057 C   0  0  0  0  0  0  0  0  0  0  0  0
  -31.6843  -28.1714   21.1112 C   0  0  0  0  0  0  0  0  0  0  0  0
  -30.2538  -27.6686   19.2304 C   0  0  0  0  0  0  0  0  0  0  0  0
  -23.4332  -29.6831   21.0474 C   0  0  0  0  0  0  0  0  0  0  0  0
  -21.9964  -31.0299   22.0256 C   0  0  0  0  0  0  0  0  0  0  0  0
  -21.6647  -23.0742   22.3919 C   0  0  0  0  0  0  0  0  0  0  0  0
  -24.2888  -31.0939   23.0203 C   0  0  0  0  0  0  0  0  0  0  0  0
  -26.7921  -15.8937   20.0700 C   0  0  0  0  0  0  0  0  0  0  0  0
  -24.0655  -14.6922   20.7998 C   0  0  0  0  0  0  0  0  0  0  0  0
  -21.1045  -13.6535   22.1379 C   0  0  0  0  0  0  0  0  0  0  0  0
  -17.1941  -28.0834   19.6320 C   0  0  0  0  0  0  0  0  0  0  0  0
  -29.3320  -11.4751   20.3575 C   0  0  0  0  0  0  0  0  0  0  0  0
  -26.0453  -17.9038   21.3225 C   0  0  0  0  0  0  0  0  0  0  0  0
  -23.6747  -17.0812   20.0252 C   0  0  0  0  0  0  0  0  0  0  0  0
  -27.9638  -11.9165   19.8441 C   0  0  0  0  0  0  0  0  0  0  0  0
  -19.8928  -23.2244   24.7496 C   0  0  0  0  0  0  0  0  0  0  0  0
  -18.3456  -31.5395   18.9826 C   0  0  0  0  0  0  0  0  0  0  0  0
  -28.1012  -13.1381   18.9409 C   0  0  0  0  0  0  0  0  0  0  0  0
  -19.9220  -22.0125   23.8202 C   0  0  0  0  0  0  0  0  0  0  0  0
  -19.7991  -31.5066   19.4515 C   0  0  0  0  0  0  0  0  0  0  0  0
  -21.0611  -24.1806   24.5264 C   0  0  0  0  0  0  0  0  0  0  0  0
  -17.8766  -30.1720   18.4953 C   0  0  0  0  0  0  0  0  0  0  0  0
  -19.5198  -29.0508   19.9733 C   0  0  0  0  0  0  0  0  0  0  0  0
  -28.6913  -14.3276   19.7078 C   0  0  1  0  0  0  0  0  0  0  0  0
  -21.2831  -21.8186   23.1643 C   0  0  1  0  0  0  0  0  0  1  0  0
  -25.8298  -16.3951   21.1064 C   0  0  1  0  0  0  0  0  0  0  0  0
  -20.0037  -30.4074   20.5069 C   0  0  1  0  0  0  0  0  0  0  0  0
  -19.7464  -25.2300   20.5545 C   0  0  0  0  0  0  0  0  0  0  0  0
  -19.6623  -11.6148   22.3858 C   0  0  0  0  0  0  0  0  0  0  0  0
  -23.1924  -14.9604   17.8896 C   0  0  0  0  0  0  0  0  0  0  0  0
  -21.1599  -13.6097   18.4489 C   0  0  0  0  0  0  0  0  0  0  0  0
  -23.4298  -12.6047   18.6950 C   0  0  0  0  0  0  0  0  0  0  0  0
  -16.5931  -25.9440   20.6777 C   0  0  0  0  0  0  0  0  0  0  0  0
  -21.2736  -13.7506   25.0910 C   0  0  0  0  0  0  0  0  0  0  0  0
  -21.8164  -25.5465   22.5813 C   0  0  0  0  0  0  0  0  0  0  0  0
  -22.6665  -14.3614   20.3453 C   0  0  1  0  0  0  0  0  0  0  0  0
  -20.7570  -12.4633   23.0138 C   0  0  2  0  0  0  0  0  0  0  0  0
  -22.6179  -13.9081   18.8588 C   0  0  0  0  0  0  0  0  0  0  0  0
  -22.2926  -29.4993   20.3772 N   0  0  0  0  0  0  0  0  0  0  0  0
  -21.4379  -30.3318   20.9956 N   0  0  0  0  0  0  0  0  0  0  0  0
  -21.4644  -24.2461   23.1265 N   0  0  0  0  0  0  0  0  0  0  0  0
  -24.4943  -16.0125   20.6174 N   0  0  0  0  0  0  0  0  0  0  0  0
  -18.1326  -29.1255   19.4863 N   0  0  0  0  0  0  0  0  0  0  0  0
  -21.2782  -31.9107   22.7541 N   0  0  0  0  0  0  0  0  0  0  0  0
  -25.5881  -30.5742   22.9419 N   0  0  0  0  0  0  0  0  0  0  0  0
  -27.6802  -14.9448   20.5393 N   0  0  0  0  0  0  0  0  0  0  0  0
  -22.1538  -13.3734   21.2884 N   0  0  0  0  0  0  0  0  0  0  0  0
  -17.5172  -27.0691   20.5534 N   0  0  0  0  0  0  0  0  0  0  0  0
  -20.2860  -12.9240   24.3506 N   0  3  0  0  0  0  0  0  0  0  0  0
  -22.1110  -23.0255   21.2470 O   0  0  0  0  0  0  0  0  0  0  0  0
  -24.0170  -31.9358   23.9096 O   0  0  0  0  0  0  0  0  0  0  0  0
  -26.7332  -16.3335   18.9278 O   0  0  0  0  0  0  0  0  0  0  0  0
  -24.7635  -13.8046   21.2982 O   0  0  0  0  0  0  0  0  0  0  0  0
  -20.5026  -14.7233   22.1984 O   0  0  0  0  0  0  0  0  0  0  0  0
  -16.1645  -28.0296   18.9481 O   0  0  0  0  0  0  0  0  0  0  0  0
  -28.0258  -26.8364   19.6081 O   0  0  0  0  0  0  0  0  0  0  0  0
  -21.2313  -20.7266   22.2636 O   0  0  0  0  0  0  0  0  0  1  0  0
  -32.8574  -28.6014   21.5942 F   0  0  0  0  0  0  0  0  0  0  0  0
  -30.0590  -27.6175   17.9055 F   0  0  0  0  0  0  0  0  0  0  0  0
  1  2  1  0  0  0  0
  1  6  2  0  0  0  0
  2  7  2  0  0  0  0
  3  9  2  0  0  0  0
  3 10  1  0  0  0  0
  4 11  2  0  0  0  0
  4 18  1  0  0  0  0
  5 12  1  0  0  0  0
  5 18  2  0  0  0  0
  6 20  1  0  0  0  0
  7 22  1  0  0  0  0
  8 13  2  0  0  0  0
  8 21  1  0  0  0  0
  9 24  1  0  0  0  0
 10 26  2  0  0  0  0
 11 27  1  0  0  0  0
 12 27  2  0  0  0  0
 13 28  1  0  0  0  0
 14 15  2  0  0  0  0
 14 29  1  0  0  0  0
 15 30  1  0  0  0  0
 16 23  1  0  0  0  0
 16 28  2  0  0  0  0
 17 30  2  0  0  0  0
 17 31  1  0  0  0  0
 18 32  1  0  0  0  0
 19 32  1  0  0  0  0
 19 33  2  0  0  0  0
 19 35  1  0  0  0  0
 20 22  2  0  0  0  0
 20 40  1  0  0  0  0
 21 23  2  0  0  0  0
 21 41  1  0  0  0  0
 22 52  1  0  0  0  0
 23 42  1  0  0  0  0
 24 25  2  0  0  0  0
 24 63  1  0  0  0  0
 25 26  1  0  0  0  0
 25 56  1  0  0  0  0
 26 76  1  0  0  0  0
 27 84  1  0  0  0  0
 28 85  1  0  0  0  0
 29 31  2  0  0  0  0
 29 84  1  0  0  0  0
 30 86  1  0  0  0  0
 31 87  1  0  0  0  0
 32 67  2  0  0  0  0
 33 68  1  0  0  0  0
 33 72  1  0  0  0  0
 34 53  1  0  0  0  0
 34 69  1  0  0  0  0
 34 78  2  0  0  0  0
 35 73  1  0  0  0  0
 35 79  2  0  0  0  0
 36 54  1  0  0  0  0
 36 74  1  0  0  0  0
 36 80  2  0  0  0  0
 37 64  1  0  0  0  0
 37 70  1  0  0  0  0
 37 81  2  0  0  0  0
 38 65  1  0  0  0  0
 38 75  1  0  0  0  0
 38 82  2  0  0  0  0
 39 71  1  0  0  0  0
 39 76  1  0  0  0  0
 39 83  2  0  0  0  0
 40 43  1  0  0  0  0
 41 54  1  0  0  0  0
 42 70  1  0  0  0  0
 43 46  1  0  0  0  0
 44 47  1  0  0  0  0
 44 49  1  0  0  0  0
 45 48  1  0  0  0  0
 45 50  1  0  0  0  0
 46 52  1  0  0  0  0
 47 53  1  0  0  0  0
 48 55  1  0  0  0  0
 49 69  1  0  0  0  0
 50 71  1  0  0  0  0
 51 55  1  0  0  0  0
 51 71  1  0  0  0  0
 52 74  1  0  0  0  0
 53 85  1  0  0  0  0
 54 70  1  0  0  0  0
 55 68  1  0  0  0  0
 57 65  1  0  0  0  0
 58 66  1  0  0  0  0
 59 66  1  0  0  0  0
 60 66  1  0  0  0  0
 61 76  1  0  0  0  0
 62 77  1  0  0  0  0
 63 69  1  0  0  0  0
 64 66  1  0  0  0  0
 64 75  1  0  0  0  0
 65 77  1  0  0  0  0
 67 68  1  0  0  0  0
M  CHG  1  77   1
M  ISO  4  39 100  53 101  76 100  85 101
M  END
> <Batch ID>
0046

> <Smiles>
CNC(C)C(=O)NC(C(=O)N1Cc2cc([101O:1][101CH:1]3CCCN(Cc4cccc([100N:0](C)[100C:0](=O)N5CCCC(n6nc(-c7ccc(Oc8ccc(F)cc8F)cc7)c(C(N)=O)c6N)C5)c4C)C3=O)ccc2CC1C(=O)NC1CCCc2ccccc21)C(C)(C)C

> <Shape>
0.238

> <Color>
0.091

> <Negative vol penalty>
0.000

$$$$

  -OEChem-04042322233D

 89 98  0     1  0  0  0  0  0999 V2000
  -27.6982  -34.4617   25.6758 C   0  0  0  0  0  0  0  0  0  0  0  0
  -27.9292  -33.2113   25.1115 C   0  0  0  0  0  0  0  0  0  0  0  0
  -23.2521  -12.0699   24.5570 C   0  0  0  0  0  0  0  0  0  0  0  0
  -24.3156  -13.8299   25.8251 C   0  0  0  0  0  0  0  0  0  0  0  0
  -26.4009  -34.8430   26.0157 C   0  0  0  0  0  0  0  0  0  0  0  0
  -26.8630  -32.3410   24.8876 C   0  0  0  0  0  0  0  0  0  0  0  0
  -27.0648  -30.1549   20.3241 C   0  0  0  0  0  0  0  0  0  0  0  0
  -22.5878  -11.6428   25.7067 C   0  0  0  0  0  0  0  0  0  0  0  0
  -23.6513  -13.4029   26.9749 C   0  0  0  0  0  0  0  0  0  0  0  0
  -27.9550  -29.0938   20.1653 C   0  0  0  0  0  0  0  0  0  0  0  0
  -19.8920  -12.5806   27.5194 C   0  0  0  0  0  0  0  0  0  0  0  0
  -18.5336  -12.2831   27.4105 C   0  0  0  0  0  0  0  0  0  0  0  0
  -26.1326  -27.5344   20.4228 C   0  0  0  0  0  0  0  0  0  0  0  0
  -28.6850  -20.8217   18.5175 C   0  0  0  0  0  0  0  0  0  0  0  0
  -30.7922  -19.3751   19.6353 C   0  0  0  0  0  0  0  0  0  0  0  0
  -18.9730  -10.0163   28.1216 C   0  0  0  0  0  0  0  0  0  0  0  0
  -24.1161  -13.1634   24.6162 C   0  0  0  0  0  0  0  0  0  0  0  0
  -24.2219  -14.0519   22.2272 C   0  0  0  0  0  0  0  0  0  0  0  0
  -25.3170  -33.9807   25.7870 C   0  0  0  0  0  0  0  0  0  0  0  0
  -25.7012  -29.9132   20.5448 C   0  0  0  0  0  0  0  0  0  0  0  0
  -25.5501  -32.7105   25.2260 C   0  0  0  0  0  0  0  0  0  0  0  0
  -25.2268  -28.5942   20.5816 C   0  0  0  0  0  0  0  0  0  0  0  0
  -29.9553  -21.3918   18.6011 C   0  0  0  0  0  0  0  0  0  0  0  0
  -29.5219  -18.8050   19.5517 C   0  0  0  0  0  0  0  0  0  0  0  0
  -22.7874  -12.3093   26.9157 C   0  0  0  0  0  0  0  0  0  0  0  0
  -27.4894  -27.7832   20.2175 C   0  0  0  0  0  0  0  0  0  0  0  0
  -20.7910  -11.5959   27.9294 C   0  0  0  0  0  0  0  0  0  0  0  0
  -18.0741  -11.0010   27.7116 C   0  0  0  0  0  0  0  0  0  0  0  0
  -20.3314  -10.3138   28.2305 C   0  0  0  0  0  0  0  0  0  0  0  0
  -28.4683  -19.5284   18.9929 C   0  0  0  0  0  0  0  0  0  0  0  0
  -31.0089  -20.6684   19.1599 C   0  0  0  0  0  0  0  0  0  0  0  0
  -24.8030  -13.6047   23.4290 C   0  0  0  0  0  0  0  0  0  0  0  0
  -25.2915  -14.3520   21.4195 C   0  0  0  0  0  0  0  0  0  0  0  0
  -30.4825  -25.1251   18.6122 C   0  0  0  0  0  0  0  0  0  0  0  0
  -31.7213  -25.6360   18.6780 C   0  0  0  0  0  0  0  0  0  0  0  0
  -22.8390  -14.1842   21.8728 C   0  0  0  0  0  0  0  0  0  0  0  0
  -23.6638  -30.5445   22.9015 C   0  0  0  0  0  0  0  0  0  0  0  0
  -21.4855  -29.3540   20.8135 C   0  0  0  0  0  0  0  0  0  0  0  0
  -21.2968  -26.6011   18.4890 C   0  0  0  0  0  0  0  0  0  0  0  0
  -30.2957  -16.6591   20.6207 C   0  0  0  0  0  0  0  0  0  0  0  0
  -23.9385  -34.4183   26.2145 C   0  0  0  0  0  0  0  0  0  0  0  0
  -24.7497  -31.0693   20.6875 C   0  0  0  0  0  0  0  0  0  0  0  0
  -23.7691  -28.2815   20.7957 C   0  0  0  0  0  0  0  0  0  0  0  0
  -29.3159  -25.8743   18.0217 C   0  0  0  0  0  0  0  0  0  0  0  0
  -22.8169  -33.5852   25.5994 C   0  0  0  0  0  0  0  0  0  0  0  0
  -30.2250  -13.3720   21.9869 C   0  0  0  0  0  0  0  0  0  0  0  0
  -23.1345  -32.0974   25.7105 C   0  0  0  0  0  0  0  0  0  0  0  0
  -28.7603  -13.1763   22.3850 C   0  0  0  0  0  0  0  0  0  0  0  0
  -27.8563  -24.4560   19.5242 C   0  0  0  0  0  0  0  0  0  0  0  0
  -30.6916  -14.8064   22.2286 C   0  0  0  0  0  0  0  0  0  0  0  0
  -28.3861  -15.6483   22.0161 C   0  0  0  0  0  0  0  0  0  0  0  0
  -29.1094  -23.8341   20.1388 C   0  0  0  0  0  0  0  0  0  0  0  0
  -24.4165  -31.7482   24.9449 C   0  0  1  0  0  0  0  0  0  0  0  0
  -23.4641  -30.6980   21.4202 C   0  0  1  0  0  0  0  0  0  0  0  0
  -27.8519  -14.2353   21.7301 C   0  0  2  0  0  0  0  0  0  0  0  0
  -28.1185  -25.8571   18.9721 C   0  0  1  0  0  0  0  0  0  1  0  0
  -34.1580  -25.7514   19.1896 C   0  0  0  0  0  0  0  0  0  0  0  0
  -19.9534  -26.3299   16.3869 C   0  0  0  0  0  0  0  0  0  0  0  0
  -19.4513  -27.9907   22.6339 C   0  0  0  0  0  0  0  0  0  0  0  0
  -19.0026  -26.3557   20.7917 C   0  0  0  0  0  0  0  0  0  0  0  0
  -18.5298  -28.7807   20.4473 C   0  0  0  0  0  0  0  0  0  0  0  0
  -23.7120  -26.0108   16.8836 C   0  0  0  0  0  0  0  0  0  0  0  0
  -30.1471  -22.7848   18.0779 C   0  0  0  0  0  0  0  0  0  0  0  0
  -32.8935  -24.9095   19.2600 C   0  0  0  0  0  0  0  0  0  0  0  0
  -20.9279  -27.9829   20.5160 C   0  0  1  0  0  0  0  0  0  0  0  0
  -21.3097  -26.6888   16.9735 C   0  0  2  0  0  0  0  0  0  0  0  0
  -19.5043  -27.7810   21.1074 C   0  0  0  0  0  0  0  0  0  0  0  0
  -26.1381  -13.6178   23.3923 N   0  0  0  0  0  0  0  0  0  0  0  0
  -26.4048  -14.0768   22.1577 N   0  0  0  0  0  0  0  0  0  0  0  0
  -22.8791  -29.4459   20.9362 N   0  0  0  0  0  0  0  0  0  0  0  0
  -29.7859  -15.7539   21.5754 N   0  0  0  0  0  0  0  0  0  0  0  0
  -25.3788  -14.8218   20.1569 N   0  0  0  0  0  0  0  0  0  0  0  0
  -21.8694  -13.8317   22.8215 N   0  0  0  0  0  0  0  0  0  0  0  0
  -29.3355  -17.4890   20.0427 N   0  0  0  0  0  0  0  0  0  0  0  0
  -24.1529  -31.6773   23.5236 N   0  0  0  0  0  0  0  0  0  0  0  0
  -21.0027  -27.8172   19.0685 N   0  0  0  0  0  0  0  0  0  0  0  0
  -30.2676  -23.8125   19.1690 N   0  3  1  0  0  0  0  0  0  0  0  0
  -22.3271  -25.7573   16.4094 N   0  3  0  0  0  0  0  0  0  0  0  0
  -22.4738  -14.5871   20.7423 O   0  0  0  0  0  0  0  0  0  0  0  0
  -23.3928  -29.4778   23.4404 O   0  0  0  0  0  0  0  0  0  0  0  0
  -20.7134  -30.3095   20.9256 O   0  0  0  0  0  0  0  0  0  0  0  0
  -21.5212  -25.5572   19.0977 O   0  0  0  0  0  0  0  0  0  0  0  0
  -31.4912  -16.6769   20.3168 O   0  0  0  0  0  0  0  0  0  0  0  0
  -22.1392  -11.8930   28.0377 O   0  0  0  0  0  0  0  0  0  0  0  0
  -28.3563  -26.7456   20.0634 O   0  0  0  0  0  0  0  0  0  1  0  0
  -16.7694  -10.7159   27.6085 F   0  0  0  0  0  0  0  0  0  0  0  0
  -21.1901   -9.3640   28.6259 F   0  0  0  0  0  0  0  0  0  0  0  0
  -26.8798  -18.8606   18.8706 Cl  0  0  0  0  0  0  0  0  0  0  0  0
  -32.5935  -21.3423   19.2807 Cl  0  0  0  0  0  0  0  0  0  0  0  0
  1  2  1  0  0  0  0
  1  5  2  0  0  0  0
  2  6  2  0  0  0  0
  3  8  2  0  0  0  0
  3 17  1  0  0  0  0
  4  9  1  0  0  0  0
  4 17  2  0  0  0  0
  5 19  1  0  0  0  0
  6 21  1  0  0  0  0
  7 10  2  0  0  0  0
  7 20  1  0  0  0  0
  8 25  1  0  0  0  0
  9 25  2  0  0  0  0
 10 26  1  0  0  0  0
 11 12  2  0  0  0  0
 11 27  1  0  0  0  0
 12 28  1  0  0  0  0
 13 22  1  0  0  0  0
 13 26  2  0  0  0  0
 14 23  1  0  0  0  0
 14 30  2  0  0  0  0
 15 24  2  0  0  0  0
 15 31  1  0  0  0  0
 16 28  2  0  0  0  0
 16 29  1  0  0  0  0
 17 32  1  0  0  0  0
 18 32  1  0  0  0  0
 18 33  2  0  0  0  0
 18 36  1  0  0  0  0
 19 21  2  0  0  0  0
 19 41  1  0  0  0  0
 20 22  2  0  0  0  0
 20 42  1  0  0  0  0
 21 53  1  0  0  0  0
 22 43  1  0  0  0  0
 23 31  2  0  0  0  0
 23 63  1  0  0  0  0
 24 30  1  0  0  0  0
 24 74  1  0  0  0  0
 25 84  1  0  0  0  0
 26 85  1  0  0  0  0
 27 29  2  0  0  0  0
 27 84  1  0  0  0  0
 28 86  1  0  0  0  0
 29 87  1  0  0  0  0
 30 88  1  0  0  0  0
 31 89  1  0  0  0  0
 32 68  2  0  0  0  0
 33 69  1  0  0  0  0
 33 72  1  0  0  0  0
 34 35  2  0  0  0  0
 34 44  1  0  0  0  0
 34 77  1  0  0  0  0
 35 64  1  0  0  0  0
 36 73  1  0  0  0  0
 36 79  2  0  0  0  0
 37 54  1  0  0  0  0
 37 75  1  0  0  0  0
 37 80  2  0  0  0  0
 38 65  1  0  0  0  0
 38 70  1  0  0  0  0
 38 81  2  0  0  0  0
 39 66  1  0  0  0  0
 39 76  1  0  0  0  0
 39 82  2  0  0  0  0
 40 71  1  0  0  0  0
 40 74  1  0  0  0  0
 40 83  2  0  0  0  0
 41 45  1  0  0  0  0
 42 54  1  0  0  0  0
 43 70  1  0  0  0  0
 44 56  1  0  0  0  0
 45 47  1  0  0  0  0
 46 48  1  0  0  0  0
 46 50  1  0  0  0  0
 47 53  1  0  0  0  0
 48 55  1  0  0  0  0
 49 52  1  0  0  0  0
 49 56  1  0  0  0  0
 50 71  1  0  0  0  0
 51 55  1  0  0  0  0
 51 71  1  0  0  0  0
 52 77  1  0  0  0  0
 53 75  1  0  0  0  0
 54 70  1  0  0  0  0
 55 69  1  0  0  0  0
 56 85  1  0  0  0  0
 57 64  1  0  0  0  0
 58 66  1  0  0  0  0
 59 67  1  0  0  0  0
 60 67  1  0  0  0  0
 61 67  1  0  0  0  0
 62 78  1  0  0  0  0
 63 77  1  0  0  0  0
 65 67  1  0  0  0  0
 65 76  1  0  0  0  0
 66 78  1  0  0  0  0
 68 69  1  0  0  0  0
M  CHG  2  77   1  78   1
M  ISO  4  40 100  56 101  74 100  85 101
M  END
> <Batch ID>
0046

> <Smiles>
CCC=C1C[101CH:1]([101O:1]c2ccc3c(c2)CN(C(=O)C(NC(=O)C(C)NC)C(C)(C)C)C(C(=O)NC2CCCc4ccccc42)C3)CCN1Cc1cc(Cl)c([100NH:0][100C:0](=O)N2CCCC(n3nc(-c4ccc(Oc5ccc(F)cc5F)cc4)c(C(N)=O)c3N)C2)cc1Cl

> <Shape>
0.263

> <Color>
0.109

> <Negative vol penalty>
0.000

$$$$

  -OEChem-04042322233D

 87 95  0     1  0  0  0  0  0999 V2000
  -28.8705  -36.4148   19.4757 C   0  0  0  0  0  0  0  0  0  0  0  0
  -29.2054  -35.1842   18.9199 C   0  0  0  0  0  0  0  0  0  0  0  0
  -23.2167  -10.9326   22.2745 C   0  0  0  0  0  0  0  0  0  0  0  0
  -22.9573  -13.3196   22.0068 C   0  0  0  0  0  0  0  0  0  0  0  0
  -28.2378  -36.4687   20.7170 C   0  0  0  0  0  0  0  0  0  0  0  0
  -28.9087  -34.0068   19.6055 C   0  0  0  0  0  0  0  0  0  0  0  0
  -27.0509  -27.1866   18.4437 C   0  0  0  0  0  0  0  0  0  0  0  0
  -29.6002  -19.4161   20.4242 C   0  0  0  0  0  0  0  0  0  0  0  0
  -29.2524  -18.1050   20.0990 C   0  0  0  0  0  0  0  0  0  0  0  0
  -22.2947  -10.9497   23.3210 C   0  0  0  0  0  0  0  0  0  0  0  0
  -22.0352  -13.3368   23.0532 C   0  0  0  0  0  0  0  0  0  0  0  0
  -27.4383  -25.8916   18.7854 C   0  0  0  0  0  0  0  0  0  0  0  0
  -18.9349  -11.0782   23.6788 C   0  0  0  0  0  0  0  0  0  0  0  0
  -17.9503  -10.0902   23.6916 C   0  0  0  0  0  0  0  0  0  0  0  0
  -26.2721  -26.1037   20.8864 C   0  0  0  0  0  0  0  0  0  0  0  0
  -31.4430  -17.3533   20.7871 C   0  0  0  0  0  0  0  0  0  0  0  0
  -18.7510   -9.3200   25.8370 C   0  0  0  0  0  0  0  0  0  0  0  0
  -23.5480  -12.1176   21.6174 C   0  0  0  0  0  0  0  0  0  0  0  0
  -24.2300  -11.9177   19.1674 C   0  0  0  0  0  0  0  0  0  0  0  0
  -27.9244  -35.2910   21.4137 C   0  0  0  0  0  0  0  0  0  0  0  0
  -26.2792  -27.9551   19.3270 C   0  0  0  0  0  0  0  0  0  0  0  0
  -28.2723  -34.0451   20.8579 C   0  0  0  0  0  0  0  0  0  0  0  0
  -25.8742  -27.4072   20.5525 C   0  0  0  0  0  0  0  0  0  0  0  0
  -30.8694  -19.6958   20.9308 C   0  0  0  0  0  0  0  0  0  0  0  0
  -31.7907  -18.6644   21.1123 C   0  0  0  0  0  0  0  0  0  0  0  0
  -30.1738  -17.0737   20.2804 C   0  0  0  0  0  0  0  0  0  0  0  0
  -21.7039  -12.1518   23.7104 C   0  0  0  0  0  0  0  0  0  0  0  0
  -27.0513  -25.3510   20.0081 C   0  0  0  0  0  0  0  0  0  0  0  0
  -19.8276  -11.1870   24.7451 C   0  0  0  0  0  0  0  0  0  0  0  0
  -17.8583   -9.2112   24.7706 C   0  0  0  0  0  0  0  0  0  0  0  0
  -19.7356  -10.3080   25.8242 C   0  0  0  0  0  0  0  0  0  0  0  0
  -24.5009  -12.1006   20.5367 C   0  0  0  0  0  0  0  0  0  0  0  0
  -25.4610  -11.9845   18.5620 C   0  0  0  0  0  0  0  0  0  0  0  0
  -22.9776  -11.7065   18.5022 C   0  0  0  0  0  0  0  0  0  0  0  0
  -26.7065  -30.6983   20.8748 C   0  0  0  0  0  0  0  0  0  0  0  0
  -23.6044  -30.2578   21.7146 C   0  0  0  0  0  0  0  0  0  0  0  0
  -29.2894  -22.6278   20.7770 C   0  0  0  0  0  0  0  0  0  0  0  0
  -21.0129  -28.0900   22.1955 C   0  0  0  0  0  0  0  0  0  0  0  0
  -30.6160  -14.6024   20.0714 C   0  0  0  0  0  0  0  0  0  0  0  0
  -27.2826  -35.4013   22.7741 C   0  0  0  0  0  0  0  0  0  0  0  0
  -25.8471  -29.3407   18.9321 C   0  0  0  0  0  0  0  0  0  0  0  0
  -25.0283  -28.1835   21.5274 C   0  0  0  0  0  0  0  0  0  0  0  0
  -26.6658  -34.0939   23.2644 C   0  0  0  0  0  0  0  0  0  0  0  0
  -30.0995  -11.1431   19.4054 C   0  0  0  0  0  0  0  0  0  0  0  0
  -27.6325  -32.9338   23.0491 C   0  0  0  0  0  0  0  0  0  0  0  0
  -28.5800  -10.9806   19.4893 C   0  0  0  0  0  0  0  0  0  0  0  0
  -30.6205  -12.1442   20.4350 C   0  0  0  0  0  0  0  0  0  0  0  0
  -28.4427  -13.2942   20.4971 C   0  0  0  0  0  0  0  0  0  0  0  0
  -27.9447  -32.7450   21.5596 C   0  0  1  0  0  0  0  0  0  0  0  0
  -25.4938  -30.2199   20.1277 C   0  0  1  0  0  0  0  0  0  0  0  0
  -27.8637  -12.3443   19.4359 C   0  0  2  0  0  0  0  0  0  0  0  0
  -18.6113  -28.0206   22.9202 C   0  0  0  0  0  0  0  0  0  0  0  0
  -34.1579  -19.2429   20.5460 C   0  0  0  0  0  0  0  0  0  0  0  0
  -24.4741  -30.5913   24.6202 C   0  0  0  0  0  0  0  0  0  0  0  0
  -22.2883  -29.5884   25.3167 C   0  0  0  0  0  0  0  0  0  0  0  0
  -22.3249  -31.7296   24.0374 C   0  0  0  0  0  0  0  0  0  0  0  0
  -31.1960  -22.4051   19.1746 C   0  0  0  0  0  0  0  0  0  0  0  0
  -20.1343  -27.0162   19.5813 C   0  0  0  0  0  0  0  0  0  0  0  0
  -31.2208  -21.1148   21.2729 C   0  0  0  0  0  0  0  0  0  0  0  0
  -28.6667  -23.6164   19.8139 C   0  0  0  0  0  0  0  0  0  1  0  0
  -22.8928  -29.5688   22.8539 C   0  0  1  0  0  0  0  0  0  0  0  0
  -19.5651  -28.1342   21.7411 C   0  0  2  0  0  0  0  0  0  0  0  0
  -33.1546  -18.9399   21.6552 C   0  0  0  0  0  0  0  0  0  0  0  0
  -23.0126  -30.3554   24.1897 C   0  0  0  0  0  0  0  0  0  0  0  0
  -25.8018  -12.2705   20.7868 N   0  0  0  0  0  0  0  0  0  0  0  0
  -26.3595  -12.1947   19.5663 N   0  0  0  0  0  0  0  0  0  0  0  0
  -24.6366  -29.5363   21.0983 N   0  0  0  0  0  0  0  0  0  0  0  0
  -29.8988  -13.4135   20.3223 N   0  0  0  0  0  0  0  0  0  0  0  0
  -25.8518  -11.8832   17.2738 N   0  0  0  0  0  0  0  0  0  0  0  0
  -21.8091  -11.6655   19.2750 N   0  0  0  0  0  0  0  0  0  0  0  0
  -29.8203  -15.7414   19.9520 N   0  0  0  0  0  0  0  0  0  0  0  0
  -26.8490  -32.0727   20.8948 N   0  0  0  0  0  0  0  0  0  0  0  0
  -21.5204  -29.3544   22.4078 N   0  0  0  0  0  0  0  0  0  0  0  0
  -30.5190  -22.0722   20.4218 N   0  0  0  0  0  0  0  0  0  0  0  0
  -19.2834  -27.0143   20.7991 N   0  3  0  0  0  0  0  0  0  0  0  0
  -22.8988  -11.5422   17.2611 O   0  0  0  0  0  0  0  0  0  0  0  0
  -27.4566  -29.8812   21.3957 O   0  0  0  0  0  0  0  0  0  0  0  0
  -23.2526  -31.3915   21.3792 O   0  0  0  0  0  0  0  0  0  0  0  0
  -28.6927  -22.3651   21.8257 O   0  0  0  0  0  0  0  0  0  0  0  0
  -21.6306  -27.0388   22.3505 O   0  0  0  0  0  0  0  0  0  0  0  0
  -31.8429  -14.6053   19.9430 O   0  0  0  0  0  0  0  0  0  0  0  0
  -20.8040  -12.1689   24.7313 O   0  0  0  0  0  0  0  0  0  0  0  0
  -27.4285  -24.0875   20.3444 O   0  0  0  0  0  0  0  0  0  1  0  0
  -16.9118   -8.2634   24.7835 F   0  0  0  0  0  0  0  0  0  0  0  0
  -20.5896  -10.4084   26.8521 F   0  0  0  0  0  0  0  0  0  0  0  0
  -33.6616  -17.8939   22.3820 F   0  0  0  0  0  0  0  0  0  0  0  0
  -33.1800  -20.0015   22.5224 F   0  0  0  0  0  0  0  0  0  0  0  0
  1  2  1  0  0  0  0
  1  5  2  0  0  0  0
  2  6  2  0  0  0  0
  3 10  2  0  0  0  0
  3 18  1  0  0  0  0
  4 11  1  0  0  0  0
  4 18  2  0  0  0  0
  5 20  1  0  0  0  0
  6 22  1  0  0  0  0
  7 12  2  0  0  0  0
  7 21  1  0  0  0  0
  8  9  2  0  0  0  0
  8 24  1  0  0  0  0
  9 26  1  0  0  0  0
 10 27  1  0  0  0  0
 11 27  2  0  0  0  0
 12 28  1  0  0  0  0
 13 14  2  0  0  0  0
 13 29  1  0  0  0  0
 14 30  1  0  0  0  0
 15 23  1  0  0  0  0
 15 28  2  0  0  0  0
 16 25  1  0  0  0  0
 16 26  2  0  0  0  0
 17 30  2  0  0  0  0
 17 31  1  0  0  0  0
 18 32  1  0  0  0  0
 19 32  1  0  0  0  0
 19 33  2  0  0  0  0
 19 34  1  0  0  0  0
 20 22  2  0  0  0  0
 20 40  1  0  0  0  0
 21 23  2  0  0  0  0
 21 41  1  0  0  0  0
 22 49  1  0  0  0  0
 23 42  1  0  0  0  0
 24 25  2  0  0  0  0
 24 59  1  0  0  0  0
 25 63  1  0  0  0  0
 26 71  1  0  0  0  0
 27 82  1  0  0  0  0
 28 83  1  0  0  0  0
 29 31  2  0  0  0  0
 29 82  1  0  0  0  0
 30 84  1  0  0  0  0
 31 85  1  0  0  0  0
 32 65  2  0  0  0  0
 33 66  1  0  0  0  0
 33 69  1  0  0  0  0
 34 70  1  0  0  0  0
 34 76  2  0  0  0  0
 35 50  1  0  0  0  0
 35 72  1  0  0  0  0
 35 77  2  0  0  0  0
 36 61  1  0  0  0  0
 36 67  1  0  0  0  0
 36 78  2  0  0  0  0
 37 60  1  0  0  0  0
 37 74  1  0  0  0  0
 37 79  2  0  0  0  0
 38 62  1  0  0  0  0
 38 73  1  0  0  0  0
 38 80  2  0  0  0  0
 39 68  1  0  0  0  0
 39 71  1  0  0  0  0
 39 81  2  0  0  0  0
 40 43  1  0  0  0  0
 41 50  1  0  0  0  0
 42 67  1  0  0  0  0
 43 45  1  0  0  0  0
 44 46  1  0  0  0  0
 44 47  1  0  0  0  0
 45 49  1  0  0  0  0
 46 51  1  0  0  0  0
 47 68  1  0  0  0  0
 48 51  1  0  0  0  0
 48 68  1  0  0  0  0
 49 72  1  0  0  0  0
 50 67  1  0  0  0  0
 51 66  1  0  0  0  0
 52 62  1  0  0  0  0
 53 63  1  0  0  0  0
 54 64  1  0  0  0  0
 55 64  1  0  0  0  0
 56 64  1  0  0  0  0
 57 74  1  0  0  0  0
 58 75  1  0  0  0  0
 59 74  1  0  0  0  0
 60 83  1  0  0  0  0
 61 64  1  0  0  0  0
 61 73  1  0  0  0  0
 62 75  1  0  0  0  0
 63 86  1  0  0  0  0
 63 87  1  0  0  0  0
 65 66  1  0  0  0  0
M  CHG  1  75   1
M  ISO  4  39 100  60 101  71 100  83 101
M  END
> <Batch ID>
0046

> <Smiles>
CNC(C)C(=O)NC(C(=O)N1Cc2cc([101O:1][101CH2:1]C(=O)N(C)Cc3ccc([100NH:0][100C:0](=O)N4CCCC(n5nc(-c6ccc(Oc7ccc(F)cc7F)cc6)c(C(N)=O)c5N)C4)cc3C(C)(F)F)ccc2CC1C(=O)NC1CCCc2ccccc21)C(C)(C)C

> <Shape>
0.268

> <Color>
0.083

> <Negative vol penalty>
0.000

$$$$

  -OEChem-04042322233D

 86 95  0     1  0  0  0  0  0999 V2000
  -17.1353  -26.7268   20.5766 C   0  0  0  0  0  0  0  0  0  0  0  0
  -18.4302  -26.2202   20.5314 C   0  0  0  0  0  0  0  0  0  0  0  0
  -22.7610  -10.7122   21.4735 C   0  0  0  0  0  0  0  0  0  0  0  0
  -24.4956   -9.0322   21.5506 C   0  0  0  0  0  0  0  0  0  0  0  0
  -16.9292  -28.1018   20.6800 C   0  0  0  0  0  0  0  0  0  0  0  0
  -19.5198  -27.0885   20.5886 C   0  0  0  0  0  0  0  0  0  0  0  0
  -23.1318  -25.4679   23.7465 C   0  0  0  0  0  0  0  0  0  0  0  0
  -27.5530  -18.8514   23.0999 C   0  0  0  0  0  0  0  0  0  0  0  0
  -27.5370  -17.7542   22.2388 C   0  0  0  0  0  0  0  0  0  0  0  0
  -22.0330  -10.0044   22.4299 C   0  0  0  0  0  0  0  0  0  0  0  0
  -23.7676   -8.3244   22.5069 C   0  0  0  0  0  0  0  0  0  0  0  0
  -23.9723  -24.4551   23.2864 C   0  0  0  0  0  0  0  0  0  0  0  0
  -21.1140   -6.2304   22.5706 C   0  0  0  0  0  0  0  0  0  0  0  0
  -20.9991   -4.8500   22.4067 C   0  0  0  0  0  0  0  0  0  0  0  0
  -25.6659  -26.0975   22.7830 C   0  0  0  0  0  0  0  0  0  0  0  0
  -29.9265  -17.5130   22.5017 C   0  0  0  0  0  0  0  0  0  0  0  0
  -22.0835   -4.5066   24.5382 C   0  0  0  0  0  0  0  0  0  0  0  0
  -23.9923  -10.2261   21.0338 C   0  0  0  0  0  0  0  0  0  0  0  0
  -24.3380  -11.2828   18.7379 C   0  0  0  0  0  0  0  0  0  0  0  0
  -18.0169  -28.9867   20.7482 C   0  0  0  0  0  0  0  0  0  0  0  0
  -23.5486  -26.8065   23.7180 C   0  0  0  0  0  0  0  0  0  0  0  0
  -19.3280  -28.4768   20.6917 C   0  0  0  0  0  0  0  0  0  0  0  0
  -24.8298  -27.1251   23.2456 C   0  0  0  0  0  0  0  0  0  0  0  0
  -28.7558  -19.2795   23.6618 C   0  0  0  0  0  0  0  0  0  0  0  0
  -28.7237  -17.0850   21.9397 C   0  0  0  0  0  0  0  0  0  0  0  0
  -22.5363   -8.8105   22.9466 C   0  0  0  0  0  0  0  0  0  0  0  0
  -25.2384  -24.7701   22.8019 C   0  0  0  0  0  0  0  0  0  0  0  0
  -21.7137   -6.7489   23.7183 C   0  0  0  0  0  0  0  0  0  0  0  0
  -21.4838   -3.9881   23.3905 C   0  0  0  0  0  0  0  0  0  0  0  0
  -29.9425  -18.6103   23.3628 C   0  0  0  0  0  0  0  0  0  0  0  0
  -22.1984   -5.8871   24.7021 C   0  0  0  0  0  0  0  0  0  0  0  0
  -24.7446  -10.9565   20.0456 C   0  0  0  0  0  0  0  0  0  0  0  0
  -25.4008  -11.9748   18.2105 C   0  0  0  0  0  0  0  0  0  0  0  0
  -27.3568  -22.2621   23.6779 C   0  0  0  0  0  0  0  0  0  0  0  0
  -23.1095  -10.9870   18.0605 C   0  0  0  0  0  0  0  0  0  0  0  0
  -22.5292  -29.4429   22.2640 C   0  0  0  0  0  0  0  0  0  0  0  0
  -24.8174  -30.8587   24.0756 C   0  0  0  0  0  0  0  0  0  0  0  0
  -28.2057  -30.1312   25.0796 C   0  0  0  0  0  0  0  0  0  0  0  0
  -29.7955  -15.1965   20.6625 C   0  0  0  0  0  0  0  0  0  0  0  0
  -17.7441  -30.4687   20.8119 C   0  0  0  0  0  0  0  0  0  0  0  0
  -22.6403  -27.8845   24.2427 C   0  0  0  0  0  0  0  0  0  0  0  0
  -25.3326  -28.5445   23.2127 C   0  0  0  0  0  0  0  0  0  0  0  0
  -18.9541  -31.2926   21.2447 C   0  0  0  0  0  0  0  0  0  0  0  0
  -29.7514  -23.6226   22.6768 C   0  0  0  0  0  0  0  0  0  0  0  0
  -30.1627  -12.3534   18.5508 C   0  0  0  0  0  0  0  0  0  0  0  0
  -20.2001  -30.8520   20.4830 C   0  0  0  0  0  0  0  0  0  0  0  0
  -28.4157  -23.8554   22.0020 C   0  0  0  0  0  0  0  0  0  0  0  0
  -28.7763  -11.7057   18.5706 C   0  0  0  0  0  0  0  0  0  0  0  0
  -29.8279  -22.1914   23.1774 C   0  0  0  0  0  0  0  0  0  0  0  0
  -30.5315  -12.9455   19.9099 C   0  0  0  0  0  0  0  0  0  0  0  0
  -28.1541  -13.2235   20.4932 C   0  0  0  0  0  0  0  0  0  0  0  0
  -20.5358  -29.3847   20.7761 C   0  0  1  0  0  0  0  0  0  0  0  0
  -27.3067  -23.6309   23.0109 C   0  0  1  0  0  0  0  0  0  1  0  0
  -22.9718  -29.2669   23.6891 C   0  0  1  0  0  0  0  0  0  0  0  0
  -27.7115  -12.6702   19.1288 C   0  0  2  0  0  0  0  0  0  0  0  0
  -29.4939  -30.8442   27.1117 C   0  0  0  0  0  0  0  0  0  0  0  0
  -25.8049  -33.1317   22.2956 C   0  0  0  0  0  0  0  0  0  0  0  0
  -28.0545  -32.9028   23.3703 C   0  0  0  0  0  0  0  0  0  0  0  0
  -26.0742  -33.5355   24.7489 C   0  0  0  0  0  0  0  0  0  0  0  0
  -28.8363  -27.3320   25.8047 C   0  0  0  0  0  0  0  0  0  0  0  0
  -28.7682  -20.4598   24.5897 C   0  0  0  0  0  0  0  0  0  0  0  0
  -26.2850  -31.1644   23.8972 C   0  0  1  0  0  0  0  0  0  0  0  0
  -28.6772  -29.7351   26.4671 C   0  0  2  0  0  0  0  0  0  0  0  0
  -26.5424  -32.6613   23.5652 C   0  0  0  0  0  0  0  0  0  0  0  0
  -25.9701  -11.4042   20.3314 N   0  0  0  0  0  0  0  0  0  0  0  0
  -26.3428  -12.0189   19.1958 N   0  0  0  0  0  0  0  0  0  0  0  0
  -28.6285  -21.7194   23.8714 N   0  0  0  0  0  0  0  0  0  0  0  0
  -24.4051  -29.5637   23.7308 N   0  0  0  0  0  0  0  0  0  0  0  0
  -29.4789  -13.8523   20.3734 N   0  0  0  0  0  0  0  0  0  0  0  0
  -25.6122  -12.5437   17.0046 N   0  0  0  0  0  0  0  0  0  0  0  0
  -22.1235  -10.2671   18.7489 N   0  0  0  0  0  0  0  0  0  0  0  0
  -28.7078  -15.9716   21.0635 N   0  0  0  0  0  0  0  0  0  0  0  0
  -21.1733  -29.2607   22.0695 N   0  0  0  0  0  0  0  0  0  0  0  0
  -26.9493  -30.6985   25.1097 N   0  0  0  0  0  0  0  0  0  0  0  0
  -29.5220  -28.5094   26.3968 N   0  3  0  0  0  0  0  0  0  0  0  0
  -26.3144  -21.7306   24.0691 O   0  0  0  0  0  0  0  0  0  0  0  0
  -22.8990  -11.3359   16.8741 O   0  0  0  0  0  0  0  0  0  0  0  0
  -23.3563  -29.7246   21.4049 O   0  0  0  0  0  0  0  0  0  0  0  0
  -24.0660  -31.7343   24.5117 O   0  0  0  0  0  0  0  0  0  0  0  0
  -28.8856  -29.9583   24.0704 O   0  0  0  0  0  0  0  0  0  0  0  0
  -30.9416  -15.6350   20.5356 O   0  0  0  0  0  0  0  0  0  0  0  0
  -21.8263   -8.1197   23.8800 O   0  0  0  0  0  0  0  0  0  0  0  0
  -26.0605  -23.7835   22.3517 O   0  0  0  0  0  0  0  0  0  1  0  0
  -21.3720   -2.6626   23.2337 F   0  0  0  0  0  0  0  0  0  0  0  0
  -31.1031  -19.0141   23.8979 F   0  0  0  0  0  0  0  0  0  0  0  0
  -22.7744   -6.3794   25.8074 F   0  0  0  0  0  0  0  0  0  0  0  0
  1  2  1  0  0  0  0
  1  5  2  0  0  0  0
  2  6  2  0  0  0  0
  3 10  2  0  0  0  0
  3 18  1  0  0  0  0
  4 11  1  0  0  0  0
  4 18  2  0  0  0  0
  5 20  1  0  0  0  0
  6 22  1  0  0  0  0
  7 12  2  0  0  0  0
  7 21  1  0  0  0  0
  8  9  2  0  0  0  0
  8 24  1  0  0  0  0
  9 25  1  0  0  0  0
 10 26  1  0  0  0  0
 11 26  2  0  0  0  0
 12 27  1  0  0  0  0
 13 14  2  0  0  0  0
 13 28  1  0  0  0  0
 14 29  1  0  0  0  0
 15 23  1  0  0  0  0
 15 27  2  0  0  0  0
 16 25  2  0  0  0  0
 16 30  1  0  0  0  0
 17 29  2  0  0  0  0
 17 31  1  0  0  0  0
 18 32  1  0  0  0  0
 19 32  1  0  0  0  0
 19 33  2  0  0  0  0
 19 35  1  0  0  0  0
 20 22  2  0  0  0  0
 20 40  1  0  0  0  0
 21 23  2  0  0  0  0
 21 41  1  0  0  0  0
 22 52  1  0  0  0  0
 23 42  1  0  0  0  0
 24 30  2  0  0  0  0
 24 61  1  0  0  0  0
 25 72  1  0  0  0  0
 26 82  1  0  0  0  0
 27 83  1  0  0  0  0
 28 31  2  0  0  0  0
 28 82  1  0  0  0  0
 29 84  1  0  0  0  0
 30 85  1  0  0  0  0
 31 86  1  0  0  0  0
 32 65  2  0  0  0  0
 33 66  1  0  0  0  0
 33 70  1  0  0  0  0
 34 53  1  0  0  0  0
 34 67  1  0  0  0  0
 34 76  2  0  0  0  0
 35 71  1  0  0  0  0
 35 77  2  0  0  0  0
 36 54  1  0  0  0  0
 36 73  1  0  0  0  0
 36 78  2  0  0  0  0
 37 62  1  0  0  0  0
 37 68  1  0  0  0  0
 37 79  2  0  0  0  0
 38 63  1  0  0  0  0
 38 74  1  0  0  0  0
 38 80  2  0  0  0  0
 39 69  1  0  0  0  0
 39 72  1  0  0  0  0
 39 81  2  0  0  0  0
 40 43  1  0  0  0  0
 41 54  1  0  0  0  0
 42 68  1  0  0  0  0
 43 46  1  0  0  0  0
 44 47  1  0  0  0  0
 44 49  1  0  0  0  0
 45 48  1  0  0  0  0
 45 50  1  0  0  0  0
 46 52  1  0  0  0  0
 47 53  1  0  0  0  0
 48 55  1  0  0  0  0
 49 67  1  0  0  0  0
 50 69  1  0  0  0  0
 51 55  1  0  0  0  0
 51 69  1  0  0  0  0
 52 73  1  0  0  0  0
 53 83  1  0  0  0  0
 54 68  1  0  0  0  0
 55 66  1  0  0  0  0
 56 63  1  0  0  0  0
 57 64  1  0  0  0  0
 58 64  1  0  0  0  0
 59 64  1  0  0  0  0
 60 75  1  0  0  0  0
 61 67  1  0  0  0  0
 62 64  1  0  0  0  0
 62 74  1  0  0  0  0
 63 75  1  0  0  0  0
 65 66  1  0  0  0  0
M  CHG  1  75   1
M  ISO  4  39 100  53 101  72 100  83 101
M  END
> <Batch ID>
0046

> <Smiles>
CNC(C)C(=O)NC(C(=O)N1Cc2cc([101O:1][101CH:1]3CCCN(Cc4ccc([100NH:0][100C:0](=O)N5CCCC(n6nc(-c7ccc(Oc8ccc(F)cc8F)cc7)c(C(N)=O)c6N)C5)cc4F)C3=O)ccc2CC1C(=O)NC1CCCc2ccccc21)C(C)(C)C

> <Shape>
0.250

> <Color>
0.093

> <Negative vol penalty>
0.000

$$$$

  -OEChem-04042322233D

 87 96  0     1  0  0  0  0  0999 V2000
  -31.6261  -26.6265   17.8403 C   0  0  0  0  0  0  0  0  0  0  0  0
  -30.8023  -25.6173   18.3285 C   0  0  0  0  0  0  0  0  0  0  0  0
  -28.4427  -17.9968   22.1328 C   0  0  0  0  0  0  0  0  0  0  0  0
  -28.7878  -17.1943   19.8803 C   0  0  0  0  0  0  0  0  0  0  0  0
  -31.5556  -27.9075   18.3862 C   0  0  0  0  0  0  0  0  0  0  0  0
  -29.9083  -25.8883   19.3637 C   0  0  0  0  0  0  0  0  0  0  0  0
  -24.3403  -23.4622   20.1491 C   0  0  0  0  0  0  0  0  0  0  0  0
  -20.8561  -13.8536   25.2902 C   0  0  0  0  0  0  0  0  0  0  0  0
  -28.7910  -19.2851   21.7272 C   0  0  0  0  0  0  0  0  0  0  0  0
  -29.1360  -18.4827   19.4746 C   0  0  0  0  0  0  0  0  0  0  0  0
  -23.8764  -22.4175   20.9474 C   0  0  0  0  0  0  0  0  0  0  0  0
  -27.5467  -21.3585   18.6847 C   0  0  0  0  0  0  0  0  0  0  0  0
  -26.9953  -21.8329   17.4945 C   0  0  0  0  0  0  0  0  0  0  0  0
  -20.7701  -14.8347   26.2780 C   0  0  0  0  0  0  0  0  0  0  0  0
  -23.2227  -24.0082   22.6389 C   0  0  0  0  0  0  0  0  0  0  0  0
  -20.4780  -15.5301   23.5922 C   0  0  0  0  0  0  0  0  0  0  0  0
  -29.2129  -22.1042   16.5751 C   0  0  0  0  0  0  0  0  0  0  0  0
  -28.4412  -16.9514   21.2093 C   0  0  0  0  0  0  0  0  0  0  0  0
  -28.7209  -14.8354   22.6065 C   0  0  0  0  0  0  0  0  0  0  0  0
  -30.6535  -28.1967   19.4221 C   0  0  0  0  0  0  0  0  0  0  0  0
  -24.2587  -24.7892   20.5952 C   0  0  0  0  0  0  0  0  0  0  0  0
  -29.8267  -27.1740   19.9249 C   0  0  0  0  0  0  0  0  0  0  0  0
  -23.6839  -25.0682   21.8434 C   0  0  0  0  0  0  0  0  0  0  0  0
  -20.7101  -14.2013   23.9473 C   0  0  0  0  0  0  0  0  0  0  0  0
  -20.3919  -16.5112   24.5800 C   0  0  0  0  0  0  0  0  0  0  0  0
  -29.1376  -19.5281   20.3981 C   0  0  0  0  0  0  0  0  0  0  0  0
  -23.3201  -22.6902   22.1937 C   0  0  0  0  0  0  0  0  0  0  0  0
  -28.9313  -21.2570   18.8200 C   0  0  0  0  0  0  0  0  0  0  0  0
  -27.8283  -22.2057   16.4397 C   0  0  0  0  0  0  0  0  0  0  0  0
  -29.7644  -21.6299   17.7652 C   0  0  0  0  0  0  0  0  0  0  0  0
  -20.5380  -16.1635   25.9229 C   0  0  0  0  0  0  0  0  0  0  0  0
  -28.0821  -15.6202   21.6278 C   0  0  0  0  0  0  0  0  0  0  0  0
  -28.0036  -13.6643   22.6295 C   0  0  0  0  0  0  0  0  0  0  0  0
  -22.3710  -18.7567   23.6862 C   0  0  0  0  0  0  0  0  0  0  0  0
  -23.4495  -18.0954   24.1327 C   0  0  0  0  0  0  0  0  0  0  0  0
  -29.8608  -15.1379   23.4219 C   0  0  0  0  0  0  0  0  0  0  0  0
  -26.3731  -27.0747   21.2349 C   0  0  0  0  0  0  0  0  0  0  0  0
  -23.7116  -28.8868   21.6287 C   0  0  0  0  0  0  0  0  0  0  0  0
  -20.4546  -28.4907   23.1296 C   0  0  0  0  0  0  0  0  0  0  0  0
  -22.3611  -12.3093   21.1539 C   0  0  0  0  0  0  0  0  0  0  0  0
  -30.6467  -29.5846   20.0124 C   0  0  0  0  0  0  0  0  0  0  0  0
  -24.7391  -25.9070   19.7109 C   0  0  0  0  0  0  0  0  0  0  0  0
  -23.5546  -26.4771   22.3598 C   0  0  0  0  0  0  0  0  0  0  0  0
  -22.3119  -19.4090   22.3290 C   0  0  0  0  0  0  0  0  0  0  0  0
  -29.4079  -29.8829   20.8530 C   0  0  0  0  0  0  0  0  0  0  0  0
  -25.3286  -10.8561   19.8278 C   0  0  0  0  0  0  0  0  0  0  0  0
  -29.1171  -28.7265   21.8043 C   0  0  0  0  0  0  0  0  0  0  0  0
  -26.4284  -11.8415   20.2270 C   0  0  0  0  0  0  0  0  0  0  0  0
  -20.5956  -20.9707   23.3365 C   0  0  0  0  0  0  0  0  0  0  0  0
  -24.0280  -11.5745   19.4752 C   0  0  0  0  0  0  0  0  0  0  0  0
  -24.6312  -13.4854   20.9099 C   0  0  0  0  0  0  0  0  0  0  0  0
  -20.8104  -20.3129   24.6988 C   0  0  0  0  0  0  0  0  0  0  0  0
  -28.8265  -27.4351   21.0302 C   0  0  1  0  0  0  0  0  0  0  0  0
  -25.0756  -27.1782   20.4843 C   0  0  1  0  0  0  0  0  0  0  0  0
  -25.9457  -12.8046   21.3282 C   0  0  2  0  0  0  0  0  0  0  0  0
  -21.8274  -20.8549   22.4388 C   0  0  1  0  0  0  0  0  0  1  0  0
  -18.2709  -29.6119   22.6086 C   0  0  0  0  0  0  0  0  0  0  0  0
  -24.5189  -30.8371   23.8320 C   0  0  0  0  0  0  0  0  0  0  0  0
  -22.1241  -30.8979   24.5596 C   0  0  0  0  0  0  0  0  0  0  0  0
  -22.7535  -31.6898   22.2794 C   0  0  0  0  0  0  0  0  0  0  0  0
  -19.0840  -25.8973   22.7366 C   0  0  0  0  0  0  0  0  0  0  0  0
  -20.8020  -13.1519   22.8913 C   0  0  0  0  0  0  0  0  0  0  0  0
  -20.1421  -17.9287   24.1566 C   0  0  0  0  0  0  0  0  0  0  0  0
  -22.8031  -29.2140   22.7892 C   0  0  1  0  0  0  0  0  0  0  0  0
  -19.1273  -28.3722   22.4026 C   0  0  2  0  0  0  0  0  0  0  0  0
  -23.0640  -30.6350   23.3637 C   0  0  0  0  0  0  0  0  0  0  0  0
  -27.0392  -15.0000   21.0694 N   0  0  0  0  0  0  0  0  0  0  0  0
  -27.0173  -13.8130   21.6992 N   0  0  0  0  0  0  0  0  0  0  0  0
  -24.0446  -27.5352   21.4609 N   0  0  0  0  0  0  0  0  0  0  0  0
  -23.6243  -12.4709   20.5613 N   0  0  0  0  0  0  0  0  0  0  0  0
  -28.1266  -12.5322   23.3544 N   0  0  0  0  0  0  0  0  0  0  0  0
  -31.1343  -14.8073   22.9390 N   0  0  0  0  0  0  0  0  0  0  0  0
  -27.4799  -27.4555   20.5004 N   0  0  0  0  0  0  0  0  0  0  0  0
  -21.4404  -29.0030   22.3128 N   0  0  0  0  0  0  0  0  0  0  0  0
  -22.0602  -13.1964   22.1802 N   0  0  0  0  0  0  0  0  0  0  0  0
  -21.2389  -18.8697   24.5721 N   0  3  1  0  0  0  0  0  0  0  0  0
  -18.3688  -27.1892   22.8987 N   0  3  0  0  0  0  0  0  0  0  0  0
  -29.7520  -15.6702   24.5525 O   0  0  0  0  0  0  0  0  0  0  0  0
  -26.3702  -26.6800   22.3950 O   0  0  0  0  0  0  0  0  0  0  0  0
  -24.1053  -29.7960   20.8939 O   0  0  0  0  0  0  0  0  0  0  0  0
  -20.6013  -28.1652   24.3057 O   0  0  0  0  0  0  0  0  0  0  0  0
  -21.5628  -11.4356   20.7986 O   0  0  0  0  0  0  0  0  0  0  0  0
  -29.4773  -20.7852   20.0020 O   0  0  0  0  0  0  0  0  0  0  0  0
  -22.8672  -21.6723   22.9751 O   0  0  0  0  0  0  0  0  0  1  0  0
  -27.2986  -22.6598   15.2963 F   0  0  0  0  0  0  0  0  0  0  0  0
  -31.0953  -21.5335   17.8890 F   0  0  0  0  0  0  0  0  0  0  0  0
  -20.4378  -17.3504   27.1720 Cl  0  0  0  0  0  0  0  0  0  0  0  0
  1  2  1  0  0  0  0
  1  5  2  0  0  0  0
  2  6  2  0  0  0  0
  3  9  2  0  0  0  0
  3 18  1  0  0  0  0
  4 10  1  0  0  0  0
  4 18  2  0  0  0  0
  5 20  1  0  0  0  0
  6 22  1  0  0  0  0
  7 11  2  0  0  0  0
  7 21  1  0  0  0  0
  8 14  2  0  0  0  0
  8 24  1  0  0  0  0
  9 26  1  0  0  0  0
 10 26  2  0  0  0  0
 11 27  1  0  0  0  0
 12 13  2  0  0  0  0
 12 28  1  0  0  0  0
 13 29  1  0  0  0  0
 14 31  1  0  0  0  0
 15 23  1  0  0  0  0
 15 27  2  0  0  0  0
 16 24  2  0  0  0  0
 16 25  1  0  0  0  0
 17 29  2  0  0  0  0
 17 30  1  0  0  0  0
 18 32  1  0  0  0  0
 19 32  1  0  0  0  0
 19 33  2  0  0  0  0
 19 36  1  0  0  0  0
 20 22  2  0  0  0  0
 20 41  1  0  0  0  0
 21 23  2  0  0  0  0
 21 42  1  0  0  0  0
 22 53  1  0  0  0  0
 23 43  1  0  0  0  0
 24 62  1  0  0  0  0
 25 31  2  0  0  0  0
 25 63  1  0  0  0  0
 26 83  1  0  0  0  0
 27 84  1  0  0  0  0
 28 30  2  0  0  0  0
 28 83  1  0  0  0  0
 29 85  1  0  0  0  0
 30 86  1  0  0  0  0
 31 87  1  0  0  0  0
 32 67  2  0  0  0  0
 33 68  1  0  0  0  0
 33 71  1  0  0  0  0
 34 35  2  0  0  0  0
 34 44  1  0  0  0  0
 34 76  1  0  0  0  0
 36 72  1  0  0  0  0
 36 78  2  0  0  0  0
 37 54  1  0  0  0  0
 37 73  1  0  0  0  0
 37 79  2  0  0  0  0
 38 64  1  0  0  0  0
 38 69  1  0  0  0  0
 38 80  2  0  0  0  0
 39 65  1  0  0  0  0
 39 74  1  0  0  0  0
 39 81  2  0  0  0  0
 40 70  1  0  0  0  0
 40 75  1  0  0  0  0
 40 82  2  0  0  0  0
 41 45  1  0  0  0  0
 42 54  1  0  0  0  0
 43 69  1  0  0  0  0
 44 56  1  0  0  0  0
 45 47  1  0  0  0  0
 46 48  1  0  0  0  0
 46 50  1  0  0  0  0
 47 53  1  0  0  0  0
 48 55  1  0  0  0  0
 49 52  1  0  0  0  0
 49 56  1  0  0  0  0
 50 70  1  0  0  0  0
 51 55  1  0  0  0  0
 51 70  1  0  0  0  0
 52 76  1  0  0  0  0
 53 73  1  0  0  0  0
 54 69  1  0  0  0  0
 55 68  1  0  0  0  0
 56 84  1  0  0  0  0
 57 65  1  0  0  0  0
 58 66  1  0  0  0  0
 59 66  1  0  0  0  0
 60 66  1  0  0  0  0
 61 77  1  0  0  0  0
 62 75  1  0  0  0  0
 63 76  1  0  0  0  0
 64 66  1  0  0  0  0
 64 74  1  0  0  0  0
 65 77  1  0  0  0  0
 67 68  1  0  0  0  0
M  CHG  2  76   1  77   1
M  ISO  4  40 100  56 101  75 100  84 101
M  END
> <Batch ID>
0046

> <Smiles>
C=C1C[101CH:1]([101O:1]c2ccc3c(c2)CN(C(=O)C(NC(=O)C(C)NC)C(C)(C)C)C(C(=O)NC2CCCc4ccccc42)C3)CCN1Cc1cc(C[100NH:0][100C:0](=O)N2CCCC(n3nc(-c4ccc(Oc5ccc(F)cc5F)cc4)c(C(N)=O)c3N)C2)ccc1Cl

> <Shape>
0.227

> <Color>
0.062

> <Negative vol penalty>
0.000

$$$$

  -OEChem-04042322233D

 89 98  0     1  0  0  0  0  0999 V2000
  -24.2113  -37.1534   25.6238 C   0  0  0  0  0  0  0  0  0  0  0  0
  -23.4032  -36.5247   24.6832 C   0  0  0  0  0  0  0  0  0  0  0  0
  -23.2548  -10.0407   20.3956 C   0  0  0  0  0  0  0  0  0  0  0  0
  -24.5809   -8.8377   22.0177 C   0  0  0  0  0  0  0  0  0  0  0  0
  -25.5655  -36.8343   25.6982 C   0  0  0  0  0  0  0  0  0  0  0  0
  -23.9464  -35.5682   23.8248 C   0  0  0  0  0  0  0  0  0  0  0  0
  -25.4692  -29.0683   18.8413 C   0  0  0  0  0  0  0  0  0  0  0  0
  -27.4211  -21.0637   22.0904 C   0  0  0  0  0  0  0  0  0  0  0  0
  -27.5167  -19.7614   22.5808 C   0  0  0  0  0  0  0  0  0  0  0  0
  -22.2898   -9.0344   20.4382 C   0  0  0  0  0  0  0  0  0  0  0  0
  -23.6159   -7.8314   22.0603 C   0  0  0  0  0  0  0  0  0  0  0  0
  -26.5613  -28.2272   18.6327 C   0  0  0  0  0  0  0  0  0  0  0  0
  -20.5975   -7.3366   23.4973 C   0  0  0  0  0  0  0  0  0  0  0  0
  -20.2192   -6.8563   24.7510 C   0  0  0  0  0  0  0  0  0  0  0  0
  -26.9845  -28.1976   21.0074 C   0  0  0  0  0  0  0  0  0  0  0  0
  -20.9522   -4.6413   24.1235 C   0  0  0  0  0  0  0  0  0  0  0  0
  -24.4004   -9.9423   21.1853 C   0  0  0  0  0  0  0  0  0  0  0  0
  -26.1343  -11.4055   20.0190 C   0  0  0  0  0  0  0  0  0  0  0  0
  -26.1274  -35.8824   24.8316 C   0  0  0  0  0  0  0  0  0  0  0  0
  -25.1325  -29.4898   20.1357 C   0  0  0  0  0  0  0  0  0  0  0  0
  -25.3059  -35.2150   23.9003 C   0  0  0  0  0  0  0  0  0  0  0  0
  -25.8861  -29.0420   21.2300 C   0  0  0  0  0  0  0  0  0  0  0  0
  -27.3733  -21.2891   20.7146 C   0  0  0  0  0  0  0  0  0  0  0  0
  -27.4212  -20.2123   19.8293 C   0  0  0  0  0  0  0  0  0  0  0  0
  -27.5169  -18.9100   20.3197 C   0  0  0  0  0  0  0  0  0  0  0  0
  -27.5646  -18.6846   21.6955 C   0  0  0  0  0  0  0  0  0  0  0  0
  -22.4703   -7.9298   21.2706 C   0  0  0  0  0  0  0  0  0  0  0  0
  -27.3209  -27.7940   19.7154 C   0  0  0  0  0  0  0  0  0  0  0  0
  -21.1530   -6.4693   22.5566 C   0  0  0  0  0  0  0  0  0  0  0  0
  -20.3966   -5.5087   25.0641 C   0  0  0  0  0  0  0  0  0  0  0  0
  -21.3304   -5.1217   22.8698 C   0  0  0  0  0  0  0  0  0  0  0  0
  -25.3979  -10.9812   21.1412 C   0  0  0  0  0  0  0  0  0  0  0  0
  -26.9418  -12.4083   20.4974 C   0  0  0  0  0  0  0  0  0  0  0  0
  -28.3988  -24.5678   19.1489 C   0  0  0  0  0  0  0  0  0  0  0  0
  -28.2879  -23.7557   15.5694 C   0  0  0  0  0  0  0  0  0  0  0  0
  -28.3202  -24.7154   17.8161 C   0  0  0  0  0  0  0  0  0  0  0  0
  -28.3662  -23.6081   16.8966 C   0  0  0  0  0  0  0  0  0  0  0  0
  -26.0923  -10.9353   18.6652 C   0  0  0  0  0  0  0  0  0  0  0  0
  -24.9631  -32.3031   21.6056 C   0  0  0  0  0  0  0  0  0  0  0  0
  -23.7416  -30.5251   24.0282 C   0  0  0  0  0  0  0  0  0  0  0  0
  -24.4381  -27.3359   25.5647 C   0  0  0  0  0  0  0  0  0  0  0  0
  -27.7180  -16.9948   23.5576 C   0  0  0  0  0  0  0  0  0  0  0  0
  -27.5973  -35.5696   24.9608 C   0  0  0  0  0  0  0  0  0  0  0  0
  -23.9353  -30.3757   20.3467 C   0  0  0  0  0  0  0  0  0  0  0  0
  -25.5541  -29.4494   22.6415 C   0  0  0  0  0  0  0  0  0  0  0  0
  -28.1689  -34.8792   23.7267 C   0  0  0  0  0  0  0  0  0  0  0  0
  -27.9219  -13.8660   25.2447 C   0  0  0  0  0  0  0  0  0  0  0  0
  -29.6624  -24.1942   21.6952 C   0  0  0  0  0  0  0  0  0  0  0  0
  -27.2824  -33.7087   23.3285 C   0  0  0  0  0  0  0  0  0  0  0  0
  -29.5359  -25.5982   21.1147 C   0  0  0  0  0  0  0  0  0  0  0  0
  -27.3440  -12.8714   24.2352 C   0  0  0  0  0  0  0  0  0  0  0  0
  -27.1915  -15.2071   25.2013 C   0  0  0  0  0  0  0  0  0  0  0  0
  -26.5219  -14.8268   22.8612 C   0  0  0  0  0  0  0  0  0  0  0  0
  -29.7378  -23.1410   20.5946 C   0  0  0  0  0  0  0  0  0  0  0  0
  -25.8812  -34.1937   22.9358 C   0  0  1  0  0  0  0  0  0  0  0  0
  -28.3549  -25.6999   20.1506 C   0  0  1  0  0  0  0  0  0  1  0  0
  -23.9932  -31.1566   21.6560 C   0  0  1  0  0  0  0  0  0  0  0  0
  -27.2674  -13.4828   22.8224 C   0  0  2  0  0  0  0  0  0  0  0  0
  -27.3697  -20.4573   18.3544 C   0  0  0  0  0  0  0  0  0  0  0  0
  -27.5681  -17.7558   19.3679 C   0  0  0  0  0  0  0  0  0  0  0  0
  -22.9286  -25.7532   26.7950 C   0  0  0  0  0  0  0  0  0  0  0  0
  -24.7357  -31.9738   26.5227 C   0  0  0  0  0  0  0  0  0  0  0  0
  -24.7558  -29.7696   27.7099 C   0  0  0  0  0  0  0  0  0  0  0  0
  -22.6099  -30.6945   26.8369 C   0  0  0  0  0  0  0  0  0  0  0  0
  -25.1405  -25.0886   23.7715 C   0  0  0  0  0  0  0  0  0  0  0  0
  -27.2704  -22.6997   20.2138 C   0  0  0  0  0  0  0  0  0  0  0  0
  -24.3215  -29.7886   25.2115 C   0  0  1  0  0  0  0  0  0  0  0  0
  -23.5956  -26.0768   25.4672 C   0  0  2  0  0  0  0  0  0  0  0  0
  -24.1206  -30.5603   26.5463 C   0  0  0  0  0  0  0  0  0  0  0  0
  -25.7099  -11.6588   22.2491 N   0  0  0  0  0  0  0  0  0  0  0  0
  -26.6514  -12.5191   21.8254 N   0  0  0  0  0  0  0  0  0  0  0  0
  -24.3781  -30.3215   22.7956 N   0  0  0  0  0  0  0  0  0  0  0  0
  -27.1621  -15.7274   23.8327 N   0  0  0  0  0  0  0  0  0  0  0  0
  -27.8648  -13.1973   19.9075 N   0  0  0  0  0  0  0  0  0  0  0  0
  -26.9468   -9.8880   18.2948 N   0  0  0  0  0  0  0  0  0  0  0  0
  -27.6616  -17.3702   22.2158 N   0  0  0  0  0  0  0  0  0  0  0  0
  -25.0147  -33.0478   22.7684 N   0  0  0  0  0  0  0  0  0  0  0  0
  -23.7255  -28.4571   25.1956 N   0  0  0  0  0  0  0  0  0  0  0  0
  -28.5629  -23.2196   19.6472 N   0  3  1  0  0  0  0  0  0  0  0  0
  -24.4426  -24.9162   25.0715 N   0  3  0  0  0  0  0  0  0  0  0  0
  -25.3315  -11.4403   17.8051 O   0  0  0  0  0  0  0  0  0  0  0  0
  -25.6172  -32.4968   20.5876 O   0  0  0  0  0  0  0  0  0  0  0  0
  -22.7557  -31.2486   24.1901 O   0  0  0  0  0  0  0  0  0  0  0  0
  -25.6100  -27.3262   25.9350 O   0  0  0  0  0  0  0  0  0  0  0  0
  -28.2323  -17.6837   24.4423 O   0  0  0  0  0  0  0  0  0  0  0  0
  -21.5287   -6.9479   21.3126 O   0  0  0  0  0  0  0  0  0  0  0  0
  -28.3878  -26.9735   19.5145 O   0  0  0  0  0  0  0  0  0  1  0  0
  -20.0348   -5.0479   26.2687 F   0  0  0  0  0  0  0  0  0  0  0  0
  -21.8646   -4.2839   21.9706 F   0  0  0  0  0  0  0  0  0  0  0  0
  1  2  1  0  0  0  0
  1  5  2  0  0  0  0
  2  6  2  0  0  0  0
  3 10  2  0  0  0  0
  3 17  1  0  0  0  0
  4 11  1  0  0  0  0
  4 17  2  0  0  0  0
  5 19  1  0  0  0  0
  6 21  1  0  0  0  0
  7 12  2  0  0  0  0
  7 20  1  0  0  0  0
  8  9  2  0  0  0  0
  8 23  1  0  0  0  0
  9 26  1  0  0  0  0
 10 27  1  0  0  0  0
 11 27  2  0  0  0  0
 12 28  1  0  0  0  0
 13 14  2  0  0  0  0
 13 29  1  0  0  0  0
 14 30  1  0  0  0  0
 15 22  1  0  0  0  0
 15 28  2  0  0  0  0
 16 30  2  0  0  0  0
 16 31  1  0  0  0  0
 17 32  1  0  0  0  0
 18 32  1  0  0  0  0
 18 33  2  0  0  0  0
 18 38  1  0  0  0  0
 19 21  2  0  0  0  0
 19 43  1  0  0  0  0
 20 22  2  0  0  0  0
 20 44  1  0  0  0  0
 21 55  1  0  0  0  0
 22 45  1  0  0  0  0
 23 24  2  0  0  0  0
 23 66  1  0  0  0  0
 24 25  1  0  0  0  0
 24 59  1  0  0  0  0
 25 26  2  0  0  0  0
 25 60  1  0  0  0  0
 26 76  1  0  0  0  0
 27 86  1  0  0  0  0
 28 87  1  0  0  0  0
 29 31  2  0  0  0  0
 29 86  1  0  0  0  0
 30 88  1  0  0  0  0
 31 89  1  0  0  0  0
 32 70  2  0  0  0  0
 33 71  1  0  0  0  0
 33 74  1  0  0  0  0
 34 36  2  0  0  0  0
 34 56  1  0  0  0  0
 34 79  1  0  0  0  0
 35 37  2  0  0  0  0
 36 37  1  0  0  0  0
 38 75  1  0  0  0  0
 38 81  2  0  0  0  0
 39 57  1  0  0  0  0
 39 77  1  0  0  0  0
 39 82  2  0  0  0  0
 40 67  1  0  0  0  0
 40 72  1  0  0  0  0
 40 83  2  0  0  0  0
 41 68  1  0  0  0  0
 41 78  1  0  0  0  0
 41 84  2  0  0  0  0
 42 73  1  0  0  0  0
 42 76  1  0  0  0  0
 42 85  2  0  0  0  0
 43 46  1  0  0  0  0
 44 57  1  0  0  0  0
 45 72  1  0  0  0  0
 46 49  1  0  0  0  0
 47 51  1  0  0  0  0
 47 52  1  0  0  0  0
 48 50  1  0  0  0  0
 48 54  1  0  0  0  0
 49 55  1  0  0  0  0
 50 56  1  0  0  0  0
 51 58  1  0  0  0  0
 52 73  1  0  0  0  0
 53 58  1  0  0  0  0
 53 73  1  0  0  0  0
 54 79  1  0  0  0  0
 55 77  1  0  0  0  0
 56 87  1  0  0  0  0
 57 72  1  0  0  0  0
 58 71  1  0  0  0  0
 61 68  1  0  0  0  0
 62 69  1  0  0  0  0
 63 69  1  0  0  0  0
 64 69  1  0  0  0  0
 65 80  1  0  0  0  0
 66 79  1  0  0  0  0
 67 69  1  0  0  0  0
 67 78  1  0  0  0  0
 68 80  1  0  0  0  0
 70 71  1  0  0  0  0
M  CHG  2  79   1  80   1
M  ISO  4  42 100  56 101  76 100  87 101
M  END
> <Batch ID>
0046

> <Smiles>
C=CC=C1N(Cc2ccc([100NH:0][100C:0](=O)N3CCCC(n4nc(-c5ccc(Oc6ccc(F)cc6F)cc5)c(C(N)=O)c4N)C3)c(C)c2C)CCC[101CH:1]1[101O:1]c1ccc2c(c1)CN(C(=O)C(NC(=O)C(C)NC)C(C)(C)C)C(C(=O)NC1CCCc3ccccc31)C2

> <Shape>
0.283

> <Color>
0.092

> <Negative vol penalty>
0.000

$$$$

  -OEChem-04042322233D

 86 94  0     1  0  0  0  0  0999 V2000
  -22.8978  -23.7651   18.2616 C   0  0  0  0  0  0  0  0  0  0  0  0
  -23.8716  -22.7771   18.1706 C   0  0  0  0  0  0  0  0  0  0  0  0
  -25.3201  -27.0774   19.8027 C   0  0  0  0  0  0  0  0  0  0  0  0
  -27.3621  -27.9725   20.7333 C   0  0  0  0  0  0  0  0  0  0  0  0
  -21.8264  -23.6039   19.1375 C   0  0  0  0  0  0  0  0  0  0  0  0
  -23.7681  -21.6221   18.9466 C   0  0  0  0  0  0  0  0  0  0  0  0
  -27.0320  -18.0452   18.0769 C   0  0  0  0  0  0  0  0  0  0  0  0
  -32.0971  -24.3784   26.0716 C   0  0  0  0  0  0  0  0  0  0  0  0
  -24.7069  -28.3213   19.9516 C   0  0  0  0  0  0  0  0  0  0  0  0
  -26.7490  -29.2165   20.8821 C   0  0  0  0  0  0  0  0  0  0  0  0
  -28.3742  -18.1448   18.4407 C   0  0  0  0  0  0  0  0  0  0  0  0
  -25.6127  -32.5332   21.8406 C   0  0  0  0  0  0  0  0  0  0  0  0
  -25.8019  -33.2092   23.0459 C   0  0  0  0  0  0  0  0  0  0  0  0
  -32.9722  -25.4622   25.9996 C   0  0  0  0  0  0  0  0  0  0  0  0
  -27.9691  -16.6791   20.3134 C   0  0  0  0  0  0  0  0  0  0  0  0
  -34.5028  -24.1387   24.6794 C   0  0  0  0  0  0  0  0  0  0  0  0
  -24.7858  -31.3694   24.2374 C   0  0  0  0  0  0  0  0  0  0  0  0
  -26.6477  -26.9029   20.1936 C   0  0  0  0  0  0  0  0  0  0  0  0
  -27.9965  -25.1507   18.9217 C   0  0  0  0  0  0  0  0  0  0  0  0
  -21.7171  -22.4517   19.9335 C   0  0  0  0  0  0  0  0  0  0  0  0
  -26.1444  -17.2692   18.8362 C   0  0  0  0  0  0  0  0  0  0  0  0
  -22.6816  -21.4300   19.8191 C   0  0  0  0  0  0  0  0  0  0  0  0
  -26.6167  -16.5692   19.9557 C   0  0  0  0  0  0  0  0  0  0  0  0
  -32.4249  -23.1747   25.4476 C   0  0  0  0  0  0  0  0  0  0  0  0
  -33.6277  -23.0548   24.7515 C   0  0  0  0  0  0  0  0  0  0  0  0
  -25.4213  -29.3909   20.4912 C   0  0  0  0  0  0  0  0  0  0  0  0
  -28.8423  -17.4640   19.5608 C   0  0  0  0  0  0  0  0  0  0  0  0
  -25.0099  -31.2752   21.8337 C   0  0  0  0  0  0  0  0  0  0  0  0
  -25.3885  -32.6273   24.2443 C   0  0  0  0  0  0  0  0  0  0  0  0
  -24.5965  -30.6934   23.0321 C   0  0  0  0  0  0  0  0  0  0  0  0
  -34.1750  -25.3423   25.3035 C   0  0  0  0  0  0  0  0  0  0  0  0
  -27.2815  -25.6180   20.0407 C   0  0  0  0  0  0  0  0  0  0  0  0
  -28.3932  -23.8834   19.2726 C   0  0  0  0  0  0  0  0  0  0  0  0
  -32.0017  -20.0632   21.3815 C   0  0  0  0  0  0  0  0  0  0  0  0
  -31.9284  -18.9899   20.5824 C   0  0  0  0  0  0  0  0  0  0  0  0
  -28.2771  -25.8037   17.6765 C   0  0  0  0  0  0  0  0  0  0  0  0
  -33.1332  -20.2133   22.3376 C   0  0  0  0  0  0  0  0  0  0  0  0
  -23.5147  -17.8690   20.5180 C   0  0  0  0  0  0  0  0  0  0  0  0
  -23.4234  -14.6382   20.7937 C   0  0  0  0  0  0  0  0  0  0  0  0
  -25.1206  -11.6778   20.7516 C   0  0  0  0  0  0  0  0  0  0  0  0
  -29.3426  -21.2230   24.5520 C   0  0  0  0  0  0  0  0  0  0  0  0
  -20.5327  -22.3253   20.8589 C   0  0  0  0  0  0  0  0  0  0  0  0
  -24.7053  -17.1506   18.4151 C   0  0  0  0  0  0  0  0  0  0  0  0
  -25.7090  -15.7066   20.7925 C   0  0  0  0  0  0  0  0  0  0  0  0
  -20.7422  -21.2844   21.9539 C   0  0  0  0  0  0  0  0  0  0  0  0
  -27.0933  -20.1732   21.9995 C   0  0  0  0  0  0  0  0  0  0  0  0
  -21.2398  -19.9821   21.3448 C   0  0  0  0  0  0  0  0  0  0  0  0
  -26.9510  -21.4074   21.1070 C   0  0  0  0  0  0  0  0  0  0  0  0
  -27.2154  -20.5536   23.4734 C   0  0  0  0  0  0  0  0  0  0  0  0
  -28.1396  -22.7607   22.8832 C   0  0  0  0  0  0  0  0  0  0  0  0
  -22.6061  -20.1791   20.6758 C   0  0  1  0  0  0  0  0  0  0  0  0
  -23.7799  -16.7442   19.5578 C   0  0  1  0  0  0  0  0  0  0  0  0
  -28.0694  -22.4305   21.3824 C   0  0  2  0  0  0  0  0  0  0  0  0
  -24.7824   -9.2088   21.0466 C   0  0  0  0  0  0  0  0  0  0  0  0
  -23.2446  -15.0263   23.8149 C   0  0  0  0  0  0  0  0  0  0  0  0
  -23.8628  -12.6159   24.0910 C   0  0  0  0  0  0  0  0  0  0  0  0
  -21.7578  -13.2337   22.9036 C   0  0  0  0  0  0  0  0  0  0  0  0
  -26.0277  -11.1063   17.9930 C   0  0  0  0  0  0  0  0  0  0  0  0
  -31.4729  -22.0276   25.5388 C   0  0  0  0  0  0  0  0  0  0  0  0
  -34.0025  -21.7688   24.0733 C   0  0  0  0  0  0  0  0  0  0  0  0
  -30.8256  -18.7760   19.5963 C   0  0  0  0  0  0  0  0  0  1  0  0
  -23.9826  -13.6324   21.7707 C   0  0  1  0  0  0  0  0  0  0  0  0
  -24.8311  -10.3606   20.0548 C   0  0  2  0  0  0  0  0  0  0  0  0
  -23.2289  -13.6448   23.1306 C   0  0  0  0  0  0  0  0  0  0  0  0
  -27.2254  -24.7206   21.0284 N   0  0  0  0  0  0  0  0  0  0  0  0
  -27.9102  -23.6766   20.5312 N   0  0  0  0  0  0  0  0  0  0  0  0
  -24.3090  -15.6277   20.3438 N   0  0  0  0  0  0  0  0  0  0  0  0
  -28.2947  -21.5250   23.6667 N   0  0  0  0  0  0  0  0  0  0  0  0
  -29.1045  -22.9368   18.6241 N   0  0  0  0  0  0  0  0  0  0  0  0
  -27.7949  -27.1050   17.4810 N   0  0  0  0  0  0  0  0  0  0  0  0
  -33.0332  -21.3824   23.0726 N   0  0  0  0  0  0  0  0  0  0  0  0
  -22.9452  -18.9846   19.9343 N   0  0  0  0  0  0  0  0  0  0  0  0
  -23.9609  -12.3437   21.0872 N   0  0  0  0  0  0  0  0  0  0  0  0
  -30.3279  -22.1954   24.6718 N   0  0  0  0  0  0  0  0  0  0  0  0
  -25.8863  -10.0662   19.0443 N   0  3  0  0  0  0  0  0  0  0  0  0
  -28.9220  -25.2435   16.7579 O   0  0  0  0  0  0  0  0  0  0  0  0
  -34.0277  -19.3798   22.4361 O   0  0  0  0  0  0  0  0  0  0  0  0
  -23.8038  -17.7343   21.7012 O   0  0  0  0  0  0  0  0  0  0  0  0
  -22.2461  -14.5451   20.4373 O   0  0  0  0  0  0  0  0  0  0  0  0
  -26.2615  -12.0744   20.9789 O   0  0  0  0  0  0  0  0  0  0  0  0
  -29.3989  -20.1629   25.1844 O   0  0  0  0  0  0  0  0  0  0  0  0
  -24.8234  -30.6050   20.6363 O   0  0  0  0  0  0  0  0  0  0  0  0
  -30.1518  -17.5601   19.9185 O   0  0  0  0  0  0  0  0  0  1  0  0
  -25.5717  -33.2760   25.4018 F   0  0  0  0  0  0  0  0  0  0  0  0
  -24.0179  -29.4846   23.0319 F   0  0  0  0  0  0  0  0  0  0  0  0
  -35.2550  -26.6790   25.2165 Cl  0  0  0  0  0  0  0  0  0  0  0  0
  1  2  1  0  0  0  0
  1  5  2  0  0  0  0
  2  6  2  0  0  0  0
  3  9  2  0  0  0  0
  3 18  1  0  0  0  0
  4 10  1  0  0  0  0
  4 18  2  0  0  0  0
  5 20  1  0  0  0  0
  6 22  1  0  0  0  0
  7 11  2  0  0  0  0
  7 21  1  0  0  0  0
  8 14  2  0  0  0  0
  8 24  1  0  0  0  0
  9 26  1  0  0  0  0
 10 26  2  0  0  0  0
 11 27  1  0  0  0  0
 12 13  2  0  0  0  0
 12 28  1  0  0  0  0
 13 29  1  0  0  0  0
 14 31  1  0  0  0  0
 15 23  1  0  0  0  0
 15 27  2  0  0  0  0
 16 25  1  0  0  0  0
 16 31  2  0  0  0  0
 17 29  2  0  0  0  0
 17 30  1  0  0  0  0
 18 32  1  0  0  0  0
 19 32  1  0  0  0  0
 19 33  2  0  0  0  0
 19 36  1  0  0  0  0
 20 22  2  0  0  0  0
 20 42  1  0  0  0  0
 21 23  2  0  0  0  0
 21 43  1  0  0  0  0
 22 51  1  0  0  0  0
 23 44  1  0  0  0  0
 24 25  2  0  0  0  0
 24 59  1  0  0  0  0
 25 60  1  0  0  0  0
 26 82  1  0  0  0  0
 27 83  1  0  0  0  0
 28 30  2  0  0  0  0
 28 82  1  0  0  0  0
 29 84  1  0  0  0  0
 30 85  1  0  0  0  0
 31 86  1  0  0  0  0
 32 65  2  0  0  0  0
 33 66  1  0  0  0  0
 33 69  1  0  0  0  0
 34 35  2  0  0  0  0
 34 37  1  0  0  0  0
 35 61  1  0  0  0  0
 36 70  1  0  0  0  0
 36 76  2  0  0  0  0
 37 71  1  0  0  0  0
 37 77  2  0  0  0  0
 38 52  1  0  0  0  0
 38 72  1  0  0  0  0
 38 78  2  0  0  0  0
 39 62  1  0  0  0  0
 39 67  1  0  0  0  0
 39 79  2  0  0  0  0
 40 63  1  0  0  0  0
 40 73  1  0  0  0  0
 40 80  2  0  0  0  0
 41 68  1  0  0  0  0
 41 74  1  0  0  0  0
 41 81  2  0  0  0  0
 42 45  1  0  0  0  0
 43 52  1  0  0  0  0
 44 67  1  0  0  0  0
 45 47  1  0  0  0  0
 46 48  1  0  0  0  0
 46 49  1  0  0  0  0
 47 51  1  0  0  0  0
 48 53  1  0  0  0  0
 49 68  1  0  0  0  0
 50 53  1  0  0  0  0
 50 68  1  0  0  0  0
 51 72  1  0  0  0  0
 52 67  1  0  0  0  0
 53 66  1  0  0  0  0
 54 63  1  0  0  0  0
 55 64  1  0  0  0  0
 56 64  1  0  0  0  0
 57 64  1  0  0  0  0
 58 75  1  0  0  0  0
 59 74  1  0  0  0  0
 60 71  1  0  0  0  0
 61 83  1  0  0  0  0
 62 64  1  0  0  0  0
 62 73  1  0  0  0  0
 63 75  1  0  0  0  0
 65 66  1  0  0  0  0
M  CHG  1  75   1
M  ISO  4  41 100  61 101  74 100  83 101
M  END
> <Batch ID>
0046

> <Smiles>
CNC(C)C(=O)NC(C(=O)N1Cc2cc([101O:1][101CH2:1]C=CC(=O)NCc3cc(Cl)ccc3C[100NH:0][100C:0](=O)N3CCCC(n4nc(-c5ccc(Oc6ccc(F)cc6F)cc5)c(C(N)=O)c4N)C3)ccc2CC1C(=O)NC1CCCc2ccccc21)C(C)(C)C

> <Shape>
0.186

> <Color>
0.086

> <Negative vol penalty>
0.000

$$$$

  -OEChem-04042322233D

 85 94  0     1  0  0  0  0  0999 V2000
  -28.9476  -32.9884   23.6638 C   0  0  0  0  0  0  0  0  0  0  0  0
  -28.9012  -31.6496   23.2885 C   0  0  0  0  0  0  0  0  0  0  0  0
  -22.5670  -12.1973   22.1218 C   0  0  0  0  0  0  0  0  0  0  0  0
  -24.0914  -10.4077   22.6792 C   0  0  0  0  0  0  0  0  0  0  0  0
  -27.8155  -33.6004   24.2003 C   0  0  0  0  0  0  0  0  0  0  0  0
  -27.7229  -30.9217   23.4504 C   0  0  0  0  0  0  0  0  0  0  0  0
  -26.6122  -28.0963   19.3972 C   0  0  0  0  0  0  0  0  0  0  0  0
  -28.3184  -19.8412   21.5435 C   0  0  0  0  0  0  0  0  0  0  0  0
  -30.6664  -19.3969   21.8995 C   0  0  0  0  0  0  0  0  0  0  0  0
  -28.1570  -18.5619   21.0115 C   0  0  0  0  0  0  0  0  0  0  0  0
  -30.5050  -18.1176   21.3675 C   0  0  0  0  0  0  0  0  0  0  0  0
  -21.7777  -11.8682   23.2238 C   0  0  0  0  0  0  0  0  0  0  0  0
  -23.3022  -10.0787   23.7813 C   0  0  0  0  0  0  0  0  0  0  0  0
  -27.3182  -26.9045   19.2390 C   0  0  0  0  0  0  0  0  0  0  0  0
  -19.4608   -9.5401   24.0215 C   0  0  0  0  0  0  0  0  0  0  0  0
  -18.0797   -9.4839   23.8349 C   0  0  0  0  0  0  0  0  0  0  0  0
  -25.4457  -25.6822   20.1438 C   0  0  0  0  0  0  0  0  0  0  0  0
  -17.7849  -11.2130   25.4965 C   0  0  0  0  0  0  0  0  0  0  0  0
  -23.7238  -11.4670   21.8495 C   0  0  0  0  0  0  0  0  0  0  0  0
  -24.1504  -11.8102   19.3579 C   0  0  0  0  0  0  0  0  0  0  0  0
  -26.6199  -32.8823   24.3599 C   0  0  0  0  0  0  0  0  0  0  0  0
  -25.3197  -28.0911   19.9410 C   0  0  0  0  0  0  0  0  0  0  0  0
  -26.5742  -31.5243   23.9908 C   0  0  0  0  0  0  0  0  0  0  0  0
  -24.7244  -26.8750   20.3055 C   0  0  0  0  0  0  0  0  0  0  0  0
  -29.5731  -20.2587   21.9874 C   0  0  0  0  0  0  0  0  0  0  0  0
  -29.2503  -17.7001   20.9235 C   0  0  0  0  0  0  0  0  0  0  0  0
  -22.1453  -10.8090   24.0536 C   0  0  0  0  0  0  0  0  0  0  0  0
  -26.7361  -25.6975   19.6150 C   0  0  0  0  0  0  0  0  0  0  0  0
  -20.0041  -10.4326   24.9456 C   0  0  0  0  0  0  0  0  0  0  0  0
  -17.2417  -10.3204   24.5724 C   0  0  0  0  0  0  0  0  0  0  0  0
  -19.1661  -11.2691   25.6831 C   0  0  0  0  0  0  0  0  0  0  0  0
  -24.5392  -11.8061   20.7109 C   0  0  0  0  0  0  0  0  0  0  0  0
  -25.2779  -12.2010   18.6779 C   0  0  0  0  0  0  0  0  0  0  0  0
  -28.5488  -23.2817   21.1715 C   0  0  0  0  0  0  0  0  0  0  0  0
  -22.8833  -11.4895   18.7685 C   0  0  0  0  0  0  0  0  0  0  0  0
  -23.9707  -29.3463   22.5310 C   0  0  0  0  0  0  0  0  0  0  0  0
  -21.2477  -28.1997   21.1920 C   0  0  0  0  0  0  0  0  0  0  0  0
  -20.2196  -25.1987   19.4731 C   0  0  0  0  0  0  0  0  0  0  0  0
  -30.0673  -15.4218   20.2249 C   0  0  0  0  0  0  0  0  0  0  0  0
  -25.4360  -33.5739   24.9882 C   0  0  0  0  0  0  0  0  0  0  0  0
  -24.5611  -29.3824   20.0803 C   0  0  0  0  0  0  0  0  0  0  0  0
  -23.3316  -26.8132   20.8753 C   0  0  0  0  0  0  0  0  0  0  0  0
  -24.1171  -32.8343   24.7792 C   0  0  0  0  0  0  0  0  0  0  0  0
  -31.0723  -24.0157   19.8752 C   0  0  0  0  0  0  0  0  0  0  0  0
  -30.0565  -12.0887   18.9730 C   0  0  0  0  0  0  0  0  0  0  0  0
  -24.2858  -31.3476   25.0761 C   0  0  0  0  0  0  0  0  0  0  0  0
  -29.7627  -24.2184   19.1422 C   0  0  0  0  0  0  0  0  0  0  0  0
  -28.6037  -11.6404   19.1478 C   0  0  0  0  0  0  0  0  0  0  0  0
  -30.9831  -22.7759   20.7468 C   0  0  0  0  0  0  0  0  0  0  0  0
  -30.5175  -12.9800   20.1248 C   0  0  0  0  0  0  0  0  0  0  0  0
  -28.2009  -13.6870   20.5749 C   0  0  0  0  0  0  0  0  0  0  0  0
  -25.3072  -30.7081   24.1279 C   0  0  1  0  0  0  0  0  0  0  0  0
  -28.6536  -24.4135   20.1571 C   0  0  1  0  0  0  0  0  0  1  0  0
  -23.4490  -29.3127   21.1223 C   0  0  1  0  0  0  0  0  0  0  0  0
  -27.6710  -12.8400   19.4063 C   0  0  2  0  0  0  0  0  0  0  0  0
  -18.4013  -24.8277   17.7838 C   0  0  0  0  0  0  0  0  0  0  0  0
  -19.5568  -27.4252   23.6108 C   0  0  0  0  0  0  0  0  0  0  0  0
  -18.5132  -25.6257   22.2176 C   0  0  0  0  0  0  0  0  0  0  0  0
  -18.2435  -28.0188   21.5670 C   0  0  0  0  0  0  0  0  0  0  0  0
  -22.1134  -24.0364   17.5182 C   0  0  0  0  0  0  0  0  0  0  0  0
  -29.7467  -21.6358   22.5600 C   0  0  0  0  0  0  0  0  0  0  0  0
  -20.4885  -26.8967   21.2616 C   0  0  1  0  0  0  0  0  0  0  0  0
  -19.8882  -25.0647   17.9977 C   0  0  2  0  0  0  0  0  0  0  0  0
  -19.2287  -26.9926   22.1679 C   0  0  0  0  0  0  0  0  0  0  0  0
  -25.8141  -12.1656   20.8822 N   0  0  0  0  0  0  0  0  0  0  0  0
  -26.2363  -12.3991   19.6279 N   0  0  0  0  0  0  0  0  0  0  0  0
  -29.7482  -22.6605   21.5245 N   0  0  0  0  0  0  0  0  0  0  0  0
  -22.6329  -28.1033   20.9979 N   0  0  0  0  0  0  0  0  0  0  0  0
  -29.5885  -14.0972   20.3082 N   0  0  0  0  0  0  0  0  0  0  0  0
  -25.5332  -12.3909   17.3660 N   0  0  0  0  0  0  0  0  0  0  0  0
  -21.8317  -11.1067   19.6122 N   0  0  0  0  0  0  0  0  0  0  0  0
  -29.0866  -16.4004   20.3834 N   0  0  0  0  0  0  0  0  0  0  0  0
  -24.7132  -30.4728   22.8293 N   0  0  0  0  0  0  0  0  0  0  0  0
  -20.2047  -26.5154   19.8823 N   0  0  0  0  0  0  0  0  0  0  0  0
  -20.6368  -23.9230   17.4003 N   0  3  0  0  0  0  0  0  0  0  0  0
  -27.4569  -23.0080   21.6763 O   0  0  0  0  0  0  0  0  0  0  0  0
  -22.6942  -11.5249   17.5290 O   0  0  0  0  0  0  0  0  0  0  0  0
  -23.7169  -28.4195   23.2915 O   0  0  0  0  0  0  0  0  0  0  0  0
  -20.6333  -29.2641   21.2984 O   0  0  0  0  0  0  0  0  0  0  0  0
  -20.4633  -24.2318   20.1916 O   0  0  0  0  0  0  0  0  0  0  0  0
  -31.2548  -15.6697   20.0005 O   0  0  0  0  0  0  0  0  0  0  0  0
  -21.3756  -10.4877   25.1291 O   0  0  0  0  0  0  0  0  0  0  0  0
  -27.4232  -24.5329   19.4623 O   0  0  0  0  0  0  0  0  0  1  0  0
  -15.9155  -10.2675   24.3920 F   0  0  0  0  0  0  0  0  0  0  0  0
  -19.6823  -12.1294   26.5714 F   0  0  0  0  0  0  0  0  0  0  0  0
  1  2  1  0  0  0  0
  1  5  2  0  0  0  0
  2  6  2  0  0  0  0
  3 12  2  0  0  0  0
  3 19  1  0  0  0  0
  4 13  1  0  0  0  0
  4 19  2  0  0  0  0
  5 21  1  0  0  0  0
  6 23  1  0  0  0  0
  7 14  2  0  0  0  0
  7 22  1  0  0  0  0
  8 10  2  0  0  0  0
  8 25  1  0  0  0  0
  9 11  1  0  0  0  0
  9 25  2  0  0  0  0
 10 26  1  0  0  0  0
 11 26  2  0  0  0  0
 12 27  1  0  0  0  0
 13 27  2  0  0  0  0
 14 28  1  0  0  0  0
 15 16  2  0  0  0  0
 15 29  1  0  0  0  0
 16 30  1  0  0  0  0
 17 24  1  0  0  0  0
 17 28  2  0  0  0  0
 18 30  2  0  0  0  0
 18 31  1  0  0  0  0
 19 32  1  0  0  0  0
 20 32  1  0  0  0  0
 20 33  2  0  0  0  0
 20 35  1  0  0  0  0
 21 23  2  0  0  0  0
 21 40  1  0  0  0  0
 22 24  2  0  0  0  0
 22 41  1  0  0  0  0
 23 52  1  0  0  0  0
 24 42  1  0  0  0  0
 25 61  1  0  0  0  0
 26 72  1  0  0  0  0
 27 82  1  0  0  0  0
 28 83  1  0  0  0  0
 29 31  2  0  0  0  0
 29 82  1  0  0  0  0
 30 84  1  0  0  0  0
 31 85  1  0  0  0  0
 32 65  2  0  0  0  0
 33 66  1  0  0  0  0
 33 70  1  0  0  0  0
 34 53  1  0  0  0  0
 34 67  1  0  0  0  0
 34 76  2  0  0  0  0
 35 71  1  0  0  0  0
 35 77  2  0  0  0  0
 36 54  1  0  0  0  0
 36 73  1  0  0  0  0
 36 78  2  0  0  0  0
 37 62  1  0  0  0  0
 37 68  1  0  0  0  0
 37 79  2  0  0  0  0
 38 63  1  0  0  0  0
 38 74  1  0  0  0  0
 38 80  2  0  0  0  0
 39 69  1  0  0  0  0
 39 72  1  0  0  0  0
 39 81  2  0  0  0  0
 40 43  1  0  0  0  0
 41 54  1  0  0  0  0
 42 68  1  0  0  0  0
 43 46  1  0  0  0  0
 44 47  1  0  0  0  0
 44 49  1  0  0  0  0
 45 48  1  0  0  0  0
 45 50  1  0  0  0  0
 46 52  1  0  0  0  0
 47 53  1  0  0  0  0
 48 55  1  0  0  0  0
 49 67  1  0  0  0  0
 50 69  1  0  0  0  0
 51 55  1  0  0  0  0
 51 69  1  0  0  0  0
 52 73  1  0  0  0  0
 53 83  1  0  0  0  0
 54 68  1  0  0  0  0
 55 66  1  0  0  0  0
 56 63  1  0  0  0  0
 57 64  1  0  0  0  0
 58 64  1  0  0  0  0
 59 64  1  0  0  0  0
 60 75  1  0  0  0  0
 61 67  1  0  0  0  0
 62 64  1  0  0  0  0
 62 74  1  0  0  0  0
 63 75  1  0  0  0  0
 65 66  1  0  0  0  0
M  CHG  1  75   1
M  ISO  4  39 100  53 101  72 100  83 101
M  END
> <Batch ID>
0046

> <Smiles>
CNC(C)C(=O)NC(C(=O)N1Cc2cc([101O:1][101CH:1]3CCCN(Cc4ccc([100NH:0][100C:0](=O)N5CCCC(n6nc(-c7ccc(Oc8ccc(F)cc8F)cc7)c(C(N)=O)c6N)C5)cc4)C3=O)ccc2CC1C(=O)NC1CCCc2ccccc21)C(C)(C)C

> <Shape>
0.293

> <Color>
0.062

> <Negative vol penalty>
0.000

$$$$

  -OEChem-04042322233D

 87 96  0     1  0  0  0  0  0999 V2000
  -23.4952   -7.8431   20.7608 C   0  0  0  0  0  0  0  0  0  0  0  0
  -23.3859   -8.7797   19.7391 C   0  0  0  0  0  0  0  0  0  0  0  0
  -19.7306  -24.8824   15.7451 C   0  0  0  0  0  0  0  0  0  0  0  0
  -27.7774  -27.7243   18.9229 C   0  0  0  0  0  0  0  0  0  0  0  0
  -27.9149  -27.2843   21.2945 C   0  0  0  0  0  0  0  0  0  0  0  0
  -23.4064   -8.2532   22.0894 C   0  0  0  0  0  0  0  0  0  0  0  0
  -23.1999  -10.1281   20.0458 C   0  0  0  0  0  0  0  0  0  0  0  0
  -22.1335  -17.8948   18.7174 C   0  0  0  0  0  0  0  0  0  0  0  0
  -19.6498  -24.2950   17.0077 C   0  0  0  0  0  0  0  0  0  0  0  0
  -28.8333  -26.8413   18.6978 C   0  0  0  0  0  0  0  0  0  0  0  0
  -28.9708  -26.4011   21.0694 C   0  0  0  0  0  0  0  0  0  0  0  0
  -21.6846  -19.0737   19.3110 C   0  0  0  0  0  0  0  0  0  0  0  0
  -29.2852  -23.4957   18.5072 C   0  0  0  0  0  0  0  0  0  0  0  0
  -29.1569  -22.5860   17.4577 C   0  0  0  0  0  0  0  0  0  0  0  0
  -19.4801  -26.2462   15.5930 C   0  0  0  0  0  0  0  0  0  0  0  0
  -23.2476  -18.7509   21.1199 C   0  0  0  0  0  0  0  0  0  0  0  0
  -31.1260  -23.5157   16.4111 C   0  0  0  0  0  0  0  0  0  0  0  0
  -27.3182  -27.9459   20.2213 C   0  0  0  0  0  0  0  0  0  0  0  0
  -26.1852  -30.2301   20.1405 C   0  0  0  0  0  0  0  0  0  0  0  0
  -23.2067   -9.6057   22.4114 C   0  0  0  0  0  0  0  0  0  0  0  0
  -23.1369  -17.1281   19.3272 C   0  0  0  0  0  0  0  0  0  0  0  0
  -23.1317  -10.5650   21.3811 C   0  0  0  0  0  0  0  0  0  0  0  0
  -23.7093  -17.5640   20.5307 C   0  0  0  0  0  0  0  0  0  0  0  0
  -19.3186  -25.0714   18.1181 C   0  0  0  0  0  0  0  0  0  0  0  0
  -19.0681  -26.4352   17.9660 C   0  0  0  0  0  0  0  0  0  0  0  0
  -29.4300  -26.1796   19.7710 C   0  0  0  0  0  0  0  0  0  0  0  0
  -22.2396  -19.5005   20.5139 C   0  0  0  0  0  0  0  0  0  0  0  0
  -30.3338  -24.4156   18.5087 C   0  0  0  0  0  0  0  0  0  0  0  0
  -30.0773  -22.5960   16.4097 C   0  0  0  0  0  0  0  0  0  0  0  0
  -31.2542  -24.4255   17.4606 C   0  0  0  0  0  0  0  0  0  0  0  0
  -19.1489  -27.0225   16.7034 C   0  0  0  0  0  0  0  0  0  0  0  0
  -26.2278  -28.8585   20.4545 C   0  0  0  0  0  0  0  0  0  0  0  0
  -24.9427  -30.6397   20.5586 C   0  0  0  0  0  0  0  0  0  0  0  0
  -20.5645  -22.4204   20.0529 C   0  0  0  0  0  0  0  0  0  0  0  0
  -27.1799  -31.0598   19.5258 C   0  0  0  0  0  0  0  0  0  0  0  0
  -23.3057  -14.1781   20.4989 C   0  0  0  0  0  0  0  0  0  0  0  0
  -26.4472  -14.9113   20.8389 C   0  0  0  0  0  0  0  0  0  0  0  0
  -28.3858  -17.7614   21.9047 C   0  0  0  0  0  0  0  0  0  0  0  0
  -19.7564  -27.7575   21.3633 C   0  0  0  0  0  0  0  0  0  0  0  0
  -23.1258   -9.9955   23.8664 C   0  0  0  0  0  0  0  0  0  0  0  0
  -23.6288  -15.8727   18.6605 C   0  0  0  0  0  0  0  0  0  0  0  0
  -24.8033  -16.7877   21.2155 C   0  0  0  0  0  0  0  0  0  0  0  0
  -22.4884  -11.3644   24.0806 C   0  0  0  0  0  0  0  0  0  0  0  0
  -22.9434  -24.1028   20.3648 C   0  0  0  0  0  0  0  0  0  0  0  0
  -21.5605  -29.6366   23.7905 C   0  0  0  0  0  0  0  0  0  0  0  0
  -23.1376  -12.3895   23.1628 C   0  0  0  0  0  0  0  0  0  0  0  0
  -22.8435  -22.7931   21.1185 C   0  0  0  0  0  0  0  0  0  0  0  0
  -22.9574  -29.7740   23.1824 C   0  0  0  0  0  0  0  0  0  0  0  0
  -21.5653  -24.7278   20.2424 C   0  0  0  0  0  0  0  0  0  0  0  0
  -20.9396  -28.2771   23.4767 C   0  0  0  0  0  0  0  0  0  0  0  0
  -22.3055  -28.0636   21.4365 C   0  0  0  0  0  0  0  0  0  0  0  0
  -22.8985  -12.0329   21.6901 C   0  0  1  0  0  0  0  0  0  0  0  0
  -21.9446  -21.8466   20.3475 C   0  0  1  0  0  0  0  0  0  1  0  0
  -24.2954  -14.9026   19.6310 C   0  0  1  0  0  0  0  0  0  0  0  0
  -22.9497  -29.4393   21.6787 C   0  0  2  0  0  0  0  0  0  0  0  0
  -30.7181  -18.4654   21.3030 C   0  0  0  0  0  0  0  0  0  0  0  0
  -27.2462  -13.3914   23.3611 C   0  0  0  0  0  0  0  0  0  0  0  0
  -28.9334  -15.1827   23.8222 C   0  0  0  0  0  0  0  0  0  0  0  0
  -29.1174  -13.8012   21.7533 C   0  0  0  0  0  0  0  0  0  0  0  0
  -27.4744  -20.4332   21.0161 C   0  0  0  0  0  0  0  0  0  0  0  0
  -19.2389  -24.4127   19.4649 C   0  0  0  0  0  0  0  0  0  0  0  0
  -18.7138  -27.2540   19.1682 C   0  0  0  0  0  0  0  0  0  0  0  0
  -27.2874  -15.5371   21.9258 C   0  0  1  0  0  0  0  0  0  0  0  0
  -29.2356  -18.6622   21.0267 C   0  0  2  0  0  0  0  0  0  0  0  0
  -28.1186  -14.4846   22.7125 C   0  0  0  0  0  0  0  0  0  0  0  0
  -25.1018  -28.4256   21.0279 N   0  0  0  0  0  0  0  0  0  0  0  0
  -24.3401  -29.5317   21.0776 N   0  0  0  0  0  0  0  0  0  0  0  0
  -20.5039  -23.8001   19.8479 N   0  0  0  0  0  0  0  0  0  0  0  0
  -25.2459  -15.5637   20.5275 N   0  0  0  0  0  0  0  0  0  0  0  0
  -20.9618  -28.0216   22.0345 N   0  0  0  0  0  0  0  0  0  0  0  0
  -24.3177  -31.8359   20.5292 N   0  0  0  0  0  0  0  0  0  0  0  0
  -28.1055  -31.7149   20.3495 N   0  0  0  0  0  0  0  0  0  0  0  0
  -23.6995  -12.9031   20.8576 N   0  0  0  0  0  0  0  0  0  0  0  0
  -28.0897  -16.5693   21.2783 N   0  0  0  0  0  0  0  0  0  0  0  0
  -19.8658  -27.5326   19.9965 N   0  0  0  0  0  0  0  0  0  0  0  0
  -28.8977  -20.0928   21.2717 N   0  3  0  0  0  0  0  0  0  0  0  0
  -19.5952  -21.6648   19.9444 O   0  0  0  0  0  0  0  0  0  0  0  0
  -27.2358  -31.2287   18.2841 O   0  0  0  0  0  0  0  0  0  0  0  0
  -22.2627  -14.7352   20.8206 O   0  0  0  0  0  0  0  0  0  0  0  0
  -26.8457  -13.8854   20.2816 O   0  0  0  0  0  0  0  0  0  0  0  0
  -28.0241  -18.0817   23.0349 O   0  0  0  0  0  0  0  0  0  0  0  0
  -18.6632  -27.7299   21.9385 O   0  0  0  0  0  0  0  0  0  0  0  0
  -30.4603  -25.3176   19.5517 O   0  0  0  0  0  0  0  0  0  0  0  0
  -21.8028  -20.6505   21.0958 O   0  0  0  0  0  0  0  0  0  1  0  0
  -29.9549  -21.7212   15.4027 F   0  0  0  0  0  0  0  0  0  0  0  0
  -32.2645  -25.3060   17.4571 F   0  0  0  0  0  0  0  0  0  0  0  0
  -18.8464  -28.7066   16.4725 Cl  0  0  0  0  0  0  0  0  0  0  0  0
  1  2  1  0  0  0  0
  1  6  2  0  0  0  0
  2  7  2  0  0  0  0
  3  9  2  0  0  0  0
  3 15  1  0  0  0  0
  4 10  2  0  0  0  0
  4 18  1  0  0  0  0
  5 11  1  0  0  0  0
  5 18  2  0  0  0  0
  6 20  1  0  0  0  0
  7 22  1  0  0  0  0
  8 12  2  0  0  0  0
  8 21  1  0  0  0  0
  9 24  1  0  0  0  0
 10 26  1  0  0  0  0
 11 26  2  0  0  0  0
 12 27  1  0  0  0  0
 13 14  2  0  0  0  0
 13 28  1  0  0  0  0
 14 29  1  0  0  0  0
 15 31  2  0  0  0  0
 16 23  1  0  0  0  0
 16 27  2  0  0  0  0
 17 29  2  0  0  0  0
 17 30  1  0  0  0  0
 18 32  1  0  0  0  0
 19 32  1  0  0  0  0
 19 33  2  0  0  0  0
 19 35  1  0  0  0  0
 20 22  2  0  0  0  0
 20 40  1  0  0  0  0
 21 23  2  0  0  0  0
 21 41  1  0  0  0  0
 22 52  1  0  0  0  0
 23 42  1  0  0  0  0
 24 25  2  0  0  0  0
 24 61  1  0  0  0  0
 25 31  1  0  0  0  0
 25 62  1  0  0  0  0
 26 83  1  0  0  0  0
 27 84  1  0  0  0  0
 28 30  2  0  0  0  0
 28 83  1  0  0  0  0
 29 85  1  0  0  0  0
 30 86  1  0  0  0  0
 31 87  1  0  0  0  0
 32 66  2  0  0  0  0
 33 67  1  0  0  0  0
 33 71  1  0  0  0  0
 34 53  1  0  0  0  0
 34 68  1  0  0  0  0
 34 77  2  0  0  0  0
 35 72  1  0  0  0  0
 35 78  2  0  0  0  0
 36 54  1  0  0  0  0
 36 73  1  0  0  0  0
 36 79  2  0  0  0  0
 37 63  1  0  0  0  0
 37 69  1  0  0  0  0
 37 80  2  0  0  0  0
 38 64  1  0  0  0  0
 38 74  1  0  0  0  0
 38 81  2  0  0  0  0
 39 70  1  0  0  0  0
 39 75  1  0  0  0  0
 39 82  2  0  0  0  0
 40 43  1  0  0  0  0
 41 54  1  0  0  0  0
 42 69  1  0  0  0  0
 43 46  1  0  0  0  0
 44 47  1  0  0  0  0
 44 49  1  0  0  0  0
 45 48  1  0  0  0  0
 45 50  1  0  0  0  0
 46 52  1  0  0  0  0
 47 53  1  0  0  0  0
 48 55  1  0  0  0  0
 49 68  1  0  0  0  0
 50 70  1  0  0  0  0
 51 55  1  0  0  0  0
 51 70  1  0  0  0  0
 52 73  1  0  0  0  0
 53 84  1  0  0  0  0
 54 69  1  0  0  0  0
 55 67  1  0  0  0  0
 56 64  1  0  0  0  0
 57 65  1  0  0  0  0
 58 65  1  0  0  0  0
 59 65  1  0  0  0  0
 60 76  1  0  0  0  0
 61 68  1  0  0  0  0
 62 75  1  0  0  0  0
 63 65  1  0  0  0  0
 63 74  1  0  0  0  0
 64 76  1  0  0  0  0
 66 67  1  0  0  0  0
M  CHG  1  76   1
M  ISO  4  39 100  53 101  75 100  84 101
M  END
> <Batch ID>
0046

> <Smiles>
CNC(C)C(=O)NC(C(=O)N1Cc2cc([101O:1][101CH:1]3CCCN(Cc4cccc(Cl)c4C[100NH:0][100C:0](=O)N4CCCC(n5nc(-c6ccc(Oc7ccc(F)cc7F)cc6)c(C(N)=O)c5N)C4)C3=O)ccc2CC1C(=O)NC1CCCc2ccccc21)C(C)(C)C

> <Shape>
0.244

> <Color>
0.064

> <Negative vol penalty>
0.000

$$$$

  -OEChem-04042322233D

 86 94  0     1  0  0  0  0  0999 V2000
  -34.6259  -35.7209   18.6779 C   0  0  0  0  0  0  0  0  0  0  0  0
  -34.3190  -34.3898   18.9414 C   0  0  0  0  0  0  0  0  0  0  0  0
  -24.0735   -9.7018   20.8369 C   0  0  0  0  0  0  0  0  0  0  0  0
  -24.5924  -10.4506   23.0745 C   0  0  0  0  0  0  0  0  0  0  0  0
  -34.1174  -36.7277   19.4974 C   0  0  0  0  0  0  0  0  0  0  0  0
  -33.5042  -34.0647   20.0252 C   0  0  0  0  0  0  0  0  0  0  0  0
  -29.4455  -29.4891   20.3377 C   0  0  0  0  0  0  0  0  0  0  0  0
  -29.8449  -21.0642   23.0829 C   0  0  0  0  0  0  0  0  0  0  0  0
  -23.6491   -8.4745   21.3460 C   0  0  0  0  0  0  0  0  0  0  0  0
  -24.1679   -9.2233   23.5837 C   0  0  0  0  0  0  0  0  0  0  0  0
  -29.5140  -28.2106   20.8895 C   0  0  0  0  0  0  0  0  0  0  0  0
  -20.9065   -7.2293   22.8823 C   0  0  0  0  0  0  0  0  0  0  0  0
  -30.7712  -20.0222   23.1228 C   0  0  0  0  0  0  0  0  0  0  0  0
  -19.7102   -6.7038   22.3943 C   0  0  0  0  0  0  0  0  0  0  0  0
  -28.4711  -29.0308   22.9041 C   0  0  0  0  0  0  0  0  0  0  0  0
  -20.8910   -4.7501   21.6031 C   0  0  0  0  0  0  0  0  0  0  0  0
  -24.5452  -10.6899   21.7012 C   0  0  0  0  0  0  0  0  0  0  0  0
  -24.2021  -13.1102   20.9717 C   0  0  0  0  0  0  0  0  0  0  0  0
  -33.2880  -36.4154   20.5861 C   0  0  0  0  0  0  0  0  0  0  0  0
  -28.8983  -30.5522   21.0704 C   0  0  0  0  0  0  0  0  0  0  0  0
  -32.9851  -35.0681   20.8608 C   0  0  0  0  0  0  0  0  0  0  0  0
  -28.3945  -30.3213   22.3584 C   0  0  0  0  0  0  0  0  0  0  0  0
  -28.6576  -20.9151   22.3660 C   0  0  0  0  0  0  0  0  0  0  0  0
  -28.3968  -19.7238   21.6888 C   0  0  0  0  0  0  0  0  0  0  0  0
  -29.3232  -18.6817   21.7286 C   0  0  0  0  0  0  0  0  0  0  0  0
  -23.6963   -8.2353   22.7194 C   0  0  0  0  0  0  0  0  0  0  0  0
  -29.0294  -27.9819   22.1740 C   0  0  0  0  0  0  0  0  0  0  0  0
  -22.0951   -6.5152   22.7307 C   0  0  0  0  0  0  0  0  0  0  0  0
  -19.7024   -5.4643   21.7547 C   0  0  0  0  0  0  0  0  0  0  0  0
  -30.5104  -18.8309   22.4456 C   0  0  0  0  0  0  0  0  0  0  0  0
  -22.0874   -5.2757   22.0912 C   0  0  0  0  0  0  0  0  0  0  0  0
  -24.9843  -11.9577   21.1758 C   0  0  0  0  0  0  0  0  0  0  0  0
  -25.0796  -14.0345   20.4598 C   0  0  0  0  0  0  0  0  0  0  0  0
  -22.8070  -13.3259   21.2225 C   0  0  0  0  0  0  0  0  0  0  0  0
  -30.0039  -33.3218   22.1707 C   0  0  0  0  0  0  0  0  0  0  0  0
  -26.9027  -33.7838   23.0023 C   0  0  0  0  0  0  0  0  0  0  0  0
  -28.3968  -24.4438   22.5095 C   0  0  0  0  0  0  0  0  0  0  0  0
  -23.8726  -32.4118   23.7656 C   0  0  0  0  0  0  0  0  0  0  0  0
  -30.0214  -16.5997   20.4942 C   0  0  0  0  0  0  0  0  0  0  0  0
  -32.8005  -37.5346   21.4718 C   0  0  0  0  0  0  0  0  0  0  0  0
  -28.8074  -31.9197   20.4507 C   0  0  0  0  0  0  0  0  0  0  0  0
  -27.7790  -31.4244   23.1786 C   0  0  0  0  0  0  0  0  0  0  0  0
  -31.6393  -37.1329   22.3776 C   0  0  0  0  0  0  0  0  0  0  0  0
  -29.8193  -13.4924   18.7677 C   0  0  0  0  0  0  0  0  0  0  0  0
  -31.9258  -35.7944   23.0508 C   0  0  0  0  0  0  0  0  0  0  0  0
  -28.4790  -12.9109   19.2235 C   0  0  0  0  0  0  0  0  0  0  0  0
  -30.5259  -14.2411   19.8963 C   0  0  0  0  0  0  0  0  0  0  0  0
  -28.3772  -14.6914   21.0142 C   0  0  0  0  0  0  0  0  0  0  0  0
  -32.0844  -34.6773   22.0124 C   0  0  1  0  0  0  0  0  0  0  0  0
  -28.6985  -33.0375   21.4831 C   0  0  1  0  0  0  0  0  0  0  0  0
  -27.5981  -13.9835   19.8937 C   0  0  2  0  0  0  0  0  0  0  0  0
  -25.9303  -19.2980   21.8355 C   0  0  0  0  0  0  0  0  0  0  0  0
  -21.5388  -33.0412   24.4397 C   0  0  0  0  0  0  0  0  0  0  0  0
  -27.8784  -34.3568   25.8360 C   0  0  0  0  0  0  0  0  0  0  0  0
  -25.5276  -34.0362   26.6354 C   0  0  0  0  0  0  0  0  0  0  0  0
  -26.0585  -35.8725   25.0327 C   0  0  0  0  0  0  0  0  0  0  0  0
  -28.6957  -23.1554   20.3874 C   0  0  0  0  0  0  0  0  0  0  0  0
  -22.7143  -31.1788   21.3373 C   0  0  0  0  0  0  0  0  0  0  0  0
  -27.1208  -19.5682   20.9223 C   0  0  0  0  0  0  0  0  0  0  0  0
  -27.6777  -22.0522   22.3406 C   0  0  0  0  0  0  0  0  0  0  0  0
  -29.0282  -25.6312   21.8135 C   0  0  0  0  0  0  0  0  0  1  0  0
  -26.0658  -33.4782   24.2209 C   0  0  1  0  0  0  0  0  0  0  0  0
  -22.4708  -32.7313   23.2786 C   0  0  2  0  0  0  0  0  0  0  0  0
  -26.3959  -34.4154   25.4168 C   0  0  0  0  0  0  0  0  0  0  0  0
  -26.2606  -12.1315   20.8223 N   0  0  0  0  0  0  0  0  0  0  0  0
  -26.2870  -13.4039   20.3908 N   0  0  0  0  0  0  0  0  0  0  0  0
  -27.7186  -32.7453   22.5313 N   0  0  0  0  0  0  0  0  0  0  0  0
  -29.6323  -15.2435   20.4807 N   0  0  0  0  0  0  0  0  0  0  0  0
  -24.9285  -15.3170   20.0664 N   0  0  0  0  0  0  0  0  0  0  0  0
  -22.0519  -12.2697   21.7502 N   0  0  0  0  0  0  0  0  0  0  0  0
  -29.0770  -17.4650   21.0454 N   0  0  0  0  0  0  0  0  0  0  0  0
  -30.7897  -34.2553   21.5222 N   0  0  0  0  0  0  0  0  0  0  0  0
  -24.6746  -33.5332   23.7849 N   0  0  0  0  0  0  0  0  0  0  0  0
  -28.2625  -23.2652   21.7749 N   0  0  0  0  0  0  0  0  0  0  0  0
  -21.9099  -31.5770   22.5210 N   0  3  0  0  0  0  0  0  0  0  0  0
  -22.2431  -14.4177   20.9703 O   0  0  0  0  0  0  0  0  0  0  0  0
  -30.2773  -32.7385   23.2131 O   0  0  0  0  0  0  0  0  0  0  0  0
  -26.8298  -34.9003   22.4830 O   0  0  0  0  0  0  0  0  0  0  0  0
  -28.0394  -24.5665   23.6851 O   0  0  0  0  0  0  0  0  0  0  0  0
  -24.2203  -31.2811   24.0994 O   0  0  0  0  0  0  0  0  0  0  0  0
  -31.1006  -16.9699   20.0247 O   0  0  0  0  0  0  0  0  0  0  0  0
  -23.2820   -7.0379   23.2165 O   0  0  0  0  0  0  0  0  0  0  0  0
  -29.0956  -26.7351   22.7153 O   0  0  0  0  0  0  0  0  0  1  0  0
  -18.5532   -4.9591   21.2874 F   0  0  0  0  0  0  0  0  0  0  0  0
  -31.4098  -17.8375   22.4896 F   0  0  0  0  0  0  0  0  0  0  0  0
  -23.2259   -4.5845   21.9436 F   0  0  0  0  0  0  0  0  0  0  0  0
  1  2  1  0  0  0  0
  1  5  2  0  0  0  0
  2  6  2  0  0  0  0
  3  9  2  0  0  0  0
  3 17  1  0  0  0  0
  4 10  1  0  0  0  0
  4 17  2  0  0  0  0
  5 19  1  0  0  0  0
  6 21  1  0  0  0  0
  7 11  2  0  0  0  0
  7 20  1  0  0  0  0
  8 13  1  0  0  0  0
  8 23  2  0  0  0  0
  9 26  1  0  0  0  0
 10 26  2  0  0  0  0
 11 27  1  0  0  0  0
 12 14  2  0  0  0  0
 12 28  1  0  0  0  0
 13 30  2  0  0  0  0
 14 29  1  0  0  0  0
 15 22  1  0  0  0  0
 15 27  2  0  0  0  0
 16 29  2  0  0  0  0
 16 31  1  0  0  0  0
 17 32  1  0  0  0  0
 18 32  1  0  0  0  0
 18 33  2  0  0  0  0
 18 34  1  0  0  0  0
 19 21  2  0  0  0  0
 19 40  1  0  0  0  0
 20 22  2  0  0  0  0
 20 41  1  0  0  0  0
 21 49  1  0  0  0  0
 22 42  1  0  0  0  0
 23 24  1  0  0  0  0
 23 60  1  0  0  0  0
 24 25  2  0  0  0  0
 24 59  1  0  0  0  0
 25 30  1  0  0  0  0
 25 71  1  0  0  0  0
 26 82  1  0  0  0  0
 27 83  1  0  0  0  0
 28 31  2  0  0  0  0
 28 82  1  0  0  0  0
 29 84  1  0  0  0  0
 30 85  1  0  0  0  0
 31 86  1  0  0  0  0
 32 65  2  0  0  0  0
 33 66  1  0  0  0  0
 33 69  1  0  0  0  0
 34 70  1  0  0  0  0
 34 76  2  0  0  0  0
 35 50  1  0  0  0  0
 35 72  1  0  0  0  0
 35 77  2  0  0  0  0
 36 62  1  0  0  0  0
 36 67  1  0  0  0  0
 36 78  2  0  0  0  0
 37 61  1  0  0  0  0
 37 74  1  0  0  0  0
 37 79  2  0  0  0  0
 38 63  1  0  0  0  0
 38 73  1  0  0  0  0
 38 80  2  0  0  0  0
 39 68  1  0  0  0  0
 39 71  1  0  0  0  0
 39 81  2  0  0  0  0
 40 43  1  0  0  0  0
 41 50  1  0  0  0  0
 42 67  1  0  0  0  0
 43 45  1  0  0  0  0
 44 46  1  0  0  0  0
 44 47  1  0  0  0  0
 45 49  1  0  0  0  0
 46 51  1  0  0  0  0
 47 68  1  0  0  0  0
 48 51  1  0  0  0  0
 48 68  1  0  0  0  0
 49 72  1  0  0  0  0
 50 67  1  0  0  0  0
 51 66  1  0  0  0  0
 52 59  1  0  0  0  0
 53 63  1  0  0  0  0
 54 64  1  0  0  0  0
 55 64  1  0  0  0  0
 56 64  1  0  0  0  0
 57 74  1  0  0  0  0
 58 75  1  0  0  0  0
 60 74  1  0  0  0  0
 61 83  1  0  0  0  0
 62 64  1  0  0  0  0
 62 73  1  0  0  0  0
 63 75  1  0  0  0  0
 65 66  1  0  0  0  0
M  CHG  1  75   1
M  ISO  4  39 100  61 101  71 100  83 101
M  END
> <Batch ID>
0046

> <Smiles>
CCc1c(CN(C)C(=O)[101CH2:1][101O:1]c2ccc3c(c2)CN(C(=O)C(NC(=O)C(C)NC)C(C)(C)C)C(C(=O)NC2CCCc4ccccc42)C3)ccc(F)c1[100NH:0][100C:0](=O)N1CCCC(n2nc(-c3ccc(Oc4ccc(F)cc4F)cc3)c(C(N)=O)c2N)C1

> <Shape>
0.255

> <Color>
0.138

> <Negative vol penalty>
0.000

$$$$

  -OEChem-04042322233D

 86 95  0     1  0  0  0  0  0999 V2000
  -16.6950  -30.0015   23.7032 C   0  0  0  0  0  0  0  0  0  0  0  0
  -17.0954  -28.6939   23.9589 C   0  0  0  0  0  0  0  0  0  0  0  0
  -32.6926  -17.4509   23.4230 C   0  0  0  0  0  0  0  0  0  0  0  0
  -22.6540  -10.2052   20.2635 C   0  0  0  0  0  0  0  0  0  0  0  0
  -24.3068   -9.4939   21.8758 C   0  0  0  0  0  0  0  0  0  0  0  0
  -17.5149  -30.8471   22.9572 C   0  0  0  0  0  0  0  0  0  0  0  0
  -18.3156  -28.2309   23.4677 C   0  0  0  0  0  0  0  0  0  0  0  0
  -23.6587  -23.7521   25.1133 C   0  0  0  0  0  0  0  0  0  0  0  0
  -31.9253  -18.2955   24.2252 C   0  0  0  0  0  0  0  0  0  0  0  0
  -32.0692  -16.5974   22.5127 C   0  0  0  0  0  0  0  0  0  0  0  0
  -21.9257   -9.0383   20.4953 C   0  0  0  0  0  0  0  0  0  0  0  0
  -23.5785   -8.3270   22.1076 C   0  0  0  0  0  0  0  0  0  0  0  0
  -24.3849  -22.6950   24.5667 C   0  0  0  0  0  0  0  0  0  0  0  0
  -19.7897   -7.8587   22.8360 C   0  0  0  0  0  0  0  0  0  0  0  0
  -18.4093   -7.9774   22.9970 C   0  0  0  0  0  0  0  0  0  0  0  0
  -25.7551  -24.2695   23.3573 C   0  0  0  0  0  0  0  0  0  0  0  0
  -18.0628   -6.5347   21.0903 C   0  0  0  0  0  0  0  0  0  0  0  0
  -23.8446  -10.4329   20.9538 C   0  0  0  0  0  0  0  0  0  0  0  0
  -24.1634  -12.9634   20.9039 C   0  0  0  0  0  0  0  0  0  0  0  0
  -18.7501  -30.3972   22.4648 C   0  0  0  0  0  0  0  0  0  0  0  0
  -23.9687  -25.0777   24.7770 C   0  0  0  0  0  0  0  0  0  0  0  0
  -19.1521  -29.0709   22.7132 C   0  0  0  0  0  0  0  0  0  0  0  0
  -25.0329  -25.3418   23.9030 C   0  0  0  0  0  0  0  0  0  0  0  0
  -30.5346  -18.2866   24.1171 C   0  0  0  0  0  0  0  0  0  0  0  0
  -29.9113  -17.4330   23.2068 C   0  0  0  0  0  0  0  0  0  0  0  0
  -30.6786  -16.5884   22.4046 C   0  0  0  0  0  0  0  0  0  0  0  0
  -22.3879   -8.0993   21.4173 C   0  0  0  0  0  0  0  0  0  0  0  0
  -25.4314  -22.9534   23.6863 C   0  0  0  0  0  0  0  0  0  0  0  0
  -20.3067   -7.0781   21.8020 C   0  0  0  0  0  0  0  0  0  0  0  0
  -17.5458   -7.3154   22.1242 C   0  0  0  0  0  0  0  0  0  0  0  0
  -19.4433   -6.4161   20.9292 C   0  0  0  0  0  0  0  0  0  0  0  0
  -24.5976  -11.6378   20.7144 C   0  0  0  0  0  0  0  0  0  0  0  0
  -25.2402  -13.7332   20.5374 C   0  0  0  0  0  0  0  0  0  0  0  0
  -27.8514  -20.6170   24.1924 C   0  0  0  0  0  0  0  0  0  0  0  0
  -22.8996  -13.4551   21.3697 C   0  0  0  0  0  0  0  0  0  0  0  0
  -22.4125  -27.4517   23.3466 C   0  0  0  0  0  0  0  0  0  0  0  0
  -25.0446  -29.1567   24.1756 C   0  0  0  0  0  0  0  0  0  0  0  0
  -28.6151  -28.6390   24.2080 C   0  0  0  0  0  0  0  0  0  0  0  0
  -30.7007  -14.8201   20.6104 C   0  0  0  0  0  0  0  0  0  0  0  0
  -19.5807  -31.3335   21.6233 C   0  0  0  0  0  0  0  0  0  0  0  0
  -23.1930  -26.2079   25.3960 C   0  0  0  0  0  0  0  0  0  0  0  0
  -25.4190  -26.7479   23.5256 C   0  0  0  0  0  0  0  0  0  0  0  0
  -21.0288  -30.8804   21.4568 C   0  0  0  0  0  0  0  0  0  0  0  0
  -29.8195  -21.7978   22.3340 C   0  0  0  0  0  0  0  0  0  0  0  0
  -29.5470  -12.4710   18.1963 C   0  0  0  0  0  0  0  0  0  0  0  0
  -21.0869  -29.3979   21.1022 C   0  0  0  0  0  0  0  0  0  0  0  0
  -28.3121  -21.9073   22.1121 C   0  0  0  0  0  0  0  0  0  0  0  0
  -28.1208  -12.1539   18.6518 C   0  0  0  0  0  0  0  0  0  0  0  0
  -30.1867  -21.3095   23.7325 C   0  0  0  0  0  0  0  0  0  0  0  0
  -30.4898  -12.6705   19.3817 C   0  0  0  0  0  0  0  0  0  0  0  0
  -28.6120  -13.3355   20.8312 C   0  0  0  0  0  0  0  0  0  0  0  0
  -20.4799  -28.5395   22.2185 C   0  0  1  0  0  0  0  0  0  0  0  0
  -27.5317  -21.8899   23.4203 C   0  0  1  0  0  0  0  0  0  1  0  0
  -23.2644  -27.4972   24.5835 C   0  0  1  0  0  0  0  0  0  0  0  0
  -27.6116  -13.1903   19.6727 C   0  0  2  0  0  0  0  0  0  0  0  0
  -28.4189  -17.4271   23.0943 C   0  0  0  0  0  0  0  0  0  0  0  0
  -30.3997  -29.6668   25.6418 C   0  0  0  0  0  0  0  0  0  0  0  0
  -25.3283  -31.1535   21.8860 C   0  0  0  0  0  0  0  0  0  0  0  0
  -27.8040  -31.1219   22.2577 C   0  0  0  0  0  0  0  0  0  0  0  0
  -26.2832  -31.9230   24.0656 C   0  0  0  0  0  0  0  0  0  0  0  0
  -29.5956  -25.9893   25.0892 C   0  0  0  0  0  0  0  0  0  0  0  0
  -29.7327  -19.2058   24.9924 C   0  0  0  0  0  0  0  0  0  0  0  0
  -26.3739  -29.4548   23.5252 C   0  0  1  0  0  0  0  0  0  0  0  0
  -29.4966  -28.4616   25.4310 C   0  0  2  0  0  0  0  0  0  0  0  0
  -26.4332  -30.8892   22.9282 C   0  0  0  0  0  0  0  0  0  0  0  0
  -25.8524  -11.5659   20.2624 N   0  0  0  0  0  0  0  0  0  0  0  0
  -26.2159  -12.8560   20.1648 N   0  0  0  0  0  0  0  0  0  0  0  0
  -29.2216  -20.3496   24.2559 N   0  0  0  0  0  0  0  0  0  0  0  0
  -24.6264  -27.8187   24.1522 N   0  0  0  0  0  0  0  0  0  0  0  0
  -29.9446  -13.6689   20.3041 N   0  0  0  0  0  0  0  0  0  0  0  0
  -25.4383  -15.0680   20.5007 N   0  0  0  0  0  0  0  0  0  0  0  0
  -21.9036  -12.5272   21.7033 N   0  0  0  0  0  0  0  0  0  0  0  0
  -30.0665  -15.7138   21.4728 N   0  0  0  0  0  0  0  0  0  0  0  0
  -21.4127  -28.4052   23.3168 N   0  0  0  0  0  0  0  0  0  0  0  0
  -27.3919  -29.1852   24.5348 N   0  0  0  0  0  0  0  0  0  0  0  0
  -30.3542  -27.2522   25.2803 N   0  3  0  0  0  0  0  0  0  0  0  0
  -26.9723  -19.9262   24.7043 O   0  0  0  0  0  0  0  0  0  0  0  0
  -22.6552  -14.6812   21.4710 O   0  0  0  0  0  0  0  0  0  0  0  0
  -22.6459  -26.6146   22.4826 O   0  0  0  0  0  0  0  0  0  0  0  0
  -24.4043  -30.0761   24.6919 O   0  0  0  0  0  0  0  0  0  0  0  0
  -28.9769  -28.3279   23.0753 O   0  0  0  0  0  0  0  0  0  0  0  0
  -31.8165  -15.0130   20.1207 O   0  0  0  0  0  0  0  0  0  0  0  0
  -21.6774   -6.9607   21.6439 O   0  0  0  0  0  0  0  0  0  0  0  0
  -26.1415  -21.9234   23.1508 O   0  0  0  0  0  0  0  0  0  1  0  0
  -16.2202   -7.4282   22.2799 F   0  0  0  0  0  0  0  0  0  0  0  0
  -19.9340   -5.6638   19.9347 F   0  0  0  0  0  0  0  0  0  0  0  0
  1  2  1  0  0  0  0
  1  6  2  0  0  0  0
  2  7  2  0  0  0  0
  3  9  2  0  0  0  0
  3 10  1  0  0  0  0
  4 11  2  0  0  0  0
  4 18  1  0  0  0  0
  5 12  1  0  0  0  0
  5 18  2  0  0  0  0
  6 20  1  0  0  0  0
  7 22  1  0  0  0  0
  8 13  2  0  0  0  0
  8 21  1  0  0  0  0
  9 24  1  0  0  0  0
 10 26  2  0  0  0  0
 11 27  1  0  0  0  0
 12 27  2  0  0  0  0
 13 28  1  0  0  0  0
 14 15  2  0  0  0  0
 14 29  1  0  0  0  0
 15 30  1  0  0  0  0
 16 23  1  0  0  0  0
 16 28  2  0  0  0  0
 17 30  2  0  0  0  0
 17 31  1  0  0  0  0
 18 32  1  0  0  0  0
 19 32  1  0  0  0  0
 19 33  2  0  0  0  0
 19 35  1  0  0  0  0
 20 22  2  0  0  0  0
 20 40  1  0  0  0  0
 21 23  2  0  0  0  0
 21 41  1  0  0  0  0
 22 52  1  0  0  0  0
 23 42  1  0  0  0  0
 24 25  2  0  0  0  0
 24 62  1  0  0  0  0
 25 26  1  0  0  0  0
 25 56  1  0  0  0  0
 26 73  1  0  0  0  0
 27 83  1  0  0  0  0
 28 84  1  0  0  0  0
 29 31  2  0  0  0  0
 29 83  1  0  0  0  0
 30 85  1  0  0  0  0
 31 86  1  0  0  0  0
 32 66  2  0  0  0  0
 33 67  1  0  0  0  0
 33 71  1  0  0  0  0
 34 53  1  0  0  0  0
 34 68  1  0  0  0  0
 34 77  2  0  0  0  0
 35 72  1  0  0  0  0
 35 78  2  0  0  0  0
 36 54  1  0  0  0  0
 36 74  1  0  0  0  0
 36 79  2  0  0  0  0
 37 63  1  0  0  0  0
 37 69  1  0  0  0  0
 37 80  2  0  0  0  0
 38 64  1  0  0  0  0
 38 75  1  0  0  0  0
 38 81  2  0  0  0  0
 39 70  1  0  0  0  0
 39 73  1  0  0  0  0
 39 82  2  0  0  0  0
 40 43  1  0  0  0  0
 41 54  1  0  0  0  0
 42 69  1  0  0  0  0
 43 46  1  0  0  0  0
 44 47  1  0  0  0  0
 44 49  1  0  0  0  0
 45 48  1  0  0  0  0
 45 50  1  0  0  0  0
 46 52  1  0  0  0  0
 47 53  1  0  0  0  0
 48 55  1  0  0  0  0
 49 68  1  0  0  0  0
 50 70  1  0  0  0  0
 51 55  1  0  0  0  0
 51 70  1  0  0  0  0
 52 74  1  0  0  0  0
 53 84  1  0  0  0  0
 54 69  1  0  0  0  0
 55 67  1  0  0  0  0
 57 64  1  0  0  0  0
 58 65  1  0  0  0  0
 59 65  1  0  0  0  0
 60 65  1  0  0  0  0
 61 76  1  0  0  0  0
 62 68  1  0  0  0  0
 63 65  1  0  0  0  0
 63 75  1  0  0  0  0
 64 76  1  0  0  0  0
 66 67  1  0  0  0  0
M  CHG  1  76   1
M  ISO  4  39 100  53 101  73 100  84 101
M  END
> <Batch ID>
0046

> <Smiles>
CNC(C)C(=O)NC(C(=O)N1Cc2cc([101O:1][101CH:1]3CCCN(Cc4cccc([100NH:0][100C:0](=O)N5CCCC(n6nc(-c7ccc(Oc8ccc(F)cc8F)cc7)c(C(N)=O)c6N)C5)c4C)C3=O)ccc2CC1C(=O)NC1CCCc2ccccc21)C(C)(C)C

> <Shape>
0.266

> <Color>
0.218

> <Negative vol penalty>
0.000

$$$$

  -OEChem-04042322233D

 86 95  0     1  0  0  0  0  0999 V2000
  -16.6950  -30.0015   23.7032 C   0  0  0  0  0  0  0  0  0  0  0  0
  -17.0954  -28.6939   23.9589 C   0  0  0  0  0  0  0  0  0  0  0  0
  -32.6926  -17.4509   23.4230 C   0  0  0  0  0  0  0  0  0  0  0  0
  -22.6540  -10.2052   20.2635 C   0  0  0  0  0  0  0  0  0  0  0  0
  -24.3068   -9.4939   21.8758 C   0  0  0  0  0  0  0  0  0  0  0  0
  -17.5149  -30.8471   22.9572 C   0  0  0  0  0  0  0  0  0  0  0  0
  -18.3156  -28.2309   23.4677 C   0  0  0  0  0  0  0  0  0  0  0  0
  -23.6587  -23.7521   25.1133 C   0  0  0  0  0  0  0  0  0  0  0  0
  -31.9253  -18.2955   24.2252 C   0  0  0  0  0  0  0  0  0  0  0  0
  -32.0692  -16.5974   22.5127 C   0  0  0  0  0  0  0  0  0  0  0  0
  -21.9257   -9.0383   20.4953 C   0  0  0  0  0  0  0  0  0  0  0  0
  -23.5785   -8.3270   22.1076 C   0  0  0  0  0  0  0  0  0  0  0  0
  -24.3849  -22.6950   24.5667 C   0  0  0  0  0  0  0  0  0  0  0  0
  -19.7897   -7.8587   22.8360 C   0  0  0  0  0  0  0  0  0  0  0  0
  -18.4093   -7.9774   22.9970 C   0  0  0  0  0  0  0  0  0  0  0  0
  -25.7551  -24.2695   23.3573 C   0  0  0  0  0  0  0  0  0  0  0  0
  -18.0628   -6.5347   21.0903 C   0  0  0  0  0  0  0  0  0  0  0  0
  -23.8446  -10.4329   20.9538 C   0  0  0  0  0  0  0  0  0  0  0  0
  -24.1634  -12.9634   20.9039 C   0  0  0  0  0  0  0  0  0  0  0  0
  -18.7501  -30.3972   22.4648 C   0  0  0  0  0  0  0  0  0  0  0  0
  -23.9687  -25.0777   24.7770 C   0  0  0  0  0  0  0  0  0  0  0  0
  -19.1521  -29.0709   22.7132 C   0  0  0  0  0  0  0  0  0  0  0  0
  -25.0329  -25.3418   23.9030 C   0  0  0  0  0  0  0  0  0  0  0  0
  -30.5346  -18.2866   24.1171 C   0  0  0  0  0  0  0  0  0  0  0  0
  -29.9113  -17.4330   23.2068 C   0  0  0  0  0  0  0  0  0  0  0  0
  -30.6786  -16.5884   22.4046 C   0  0  0  0  0  0  0  0  0  0  0  0
  -22.3879   -8.0993   21.4173 C   0  0  0  0  0  0  0  0  0  0  0  0
  -25.4314  -22.9534   23.6863 C   0  0  0  0  0  0  0  0  0  0  0  0
  -20.3067   -7.0781   21.8020 C   0  0  0  0  0  0  0  0  0  0  0  0
  -17.5458   -7.3154   22.1242 C   0  0  0  0  0  0  0  0  0  0  0  0
  -19.4433   -6.4161   20.9292 C   0  0  0  0  0  0  0  0  0  0  0  0
  -24.5976  -11.6378   20.7144 C   0  0  0  0  0  0  0  0  0  0  0  0
  -25.2402  -13.7332   20.5374 C   0  0  0  0  0  0  0  0  0  0  0  0
  -27.8514  -20.6170   24.1924 C   0  0  0  0  0  0  0  0  0  0  0  0
  -22.8996  -13.4551   21.3697 C   0  0  0  0  0  0  0  0  0  0  0  0
  -22.4125  -27.4517   23.3466 C   0  0  0  0  0  0  0  0  0  0  0  0
  -25.0446  -29.1567   24.1756 C   0  0  0  0  0  0  0  0  0  0  0  0
  -28.6151  -28.6390   24.2080 C   0  0  0  0  0  0  0  0  0  0  0  0
  -30.7007  -14.8201   20.6104 C   0  0  0  0  0  0  0  0  0  0  0  0
  -19.5807  -31.3335   21.6233 C   0  0  0  0  0  0  0  0  0  0  0  0
  -23.1930  -26.2079   25.3960 C   0  0  0  0  0  0  0  0  0  0  0  0
  -25.4190  -26.7479   23.5256 C   0  0  0  0  0  0  0  0  0  0  0  0
  -21.0288  -30.8804   21.4568 C   0  0  0  0  0  0  0  0  0  0  0  0
  -29.8195  -21.7978   22.3340 C   0  0  0  0  0  0  0  0  0  0  0  0
  -29.5470  -12.4710   18.1963 C   0  0  0  0  0  0  0  0  0  0  0  0
  -21.0869  -29.3979   21.1022 C   0  0  0  0  0  0  0  0  0  0  0  0
  -28.3121  -21.9073   22.1121 C   0  0  0  0  0  0  0  0  0  0  0  0
  -28.1208  -12.1539   18.6518 C   0  0  0  0  0  0  0  0  0  0  0  0
  -30.1867  -21.3095   23.7325 C   0  0  0  0  0  0  0  0  0  0  0  0
  -30.4898  -12.6705   19.3817 C   0  0  0  0  0  0  0  0  0  0  0  0
  -28.6120  -13.3355   20.8312 C   0  0  0  0  0  0  0  0  0  0  0  0
  -20.4799  -28.5395   22.2185 C   0  0  1  0  0  0  0  0  0  0  0  0
  -27.5317  -21.8899   23.4203 C   0  0  1  0  0  0  0  0  0  1  0  0
  -23.2644  -27.4972   24.5835 C   0  0  1  0  0  0  0  0  0  0  0  0
  -27.6116  -13.1903   19.6727 C   0  0  2  0  0  0  0  0  0  0  0  0
  -28.4189  -17.4271   23.0943 C   0  0  0  0  0  0  0  0  0  0  0  0
  -30.3997  -29.6668   25.6418 C   0  0  0  0  0  0  0  0  0  0  0  0
  -25.3283  -31.1535   21.8860 C   0  0  0  0  0  0  0  0  0  0  0  0
  -27.8040  -31.1219   22.2577 C   0  0  0  0  0  0  0  0  0  0  0  0
  -26.2832  -31.9230   24.0656 C   0  0  0  0  0  0  0  0  0  0  0  0
  -29.5956  -25.9893   25.0892 C   0  0  0  0  0  0  0  0  0  0  0  0
  -29.7327  -19.2058   24.9924 C   0  0  0  0  0  0  0  0  0  0  0  0
  -26.3739  -29.4548   23.5252 C   0  0  1  0  0  0  0  0  0  0  0  0
  -29.4966  -28.4616   25.4310 C   0  0  2  0  0  0  0  0  0  0  0  0
  -26.4332  -30.8892   22.9282 C   0  0  0  0  0  0  0  0  0  0  0  0
  -25.8524  -11.5659   20.2624 N   0  0  0  0  0  0  0  0  0  0  0  0
  -26.2159  -12.8560   20.1648 N   0  0  0  0  0  0  0  0  0  0  0  0
  -29.2216  -20.3496   24.2559 N   0  0  0  0  0  0  0  0  0  0  0  0
  -24.6264  -27.8187   24.1522 N   0  0  0  0  0  0  0  0  0  0  0  0
  -29.9446  -13.6689   20.3041 N   0  0  0  0  0  0  0  0  0  0  0  0
  -25.4383  -15.0680   20.5007 N   0  0  0  0  0  0  0  0  0  0  0  0
  -21.9036  -12.5272   21.7033 N   0  0  0  0  0  0  0  0  0  0  0  0
  -30.0665  -15.7138   21.4728 N   0  0  0  0  0  0  0  0  0  0  0  0
  -21.4127  -28.4052   23.3168 N   0  0  0  0  0  0  0  0  0  0  0  0
  -27.3919  -29.1852   24.5348 N   0  0  0  0  0  0  0  0  0  0  0  0
  -30.3542  -27.2522   25.2803 N   0  3  0  0  0  0  0  0  0  0  0  0
  -26.9723  -19.9262   24.7043 O   0  0  0  0  0  0  0  0  0  0  0  0
  -22.6552  -14.6812   21.4710 O   0  0  0  0  0  0  0  0  0  0  0  0
  -22.6459  -26.6146   22.4826 O   0  0  0  0  0  0  0  0  0  0  0  0
  -24.4043  -30.0761   24.6919 O   0  0  0  0  0  0  0  0  0  0  0  0
  -28.9769  -28.3279   23.0753 O   0  0  0  0  0  0  0  0  0  0  0  0
  -31.8165  -15.0130   20.1207 O   0  0  0  0  0  0  0  0  0  0  0  0
  -21.6774   -6.9607   21.6439 O   0  0  0  0  0  0  0  0  0  0  0  0
  -26.1415  -21.9234   23.1508 O   0  0  0  0  0  0  0  0  0  1  0  0
  -16.2202   -7.4282   22.2799 F   0  0  0  0  0  0  0  0  0  0  0  0
  -19.9340   -5.6638   19.9347 F   0  0  0  0  0  0  0  0  0  0  0  0
  1  2  1  0  0  0  0
  1  6  2  0  0  0  0
  2  7  2  0  0  0  0
  3  9  2  0  0  0  0
  3 10  1  0  0  0  0
  4 11  2  0  0  0  0
  4 18  1  0  0  0  0
  5 12  1  0  0  0  0
  5 18  2  0  0  0  0
  6 20  1  0  0  0  0
  7 22  1  0  0  0  0
  8 13  2  0  0  0  0
  8 21  1  0  0  0  0
  9 24  1  0  0  0  0
 10 26  2  0  0  0  0
 11 27  1  0  0  0  0
 12 27  2  0  0  0  0
 13 28  1  0  0  0  0
 14 15  2  0  0  0  0
 14 29  1  0  0  0  0
 15 30  1  0  0  0  0
 16 23  1  0  0  0  0
 16 28  2  0  0  0  0
 17 30  2  0  0  0  0
 17 31  1  0  0  0  0
 18 32  1  0  0  0  0
 19 32  1  0  0  0  0
 19 33  2  0  0  0  0
 19 35  1  0  0  0  0
 20 22  2  0  0  0  0
 20 40  1  0  0  0  0
 21 23  2  0  0  0  0
 21 41  1  0  0  0  0
 22 52  1  0  0  0  0
 23 42  1  0  0  0  0
 24 25  2  0  0  0  0
 24 62  1  0  0  0  0
 25 26  1  0  0  0  0
 25 56  1  0  0  0  0
 26 73  1  0  0  0  0
 27 83  1  0  0  0  0
 28 84  1  0  0  0  0
 29 31  2  0  0  0  0
 29 83  1  0  0  0  0
 30 85  1  0  0  0  0
 31 86  1  0  0  0  0
 32 66  2  0  0  0  0
 33 67  1  0  0  0  0
 33 71  1  0  0  0  0
 34 53  1  0  0  0  0
 34 68  1  0  0  0  0
 34 77  2  0  0  0  0
 35 72  1  0  0  0  0
 35 78  2  0  0  0  0
 36 54  1  0  0  0  0
 36 74  1  0  0  0  0
 36 79  2  0  0  0  0
 37 63  1  0  0  0  0
 37 69  1  0  0  0  0
 37 80  2  0  0  0  0
 38 64  1  0  0  0  0
 38 75  1  0  0  0  0
 38 81  2  0  0  0  0
 39 70  1  0  0  0  0
 39 73  1  0  0  0  0
 39 82  2  0  0  0  0
 40 43  1  0  0  0  0
 41 54  1  0  0  0  0
 42 69  1  0  0  0  0
 43 46  1  0  0  0  0
 44 47  1  0  0  0  0
 44 49  1  0  0  0  0
 45 48  1  0  0  0  0
 45 50  1  0  0  0  0
 46 52  1  0  0  0  0
 47 53  1  0  0  0  0
 48 55  1  0  0  0  0
 49 68  1  0  0  0  0
 50 70  1  0  0  0  0
 51 55  1  0  0  0  0
 51 70  1  0  0  0  0
 52 74  1  0  0  0  0
 53 84  1  0  0  0  0
 54 69  1  0  0  0  0
 55 67  1  0  0  0  0
 57 64  1  0  0  0  0
 58 65  1  0  0  0  0
 59 65  1  0  0  0  0
 60 65  1  0  0  0  0
 61 76  1  0  0  0  0
 62 68  1  0  0  0  0
 63 65  1  0  0  0  0
 63 75  1  0  0  0  0
 64 76  1  0  0  0  0
 66 67  1  0  0  0  0
M  CHG  1  76   1
M  ISO  4  39 100  53 101  73 100  84 101
M  END
> <Batch ID>
0046

> <Smiles>
CNC(C)C(=O)NC(C(=O)N1Cc2cc([101O:1][101CH:1]3CCCN(Cc4cccc([100NH:0][100C:0](=O)N5CCCC(n6nc(-c7ccc(Oc8ccc(F)cc8F)cc7)c(C(N)=O)c6N)C5)c4C)C3=O)ccc2CC1C(=O)NC1CCCc2ccccc21)C(C)(C)C

> <Shape>
0.266

> <Color>
0.218

> <Negative vol penalty>
0.000

$$$$

  -OEChem-04042322233D

 86 95  0     1  0  0  0  0  0999 V2000
  -34.5094  -12.7065   18.2430 C   0  0  0  0  0  0  0  0  0  0  0  0
  -33.5630  -13.7231   18.1642 C   0  0  0  0  0  0  0  0  0  0  0  0
  -31.0576  -23.3006   24.2178 C   0  0  0  0  0  0  0  0  0  0  0  0
  -21.5678  -29.9807   21.4021 C   0  0  0  0  0  0  0  0  0  0  0  0
  -22.5688  -28.3532   22.8808 C   0  0  0  0  0  0  0  0  0  0  0  0
  -34.1033  -11.3732   18.2049 C   0  0  0  0  0  0  0  0  0  0  0  0
  -32.2100  -13.4071   18.0462 C   0  0  0  0  0  0  0  0  0  0  0  0
  -29.2901  -16.1939   21.1044 C   0  0  0  0  0  0  0  0  0  0  0  0
  -30.5677  -22.8917   22.9775 C   0  0  0  0  0  0  0  0  0  0  0  0
  -20.3018  -29.6237   21.8663 C   0  0  0  0  0  0  0  0  0  0  0  0
  -21.3027  -27.9963   23.3450 C   0  0  0  0  0  0  0  0  0  0  0  0
  -29.0125  -17.5000   20.7035 C   0  0  0  0  0  0  0  0  0  0  0  0
  -18.7049  -26.1058   22.2922 C   0  0  0  0  0  0  0  0  0  0  0  0
  -18.4190  -24.7460   22.4142 C   0  0  0  0  0  0  0  0  0  0  0  0
  -30.9926  -24.6448   24.5848 C   0  0  0  0  0  0  0  0  0  0  0  0
  -26.8523  -16.7879   19.8999 C   0  0  0  0  0  0  0  0  0  0  0  0
  -18.0244  -25.0412   24.7795 C   0  0  0  0  0  0  0  0  0  0  0  0
  -22.7013  -29.3453   21.9093 C   0  0  0  0  0  0  0  0  0  0  0  0
  -24.6147  -30.9822   21.5004 C   0  0  0  0  0  0  0  0  0  0  0  0
  -32.7438  -11.0406   18.0961 C   0  0  0  0  0  0  0  0  0  0  0  0
  -28.3536  -15.1711   20.8958 C   0  0  0  0  0  0  0  0  0  0  0  0
  -31.7855  -12.0681   18.0053 C   0  0  0  0  0  0  0  0  0  0  0  0
  -27.1194  -15.4701   20.3014 C   0  0  0  0  0  0  0  0  0  0  0  0
  -30.0129  -23.8271   22.1040 C   0  0  0  0  0  0  0  0  0  0  0  0
  -29.9479  -25.1713   22.4709 C   0  0  0  0  0  0  0  0  0  0  0  0
  -20.1692  -28.6316   22.8377 C   0  0  0  0  0  0  0  0  0  0  0  0
  -27.7947  -17.7967   20.0985 C   0  0  0  0  0  0  0  0  0  0  0  0
  -18.6507  -26.9333   23.4139 C   0  0  0  0  0  0  0  0  0  0  0  0
  -18.0787  -24.2137   23.6578 C   0  0  0  0  0  0  0  0  0  0  0  0
  -18.3104  -26.4010   24.6575 C   0  0  0  0  0  0  0  0  0  0  0  0
  -30.4378  -25.5801   23.7113 C   0  0  0  0  0  0  0  0  0  0  0  0
  -24.0093  -29.7132   21.4299 C   0  0  0  0  0  0  0  0  0  0  0  0
  -25.8437  -30.8095   20.9121 C   0  0  0  0  0  0  0  0  0  0  0  0
  -28.6284  -21.0747   20.4214 C   0  0  0  0  0  0  0  0  0  0  0  0
  -24.1111  -32.2075   22.0488 C   0  0  0  0  0  0  0  0  0  0  0  0
  -28.3217  -12.4647   19.2292 C   0  0  0  0  0  0  0  0  0  0  0  0
  -25.4629  -12.0463   20.7037 C   0  0  0  0  0  0  0  0  0  0  0  0
  -22.6087  -14.0879   21.5422 C   0  0  0  0  0  0  0  0  0  0  0  0
  -29.3864  -26.0537   20.1791 C   0  0  0  0  0  0  0  0  0  0  0  0
  -32.3570   -9.5853   18.0112 C   0  0  0  0  0  0  0  0  0  0  0  0
  -28.6575  -13.7725   21.3582 C   0  0  0  0  0  0  0  0  0  0  0  0
  -26.0720  -14.4121   20.0733 C   0  0  0  0  0  0  0  0  0  0  0  0
  -30.8724   -9.3341   18.2620 C   0  0  0  0  0  0  0  0  0  0  0  0
  -26.1449  -21.8103   21.7920 C   0  0  0  0  0  0  0  0  0  0  0  0
  -28.0765  -28.1485   17.6153 C   0  0  0  0  0  0  0  0  0  0  0  0
  -30.0224  -10.3218   17.4691 C   0  0  0  0  0  0  0  0  0  0  0  0
  -26.1387  -20.6908   20.7722 C   0  0  0  0  0  0  0  0  0  0  0  0
  -26.9439  -28.9074   18.3106 C   0  0  0  0  0  0  0  0  0  0  0  0
  -27.1421  -22.8762   21.3741 C   0  0  0  0  0  0  0  0  0  0  0  0
  -28.1786  -26.7060   18.1077 C   0  0  0  0  0  0  0  0  0  0  0  0
  -27.1445  -27.3118   20.2601 C   0  0  0  0  0  0  0  0  0  0  0  0
  -30.3064  -11.7653   17.9015 C   0  0  1  0  0  0  0  0  0  0  0  0
  -27.5205  -20.0701   20.7116 C   0  0  1  0  0  0  0  0  0  1  0  0
  -27.8382  -12.7113   20.6302 C   0  0  1  0  0  0  0  0  0  0  0  0
  -27.0440  -28.7884   19.8440 C   0  0  2  0  0  0  0  0  0  0  0  0
  -20.9214  -13.8554   23.3851 C   0  0  0  0  0  0  0  0  0  0  0  0
  -23.8150  -10.5544   18.6136 C   0  0  0  0  0  0  0  0  0  0  0  0
  -21.7671  -11.6520   19.5461 C   0  0  0  0  0  0  0  0  0  0  0  0
  -23.1277  -10.1310   20.9806 C   0  0  0  0  0  0  0  0  0  0  0  0
  -23.1407  -16.8258   22.5322 C   0  0  0  0  0  0  0  0  0  0  0  0
  -29.4938  -23.3543   20.7769 C   0  0  0  0  0  0  0  0  0  0  0  0
  -24.0335  -12.4161   20.3891 C   0  0  1  0  0  0  0  0  0  0  0  0
  -22.1962  -14.5478   22.9289 C   0  0  2  0  0  0  0  0  0  0  0  0
  -23.2076  -11.2041   19.8730 C   0  0  0  0  0  0  0  0  0  0  0  0
  -24.7894  -28.8017   20.8429 N   0  0  0  0  0  0  0  0  0  0  0  0
  -25.8975  -29.4987   20.5391 N   0  0  0  0  0  0  0  0  0  0  0  0
  -28.4377  -22.3622   20.9266 N   0  0  0  0  0  0  0  0  0  0  0  0
  -26.4187  -13.0585   20.5371 N   0  0  0  0  0  0  0  0  0  0  0  0
  -28.2746  -26.6718   19.5687 N   0  0  0  0  0  0  0  0  0  0  0  0
  -26.8728  -31.6525   20.6824 N   0  0  0  0  0  0  0  0  0  0  0  0
  -24.3599  -32.4871   23.3994 N   0  0  0  0  0  0  0  0  0  0  0  0
  -29.3853  -26.1114   21.5724 N   0  0  0  0  0  0  0  0  0  0  0  0
  -29.6403  -12.0586   19.1524 N   0  0  0  0  0  0  0  0  0  0  0  0
  -23.4965  -13.0343   21.5966 N   0  0  0  0  0  0  0  0  0  0  0  0
  -21.9609  -16.0193   22.9380 N   0  3  0  0  0  0  0  0  0  0  0  0
  -29.6478  -20.7113   19.8290 O   0  0  0  0  0  0  0  0  0  0  0  0
  -23.4458  -33.0225   21.3656 O   0  0  0  0  0  0  0  0  0  0  0  0
  -27.5549  -12.6291   18.2876 O   0  0  0  0  0  0  0  0  0  0  0  0
  -25.7209  -10.9036   21.0901 O   0  0  0  0  0  0  0  0  0  0  0  0
  -22.1829  -14.6087   20.5136 O   0  0  0  0  0  0  0  0  0  0  0  0
  -30.2878  -25.5370   19.5140 O   0  0  0  0  0  0  0  0  0  0  0  0
  -18.9341  -28.2832   23.2910 O   0  0  0  0  0  0  0  0  0  0  0  0
  -27.5215  -19.0706   19.7057 O   0  0  0  0  0  0  0  0  0  1  0  0
  -17.8026  -22.9082   23.7745 F   0  0  0  0  0  0  0  0  0  0  0  0
  -18.2555  -27.1911   25.7384 F   0  0  0  0  0  0  0  0  0  0  0  0
  -30.3800  -27.2339   24.2091 Cl  0  0  0  0  0  0  0  0  0  0  0  0
  1  2  1  0  0  0  0
  1  6  2  0  0  0  0
  2  7  2  0  0  0  0
  3  9  2  0  0  0  0
  3 15  1  0  0  0  0
  4 10  2  0  0  0  0
  4 18  1  0  0  0  0
  5 11  1  0  0  0  0
  5 18  2  0  0  0  0
  6 20  1  0  0  0  0
  7 22  1  0  0  0  0
  8 12  2  0  0  0  0
  8 21  1  0  0  0  0
  9 24  1  0  0  0  0
 10 26  1  0  0  0  0
 11 26  2  0  0  0  0
 12 27  1  0  0  0  0
 13 14  2  0  0  0  0
 13 28  1  0  0  0  0
 14 29  1  0  0  0  0
 15 31  2  0  0  0  0
 16 23  1  0  0  0  0
 16 27  2  0  0  0  0
 17 29  2  0  0  0  0
 17 30  1  0  0  0  0
 18 32  1  0  0  0  0
 19 32  1  0  0  0  0
 19 33  2  0  0  0  0
 19 35  1  0  0  0  0
 20 22  2  0  0  0  0
 20 40  1  0  0  0  0
 21 23  2  0  0  0  0
 21 41  1  0  0  0  0
 22 52  1  0  0  0  0
 23 42  1  0  0  0  0
 24 25  2  0  0  0  0
 24 61  1  0  0  0  0
 25 31  1  0  0  0  0
 25 72  1  0  0  0  0
 26 82  1  0  0  0  0
 27 83  1  0  0  0  0
 28 30  2  0  0  0  0
 28 82  1  0  0  0  0
 29 84  1  0  0  0  0
 30 85  1  0  0  0  0
 31 86  1  0  0  0  0
 32 65  2  0  0  0  0
 33 66  1  0  0  0  0
 33 70  1  0  0  0  0
 34 53  1  0  0  0  0
 34 67  1  0  0  0  0
 34 76  2  0  0  0  0
 35 71  1  0  0  0  0
 35 77  2  0  0  0  0
 36 54  1  0  0  0  0
 36 73  1  0  0  0  0
 36 78  2  0  0  0  0
 37 62  1  0  0  0  0
 37 68  1  0  0  0  0
 37 79  2  0  0  0  0
 38 63  1  0  0  0  0
 38 74  1  0  0  0  0
 38 80  2  0  0  0  0
 39 69  1  0  0  0  0
 39 72  1  0  0  0  0
 39 81  2  0  0  0  0
 40 43  1  0  0  0  0
 41 54  1  0  0  0  0
 42 68  1  0  0  0  0
 43 46  1  0  0  0  0
 44 47  1  0  0  0  0
 44 49  1  0  0  0  0
 45 48  1  0  0  0  0
 45 50  1  0  0  0  0
 46 52  1  0  0  0  0
 47 53  1  0  0  0  0
 48 55  1  0  0  0  0
 49 67  1  0  0  0  0
 50 69  1  0  0  0  0
 51 55  1  0  0  0  0
 51 69  1  0  0  0  0
 52 73  1  0  0  0  0
 53 83  1  0  0  0  0
 54 68  1  0  0  0  0
 55 66  1  0  0  0  0
 56 63  1  0  0  0  0
 57 64  1  0  0  0  0
 58 64  1  0  0  0  0
 59 64  1  0  0  0  0
 60 75  1  0  0  0  0
 61 67  1  0  0  0  0
 62 64  1  0  0  0  0
 62 74  1  0  0  0  0
 63 75  1  0  0  0  0
 65 66  1  0  0  0  0
M  CHG  1  75   1
M  ISO  4  39 100  53 101  72 100  83 101
M  END
> <Batch ID>
0046

> <Smiles>
CNC(C)C(=O)NC(C(=O)N1Cc2cc([101O:1][101CH:1]3CCCN(Cc4cccc(Cl)c4[100NH:0][100C:0](=O)N4CCCC(n5nc(-c6ccc(Oc7ccc(F)cc7F)cc6)c(C(N)=O)c5N)C4)C3=O)ccc2CC1C(=O)NC1CCCc2ccccc21)C(C)(C)C

> <Shape>
0.305

> <Color>
0.077

> <Negative vol penalty>
0.000

$$$$

  -OEChem-04042322233D

 88 97  0     1  0  0  0  0  0999 V2000
  -22.5081  -27.3499   29.3572 C   0  0  0  0  0  0  0  0  0  0  0  0
  -23.0961  -26.2815   28.6879 C   0  0  0  0  0  0  0  0  0  0  0  0
  -22.7648  -10.2514   20.1379 C   0  0  0  0  0  0  0  0  0  0  0  0
  -24.1573   -9.5981   22.0010 C   0  0  0  0  0  0  0  0  0  0  0  0
  -22.2997  -28.5578   28.6927 C   0  0  0  0  0  0  0  0  0  0  0  0
  -23.4750  -26.4199   27.3531 C   0  0  0  0  0  0  0  0  0  0  0  0
  -28.0766  -24.5165   26.4325 C   0  0  0  0  0  0  0  0  0  0  0  0
  -21.9798   -9.1138   20.3256 C   0  0  0  0  0  0  0  0  0  0  0  0
  -23.3723   -8.4605   22.1888 C   0  0  0  0  0  0  0  0  0  0  0  0
  -28.1801  -23.1315   26.3108 C   0  0  0  0  0  0  0  0  0  0  0  0
  -20.3862   -7.6979   23.5753 C   0  0  0  0  0  0  0  0  0  0  0  0
  -20.0075   -7.3818   24.8799 C   0  0  0  0  0  0  0  0  0  0  0  0
  -28.1953  -23.3499   23.9084 C   0  0  0  0  0  0  0  0  0  0  0  0
  -32.9956  -14.8854   23.7304 C   0  0  0  0  0  0  0  0  0  0  0  0
  -30.8978  -14.6659   24.9084 C   0  0  0  0  0  0  0  0  0  0  0  0
  -21.1398   -5.2557   24.6936 C   0  0  0  0  0  0  0  0  0  0  0  0
  -23.8536  -10.4935   20.9755 C   0  0  0  0  0  0  0  0  0  0  0  0
  -24.2452  -13.0106   20.8391 C   0  0  0  0  0  0  0  0  0  0  0  0
  -22.6851  -28.7141   27.3519 C   0  0  0  0  0  0  0  0  0  0  0  0
  -28.0207  -25.3292   25.2911 C   0  0  0  0  0  0  0  0  0  0  0  0
  -23.2704  -27.6305   26.6695 C   0  0  0  0  0  0  0  0  0  0  0  0
  -28.0937  -24.7451   24.0184 C   0  0  0  0  0  0  0  0  0  0  0  0
  -31.9055  -14.1082   24.1215 C   0  0  0  0  0  0  0  0  0  0  0  0
  -32.0706  -16.7781   24.9133 C   0  0  0  0  0  0  0  0  0  0  0  0
  -22.2835   -8.2184   21.3511 C   0  0  0  0  0  0  0  0  0  0  0  0
  -28.2365  -22.5478   25.0486 C   0  0  0  0  0  0  0  0  0  0  0  0
  -21.1417   -6.7928   22.8297 C   0  0  0  0  0  0  0  0  0  0  0  0
  -20.3843   -6.1608   25.4392 C   0  0  0  0  0  0  0  0  0  0  0  0
  -21.5185   -5.5718   23.3889 C   0  0  0  0  0  0  0  0  0  0  0  0
  -33.0783  -16.2204   24.1264 C   0  0  0  0  0  0  0  0  0  0  0  0
  -30.9804  -16.0008   25.3043 C   0  0  0  0  0  0  0  0  0  0  0  0
  -24.6652  -11.6682   20.7817 C   0  0  0  0  0  0  0  0  0  0  0  0
  -25.3832  -13.7374   20.5877 C   0  0  0  0  0  0  0  0  0  0  0  0
  -30.2786  -19.8326   25.2205 C   0  0  0  0  0  0  0  0  0  0  0  0
  -22.9429  -13.5521   21.0967 C   0  0  0  0  0  0  0  0  0  0  0  0
  -25.8821  -27.3402   24.0720 C   0  0  0  0  0  0  0  0  0  0  0  0
  -28.2500  -27.9528   21.9412 C   0  0  0  0  0  0  0  0  0  0  0  0
  -30.6968  -26.0427   20.1022 C   0  0  0  0  0  0  0  0  0  0  0  0
  -31.2115  -12.5619   21.2950 C   0  0  0  0  0  0  0  0  0  0  0  0
  -22.3963  -30.0236   26.6616 C   0  0  0  0  0  0  0  0  0  0  0  0
  -27.9360  -26.8235   25.4397 C   0  0  0  0  0  0  0  0  0  0  0  0
  -28.0578  -25.5748   22.7619 C   0  0  0  0  0  0  0  0  0  0  0  0
  -23.1683  -30.2080   25.3576 C   0  0  0  0  0  0  0  0  0  0  0  0
  -30.2259  -19.2185   22.3324 C   0  0  0  0  0  0  0  0  0  0  0  0
  -29.5620  -13.4702   18.2732 C   0  0  0  0  0  0  0  0  0  0  0  0
  -23.0862  -28.9454   24.5055 C   0  0  0  0  0  0  0  0  0  0  0  0
  -29.0411  -19.8526   23.0588 C   0  0  0  0  0  0  0  0  0  0  0  0
  -28.0821  -13.2325   18.5786 C   0  0  0  0  0  0  0  0  0  0  0  0
  -31.5106  -19.2288   23.1560 C   0  0  0  0  0  0  0  0  0  0  0  0
  -30.4513  -12.4239   18.9413 C   0  0  0  0  0  0  0  0  0  0  0  0
  -28.7686  -12.0379   20.7001 C   0  0  0  0  0  0  0  0  0  0  0  0
  -23.7176  -27.7497   25.2287 C   0  0  1  0  0  0  0  0  0  0  0  0
  -29.4764  -20.6923   24.2530 C   0  0  1  0  0  0  0  0  0  1  0  0
  -27.3685  -27.5157   24.2043 C   0  0  1  0  0  0  0  0  0  0  0  0
  -27.8363  -13.1008   20.0937 C   0  0  2  0  0  0  0  0  0  0  0  0
  -32.9459  -26.7040   19.2069 C   0  0  0  0  0  0  0  0  0  0  0  0
  -26.7290  -28.5377   19.3616 C   0  0  0  0  0  0  0  0  0  0  0  0
  -28.6782  -27.6199   18.0863 C   0  0  0  0  0  0  0  0  0  0  0  0
  -28.9692  -29.6375   19.5240 C   0  0  0  0  0  0  0  0  0  0  0  0
  -32.0454  -23.8291   21.5306 C   0  0  0  0  0  0  0  0  0  0  0  0
  -32.1599  -18.2148   25.3400 C   0  0  0  0  0  0  0  0  0  0  0  0
  -31.8175  -12.6807   23.6987 C   0  0  0  0  0  0  0  0  0  0  0  0
  -28.6666  -27.3747   20.6103 C   0  0  1  0  0  0  0  0  0  0  0  0
  -32.1961  -26.0189   20.3388 C   0  0  2  0  0  0  0  0  0  0  0  0
  -28.2475  -28.2766   19.4152 C   0  0  0  0  0  0  0  0  0  0  0  0
  -25.9683  -11.5465   20.5146 N   0  0  0  0  0  0  0  0  0  0  0  0
  -26.3769  -12.8218   20.4019 N   0  0  0  0  0  0  0  0  0  0  0  0
  -31.2561  -19.0642   24.5825 N   0  0  0  0  0  0  0  0  0  0  0  0
  -27.9682  -27.0310   22.9594 N   0  0  0  0  0  0  0  0  0  0  0  0
  -30.1697  -12.3499   20.3770 N   0  0  0  0  0  0  0  0  0  0  0  0
  -25.6208  -15.0640   20.5096 N   0  0  0  0  0  0  0  0  0  0  0  0
  -21.8852  -12.6640   21.3351 N   0  0  0  0  0  0  0  0  0  0  0  0
  -25.1612  -27.8165   25.1503 N   0  0  0  0  0  0  0  0  0  0  0  0
  -30.1024  -27.1328   20.7018 N   0  0  0  0  0  0  0  0  0  0  0  0
  -30.8575  -12.4802   22.6361 N   0  0  0  0  0  0  0  0  0  0  0  0
  -32.6821  -24.6139   20.4418 N   0  3  0  0  0  0  0  0  0  0  0  0
  -30.0701  -19.8463   26.4323 O   0  0  0  0  0  0  0  0  0  0  0  0
  -22.7203  -14.7866   21.0987 O   0  0  0  0  0  0  0  0  0  0  0  0
  -25.4232  -26.8131   23.0654 O   0  0  0  0  0  0  0  0  0  0  0  0
  -28.1843  -29.1774   22.0747 O   0  0  0  0  0  0  0  0  0  0  0  0
  -30.1120  -25.1824   19.4477 O   0  0  0  0  0  0  0  0  0  0  0  0
  -32.3702  -12.8113   20.9452 O   0  0  0  0  0  0  0  0  0  0  0  0
  -21.5176   -7.1083   21.5348 O   0  0  0  0  0  0  0  0  0  0  0  0
  -28.3369  -21.1961   24.9269 O   0  0  0  0  0  0  0  0  0  1  0  0
  -20.0218   -5.8581   26.6926 F   0  0  0  0  0  0  0  0  0  0  0  0
  -22.2452   -4.6987   22.6780 F   0  0  0  0  0  0  0  0  0  0  0  0
  -34.4455  -17.1462   23.6203 Cl  0  0  0  0  0  0  0  0  0  0  0  0
  -29.7114  -16.6507   26.2789 Cl  0  0  0  0  0  0  0  0  0  0  0  0
  1  2  1  0  0  0  0
  1  5  2  0  0  0  0
  2  6  2  0  0  0  0
  3  8  2  0  0  0  0
  3 17  1  0  0  0  0
  4  9  1  0  0  0  0
  4 17  2  0  0  0  0
  5 19  1  0  0  0  0
  6 21  1  0  0  0  0
  7 10  2  0  0  0  0
  7 20  1  0  0  0  0
  8 25  1  0  0  0  0
  9 25  2  0  0  0  0
 10 26  1  0  0  0  0
 11 12  2  0  0  0  0
 11 27  1  0  0  0  0
 12 28  1  0  0  0  0
 13 22  1  0  0  0  0
 13 26  2  0  0  0  0
 14 23  1  0  0  0  0
 14 30  2  0  0  0  0
 15 23  2  0  0  0  0
 15 31  1  0  0  0  0
 16 28  2  0  0  0  0
 16 29  1  0  0  0  0
 17 32  1  0  0  0  0
 18 32  1  0  0  0  0
 18 33  2  0  0  0  0
 18 35  1  0  0  0  0
 19 21  2  0  0  0  0
 19 40  1  0  0  0  0
 20 22  2  0  0  0  0
 20 41  1  0  0  0  0
 21 52  1  0  0  0  0
 22 42  1  0  0  0  0
 23 62  1  0  0  0  0
 24 30  1  0  0  0  0
 24 31  2  0  0  0  0
 24 61  1  0  0  0  0
 25 83  1  0  0  0  0
 26 84  1  0  0  0  0
 27 29  2  0  0  0  0
 27 83  1  0  0  0  0
 28 85  1  0  0  0  0
 29 86  1  0  0  0  0
 30 87  1  0  0  0  0
 31 88  1  0  0  0  0
 32 66  2  0  0  0  0
 33 67  1  0  0  0  0
 33 71  1  0  0  0  0
 34 53  1  0  0  0  0
 34 68  1  0  0  0  0
 34 77  2  0  0  0  0
 35 72  1  0  0  0  0
 35 78  2  0  0  0  0
 36 54  1  0  0  0  0
 36 73  1  0  0  0  0
 36 79  2  0  0  0  0
 37 63  1  0  0  0  0
 37 69  1  0  0  0  0
 37 80  2  0  0  0  0
 38 64  1  0  0  0  0
 38 74  1  0  0  0  0
 38 81  2  0  0  0  0
 39 70  1  0  0  0  0
 39 75  1  0  0  0  0
 39 82  2  0  0  0  0
 40 43  1  0  0  0  0
 41 54  1  0  0  0  0
 42 69  1  0  0  0  0
 43 46  1  0  0  0  0
 44 47  1  0  0  0  0
 44 49  1  0  0  0  0
 45 48  1  0  0  0  0
 45 50  1  0  0  0  0
 46 52  1  0  0  0  0
 47 53  1  0  0  0  0
 48 55  1  0  0  0  0
 49 68  1  0  0  0  0
 50 70  1  0  0  0  0
 51 55  1  0  0  0  0
 51 70  1  0  0  0  0
 52 73  1  0  0  0  0
 53 84  1  0  0  0  0
 54 69  1  0  0  0  0
 55 67  1  0  0  0  0
 56 64  1  0  0  0  0
 57 65  1  0  0  0  0
 58 65  1  0  0  0  0
 59 65  1  0  0  0  0
 60 76  1  0  0  0  0
 61 68  1  0  0  0  0
 62 75  1  0  0  0  0
 63 65  1  0  0  0  0
 63 74  1  0  0  0  0
 64 76  1  0  0  0  0
 66 67  1  0  0  0  0
M  CHG  1  76   1
M  ISO  4  39 100  53 101  75 100  84 101
M  END
> <Batch ID>
0046

> <Smiles>
CNC(C)C(=O)NC(C(=O)N1Cc2cc([101O:1][101CH:1]3CCCN(Cc4c(Cl)cc(C[100NH:0][100C:0](=O)N5CCCC(n6nc(-c7ccc(Oc8ccc(F)cc8F)cc7)c(C(N)=O)c6N)C5)cc4Cl)C3=O)ccc2CC1C(=O)NC1CCCc2ccccc21)C(C)(C)C

> <Shape>
0.209

> <Color>
0.185

> <Negative vol penalty>
0.000

$$$$

  -OEChem-04042322233D

 87 96  0     1  0  0  0  0  0999 V2000
  -23.6470   -6.0976   23.8005 C   0  0  0  0  0  0  0  0  0  0  0  0
  -24.9381   -6.4736   23.4439 C   0  0  0  0  0  0  0  0  0  0  0  0
  -22.8365  -28.0483   22.9632 C   0  0  0  0  0  0  0  0  0  0  0  0
  -23.5829  -30.2031   22.1651 C   0  0  0  0  0  0  0  0  0  0  0  0
  -22.5525   -6.7847   23.2772 C   0  0  0  0  0  0  0  0  0  0  0  0
  -25.1354   -7.5363   22.5629 C   0  0  0  0  0  0  0  0  0  0  0  0
  -29.3029  -14.0807   23.4735 C   0  0  0  0  0  0  0  0  0  0  0  0
  -31.0525  -23.6390   18.6941 C   0  0  0  0  0  0  0  0  0  0  0  0
  -21.5306  -28.3607   22.5855 C   0  0  0  0  0  0  0  0  0  0  0  0
  -22.2769  -30.5155   21.7875 C   0  0  0  0  0  0  0  0  0  0  0  0
  -29.8773  -15.3478   23.5760 C   0  0  0  0  0  0  0  0  0  0  0  0
  -18.9617  -30.1973   23.7903 C   0  0  0  0  0  0  0  0  0  0  0  0
  -17.9395  -29.9073   24.6940 C   0  0  0  0  0  0  0  0  0  0  0  0
  -31.3484  -22.3441   18.2684 C   0  0  0  0  0  0  0  0  0  0  0  0
  -28.2904  -16.2092   21.9674 C   0  0  0  0  0  0  0  0  0  0  0  0
  -28.9361  -22.8683   19.5680 C   0  0  0  0  0  0  0  0  0  0  0  0
  -16.9157  -28.4445   23.0665 C   0  0  0  0  0  0  0  0  0  0  0  0
  -23.8627  -28.9695   22.7530 C   0  0  0  0  0  0  0  0  0  0  0  0
  -25.6716  -28.3393   24.4377 C   0  0  0  0  0  0  0  0  0  0  0  0
  -22.7367   -7.8625   22.3969 C   0  0  0  0  0  0  0  0  0  0  0  0
  -28.2089  -13.8763   22.6280 C   0  0  0  0  0  0  0  0  0  0  0  0
  -24.0422   -8.2376   22.0263 C   0  0  0  0  0  0  0  0  0  0  0  0
  -27.7030  -14.9450   21.8699 C   0  0  0  0  0  0  0  0  0  0  0  0
  -29.2319  -21.5733   19.1423 C   0  0  0  0  0  0  0  0  0  0  0  0
  -29.8464  -23.9011   19.3440 C   0  0  0  0  0  0  0  0  0  0  0  0
  -21.2508  -29.5943   21.9977 C   0  0  0  0  0  0  0  0  0  0  0  0
  -29.3725  -16.4094   22.8246 C   0  0  0  0  0  0  0  0  0  0  0  0
  -18.9608  -29.6110   22.5246 C   0  0  0  0  0  0  0  0  0  0  0  0
  -16.9165  -29.0309   24.3321 C   0  0  0  0  0  0  0  0  0  0  0  0
  -17.9378  -28.7346   22.1627 C   0  0  0  0  0  0  0  0  0  0  0  0
  -30.4381  -21.3113   18.4925 C   0  0  0  0  0  0  0  0  0  0  0  0
  -25.2118  -28.6476   23.1434 C   0  0  0  0  0  0  0  0  0  0  0  0
  -27.0168  -28.1118   24.2791 C   0  0  0  0  0  0  0  0  0  0  0  0
  -29.0884  -19.0654   21.2253 C   0  0  0  0  0  0  0  0  0  0  0  0
  -24.9474  -28.2650   25.6730 C   0  0  0  0  0  0  0  0  0  0  0  0
  -25.6702  -11.4682   21.2744 C   0  0  0  0  0  0  0  0  0  0  0  0
  -24.2074  -14.1180   21.7736 C   0  0  0  0  0  0  0  0  0  0  0  0
  -22.8837  -17.0696   22.8569 C   0  0  0  0  0  0  0  0  0  0  0  0
  -30.3400  -26.3544   19.6345 C   0  0  0  0  0  0  0  0  0  0  0  0
  -21.5215   -8.5445   21.8201 C   0  0  0  0  0  0  0  0  0  0  0  0
  -27.5974  -12.5145   22.4397 C   0  0  0  0  0  0  0  0  0  0  0  0
  -26.5468  -14.6706   20.9475 C   0  0  0  0  0  0  0  0  0  0  0  0
  -21.8269   -9.8989   21.1855 C   0  0  0  0  0  0  0  0  0  0  0  0
  -28.5512  -20.9914   23.8709 C   0  0  0  0  0  0  0  0  0  0  0  0
  -27.9627  -21.6989   22.6544 C   0  0  0  0  0  0  0  0  0  0  0  0
  -30.7242  -29.3539   21.5139 C   0  0  0  0  0  0  0  0  0  0  0  0
  -23.0560   -9.8027   20.2874 C   0  0  0  0  0  0  0  0  0  0  0  0
  -29.6080  -19.9394   23.5487 C   0  0  0  0  0  0  0  0  0  0  0  0
  -29.3984  -29.4819   22.2675 C   0  0  0  0  0  0  0  0  0  0  0  0
  -27.2720  -20.7539   21.6784 C   0  0  0  0  0  0  0  0  0  0  0  0
  -30.5258  -28.7864   20.1095 C   0  0  0  0  0  0  0  0  0  0  0  0
  -28.4519  -27.6521   20.8036 C   0  0  0  0  0  0  0  0  0  0  0  0
  -24.2976   -9.4009   21.0927 C   0  0  1  0  0  0  0  0  0  0  0  0
  -29.0808  -18.7670   22.7217 C   0  0  2  0  0  0  0  0  0  1  0  0
  -26.0749  -12.5620   22.2185 C   0  0  1  0  0  0  0  0  0  0  0  0
  -28.6083  -28.1587   22.2467 C   0  0  2  0  0  0  0  0  0  0  0  0
  -20.7136  -18.3221   22.9953 C   0  0  0  0  0  0  0  0  0  0  0  0
  -24.3891  -14.7546   18.7961 C   0  0  0  0  0  0  0  0  0  0  0  0
  -22.8458  -16.6868   19.1873 C   0  0  0  0  0  0  0  0  0  0  0  0
  -22.0679  -14.3601   19.6392 C   0  0  0  0  0  0  0  0  0  0  0  0
  -22.9967  -17.1704   25.8126 C   0  0  0  0  0  0  0  0  0  0  0  0
  -28.2261  -20.4895   19.4024 C   0  0  0  0  0  0  0  0  0  0  0  0
  -23.7412  -15.4329   21.2015 C   0  0  1  0  0  0  0  0  0  0  0  0
  -21.6652  -17.3747   23.7093 C   0  0  2  0  0  0  0  0  0  0  0  0
  -23.2855  -15.3064   19.7204 C   0  0  0  0  0  0  0  0  0  0  0  0
  -26.1858  -28.6196   22.2299 N   0  0  0  0  0  0  0  0  0  0  0  0
  -27.2711  -28.2911   22.9512 N   0  0  0  0  0  0  0  0  0  0  0  0
  -28.2227  -20.0722   20.7988 N   0  0  0  0  0  0  0  0  0  0  0  0
  -25.5634  -13.8058   21.6181 N   0  0  0  0  0  0  0  0  0  0  0  0
  -29.7737  -27.5312   20.1686 N   0  0  0  0  0  0  0  0  0  0  0  0
  -27.9951  -27.7781   25.1474 N   0  0  0  0  0  0  0  0  0  0  0  0
  -23.5709  -28.5281   25.6573 N   0  0  0  0  0  0  0  0  0  0  0  0
  -29.5466  -25.2165   19.7772 N   0  0  0  0  0  0  0  0  0  0  0  0
  -24.8127  -10.5364   21.8274 N   0  0  0  0  0  0  0  0  0  0  0  0
  -22.7077  -15.9275   22.1046 N   0  0  0  0  0  0  0  0  0  0  0  0
  -22.0774  -18.0039   24.9958 N   0  3  0  0  0  0  0  0  0  0  0  0
  -29.8315  -18.4379   20.4662 O   0  0  0  0  0  0  0  0  0  0  0  0
  -25.5076  -27.9901   26.7612 O   0  0  0  0  0  0  0  0  0  0  0  0
  -26.1022  -11.4694   20.1277 O   0  0  0  0  0  0  0  0  0  0  0  0
  -23.3924  -13.3833   22.3386 O   0  0  0  0  0  0  0  0  0  0  0  0
  -23.8895  -17.7759   22.8556 O   0  0  0  0  0  0  0  0  0  0  0  0
  -31.4589  -26.3506   19.1148 O   0  0  0  0  0  0  0  0  0  0  0  0
  -19.9767  -29.8994   21.6288 O   0  0  0  0  0  0  0  0  0  0  0  0
  -29.9352  -17.6448   22.9330 O   0  0  0  0  0  0  0  0  0  1  0  0
  -15.9359  -28.7512   25.2006 F   0  0  0  0  0  0  0  0  0  0  0  0
  -17.9322  -28.1673   20.9486 F   0  0  0  0  0  0  0  0  0  0  0  0
  -30.8393  -19.7219   17.9520 Cl  0  0  0  0  0  0  0  0  0  0  0  0
  1  2  1  0  0  0  0
  1  5  2  0  0  0  0
  2  6  2  0  0  0  0
  3  9  2  0  0  0  0
  3 18  1  0  0  0  0
  4 10  1  0  0  0  0
  4 18  2  0  0  0  0
  5 20  1  0  0  0  0
  6 22  1  0  0  0  0
  7 11  2  0  0  0  0
  7 21  1  0  0  0  0
  8 14  2  0  0  0  0
  8 25  1  0  0  0  0
  9 26  1  0  0  0  0
 10 26  2  0  0  0  0
 11 27  1  0  0  0  0
 12 13  2  0  0  0  0
 12 28  1  0  0  0  0
 13 29  1  0  0  0  0
 14 31  1  0  0  0  0
 15 23  1  0  0  0  0
 15 27  2  0  0  0  0
 16 24  1  0  0  0  0
 16 25  2  0  0  0  0
 17 29  2  0  0  0  0
 17 30  1  0  0  0  0
 18 32  1  0  0  0  0
 19 32  1  0  0  0  0
 19 33  2  0  0  0  0
 19 35  1  0  0  0  0
 20 22  2  0  0  0  0
 20 40  1  0  0  0  0
 21 23  2  0  0  0  0
 21 41  1  0  0  0  0
 22 53  1  0  0  0  0
 23 42  1  0  0  0  0
 24 31  2  0  0  0  0
 24 62  1  0  0  0  0
 25 73  1  0  0  0  0
 26 83  1  0  0  0  0
 27 84  1  0  0  0  0
 28 30  2  0  0  0  0
 28 83  1  0  0  0  0
 29 85  1  0  0  0  0
 30 86  1  0  0  0  0
 31 87  1  0  0  0  0
 32 66  2  0  0  0  0
 33 67  1  0  0  0  0
 33 71  1  0  0  0  0
 34 54  1  0  0  0  0
 34 68  1  0  0  0  0
 34 77  2  0  0  0  0
 35 72  1  0  0  0  0
 35 78  2  0  0  0  0
 36 55  1  0  0  0  0
 36 74  1  0  0  0  0
 36 79  2  0  0  0  0
 37 63  1  0  0  0  0
 37 69  1  0  0  0  0
 37 80  2  0  0  0  0
 38 64  1  0  0  0  0
 38 75  1  0  0  0  0
 38 81  2  0  0  0  0
 39 70  1  0  0  0  0
 39 73  1  0  0  0  0
 39 82  2  0  0  0  0
 40 43  1  0  0  0  0
 41 55  1  0  0  0  0
 42 69  1  0  0  0  0
 43 47  1  0  0  0  0
 44 45  1  0  0  0  0
 44 48  1  0  0  0  0
 45 50  1  0  0  0  0
 46 49  1  0  0  0  0
 46 51  1  0  0  0  0
 47 53  1  0  0  0  0
 48 54  1  0  0  0  0
 49 56  1  0  0  0  0
 50 68  1  0  0  0  0
 51 70  1  0  0  0  0
 52 56  1  0  0  0  0
 52 70  1  0  0  0  0
 53 74  1  0  0  0  0
 54 84  1  0  0  0  0
 55 69  1  0  0  0  0
 56 67  1  0  0  0  0
 57 64  1  0  0  0  0
 58 65  1  0  0  0  0
 59 65  1  0  0  0  0
 60 65  1  0  0  0  0
 61 76  1  0  0  0  0
 62 68  1  0  0  0  0
 63 65  1  0  0  0  0
 63 75  1  0  0  0  0
 64 76  1  0  0  0  0
 66 67  1  0  0  0  0
M  CHG  1  76   1
M  ISO  4  39 100  54 101  73 100  84 101
M  END
> <Batch ID>
0046

> <Smiles>
CNC(C)C(=O)NC(C(=O)N1Cc2cc([101O:1][101CH:1]3CCCCN(Cc4cc([100NH:0][100C:0](=O)N5CCCC(n6nc(-c7ccc(Oc8ccc(F)cc8F)cc7)c(C(N)=O)c6N)C5)ccc4Cl)C3=O)ccc2CC1C(=O)NC1CCCc2ccccc21)C(C)(C)C

> <Shape>
0.271

> <Color>
0.059

> <Negative vol penalty>
0.000

$$$$

  -OEChem-04042322233D

 84 92  0     1  0  0  0  0  0999 V2000
  -28.3991  -24.3652   17.1817 C   0  0  0  0  0  0  0  0  0  0  0  0
  -27.1873  -24.5839   17.8293 C   0  0  0  0  0  0  0  0  0  0  0  0
  -28.8939  -16.4922   21.8740 C   0  0  0  0  0  0  0  0  0  0  0  0
  -26.7181  -17.0479   20.9829 C   0  0  0  0  0  0  0  0  0  0  0  0
  -29.5746  -24.9021   17.7049 C   0  0  0  0  0  0  0  0  0  0  0  0
  -27.1506  -25.3388   19.0011 C   0  0  0  0  0  0  0  0  0  0  0  0
  -23.3539  -28.6897   19.0352 C   0  0  0  0  0  0  0  0  0  0  0  0
  -21.0588  -21.3490   24.6941 C   0  0  0  0  0  0  0  0  0  0  0  0
  -20.2346  -21.1965   23.5792 C   0  0  0  0  0  0  0  0  0  0  0  0
  -28.7501  -15.1847   21.4098 C   0  0  0  0  0  0  0  0  0  0  0  0
  -26.5743  -15.7405   20.5187 C   0  0  0  0  0  0  0  0  0  0  0  0
  -22.0780  -28.2034   19.3171 C   0  0  0  0  0  0  0  0  0  0  0  0
  -25.7735  -12.7159   21.7999 C   0  0  0  0  0  0  0  0  0  0  0  0
  -24.5519  -12.0802   22.0216 C   0  0  0  0  0  0  0  0  0  0  0  0
  -22.2915  -28.9789   21.5914 C   0  0  0  0  0  0  0  0  0  0  0  0
  -21.5588  -23.6129   24.0149 C   0  0  0  0  0  0  0  0  0  0  0  0
  -24.2559  -11.8177   19.6382 C   0  0  0  0  0  0  0  0  0  0  0  0
  -27.8779  -17.4238   21.6606 C   0  0  0  0  0  0  0  0  0  0  0  0
  -28.5869  -19.8652   21.4497 C   0  0  0  0  0  0  0  0  0  0  0  0
  -29.5509  -25.6721   18.8785 C   0  0  0  0  0  0  0  0  0  0  0  0
  -24.1138  -29.3156   20.0339 C   0  0  0  0  0  0  0  0  0  0  0  0
  -28.3272  -25.8854   19.5412 C   0  0  0  0  0  0  0  0  0  0  0  0
  -23.5757  -29.4745   21.3189 C   0  0  0  0  0  0  0  0  0  0  0  0
  -21.7209  -22.5572   24.9120 C   0  0  0  0  0  0  0  0  0  0  0  0
  -20.0726  -22.2522   22.6821 C   0  0  0  0  0  0  0  0  0  0  0  0
  -20.7347  -23.4604   22.8999 C   0  0  0  0  0  0  0  0  0  0  0  0
  -27.5903  -14.8089   20.7322 C   0  0  0  0  0  0  0  0  0  0  0  0
  -21.5478  -28.3454   20.5961 C   0  0  0  0  0  0  0  0  0  0  0  0
  -26.2363  -12.9026   20.4973 C   0  0  0  0  0  0  0  0  0  0  0  0
  -23.7931  -11.6311   20.9408 C   0  0  0  0  0  0  0  0  0  0  0  0
  -25.4775  -12.4535   19.4165 C   0  0  0  0  0  0  0  0  0  0  0  0
  -28.0256  -18.7744   22.1403 C   0  0  0  0  0  0  0  0  0  0  0  0
  -28.4930  -20.9145   22.3310 C   0  0  0  0  0  0  0  0  0  0  0  0
  -29.1432  -19.9247   20.1296 C   0  0  0  0  0  0  0  0  0  0  0  0
  -26.8965  -28.7101   21.4458 C   0  0  0  0  0  0  0  0  0  0  0  0
  -18.8811  -25.9609   20.9910 C   0  0  0  0  0  0  0  0  0  0  0  0
  -26.3746  -31.5935   22.8370 C   0  0  0  0  0  0  0  0  0  0  0  0
  -24.1359  -33.9811   23.8039 C   0  0  0  0  0  0  0  0  0  0  0  0
  -24.8433  -22.0558   26.9383 C   0  0  0  0  0  0  0  0  0  0  0  0
  -30.8540  -26.1921   19.4319 C   0  0  0  0  0  0  0  0  0  0  0  0
  -25.4778  -29.8585   19.7067 C   0  0  0  0  0  0  0  0  0  0  0  0
  -24.3427  -30.1569   22.4210 C   0  0  0  0  0  0  0  0  0  0  0  0
  -30.6769  -27.2945   20.4729 C   0  0  0  0  0  0  0  0  0  0  0  0
  -28.3980  -21.8710   27.0179 C   0  0  0  0  0  0  0  0  0  0  0  0
  -29.6032  -26.9061   21.4844 C   0  0  0  0  0  0  0  0  0  0  0  0
  -28.7563  -21.1549   25.7145 C   0  0  0  0  0  0  0  0  0  0  0  0
  -27.1081  -21.3247   27.6258 C   0  0  0  0  0  0  0  0  0  0  0  0
  -26.3072  -20.5999   25.4107 C   0  0  0  0  0  0  0  0  0  0  0  0
  -28.2431  -26.7197   20.8010 C   0  0  1  0  0  0  0  0  0  0  0  0
  -26.3670  -30.0205   20.9357 C   0  0  1  0  0  0  0  0  0  0  0  0
  -27.5708  -21.1543   24.7308 C   0  0  2  0  0  0  0  0  0  0  0  0
  -19.1860  -22.0650   21.4948 C   0  0  0  0  0  0  0  0  0  0  0  0
  -17.4306  -26.3708   20.9004 C   0  0  0  0  0  0  0  0  0  0  0  0
  -24.0046  -36.2092   24.9509 C   0  0  0  0  0  0  0  0  0  0  0  0
  -26.7874  -30.2270   25.5337 C   0  0  0  0  0  0  0  0  0  0  0  0
  -25.7295  -32.2164   26.6252 C   0  0  0  0  0  0  0  0  0  0  0  0
  -27.8474  -32.4834   25.3344 C   0  0  0  0  0  0  0  0  0  0  0  0
  -22.9882  -35.2788   21.4044 C   0  0  0  0  0  0  0  0  0  0  0  0
  -20.5757  -24.6118   21.9467 C   0  0  0  0  0  0  0  0  0  0  0  0
  -22.6023  -22.7198   26.1039 C   0  0  0  0  0  0  0  0  0  0  0  0
  -19.8612  -26.7334   20.1345 C   0  0  0  0  0  0  0  0  0  1  0  0
  -25.6844  -32.0647   24.0942 C   0  0  1  0  0  0  0  0  0  0  0  0
  -24.1267  -35.4876   23.6178 C   0  0  2  0  0  0  0  0  0  0  0  0
  -26.4982  -31.7332   25.3769 C   0  0  0  0  0  0  0  0  0  0  0  0
  -27.6065  -19.1005   23.3659 N   0  0  0  0  0  0  0  0  0  0  0  0
  -19.1856  -25.0130   21.8102 N   0  0  0  0  0  0  0  0  0  0  0  0
  -27.9046  -20.4081   23.4523 N   0  0  0  0  0  0  0  0  0  0  0  0
  -25.6746  -30.6653   22.0533 N   0  0  0  0  0  0  0  0  0  0  0  0
  -26.0230  -21.3532   26.6421 N   0  0  0  0  0  0  0  0  0  0  0  0
  -28.8574  -22.2118   22.2484 N   0  0  0  0  0  0  0  0  0  0  0  0
  -29.1608  -18.7544   19.3587 N   0  0  0  0  0  0  0  0  0  0  0  0
  -27.6391  -28.0041   20.5186 N   0  0  0  0  0  0  0  0  0  0  0  0
  -25.4191  -33.4869   23.9058 N   0  0  0  0  0  0  0  0  0  0  0  0
  -23.8678  -22.0376   25.9490 N   0  0  0  0  0  0  0  0  0  0  0  0
  -22.9817  -35.8960   22.7557 N   0  3  0  0  0  0  0  0  0  0  0  0
  -29.6257  -20.9804   19.6541 O   0  0  0  0  0  0  0  0  0  0  0  0
  -26.6508  -28.3657   22.5959 O   0  0  0  0  0  0  0  0  0  0  0  0
  -27.4905  -32.0383   22.5568 O   0  0  0  0  0  0  0  0  0  0  0  0
  -23.1075  -33.3102   23.8576 O   0  0  0  0  0  0  0  0  0  0  0  0
  -24.6742  -22.6594   28.0033 O   0  0  0  0  0  0  0  0  0  0  0  0
  -27.4497  -13.5332   20.2789 O   0  0  0  0  0  0  0  0  0  0  0  0
  -20.3029  -27.8711   20.8741 O   0  0  0  0  0  0  0  0  0  1  0  0
  -22.6208  -11.0192   21.1539 F   0  0  0  0  0  0  0  0  0  0  0  0
  -25.9175  -12.6290   18.1629 F   0  0  0  0  0  0  0  0  0  0  0  0
  1  2  1  0  0  0  0
  1  5  2  0  0  0  0
  2  6  2  0  0  0  0
  3 10  2  0  0  0  0
  3 18  1  0  0  0  0
  4 11  1  0  0  0  0
  4 18  2  0  0  0  0
  5 20  1  0  0  0  0
  6 22  1  0  0  0  0
  7 12  2  0  0  0  0
  7 21  1  0  0  0  0
  8  9  2  0  0  0  0
  8 24  1  0  0  0  0
  9 25  1  0  0  0  0
 10 27  1  0  0  0  0
 11 27  2  0  0  0  0
 12 28  1  0  0  0  0
 13 14  2  0  0  0  0
 13 29  1  0  0  0  0
 14 30  1  0  0  0  0
 15 23  1  0  0  0  0
 15 28  2  0  0  0  0
 16 24  2  0  0  0  0
 16 26  1  0  0  0  0
 17 30  2  0  0  0  0
 17 31  1  0  0  0  0
 18 32  1  0  0  0  0
 19 32  1  0  0  0  0
 19 33  2  0  0  0  0
 19 34  1  0  0  0  0
 20 22  2  0  0  0  0
 20 40  1  0  0  0  0
 21 23  2  0  0  0  0
 21 41  1  0  0  0  0
 22 49  1  0  0  0  0
 23 42  1  0  0  0  0
 24 60  1  0  0  0  0
 25 26  2  0  0  0  0
 25 52  1  0  0  0  0
 26 59  1  0  0  0  0
 27 81  1  0  0  0  0
 28 82  1  0  0  0  0
 29 31  2  0  0  0  0
 29 81  1  0  0  0  0
 30 83  1  0  0  0  0
 31 84  1  0  0  0  0
 32 65  2  0  0  0  0
 33 67  1  0  0  0  0
 33 70  1  0  0  0  0
 34 71  1  0  0  0  0
 34 76  2  0  0  0  0
 35 50  1  0  0  0  0
 35 72  1  0  0  0  0
 35 77  2  0  0  0  0
 36 53  1  0  0  0  0
 36 61  1  0  0  0  0
 36 66  2  0  0  0  0
 37 62  1  0  0  0  0
 37 68  1  0  0  0  0
 37 78  2  0  0  0  0
 38 63  1  0  0  0  0
 38 73  1  0  0  0  0
 38 79  2  0  0  0  0
 39 69  1  0  0  0  0
 39 74  1  0  0  0  0
 39 80  2  0  0  0  0
 40 43  1  0  0  0  0
 41 50  1  0  0  0  0
 42 68  1  0  0  0  0
 43 45  1  0  0  0  0
 44 46  1  0  0  0  0
 44 47  1  0  0  0  0
 45 49  1  0  0  0  0
 46 51  1  0  0  0  0
 47 69  1  0  0  0  0
 48 51  1  0  0  0  0
 48 69  1  0  0  0  0
 49 72  1  0  0  0  0
 50 68  1  0  0  0  0
 51 67  1  0  0  0  0
 54 63  1  0  0  0  0
 55 64  1  0  0  0  0
 56 64  1  0  0  0  0
 57 64  1  0  0  0  0
 58 75  1  0  0  0  0
 59 66  1  0  0  0  0
 60 74  1  0  0  0  0
 61 82  1  0  0  0  0
 62 64  1  0  0  0  0
 62 73  1  0  0  0  0
 63 75  1  0  0  0  0
 65 67  1  0  0  0  0
M  CHG  1  75   1
M  ISO  4  39 100  61 101  74 100  82 101
M  END
> <Batch ID>
0046

> <Smiles>
C=C(NCc1cc(C[100NH:0][100C:0](=O)N2CCCC(n3nc(-c4ccc(Oc5ccc(F)cc5F)cc4)c(C(N)=O)c3N)C2)ccc1C)[101CH2:1][101O:1]c1ccc2c(c1)CN(C(=O)C(NC(=O)C(C)NC)C(C)(C)C)C(C(=O)NC1CCCc3ccccc31)C2

> <Shape>
0.290

> <Color>
0.082

> <Negative vol penalty>
0.000

$$$$

  -OEChem-04042322233D

 86 95  0     1  0  0  0  0  0999 V2000
  -29.4960  -35.2791   23.5278 C   0  0  0  0  0  0  0  0  0  0  0  0
  -29.4732  -33.9074   23.2965 C   0  0  0  0  0  0  0  0  0  0  0  0
  -22.5829  -11.8963   22.6115 C   0  0  0  0  0  0  0  0  0  0  0  0
  -22.2321  -13.9595   21.4044 C   0  0  0  0  0  0  0  0  0  0  0  0
  -28.3465  -35.9285   23.9761 C   0  0  0  0  0  0  0  0  0  0  0  0
  -28.3011  -33.1842   23.5145 C   0  0  0  0  0  0  0  0  0  0  0  0
  -27.3021  -29.9282   19.7668 C   0  0  0  0  0  0  0  0  0  0  0  0
  -21.3108  -12.0082   23.1724 C   0  0  0  0  0  0  0  0  0  0  0  0
  -20.9599  -14.0714   21.9653 C   0  0  0  0  0  0  0  0  0  0  0  0
  -28.0255  -28.7365   19.7489 C   0  0  0  0  0  0  0  0  0  0  0  0
  -18.1139  -11.4380   22.2301 C   0  0  0  0  0  0  0  0  0  0  0  0
  -17.3138  -10.2957   22.2552 C   0  0  0  0  0  0  0  0  0  0  0  0
  -26.1514  -27.5908   20.7460 C   0  0  0  0  0  0  0  0  0  0  0  0
  -27.2911  -21.0877   16.6297 C   0  0  0  0  0  0  0  0  0  0  0  0
  -26.8002  -18.7589   17.0454 C   0  0  0  0  0  0  0  0  0  0  0  0
  -28.5024  -19.8842   18.3389 C   0  0  0  0  0  0  0  0  0  0  0  0
  -17.2135  -10.4189   24.6660 C   0  0  0  0  0  0  0  0  0  0  0  0
  -23.0436  -12.8720   21.7275 C   0  0  0  0  0  0  0  0  0  0  0  0
  -24.8427  -11.7108   20.3409 C   0  0  0  0  0  0  0  0  0  0  0  0
  -27.1571  -35.2144   24.1904 C   0  0  0  0  0  0  0  0  0  0  0  0
  -25.9996  -29.9624   20.2853 C   0  0  0  0  0  0  0  0  0  0  0  0
  -27.1350  -33.8244   23.9674 C   0  0  0  0  0  0  0  0  0  0  0  0
  -25.4126  -28.7836   20.7670 C   0  0  0  0  0  0  0  0  0  0  0  0
  -26.5601  -19.9364   16.3371 C   0  0  0  0  0  0  0  0  0  0  0  0
  -28.2623  -21.0616   17.6306 C   0  0  0  0  0  0  0  0  0  0  0  0
  -27.7714  -18.7328   18.0463 C   0  0  0  0  0  0  0  0  0  0  0  0
  -20.4993  -13.0957   22.8494 C   0  0  0  0  0  0  0  0  0  0  0  0
  -27.4513  -27.5682   20.2412 C   0  0  0  0  0  0  0  0  0  0  0  0
  -18.4639  -12.0707   23.4230 C   0  0  0  0  0  0  0  0  0  0  0  0
  -16.8635   -9.7862   23.4731 C   0  0  0  0  0  0  0  0  0  0  0  0
  -18.0137  -11.5612   24.6409 C   0  0  0  0  0  0  0  0  0  0  0  0
  -24.3579  -12.7573   21.1481 C   0  0  0  0  0  0  0  0  0  0  0  0
  -26.1358  -12.0717   20.0508 C   0  0  0  0  0  0  0  0  0  0  0  0
  -29.6651  -23.8080   19.7400 C   0  0  0  0  0  0  0  0  0  0  0  0
  -30.3671  -23.3606   20.7921 C   0  0  0  0  0  0  0  0  0  0  0  0
  -24.1832  -10.5190   19.8934 C   0  0  0  0  0  0  0  0  0  0  0  0
  -24.5866  -31.4666   22.7029 C   0  0  0  0  0  0  0  0  0  0  0  0
  -21.9037  -30.1454   21.4463 C   0  0  0  0  0  0  0  0  0  0  0  0
  -20.9453  -26.9643   20.0394 C   0  0  0  0  0  0  0  0  0  0  0  0
  -28.9423  -17.3405   19.7889 C   0  0  0  0  0  0  0  0  0  0  0  0
  -25.9531  -35.9520   24.7206 C   0  0  0  0  0  0  0  0  0  0  0  0
  -25.2227  -31.2503   20.2729 C   0  0  0  0  0  0  0  0  0  0  0  0
  -24.0101  -28.7629   21.3157 C   0  0  0  0  0  0  0  0  0  0  0  0
  -29.9009  -25.1563   19.1094 C   0  0  0  0  0  0  0  0  0  0  0  0
  -24.6476  -35.1756   24.5686 C   0  0  0  0  0  0  0  0  0  0  0  0
  -29.8188  -14.5602   21.8332 C   0  0  0  0  0  0  0  0  0  0  0  0
  -24.8289  -33.7315   25.0252 C   0  0  0  0  0  0  0  0  0  0  0  0
  -28.5641  -13.6842   21.8111 C   0  0  0  0  0  0  0  0  0  0  0  0
  -27.4879  -25.0436   18.3581 C   0  0  0  0  0  0  0  0  0  0  0  0
  -29.4716  -16.0479   21.8441 C   0  0  0  0  0  0  0  0  0  0  0  0
  -27.3074  -15.6050   20.7536 C   0  0  0  0  0  0  0  0  0  0  0  0
  -27.3204  -23.7320   19.1239 C   0  0  0  0  0  0  0  0  0  0  0  0
  -25.8759  -33.0094   24.1685 C   0  0  1  0  0  0  0  0  0  0  0  0
  -24.0921  -31.2759   21.2969 C   0  0  1  0  0  0  0  0  0  0  0  0
  -27.6071  -14.0990   20.6764 C   0  0  2  0  0  0  0  0  0  0  0  0
  -28.5875  -25.9231   18.9531 C   0  0  1  0  0  0  0  0  0  1  0  0
  -25.5218  -19.9643   15.2668 C   0  0  0  0  0  0  0  0  0  0  0  0
  -19.1640  -26.3898   18.3678 C   0  0  0  0  0  0  0  0  0  0  0  0
  -20.1771  -29.6085   23.9040 C   0  0  0  0  0  0  0  0  0  0  0  0
  -19.1822  -27.6564   22.6925 C   0  0  0  0  0  0  0  0  0  0  0  0
  -18.8955  -29.9626   21.7859 C   0  0  0  0  0  0  0  0  0  0  0  0
  -22.8898  -25.6278   18.2530 C   0  0  0  0  0  0  0  0  0  0  0  0
  -29.0484  -22.3001   17.9454 C   0  0  0  0  0  0  0  0  0  0  0  0
  -21.1594  -28.8465   21.6412 C   0  0  1  0  0  0  0  0  0  0  0  0
  -20.6435  -26.6694   18.5812 C   0  0  2  0  0  0  0  0  0  0  0  0
  -19.8817  -29.0203   22.5098 C   0  0  0  0  0  0  0  0  0  0  0  0
  -25.2688  -13.7114   21.3574 N   0  0  0  0  0  0  0  0  0  0  0  0
  -26.3390  -13.2658   20.6776 N   0  0  0  0  0  0  0  0  0  0  0  0
  -23.2934  -30.0486   21.2879 N   0  0  0  0  0  0  0  0  0  0  0  0
  -28.5654  -16.3679   20.7391 N   0  0  0  0  0  0  0  0  0  0  0  0
  -27.1074  -11.4810   19.3231 N   0  0  0  0  0  0  0  0  0  0  0  0
  -22.8543  -10.3040   20.2836 N   0  0  0  0  0  0  0  0  0  0  0  0
  -28.0152  -17.5368   18.7659 N   0  0  0  0  0  0  0  0  0  0  0  0
  -25.3094  -32.6289   22.8923 N   0  0  0  0  0  0  0  0  0  0  0  0
  -20.9065  -28.3166   20.3056 N   0  0  0  0  0  0  0  0  0  0  0  0
  -28.6168  -22.9627   19.2244 N   0  3  1  0  0  0  0  0  0  0  0  0
  -21.4173  -25.4814   18.1220 N   0  3  0  0  0  0  0  0  0  0  0  0
  -24.7605   -9.6618   19.1824 O   0  0  0  0  0  0  0  0  0  0  0  0
  -24.3300  -30.6224   23.5533 O   0  0  0  0  0  0  0  0  0  0  0  0
  -21.2743  -31.2062   21.4279 O   0  0  0  0  0  0  0  0  0  0  0  0
  -21.1873  -26.0828   20.8610 O   0  0  0  0  0  0  0  0  0  0  0  0
  -30.0212  -17.9345   19.8612 O   0  0  0  0  0  0  0  0  0  0  0  0
  -19.2577  -13.2050   23.3964 O   0  0  0  0  0  0  0  0  0  0  0  0
  -28.1555  -26.4038   20.2255 O   0  0  0  0  0  0  0  0  0  1  0  0
  -16.0939   -8.6902   23.4969 F   0  0  0  0  0  0  0  0  0  0  0  0
  -18.3456  -12.1653   25.7901 F   0  0  0  0  0  0  0  0  0  0  0  0
  1  2  1  0  0  0  0
  1  5  2  0  0  0  0
  2  6  2  0  0  0  0
  3  8  2  0  0  0  0
  3 18  1  0  0  0  0
  4  9  1  0  0  0  0
  4 18  2  0  0  0  0
  5 20  1  0  0  0  0
  6 22  1  0  0  0  0
  7 10  2  0  0  0  0
  7 21  1  0  0  0  0
  8 27  1  0  0  0  0
  9 27  2  0  0  0  0
 10 28  1  0  0  0  0
 11 12  2  0  0  0  0
 11 29  1  0  0  0  0
 12 30  1  0  0  0  0
 13 23  1  0  0  0  0
 13 28  2  0  0  0  0
 14 24  2  0  0  0  0
 14 25  1  0  0  0  0
 15 24  1  0  0  0  0
 15 26  2  0  0  0  0
 16 25  2  0  0  0  0
 16 26  1  0  0  0  0
 17 30  2  0  0  0  0
 17 31  1  0  0  0  0
 18 32  1  0  0  0  0
 19 32  1  0  0  0  0
 19 33  2  0  0  0  0
 19 36  1  0  0  0  0
 20 22  2  0  0  0  0
 20 41  1  0  0  0  0
 21 23  2  0  0  0  0
 21 42  1  0  0  0  0
 22 53  1  0  0  0  0
 23 43  1  0  0  0  0
 24 57  1  0  0  0  0
 25 63  1  0  0  0  0
 26 73  1  0  0  0  0
 27 83  1  0  0  0  0
 28 84  1  0  0  0  0
 29 31  2  0  0  0  0
 29 83  1  0  0  0  0
 30 85  1  0  0  0  0
 31 86  1  0  0  0  0
 32 67  2  0  0  0  0
 33 68  1  0  0  0  0
 33 71  1  0  0  0  0
 34 35  2  0  0  0  0
 34 44  1  0  0  0  0
 34 76  1  0  0  0  0
 36 72  1  0  0  0  0
 36 78  2  0  0  0  0
 37 54  1  0  0  0  0
 37 74  1  0  0  0  0
 37 79  2  0  0  0  0
 38 64  1  0  0  0  0
 38 69  1  0  0  0  0
 38 80  2  0  0  0  0
 39 65  1  0  0  0  0
 39 75  1  0  0  0  0
 39 81  2  0  0  0  0
 40 70  1  0  0  0  0
 40 73  1  0  0  0  0
 40 82  2  0  0  0  0
 41 45  1  0  0  0  0
 42 54  1  0  0  0  0
 43 69  1  0  0  0  0
 44 56  1  0  0  0  0
 45 47  1  0  0  0  0
 46 48  1  0  0  0  0
 46 50  1  0  0  0  0
 47 53  1  0  0  0  0
 48 55  1  0  0  0  0
 49 52  1  0  0  0  0
 49 56  1  0  0  0  0
 50 70  1  0  0  0  0
 51 55  1  0  0  0  0
 51 70  1  0  0  0  0
 52 76  1  0  0  0  0
 53 74  1  0  0  0  0
 54 69  1  0  0  0  0
 55 68  1  0  0  0  0
 56 84  1  0  0  0  0
 58 65  1  0  0  0  0
 59 66  1  0  0  0  0
 60 66  1  0  0  0  0
 61 66  1  0  0  0  0
 62 77  1  0  0  0  0
 63 76  1  0  0  0  0
 64 66  1  0  0  0  0
 64 75  1  0  0  0  0
 65 77  1  0  0  0  0
 67 68  1  0  0  0  0
M  CHG  2  76   1  77   1
M  ISO  4  40 100  56 101  73 100  84 101
M  END
> <Batch ID>
0046

> <Smiles>
C=C1C[101CH:1]([101O:1]c2ccc3c(c2)CN(C(=O)C(NC(=O)C(C)NC)C(C)(C)C)C(C(=O)NC2CCCc4ccccc42)C3)CCN1Cc1cc(C)cc([100NH:0][100C:0](=O)N2CCCC(n3nc(-c4ccc(Oc5ccc(F)cc5F)cc4)c(C(N)=O)c3N)C2)c1

> <Shape>
0.303

> <Color>
0.081

> <Negative vol penalty>
0.000

$$$$

  -OEChem-04042322233D

 87 96  0     1  0  0  0  0  0999 V2000
  -16.8652  -28.4234   23.7854 C   0  0  0  0  0  0  0  0  0  0  0  0
  -17.7883  -27.8944   22.8891 C   0  0  0  0  0  0  0  0  0  0  0  0
  -26.6810  -12.3685   21.6089 C   0  0  0  0  0  0  0  0  0  0  0  0
  -25.6992  -13.9600   20.0791 C   0  0  0  0  0  0  0  0  0  0  0  0
  -16.9472  -29.7642   24.1588 C   0  0  0  0  0  0  0  0  0  0  0  0
  -18.7935  -28.7063   22.3648 C   0  0  0  0  0  0  0  0  0  0  0  0
  -23.3262  -26.4482   22.3908 C   0  0  0  0  0  0  0  0  0  0  0  0
  -26.7299  -20.0978   15.0792 C   0  0  0  0  0  0  0  0  0  0  0  0
  -25.4407  -11.7487   21.7601 C   0  0  0  0  0  0  0  0  0  0  0  0
  -24.4588  -13.3401   20.2303 C   0  0  0  0  0  0  0  0  0  0  0  0
  -23.5747  -25.5078   21.3920 C   0  0  0  0  0  0  0  0  0  0  0  0
  -22.6096   -9.5260   22.2696 C   0  0  0  0  0  0  0  0  0  0  0  0
  -22.5714   -8.1324   22.2252 C   0  0  0  0  0  0  0  0  0  0  0  0
  -27.5983  -19.7812   14.0346 C   0  0  0  0  0  0  0  0  0  0  0  0
  -24.8177  -27.1621   20.1521 C   0  0  0  0  0  0  0  0  0  0  0  0
  -29.4805  -20.4342   15.4014 C   0  0  0  0  0  0  0  0  0  0  0  0
  -23.4763   -8.1789   19.9856 C   0  0  0  0  0  0  0  0  0  0  0  0
  -26.8103  -13.4743   20.7684 C   0  0  0  0  0  0  0  0  0  0  0  0
  -29.2796  -13.5343   20.1307 C   0  0  0  0  0  0  0  0  0  0  0  0
  -17.9597  -30.5905   23.6462 C   0  0  0  0  0  0  0  0  0  0  0  0
  -23.8130  -27.7579   22.2724 C   0  0  0  0  0  0  0  0  0  0  0  0
  -18.8883  -30.0598   22.7306 C   0  0  0  0  0  0  0  0  0  0  0  0
  -24.5761  -28.1166   21.1520 C   0  0  0  0  0  0  0  0  0  0  0  0
  -27.2367  -20.5826   16.2850 C   0  0  0  0  0  0  0  0  0  0  0  0
  -28.6120  -20.7508   16.4460 C   0  0  0  0  0  0  0  0  0  0  0  0
  -24.3296  -12.2344   21.0708 C   0  0  0  0  0  0  0  0  0  0  0  0
  -24.3181  -25.8655   20.2711 C   0  0  0  0  0  0  0  0  0  0  0  0
  -23.0811  -10.2461   21.1720 C   0  0  0  0  0  0  0  0  0  0  0  0
  -23.0047   -7.4588   21.0832 C   0  0  0  0  0  0  0  0  0  0  0  0
  -23.5145   -9.5726   20.0300 C   0  0  0  0  0  0  0  0  0  0  0  0
  -28.9736  -19.9494   14.1957 C   0  0  0  0  0  0  0  0  0  0  0  0
  -28.0912  -14.1154   20.6122 C   0  0  0  0  0  0  0  0  0  0  0  0
  -30.2021  -14.5508   20.1769 C   0  0  0  0  0  0  0  0  0  0  0  0
  -24.3245  -22.2348   17.9432 C   0  0  0  0  0  0  0  0  0  0  0  0
  -23.1633  -22.0237   17.3053 C   0  0  0  0  0  0  0  0  0  0  0  0
  -29.5275  -12.1954   19.6818 C   0  0  0  0  0  0  0  0  0  0  0  0
  -22.4811  -30.6383   22.0903 C   0  0  0  0  0  0  0  0  0  0  0  0
  -25.5607  -31.6442   22.2542 C   0  0  0  0  0  0  0  0  0  0  0  0
  -28.7335  -30.6509   20.8527 C   0  0  0  0  0  0  0  0  0  0  0  0
  -29.7066  -20.5161   20.0320 C   0  0  0  0  0  0  0  0  0  0  0  0
  -17.9795  -32.0455   24.0428 C   0  0  0  0  0  0  0  0  0  0  0  0
  -23.5589  -28.7531   23.3712 C   0  0  0  0  0  0  0  0  0  0  0  0
  -25.1385  -29.5039   20.9867 C   0  0  0  0  0  0  0  0  0  0  0  0
  -24.4080  -22.5393   19.4167 C   0  0  0  0  0  0  0  0  0  0  0  0
  -19.3004  -32.7441   23.7305 C   0  0  0  0  0  0  0  0  0  0  0  0
  -31.2427  -18.5567   22.5771 C   0  0  0  0  0  0  0  0  0  0  0  0
  -19.7607  -32.4077   22.3157 C   0  0  0  0  0  0  0  0  0  0  0  0
  -30.7164  -17.1438   22.3187 C   0  0  0  0  0  0  0  0  0  0  0  0
  -26.5836  -23.7147   18.8828 C   0  0  0  0  0  0  0  0  0  0  0  0
  -30.1805  -19.6158   22.2906 C   0  0  0  0  0  0  0  0  0  0  0  0
  -29.0462  -18.1232   20.6908 C   0  0  0  0  0  0  0  0  0  0  0  0
  -26.3503  -23.4511   17.3959 C   0  0  0  0  0  0  0  0  0  0  0  0
  -20.0080  -30.9024   22.1592 C   0  0  1  0  0  0  0  0  0  0  0  0
  -23.6670  -30.2010   22.9028 C   0  0  1  0  0  0  0  0  0  0  0  0
  -30.0992  -17.0239   20.9123 C   0  0  2  0  0  0  0  0  0  0  0  0
  -25.2752  -23.7725   19.6711 C   0  0  1  0  0  0  0  0  0  1  0  0
  -31.0680  -30.9561   21.7212 C   0  0  0  0  0  0  0  0  0  0  0  0
  -25.5605  -34.1649   20.5349 C   0  0  0  0  0  0  0  0  0  0  0  0
  -27.9473  -33.6835   19.9520 C   0  0  0  0  0  0  0  0  0  0  0  0
  -27.3083  -34.1220   22.3231 C   0  0  0  0  0  0  0  0  0  0  0  0
  -29.2979  -27.7502   20.6891 C   0  0  0  0  0  0  0  0  0  0  0  0
  -29.1775  -21.2698   17.7274 C   0  0  0  0  0  0  0  0  0  0  0  0
  -26.2835  -20.9172   17.3941 C   0  0  0  0  0  0  0  0  0  0  0  0
  -26.6462  -31.9328   21.2455 C   0  0  1  0  0  0  0  0  0  0  0  0
  -29.8903  -30.0026   21.5916 C   0  0  2  0  0  0  0  0  0  0  0  0
  -26.8452  -33.4565   21.0088 C   0  0  0  0  0  0  0  0  0  0  0  0
  -28.2421  -15.4013   20.9403 N   0  0  0  0  0  0  0  0  0  0  0  0
  -29.5362  -15.6366   20.6646 N   0  0  0  0  0  0  0  0  0  0  0  0
  -24.8575  -30.4431   22.0851 N   0  0  0  0  0  0  0  0  0  0  0  0
  -29.6367  -19.4474   20.9408 N   0  0  0  0  0  0  0  0  0  0  0  0
  -31.5098  -14.6129   19.8476 N   0  0  0  0  0  0  0  0  0  0  0  0
  -28.4683  -11.2777   19.7001 N   0  0  0  0  0  0  0  0  0  0  0  0
  -21.2743  -30.5336   22.7551 N   0  0  0  0  0  0  0  0  0  0  0  0
  -27.8395  -31.2411   21.7209 N   0  0  0  0  0  0  0  0  0  0  0  0
  -29.1738  -20.2705   18.7724 N   0  0  0  0  0  0  0  0  0  0  0  0
  -25.5355  -22.2007   17.1611 N   0  3  1  0  0  0  0  0  0  0  0  0
  -30.3498  -28.7840   20.8672 N   0  3  0  0  0  0  0  0  0  0  0  0
  -30.6589  -11.8194   19.2919 O   0  0  0  0  0  0  0  0  0  0  0  0
  -22.6488  -31.0422   20.9456 O   0  0  0  0  0  0  0  0  0  0  0  0
  -25.3495  -32.4512   23.1629 O   0  0  0  0  0  0  0  0  0  0  0  0
  -28.6348  -30.6384   19.6277 O   0  0  0  0  0  0  0  0  0  0  0  0
  -30.2117  -21.6065   20.3198 O   0  0  0  0  0  0  0  0  0  0  0  0
  -23.1192  -11.6296   21.2179 O   0  0  0  0  0  0  0  0  0  0  0  0
  -24.5617  -24.9497   19.2944 O   0  0  0  0  0  0  0  0  0  1  0  0
  -22.9694   -6.1205   21.0413 F   0  0  0  0  0  0  0  0  0  0  0  0
  -23.9696  -10.2589   18.9728 F   0  0  0  0  0  0  0  0  0  0  0  0
  -30.0443  -19.5605   12.9062 Cl  0  0  0  0  0  0  0  0  0  0  0  0
  1  2  1  0  0  0  0
  1  5  2  0  0  0  0
  2  6  2  0  0  0  0
  3  9  2  0  0  0  0
  3 18  1  0  0  0  0
  4 10  1  0  0  0  0
  4 18  2  0  0  0  0
  5 20  1  0  0  0  0
  6 22  1  0  0  0  0
  7 11  2  0  0  0  0
  7 21  1  0  0  0  0
  8 14  2  0  0  0  0
  8 24  1  0  0  0  0
  9 26  1  0  0  0  0
 10 26  2  0  0  0  0
 11 27  1  0  0  0  0
 12 13  2  0  0  0  0
 12 28  1  0  0  0  0
 13 29  1  0  0  0  0
 14 31  1  0  0  0  0
 15 23  1  0  0  0  0
 15 27  2  0  0  0  0
 16 25  1  0  0  0  0
 16 31  2  0  0  0  0
 17 29  2  0  0  0  0
 17 30  1  0  0  0  0
 18 32  1  0  0  0  0
 19 32  1  0  0  0  0
 19 33  2  0  0  0  0
 19 36  1  0  0  0  0
 20 22  2  0  0  0  0
 20 41  1  0  0  0  0
 21 23  2  0  0  0  0
 21 42  1  0  0  0  0
 22 53  1  0  0  0  0
 23 43  1  0  0  0  0
 24 25  2  0  0  0  0
 24 63  1  0  0  0  0
 25 62  1  0  0  0  0
 26 83  1  0  0  0  0
 27 84  1  0  0  0  0
 28 30  2  0  0  0  0
 28 83  1  0  0  0  0
 29 85  1  0  0  0  0
 30 86  1  0  0  0  0
 31 87  1  0  0  0  0
 32 67  2  0  0  0  0
 33 68  1  0  0  0  0
 33 71  1  0  0  0  0
 34 35  2  0  0  0  0
 34 44  1  0  0  0  0
 34 76  1  0  0  0  0
 36 72  1  0  0  0  0
 36 78  2  0  0  0  0
 37 54  1  0  0  0  0
 37 73  1  0  0  0  0
 37 79  2  0  0  0  0
 38 64  1  0  0  0  0
 38 69  1  0  0  0  0
 38 80  2  0  0  0  0
 39 65  1  0  0  0  0
 39 74  1  0  0  0  0
 39 81  2  0  0  0  0
 40 70  1  0  0  0  0
 40 75  1  0  0  0  0
 40 82  2  0  0  0  0
 41 45  1  0  0  0  0
 42 54  1  0  0  0  0
 43 69  1  0  0  0  0
 44 56  1  0  0  0  0
 45 47  1  0  0  0  0
 46 48  1  0  0  0  0
 46 50  1  0  0  0  0
 47 53  1  0  0  0  0
 48 55  1  0  0  0  0
 49 52  1  0  0  0  0
 49 56  1  0  0  0  0
 50 70  1  0  0  0  0
 51 55  1  0  0  0  0
 51 70  1  0  0  0  0
 52 76  1  0  0  0  0
 53 73  1  0  0  0  0
 54 69  1  0  0  0  0
 55 68  1  0  0  0  0
 56 84  1  0  0  0  0
 57 65  1  0  0  0  0
 58 66  1  0  0  0  0
 59 66  1  0  0  0  0
 60 66  1  0  0  0  0
 61 77  1  0  0  0  0
 62 75  1  0  0  0  0
 63 76  1  0  0  0  0
 64 66  1  0  0  0  0
 64 74  1  0  0  0  0
 65 77  1  0  0  0  0
 67 68  1  0  0  0  0
M  CHG  2  76   1  77   1
M  ISO  4  40 100  56 101  75 100  84 101
M  END
> <Batch ID>
0046

> <Smiles>
C=C1C[101CH:1]([101O:1]c2ccc3c(c2)CN(C(=O)C(NC(=O)C(C)NC)C(C)(C)C)C(C(=O)NC2CCCc4ccccc42)C3)CCN1Cc1ccc(Cl)cc1C[100NH:0][100C:0](=O)N1CCCC(n2nc(-c3ccc(Oc4ccc(F)cc4F)cc3)c(C(N)=O)c2N)C1

> <Shape>
0.278

> <Color>
0.074

> <Negative vol penalty>
0.000

$$$$

  -OEChem-04042322233D

 87 95  0     1  0  0  0  0  0999 V2000
  -30.5373  -18.3825   17.2067 C   0  0  0  0  0  0  0  0  0  0  0  0
  -30.5385  -17.4736   18.2588 C   0  0  0  0  0  0  0  0  0  0  0  0
  -24.0021  -28.6818   19.4413 C   0  0  0  0  0  0  0  0  0  0  0  0
  -24.1807  -28.0510   21.7667 C   0  0  0  0  0  0  0  0  0  0  0  0
  -29.3431  -18.6909   16.5585 C   0  0  0  0  0  0  0  0  0  0  0  0
  -29.3478  -16.8638   18.6552 C   0  0  0  0  0  0  0  0  0  0  0  0
  -29.6770  -13.3051   22.0362 C   0  0  0  0  0  0  0  0  0  0  0  0
  -22.6947  -29.1161   19.6595 C   0  0  0  0  0  0  0  0  0  0  0  0
  -22.8732  -28.4854   21.9849 C   0  0  0  0  0  0  0  0  0  0  0  0
  -29.9674  -13.5623   23.3753 C   0  0  0  0  0  0  0  0  0  0  0  0
  -19.7417  -27.3298   21.4474 C   0  0  0  0  0  0  0  0  0  0  0  0
  -18.9009  -26.5048   22.1943 C   0  0  0  0  0  0  0  0  0  0  0  0
  -27.6439  -13.2355   23.9355 C   0  0  0  0  0  0  0  0  0  0  0  0
  -28.4019  -19.5981   22.4855 C   0  0  0  0  0  0  0  0  0  0  0  0
  -28.2631  -21.4076   24.0803 C   0  0  0  0  0  0  0  0  0  0  0  0
  -18.6169  -28.2676   23.8218 C   0  0  0  0  0  0  0  0  0  0  0  0
  -24.7451  -28.1492   20.4949 C   0  0  0  0  0  0  0  0  0  0  0  0
  -28.0845  -19.1185   24.8320 C   0  0  0  0  0  0  0  0  0  0  0  0
  -27.2748  -28.4599   20.3859 C   0  0  0  0  0  0  0  0  0  0  0  0
  -28.1356  -18.0935   16.9560 C   0  0  0  0  0  0  0  0  0  0  0  0
  -28.3638  -13.0215   21.6343 C   0  0  0  0  0  0  0  0  0  0  0  0
  -28.1361  -17.1438   17.9979 C   0  0  0  0  0  0  0  0  0  0  0  0
  -27.3400  -12.9726   22.5910 C   0  0  0  0  0  0  0  0  0  0  0  0
  -28.2366  -18.6752   23.5182 C   0  0  0  0  0  0  0  0  0  0  0  0
  -28.4152  -20.9643   22.7666 C   0  0  0  0  0  0  0  0  0  0  0  0
  -22.1303  -29.0179   20.9313 C   0  0  0  0  0  0  0  0  0  0  0  0
  -28.9502  -13.5304   24.3248 C   0  0  0  0  0  0  0  0  0  0  0  0
  -20.0202  -28.6237   21.8877 C   0  0  0  0  0  0  0  0  0  0  0  0
  -18.3385  -26.9737   23.3815 C   0  0  0  0  0  0  0  0  0  0  0  0
  -28.0977  -20.4847   25.1131 C   0  0  0  0  0  0  0  0  0  0  0  0
  -19.4578  -29.0927   23.0749 C   0  0  0  0  0  0  0  0  0  0  0  0
  -26.0955  -27.6998   20.2701 C   0  0  0  0  0  0  0  0  0  0  0  0
  -28.2821  -27.5809   20.0710 C   0  0  0  0  0  0  0  0  0  0  0  0
  -27.9083  -18.1561   25.9380 C   0  0  0  0  0  0  0  0  0  0  0  0
  -27.4444  -29.8373   20.7460 C   0  0  0  0  0  0  0  0  0  0  0  0
  -26.2648  -14.4053   19.6894 C   0  0  0  0  0  0  0  0  0  0  0  0
  -24.5149  -11.7483   20.3221 C   0  0  0  0  0  0  0  0  0  0  0  0
  -23.8517   -9.1509   22.4341 C   0  0  0  0  0  0  0  0  0  0  0  0
  -28.7464  -21.6306   20.3598 C   0  0  0  0  0  0  0  0  0  0  0  0
  -26.8735  -18.4576   16.2146 C   0  0  0  0  0  0  0  0  0  0  0  0
  -28.0718  -12.7200   20.1899 C   0  0  0  0  0  0  0  0  0  0  0  0
  -25.9172  -12.6530   22.2143 C   0  0  0  0  0  0  0  0  0  0  0  0
  -25.6070  -18.1037   16.9872 C   0  0  0  0  0  0  0  0  0  0  0  0
  -29.1513  -23.6600   17.4624 C   0  0  0  0  0  0  0  0  0  0  0  0
  -25.6846  -16.6674   17.4826 C   0  0  0  0  0  0  0  0  0  0  0  0
  -28.5264  -24.9973   17.8662 C   0  0  0  0  0  0  0  0  0  0  0  0
  -28.3863  -22.4758   18.0509 C   0  0  0  0  0  0  0  0  0  0  0  0
  -27.5575  -23.8662   19.9080 C   0  0  0  0  0  0  0  0  0  0  0  0
  -26.8482  -16.4912   18.4664 C   0  0  1  0  0  0  0  0  0  0  0  0
  -26.6106  -12.9485   19.8155 C   0  0  1  0  0  0  0  0  0  0  0  0
  -28.3316  -25.0904   19.3923 C   0  0  2  0  0  0  0  0  0  0  0  0
  -28.2262  -17.2175   23.1921 C   0  0  0  0  0  0  0  0  0  0  0  0
  -22.3410   -7.1649   22.7004 C   0  0  0  0  0  0  0  0  0  0  0  0
  -22.2286  -13.5992   21.1327 C   0  0  0  0  0  0  0  0  0  0  0  0
  -21.1396  -11.6463   22.2591 C   0  0  0  0  0  0  0  0  0  0  0  0
  -21.5315  -11.6038   19.7959 C   0  0  0  0  0  0  0  0  0  0  0  0
  -31.2920  -16.3529   27.5041 C   0  0  0  0  0  0  0  0  0  0  0  0
  -30.0442  -14.3704   28.3812 C   0  0  0  0  0  0  0  0  0  0  0  0
  -26.1339   -7.2666   22.4184 C   0  0  0  0  0  0  0  0  0  0  0  0
  -28.8157  -16.2543   27.2250 C   0  0  0  0  0  0  0  0  0  0  0  0
  -30.3162  -14.6669   25.9054 C   0  0  0  0  0  0  0  0  0  1  0  0
  -23.4968  -11.3626   21.3679 C   0  0  1  0  0  0  0  0  0  0  0  0
  -23.6796   -7.6642   22.1794 C   0  0  2  0  0  0  0  0  0  0  0  0
  -22.1255  -12.0609   21.1460 C   0  0  0  0  0  0  0  0  0  0  0  0
  -30.1038  -15.4060   27.2443 C   0  0  0  0  0  0  0  0  0  0  0  0
  -26.3304  -26.4353   19.9096 N   0  0  0  0  0  0  0  0  0  0  0  0
  -27.6689  -26.3941   19.7961 N   0  0  0  0  0  0  0  0  0  0  0  0
  -25.6809  -12.3716   20.7886 N   0  0  0  0  0  0  0  0  0  0  0  0
  -28.2441  -22.6305   19.5002 N   0  0  0  0  0  0  0  0  0  0  0  0
  -29.6238  -27.7152   20.0051 N   0  0  0  0  0  0  0  0  0  0  0  0
  -26.7911  -18.2285   26.6616 N   0  0  0  0  0  0  0  0  0  0  0  0
  -26.3035  -30.5968   21.0388 N   0  0  0  0  0  0  0  0  0  0  0  0
  -28.5828  -21.9022   21.7177 N   0  0  0  0  0  0  0  0  0  0  0  0
  -27.0178  -15.0830   18.7497 N   0  0  0  0  0  0  0  0  0  0  0  0
  -23.4336   -9.9051   21.3582 N   0  0  0  0  0  0  0  0  0  0  0  0
  -28.8774  -17.2609   26.1617 N   0  3  0  0  0  0  0  0  0  0  0  0
  -24.7631   -6.8944   22.8535 N   0  3  0  0  0  0  0  0  0  0  0  0
  -28.5731  -30.3829   20.7903 O   0  0  0  0  0  0  0  0  0  0  0  0
  -25.3792  -14.8790   20.3916 O   0  0  0  0  0  0  0  0  0  0  0  0
  -24.2872  -11.4990   19.1356 O   0  0  0  0  0  0  0  0  0  0  0  0
  -24.3077   -9.5984   23.4840 O   0  0  0  0  0  0  0  0  0  0  0  0
  -29.3065  -20.6215   19.9239 O   0  0  0  0  0  0  0  0  0  0  0  0
  -20.8546  -29.4419   21.1446 O   0  0  0  0  0  0  0  0  0  0  0  0
  -29.2307  -13.7816   25.6325 O   0  0  0  0  0  0  0  0  0  1  0  0
  -17.5298  -26.1818   24.0978 F   0  0  0  0  0  0  0  0  0  0  0  0
  -27.9522  -20.9212   26.3722 F   0  0  0  0  0  0  0  0  0  0  0  0
  -19.7208  -30.3352   23.5024 F   0  0  0  0  0  0  0  0  0  0  0  0
  1  2  1  0  0  0  0
  1  5  2  0  0  0  0
  2  6  2  0  0  0  0
  3  8  2  0  0  0  0
  3 17  1  0  0  0  0
  4  9  1  0  0  0  0
  4 17  2  0  0  0  0
  5 20  1  0  0  0  0
  6 22  1  0  0  0  0
  7 10  2  0  0  0  0
  7 21  1  0  0  0  0
  8 26  1  0  0  0  0
  9 26  2  0  0  0  0
 10 27  1  0  0  0  0
 11 12  2  0  0  0  0
 11 28  1  0  0  0  0
 12 29  1  0  0  0  0
 13 23  1  0  0  0  0
 13 27  2  0  0  0  0
 14 24  2  0  0  0  0
 14 25  1  0  0  0  0
 15 25  2  0  0  0  0
 15 30  1  0  0  0  0
 16 29  2  0  0  0  0
 16 31  1  0  0  0  0
 17 32  1  0  0  0  0
 18 24  1  0  0  0  0
 18 30  2  0  0  0  0
 18 34  1  0  0  0  0
 19 32  1  0  0  0  0
 19 33  2  0  0  0  0
 19 35  1  0  0  0  0
 20 22  2  0  0  0  0
 20 40  1  0  0  0  0
 21 23  2  0  0  0  0
 21 41  1  0  0  0  0
 22 49  1  0  0  0  0
 23 42  1  0  0  0  0
 24 52  1  0  0  0  0
 25 73  1  0  0  0  0
 26 83  1  0  0  0  0
 27 84  1  0  0  0  0
 28 31  2  0  0  0  0
 28 83  1  0  0  0  0
 29 85  1  0  0  0  0
 30 86  1  0  0  0  0
 31 87  1  0  0  0  0
 32 66  2  0  0  0  0
 33 67  1  0  0  0  0
 33 70  1  0  0  0  0
 34 71  1  0  0  0  0
 34 76  2  0  0  0  0
 35 72  1  0  0  0  0
 35 78  2  0  0  0  0
 36 50  1  0  0  0  0
 36 74  1  0  0  0  0
 36 79  2  0  0  0  0
 37 62  1  0  0  0  0
 37 68  1  0  0  0  0
 37 80  2  0  0  0  0
 38 63  1  0  0  0  0
 38 75  1  0  0  0  0
 38 81  2  0  0  0  0
 39 69  1  0  0  0  0
 39 73  1  0  0  0  0
 39 82  2  0  0  0  0
 40 43  1  0  0  0  0
 41 50  1  0  0  0  0
 42 68  1  0  0  0  0
 43 45  1  0  0  0  0
 44 46  1  0  0  0  0
 44 47  1  0  0  0  0
 45 49  1  0  0  0  0
 46 51  1  0  0  0  0
 47 69  1  0  0  0  0
 48 51  1  0  0  0  0
 48 69  1  0  0  0  0
 49 74  1  0  0  0  0
 50 68  1  0  0  0  0
 51 67  1  0  0  0  0
 53 63  1  0  0  0  0
 54 64  1  0  0  0  0
 55 64  1  0  0  0  0
 56 64  1  0  0  0  0
 57 65  1  0  0  0  0
 58 65  1  0  0  0  0
 59 77  1  0  0  0  0
 60 65  1  0  0  0  0
 60 76  1  0  0  0  0
 61 65  1  0  0  0  0
 61 84  1  0  0  0  0
 62 64  1  0  0  0  0
 62 75  1  0  0  0  0
 63 77  1  0  0  0  0
 66 67  1  0  0  0  0
M  CHG  2  76   1  77   1
M  ISO  4  39 100  61 101  73 100  84 101
M  END
> <Batch ID>
0046

> <Smiles>
CNC(C)C(=O)NC(C(=O)N1Cc2cc([101O:1][101CH2:1]C(C)(C)CNC(=N)c3c(C)cc([100NH:0][100C:0](=O)N4CCCC(n5nc(-c6ccc(Oc7ccc(F)cc7F)cc6)c(C(N)=O)c5N)C4)cc3F)ccc2CC1C(=O)NC1CCCc2ccccc21)C(C)(C)C

> <Shape>
0.274

> <Color>
0.057

> <Negative vol penalty>
0.000

$$$$

  -OEChem-04042322233D

 84 92  0     1  0  0  0  0  0999 V2000
  -23.1715  -18.7593   23.8205 C   0  0  0  0  0  0  0  0  0  0  0  0
  -24.4848  -18.8571   24.2688 C   0  0  0  0  0  0  0  0  0  0  0  0
  -23.0734   -9.8699   19.9416 C   0  0  0  0  0  0  0  0  0  0  0  0
  -23.8314   -9.8779   22.2356 C   0  0  0  0  0  0  0  0  0  0  0  0
  -22.3349  -19.8736   23.8687 C   0  0  0  0  0  0  0  0  0  0  0  0
  -24.9627  -20.0697   24.7645 C   0  0  0  0  0  0  0  0  0  0  0  0
  -27.6245  -19.5086   29.0359 C   0  0  0  0  0  0  0  0  0  0  0  0
  -22.3284   -8.7175   20.1917 C   0  0  0  0  0  0  0  0  0  0  0  0
  -23.0863   -8.7256   22.4858 C   0  0  0  0  0  0  0  0  0  0  0  0
  -28.9355  -19.0502   28.9136 C   0  0  0  0  0  0  0  0  0  0  0  0
  -19.3782   -7.9245   21.6411 C   0  0  0  0  0  0  0  0  0  0  0  0
  -18.0717   -7.8790   21.1548 C   0  0  0  0  0  0  0  0  0  0  0  0
  -29.7415  -21.3120   29.1452 C   0  0  0  0  0  0  0  0  0  0  0  0
  -29.8804  -17.4567   23.1397 C   0  0  0  0  0  0  0  0  0  0  0  0
  -32.0640  -16.6054   22.5526 C   0  0  0  0  0  0  0  0  0  0  0  0
  -18.6309   -5.9345   19.8344 C   0  0  0  0  0  0  0  0  0  0  0  0
  -23.8250  -10.4501   20.9635 C   0  0  0  0  0  0  0  0  0  0  0  0
  -31.8540  -18.3572   24.2031 C   0  0  0  0  0  0  0  0  0  0  0  0
  -24.1690  -12.9748   20.8419 C   0  0  0  0  0  0  0  0  0  0  0  0
  -22.7998  -21.0979   24.3742 C   0  0  0  0  0  0  0  0  0  0  0  0
  -27.3612  -20.8758   29.2031 C   0  0  0  0  0  0  0  0  0  0  0  0
  -24.1319  -21.2018   24.8182 C   0  0  0  0  0  0  0  0  0  0  0  0
  -28.4264  -21.7849   29.2720 C   0  0  0  0  0  0  0  0  0  0  0  0
  -30.4683  -18.3407   24.0443 C   0  0  0  0  0  0  0  0  0  0  0  0
  -30.6783  -16.5889   22.3938 C   0  0  0  0  0  0  0  0  0  0  0  0
  -22.3348   -8.1454   21.4638 C   0  0  0  0  0  0  0  0  0  0  0  0
  -29.9941  -19.9523   28.9654 C   0  0  0  0  0  0  0  0  0  0  0  0
  -20.3112   -6.9750   21.2240 C   0  0  0  0  0  0  0  0  0  0  0  0
  -17.6981   -6.8840   20.2515 C   0  0  0  0  0  0  0  0  0  0  0  0
  -32.6519  -17.4896   23.4573 C   0  0  0  0  0  0  0  0  0  0  0  0
  -19.9375   -5.9800   20.3207 C   0  0  0  0  0  0  0  0  0  0  0  0
  -24.5953  -11.6401   20.7055 C   0  0  0  0  0  0  0  0  0  0  0  0
  -25.2621  -13.7231   20.4790 C   0  0  0  0  0  0  0  0  0  0  0  0
  -32.5022  -19.2895   25.1611 C   0  0  0  0  0  0  0  0  0  0  0  0
  -22.8986  -13.4920   21.2594 C   0  0  0  0  0  0  0  0  0  0  0  0
  -25.7957  -23.0796   27.5309 C   0  0  0  0  0  0  0  0  0  0  0  0
  -26.4216  -24.9295   30.1210 C   0  0  0  0  0  0  0  0  0  0  0  0
  -28.3867  -25.5297   32.8458 C   0  0  0  0  0  0  0  0  0  0  0  0
  -30.7290  -14.7643   20.6576 C   0  0  0  0  0  0  0  0  0  0  0  0
  -21.8725  -22.2873   24.3625 C   0  0  0  0  0  0  0  0  0  0  0  0
  -25.9428  -21.3510   29.3603 C   0  0  0  0  0  0  0  0  0  0  0  0
  -28.1982  -23.2604   29.4704 C   0  0  0  0  0  0  0  0  0  0  0  0
  -22.3443  -23.4362   25.2499 C   0  0  0  0  0  0  0  0  0  0  0  0
  -29.6146  -12.3497   18.2902 C   0  0  0  0  0  0  0  0  0  0  0  0
  -23.8266  -23.7141   25.0205 C   0  0  0  0  0  0  0  0  0  0  0  0
  -28.1743  -12.0596   18.7187 C   0  0  0  0  0  0  0  0  0  0  0  0
  -30.5289  -12.5786   19.4924 C   0  0  0  0  0  0  0  0  0  0  0  0
  -28.6213  -13.3057   20.8715 C   0  0  0  0  0  0  0  0  0  0  0  0
  -24.6797  -22.4933   25.3858 C   0  0  1  0  0  0  0  0  0  0  0  0
  -25.7645  -22.8255   29.0115 C   0  0  1  0  0  0  0  0  0  0  0  0
  -27.6494  -13.1324   19.6930 C   0  0  2  0  0  0  0  0  0  0  0  0
  -29.5901  -19.2593   24.8300 C   0  0  0  0  0  0  0  0  0  0  0  0
  -28.6744  -27.1369   34.7515 C   0  0  0  0  0  0  0  0  0  0  0  0
  -27.6424  -26.9719   28.2110 C   0  0  0  0  0  0  0  0  0  0  0  0
  -28.7336  -28.0609   30.1838 C   0  0  0  0  0  0  0  0  0  0  0  0
  -26.2456  -27.9561   30.0371 C   0  0  0  0  0  0  0  0  0  0  0  0
  -27.9505  -23.4032   34.8574 C   0  0  0  0  0  0  0  0  0  0  0  0
  -33.2652  -19.6050   27.5008 C   0  0  0  0  0  0  0  0  0  0  0  0
  -32.2208  -20.4021   28.2617 C   0  0  0  0  0  0  0  0  0  1  0  0
  -27.5479  -25.8465   30.5327 C   0  0  1  0  0  0  0  0  0  0  0  0
  -28.0382  -25.8344   34.2916 C   0  0  2  0  0  0  0  0  0  0  0  0
  -27.5469  -27.1813   29.7355 C   0  0  0  0  0  0  0  0  0  0  0  0
  -25.8604  -11.5429   20.2884 N   0  0  0  0  0  0  0  0  0  0  0  0
  -26.2385  -12.8261   20.1595 N   0  0  0  0  0  0  0  0  0  0  0  0
  -26.7932  -23.6768   29.6126 N   0  0  0  0  0  0  0  0  0  0  0  0
  -29.9700  -13.6105   20.3686 N   0  0  0  0  0  0  0  0  0  0  0  0
  -25.4737  -15.0544   20.4052 N   0  0  0  0  0  0  0  0  0  0  0  0
  -21.8856  -12.5839   21.5965 N   0  0  0  0  0  0  0  0  0  0  0  0
  -30.0817  -15.6905   21.4748 N   0  0  0  0  0  0  0  0  0  0  0  0
  -32.6757  -18.8127   26.4544 N   0  0  0  0  0  0  0  0  0  0  0  0
  -24.8290  -22.3924   26.8217 N   0  0  0  0  0  0  0  0  0  0  0  0
  -27.4311  -26.0133   31.9774 N   0  0  0  0  0  0  0  0  0  0  0  0
  -28.5155  -24.7384   35.1815 N   0  3  0  0  0  0  0  0  0  0  0  0
  -32.8255  -20.4117   24.7808 O   0  0  0  0  0  0  0  0  0  0  0  0
  -22.6633  -14.7229   21.3156 O   0  0  0  0  0  0  0  0  0  0  0  0
  -26.6336  -23.8436   27.0665 O   0  0  0  0  0  0  0  0  0  0  0  0
  -25.2549  -25.3079   30.2524 O   0  0  0  0  0  0  0  0  0  0  0  0
  -29.4066  -24.9266   32.5194 O   0  0  0  0  0  0  0  0  0  0  0  0
  -31.8586  -14.9318   20.1908 O   0  0  0  0  0  0  0  0  0  0  0  0
  -21.6077   -7.0211   21.7084 O   0  0  0  0  0  0  0  0  0  0  0  0
  -31.2746  -19.5076   28.8456 O   0  0  0  0  0  0  0  0  0  1  0  0
  -16.4430   -6.8395   19.7857 F   0  0  0  0  0  0  0  0  0  0  0  0
  -33.9848  -17.4955   23.6011 F   0  0  0  0  0  0  0  0  0  0  0  0
  -20.8290   -5.0644   19.9173 F   0  0  0  0  0  0  0  0  0  0  0  0
  1  2  1  0  0  0  0
  1  5  2  0  0  0  0
  2  6  2  0  0  0  0
  3  8  2  0  0  0  0
  3 17  1  0  0  0  0
  4  9  1  0  0  0  0
  4 17  2  0  0  0  0
  5 20  1  0  0  0  0
  6 22  1  0  0  0  0
  7 10  2  0  0  0  0
  7 21  1  0  0  0  0
  8 26  1  0  0  0  0
  9 26  2  0  0  0  0
 10 27  1  0  0  0  0
 11 12  2  0  0  0  0
 11 28  1  0  0  0  0
 12 29  1  0  0  0  0
 13 23  1  0  0  0  0
 13 27  2  0  0  0  0
 14 24  2  0  0  0  0
 14 25  1  0  0  0  0
 15 25  2  0  0  0  0
 15 30  1  0  0  0  0
 16 29  2  0  0  0  0
 16 31  1  0  0  0  0
 17 32  1  0  0  0  0
 18 24  1  0  0  0  0
 18 30  2  0  0  0  0
 18 34  1  0  0  0  0
 19 32  1  0  0  0  0
 19 33  2  0  0  0  0
 19 35  1  0  0  0  0
 20 22  2  0  0  0  0
 20 40  1  0  0  0  0
 21 23  2  0  0  0  0
 21 41  1  0  0  0  0
 22 49  1  0  0  0  0
 23 42  1  0  0  0  0
 24 52  1  0  0  0  0
 25 69  1  0  0  0  0
 26 80  1  0  0  0  0
 27 81  1  0  0  0  0
 28 31  2  0  0  0  0
 28 80  1  0  0  0  0
 29 82  1  0  0  0  0
 30 83  1  0  0  0  0
 31 84  1  0  0  0  0
 32 63  2  0  0  0  0
 33 64  1  0  0  0  0
 33 67  1  0  0  0  0
 34 70  1  0  0  0  0
 34 74  2  0  0  0  0
 35 68  1  0  0  0  0
 35 75  2  0  0  0  0
 36 50  1  0  0  0  0
 36 71  1  0  0  0  0
 36 76  2  0  0  0  0
 37 60  1  0  0  0  0
 37 65  1  0  0  0  0
 37 77  2  0  0  0  0
 38 61  1  0  0  0  0
 38 72  1  0  0  0  0
 38 78  2  0  0  0  0
 39 66  1  0  0  0  0
 39 69  1  0  0  0  0
 39 79  2  0  0  0  0
 40 43  1  0  0  0  0
 41 50  1  0  0  0  0
 42 65  1  0  0  0  0
 43 45  1  0  0  0  0
 44 46  1  0  0  0  0
 44 47  1  0  0  0  0
 45 49  1  0  0  0  0
 46 51  1  0  0  0  0
 47 66  1  0  0  0  0
 48 51  1  0  0  0  0
 48 66  1  0  0  0  0
 49 71  1  0  0  0  0
 50 65  1  0  0  0  0
 51 64  1  0  0  0  0
 53 61  1  0  0  0  0
 54 62  1  0  0  0  0
 55 62  1  0  0  0  0
 56 62  1  0  0  0  0
 57 73  1  0  0  0  0
 58 59  1  0  0  0  0
 58 70  1  0  0  0  0
 59 81  1  0  0  0  0
 60 62  1  0  0  0  0
 60 72  1  0  0  0  0
 61 73  1  0  0  0  0
 63 64  1  0  0  0  0
M  CHG  1  73   1
M  ISO  4  39 100  59 101  69 100  81 101
M  END
> <Batch ID>
0046

> <Smiles>
CNC(C)C(=O)NC(C(=O)N1Cc2cc([101O:1][101CH2:1]CNC(=O)c3c(C)cc([100NH:0][100C:0](=O)N4CCCC(n5nc(-c6ccc(Oc7ccc(F)cc7F)cc6)c(C(N)=O)c5N)C4)cc3F)ccc2CC1C(=O)NC1CCCc2ccccc21)C(C)(C)C

> <Shape>
0.146

> <Color>
0.191

> <Negative vol penalty>
0.000

$$$$

  -OEChem-04042322233D

 84 92  0     1  0  0  0  0  0999 V2000
  -24.1682  -23.5147   14.9299 C   0  0  0  0  0  0  0  0  0  0  0  0
  -24.2113  -22.4699   15.8475 C   0  0  0  0  0  0  0  0  0  0  0  0
  -26.3555  -25.9571   17.7043 C   0  0  0  0  0  0  0  0  0  0  0  0
  -26.1968  -25.6296   20.0928 C   0  0  0  0  0  0  0  0  0  0  0  0
  -23.3159  -24.5966   15.1468 C   0  0  0  0  0  0  0  0  0  0  0  0
  -23.4029  -22.5068   16.9830 C   0  0  0  0  0  0  0  0  0  0  0  0
  -21.1169  -18.0791   17.8854 C   0  0  0  0  0  0  0  0  0  0  0  0
  -27.6246  -12.0877   19.8798 C   0  0  0  0  0  0  0  0  0  0  0  0
  -25.4590  -27.0222   17.7908 C   0  0  0  0  0  0  0  0  0  0  0  0
  -25.3004  -26.6948   20.1793 C   0  0  0  0  0  0  0  0  0  0  0  0
  -21.8843  -17.0745   18.4732 C   0  0  0  0  0  0  0  0  0  0  0  0
  -23.2481  -29.5577   21.0794 C   0  0  0  0  0  0  0  0  0  0  0  0
  -23.4391  -30.4856   22.1031 C   0  0  0  0  0  0  0  0  0  0  0  0
  -28.4613  -11.2855   19.1040 C   0  0  0  0  0  0  0  0  0  0  0  0
  -20.9096  -17.5934   20.6180 C   0  0  0  0  0  0  0  0  0  0  0  0
  -30.0974  -13.0618   19.0317 C   0  0  0  0  0  0  0  0  0  0  0  0
  -25.6307  -31.0013   21.2267 C   0  0  0  0  0  0  0  0  0  0  0  0
  -26.7243  -25.2607   18.8553 C   0  0  0  0  0  0  0  0  0  0  0  0
  -29.0527  -24.2186   18.8680 C   0  0  0  0  0  0  0  0  0  0  0  0
  -22.4895  -24.6422   16.2807 C   0  0  0  0  0  0  0  0  0  0  0  0
  -20.2467  -18.8570   18.6626 C   0  0  0  0  0  0  0  0  0  0  0  0
  -22.5397  -23.5910   17.2159 C   0  0  0  0  0  0  0  0  0  0  0  0
  -20.1304  -18.6055   20.0371 C   0  0  0  0  0  0  0  0  0  0  0  0
  -28.0242  -13.3770   20.2315 C   0  0  0  0  0  0  0  0  0  0  0  0
  -29.2606  -13.8640   19.8075 C   0  0  0  0  0  0  0  0  0  0  0  0
  -24.9315  -27.3911   19.0282 C   0  0  0  0  0  0  0  0  0  0  0  0
  -21.7829  -16.8334   19.8402 C   0  0  0  0  0  0  0  0  0  0  0  0
  -24.2484  -29.3515   20.1293 C   0  0  0  0  0  0  0  0  0  0  0  0
  -24.6304  -31.2074   22.1768 C   0  0  0  0  0  0  0  0  0  0  0  0
  -25.4397  -30.0734   20.2029 C   0  0  0  0  0  0  0  0  0  0  0  0
  -29.6977  -11.7725   18.6800 C   0  0  0  0  0  0  0  0  0  0  0  0
  -27.6498  -24.1600   18.7666 C   0  0  0  0  0  0  0  0  0  0  0  0
  -29.4626  -22.9164   18.7175 C   0  0  0  0  0  0  0  0  0  0  0  0
  -29.9088  -25.3491   19.0794 C   0  0  0  0  0  0  0  0  0  0  0  0
  -20.0270  -21.9481   19.3701 C   0  0  0  0  0  0  0  0  0  0  0  0
  -17.2691  -21.0242   20.8061 C   0  0  0  0  0  0  0  0  0  0  0  0
  -24.7685  -15.0443   20.8568 C   0  0  0  0  0  0  0  0  0  0  0  0
  -15.4518  -18.5229   22.2512 C   0  0  0  0  0  0  0  0  0  0  0  0
  -28.9914  -17.6077   19.9595 C   0  0  0  0  0  0  0  0  0  0  0  0
  -21.6192  -25.8550   16.4963 C   0  0  0  0  0  0  0  0  0  0  0  0
  -19.4060  -19.9190   18.0087 C   0  0  0  0  0  0  0  0  0  0  0  0
  -19.1960  -19.3990   20.9122 C   0  0  0  0  0  0  0  0  0  0  0  0
  -20.5205  -25.6395   17.5340 C   0  0  0  0  0  0  0  0  0  0  0  0
  -26.9028  -18.8047   17.2572 C   0  0  0  0  0  0  0  0  0  0  0  0
  -21.0875  -24.9662   18.7798 C   0  0  0  0  0  0  0  0  0  0  0  0
  -27.0307  -20.3201   17.4222 C   0  0  0  0  0  0  0  0  0  0  0  0
  -26.8629  -18.1025   18.6113 C   0  0  0  0  0  0  0  0  0  0  0  0
  -28.1516  -19.9206   19.6636 C   0  0  0  0  0  0  0  0  0  0  0  0
  -21.6599  -23.5830   18.4472 C   0  0  1  0  0  0  0  0  0  0  0  0
  -18.9336  -20.9922   18.9847 C   0  0  1  0  0  0  0  0  0  0  0  0
  -28.2199  -20.6865   18.3299 C   0  0  2  0  0  0  0  0  0  0  0  0
  -13.2471  -18.0805   23.3651 C   0  0  0  0  0  0  0  0  0  0  0  0
  -18.2798  -22.3866   23.3422 C   0  0  0  0  0  0  0  0  0  0  0  0
  -16.5417  -21.1251   24.6291 C   0  0  0  0  0  0  0  0  0  0  0  0
  -15.8517  -22.7452   22.8622 C   0  0  0  0  0  0  0  0  0  0  0  0
  -14.6690  -16.5575   20.1816 C   0  0  0  0  0  0  0  0  0  0  0  0
  -27.1065  -14.2225   21.0665 C   0  0  0  0  0  0  0  0  0  0  0  0
  -29.7089  -15.2417   20.1705 C   0  0  0  0  0  0  0  0  0  0  0  0
  -23.7961  -15.5675   19.8213 C   0  0  0  0  0  0  0  0  0  1  0  0
  -16.8916  -20.5421   22.1860 C   0  0  1  0  0  0  0  0  0  0  0  0
  -14.0142  -18.0779   22.0520 C   0  0  2  0  0  0  0  0  0  0  0  0
  -16.9103  -21.6859   23.2390 C   0  0  0  0  0  0  0  0  0  0  0  0
  -27.1987  -22.9188   18.5669 N   0  0  0  0  0  0  0  0  0  0  0  0
  -28.3246  -22.1854   18.5416 N   0  0  0  0  0  0  0  0  0  0  0  0
  -18.3998  -20.4307   20.2272 N   0  0  0  0  0  0  0  0  0  0  0  0
  -28.0316  -18.4795   19.4188 N   0  0  0  0  0  0  0  0  0  0  0  0
  -30.6817  -22.3367   18.7197 N   0  0  0  0  0  0  0  0  0  0  0  0
  -29.3228  -26.6152   19.2133 N   0  0  0  0  0  0  0  0  0  0  0  0
  -20.5928  -22.6163   18.3010 N   0  0  0  0  0  0  0  0  0  0  0  0
  -25.9996  -14.7413   20.2967 N   0  0  0  0  0  0  0  0  0  0  0  0
  -15.5998  -19.8786   22.0474 N   0  0  0  0  0  0  0  0  0  0  0  0
  -28.8013  -16.2584   19.6872 N   0  0  0  0  0  0  0  0  0  0  0  0
  -13.9722  -16.7000   21.4859 N   0  3  0  0  0  0  0  0  0  0  0  0
  -31.1576  -25.2421   19.1312 O   0  0  0  0  0  0  0  0  0  0  0  0
  -20.3336  -22.0714   20.5501 O   0  0  0  0  0  0  0  0  0  0  0  0
  -16.5816  -21.8900   20.2590 O   0  0  0  0  0  0  0  0  0  0  0  0
  -24.4715  -14.9143   22.0413 O   0  0  0  0  0  0  0  0  0  0  0  0
  -16.3528  -17.7463   22.5606 O   0  0  0  0  0  0  0  0  0  0  0  0
  -29.9504  -18.0030   20.6311 O   0  0  0  0  0  0  0  0  0  0  0  0
  -24.0569  -28.4305   19.1130 O   0  0  0  0  0  0  0  0  0  0  0  0
  -22.5313  -15.8539   20.4167 O   0  0  0  0  0  0  0  0  0  1  0  0
  -24.8131  -32.0995   23.1591 F   0  0  0  0  0  0  0  0  0  0  0  0
  -26.4038  -29.8806   19.2924 F   0  0  0  0  0  0  0  0  0  0  0  0
  -30.7288  -10.7831   17.7215 Cl  0  0  0  0  0  0  0  0  0  0  0  0
  1  2  1  0  0  0  0
  1  5  2  0  0  0  0
  2  6  2  0  0  0  0
  3  9  2  0  0  0  0
  3 18  1  0  0  0  0
  4 10  1  0  0  0  0
  4 18  2  0  0  0  0
  5 20  1  0  0  0  0
  6 22  1  0  0  0  0
  7 11  2  0  0  0  0
  7 21  1  0  0  0  0
  8 14  2  0  0  0  0
  8 24  1  0  0  0  0
  9 26  1  0  0  0  0
 10 26  2  0  0  0  0
 11 27  1  0  0  0  0
 12 13  2  0  0  0  0
 12 28  1  0  0  0  0
 13 29  1  0  0  0  0
 14 31  1  0  0  0  0
 15 23  1  0  0  0  0
 15 27  2  0  0  0  0
 16 25  1  0  0  0  0
 16 31  2  0  0  0  0
 17 29  2  0  0  0  0
 17 30  1  0  0  0  0
 18 32  1  0  0  0  0
 19 32  1  0  0  0  0
 19 33  2  0  0  0  0
 19 34  1  0  0  0  0
 20 22  2  0  0  0  0
 20 40  1  0  0  0  0
 21 23  2  0  0  0  0
 21 41  1  0  0  0  0
 22 49  1  0  0  0  0
 23 42  1  0  0  0  0
 24 25  2  0  0  0  0
 24 57  1  0  0  0  0
 25 58  1  0  0  0  0
 26 80  1  0  0  0  0
 27 81  1  0  0  0  0
 28 30  2  0  0  0  0
 28 80  1  0  0  0  0
 29 82  1  0  0  0  0
 30 83  1  0  0  0  0
 31 84  1  0  0  0  0
 32 63  2  0  0  0  0
 33 64  1  0  0  0  0
 33 67  1  0  0  0  0
 34 68  1  0  0  0  0
 34 74  2  0  0  0  0
 35 50  1  0  0  0  0
 35 69  1  0  0  0  0
 35 75  2  0  0  0  0
 36 60  1  0  0  0  0
 36 65  1  0  0  0  0
 36 76  2  0  0  0  0
 37 59  1  0  0  0  0
 37 70  1  0  0  0  0
 37 77  2  0  0  0  0
 38 61  1  0  0  0  0
 38 71  1  0  0  0  0
 38 78  2  0  0  0  0
 39 66  1  0  0  0  0
 39 72  1  0  0  0  0
 39 79  2  0  0  0  0
 40 43  1  0  0  0  0
 41 50  1  0  0  0  0
 42 65  1  0  0  0  0
 43 45  1  0  0  0  0
 44 46  1  0  0  0  0
 44 47  1  0  0  0  0
 45 49  1  0  0  0  0
 46 51  1  0  0  0  0
 47 66  1  0  0  0  0
 48 51  1  0  0  0  0
 48 66  1  0  0  0  0
 49 69  1  0  0  0  0
 50 65  1  0  0  0  0
 51 64  1  0  0  0  0
 52 61  1  0  0  0  0
 53 62  1  0  0  0  0
 54 62  1  0  0  0  0
 55 62  1  0  0  0  0
 56 73  1  0  0  0  0
 57 70  1  0  0  0  0
 58 72  1  0  0  0  0
 59 81  1  0  0  0  0
 60 62  1  0  0  0  0
 60 71  1  0  0  0  0
 61 73  1  0  0  0  0
 63 64  1  0  0  0  0
M  CHG  1  73   1
M  ISO  4  39 100  59 101  72 100  81 101
M  END
> <Batch ID>
0046

> <Smiles>
CNC(C)C(=O)NC(C(=O)N1Cc2cc([101O:1][101CH2:1]C(=O)NCc3ccc(Cl)cc3C[100NH:0][100C:0](=O)N3CCCC(n4nc(-c5ccc(Oc6ccc(F)cc6F)cc5)c(C(N)=O)c4N)C3)ccc2CC1C(=O)NC1CCCc2ccccc21)C(C)(C)C

> <Shape>
0.195

> <Color>
0.075

> <Negative vol penalty>
0.000

$$$$

  -OEChem-04042322233D

 87 96  0     1  0  0  0  0  0999 V2000
  -23.9317  -38.0754   24.0751 C   0  0  0  0  0  0  0  0  0  0  0  0
  -24.0777  -37.5018   22.8171 C   0  0  0  0  0  0  0  0  0  0  0  0
  -23.7344   -8.4130   19.0972 C   0  0  0  0  0  0  0  0  0  0  0  0
  -24.6220   -8.8753   21.2962 C   0  0  0  0  0  0  0  0  0  0  0  0
  -24.2801  -37.3499   25.2124 C   0  0  0  0  0  0  0  0  0  0  0  0
  -24.5609  -36.1983   22.6966 C   0  0  0  0  0  0  0  0  0  0  0  0
  -26.9122  -29.5323   19.0555 C   0  0  0  0  0  0  0  0  0  0  0  0
  -25.0739  -19.8462   18.0030 C   0  0  0  0  0  0  0  0  0  0  0  0
  -25.6473  -18.5769   18.0786 C   0  0  0  0  0  0  0  0  0  0  0  0
  -22.6159   -7.8124   19.6749 C   0  0  0  0  0  0  0  0  0  0  0  0
  -23.5035   -8.2747   21.8739 C   0  0  0  0  0  0  0  0  0  0  0  0
  -27.6576  -28.3683   19.2382 C   0  0  0  0  0  0  0  0  0  0  0  0
  -21.0545   -6.5434   23.9270 C   0  0  0  0  0  0  0  0  0  0  0  0
  -21.2667   -5.6626   24.9875 C   0  0  0  0  0  0  0  0  0  0  0  0
  -26.3261  -27.8270   21.1756 C   0  0  0  0  0  0  0  0  0  0  0  0
  -22.6100   -4.2582   23.5522 C   0  0  0  0  0  0  0  0  0  0  0  0
  -24.7375   -8.9444   19.9078 C   0  0  0  0  0  0  0  0  0  0  0  0
  -26.8272   -8.9657   18.4449 C   0  0  0  0  0  0  0  0  0  0  0  0
  -24.7794  -36.0415   25.1042 C   0  0  0  0  0  0  0  0  0  0  0  0
  -25.8735  -29.8584   19.9394 C   0  0  0  0  0  0  0  0  0  0  0  0
  -24.8954  -35.4412   23.8340 C   0  0  0  0  0  0  0  0  0  0  0  0
  -25.5674  -28.9944   21.0004 C   0  0  0  0  0  0  0  0  0  0  0  0
  -25.8822  -20.9814   18.0636 C   0  0  0  0  0  0  0  0  0  0  0  0
  -27.2639  -20.8474   18.1999 C   0  0  0  0  0  0  0  0  0  0  0  0
  -27.0290  -18.4429   18.2150 C   0  0  0  0  0  0  0  0  0  0  0  0
  -22.5004   -7.7433   21.0633 C   0  0  0  0  0  0  0  0  0  0  0  0
  -27.3665  -27.5169   20.3001 C   0  0  0  0  0  0  0  0  0  0  0  0
  -21.6200   -6.2816   22.6790 C   0  0  0  0  0  0  0  0  0  0  0  0
  -22.0445   -4.5200   24.8001 C   0  0  0  0  0  0  0  0  0  0  0  0
  -22.3978   -5.1390   22.4916 C   0  0  0  0  0  0  0  0  0  0  0  0
  -27.8373  -19.5781   18.2756 C   0  0  0  0  0  0  0  0  0  0  0  0
  -25.8935   -9.5645   19.3117 C   0  0  0  0  0  0  0  0  0  0  0  0
  -27.7251   -9.9662   18.1633 C   0  0  0  0  0  0  0  0  0  0  0  0
  -27.8886  -24.3232   19.2647 C   0  0  0  0  0  0  0  0  0  0  0  0
  -26.8783   -7.6250   17.9393 C   0  0  0  0  0  0  0  0  0  0  0  0
  -25.3019  -32.2617   21.9396 C   0  0  0  0  0  0  0  0  0  0  0  0
  -22.4382  -30.7781   22.2868 C   0  0  0  0  0  0  0  0  0  0  0  0
  -21.2517  -27.3860   22.6079 C   0  0  0  0  0  0  0  0  0  0  0  0
  -26.8884  -15.9202   18.2431 C   0  0  0  0  0  0  0  0  0  0  0  0
  -25.1337  -35.2988   26.3684 C   0  0  0  0  0  0  0  0  0  0  0  0
  -25.0616  -31.1042   19.7129 C   0  0  0  0  0  0  0  0  0  0  0  0
  -24.4492  -29.2887   21.9655 C   0  0  0  0  0  0  0  0  0  0  0  0
  -26.0466  -34.1027   26.1193 C   0  0  0  0  0  0  0  0  0  0  0  0
  -26.8622  -23.1116   21.7275 C   0  0  0  0  0  0  0  0  0  0  0  0
  -29.0441  -13.8840   20.6785 C   0  0  0  0  0  0  0  0  0  0  0  0
  -25.4871  -33.2477   24.9920 C   0  0  0  0  0  0  0  0  0  0  0  0
  -27.5491  -24.4601   21.7815 C   0  0  0  0  0  0  0  0  0  0  0  0
  -29.0251  -12.5337   19.9658 C   0  0  0  0  0  0  0  0  0  0  0  0
  -27.5067  -22.2530   20.6540 C   0  0  0  0  0  0  0  0  0  0  0  0
  -28.7651  -15.0422   19.7289 C   0  0  0  0  0  0  0  0  0  0  0  0
  -26.8846  -13.5557   19.0149 C   0  0  0  0  0  0  0  0  0  0  0  0
  -25.4477  -34.0360   23.6767 C   0  0  1  0  0  0  0  0  0  0  0  0
  -27.3878  -25.1507   20.4416 C   0  0  1  0  0  0  0  0  0  1  0  0
  -24.3606  -31.5980   20.9747 C   0  0  1  0  0  0  0  0  0  0  0  0
  -27.9303  -12.4373   18.8848 C   0  0  2  0  0  0  0  0  0  0  0  0
  -25.2406  -22.3281   17.9803 C   0  0  0  0  0  0  0  0  0  0  0  0
  -19.0388  -26.3677   22.0050 C   0  0  0  0  0  0  0  0  0  0  0  0
  -21.7163  -31.3342   25.1988 C   0  0  0  0  0  0  0  0  0  0  0  0
  -20.4863  -29.1539   25.2375 C   0  0  0  0  0  0  0  0  0  0  0  0
  -19.7560  -30.9685   23.6896 C   0  0  0  0  0  0  0  0  0  0  0  0
  -22.5301  -25.3325   20.9026 C   0  0  0  0  0  0  0  0  0  0  0  0
  -28.1141  -22.0832   18.2627 C   0  0  0  0  0  0  0  0  0  0  0  0
  -21.8925  -29.7080   23.2012 C   0  0  1  0  0  0  0  0  0  0  0  0
  -20.4789  -26.5915   21.5705 C   0  0  2  0  0  0  0  0  0  0  0  0
  -20.9903  -30.2921   24.3248 C   0  0  0  0  0  0  0  0  0  0  0  0
  -26.1724  -10.8460   19.5643 N   0  0  0  0  0  0  0  0  0  0  0  0
  -27.2917  -11.0607   18.8521 N   0  0  0  0  0  0  0  0  0  0  0  0
  -27.7499  -22.9391   19.3840 N   0  0  0  0  0  0  0  0  0  0  0  0
  -23.6882  -30.5220   21.7057 N   0  0  0  0  0  0  0  0  0  0  0  0
  -27.5154  -14.8800   18.9719 N   0  0  0  0  0  0  0  0  0  0  0  0
  -28.8353  -10.0077   17.3964 N   0  0  0  0  0  0  0  0  0  0  0  0
  -27.5838   -6.6610   18.6723 N   0  0  0  0  0  0  0  0  0  0  0  0
  -27.5744  -17.1367   18.2895 N   0  0  0  0  0  0  0  0  0  0  0  0
  -24.7228  -33.2687   22.6880 N   0  0  0  0  0  0  0  0  0  0  0  0
  -21.2230  -28.7384   22.3408 N   0  0  0  0  0  0  0  0  0  0  0  0
  -21.1169  -25.2620   21.3553 N   0  3  0  0  0  0  0  0  0  0  0  0
  -28.3224  -24.8875   18.2569 O   0  0  0  0  0  0  0  0  0  0  0  0
  -26.3290   -7.2955   16.8608 O   0  0  0  0  0  0  0  0  0  0  0  0
  -26.4669  -31.8869   22.0017 O   0  0  0  0  0  0  0  0  0  0  0  0
  -21.7764  -31.8002   22.0896 O   0  0  0  0  0  0  0  0  0  0  0  0
  -21.8205  -26.8598   23.5618 O   0  0  0  0  0  0  0  0  0  0  0  0
  -25.8393  -15.7353   17.6227 O   0  0  0  0  0  0  0  0  0  0  0  0
  -21.4090   -7.1575   21.6274 O   0  0  0  0  0  0  0  0  0  0  0  0
  -28.0928  -26.3805   20.4811 O   0  0  0  0  0  0  0  0  0  1  0  0
  -22.2495   -3.6750   25.8190 F   0  0  0  0  0  0  0  0  0  0  0  0
  -22.9446   -4.8828   21.2954 F   0  0  0  0  0  0  0  0  0  0  0  0
  -29.5554  -19.4137   18.4456 Cl  0  0  0  0  0  0  0  0  0  0  0  0
  1  2  1  0  0  0  0
  1  5  2  0  0  0  0
  2  6  2  0  0  0  0
  3 10  2  0  0  0  0
  3 17  1  0  0  0  0
  4 11  1  0  0  0  0
  4 17  2  0  0  0  0
  5 19  1  0  0  0  0
  6 21  1  0  0  0  0
  7 12  2  0  0  0  0
  7 20  1  0  0  0  0
  8  9  1  0  0  0  0
  8 23  2  0  0  0  0
  9 25  2  0  0  0  0
 10 26  1  0  0  0  0
 11 26  2  0  0  0  0
 12 27  1  0  0  0  0
 13 14  2  0  0  0  0
 13 28  1  0  0  0  0
 14 29  1  0  0  0  0
 15 22  1  0  0  0  0
 15 27  2  0  0  0  0
 16 29  2  0  0  0  0
 16 30  1  0  0  0  0
 17 32  1  0  0  0  0
 18 32  1  0  0  0  0
 18 33  2  0  0  0  0
 18 35  1  0  0  0  0
 19 21  2  0  0  0  0
 19 40  1  0  0  0  0
 20 22  2  0  0  0  0
 20 41  1  0  0  0  0
 21 52  1  0  0  0  0
 22 42  1  0  0  0  0
 23 24  1  0  0  0  0
 23 56  1  0  0  0  0
 24 31  2  0  0  0  0
 24 62  1  0  0  0  0
 25 31  1  0  0  0  0
 25 73  1  0  0  0  0
 26 83  1  0  0  0  0
 27 84  1  0  0  0  0
 28 30  2  0  0  0  0
 28 83  1  0  0  0  0
 29 85  1  0  0  0  0
 30 86  1  0  0  0  0
 31 87  1  0  0  0  0
 32 66  2  0  0  0  0
 33 67  1  0  0  0  0
 33 71  1  0  0  0  0
 34 53  1  0  0  0  0
 34 68  1  0  0  0  0
 34 77  2  0  0  0  0
 35 72  1  0  0  0  0
 35 78  2  0  0  0  0
 36 54  1  0  0  0  0
 36 74  1  0  0  0  0
 36 79  2  0  0  0  0
 37 63  1  0  0  0  0
 37 69  1  0  0  0  0
 37 80  2  0  0  0  0
 38 64  1  0  0  0  0
 38 75  1  0  0  0  0
 38 81  2  0  0  0  0
 39 70  1  0  0  0  0
 39 73  1  0  0  0  0
 39 82  2  0  0  0  0
 40 43  1  0  0  0  0
 41 54  1  0  0  0  0
 42 69  1  0  0  0  0
 43 46  1  0  0  0  0
 44 47  1  0  0  0  0
 44 49  1  0  0  0  0
 45 48  1  0  0  0  0
 45 50  1  0  0  0  0
 46 52  1  0  0  0  0
 47 53  1  0  0  0  0
 48 55  1  0  0  0  0
 49 68  1  0  0  0  0
 50 70  1  0  0  0  0
 51 55  1  0  0  0  0
 51 70  1  0  0  0  0
 52 74  1  0  0  0  0
 53 84  1  0  0  0  0
 54 69  1  0  0  0  0
 55 67  1  0  0  0  0
 57 64  1  0  0  0  0
 58 65  1  0  0  0  0
 59 65  1  0  0  0  0
 60 65  1  0  0  0  0
 61 76  1  0  0  0  0
 62 68  1  0  0  0  0
 63 65  1  0  0  0  0
 63 75  1  0  0  0  0
 64 76  1  0  0  0  0
 66 67  1  0  0  0  0
M  CHG  1  76   1
M  ISO  4  39 100  53 101  73 100  84 101
M  END
> <Batch ID>
0046

> <Smiles>
CNC(C)C(=O)NC(C(=O)N1Cc2cc([101O:1][101CH:1]3CCCN(Cc4c(C)ccc([100NH:0][100C:0](=O)N5CCCC(n6nc(-c7ccc(Oc8ccc(F)cc8F)cc7)c(C(N)=O)c6N)C5)c4Cl)C3=O)ccc2CC1C(=O)NC1CCCc2ccccc21)C(C)(C)C

> <Shape>
0.302

> <Color>
0.104

> <Negative vol penalty>
0.000

$$$$

  -OEChem-04042322233D

 87 96  0     1  0  0  0  0  0999 V2000
  -17.8667  -24.7031   21.3489 C   0  0  0  0  0  0  0  0  0  0  0  0
  -19.1941  -24.5637   20.9565 C   0  0  0  0  0  0  0  0  0  0  0  0
  -24.0808  -13.7335   19.7599 C   0  0  0  0  0  0  0  0  0  0  0  0
  -26.4496  -13.8099   20.2288 C   0  0  0  0  0  0  0  0  0  0  0  0
  -17.4628  -25.8411   22.0459 C   0  0  0  0  0  0  0  0  0  0  0  0
  -20.1183  -25.5629   21.2600 C   0  0  0  0  0  0  0  0  0  0  0  0
  -24.4813  -23.7007   23.0323 C   0  0  0  0  0  0  0  0  0  0  0  0
  -24.1081  -12.3418   19.8483 C   0  0  0  0  0  0  0  0  0  0  0  0
  -26.4770  -12.4181   20.3172 C   0  0  0  0  0  0  0  0  0  0  0  0
  -25.3722  -23.1697   22.1006 C   0  0  0  0  0  0  0  0  0  0  0  0
  -23.4828   -8.7902   20.3073 C   0  0  0  0  0  0  0  0  0  0  0  0
  -22.4677   -8.1664   21.0325 C   0  0  0  0  0  0  0  0  0  0  0  0
  -34.3073  -19.8861   19.4175 C   0  0  0  0  0  0  0  0  0  0  0  0
  -33.8695  -19.6618   18.1123 C   0  0  0  0  0  0  0  0  0  0  0  0
  -26.6479  -25.2161   22.1631 C   0  0  0  0  0  0  0  0  0  0  0  0
  -23.1392   -9.3760   23.0132 C   0  0  0  0  0  0  0  0  0  0  0  0
  -25.2515  -14.4676   19.9501 C   0  0  0  0  0  0  0  0  0  0  0  0
  -24.4675  -16.7931   20.6465 C   0  0  0  0  0  0  0  0  0  0  0  0
  -18.3845  -26.8503   22.3664 C   0  0  0  0  0  0  0  0  0  0  0  0
  -24.6612  -24.9996   23.5291 C   0  0  0  0  0  0  0  0  0  0  0  0
  -19.7260  -26.7161   21.9607 C   0  0  0  0  0  0  0  0  0  0  0  0
  -25.7593  -25.7603   23.1030 C   0  0  0  0  0  0  0  0  0  0  0  0
  -32.0143  -20.0801   20.1534 C   0  0  0  0  0  0  0  0  0  0  0  0
  -31.5764  -19.8558   18.8482 C   0  0  0  0  0  0  0  0  0  0  0  0
  -25.3062  -11.6840   20.1270 C   0  0  0  0  0  0  0  0  0  0  0  0
  -26.4540  -23.9285   21.6637 C   0  0  0  0  0  0  0  0  0  0  0  0
  -24.3263   -9.7069   20.9351 C   0  0  0  0  0  0  0  0  0  0  0  0
  -22.2958   -8.4593   22.3854 C   0  0  0  0  0  0  0  0  0  0  0  0
  -33.3797  -20.0951   20.4381 C   0  0  0  0  0  0  0  0  0  0  0  0
  -32.5040  -19.6467   17.8276 C   0  0  0  0  0  0  0  0  0  0  0  0
  -24.1545   -9.9998   22.2880 C   0  0  0  0  0  0  0  0  0  0  0  0
  -25.2241  -15.9053   19.8583 C   0  0  0  0  0  0  0  0  0  0  0  0
  -24.7927  -18.0390   20.1685 C   0  0  0  0  0  0  0  0  0  0  0  0
  -29.0789  -21.8322   21.1278 C   0  0  0  0  0  0  0  0  0  0  0  0
  -23.5525  -16.5164   21.7151 C   0  0  0  0  0  0  0  0  0  0  0  0
  -22.9673  -27.6880   23.4449 C   0  0  0  0  0  0  0  0  0  0  0  0
  -25.2972  -28.7592   25.4314 C   0  0  0  0  0  0  0  0  0  0  0  0
  -28.8871  -28.4873   25.6675 C   0  0  0  0  0  0  0  0  0  0  0  0
  -29.5903  -20.2007   17.3374 C   0  0  0  0  0  0  0  0  0  0  0  0
  -17.8911  -28.0840   23.0799 C   0  0  0  0  0  0  0  0  0  0  0  0
  -23.7063  -25.5479   24.5538 C   0  0  0  0  0  0  0  0  0  0  0  0
  -26.0084  -27.1525   23.6209 C   0  0  0  0  0  0  0  0  0  0  0  0
  -19.0106  -28.9236   23.6898 C   0  0  0  0  0  0  0  0  0  0  0  0
  -31.0492  -23.9469   20.5222 C   0  0  0  0  0  0  0  0  0  0  0  0
  -26.2252  -20.2616   16.1757 C   0  0  0  0  0  0  0  0  0  0  0  0
  -20.1433  -29.1132   22.6858 C   0  0  0  0  0  0  0  0  0  0  0  0
  -29.5647  -24.0885   20.1911 C   0  0  0  0  0  0  0  0  0  0  0  0
  -25.5164  -19.2366   17.0640 C   0  0  0  0  0  0  0  0  0  0  0  0
  -31.3475  -22.7762   21.4547 C   0  0  0  0  0  0  0  0  0  0  0  0
  -27.6487  -19.8264   15.8323 C   0  0  0  0  0  0  0  0  0  0  0  0
  -27.7789  -18.4556   17.8752 C   0  0  0  0  0  0  0  0  0  0  0  0
  -20.7633  -27.7668   22.2929 C   0  0  1  0  0  0  0  0  0  0  0  0
  -28.6802  -23.3016   21.1497 C   0  0  1  0  0  0  0  0  0  1  0  0
  -23.6962  -27.0726   24.6057 C   0  0  1  0  0  0  0  0  0  0  0  0
  -26.3642  -18.8810   18.3011 C   0  0  2  0  0  0  0  0  0  0  0  0
  -30.4056  -28.6182   27.6611 C   0  0  0  0  0  0  0  0  0  0  0  0
  -25.5430  -31.7080   24.6872 C   0  0  0  0  0  0  0  0  0  0  0  0
  -27.9630  -31.5938   25.3187 C   0  0  0  0  0  0  0  0  0  0  0  0
  -26.2059  -31.1664   27.0370 C   0  0  0  0  0  0  0  0  0  0  0  0
  -30.0921  -25.8514   25.0683 C   0  0  0  0  0  0  0  0  0  0  0  0
  -31.0360  -20.3089   21.2691 C   0  0  0  0  0  0  0  0  0  0  0  0
  -26.6339  -29.4354   25.2447 C   0  0  1  0  0  0  0  0  0  0  0  0
  -29.6728  -27.6969   26.6983 C   0  0  2  0  0  0  0  0  0  0  0  0
  -26.5758  -30.9583   25.5522 C   0  0  0  0  0  0  0  0  0  0  0  0
  -25.9734  -16.5338   18.9486 N   0  0  0  0  0  0  0  0  0  0  0  0
  -25.6891  -17.8298   19.1621 N   0  0  0  0  0  0  0  0  0  0  0  0
  -30.4602  -21.6424   21.2226 N   0  0  0  0  0  0  0  0  0  0  0  0
  -25.0433  -27.6466   24.6168 N   0  0  0  0  0  0  0  0  0  0  0  0
  -28.3934  -19.5098   17.0530 N   0  0  0  0  0  0  0  0  0  0  0  0
  -24.3964  -19.2821   20.5150 N   0  0  0  0  0  0  0  0  0  0  0  0
  -23.3343  -15.1805   22.0787 N   0  0  0  0  0  0  0  0  0  0  0  0
  -30.1932  -19.8382   18.5414 N   0  0  0  0  0  0  0  0  0  0  0  0
  -21.6473  -27.2937   23.3365 N   0  0  0  0  0  0  0  0  0  0  0  0
  -27.5842  -28.6954   26.0680 N   0  0  0  0  0  0  0  0  0  0  0  0
  -30.6769  -26.8243   26.0267 N   0  3  0  0  0  0  0  0  0  0  0  0
  -28.2459  -20.9313   21.0465 O   0  0  0  0  0  0  0  0  0  0  0  0
  -22.9341  -17.4257   22.3185 O   0  0  0  0  0  0  0  0  0  0  0  0
  -23.5581  -28.4643   22.7033 O   0  0  0  0  0  0  0  0  0  0  0  0
  -24.5102  -29.1975   26.2742 O   0  0  0  0  0  0  0  0  0  0  0  0
  -29.3809  -28.8839   24.6142 O   0  0  0  0  0  0  0  0  0  0  0  0
  -30.0324  -21.0707   16.5826 O   0  0  0  0  0  0  0  0  0  0  0  0
  -25.3332  -10.3260   20.2136 O   0  0  0  0  0  0  0  0  0  0  0  0
  -27.3247  -23.4129   20.7538 O   0  0  0  0  0  0  0  0  0  1  0  0
  -21.3200   -7.8613   23.0813 F   0  0  0  0  0  0  0  0  0  0  0  0
  -33.8114  -20.3100   21.6888 F   0  0  0  0  0  0  0  0  0  0  0  0
  -32.0960  -19.4303   16.5690 F   0  0  0  0  0  0  0  0  0  0  0  0
  -24.9609  -10.8805   22.8962 F   0  0  0  0  0  0  0  0  0  0  0  0
  1  2  1  0  0  0  0
  1  5  2  0  0  0  0
  2  6  2  0  0  0  0
  3  8  2  0  0  0  0
  3 17  1  0  0  0  0
  4  9  1  0  0  0  0
  4 17  2  0  0  0  0
  5 19  1  0  0  0  0
  6 21  1  0  0  0  0
  7 10  2  0  0  0  0
  7 20  1  0  0  0  0
  8 25  1  0  0  0  0
  9 25  2  0  0  0  0
 10 26  1  0  0  0  0
 11 12  2  0  0  0  0
 11 27  1  0  0  0  0
 12 28  1  0  0  0  0
 13 14  1  0  0  0  0
 13 29  2  0  0  0  0
 14 30  2  0  0  0  0
 15 22  1  0  0  0  0
 15 26  2  0  0  0  0
 16 28  2  0  0  0  0
 16 31  1  0  0  0  0
 17 32  1  0  0  0  0
 18 32  1  0  0  0  0
 18 33  2  0  0  0  0
 18 35  1  0  0  0  0
 19 21  2  0  0  0  0
 19 40  1  0  0  0  0
 20 22  2  0  0  0  0
 20 41  1  0  0  0  0
 21 52  1  0  0  0  0
 22 42  1  0  0  0  0
 23 24  2  0  0  0  0
 23 29  1  0  0  0  0
 23 61  1  0  0  0  0
 24 30  1  0  0  0  0
 24 72  1  0  0  0  0
 25 82  1  0  0  0  0
 26 83  1  0  0  0  0
 27 31  2  0  0  0  0
 27 82  1  0  0  0  0
 28 84  1  0  0  0  0
 29 85  1  0  0  0  0
 30 86  1  0  0  0  0
 31 87  1  0  0  0  0
 32 65  2  0  0  0  0
 33 66  1  0  0  0  0
 33 70  1  0  0  0  0
 34 53  1  0  0  0  0
 34 67  1  0  0  0  0
 34 76  2  0  0  0  0
 35 71  1  0  0  0  0
 35 77  2  0  0  0  0
 36 54  1  0  0  0  0
 36 73  1  0  0  0  0
 36 78  2  0  0  0  0
 37 62  1  0  0  0  0
 37 68  1  0  0  0  0
 37 79  2  0  0  0  0
 38 63  1  0  0  0  0
 38 74  1  0  0  0  0
 38 80  2  0  0  0  0
 39 69  1  0  0  0  0
 39 72  1  0  0  0  0
 39 81  2  0  0  0  0
 40 43  1  0  0  0  0
 41 54  1  0  0  0  0
 42 68  1  0  0  0  0
 43 46  1  0  0  0  0
 44 47  1  0  0  0  0
 44 49  1  0  0  0  0
 45 48  1  0  0  0  0
 45 50  1  0  0  0  0
 46 52  1  0  0  0  0
 47 53  1  0  0  0  0
 48 55  1  0  0  0  0
 49 67  1  0  0  0  0
 50 69  1  0  0  0  0
 51 55  1  0  0  0  0
 51 69  1  0  0  0  0
 52 73  1  0  0  0  0
 53 83  1  0  0  0  0
 54 68  1  0  0  0  0
 55 66  1  0  0  0  0
 56 63  1  0  0  0  0
 57 64  1  0  0  0  0
 58 64  1  0  0  0  0
 59 64  1  0  0  0  0
 60 75  1  0  0  0  0
 61 67  1  0  0  0  0
 62 64  1  0  0  0  0
 62 74  1  0  0  0  0
 63 75  1  0  0  0  0
 65 66  1  0  0  0  0
M  CHG  1  75   1
M  ISO  4  39 100  53 101  72 100  83 101
M  END
> <Batch ID>
0046

> <Smiles>
CNC(C)C(=O)NC(C(=O)N1Cc2cc([101O:1][101CH:1]3CCCN(Cc4c(F)ccc(F)c4[100NH:0][100C:0](=O)N4CCCC(n5nc(-c6ccc(Oc7ccc(F)cc7F)cc6)c(C(N)=O)c5N)C4)C3=O)ccc2CC1C(=O)NC1CCCc2ccccc21)C(C)(C)C

> <Shape>
0.204

> <Color>
0.077

> <Negative vol penalty>
0.000

$$$$

  -OEChem-04042322233D

 87 96  0     1  0  0  0  0  0999 V2000
  -24.2415   -6.8081   24.2495 C   0  0  0  0  0  0  0  0  0  0  0  0
  -25.1626   -7.8325   24.4432 C   0  0  0  0  0  0  0  0  0  0  0  0
  -28.8642  -20.1945   16.7114 C   0  0  0  0  0  0  0  0  0  0  0  0
  -25.1584  -29.7601   23.0546 C   0  0  0  0  0  0  0  0  0  0  0  0
  -24.6720  -30.9237   20.9939 C   0  0  0  0  0  0  0  0  0  0  0  0
  -23.4467   -6.7943   23.1041 C   0  0  0  0  0  0  0  0  0  0  0  0
  -25.2902   -8.8432   23.4910 C   0  0  0  0  0  0  0  0  0  0  0  0
  -26.5647  -14.7422   24.5317 C   0  0  0  0  0  0  0  0  0  0  0  0
  -29.8299  -19.9273   17.6817 C   0  0  0  0  0  0  0  0  0  0  0  0
  -27.7738  -21.0085   17.0182 C   0  0  0  0  0  0  0  0  0  0  0  0
  -24.5183  -30.7685   23.7751 C   0  0  0  0  0  0  0  0  0  0  0  0
  -24.0319  -31.9321   21.7144 C   0  0  0  0  0  0  0  0  0  0  0  0
  -27.7500  -15.4726   24.4597 C   0  0  0  0  0  0  0  0  0  0  0  0
  -24.9185  -34.6282   23.5517 C   0  0  0  0  0  0  0  0  0  0  0  0
  -25.2024  -35.9500   23.2085 C   0  0  0  0  0  0  0  0  0  0  0  0
  -27.1718  -16.1795   22.2270 C   0  0  0  0  0  0  0  0  0  0  0  0
  -22.8705  -36.3173   22.6939 C   0  0  0  0  0  0  0  0  0  0  0  0
  -25.2352  -29.8377   21.6640 C   0  0  0  0  0  0  0  0  0  0  0  0
  -28.6149  -21.2880   19.2657 C   0  0  0  0  0  0  0  0  0  0  0  0
  -27.2410  -28.3939   21.0317 C   0  0  0  0  0  0  0  0  0  0  0  0
  -23.5577   -7.8105   22.1421 C   0  0  0  0  0  0  0  0  0  0  0  0
  -25.6776  -14.7161   23.4460 C   0  0  0  0  0  0  0  0  0  0  0  0
  -24.4970   -8.8422   22.3310 C   0  0  0  0  0  0  0  0  0  0  0  0
  -25.9746  -15.4501   22.2887 C   0  0  0  0  0  0  0  0  0  0  0  0
  -29.7053  -20.4740   18.9589 C   0  0  0  0  0  0  0  0  0  0  0  0
  -27.6491  -21.5552   18.2954 C   0  0  0  0  0  0  0  0  0  0  0  0
  -23.9551  -31.8545   23.1050 C   0  0  0  0  0  0  0  0  0  0  0  0
  -28.0551  -16.1890   23.3062 C   0  0  0  0  0  0  0  0  0  0  0  0
  -23.6106  -34.1509   23.4659 C   0  0  0  0  0  0  0  0  0  0  0  0
  -24.1784  -36.7946   22.7797 C   0  0  0  0  0  0  0  0  0  0  0  0
  -22.5866  -34.9954   23.0370 C   0  0  0  0  0  0  0  0  0  0  0  0
  -25.8968  -28.7967   20.9193 C   0  0  0  0  0  0  0  0  0  0  0  0
  -27.3728  -27.3784   20.1164 C   0  0  0  0  0  0  0  0  0  0  0  0
  -29.8324  -18.5354   21.6011 C   0  0  0  0  0  0  0  0  0  0  0  0
  -28.9698  -23.0408   20.9440 C   0  0  0  0  0  0  0  0  0  0  0  0
  -28.4897  -21.8560   20.6059 C   0  0  0  0  0  0  0  0  0  0  0  0
  -28.2778  -28.8930   21.8870 C   0  0  0  0  0  0  0  0  0  0  0  0
  -24.5473  -12.4483   21.5268 C   0  0  0  0  0  0  0  0  0  0  0  0
  -22.6994  -14.8653   20.4020 C   0  0  0  0  0  0  0  0  0  0  0  0
  -22.2645  -18.2235   19.9777 C   0  0  0  0  0  0  0  0  0  0  0  0
  -25.4988  -22.7250   17.7003 C   0  0  0  0  0  0  0  0  0  0  0  0
  -22.7103   -7.7274   20.8972 C   0  0  0  0  0  0  0  0  0  0  0  0
  -24.3904  -13.9450   23.5495 C   0  0  0  0  0  0  0  0  0  0  0  0
  -25.0461  -15.4712   21.1030 C   0  0  0  0  0  0  0  0  0  0  0  0
  -22.6433   -9.0380   20.1174 C   0  0  0  0  0  0  0  0  0  0  0  0
  -31.9232  -16.6936   20.6224 C   0  0  0  0  0  0  0  0  0  0  0  0
  -24.2448  -25.8163   16.4561 C   0  0  0  0  0  0  0  0  0  0  0  0
  -24.0364   -9.6406   19.9654 C   0  0  0  0  0  0  0  0  0  0  0  0
  -31.2117  -16.4923   21.9590 C   0  0  0  0  0  0  0  0  0  0  0  0
  -24.6733  -26.8342   17.5156 C   0  0  0  0  0  0  0  0  0  0  0  0
  -31.2423  -17.7270   19.7293 C   0  0  0  0  0  0  0  0  0  0  0  0
  -23.8511  -24.4790   17.0809 C   0  0  0  0  0  0  0  0  0  0  0  0
  -25.2838  -24.9114   19.0379 C   0  0  0  0  0  0  0  0  0  0  0  0
  -24.6473   -9.9697   21.3329 C   0  0  1  0  0  0  0  0  0  0  0  0
  -29.7957  -17.0540   21.9514 C   0  0  1  0  0  0  0  0  0  1  0  0
  -23.8053  -13.5737   22.1904 C   0  0  1  0  0  0  0  0  0  0  0  0
  -25.7515  -26.2534   18.4514 C   0  0  2  0  0  0  0  0  0  0  0  0
  -20.6748  -19.8946   18.9888 C   0  0  0  0  0  0  0  0  0  0  0  0
  -23.7135  -14.1734   17.6086 C   0  0  0  0  0  0  0  0  0  0  0  0
  -22.8761  -16.4003   16.8288 C   0  0  0  0  0  0  0  0  0  0  0  0
  -21.2745  -14.7130   17.7290 C   0  0  0  0  0  0  0  0  0  0  0  0
  -21.7766  -19.4895   22.6080 C   0  0  0  0  0  0  0  0  0  0  0  0
  -30.7671  -20.1630   19.9737 C   0  0  0  0  0  0  0  0  0  0  0  0
  -22.8422  -15.9036   19.3154 C   0  0  1  0  0  0  0  0  0  0  0  0
  -21.0721  -19.1258   20.2394 C   0  0  2  0  0  0  0  0  0  0  0  0
  -22.6952  -15.2958   17.8919 C   0  0  0  0  0  0  0  0  0  0  0  0
  -25.2228  -28.0945   20.0046 N   0  0  0  0  0  0  0  0  0  0  0  0
  -26.1473  -27.2402   19.5338 N   0  0  0  0  0  0  0  0  0  0  0  0
  -30.6415  -18.8125   20.4958 N   0  0  0  0  0  0  0  0  0  0  0  0
  -23.8029  -14.6964   21.2503 N   0  0  0  0  0  0  0  0  0  0  0  0
  -24.9220  -23.9880   17.9510 N   0  0  0  0  0  0  0  0  0  0  0  0
  -28.4163  -26.5990   19.7610 N   0  0  0  0  0  0  0  0  0  0  0  0
  -29.0787  -29.9451   21.4222 N   0  0  0  0  0  0  0  0  0  0  0  0
  -26.5298  -22.3785   18.5730 N   0  0  0  0  0  0  0  0  0  0  0  0
  -24.0784  -11.1917   21.8597 N   0  0  0  0  0  0  0  0  0  0  0  0
  -21.8731  -16.9504   19.6212 N   0  0  0  0  0  0  0  0  0  0  0  0
  -21.3918  -20.1083   21.3134 N   0  3  0  0  0  0  0  0  0  0  0  0
  -29.1950  -19.3724   22.2377 O   0  0  0  0  0  0  0  0  0  0  0  0
  -28.4984  -28.4091   23.0231 O   0  0  0  0  0  0  0  0  0  0  0  0
  -25.4756  -12.7012   20.7679 O   0  0  0  0  0  0  0  0  0  0  0  0
  -21.6449  -14.2326   20.4990 O   0  0  0  0  0  0  0  0  0  0  0  0
  -23.4269  -18.6105   20.0758 O   0  0  0  0  0  0  0  0  0  0  0  0
  -25.1253  -22.0155   16.7627 O   0  0  0  0  0  0  0  0  0  0  0  0
  -23.3302  -32.8385   23.8077 O   0  0  0  0  0  0  0  0  0  0  0  0
  -29.2118  -16.9023   23.2330 O   0  0  0  0  0  0  0  0  0  1  0  0
  -24.4509  -38.0643   22.4516 F   0  0  0  0  0  0  0  0  0  0  0  0
  -21.3280  -34.5428   22.9537 F   0  0  0  0  0  0  0  0  0  0  0  0
  1  2  1  0  0  0  0
  1  6  2  0  0  0  0
  2  7  2  0  0  0  0
  3  9  1  0  0  0  0
  3 10  2  0  0  0  0
  4 11  2  0  0  0  0
  4 18  1  0  0  0  0
  5 12  1  0  0  0  0
  5 18  2  0  0  0  0
  6 21  1  0  0  0  0
  7 23  1  0  0  0  0
  8 13  2  0  0  0  0
  8 22  1  0  0  0  0
  9 25  2  0  0  0  0
 10 26  1  0  0  0  0
 11 27  1  0  0  0  0
 12 27  2  0  0  0  0
 13 28  1  0  0  0  0
 14 15  2  0  0  0  0
 14 29  1  0  0  0  0
 15 30  1  0  0  0  0
 16 24  1  0  0  0  0
 16 28  2  0  0  0  0
 17 30  2  0  0  0  0
 17 31  1  0  0  0  0
 18 32  1  0  0  0  0
 19 25  1  0  0  0  0
 19 26  2  0  0  0  0
 19 36  1  0  0  0  0
 20 32  1  0  0  0  0
 20 33  2  0  0  0  0
 20 37  1  0  0  0  0
 21 23  2  0  0  0  0
 21 42  1  0  0  0  0
 22 24  2  0  0  0  0
 22 43  1  0  0  0  0
 23 54  1  0  0  0  0
 24 44  1  0  0  0  0
 25 63  1  0  0  0  0
 26 74  1  0  0  0  0
 27 84  1  0  0  0  0
 28 85  1  0  0  0  0
 29 31  2  0  0  0  0
 29 84  1  0  0  0  0
 30 86  1  0  0  0  0
 31 87  1  0  0  0  0
 32 67  2  0  0  0  0
 33 68  1  0  0  0  0
 33 72  1  0  0  0  0
 34 55  1  0  0  0  0
 34 69  1  0  0  0  0
 34 78  2  0  0  0  0
 35 36  2  0  0  0  0
 37 73  1  0  0  0  0
 37 79  2  0  0  0  0
 38 56  1  0  0  0  0
 38 75  1  0  0  0  0
 38 80  2  0  0  0  0
 39 64  1  0  0  0  0
 39 70  1  0  0  0  0
 39 81  2  0  0  0  0
 40 65  1  0  0  0  0
 40 76  1  0  0  0  0
 40 82  2  0  0  0  0
 41 71  1  0  0  0  0
 41 74  1  0  0  0  0
 41 83  2  0  0  0  0
 42 45  1  0  0  0  0
 43 56  1  0  0  0  0
 44 70  1  0  0  0  0
 45 48  1  0  0  0  0
 46 49  1  0  0  0  0
 46 51  1  0  0  0  0
 47 50  1  0  0  0  0
 47 52  1  0  0  0  0
 48 54  1  0  0  0  0
 49 55  1  0  0  0  0
 50 57  1  0  0  0  0
 51 69  1  0  0  0  0
 52 71  1  0  0  0  0
 53 57  1  0  0  0  0
 53 71  1  0  0  0  0
 54 75  1  0  0  0  0
 55 85  1  0  0  0  0
 56 70  1  0  0  0  0
 57 68  1  0  0  0  0
 58 65  1  0  0  0  0
 59 66  1  0  0  0  0
 60 66  1  0  0  0  0
 61 66  1  0  0  0  0
 62 77  1  0  0  0  0
 63 69  1  0  0  0  0
 64 66  1  0  0  0  0
 64 76  1  0  0  0  0
 65 77  1  0  0  0  0
 67 68  1  0  0  0  0
M  CHG  1  77   1
M  ISO  4  41 100  55 101  74 100  85 101
M  END
> <Batch ID>
0046

> <Smiles>
C=Cc1c(CN2CCC[101CH:1]([101O:1]c3ccc4c(c3)CN(C(=O)C(NC(=O)C(C)NC)C(C)(C)C)C(C(=O)NC3CCCc5ccccc53)C4)C2=O)cccc1[100NH:0][100C:0](=O)N1CCCC(n2nc(-c3ccc(Oc4ccc(F)cc4F)cc3)c(C(N)=O)c2N)C1

> <Shape>
0.235

> <Color>
0.072

> <Negative vol penalty>
0.000

$$$$

  -OEChem-04042322233D

 88 97  0     1  0  0  0  0  0999 V2000
  -19.0145  -31.1178   23.7364 C   0  0  0  0  0  0  0  0  0  0  0  0
  -20.3826  -30.9665   23.5337 C   0  0  0  0  0  0  0  0  0  0  0  0
  -23.8120   -9.7664   21.7588 C   0  0  0  0  0  0  0  0  0  0  0  0
  -21.7728  -10.5996   20.7665 C   0  0  0  0  0  0  0  0  0  0  0  0
  -18.1516  -30.0521   23.4841 C   0  0  0  0  0  0  0  0  0  0  0  0
  -20.8886  -29.7491   23.0796 C   0  0  0  0  0  0  0  0  0  0  0  0
  -26.1418  -27.0502   19.0255 C   0  0  0  0  0  0  0  0  0  0  0  0
  -23.2725   -8.4804   21.7877 C   0  0  0  0  0  0  0  0  0  0  0  0
  -21.2333   -9.3136   20.7954 C   0  0  0  0  0  0  0  0  0  0  0  0
  -27.1661  -26.1058   19.0782 C   0  0  0  0  0  0  0  0  0  0  0  0
  -21.0997   -6.7337   23.6988 C   0  0  0  0  0  0  0  0  0  0  0  0
  -21.2612   -5.9901   24.8678 C   0  0  0  0  0  0  0  0  0  0  0  0
  -25.5722  -24.3594   18.6001 C   0  0  0  0  0  0  0  0  0  0  0  0
  -24.9484  -21.7926   20.8281 C   0  0  0  0  0  0  0  0  0  0  0  0
  -27.3412  -20.6181   20.0048 C   0  0  0  0  0  0  0  0  0  0  0  0
  -22.4576   -4.2979   23.6259 C   0  0  0  0  0  0  0  0  0  0  0  0
  -23.0621  -10.8260   21.2482 C   0  0  0  0  0  0  0  0  0  0  0  0
  -24.7820  -12.5743   20.5459 C   0  0  0  0  0  0  0  0  0  0  0  0
  -18.6462  -28.8240   23.0175 C   0  0  0  0  0  0  0  0  0  0  0  0
  -24.8211  -26.6543   18.7700 C   0  0  0  0  0  0  0  0  0  0  0  0
  -20.0316  -28.6656   22.8221 C   0  0  0  0  0  0  0  0  0  0  0  0
  -24.5334  -25.3010   18.5420 C   0  0  0  0  0  0  0  0  0  0  0  0
  -24.9271  -20.7038   19.9566 C   0  0  0  0  0  0  0  0  0  0  0  0
  -27.3624  -21.7070   20.8763 C   0  0  0  0  0  0  0  0  0  0  0  0
  -21.9831   -8.2540   21.3060 C   0  0  0  0  0  0  0  0  0  0  0  0
  -26.8809  -24.7598   18.8684 C   0  0  0  0  0  0  0  0  0  0  0  0
  -21.6170   -6.2595   22.4934 C   0  0  0  0  0  0  0  0  0  0  0  0
  -21.9402   -4.7722   24.8313 C   0  0  0  0  0  0  0  0  0  0  0  0
  -22.2960   -5.0416   22.4569 C   0  0  0  0  0  0  0  0  0  0  0  0
  -26.1660  -22.2943   21.2879 C   0  0  0  0  0  0  0  0  0  0  0  0
  -26.1235  -20.1165   19.5450 C   0  0  0  0  0  0  0  0  0  0  0  0
  -23.6187  -12.1547   21.2186 C   0  0  0  0  0  0  0  0  0  0  0  0
  -24.8776  -13.9149   20.8289 C   0  0  0  0  0  0  0  0  0  0  0  0
  -28.9489  -22.2155   22.7116 C   0  0  0  0  0  0  0  0  0  0  0  0
  -25.6945  -11.8197   19.7375 C   0  0  0  0  0  0  0  0  0  0  0  0
  -22.0839  -26.8019   20.3793 C   0  0  0  0  0  0  0  0  0  0  0  0
  -20.8430  -25.6655   17.6060 C   0  0  0  0  0  0  0  0  0  0  0  0
  -21.7498  -23.2041   15.1288 C   0  0  0  0  0  0  0  0  0  0  0  0
  -22.5420  -18.9559   21.3576 C   0  0  0  0  0  0  0  0  0  0  0  0
  -17.6797  -27.6861   22.8039 C   0  0  0  0  0  0  0  0  0  0  0  0
  -23.7319  -27.6885   18.6899 C   0  0  0  0  0  0  0  0  0  0  0  0
  -23.1353  -24.8267   18.2439 C   0  0  0  0  0  0  0  0  0  0  0  0
  -30.3061  -22.7433   23.1400 C   0  0  0  0  0  0  0  0  0  0  0  0
  -18.2556  -26.5468   21.9669 C   0  0  0  0  0  0  0  0  0  0  0  0
  -30.9997  -23.6550   22.1584 C   0  0  0  0  0  0  0  0  0  0  0  0
  -22.3518  -16.7653   24.1579 C   0  0  0  0  0  0  0  0  0  0  0  0
  -19.6549  -26.1822   22.4525 C   0  0  0  0  0  0  0  0  0  0  0  0
  -22.7542  -15.4048   23.5860 C   0  0  0  0  0  0  0  0  0  0  0  0
  -30.9915  -22.9935   20.7997 C   0  0  0  0  0  0  0  0  0  0  0  0
  -21.5370  -17.5801   23.1558 C   0  0  0  0  0  0  0  0  0  0  0  0
  -22.5731  -16.3895   21.2630 C   0  0  0  0  0  0  0  0  0  0  0  0
  -20.6159  -27.3683   22.3067 C   0  0  1  0  0  0  0  0  0  0  0  0
  -22.3406  -27.1111   18.9314 C   0  0  1  0  0  0  0  0  0  0  0  0
  -23.4441  -15.5540   22.2167 C   0  0  2  0  0  0  0  0  0  0  0  0
  -29.5554  -22.7909   20.3082 C   0  0  2  0  0  0  0  0  0  0  0  0
  -21.1801  -23.0580   12.6892 C   0  0  0  0  0  0  0  0  0  0  0  0
  -18.5345  -23.9062   18.5473 C   0  0  0  0  0  0  0  0  0  0  0  0
  -18.9011  -22.4671   16.5317 C   0  0  0  0  0  0  0  0  0  0  0  0
  -18.2513  -24.8593   16.2526 C   0  0  0  0  0  0  0  0  0  0  0  0
  -24.6015  -23.0437   14.3535 C   0  0  0  0  0  0  0  0  0  0  0  0
  -23.6022  -20.1958   19.4873 C   0  0  0  0  0  0  0  0  0  0  0  0
  -28.9800  -24.1167   19.7829 C   0  0  0  0  0  0  0  0  0  1  0  0
  -20.5888  -24.2926   17.0318 C   0  0  1  0  0  0  0  0  0  0  0  0
  -22.2258  -23.4727   13.7125 C   0  0  2  0  0  0  0  0  0  0  0  0
  -19.0901  -23.8861   17.1093 C   0  0  0  0  0  0  0  0  0  0  0  0
  -23.0184  -13.1482   21.8793 N   0  0  0  0  0  0  0  0  0  0  0  0
  -23.8076  -14.2054   21.6232 N   0  0  0  0  0  0  0  0  0  0  0  0
  -28.6488  -22.2043   21.3375 N   0  0  0  0  0  0  0  0  0  0  0  0
  -22.1038  -25.8753   18.1824 N   0  0  0  0  0  0  0  0  0  0  0  0
  -22.2476  -17.6853   21.8791 N   0  0  0  0  0  0  0  0  0  0  0  0
  -25.7717  -14.8618   20.4733 N   0  0  0  0  0  0  0  0  0  0  0  0
  -25.4481  -11.7271   18.3609 N   0  0  0  0  0  0  0  0  0  0  0  0
  -21.0345  -27.5132   20.9289 N   0  0  0  0  0  0  0  0  0  0  0  0
  -21.1344  -24.3086   15.6789 N   0  0  0  0  0  0  0  0  0  0  0  0
  -23.2232  -18.9659   20.1465 N   0  0  0  0  0  0  0  0  0  0  0  0
  -23.4800  -22.7170   13.4355 N   0  3  0  0  0  0  0  0  0  0  0  0
  -28.2398  -21.7274   23.5987 O   0  0  0  0  0  0  0  0  0  0  0  0
  -26.6896  -11.2310   20.2240 O   0  0  0  0  0  0  0  0  0  0  0  0
  -22.7850  -25.9778   20.9546 O   0  0  0  0  0  0  0  0  0  0  0  0
  -19.9582  -26.5224   17.5389 O   0  0  0  0  0  0  0  0  0  0  0  0
  -21.9048  -22.1215   15.6895 O   0  0  0  0  0  0  0  0  0  0  0  0
  -22.2263  -20.0037   21.9315 O   0  0  0  0  0  0  0  0  0  0  0  0
  -21.4565   -6.9993   21.3338 O   0  0  0  0  0  0  0  0  0  0  0  0
  -27.8787  -23.8359   18.9200 O   0  0  0  0  0  0  0  0  0  1  0  0
  -22.0967   -4.0589   25.9542 F   0  0  0  0  0  0  0  0  0  0  0  0
  -22.7963   -4.5813   21.3020 F   0  0  0  0  0  0  0  0  0  0  0  0
  -26.1472  -23.6444   22.3655 Cl  0  0  0  0  0  0  0  0  0  0  0  0
  -26.1354  -18.7687   18.4665 Cl  0  0  0  0  0  0  0  0  0  0  0  0
  1  2  1  0  0  0  0
  1  5  2  0  0  0  0
  2  6  2  0  0  0  0
  3  8  2  0  0  0  0
  3 17  1  0  0  0  0
  4  9  1  0  0  0  0
  4 17  2  0  0  0  0
  5 19  1  0  0  0  0
  6 21  1  0  0  0  0
  7 10  2  0  0  0  0
  7 20  1  0  0  0  0
  8 25  1  0  0  0  0
  9 25  2  0  0  0  0
 10 26  1  0  0  0  0
 11 12  2  0  0  0  0
 11 27  1  0  0  0  0
 12 28  1  0  0  0  0
 13 22  1  0  0  0  0
 13 26  2  0  0  0  0
 14 23  2  0  0  0  0
 14 30  1  0  0  0  0
 15 24  1  0  0  0  0
 15 31  2  0  0  0  0
 16 28  2  0  0  0  0
 16 29  1  0  0  0  0
 17 32  1  0  0  0  0
 18 32  1  0  0  0  0
 18 33  2  0  0  0  0
 18 35  1  0  0  0  0
 19 21  2  0  0  0  0
 19 40  1  0  0  0  0
 20 22  2  0  0  0  0
 20 41  1  0  0  0  0
 21 52  1  0  0  0  0
 22 42  1  0  0  0  0
 23 31  1  0  0  0  0
 23 61  1  0  0  0  0
 24 30  2  0  0  0  0
 24 68  1  0  0  0  0
 25 83  1  0  0  0  0
 26 84  1  0  0  0  0
 27 29  2  0  0  0  0
 27 83  1  0  0  0  0
 28 85  1  0  0  0  0
 29 86  1  0  0  0  0
 30 87  1  0  0  0  0
 31 88  1  0  0  0  0
 32 66  2  0  0  0  0
 33 67  1  0  0  0  0
 33 71  1  0  0  0  0
 34 43  1  0  0  0  0
 34 68  1  0  0  0  0
 34 77  2  0  0  0  0
 35 72  1  0  0  0  0
 35 78  2  0  0  0  0
 36 53  1  0  0  0  0
 36 73  1  0  0  0  0
 36 79  2  0  0  0  0
 37 63  1  0  0  0  0
 37 69  1  0  0  0  0
 37 80  2  0  0  0  0
 38 64  1  0  0  0  0
 38 74  1  0  0  0  0
 38 81  2  0  0  0  0
 39 70  1  0  0  0  0
 39 75  1  0  0  0  0
 39 82  2  0  0  0  0
 40 44  1  0  0  0  0
 41 53  1  0  0  0  0
 42 69  1  0  0  0  0
 43 45  1  0  0  0  0
 44 47  1  0  0  0  0
 45 49  1  0  0  0  0
 46 48  1  0  0  0  0
 46 50  1  0  0  0  0
 47 52  1  0  0  0  0
 48 54  1  0  0  0  0
 49 55  1  0  0  0  0
 50 70  1  0  0  0  0
 51 54  1  0  0  0  0
 51 70  1  0  0  0  0
 52 73  1  0  0  0  0
 53 69  1  0  0  0  0
 54 67  1  0  0  0  0
 55 62  1  0  0  0  0
 55 68  1  0  0  0  0
 56 64  1  0  0  0  0
 57 65  1  0  0  0  0
 58 65  1  0  0  0  0
 59 65  1  0  0  0  0
 60 76  1  0  0  0  0
 61 75  1  0  0  0  0
 62 84  1  0  0  0  0
 63 65  1  0  0  0  0
 63 74  1  0  0  0  0
 64 76  1  0  0  0  0
 66 67  1  0  0  0  0
M  CHG  1  76   1
M  ISO  4  39 100  62 101  75 100  84 101
M  END
> <Batch ID>
0046

> <Smiles>
CNC(C)C(=O)NC(C(=O)N1Cc2cc([101O:1][101CH2:1]C3CCCC(=O)N3c3cc(Cl)c(C[100NH:0][100C:0](=O)N4CCCC(n5nc(-c6ccc(Oc7ccc(F)cc7F)cc6)c(C(N)=O)c5N)C4)cc3Cl)ccc2CC1C(=O)NC1CCCc2ccccc21)C(C)(C)C

> <Shape>
0.228

> <Color>
0.113

> <Negative vol penalty>
0.000

$$$$

  -OEChem-04042322233D

 86 95  0     1  0  0  0  0  0999 V2000
  -37.8876  -28.7132   12.6614 C   0  0  0  0  0  0  0  0  0  0  0  0
  -37.3543  -27.5913   13.2876 C   0  0  0  0  0  0  0  0  0  0  0  0
  -23.1432   -9.8267   19.9961 C   0  0  0  0  0  0  0  0  0  0  0  0
  -23.8501   -9.9587   22.3026 C   0  0  0  0  0  0  0  0  0  0  0  0
  -37.8268  -29.9561   13.2903 C   0  0  0  0  0  0  0  0  0  0  0  0
  -36.7609  -27.7113   14.5438 C   0  0  0  0  0  0  0  0  0  0  0  0
  -32.3730  -25.2040   14.8671 C   0  0  0  0  0  0  0  0  0  0  0  0
  -22.4212   -8.6684   20.2837 C   0  0  0  0  0  0  0  0  0  0  0  0
  -23.1280   -8.8005   22.5902 C   0  0  0  0  0  0  0  0  0  0  0  0
  -32.4404  -23.8221   15.0390 C   0  0  0  0  0  0  0  0  0  0  0  0
  -19.9066   -7.9524   23.1592 C   0  0  0  0  0  0  0  0  0  0  0  0
  -19.1242   -7.9482   24.3139 C   0  0  0  0  0  0  0  0  0  0  0  0
  -32.0293  -24.1018   17.3995 C   0  0  0  0  0  0  0  0  0  0  0  0
  -29.4993  -19.5066   22.1115 C   0  0  0  0  0  0  0  0  0  0  0  0
  -31.0195  -17.8566   20.4534 C   0  0  0  0  0  0  0  0  0  0  0  0
  -20.3937   -6.0781   25.1673 C   0  0  0  0  0  0  0  0  0  0  0  0
  -23.8577  -10.4718   21.0055 C   0  0  0  0  0  0  0  0  0  0  0  0
  -24.1426  -12.9963   20.7746 C   0  0  0  0  0  0  0  0  0  0  0  0
  -37.2237  -30.0932   14.5505 C   0  0  0  0  0  0  0  0  0  0  0  0
  -32.1436  -26.0473   15.9637 C   0  0  0  0  0  0  0  0  0  0  0  0
  -36.6931  -28.9569   15.1907 C   0  0  0  0  0  0  0  0  0  0  0  0
  -31.9568  -25.4938   17.2384 C   0  0  0  0  0  0  0  0  0  0  0  0
  -29.3490  -18.1215   22.1787 C   0  0  0  0  0  0  0  0  0  0  0  0
  -31.1697  -19.2417   20.3862 C   0  0  0  0  0  0  0  0  0  0  0  0
  -30.1091  -17.2965   21.3497 C   0  0  0  0  0  0  0  0  0  0  0  0
  -22.4135   -8.1553   21.5807 C   0  0  0  0  0  0  0  0  0  0  0  0
  -32.2715  -23.2710   16.3058 C   0  0  0  0  0  0  0  0  0  0  0  0
  -20.9325   -7.0194   23.0084 C   0  0  0  0  0  0  0  0  0  0  0  0
  -19.3678   -7.0111   25.3180 C   0  0  0  0  0  0  0  0  0  0  0  0
  -21.1761   -6.0823   24.0125 C   0  0  0  0  0  0  0  0  0  0  0  0
  -30.4096  -20.0667   21.2152 C   0  0  0  0  0  0  0  0  0  0  0  0
  -24.6042  -11.6680   20.7090 C   0  0  0  0  0  0  0  0  0  0  0  0
  -25.2249  -13.7548   20.4004 C   0  0  0  0  0  0  0  0  0  0  0  0
  -31.6995  -20.6680   18.4263 C   0  0  0  0  0  0  0  0  0  0  0  0
  -22.8511  -13.4996   21.1411 C   0  0  0  0  0  0  0  0  0  0  0  0
  -33.7791  -28.3724   17.3860 C   0  0  0  0  0  0  0  0  0  0  0  0
  -31.0529  -28.7030   19.1125 C   0  0  0  0  0  0  0  0  0  0  0  0
  -28.1819  -27.2858   20.2940 C   0  0  0  0  0  0  0  0  0  0  0  0
  -30.6595  -14.9414   20.6446 C   0  0  0  0  0  0  0  0  0  0  0  0
  -37.2239  -31.4487   15.2118 C   0  0  0  0  0  0  0  0  0  0  0  0
  -32.0470  -27.5341   15.7572 C   0  0  0  0  0  0  0  0  0  0  0  0
  -31.6880  -26.3543   18.4449 C   0  0  0  0  0  0  0  0  0  0  0  0
  -36.2441  -31.5579   16.3773 C   0  0  0  0  0  0  0  0  0  0  0  0
  -34.5489  -20.1062   18.8217 C   0  0  0  0  0  0  0  0  0  0  0  0
  -29.6567  -12.3936   18.3686 C   0  0  0  0  0  0  0  0  0  0  0  0
  -36.3653  -30.3433   17.2922 C   0  0  0  0  0  0  0  0  0  0  0  0
  -34.0607  -20.6392   17.4941 C   0  0  0  0  0  0  0  0  0  0  0  0
  -28.2148  -12.0870   18.7799 C   0  0  0  0  0  0  0  0  0  0  0  0
  -33.4815  -19.2219   19.4463 C   0  0  0  0  0  0  0  0  0  0  0  0
  -30.5384  -12.7004   19.5778 C   0  0  0  0  0  0  0  0  0  0  0  0
  -28.5839  -13.4411   20.8817 C   0  0  0  0  0  0  0  0  0  0  0  0
  -36.0192  -29.0512   16.5424 C   0  0  1  0  0  0  0  0  0  0  0  0
  -32.8065  -21.4527   17.7299 C   0  0  1  0  0  0  0  0  0  1  0  0
  -32.3204  -28.3328   17.0279 C   0  0  1  0  0  0  0  0  0  0  0  0
  -27.6426  -13.1895   19.6924 C   0  0  2  0  0  0  0  0  0  0  0  0
  -28.3660  -17.5490   23.1475 C   0  0  0  0  0  0  0  0  0  0  0  0
  -26.1725  -27.7926   21.7091 C   0  0  0  0  0  0  0  0  0  0  0  0
  -32.7628  -28.4497   21.6269 C   0  0  0  0  0  0  0  0  0  0  0  0
  -30.6669  -28.0093   22.9236 C   0  0  0  0  0  0  0  0  0  0  0  0
  -30.9725  -30.1913   21.7539 C   0  0  0  0  0  0  0  0  0  0  0  0
  -26.3273  -26.8011   18.0391 C   0  0  0  0  0  0  0  0  0  0  0  0
  -30.5202  -28.1086   20.3939 C   0  0  1  0  0  0  0  0  0  0  0  0
  -26.7452  -27.7761   20.3004 C   0  0  2  0  0  0  0  0  0  0  0  0
  -31.2376  -28.6734   21.6524 C   0  0  0  0  0  0  0  0  0  0  0  0
  -25.8802  -11.5840   20.3232 N   0  0  0  0  0  0  0  0  0  0  0  0
  -26.2296  -12.8691   20.1430 N   0  0  0  0  0  0  0  0  0  0  0  0
  -32.1212  -19.7900   19.4435 N   0  0  0  0  0  0  0  0  0  0  0  0
  -31.6089  -27.8027   18.1927 N   0  0  0  0  0  0  0  0  0  0  0  0
  -29.9354  -13.7568   20.3934 N   0  0  0  0  0  0  0  0  0  0  0  0
  -25.4055  -15.0862   20.2695 N   0  0  0  0  0  0  0  0  0  0  0  0
  -21.8534  -12.5825   21.4986 N   0  0  0  0  0  0  0  0  0  0  0  0
  -29.9720  -15.8872   21.4044 N   0  0  0  0  0  0  0  0  0  0  0  0
  -34.5850  -28.9159   16.4040 N   0  0  0  0  0  0  0  0  0  0  0  0
  -29.0783  -28.3302   20.3781 N   0  0  0  0  0  0  0  0  0  0  0  0
  -25.8924  -26.8918   19.4567 N   0  3  0  0  0  0  0  0  0  0  0  0
  -30.5259  -20.8707   18.1042 O   0  0  0  0  0  0  0  0  0  0  0  0
  -22.5847  -14.7254   21.1355 O   0  0  0  0  0  0  0  0  0  0  0  0
  -34.1460  -27.9430   18.4736 O   0  0  0  0  0  0  0  0  0  0  0  0
  -30.9720  -29.9205   18.9312 O   0  0  0  0  0  0  0  0  0  0  0  0
  -28.4792  -26.0953   20.2252 O   0  0  0  0  0  0  0  0  0  0  0  0
  -31.7947  -15.1160   20.1942 O   0  0  0  0  0  0  0  0  0  0  0  0
  -21.7089   -7.0253   21.8617 O   0  0  0  0  0  0  0  0  0  0  0  0
  -32.3375  -21.9225   16.4765 O   0  0  0  0  0  0  0  0  0  1  0  0
  -18.6174   -7.0082   26.4275 F   0  0  0  0  0  0  0  0  0  0  0  0
  -22.1610   -5.1842   23.8739 F   0  0  0  0  0  0  0  0  0  0  0  0
  -30.5640  -21.7867   21.1638 Cl  0  0  0  0  0  0  0  0  0  0  0  0
  1  2  1  0  0  0  0
  1  5  2  0  0  0  0
  2  6  2  0  0  0  0
  3  8  2  0  0  0  0
  3 17  1  0  0  0  0
  4  9  1  0  0  0  0
  4 17  2  0  0  0  0
  5 19  1  0  0  0  0
  6 21  1  0  0  0  0
  7 10  2  0  0  0  0
  7 20  1  0  0  0  0
  8 26  1  0  0  0  0
  9 26  2  0  0  0  0
 10 27  1  0  0  0  0
 11 12  2  0  0  0  0
 11 28  1  0  0  0  0
 12 29  1  0  0  0  0
 13 22  1  0  0  0  0
 13 27  2  0  0  0  0
 14 23  2  0  0  0  0
 14 31  1  0  0  0  0
 15 24  1  0  0  0  0
 15 25  2  0  0  0  0
 16 29  2  0  0  0  0
 16 30  1  0  0  0  0
 17 32  1  0  0  0  0
 18 32  1  0  0  0  0
 18 33  2  0  0  0  0
 18 35  1  0  0  0  0
 19 21  2  0  0  0  0
 19 40  1  0  0  0  0
 20 22  2  0  0  0  0
 20 41  1  0  0  0  0
 21 52  1  0  0  0  0
 22 42  1  0  0  0  0
 23 25  1  0  0  0  0
 23 56  1  0  0  0  0
 24 31  2  0  0  0  0
 24 67  1  0  0  0  0
 25 72  1  0  0  0  0
 26 82  1  0  0  0  0
 27 83  1  0  0  0  0
 28 30  2  0  0  0  0
 28 82  1  0  0  0  0
 29 84  1  0  0  0  0
 30 85  1  0  0  0  0
 31 86  1  0  0  0  0
 32 65  2  0  0  0  0
 33 66  1  0  0  0  0
 33 70  1  0  0  0  0
 34 53  1  0  0  0  0
 34 67  1  0  0  0  0
 34 76  2  0  0  0  0
 35 71  1  0  0  0  0
 35 77  2  0  0  0  0
 36 54  1  0  0  0  0
 36 73  1  0  0  0  0
 36 78  2  0  0  0  0
 37 62  1  0  0  0  0
 37 68  1  0  0  0  0
 37 79  2  0  0  0  0
 38 63  1  0  0  0  0
 38 74  1  0  0  0  0
 38 80  2  0  0  0  0
 39 69  1  0  0  0  0
 39 72  1  0  0  0  0
 39 81  2  0  0  0  0
 40 43  1  0  0  0  0
 41 54  1  0  0  0  0
 42 68  1  0  0  0  0
 43 46  1  0  0  0  0
 44 47  1  0  0  0  0
 44 49  1  0  0  0  0
 45 48  1  0  0  0  0
 45 50  1  0  0  0  0
 46 52  1  0  0  0  0
 47 53  1  0  0  0  0
 48 55  1  0  0  0  0
 49 67  1  0  0  0  0
 50 69  1  0  0  0  0
 51 55  1  0  0  0  0
 51 69  1  0  0  0  0
 52 73  1  0  0  0  0
 53 83  1  0  0  0  0
 54 68  1  0  0  0  0
 55 66  1  0  0  0  0
 57 63  1  0  0  0  0
 58 64  1  0  0  0  0
 59 64  1  0  0  0  0
 60 64  1  0  0  0  0
 61 75  1  0  0  0  0
 62 64  1  0  0  0  0
 62 74  1  0  0  0  0
 63 75  1  0  0  0  0
 65 66  1  0  0  0  0
M  CHG  1  75   1
M  ISO  4  39 100  53 101  72 100  83 101
M  END
> <Batch ID>
0046

> <Smiles>
CNC(C)C(=O)NC(C(=O)N1Cc2cc([101O:1][101CH:1]3CCCN(c4cc([100NH:0][100C:0](=O)N5CCCC(n6nc(-c7ccc(Oc8ccc(F)cc8F)cc7)c(C(N)=O)c6N)C5)c(C)cc4Cl)C3=O)ccc2CC1C(=O)NC1CCCc2ccccc21)C(C)(C)C

> <Shape>
0.238

> <Color>
0.204

> <Negative vol penalty>
0.000

$$$$

  -OEChem-04042322233D

 88 97  0     1  0  0  0  0  0999 V2000
  -17.7194  -26.8064   23.3482 C   0  0  0  0  0  0  0  0  0  0  0  0
  -18.8499  -26.0021   23.2463 C   0  0  0  0  0  0  0  0  0  0  0  0
  -22.5873  -10.4631   20.2917 C   0  0  0  0  0  0  0  0  0  0  0  0
  -24.3109   -9.4441   21.6436 C   0  0  0  0  0  0  0  0  0  0  0  0
  -17.6541  -28.0077   22.6436 C   0  0  0  0  0  0  0  0  0  0  0  0
  -19.9155  -26.3983   22.4388 C   0  0  0  0  0  0  0  0  0  0  0  0
  -24.4042  -25.7631   24.6956 C   0  0  0  0  0  0  0  0  0  0  0  0
  -31.8089  -18.7252   21.0812 C   0  0  0  0  0  0  0  0  0  0  0  0
  -31.5393  -17.3706   20.8864 C   0  0  0  0  0  0  0  0  0  0  0  0
  -21.8010   -9.3196   20.4321 C   0  0  0  0  0  0  0  0  0  0  0  0
  -23.5247   -8.3005   21.7840 C   0  0  0  0  0  0  0  0  0  0  0  0
  -24.9216  -24.4690   24.7311 C   0  0  0  0  0  0  0  0  0  0  0  0
  -20.8704   -7.3160   23.6296 C   0  0  0  0  0  0  0  0  0  0  0  0
  -20.7649   -6.7563   24.9028 C   0  0  0  0  0  0  0  0  0  0  0  0
  -26.3519  -24.9961   22.8614 C   0  0  0  0  0  0  0  0  0  0  0  0
  -21.7144   -4.6946   24.0752 C   0  0  0  0  0  0  0  0  0  0  0  0
  -23.8423  -10.5254   20.8974 C   0  0  0  0  0  0  0  0  0  0  0  0
  -24.3303  -13.0163   21.1518 C   0  0  0  0  0  0  0  0  0  0  0  0
  -18.7234  -28.4235   21.8347 C   0  0  0  0  0  0  0  0  0  0  0  0
  -24.8496  -26.6817   23.7342 C   0  0  0  0  0  0  0  0  0  0  0  0
  -19.8639  -27.6057   21.7217 C   0  0  0  0  0  0  0  0  0  0  0  0
  -25.8404  -26.3020   22.8175 C   0  0  0  0  0  0  0  0  0  0  0  0
  -31.2350  -19.4029   22.1569 C   0  0  0  0  0  0  0  0  0  0  0  0
  -30.3914  -18.7260   23.0377 C   0  0  0  0  0  0  0  0  0  0  0  0
  -30.1218  -17.3713   22.8429 C   0  0  0  0  0  0  0  0  0  0  0  0
  -30.6958  -16.6937   21.7672 C   0  0  0  0  0  0  0  0  0  0  0  0
  -22.2697   -8.2383   21.1783 C   0  0  0  0  0  0  0  0  0  0  0  0
  -25.8935  -24.0844   23.8121 C   0  0  0  0  0  0  0  0  0  0  0  0
  -21.3978   -6.5650   22.5791 C   0  0  0  0  0  0  0  0  0  0  0  0
  -21.1869   -5.4456   25.1256 C   0  0  0  0  0  0  0  0  0  0  0  0
  -21.8199   -5.2543   22.8019 C   0  0  0  0  0  0  0  0  0  0  0  0
  -24.6552  -11.7061   20.7522 C   0  0  0  0  0  0  0  0  0  0  0  0
  -25.4249  -13.7654   20.7954 C   0  0  0  0  0  0  0  0  0  0  0  0
  -27.7703  -20.4356   25.1407 C   0  0  0  0  0  0  0  0  0  0  0  0
  -26.9927  -19.7224   25.9693 C   0  0  0  0  0  0  0  0  0  0  0  0
  -23.1450  -13.5118   21.7884 C   0  0  0  0  0  0  0  0  0  0  0  0
  -23.4785  -28.2767   21.3510 C   0  0  0  0  0  0  0  0  0  0  0  0
  -26.3865  -29.6996   21.1482 C   0  0  0  0  0  0  0  0  0  0  0  0
  -29.8398  -28.6726   21.3407 C   0  0  0  0  0  0  0  0  0  0  0  0
  -30.9356  -14.5151   20.5252 C   0  0  0  0  0  0  0  0  0  0  0  0
  -18.5874  -29.7073   21.0549 C   0  0  0  0  0  0  0  0  0  0  0  0
  -24.3008  -28.0821   23.7263 C   0  0  0  0  0  0  0  0  0  0  0  0
  -26.3670  -27.2567   21.7784 C   0  0  0  0  0  0  0  0  0  0  0  0
  -28.0586  -21.9008   25.3435 C   0  0  0  0  0  0  0  0  0  0  0  0
  -19.9140  -30.2358   20.5155 C   0  0  0  0  0  0  0  0  0  0  0  0
  -29.4324  -12.5883   17.9359 C   0  0  0  0  0  0  0  0  0  0  0  0
  -20.7100  -29.1113   19.8608 C   0  0  0  0  0  0  0  0  0  0  0  0
  -28.0288  -12.2948   18.4706 C   0  0  0  0  0  0  0  0  0  0  0  0
  -28.4282  -22.0055   22.8431 C   0  0  0  0  0  0  0  0  0  0  0  0
  -30.4787  -12.5692   19.0488 C   0  0  0  0  0  0  0  0  0  0  0  0
  -28.7737  -13.1373   20.7339 C   0  0  0  0  0  0  0  0  0  0  0  0
  -28.0121  -20.5396   22.7296 C   0  0  0  0  0  0  0  0  0  0  0  0
  -21.0505  -28.0131   20.8754 C   0  0  1  0  0  0  0  0  0  0  0  0
  -24.4557  -28.7769   22.3770 C   0  0  1  0  0  0  0  0  0  0  0  0
  -27.6761  -13.2097   19.6598 C   0  0  2  0  0  0  0  0  0  0  0  0
  -27.8044  -22.6902   24.0591 C   0  0  1  0  0  0  0  0  0  1  0  0
  -31.5403  -20.8532   22.3425 C   0  0  0  0  0  0  0  0  0  0  0  0
  -29.2164  -16.6469   23.7895 C   0  0  0  0  0  0  0  0  0  0  0  0
  -26.6946  -18.2743   25.7879 C   0  0  0  0  0  0  0  0  0  0  0  0
  -31.8873  -29.9536   22.0221 C   0  0  0  0  0  0  0  0  0  0  0  0
  -26.6871  -30.2428   18.1608 C   0  0  0  0  0  0  0  0  0  0  0  0
  -29.1621  -29.9817   18.4332 C   0  0  0  0  0  0  0  0  0  0  0  0
  -27.9620  -31.8062   19.6388 C   0  0  0  0  0  0  0  0  0  0  0  0
  -30.5487  -26.6700   23.4013 C   0  0  0  0  0  0  0  0  0  0  0  0
  -29.7757  -19.4576   24.1938 C   0  0  0  0  0  0  0  0  0  0  0  0
  -27.6668  -29.4138   20.4011 C   0  0  1  0  0  0  0  0  0  0  0  0
  -30.8151  -28.9703   22.4653 C   0  0  2  0  0  0  0  0  0  0  0  0
  -27.8518  -30.3402   19.1662 C   0  0  0  0  0  0  0  0  0  0  0  0
  -25.8617  -11.6243   20.1851 N   0  0  0  0  0  0  0  0  0  0  0  0
  -26.3045  -12.8925   20.2258 N   0  0  0  0  0  0  0  0  0  0  0  0
  -25.7945  -28.6128   21.8071 N   0  0  0  0  0  0  0  0  0  0  0  0
  -30.0796  -13.4621   20.1389 N   0  0  0  0  0  0  0  0  0  0  0  0
  -25.7112  -15.0791   20.9166 N   0  0  0  0  0  0  0  0  0  0  0  0
  -23.0971  -13.5312   23.1890 N   0  0  0  0  0  0  0  0  0  0  0  0
  -30.4360  -15.3177   21.5503 N   0  0  0  0  0  0  0  0  0  0  0  0
  -22.1541  -28.4260   21.7158 N   0  0  0  0  0  0  0  0  0  0  0  0
  -28.7417  -29.5054   21.3832 N   0  0  0  0  0  0  0  0  0  0  0  0
  -28.3176  -19.7628   23.9888 N   0  3  1  0  0  0  0  0  0  0  0  0
  -31.4840  -27.7172   22.9161 N   0  3  0  0  0  0  0  0  0  0  0  0
  -22.1512  -13.9100   21.1346 O   0  0  0  0  0  0  0  0  0  0  0  0
  -23.8952  -27.7925   20.3053 O   0  0  0  0  0  0  0  0  0  0  0  0
  -25.9323  -30.8465   21.1530 O   0  0  0  0  0  0  0  0  0  0  0  0
  -30.0346  -27.7921   20.5057 O   0  0  0  0  0  0  0  0  0  0  0  0
  -32.0192  -14.7082   19.9680 O   0  0  0  0  0  0  0  0  0  0  0  0
  -21.5026   -7.1224   21.3157 O   0  0  0  0  0  0  0  0  0  0  0  0
  -26.3997  -22.8216   23.8440 O   0  0  0  0  0  0  0  0  0  1  0  0
  -21.0870   -4.9087   26.3487 F   0  0  0  0  0  0  0  0  0  0  0  0
  -22.3285   -4.5283   21.7969 F   0  0  0  0  0  0  0  0  0  0  0  0
  1  2  1  0  0  0  0
  1  5  2  0  0  0  0
  2  6  2  0  0  0  0
  3 10  2  0  0  0  0
  3 17  1  0  0  0  0
  4 11  1  0  0  0  0
  4 17  2  0  0  0  0
  5 19  1  0  0  0  0
  6 21  1  0  0  0  0
  7 12  2  0  0  0  0
  7 20  1  0  0  0  0
  8  9  1  0  0  0  0
  8 23  2  0  0  0  0
  9 26  2  0  0  0  0
 10 27  1  0  0  0  0
 11 27  2  0  0  0  0
 12 28  1  0  0  0  0
 13 14  2  0  0  0  0
 13 29  1  0  0  0  0
 14 30  1  0  0  0  0
 15 22  1  0  0  0  0
 15 28  2  0  0  0  0
 16 30  2  0  0  0  0
 16 31  1  0  0  0  0
 17 32  1  0  0  0  0
 18 32  1  0  0  0  0
 18 33  2  0  0  0  0
 18 36  1  0  0  0  0
 19 21  2  0  0  0  0
 19 41  1  0  0  0  0
 20 22  2  0  0  0  0
 20 42  1  0  0  0  0
 21 53  1  0  0  0  0
 22 43  1  0  0  0  0
 23 24  1  0  0  0  0
 23 57  1  0  0  0  0
 24 25  2  0  0  0  0
 24 65  1  0  0  0  0
 25 26  1  0  0  0  0
 25 58  1  0  0  0  0
 26 75  1  0  0  0  0
 27 85  1  0  0  0  0
 28 86  1  0  0  0  0
 29 31  2  0  0  0  0
 29 85  1  0  0  0  0
 30 87  1  0  0  0  0
 31 88  1  0  0  0  0
 32 69  2  0  0  0  0
 33 70  1  0  0  0  0
 33 73  1  0  0  0  0
 34 35  2  0  0  0  0
 34 44  1  0  0  0  0
 34 78  1  0  0  0  0
 35 59  1  0  0  0  0
 36 74  1  0  0  0  0
 36 80  2  0  0  0  0
 37 54  1  0  0  0  0
 37 76  1  0  0  0  0
 37 81  2  0  0  0  0
 38 66  1  0  0  0  0
 38 71  1  0  0  0  0
 38 82  2  0  0  0  0
 39 67  1  0  0  0  0
 39 77  1  0  0  0  0
 39 83  2  0  0  0  0
 40 72  1  0  0  0  0
 40 75  1  0  0  0  0
 40 84  2  0  0  0  0
 41 45  1  0  0  0  0
 42 54  1  0  0  0  0
 43 71  1  0  0  0  0
 44 56  1  0  0  0  0
 45 47  1  0  0  0  0
 46 48  1  0  0  0  0
 46 50  1  0  0  0  0
 47 53  1  0  0  0  0
 48 55  1  0  0  0  0
 49 52  1  0  0  0  0
 49 56  1  0  0  0  0
 50 72  1  0  0  0  0
 51 55  1  0  0  0  0
 51 72  1  0  0  0  0
 52 78  1  0  0  0  0
 53 76  1  0  0  0  0
 54 71  1  0  0  0  0
 55 70  1  0  0  0  0
 56 86  1  0  0  0  0
 60 67  1  0  0  0  0
 61 68  1  0  0  0  0
 62 68  1  0  0  0  0
 63 68  1  0  0  0  0
 64 79  1  0  0  0  0
 65 78  1  0  0  0  0
 66 68  1  0  0  0  0
 66 77  1  0  0  0  0
 67 79  1  0  0  0  0
 69 70  1  0  0  0  0
M  CHG  2  78   1  79   1
M  ISO  4  40 100  56 101  75 100  86 101
M  END
> <Batch ID>
0046

> <Smiles>
CC=C1C[101CH:1]([101O:1]c2ccc3c(c2)CN(C(=O)C(NC(=O)C(C)NC)C(C)(C)C)C(C(=O)NC2CCCc4ccccc42)C3)CCN1Cc1c(C)ccc([100NH:0][100C:0](=O)N2CCCC(n3nc(-c4ccc(Oc5ccc(F)cc5F)cc4)c(C(N)=O)c3N)C2)c1C

> <Shape>
0.303

> <Color>
0.177

> <Negative vol penalty>
0.000

$$$$

  -OEChem-04042322233D

 92101  0     1  0  0  0  0  0999 V2000
  -29.6440  -34.8407   25.2239 C   0  0  0  0  0  0  0  0  0  0  0  0
  -29.7606  -33.6562   24.5036 C   0  0  0  0  0  0  0  0  0  0  0  0
  -23.8193  -12.2708   24.5175 C   0  0  0  0  0  0  0  0  0  0  0  0
  -25.0388  -10.5179   23.3873 C   0  0  0  0  0  0  0  0  0  0  0  0
  -28.4630  -35.1258   25.9080 C   0  0  0  0  0  0  0  0  0  0  0  0
  -28.6967  -32.7556   24.4680 C   0  0  0  0  0  0  0  0  0  0  0  0
  -27.0508  -29.1863   19.7715 C   0  0  0  0  0  0  0  0  0  0  0  0
  -29.9732  -21.7726   20.8323 C   0  0  0  0  0  0  0  0  0  0  0  0
  -29.9571  -20.3791   20.7741 C   0  0  0  0  0  0  0  0  0  0  0  0
  -23.3647  -11.3475   25.4590 C   0  0  0  0  0  0  0  0  0  0  0  0
  -24.5842   -9.5946   24.3289 C   0  0  0  0  0  0  0  0  0  0  0  0
  -27.2959  -27.8446   19.4821 C   0  0  0  0  0  0  0  0  0  0  0  0
  -21.7548   -7.8479   24.9408 C   0  0  0  0  0  0  0  0  0  0  0  0
  -21.2847   -6.6215   24.4713 C   0  0  0  0  0  0  0  0  0  0  0  0
  -25.1630  -27.2542   20.4421 C   0  0  0  0  0  0  0  0  0  0  0  0
  -22.9826   -5.4790   25.7554 C   0  0  0  0  0  0  0  0  0  0  0  0
  -24.6563  -11.8560   23.4816 C   0  0  0  0  0  0  0  0  0  0  0  0
  -24.3427  -13.5953   21.6421 C   0  0  0  0  0  0  0  0  0  0  0  0
  -27.3806  -34.2327   25.8728 C   0  0  0  0  0  0  0  0  0  0  0  0
  -25.8628  -29.5714   20.4092 C   0  0  0  0  0  0  0  0  0  0  0  0
  -27.5006  -33.0283   25.1533 C   0  0  0  0  0  0  0  0  0  0  0  0
  -24.9041  -28.6017   20.7361 C   0  0  0  0  0  0  0  0  0  0  0  0
  -28.7834  -22.4898   20.7068 C   0  0  0  0  0  0  0  0  0  0  0  0
  -27.5775  -21.8133   20.5229 C   0  0  0  0  0  0  0  0  0  0  0  0
  -27.5613  -20.4198   20.4646 C   0  0  0  0  0  0  0  0  0  0  0  0
  -28.7512  -19.7027   20.5902 C   0  0  0  0  0  0  0  0  0  0  0  0
  -23.7471  -10.0094   25.3648 C   0  0  0  0  0  0  0  0  0  0  0  0
  -26.3532  -26.8781   19.8200 C   0  0  0  0  0  0  0  0  0  0  0  0
  -22.8389   -7.8899   25.8176 C   0  0  0  0  0  0  0  0  0  0  0  0
  -21.8985   -5.4370   24.8786 C   0  0  0  0  0  0  0  0  0  0  0  0
  -23.4527   -6.7055   26.2249 C   0  0  0  0  0  0  0  0  0  0  0  0
  -25.1258  -12.8091   22.5084 C   0  0  0  0  0  0  0  0  0  0  0  0
  -25.2557  -14.3282   20.9239 C   0  0  0  0  0  0  0  0  0  0  0  0
  -26.5192  -23.6072   18.1792 C   0  0  0  0  0  0  0  0  0  0  0  0
  -29.9988  -19.2787   15.6547 C   0  0  0  0  0  0  0  0  0  0  0  0
  -27.4662  -23.0976   17.3711 C   0  0  0  0  0  0  0  0  0  0  0  0
  -29.0571  -19.7859   16.4582 C   0  0  0  0  0  0  0  0  0  0  0  0
  -27.7860  -21.6934   17.3211 C   0  0  0  0  0  0  0  0  0  0  0  0
  -28.7321  -21.1929   16.5122 C   0  0  0  0  0  0  0  0  0  0  0  0
  -22.9174  -13.6577   21.4994 C   0  0  0  0  0  0  0  0  0  0  0  0
  -25.1530  -30.9764   23.1707 C   0  0  0  0  0  0  0  0  0  0  0  0
  -22.1410  -30.9423   21.9669 C   0  0  0  0  0  0  0  0  0  0  0  0
  -20.0632  -28.6304   20.1352 C   0  0  0  0  0  0  0  0  0  0  0  0
  -29.8628  -17.4426   20.6437 C   0  0  0  0  0  0  0  0  0  0  0  0
  -26.1414  -34.5622   26.6668 C   0  0  0  0  0  0  0  0  0  0  0  0
  -25.6017  -31.0257   20.6904 C   0  0  0  0  0  0  0  0  0  0  0  0
  -23.6039  -28.9655   21.4035 C   0  0  0  0  0  0  0  0  0  0  0  0
  -24.9249  -33.7292   26.2710 C   0  0  0  0  0  0  0  0  0  0  0  0
  -30.2893  -13.9081   20.5949 C   0  0  0  0  0  0  0  0  0  0  0  0
  -23.8927  -24.2829   19.1252 C   0  0  0  0  0  0  0  0  0  0  0  0
  -25.3010  -32.2552   26.1582 C   0  0  0  0  0  0  0  0  0  0  0  0
  -28.9196  -13.3718   21.0171 C   0  0  0  0  0  0  0  0  0  0  0  0
  -24.6185  -25.2404   18.1830 C   0  0  0  0  0  0  0  0  0  0  0  0
  -30.6505  -15.1913   21.3410 C   0  0  0  0  0  0  0  0  0  0  0  0
  -28.2701  -15.7182   21.6950 C   0  0  0  0  0  0  0  0  0  0  0  0
  -24.2982  -22.8413   18.8565 C   0  0  0  0  0  0  0  0  0  0  0  0
  -26.3596  -32.0377   25.0703 C   0  0  1  0  0  0  0  0  0  0  0  0
  -24.5847  -31.2455   21.8061 C   0  0  1  0  0  0  0  0  0  0  0  0
  -27.8341  -14.4620   20.9233 C   0  0  2  0  0  0  0  0  0  0  0  0
  -26.1479  -25.0834   18.2651 C   0  0  2  0  0  0  0  0  0  1  0  0
  -28.8287  -23.9813   20.7729 C   0  0  0  0  0  0  0  0  0  0  0  0
  -26.2660  -19.6959   20.2672 C   0  0  0  0  0  0  0  0  0  0  0  0
  -26.7973  -25.9858   17.2046 C   0  0  0  0  0  0  0  0  0  0  0  0
  -18.1495  -29.0472   18.5664 C   0  0  0  0  0  0  0  0  0  0  0  0
  -20.4049  -30.5768   24.4494 C   0  0  0  0  0  0  0  0  0  0  0  0
  -18.7410  -29.3671   23.0223 C   0  0  0  0  0  0  0  0  0  0  0  0
  -19.2792  -31.7574   22.5537 C   0  0  0  0  0  0  0  0  0  0  0  0
  -21.3464  -27.0720   17.9709 C   0  0  0  0  0  0  0  0  0  0  0  0
  -26.2993  -22.5874   20.3883 C   0  0  0  0  0  0  0  0  0  0  0  0
  -20.9846  -29.9727   22.0070 C   0  0  1  0  0  0  0  0  0  0  0  0
  -19.6357  -28.7468   18.6832 C   0  0  2  0  0  0  0  0  0  0  0  0
  -19.8794  -30.4095   23.0096 C   0  0  0  0  0  0  0  0  0  0  0  0
  -26.4355  -13.0223   22.3559 N   0  0  0  0  0  0  0  0  0  0  0  0
  -26.4824  -13.9508   21.3855 N   0  0  0  0  0  0  0  0  0  0  0  0
  -23.3977  -30.3999   21.6635 N   0  0  0  0  0  0  0  0  0  0  0  0
  -29.5782  -16.1794   21.2042 N   0  0  0  0  0  0  0  0  0  0  0  0
  -25.1209  -15.2521   19.9489 N   0  0  0  0  0  0  0  0  0  0  0  0
  -22.1276  -12.8372   22.3162 N   0  0  0  0  0  0  0  0  0  0  0  0
  -28.7583  -18.2868   20.5342 N   0  0  0  0  0  0  0  0  0  0  0  0
  -25.7508  -32.0751   23.7579 N   0  0  0  0  0  0  0  0  0  0  0  0
  -20.5213  -29.8329   20.6307 N   0  0  0  0  0  0  0  0  0  0  0  0
  -25.7875  -22.6384   18.9755 N   0  3  2  0  0  0  0  0  0  0  0  0
  -19.9169  -27.4762   17.9570 N   0  3  0  0  0  0  0  0  0  0  0  0
  -22.3613  -14.4065   20.6606 O   0  0  0  0  0  0  0  0  0  0  0  0
  -25.0549  -29.8553   23.6557 O   0  0  0  0  0  0  0  0  0  0  0  0
  -21.9355  -32.1381   22.1895 O   0  0  0  0  0  0  0  0  0  0  0  0
  -19.9940  -27.5789   20.7677 O   0  0  0  0  0  0  0  0  0  0  0  0
  -30.9970  -17.7426   20.2621 O   0  0  0  0  0  0  0  0  0  0  0  0
  -23.3039   -9.1082   26.2835 O   0  0  0  0  0  0  0  0  0  0  0  0
  -26.5901  -25.5677   19.5393 O   0  0  0  0  0  0  0  0  0  1  0  0
  -21.4460   -4.2593   24.4288 F   0  0  0  0  0  0  0  0  0  0  0  0
  -24.4938   -6.7394   27.0680 F   0  0  0  0  0  0  0  0  0  0  0  0
  1  2  1  0  0  0  0
  1  5  2  0  0  0  0
  2  6  2  0  0  0  0
  3 10  2  0  0  0  0
  3 17  1  0  0  0  0
  4 11  1  0  0  0  0
  4 17  2  0  0  0  0
  5 19  1  0  0  0  0
  6 21  1  0  0  0  0
  7 12  2  0  0  0  0
  7 20  1  0  0  0  0
  8  9  1  0  0  0  0
  8 23  2  0  0  0  0
  9 26  2  0  0  0  0
 10 27  1  0  0  0  0
 11 27  2  0  0  0  0
 12 28  1  0  0  0  0
 13 14  2  0  0  0  0
 13 29  1  0  0  0  0
 14 30  1  0  0  0  0
 15 22  1  0  0  0  0
 15 28  2  0  0  0  0
 16 30  2  0  0  0  0
 16 31  1  0  0  0  0
 17 32  1  0  0  0  0
 18 32  1  0  0  0  0
 18 33  2  0  0  0  0
 18 40  1  0  0  0  0
 19 21  2  0  0  0  0
 19 45  1  0  0  0  0
 20 22  2  0  0  0  0
 20 46  1  0  0  0  0
 21 57  1  0  0  0  0
 22 47  1  0  0  0  0
 23 24  1  0  0  0  0
 23 61  1  0  0  0  0
 24 25  2  0  0  0  0
 24 69  1  0  0  0  0
 25 26  1  0  0  0  0
 25 62  1  0  0  0  0
 26 79  1  0  0  0  0
 27 89  1  0  0  0  0
 28 90  1  0  0  0  0
 29 31  2  0  0  0  0
 29 89  1  0  0  0  0
 30 91  1  0  0  0  0
 31 92  1  0  0  0  0
 32 73  2  0  0  0  0
 33 74  1  0  0  0  0
 33 77  1  0  0  0  0
 34 36  2  0  0  0  0
 34 60  1  0  0  0  0
 34 82  1  0  0  0  0
 35 37  2  0  0  0  0
 36 38  1  0  0  0  0
 37 39  1  0  0  0  0
 38 39  2  0  0  0  0
 40 78  1  0  0  0  0
 40 84  2  0  0  0  0
 41 58  1  0  0  0  0
 41 80  1  0  0  0  0
 41 85  2  0  0  0  0
 42 70  1  0  0  0  0
 42 75  1  0  0  0  0
 42 86  2  0  0  0  0
 43 71  1  0  0  0  0
 43 81  1  0  0  0  0
 43 87  2  0  0  0  0
 44 76  1  0  0  0  0
 44 79  1  0  0  0  0
 44 88  2  0  0  0  0
 45 48  1  0  0  0  0
 46 58  1  0  0  0  0
 47 75  1  0  0  0  0
 48 51  1  0  0  0  0
 49 52  1  0  0  0  0
 49 54  1  0  0  0  0
 50 53  1  0  0  0  0
 50 56  1  0  0  0  0
 51 57  1  0  0  0  0
 52 59  1  0  0  0  0
 53 60  1  0  0  0  0
 54 76  1  0  0  0  0
 55 59  1  0  0  0  0
 55 76  1  0  0  0  0
 56 82  1  0  0  0  0
 57 80  1  0  0  0  0
 58 75  1  0  0  0  0
 59 74  1  0  0  0  0
 60 63  1  0  0  0  0
 60 90  1  0  0  0  0
 64 71  1  0  0  0  0
 65 72  1  0  0  0  0
 66 72  1  0  0  0  0
 67 72  1  0  0  0  0
 68 83  1  0  0  0  0
 69 82  1  0  0  0  0
 70 72  1  0  0  0  0
 70 81  1  0  0  0  0
 71 83  1  0  0  0  0
 73 74  1  0  0  0  0
M  CHG  2  82   1  83   1
M  ISO  4  44 100  60 101  79 100  90 101
M  END
> <Batch ID>
0046

> <Smiles>
C=CC=CC=C1N(Cc2c(C)ccc([100NH:0][100C:0](=O)N3CCCC(n4nc(-c5ccc(Oc6ccc(F)cc6F)cc5)c(C(N)=O)c4N)C3)c2C)CCC[101C:1]1(C)[101O:1]c1ccc2c(c1)CN(C(=O)C(NC(=O)C(C)NC)C(C)(C)C)C(C(=O)NC1CCCc3ccccc31)C2

> <Shape>
0.293

> <Color>
0.118

> <Negative vol penalty>
0.000

$$$$

  -OEChem-04042322233D

 86 95  0     1  0  0  0  0  0999 V2000
  -20.7981  -23.4792   24.9731 C   0  0  0  0  0  0  0  0  0  0  0  0
  -21.9786  -23.2734   24.2663 C   0  0  0  0  0  0  0  0  0  0  0  0
  -23.3043  -10.2458   22.2411 C   0  0  0  0  0  0  0  0  0  0  0  0
  -23.5612   -9.5830   19.9320 C   0  0  0  0  0  0  0  0  0  0  0  0
  -19.7308  -24.1411   24.3676 C   0  0  0  0  0  0  0  0  0  0  0  0
  -22.0920  -23.7286   22.9532 C   0  0  0  0  0  0  0  0  0  0  0  0
  -26.5075  -26.0476   22.0755 C   0  0  0  0  0  0  0  0  0  0  0  0
  -22.5435   -9.1023   22.4847 C   0  0  0  0  0  0  0  0  0  0  0  0
  -22.8005   -8.4395   20.1756 C   0  0  0  0  0  0  0  0  0  0  0  0
  -27.6254  -25.2369   21.8834 C   0  0  0  0  0  0  0  0  0  0  0  0
  -19.3694   -8.0649   21.9621 C   0  0  0  0  0  0  0  0  0  0  0  0
  -18.1966   -8.2132   22.7023 C   0  0  0  0  0  0  0  0  0  0  0  0
  -27.4201  -25.5293   19.4977 C   0  0  0  0  0  0  0  0  0  0  0  0
  -30.3712  -19.1059   22.7227 C   0  0  0  0  0  0  0  0  0  0  0  0
  -30.8820  -19.0969   20.3614 C   0  0  0  0  0  0  0  0  0  0  0  0
  -19.0558   -6.6895   24.3689 C   0  0  0  0  0  0  0  0  0  0  0  0
  -23.8131  -10.4862   20.9647 C   0  0  0  0  0  0  0  0  0  0  0  0
  -24.1942  -13.0067   20.8693 C   0  0  0  0  0  0  0  0  0  0  0  0
  -19.8347  -24.6131   23.0496 C   0  0  0  0  0  0  0  0  0  0  0  0
  -25.8299  -26.5973   20.9777 C   0  0  0  0  0  0  0  0  0  0  0  0
  -21.0246  -24.3962   22.3290 C   0  0  0  0  0  0  0  0  0  0  0  0
  -26.2955  -26.3488   19.6786 C   0  0  0  0  0  0  0  0  0  0  0  0
  -30.1850  -17.7240   22.6877 C   0  0  0  0  0  0  0  0  0  0  0  0
  -30.7197  -19.7924   21.5595 C   0  0  0  0  0  0  0  0  0  0  0  0
  -30.3474  -17.0285   21.4896 C   0  0  0  0  0  0  0  0  0  0  0  0
  -22.2916   -8.1992   21.4520 C   0  0  0  0  0  0  0  0  0  0  0  0
  -28.0801  -24.9753   20.5943 C   0  0  0  0  0  0  0  0  0  0  0  0
  -20.3854   -7.2288   22.4251 C   0  0  0  0  0  0  0  0  0  0  0  0
  -18.0398   -7.5256   23.9057 C   0  0  0  0  0  0  0  0  0  0  0  0
  -20.2286   -6.5411   23.6285 C   0  0  0  0  0  0  0  0  0  0  0  0
  -30.6959  -17.7150   20.3263 C   0  0  0  0  0  0  0  0  0  0  0  0
  -24.5985  -11.6675   20.7123 C   0  0  0  0  0  0  0  0  0  0  0  0
  -25.2945  -13.7428   20.5031 C   0  0  0  0  0  0  0  0  0  0  0  0
  -31.8575  -21.8575   22.3872 C   0  0  0  0  0  0  0  0  0  0  0  0
  -32.8613  -21.3073   23.0952 C   0  0  0  0  0  0  0  0  0  0  0  0
  -22.9365  -13.5380   21.3071 C   0  0  0  0  0  0  0  0  0  0  0  0
  -22.8877  -26.3443   19.8018 C   0  0  0  0  0  0  0  0  0  0  0  0
  -23.9153  -28.6644   17.7809 C   0  0  0  0  0  0  0  0  0  0  0  0
  -25.6608  -30.8375   15.8117 C   0  0  0  0  0  0  0  0  0  0  0  0
  -30.7782  -14.6990   20.6327 C   0  0  0  0  0  0  0  0  0  0  0  0
  -18.6374  -25.2813   22.4214 C   0  0  0  0  0  0  0  0  0  0  0  0
  -24.6416  -27.4916   21.2030 C   0  0  0  0  0  0  0  0  0  0  0  0
  -25.6156  -26.9315   18.4675 C   0  0  0  0  0  0  0  0  0  0  0  0
  -31.7203  -23.3698   22.4028 C   0  0  0  0  0  0  0  0  0  0  0  0
  -18.9717  -26.0631   21.1536 C   0  0  0  0  0  0  0  0  0  0  0  0
  -30.2480  -23.7627   22.5082 C   0  0  0  0  0  0  0  0  0  0  0  0
  -29.6011  -12.3302   18.2494 C   0  0  0  0  0  0  0  0  0  0  0  0
  -19.8610  -25.2330   20.2334 C   0  0  0  0  0  0  0  0  0  0  0  0
  -28.1614  -12.0568   18.6906 C   0  0  0  0  0  0  0  0  0  0  0  0
  -30.5320  -12.5308   19.4439 C   0  0  0  0  0  0  0  0  0  0  0  0
  -28.6511  -13.2699   20.8529 C   0  0  0  0  0  0  0  0  0  0  0  0
  -30.0648  -21.9662   20.6686 C   0  0  0  0  0  0  0  0  0  0  0  0
  -21.1949  -24.8970   20.9111 C   0  0  1  0  0  0  0  0  0  0  0  0
  -23.7218  -27.5800   19.9891 C   0  0  1  0  0  0  0  0  0  0  0  0
  -27.6637  -13.1255   19.6834 C   0  0  2  0  0  0  0  0  0  0  0  0
  -29.4098  -23.1629   21.3733 C   0  0  2  0  0  0  0  0  0  1  0  0
  -29.8118  -17.0179   23.9511 C   0  0  0  0  0  0  0  0  0  0  0  0
  -25.4090  -32.2986   13.7871 C   0  0  0  0  0  0  0  0  0  0  0  0
  -24.0557  -26.1997   15.9877 C   0  0  0  0  0  0  0  0  0  0  0  0
  -24.7513  -27.6955   14.1044 C   0  0  0  0  0  0  0  0  0  0  0  0
  -22.5177  -27.9959   15.1736 C   0  0  0  0  0  0  0  0  0  0  0  0
  -26.2765  -33.2846   17.3581 C   0  0  0  0  0  0  0  0  0  0  0  0
  -24.5981  -28.6841   16.4347 C   0  0  1  0  0  0  0  0  0  0  0  0
  -25.3258  -32.2283   15.3040 C   0  0  2  0  0  0  0  0  0  0  0  0
  -23.9956  -27.6432   15.4493 C   0  0  0  0  0  0  0  0  0  0  0  0
  -25.8573  -11.5562   20.2799 N   0  0  0  0  0  0  0  0  0  0  0  0
  -26.2535  -12.8350   20.1619 N   0  0  0  0  0  0  0  0  0  0  0  0
  -30.9082  -21.1966   21.5956 N   0  0  0  0  0  0  0  0  0  0  0  0
  -24.4541  -27.7944   18.7394 N   0  0  0  0  0  0  0  0  0  0  0  0
  -29.9986  -13.5604   20.3385 N   0  0  0  0  0  0  0  0  0  0  0  0
  -25.5255  -15.0714   20.4428 N   0  0  0  0  0  0  0  0  0  0  0  0
  -21.9136  -12.6413   21.6447 N   0  0  0  0  0  0  0  0  0  0  0  0
  -30.1542  -15.6250   21.4681 N   0  0  0  0  0  0  0  0  0  0  0  0
  -22.0796  -26.0420   20.8811 N   0  0  0  0  0  0  0  0  0  0  0  0
  -24.5301  -30.0628   15.9626 N   0  0  0  0  0  0  0  0  0  0  0  0
  -26.2716  -33.2293   15.8735 N   0  3  0  0  0  0  0  0  0  0  0  0
  -22.7206  -14.7715   21.3806 O   0  0  0  0  0  0  0  0  0  0  0  0
  -22.9700  -25.7128   18.7548 O   0  0  0  0  0  0  0  0  0  0  0  0
  -22.9442  -29.3992   17.9773 O   0  0  0  0  0  0  0  0  0  0  0  0
  -26.8108  -30.4733   16.0471 O   0  0  0  0  0  0  0  0  0  0  0  0
  -31.9051  -14.8550   20.1553 O   0  0  0  0  0  0  0  0  0  0  0  0
  -21.5496   -7.0831   21.6894 O   0  0  0  0  0  0  0  0  0  0  0  0
  -29.1706  -24.1838   20.4040 O   0  0  0  0  0  0  0  0  0  1  0  0
  -16.9141   -7.6694   24.6173 F   0  0  0  0  0  0  0  0  0  0  0  0
  -21.2017   -5.7374   24.0791 F   0  0  0  0  0  0  0  0  0  0  0  0
  -30.9103  -16.8954   18.8200 Cl  0  0  0  0  0  0  0  0  0  0  0  0
  1  2  1  0  0  0  0
  1  5  2  0  0  0  0
  2  6  2  0  0  0  0
  3  8  2  0  0  0  0
  3 17  1  0  0  0  0
  4  9  1  0  0  0  0
  4 17  2  0  0  0  0
  5 19  1  0  0  0  0
  6 21  1  0  0  0  0
  7 10  2  0  0  0  0
  7 20  1  0  0  0  0
  8 26  1  0  0  0  0
  9 26  2  0  0  0  0
 10 27  1  0  0  0  0
 11 12  2  0  0  0  0
 11 28  1  0  0  0  0
 12 29  1  0  0  0  0
 13 22  1  0  0  0  0
 13 27  2  0  0  0  0
 14 23  2  0  0  0  0
 14 24  1  0  0  0  0
 15 24  2  0  0  0  0
 15 31  1  0  0  0  0
 16 29  2  0  0  0  0
 16 30  1  0  0  0  0
 17 32  1  0  0  0  0
 18 32  1  0  0  0  0
 18 33  2  0  0  0  0
 18 36  1  0  0  0  0
 19 21  2  0  0  0  0
 19 41  1  0  0  0  0
 20 22  2  0  0  0  0
 20 42  1  0  0  0  0
 21 53  1  0  0  0  0
 22 43  1  0  0  0  0
 23 25  1  0  0  0  0
 23 57  1  0  0  0  0
 24 68  1  0  0  0  0
 25 31  2  0  0  0  0
 25 73  1  0  0  0  0
 26 82  1  0  0  0  0
 27 83  1  0  0  0  0
 28 30  2  0  0  0  0
 28 82  1  0  0  0  0
 29 84  1  0  0  0  0
 30 85  1  0  0  0  0
 31 86  1  0  0  0  0
 32 66  2  0  0  0  0
 33 67  1  0  0  0  0
 33 71  1  0  0  0  0
 34 35  2  0  0  0  0
 34 44  1  0  0  0  0
 34 68  1  0  0  0  0
 36 72  1  0  0  0  0
 36 77  2  0  0  0  0
 37 54  1  0  0  0  0
 37 74  1  0  0  0  0
 37 78  2  0  0  0  0
 38 63  1  0  0  0  0
 38 69  1  0  0  0  0
 38 79  2  0  0  0  0
 39 64  1  0  0  0  0
 39 75  1  0  0  0  0
 39 80  2  0  0  0  0
 40 70  1  0  0  0  0
 40 73  1  0  0  0  0
 40 81  2  0  0  0  0
 41 45  1  0  0  0  0
 42 54  1  0  0  0  0
 43 69  1  0  0  0  0
 44 46  1  0  0  0  0
 45 48  1  0  0  0  0
 46 56  1  0  0  0  0
 47 49  1  0  0  0  0
 47 50  1  0  0  0  0
 48 53  1  0  0  0  0
 49 55  1  0  0  0  0
 50 70  1  0  0  0  0
 51 55  1  0  0  0  0
 51 70  1  0  0  0  0
 52 56  1  0  0  0  0
 52 68  1  0  0  0  0
 53 74  1  0  0  0  0
 54 69  1  0  0  0  0
 55 67  1  0  0  0  0
 56 83  1  0  0  0  0
 58 64  1  0  0  0  0
 59 65  1  0  0  0  0
 60 65  1  0  0  0  0
 61 65  1  0  0  0  0
 62 76  1  0  0  0  0
 63 65  1  0  0  0  0
 63 75  1  0  0  0  0
 64 76  1  0  0  0  0
 66 67  1  0  0  0  0
M  CHG  1  76   1
M  ISO  4  40 100  56 101  73 100  83 101
M  END
> <Batch ID>
0046

> <Smiles>
C=C1CC[101CH:1]([101O:1]c2ccc3c(c2)CN(C(=O)C(NC(=O)C(C)NC)C(C)(C)C)C(C(=O)NC2CCCc4ccccc42)C3)CN1c1cc(C)c([100NH:0][100C:0](=O)N2CCCC(n3nc(-c4ccc(Oc5ccc(F)cc5F)cc4)c(C(N)=O)c3N)C2)c(Cl)c1

> <Shape>
0.236

> <Color>
0.198

> <Negative vol penalty>
0.000

$$$$

  -OEChem-04042322233D

 86 95  0     1  0  0  0  0  0999 V2000
  -37.7682  -26.9359   26.0407 C   0  0  0  0  0  0  0  0  0  0  0  0
  -36.9837  -25.8869   25.5721 C   0  0  0  0  0  0  0  0  0  0  0  0
  -23.2881   -9.8006   19.9121 C   0  0  0  0  0  0  0  0  0  0  0  0
  -23.7420   -9.9387   22.2811 C   0  0  0  0  0  0  0  0  0  0  0  0
  -37.2215  -28.2125   26.1645 C   0  0  0  0  0  0  0  0  0  0  0  0
  -35.6516  -26.1138   25.2279 C   0  0  0  0  0  0  0  0  0  0  0  0
  -34.3766  -23.9198   20.8454 C   0  0  0  0  0  0  0  0  0  0  0  0
  -32.2110  -15.2230   25.8636 C   0  0  0  0  0  0  0  0  0  0  0  0
  -22.5626   -8.6275   20.1195 C   0  0  0  0  0  0  0  0  0  0  0  0
  -23.0165   -8.7656   22.4885 C   0  0  0  0  0  0  0  0  0  0  0  0
  -34.1295  -22.5479   20.8684 C   0  0  0  0  0  0  0  0  0  0  0  0
  -19.7702   -7.8527   22.7091 C   0  0  0  0  0  0  0  0  0  0  0  0
  -18.8692   -7.8293   23.7737 C   0  0  0  0  0  0  0  0  0  0  0  0
  -31.1887  -14.3073   26.1126 C   0  0  0  0  0  0  0  0  0  0  0  0
  -31.7571  -22.9821   20.9155 C   0  0  0  0  0  0  0  0  0  0  0  0
  -32.2044  -14.5961   23.5304 C   0  0  0  0  0  0  0  0  0  0  0  0
  -20.0772   -5.9815   24.7554 C   0  0  0  0  0  0  0  0  0  0  0  0
  -23.8779  -10.4562   20.9929 C   0  0  0  0  0  0  0  0  0  0  0  0
  -24.1358  -12.9865   20.7969 C   0  0  0  0  0  0  0  0  0  0  0  0
  -35.8848  -28.4572   25.8126 C   0  0  0  0  0  0  0  0  0  0  0  0
  -33.3143  -24.8349   20.8684 C   0  0  0  0  0  0  0  0  0  0  0  0
  -35.0861  -27.3946   25.3483 C   0  0  0  0  0  0  0  0  0  0  0  0
  -31.9933  -24.3651   20.8902 C   0  0  0  0  0  0  0  0  0  0  0  0
  -32.7188  -15.3675   24.5725 C   0  0  0  0  0  0  0  0  0  0  0  0
  -31.1821  -13.6803   23.7794 C   0  0  0  0  0  0  0  0  0  0  0  0
  -22.4268   -8.1100   21.4076 C   0  0  0  0  0  0  0  0  0  0  0  0
  -32.8197  -22.0789   20.9063 C   0  0  0  0  0  0  0  0  0  0  0  0
  -20.8246   -6.9404   22.6676 C   0  0  0  0  0  0  0  0  0  0  0  0
  -19.0228   -6.8938   24.7968 C   0  0  0  0  0  0  0  0  0  0  0  0
  -20.9781   -6.0049   23.6907 C   0  0  0  0  0  0  0  0  0  0  0  0
  -30.6743  -13.5359   25.0705 C   0  0  0  0  0  0  0  0  0  0  0  0
  -24.6280  -11.6677   20.7793 C   0  0  0  0  0  0  0  0  0  0  0  0
  -25.2366  -13.7673   20.5414 C   0  0  0  0  0  0  0  0  0  0  0  0
  -22.8028  -13.4633   21.0241 C   0  0  0  0  0  0  0  0  0  0  0  0
  -32.3666  -27.1222   22.8618 C   0  0  0  0  0  0  0  0  0  0  0  0
  -30.2011  -27.7239   20.5228 C   0  0  0  0  0  0  0  0  0  0  0  0
  -28.4297  -26.5638   17.8464 C   0  0  0  0  0  0  0  0  0  0  0  0
  -31.0984  -12.9548   21.3683 C   0  0  0  0  0  0  0  0  0  0  0  0
  -35.3247  -29.8438   26.0082 C   0  0  0  0  0  0  0  0  0  0  0  0
  -33.5969  -26.3113   20.8162 C   0  0  0  0  0  0  0  0  0  0  0  0
  -30.8171  -25.3058   20.8955 C   0  0  0  0  0  0  0  0  0  0  0  0
  -34.0109  -30.0802   25.2677 C   0  0  0  0  0  0  0  0  0  0  0  0
  -29.4605  -13.6620   18.2871 C   0  0  0  0  0  0  0  0  0  0  0  0
  -33.0555  -28.9120   25.4894 C   0  0  0  0  0  0  0  0  0  0  0  0
  -27.9897  -13.3567   18.5799 C   0  0  0  0  0  0  0  0  0  0  0  0
  -31.9731  -19.3485   22.8033 C   0  0  0  0  0  0  0  0  0  0  0  0
  -34.0762  -18.9542   21.4792 C   0  0  0  0  0  0  0  0  0  0  0  0
  -30.3951  -12.6865   19.0001 C   0  0  0  0  0  0  0  0  0  0  0  0
  -28.7044  -12.2556   20.7394 C   0  0  0  0  0  0  0  0  0  0  0  0
  -32.4822  -18.4253   23.8983 C   0  0  0  0  0  0  0  0  0  0  0  0
  -33.6440  -27.6063   24.9414 C   0  0  1  0  0  0  0  0  0  0  0  0
  -32.4517  -27.1586   21.3621 C   0  0  1  0  0  0  0  0  0  0  0  0
  -27.7267  -13.2518   20.0950 C   0  0  2  0  0  0  0  0  0  0  0  0
  -33.1099  -20.0029   22.0246 C   0  0  1  0  0  0  0  0  0  1  0  0
  -34.6159  -18.0144   22.5614 C   0  0  1  0  0  0  0  0  0  0  0  0
  -35.5958  -18.7046   23.5085 C   0  0  0  0  0  0  0  0  0  0  0  0
  -26.7109  -27.2772   16.1630 C   0  0  0  0  0  0  0  0  0  0  0  0
  -28.0262  -27.4968   22.6508 C   0  0  0  0  0  0  0  0  0  0  0  0
  -26.3459  -27.2656   20.8093 C   0  0  0  0  0  0  0  0  0  0  0  0
  -27.6920  -29.3560   21.0119 C   0  0  0  0  0  0  0  0  0  0  0  0
  -30.2753  -26.0791   15.5842 C   0  0  0  0  0  0  0  0  0  0  0  0
  -33.8181  -16.3528   24.3050 C   0  0  0  0  0  0  0  0  0  0  0  0
  -28.8084  -27.2362   20.2041 C   0  0  1  0  0  0  0  0  0  0  0  0
  -28.1957  -27.1465   16.4643 C   0  0  2  0  0  0  0  0  0  0  0  0
  -27.7401  -27.8207   21.1709 C   0  0  0  0  0  0  0  0  0  0  0  0
  -25.9393  -11.6100   20.5319 N   0  0  0  0  0  0  0  0  0  0  0  0
  -26.2804  -12.9023   20.3917 N   0  0  0  0  0  0  0  0  0  0  0  0
  -31.1452  -26.7403   20.8500 N   0  0  0  0  0  0  0  0  0  0  0  0
  -30.0902  -12.6427   20.4319 N   0  0  0  0  0  0  0  0  0  0  0  0
  -25.4037  -15.1024   20.4323 N   0  0  0  0  0  0  0  0  0  0  0  0
  -21.7910  -12.5256   21.2718 N   0  0  0  0  0  0  0  0  0  0  0  0
  -30.6830  -12.9115   22.6988 N   0  0  0  0  0  0  0  0  0  0  0  0
  -33.5117  -27.5576   23.5011 N   0  0  0  0  0  0  0  0  0  0  0  0
  -28.5776  -27.5504   18.7982 N   0  0  0  0  0  0  0  0  0  0  0  0
  -33.4322  -17.4101   23.3051 N   0  3  1  0  0  0  0  0  0  0  0  0
  -28.8115  -26.2752   15.4238 N   0  3  0  0  0  0  0  0  0  0  0  0
  -22.5143  -14.6836   20.9916 O   0  0  0  0  0  0  0  0  0  0  0  0
  -31.3376  -26.7297   23.3992 O   0  0  0  0  0  0  0  0  0  0  0  0
  -30.4442  -28.9323   20.4760 O   0  0  0  0  0  0  0  0  0  0  0  0
  -28.4729  -25.3544   18.0608 O   0  0  0  0  0  0  0  0  0  0  0  0
  -32.2386  -13.2661   21.0148 O   0  0  0  0  0  0  0  0  0  0  0  0
  -21.7187   -6.9654   21.6104 O   0  0  0  0  0  0  0  0  0  0  0  0
  -32.5757  -20.7403   20.9295 O   0  0  0  0  0  0  0  0  0  1  0  0
  -18.1584   -6.8725   25.8199 F   0  0  0  0  0  0  0  0  0  0  0  0
  -21.9898   -5.1268   23.6569 F   0  0  0  0  0  0  0  0  0  0  0  0
  -29.4089  -12.4138   25.4235 Cl  0  0  0  0  0  0  0  0  0  0  0  0
  1  2  1  0  0  0  0
  1  5  2  0  0  0  0
  2  6  2  0  0  0  0
  3  9  2  0  0  0  0
  3 18  1  0  0  0  0
  4 10  1  0  0  0  0
  4 18  2  0  0  0  0
  5 20  1  0  0  0  0
  6 22  1  0  0  0  0
  7 11  2  0  0  0  0
  7 21  1  0  0  0  0
  8 14  2  0  0  0  0
  8 24  1  0  0  0  0
  9 26  1  0  0  0  0
 10 26  2  0  0  0  0
 11 27  1  0  0  0  0
 12 13  2  0  0  0  0
 12 28  1  0  0  0  0
 13 29  1  0  0  0  0
 14 31  1  0  0  0  0
 15 23  1  0  0  0  0
 15 27  2  0  0  0  0
 16 24  2  0  0  0  0
 16 25  1  0  0  0  0
 17 29  2  0  0  0  0
 17 30  1  0  0  0  0
 18 32  1  0  0  0  0
 19 32  1  0  0  0  0
 19 33  2  0  0  0  0
 19 34  1  0  0  0  0
 20 22  2  0  0  0  0
 20 39  1  0  0  0  0
 21 23  2  0  0  0  0
 21 40  1  0  0  0  0
 22 51  1  0  0  0  0
 23 41  1  0  0  0  0
 24 62  1  0  0  0  0
 25 31  2  0  0  0  0
 25 72  1  0  0  0  0
 26 82  1  0  0  0  0
 27 83  1  0  0  0  0
 28 30  2  0  0  0  0
 28 82  1  0  0  0  0
 29 84  1  0  0  0  0
 30 85  1  0  0  0  0
 31 86  1  0  0  0  0
 32 66  2  0  0  0  0
 33 67  1  0  0  0  0
 33 70  1  0  0  0  0
 34 71  1  0  0  0  0
 34 77  2  0  0  0  0
 35 52  1  0  0  0  0
 35 73  1  0  0  0  0
 35 78  2  0  0  0  0
 36 63  1  0  0  0  0
 36 68  1  0  0  0  0
 36 79  2  0  0  0  0
 37 64  1  0  0  0  0
 37 74  1  0  0  0  0
 37 80  2  0  0  0  0
 38 69  1  0  0  0  0
 38 72  1  0  0  0  0
 38 81  2  0  0  0  0
 39 42  1  0  0  0  0
 40 52  1  0  0  0  0
 41 68  1  0  0  0  0
 42 44  1  0  0  0  0
 43 45  1  0  0  0  0
 43 48  1  0  0  0  0
 44 51  1  0  0  0  0
 45 53  1  0  0  0  0
 46 50  1  0  0  0  0
 46 54  1  0  0  0  0
 47 54  1  0  0  0  0
 47 55  1  0  0  0  0
 48 69  1  0  0  0  0
 49 53  1  0  0  0  0
 49 69  1  0  0  0  0
 50 75  1  0  0  0  0
 51 73  1  0  0  0  0
 52 68  1  0  0  0  0
 53 67  1  0  0  0  0
 54 83  1  0  0  0  0
 55 56  1  0  0  0  0
 55 75  1  0  0  0  0
 57 64  1  0  0  0  0
 58 65  1  0  0  0  0
 59 65  1  0  0  0  0
 60 65  1  0  0  0  0
 61 76  1  0  0  0  0
 62 75  1  0  0  0  0
 63 65  1  0  0  0  0
 63 74  1  0  0  0  0
 64 76  1  0  0  0  0
 66 67  1  0  0  0  0
M  CHG  2  75   1  76   1
M  ISO  4  38 100  54 101  72 100  83 101
M  END
> <Batch ID>
0046

> <Smiles>
CNC(C)C(=O)NC(C(=O)N1Cc2cc([101O:1][101CH:1]3CCN(Cc4ccc(Cl)c([100NH:0][100C:0](=O)N5CCCC(n6nc(-c7ccc(Oc8ccc(F)cc8F)cc7)c(C(N)=O)c6N)C5)c4)C(C)C3)ccc2CC1C(=O)NC1CCCc2ccccc21)C(C)(C)C

> <Shape>
0.189

> <Color>
0.171

> <Negative vol penalty>
0.000

$$$$

  -OEChem-04042322233D

 86 95  0     1  0  0  0  0  0999 V2000
  -16.5499  -29.8490   23.4272 C   0  0  0  0  0  0  0  0  0  0  0  0
  -17.6185  -30.6957   23.6994 C   0  0  0  0  0  0  0  0  0  0  0  0
  -20.3834  -24.4553   14.3767 C   0  0  0  0  0  0  0  0  0  0  0  0
  -20.4690  -23.4292   12.1911 C   0  0  0  0  0  0  0  0  0  0  0  0
  -16.7902  -28.5433   23.0046 C   0  0  0  0  0  0  0  0  0  0  0  0
  -18.9277  -30.2409   23.5375 C   0  0  0  0  0  0  0  0  0  0  0  0
  -27.0797  -29.3285   22.0834 C   0  0  0  0  0  0  0  0  0  0  0  0
  -29.4552  -20.7441   15.9777 C   0  0  0  0  0  0  0  0  0  0  0  0
  -19.1217  -23.8995   14.5882 C   0  0  0  0  0  0  0  0  0  0  0  0
  -19.2073  -22.8733   12.4026 C   0  0  0  0  0  0  0  0  0  0  0  0
  -27.8673  -28.3347   21.5040 C   0  0  0  0  0  0  0  0  0  0  0  0
  -15.9855  -23.8926   12.2921 C   0  0  0  0  0  0  0  0  0  0  0  0
  -15.0586  -23.9749   11.2531 C   0  0  0  0  0  0  0  0  0  0  0  0
  -29.9126  -20.0718   17.1110 C   0  0  0  0  0  0  0  0  0  0  0  0
  -26.1785  -27.9886   19.8165 C   0  0  0  0  0  0  0  0  0  0  0  0
  -28.0394  -22.1231   17.3672 C   0  0  0  0  0  0  0  0  0  0  0  0
  -14.9261  -21.5637   11.1802 C   0  0  0  0  0  0  0  0  0  0  0  0
  -21.0570  -24.2202   13.1781 C   0  0  0  0  0  0  0  0  0  0  0  0
  -22.6960  -26.1616   12.9497 C   0  0  0  0  0  0  0  0  0  0  0  0
  -18.1033  -28.0692   22.8497 C   0  0  0  0  0  0  0  0  0  0  0  0
  -25.8286  -29.6528   21.5392 C   0  0  0  0  0  0  0  0  0  0  0  0
  -19.1907  -28.9339   23.0889 C   0  0  0  0  0  0  0  0  0  0  0  0
  -25.3781  -28.9887   20.3894 C   0  0  0  0  0  0  0  0  0  0  0  0
  -28.4968  -21.4508   18.5006 C   0  0  0  0  0  0  0  0  0  0  0  0
  -28.5186  -21.7698   16.1058 C   0  0  0  0  0  0  0  0  0  0  0  0
  -18.5336  -23.1085   13.6012 C   0  0  0  0  0  0  0  0  0  0  0  0
  -27.4155  -27.6625   20.3721 C   0  0  0  0  0  0  0  0  0  0  0  0
  -16.3828  -22.6458   12.7752 C   0  0  0  0  0  0  0  0  0  0  0  0
  -14.5289  -22.8105   10.6971 C   0  0  0  0  0  0  0  0  0  0  0  0
  -15.8531  -21.4813   12.2193 C   0  0  0  0  0  0  0  0  0  0  0  0
  -29.4334  -20.4251   18.3724 C   0  0  0  0  0  0  0  0  0  0  0  0
  -22.3602  -24.7945   12.9587 C   0  0  0  0  0  0  0  0  0  0  0  0
  -24.0465  -26.1817   12.7001 C   0  0  0  0  0  0  0  0  0  0  0  0
  -27.8944  -24.3187   20.0057 C   0  0  0  0  0  0  0  0  0  0  0  0
  -21.8619  -27.3106   13.1491 C   0  0  0  0  0  0  0  0  0  0  0  0
  -22.8297  -29.5411   22.5868 C   0  0  0  0  0  0  0  0  0  0  0  0
  -22.2032  -31.0306   19.7741 C   0  0  0  0  0  0  0  0  0  0  0  0
  -23.2943  -30.7517   16.3464 C   0  0  0  0  0  0  0  0  0  0  0  0
  -28.4290  -22.2277   13.6302 C   0  0  0  0  0  0  0  0  0  0  0  0
  -18.3060  -26.6495   22.3821 C   0  0  0  0  0  0  0  0  0  0  0  0
  -25.0028  -30.7458   22.1603 C   0  0  0  0  0  0  0  0  0  0  0  0
  -24.0515  -29.3134   19.7545 C   0  0  0  0  0  0  0  0  0  0  0  0
  -19.7096  -26.1246   22.6663 C   0  0  0  0  0  0  0  0  0  0  0  0
  -30.3836  -24.2715   21.5514 C   0  0  0  0  0  0  0  0  0  0  0  0
  -27.4885  -23.6702   10.5139 C   0  0  0  0  0  0  0  0  0  0  0  0
  -20.7470  -27.1277   22.1844 C   0  0  0  0  0  0  0  0  0  0  0  0
  -30.0174  -25.5042   20.7516 C   0  0  0  0  0  0  0  0  0  0  0  0
  -26.0998  -24.2520   10.7880 C   0  0  0  0  0  0  0  0  0  0  0  0
  -29.9018  -23.0291   20.8239 C   0  0  0  0  0  0  0  0  0  0  0  0
  -27.7080  -22.3528   11.2554 C   0  0  0  0  0  0  0  0  0  0  0  0
  -26.0599  -22.9846   12.9741 C   0  0  0  0  0  0  0  0  0  0  0  0
  -20.6232  -28.4515   22.9493 C   0  0  1  0  0  0  0  0  0  0  0  0
  -28.5093  -25.5733   20.6130 C   0  0  1  0  0  0  0  0  0  1  0  0
  -23.5186  -30.6375   21.8246 C   0  0  1  0  0  0  0  0  0  0  0  0
  -25.8161  -24.3447   12.3002 C   0  0  2  0  0  0  0  0  0  0  0  0
  -23.3883  -32.4693   14.5193 C   0  0  0  0  0  0  0  0  0  0  0  0
  -19.4524  -29.9511   19.0140 C   0  0  0  0  0  0  0  0  0  0  0  0
  -20.0887  -30.2201   16.6076 C   0  0  0  0  0  0  0  0  0  0  0  0
  -19.9733  -32.2184   18.0963 C   0  0  0  0  0  0  0  0  0  0  0  0
  -26.1740  -30.2595   15.8733 C   0  0  0  0  0  0  0  0  0  0  0  0
  -27.9567  -21.8609   19.8401 C   0  0  0  0  0  0  0  0  0  0  0  0
  -21.8744  -30.5748   18.3730 C   0  0  1  0  0  0  0  0  0  0  0  0
  -24.1750  -31.7302   15.5906 C   0  0  2  0  0  0  0  0  0  0  0  0
  -20.3631  -30.7252   18.0402 C   0  0  0  0  0  0  0  0  0  0  0  0
  -23.4124  -24.0035   12.7328 N   0  0  0  0  0  0  0  0  0  0  0  0
  -24.4227  -24.8763   12.5793 N   0  0  0  0  0  0  0  0  0  0  0  0
  -28.5371  -23.1150   20.3011 N   0  0  0  0  0  0  0  0  0  0  0  0
  -23.2777  -30.3854   20.4024 N   0  0  0  0  0  0  0  0  0  0  0  0
  -27.4246  -22.5180   12.6828 N   0  0  0  0  0  0  0  0  0  0  0  0
  -24.9370  -27.1885   12.5744 N   0  0  0  0  0  0  0  0  0  0  0  0
  -20.4966  -27.1105   13.3945 N   0  0  0  0  0  0  0  0  0  0  0  0
  -28.0549  -22.4533   14.9545 N   0  0  0  0  0  0  0  0  0  0  0  0
  -21.4766  -29.4387   22.3256 N   0  0  0  0  0  0  0  0  0  0  0  0
  -22.7591  -31.3193   17.4834 N   0  0  0  0  0  0  0  0  0  0  0  0
  -25.3028  -31.0111   14.9335 N   0  3  0  0  0  0  0  0  0  0  0  0
  -26.8507  -24.4000   19.3529 O   0  0  0  0  0  0  0  0  0  0  0  0
  -22.3109  -28.4806   13.0945 O   0  0  0  0  0  0  0  0  0  0  0  0
  -23.4780  -28.8390   23.3539 O   0  0  0  0  0  0  0  0  0  0  0  0
  -21.5358  -31.9311   20.2893 O   0  0  0  0  0  0  0  0  0  0  0  0
  -23.0975  -29.6003   15.9643 O   0  0  0  0  0  0  0  0  0  0  0  0
  -29.5481  -21.8356   13.2901 O   0  0  0  0  0  0  0  0  0  0  0  0
  -17.3026  -22.5657   13.8073 O   0  0  0  0  0  0  0  0  0  0  0  0
  -28.1820  -26.6916   19.8049 O   0  0  0  0  0  0  0  0  0  1  0  0
  -13.6376  -22.8897    9.7004 F   0  0  0  0  0  0  0  0  0  0  0  0
  -16.2300  -20.2807   12.6800 F   0  0  0  0  0  0  0  0  0  0  0  0
  -30.0231  -19.5710   19.7515 Cl  0  0  0  0  0  0  0  0  0  0  0  0
  1  2  1  0  0  0  0
  1  5  2  0  0  0  0
  2  6  2  0  0  0  0
  3  9  2  0  0  0  0
  3 18  1  0  0  0  0
  4 10  1  0  0  0  0
  4 18  2  0  0  0  0
  5 20  1  0  0  0  0
  6 22  1  0  0  0  0
  7 11  2  0  0  0  0
  7 21  1  0  0  0  0
  8 14  2  0  0  0  0
  8 25  1  0  0  0  0
  9 26  1  0  0  0  0
 10 26  2  0  0  0  0
 11 27  1  0  0  0  0
 12 13  2  0  0  0  0
 12 28  1  0  0  0  0
 13 29  1  0  0  0  0
 14 31  1  0  0  0  0
 15 23  1  0  0  0  0
 15 27  2  0  0  0  0
 16 24  1  0  0  0  0
 16 25  2  0  0  0  0
 17 29  2  0  0  0  0
 17 30  1  0  0  0  0
 18 32  1  0  0  0  0
 19 32  1  0  0  0  0
 19 33  2  0  0  0  0
 19 35  1  0  0  0  0
 20 22  2  0  0  0  0
 20 40  1  0  0  0  0
 21 23  2  0  0  0  0
 21 41  1  0  0  0  0
 22 52  1  0  0  0  0
 23 42  1  0  0  0  0
 24 31  2  0  0  0  0
 24 61  1  0  0  0  0
 25 72  1  0  0  0  0
 26 82  1  0  0  0  0
 27 83  1  0  0  0  0
 28 30  2  0  0  0  0
 28 82  1  0  0  0  0
 29 84  1  0  0  0  0
 30 85  1  0  0  0  0
 31 86  1  0  0  0  0
 32 65  2  0  0  0  0
 33 66  1  0  0  0  0
 33 70  1  0  0  0  0
 34 53  1  0  0  0  0
 34 67  1  0  0  0  0
 34 76  2  0  0  0  0
 35 71  1  0  0  0  0
 35 77  2  0  0  0  0
 36 54  1  0  0  0  0
 36 73  1  0  0  0  0
 36 78  2  0  0  0  0
 37 62  1  0  0  0  0
 37 68  1  0  0  0  0
 37 79  2  0  0  0  0
 38 63  1  0  0  0  0
 38 74  1  0  0  0  0
 38 80  2  0  0  0  0
 39 69  1  0  0  0  0
 39 72  1  0  0  0  0
 39 81  2  0  0  0  0
 40 43  1  0  0  0  0
 41 54  1  0  0  0  0
 42 68  1  0  0  0  0
 43 46  1  0  0  0  0
 44 47  1  0  0  0  0
 44 49  1  0  0  0  0
 45 48  1  0  0  0  0
 45 50  1  0  0  0  0
 46 52  1  0  0  0  0
 47 53  1  0  0  0  0
 48 55  1  0  0  0  0
 49 67  1  0  0  0  0
 50 69  1  0  0  0  0
 51 55  1  0  0  0  0
 51 69  1  0  0  0  0
 52 73  1  0  0  0  0
 53 83  1  0  0  0  0
 54 68  1  0  0  0  0
 55 66  1  0  0  0  0
 56 63  1  0  0  0  0
 57 64  1  0  0  0  0
 58 64  1  0  0  0  0
 59 64  1  0  0  0  0
 60 75  1  0  0  0  0
 61 67  1  0  0  0  0
 62 64  1  0  0  0  0
 62 74  1  0  0  0  0
 63 75  1  0  0  0  0
 65 66  1  0  0  0  0
M  CHG  1  75   1
M  ISO  4  39 100  53 101  72 100  83 101
M  END
> <Batch ID>
0046

> <Smiles>
CNC(C)C(=O)NC(C(=O)N1Cc2cc([101O:1][101CH:1]3CCCN(Cc4cc([100NH:0][100C:0](=O)N5CCCC(n6nc(-c7ccc(Oc8ccc(F)cc8F)cc7)c(C(N)=O)c6N)C5)ccc4Cl)C3=O)ccc2CC1C(=O)NC1CCCc2ccccc21)C(C)(C)C

> <Shape>
0.172

> <Color>
0.122

> <Negative vol penalty>
0.000

$$$$

  -OEChem-04042322233D

 86 95  0     1  0  0  0  0  0999 V2000
  -29.8196  -11.5796   20.0725 C   0  0  0  0  0  0  0  0  0  0  0  0
  -29.7125  -12.8078   20.7151 C   0  0  0  0  0  0  0  0  0  0  0  0
  -19.8956  -26.9982   22.8239 C   0  0  0  0  0  0  0  0  0  0  0  0
  -30.7947  -24.8947   18.5972 C   0  0  0  0  0  0  0  0  0  0  0  0
  -28.5590  -23.9855   18.7085 C   0  0  0  0  0  0  0  0  0  0  0  0
  -28.9276  -11.2499   19.0543 C   0  0  0  0  0  0  0  0  0  0  0  0
  -28.7060  -13.7017   20.3480 C   0  0  0  0  0  0  0  0  0  0  0  0
  -24.4155  -20.3952   20.4522 C   0  0  0  0  0  0  0  0  0  0  0  0
  -19.3615  -26.4017   21.6818 C   0  0  0  0  0  0  0  0  0  0  0  0
  -21.1784  -27.5450   22.7902 C   0  0  0  0  0  0  0  0  0  0  0  0
  -31.3098  -23.6085   18.4370 C   0  0  0  0  0  0  0  0  0  0  0  0
  -29.0742  -22.6992   18.5483 C   0  0  0  0  0  0  0  0  0  0  0  0
  -23.5236  -21.1569   19.6984 C   0  0  0  0  0  0  0  0  0  0  0  0
  -30.6003  -20.3700   20.4659 C   0  0  0  0  0  0  0  0  0  0  0  0
  -30.1076  -19.3662   21.2996 C   0  0  0  0  0  0  0  0  0  0  0  0
  -22.0673  -19.2440   19.4996 C   0  0  0  0  0  0  0  0  0  0  0  0
  -29.3376  -18.1386   19.3663 C   0  0  0  0  0  0  0  0  0  0  0  0
  -29.4192  -25.0833   18.7330 C   0  0  0  0  0  0  0  0  0  0  0  0
  -29.0080  -27.4940   18.0070 C   0  0  0  0  0  0  0  0  0  0  0  0
  -27.9177  -12.1459   18.6667 C   0  0  0  0  0  0  0  0  0  0  0  0
  -24.1447  -19.0469   20.7265 C   0  0  0  0  0  0  0  0  0  0  0  0
  -27.7811  -13.3774   19.3390 C   0  0  0  0  0  0  0  0  0  0  0  0
  -22.9562  -18.4681   20.2592 C   0  0  0  0  0  0  0  0  0  0  0  0
  -20.1102  -26.3519   20.5059 C   0  0  0  0  0  0  0  0  0  0  0  0
  -21.9272  -27.4952   21.6144 C   0  0  0  0  0  0  0  0  0  0  0  0
  -30.4496  -22.5107   18.4125 C   0  0  0  0  0  0  0  0  0  0  0  0
  -22.3507  -20.5806   19.2195 C   0  0  0  0  0  0  0  0  0  0  0  0
  -30.4616  -20.2583   19.0824 C   0  0  0  0  0  0  0  0  0  0  0  0
  -29.4763  -18.2504   20.7498 C   0  0  0  0  0  0  0  0  0  0  0  0
  -29.8303  -19.1425   18.5326 C   0  0  0  0  0  0  0  0  0  0  0  0
  -21.3931  -26.8987   20.4722 C   0  0  0  0  0  0  0  0  0  0  0  0
  -28.8865  -26.4117   18.8991 C   0  0  0  0  0  0  0  0  0  0  0  0
  -28.3337  -28.5216   18.6201 C   0  0  0  0  0  0  0  0  0  0  0  0
  -20.6426  -23.5106   18.9571 C   0  0  0  0  0  0  0  0  0  0  0  0
  -29.6710  -27.5641   16.7377 C   0  0  0  0  0  0  0  0  0  0  0  0
  -25.5702  -16.2889   20.0445 C   0  0  0  0  0  0  0  0  0  0  0  0
  -23.2746  -15.0700   21.9854 C   0  0  0  0  0  0  0  0  0  0  0  0
  -19.7471  -15.5870   22.5390 C   0  0  0  0  0  0  0  0  0  0  0  0
  -23.9053  -28.6804   22.6287 C   0  0  0  0  0  0  0  0  0  0  0  0
  -26.9743  -11.7347   17.5638 C   0  0  0  0  0  0  0  0  0  0  0  0
  -25.1041  -18.2462   21.5637 C   0  0  0  0  0  0  0  0  0  0  0  0
  -22.6091  -17.0303   20.5433 C   0  0  0  0  0  0  0  0  0  0  0  0
  -26.2300  -12.9147   16.9474 C   0  0  0  0  0  0  0  0  0  0  0  0
  -17.9596  -22.3458   19.3644 C   0  0  0  0  0  0  0  0  0  0  0  0
  -27.1319  -30.1485   22.9609 C   0  0  0  0  0  0  0  0  0  0  0  0
  -25.6205  -13.7750   18.0442 C   0  0  0  0  0  0  0  0  0  0  0  0
  -19.0951  -21.5769   18.6915 C   0  0  0  0  0  0  0  0  0  0  0  0
  -27.9575  -29.4597   21.8718 C   0  0  0  0  0  0  0  0  0  0  0  0
  -18.4288  -23.6165   20.0673 C   0  0  0  0  0  0  0  0  0  0  0  0
  -26.1323  -29.1903   23.6061 C   0  0  0  0  0  0  0  0  0  0  0  0
  -26.0789  -27.7953   21.5762 C   0  0  0  0  0  0  0  0  0  0  0  0
  -26.7133  -14.3782   18.9358 C   0  0  1  0  0  0  0  0  0  0  0  0
  -20.4662  -22.0160   19.1893 C   0  0  1  0  0  0  0  0  0  1  0  0
  -24.9740  -16.7417   21.3473 C   0  0  1  0  0  0  0  0  0  0  0  0
  -27.0549  -28.7373   20.8526 C   0  0  2  0  0  0  0  0  0  0  0  0
  -18.3467  -15.2221   24.5891 C   0  0  0  0  0  0  0  0  0  0  0  0
  -22.7081  -12.3345   20.7582 C   0  0  0  0  0  0  0  0  0  0  0  0
  -20.3523  -12.5298   21.5830 C   0  0  0  0  0  0  0  0  0  0  0  0
  -22.2427  -12.4945   23.2102 C   0  0  0  0  0  0  0  0  0  0  0  0
  -18.7611  -18.3772   22.5035 C   0  0  0  0  0  0  0  0  0  0  0  0
  -19.5321  -25.7093   19.2784 C   0  0  0  0  0  0  0  0  0  0  0  0
  -21.8714  -14.5502   21.7861 C   0  0  1  0  0  0  0  0  0  0  0  0
  -19.1031  -16.2394   23.7490 C   0  0  2  0  0  0  0  0  0  0  0  0
  -21.8047  -12.9972   21.8173 C   0  0  0  0  0  0  0  0  0  0  0  0
  -28.1900  -26.7228   19.9954 N   0  0  0  0  0  0  0  0  0  0  0  0
  -27.8678  -28.0123   19.7964 N   0  0  0  0  0  0  0  0  0  0  0  0
  -19.5370  -24.2590   19.3701 N   0  0  0  0  0  0  0  0  0  0  0  0
  -23.5821  -16.2870   21.3608 N   0  0  0  0  0  0  0  0  0  0  0  0
  -25.3090  -28.5460   22.5805 N   0  0  0  0  0  0  0  0  0  0  0  0
  -28.0999  -29.8021   18.2623 N   0  0  0  0  0  0  0  0  0  0  0  0
  -30.3145  -26.4161   16.2557 N   0  0  0  0  0  0  0  0  0  0  0  0
  -23.2297  -28.0522   21.5830 N   0  0  0  0  0  0  0  0  0  0  0  0
  -26.0937  -15.0106   20.0795 N   0  0  0  0  0  0  0  0  0  0  0  0
  -21.0465  -15.2042   22.7962 N   0  0  0  0  0  0  0  0  0  0  0  0
  -18.1466  -17.2981   23.3189 N   0  3  0  0  0  0  0  0  0  0  0  0
  -21.6686  -23.9780   18.4663 O   0  0  0  0  0  0  0  0  0  0  0  0
  -29.7062  -28.6184   16.0589 O   0  0  0  0  0  0  0  0  0  0  0  0
  -25.5550  -17.0430   19.0787 O   0  0  0  0  0  0  0  0  0  0  0  0
  -24.0665  -14.4237   22.6759 O   0  0  0  0  0  0  0  0  0  0  0  0
  -19.1553  -15.4291   21.4734 O   0  0  0  0  0  0  0  0  0  0  0  0
  -23.3456  -29.3296   23.5160 O   0  0  0  0  0  0  0  0  0  0  0  0
  -30.9520  -21.2554   18.2560 O   0  0  0  0  0  0  0  0  0  0  0  0
  -21.4788  -21.3216   18.4830 O   0  0  0  0  0  0  0  0  0  1  0  0
  -29.0046  -17.2857   21.5504 F   0  0  0  0  0  0  0  0  0  0  0  0
  -29.6952  -19.0290   17.2042 F   0  0  0  0  0  0  0  0  0  0  0  0
  -22.1119  -26.8516   19.3404 F   0  0  0  0  0  0  0  0  0  0  0  0
  1  2  1  0  0  0  0
  1  6  2  0  0  0  0
  2  7  2  0  0  0  0
  3  9  2  0  0  0  0
  3 10  1  0  0  0  0
  4 11  2  0  0  0  0
  4 18  1  0  0  0  0
  5 12  1  0  0  0  0
  5 18  2  0  0  0  0
  6 20  1  0  0  0  0
  7 22  1  0  0  0  0
  8 13  2  0  0  0  0
  8 21  1  0  0  0  0
  9 24  1  0  0  0  0
 10 25  2  0  0  0  0
 11 26  1  0  0  0  0
 12 26  2  0  0  0  0
 13 27  1  0  0  0  0
 14 15  2  0  0  0  0
 14 28  1  0  0  0  0
 15 29  1  0  0  0  0
 16 23  1  0  0  0  0
 16 27  2  0  0  0  0
 17 29  2  0  0  0  0
 17 30  1  0  0  0  0
 18 32  1  0  0  0  0
 19 32  1  0  0  0  0
 19 33  2  0  0  0  0
 19 35  1  0  0  0  0
 20 22  2  0  0  0  0
 20 40  1  0  0  0  0
 21 23  2  0  0  0  0
 21 41  1  0  0  0  0
 22 52  1  0  0  0  0
 23 42  1  0  0  0  0
 24 31  2  0  0  0  0
 24 61  1  0  0  0  0
 25 31  1  0  0  0  0
 25 72  1  0  0  0  0
 26 82  1  0  0  0  0
 27 83  1  0  0  0  0
 28 30  2  0  0  0  0
 28 82  1  0  0  0  0
 29 84  1  0  0  0  0
 30 85  1  0  0  0  0
 31 86  1  0  0  0  0
 32 65  2  0  0  0  0
 33 66  1  0  0  0  0
 33 70  1  0  0  0  0
 34 53  1  0  0  0  0
 34 67  1  0  0  0  0
 34 76  2  0  0  0  0
 35 71  1  0  0  0  0
 35 77  2  0  0  0  0
 36 54  1  0  0  0  0
 36 73  1  0  0  0  0
 36 78  2  0  0  0  0
 37 62  1  0  0  0  0
 37 68  1  0  0  0  0
 37 79  2  0  0  0  0
 38 63  1  0  0  0  0
 38 74  1  0  0  0  0
 38 80  2  0  0  0  0
 39 69  1  0  0  0  0
 39 72  1  0  0  0  0
 39 81  2  0  0  0  0
 40 43  1  0  0  0  0
 41 54  1  0  0  0  0
 42 68  1  0  0  0  0
 43 46  1  0  0  0  0
 44 47  1  0  0  0  0
 44 49  1  0  0  0  0
 45 48  1  0  0  0  0
 45 50  1  0  0  0  0
 46 52  1  0  0  0  0
 47 53  1  0  0  0  0
 48 55  1  0  0  0  0
 49 67  1  0  0  0  0
 50 69  1  0  0  0  0
 51 55  1  0  0  0  0
 51 69  1  0  0  0  0
 52 73  1  0  0  0  0
 53 83  1  0  0  0  0
 54 68  1  0  0  0  0
 55 66  1  0  0  0  0
 56 63  1  0  0  0  0
 57 64  1  0  0  0  0
 58 64  1  0  0  0  0
 59 64  1  0  0  0  0
 60 75  1  0  0  0  0
 61 67  1  0  0  0  0
 62 64  1  0  0  0  0
 62 74  1  0  0  0  0
 63 75  1  0  0  0  0
 65 66  1  0  0  0  0
M  CHG  1  75   1
M  ISO  4  39 100  53 101  72 100  83 101
M  END
> <Batch ID>
0046

> <Smiles>
CNC(C)C(=O)NC(C(=O)N1Cc2cc([101O:1][101CH:1]3CCCN(Cc4cccc([100NH:0][100C:0](=O)N5CCCC(n6nc(-c7ccc(Oc8ccc(F)cc8F)cc7)c(C(N)=O)c6N)C5)c4F)C3=O)ccc2CC1C(=O)NC1CCCc2ccccc21)C(C)(C)C

> <Shape>
0.223

> <Color>
0.060

> <Negative vol penalty>
0.000

$$$$

  -OEChem-04042322233D

 89 98  0     1  0  0  0  0  0999 V2000
  -28.1200  -34.1590   24.5155 C   0  0  0  0  0  0  0  0  0  0  0  0
  -28.2059  -32.8115   24.1807 C   0  0  0  0  0  0  0  0  0  0  0  0
  -22.7783  -10.6465   20.8088 C   0  0  0  0  0  0  0  0  0  0  0  0
  -24.6059   -9.3501   21.7122 C   0  0  0  0  0  0  0  0  0  0  0  0
  -26.8795  -34.7273   24.8020 C   0  0  0  0  0  0  0  0  0  0  0  0
  -27.0512  -32.0311   24.1331 C   0  0  0  0  0  0  0  0  0  0  0  0
  -26.8786  -29.0648   20.0324 C   0  0  0  0  0  0  0  0  0  0  0  0
  -21.8773   -9.9166   21.5840 C   0  0  0  0  0  0  0  0  0  0  0  0
  -23.7049   -8.6202   22.4875 C   0  0  0  0  0  0  0  0  0  0  0  0
  -27.6527  -27.9054   20.0521 C   0  0  0  0  0  0  0  0  0  0  0  0
  -21.5275   -6.0726   22.0408 C   0  0  0  0  0  0  0  0  0  0  0  0
  -21.6789   -4.6865   22.0778 C   0  0  0  0  0  0  0  0  0  0  0  0
  -25.6938  -26.6144   20.6135 C   0  0  0  0  0  0  0  0  0  0  0  0
  -28.8199  -19.2345   18.0977 C   0  0  0  0  0  0  0  0  0  0  0  0
  -27.2451  -19.3379   15.7973 C   0  0  0  0  0  0  0  0  0  0  0  0
  -22.0013   -4.7856   24.4702 C   0  0  0  0  0  0  0  0  0  0  0  0
  -24.1426  -10.3633   20.8728 C   0  0  0  0  0  0  0  0  0  0  0  0
  -25.0991  -11.2184   18.6679 C   0  0  0  0  0  0  0  0  0  0  0  0
  -25.7079  -33.9558   24.7485 C   0  0  0  0  0  0  0  0  0  0  0  0
  -25.5061  -29.0091   20.3142 C   0  0  0  0  0  0  0  0  0  0  0  0
  -25.7940  -32.5892   24.4205 C   0  0  0  0  0  0  0  0  0  0  0  0
  -24.9041  -27.7741   20.5941 C   0  0  0  0  0  0  0  0  0  0  0  0
  -28.6340  -20.4470   17.4338 C   0  0  0  0  0  0  0  0  0  0  0  0
  -27.8466  -20.4988   16.2836 C   0  0  0  0  0  0  0  0  0  0  0  0
  -28.2185  -18.0737   17.6115 C   0  0  0  0  0  0  0  0  0  0  0  0
  -22.3406   -8.9035   22.4234 C   0  0  0  0  0  0  0  0  0  0  0  0
  -27.0609  -26.6804   20.3455 C   0  0  0  0  0  0  0  0  0  0  0  0
  -21.6130   -6.8152   23.2185 C   0  0  0  0  0  0  0  0  0  0  0  0
  -21.9158   -4.0430   23.2925 C   0  0  0  0  0  0  0  0  0  0  0  0
  -27.4310  -18.1254   16.4613 C   0  0  0  0  0  0  0  0  0  0  0  0
  -21.8499   -6.1717   24.4332 C   0  0  0  0  0  0  0  0  0  0  0  0
  -25.0737  -11.1165   20.0718 C   0  0  0  0  0  0  0  0  0  0  0  0
  -26.1652  -12.0427   18.4027 C   0  0  0  0  0  0  0  0  0  0  0  0
  -29.5125  -23.0566   19.9593 C   0  0  0  0  0  0  0  0  0  0  0  0
  -30.3145  -20.7013   22.6599 C   0  0  0  0  0  0  0  0  0  0  0  0
  -30.0434  -22.5486   21.0818 C   0  0  0  0  0  0  0  0  0  0  0  0
  -29.7849  -21.2073   21.5406 C   0  0  0  0  0  0  0  0  0  0  0  0
  -24.2359  -10.6215   17.6910 C   0  0  0  0  0  0  0  0  0  0  0  0
  -23.6232  -30.2553   22.5515 C   0  0  0  0  0  0  0  0  0  0  0  0
  -21.2672  -28.9482   20.7452 C   0  0  0  0  0  0  0  0  0  0  0  0
  -20.7260  -25.8630   18.9545 C   0  0  0  0  0  0  0  0  0  0  0  0
  -29.1593  -16.6208   19.4418 C   0  0  0  0  0  0  0  0  0  0  0  0
  -24.3952  -34.6031   25.1124 C   0  0  0  0  0  0  0  0  0  0  0  0
  -24.6799  -30.2650   20.2626 C   0  0  0  0  0  0  0  0  0  0  0  0
  -23.4306  -27.6576   20.8837 C   0  0  0  0  0  0  0  0  0  0  0  0
  -29.7863  -24.4603   19.4841 C   0  0  0  0  0  0  0  0  0  0  0  0
  -23.1759  -33.7959   24.6742 C   0  0  0  0  0  0  0  0  0  0  0  0
  -29.8431  -13.7494   21.4330 C   0  0  0  0  0  0  0  0  0  0  0  0
  -23.3473  -32.3262   25.0450 C   0  0  0  0  0  0  0  0  0  0  0  0
  -28.6653  -12.8168   21.1409 C   0  0  0  0  0  0  0  0  0  0  0  0
  -27.5482  -24.3243   18.3127 C   0  0  0  0  0  0  0  0  0  0  0  0
  -29.4101  -15.2138   21.4747 C   0  0  0  0  0  0  0  0  0  0  0  0
  -27.4923  -14.7437   20.0015 C   0  0  0  0  0  0  0  0  0  0  0  0
  -27.3164  -22.9483   18.9355 C   0  0  0  0  0  0  0  0  0  0  0  0
  -24.5612  -31.7158   24.3342 C   0  0  1  0  0  0  0  0  0  0  0  0
  -23.3894  -30.1648   21.0700 C   0  0  1  0  0  0  0  0  0  0  0  0
  -27.8908  -13.2634   19.8854 C   0  0  2  0  0  0  0  0  0  0  0  0
  -28.4832  -25.1900   19.1571 C   0  0  1  0  0  0  0  0  0  1  0  0
  -27.6332  -21.7851   15.5556 C   0  0  0  0  0  0  0  0  0  0  0  0
  -19.2914  -25.3664   16.9564 C   0  0  0  0  0  0  0  0  0  0  0  0
  -19.1705  -28.1471   22.8121 C   0  0  0  0  0  0  0  0  0  0  0  0
  -18.4986  -26.2683   21.2998 C   0  0  0  0  0  0  0  0  0  0  0  0
  -18.2584  -28.6302   20.5342 C   0  0  0  0  0  0  0  0  0  0  0  0
  -23.0143  -24.7503   17.4430 C   0  0  0  0  0  0  0  0  0  0  0  0
  -29.2912  -21.6823   17.9751 C   0  0  0  0  0  0  0  0  0  0  0  0
  -20.5660  -27.6118   20.7068 C   0  0  1  0  0  0  0  0  0  0  0  0
  -20.6960  -25.6800   17.4479 C   0  0  2  0  0  0  0  0  0  0  0  0
  -19.1503  -27.6668   21.3472 C   0  0  0  0  0  0  0  0  0  0  0  0
  -26.0467  -11.8197   20.6575 N   0  0  0  0  0  0  0  0  0  0  0  0
  -26.6934  -12.3713   19.6165 N   0  0  0  0  0  0  0  0  0  0  0  0
  -22.6664  -28.9147   20.8274 N   0  0  0  0  0  0  0  0  0  0  0  0
  -28.6863  -15.5664   20.2513 N   0  0  0  0  0  0  0  0  0  0  0  0
  -26.6932  -12.5111   17.2520 N   0  0  0  0  0  0  0  0  0  0  0  0
  -24.5773   -9.3627   17.1780 N   0  0  0  0  0  0  0  0  0  0  0  0
  -28.4086  -16.8432   18.2879 N   0  0  0  0  0  0  0  0  0  0  0  0
  -24.2436  -31.4229   22.9529 N   0  0  0  0  0  0  0  0  0  0  0  0
  -20.5745  -27.1863   19.3114 N   0  0  0  0  0  0  0  0  0  0  0  0
  -28.6126  -22.2203   19.2044 N   0  3  1  0  0  0  0  0  0  0  0  0
  -21.5957  -24.5628   17.0438 N   0  3  0  0  0  0  0  0  0  0  0  0
  -23.2015  -11.1949   17.2730 O   0  0  0  0  0  0  0  0  0  0  0  0
  -23.2658  -29.3345   23.2769 O   0  0  0  0  0  0  0  0  0  0  0  0
  -20.5984  -29.9836   20.6965 O   0  0  0  0  0  0  0  0  0  0  0  0
  -20.8659  -24.9255   19.7368 O   0  0  0  0  0  0  0  0  0  0  0  0
  -30.1726  -17.2602   19.7356 O   0  0  0  0  0  0  0  0  0  0  0  0
  -21.4617   -8.1912   23.1803 O   0  0  0  0  0  0  0  0  0  0  0  0
  -27.8143  -25.5473   20.3661 O   0  0  0  0  0  0  0  0  0  1  0  0
  -22.0596   -2.7117   23.3280 F   0  0  0  0  0  0  0  0  0  0  0  0
  -26.8478  -17.0161   15.9851 F   0  0  0  0  0  0  0  0  0  0  0  0
  -21.9319   -6.8797   25.5680 F   0  0  0  0  0  0  0  0  0  0  0  0
  1  2  1  0  0  0  0
  1  5  2  0  0  0  0
  2  6  2  0  0  0  0
  3  8  2  0  0  0  0
  3 17  1  0  0  0  0
  4  9  1  0  0  0  0
  4 17  2  0  0  0  0
  5 19  1  0  0  0  0
  6 21  1  0  0  0  0
  7 10  2  0  0  0  0
  7 20  1  0  0  0  0
  8 26  1  0  0  0  0
  9 26  2  0  0  0  0
 10 27  1  0  0  0  0
 11 12  2  0  0  0  0
 11 28  1  0  0  0  0
 12 29  1  0  0  0  0
 13 22  1  0  0  0  0
 13 27  2  0  0  0  0
 14 23  1  0  0  0  0
 14 25  2  0  0  0  0
 15 24  1  0  0  0  0
 15 30  2  0  0  0  0
 16 29  2  0  0  0  0
 16 31  1  0  0  0  0
 17 32  1  0  0  0  0
 18 32  1  0  0  0  0
 18 33  2  0  0  0  0
 18 38  1  0  0  0  0
 19 21  2  0  0  0  0
 19 43  1  0  0  0  0
 20 22  2  0  0  0  0
 20 44  1  0  0  0  0
 21 55  1  0  0  0  0
 22 45  1  0  0  0  0
 23 24  2  0  0  0  0
 23 65  1  0  0  0  0
 24 59  1  0  0  0  0
 25 30  1  0  0  0  0
 25 75  1  0  0  0  0
 26 85  1  0  0  0  0
 27 86  1  0  0  0  0
 28 31  2  0  0  0  0
 28 85  1  0  0  0  0
 29 87  1  0  0  0  0
 30 88  1  0  0  0  0
 31 89  1  0  0  0  0
 32 69  2  0  0  0  0
 33 70  1  0  0  0  0
 33 73  1  0  0  0  0
 34 36  2  0  0  0  0
 34 46  1  0  0  0  0
 34 78  1  0  0  0  0
 35 37  2  0  0  0  0
 36 37  1  0  0  0  0
 38 74  1  0  0  0  0
 38 80  2  0  0  0  0
 39 56  1  0  0  0  0
 39 76  1  0  0  0  0
 39 81  2  0  0  0  0
 40 66  1  0  0  0  0
 40 71  1  0  0  0  0
 40 82  2  0  0  0  0
 41 67  1  0  0  0  0
 41 77  1  0  0  0  0
 41 83  2  0  0  0  0
 42 72  1  0  0  0  0
 42 75  1  0  0  0  0
 42 84  2  0  0  0  0
 43 47  1  0  0  0  0
 44 56  1  0  0  0  0
 45 71  1  0  0  0  0
 46 58  1  0  0  0  0
 47 49  1  0  0  0  0
 48 50  1  0  0  0  0
 48 52  1  0  0  0  0
 49 55  1  0  0  0  0
 50 57  1  0  0  0  0
 51 54  1  0  0  0  0
 51 58  1  0  0  0  0
 52 72  1  0  0  0  0
 53 57  1  0  0  0  0
 53 72  1  0  0  0  0
 54 78  1  0  0  0  0
 55 76  1  0  0  0  0
 56 71  1  0  0  0  0
 57 70  1  0  0  0  0
 58 86  1  0  0  0  0
 60 67  1  0  0  0  0
 61 68  1  0  0  0  0
 62 68  1  0  0  0  0
 63 68  1  0  0  0  0
 64 79  1  0  0  0  0
 65 78  1  0  0  0  0
 66 68  1  0  0  0  0
 66 77  1  0  0  0  0
 67 79  1  0  0  0  0
 69 70  1  0  0  0  0
M  CHG  2  78   1  79   1
M  ISO  4  42 100  58 101  75 100  86 101
M  END
> <Batch ID>
0046

> <Smiles>
C=CC=C1C[101CH:1]([101O:1]c2ccc3c(c2)CN(C(=O)C(NC(=O)C(C)NC)C(C)(C)C)C(C(=O)NC2CCCc4ccccc42)C3)CCN1Cc1cc([100NH:0][100C:0](=O)N2CCCC(n3nc(-c4ccc(Oc5ccc(F)cc5F)cc4)c(C(N)=O)c3N)C2)c(F)cc1C

> <Shape>
0.332

> <Color>
0.098

> <Negative vol penalty>
0.000

$$$$

  -OEChem-04042322233D

 86 95  0     1  0  0  0  0  0999 V2000
  -25.9172  -33.9567   25.4999 C   0  0  0  0  0  0  0  0  0  0  0  0
  -26.4696  -32.8255   24.9076 C   0  0  0  0  0  0  0  0  0  0  0  0
  -24.1332  -10.8687   23.0053 C   0  0  0  0  0  0  0  0  0  0  0  0
  -23.6175  -13.1016   23.7706 C   0  0  0  0  0  0  0  0  0  0  0  0
  -24.5846  -33.9471   25.9100 C   0  0  0  0  0  0  0  0  0  0  0  0
  -25.6900  -31.6837   24.7261 C   0  0  0  0  0  0  0  0  0  0  0  0
  -26.2759  -29.6422   20.1289 C   0  0  0  0  0  0  0  0  0  0  0  0
  -25.1209  -21.7043   21.8074 C   0  0  0  0  0  0  0  0  0  0  0  0
  -25.4566  -20.4286   21.3541 C   0  0  0  0  0  0  0  0  0  0  0  0
  -23.5634  -10.3401   24.1636 C   0  0  0  0  0  0  0  0  0  0  0  0
  -23.0477  -12.5730   24.9289 C   0  0  0  0  0  0  0  0  0  0  0  0
  -27.4251  -28.8835   19.9109 C   0  0  0  0  0  0  0  0  0  0  0  0
  -20.4605   -9.7030   25.3462 C   0  0  0  0  0  0  0  0  0  0  0  0
  -19.6054   -8.6098   25.2073 C   0  0  0  0  0  0  0  0  0  0  0  0
  -26.1468  -26.8642   20.2389 C   0  0  0  0  0  0  0  0  0  0  0  0
  -27.8006  -20.9531   21.6140 C   0  0  0  0  0  0  0  0  0  0  0  0
  -21.0630   -7.2912   26.6123 C   0  0  0  0  0  0  0  0  0  0  0  0
  -24.1603  -12.2495   22.8089 C   0  0  0  0  0  0  0  0  0  0  0  0
  -24.3544  -12.5537   20.2835 C   0  0  0  0  0  0  0  0  0  0  0  0
  -23.7856  -32.8079   25.7245 C   0  0  0  0  0  0  0  0  0  0  0  0
  -25.0537  -29.0169   20.4148 C   0  0  0  0  0  0  0  0  0  0  0  0
  -24.3459  -31.6584   25.1353 C   0  0  0  0  0  0  0  0  0  0  0  0
  -24.9830  -27.6171   20.4576 C   0  0  0  0  0  0  0  0  0  0  0  0
  -26.1250  -22.6045   22.1640 C   0  0  0  0  0  0  0  0  0  0  0  0
  -27.4649  -22.2289   22.0673 C   0  0  0  0  0  0  0  0  0  0  0  0
  -26.7964  -20.0530   21.2575 C   0  0  0  0  0  0  0  0  0  0  0  0
  -23.0207  -11.1922   25.1254 C   0  0  0  0  0  0  0  0  0  0  0  0
  -27.3612  -27.4944   19.9687 C   0  0  0  0  0  0  0  0  0  0  0  0
  -21.6169   -9.5903   26.1180 C   0  0  0  0  0  0  0  0  0  0  0  0
  -19.9066   -7.4039   25.8403 C   0  0  0  0  0  0  0  0  0  0  0  0
  -21.9181   -8.3844   26.7511 C   0  0  0  0  0  0  0  0  0  0  0  0
  -24.7492  -12.7961   21.6129 C   0  0  0  0  0  0  0  0  0  0  0  0
  -25.2225  -13.3012   19.5258 C   0  0  0  0  0  0  0  0  0  0  0  0
  -28.9133  -24.4462   20.4054 C   0  0  0  0  0  0  0  0  0  0  0  0
  -28.4357  -23.9727   19.2426 C   0  0  0  0  0  0  0  0  0  0  0  0
  -23.2974  -11.7269   19.7787 C   0  0  0  0  0  0  0  0  0  0  0  0
  -23.0469  -29.0359   22.8797 C   0  0  0  0  0  0  0  0  0  0  0  0
  -21.1992  -27.2630   20.8884 C   0  0  0  0  0  0  0  0  0  0  0  0
  -21.6925  -24.5695   18.5391 C   0  0  0  0  0  0  0  0  0  0  0  0
  -28.4178  -18.2250   20.6442 C   0  0  0  0  0  0  0  0  0  0  0  0
  -22.3637  -32.8288   26.2270 C   0  0  0  0  0  0  0  0  0  0  0  0
  -23.8176  -29.8487   20.6211 C   0  0  0  0  0  0  0  0  0  0  0  0
  -23.6910  -26.8967   20.7407 C   0  0  0  0  0  0  0  0  0  0  0  0
  -21.5000  -31.7061   25.6580 C   0  0  0  0  0  0  0  0  0  0  0  0
  -29.6734  -15.0679   19.5799 C   0  0  0  0  0  0  0  0  0  0  0  0
  -30.8871  -25.3504   22.2778 C   0  0  0  0  0  0  0  0  0  0  0  0
  -22.2391  -30.3738   25.7327 C   0  0  0  0  0  0  0  0  0  0  0  0
  -30.3013  -26.3302   21.2673 C   0  0  0  0  0  0  0  0  0  0  0  0
  -28.5150  -14.1060   19.8538 C   0  0  0  0  0  0  0  0  0  0  0  0
  -29.7807  -16.1473   20.6556 C   0  0  0  0  0  0  0  0  0  0  0  0
  -27.3843  -15.9326   21.1849 C   0  0  0  0  0  0  0  0  0  0  0  0
  -30.8796  -23.9235   21.7391 C   0  0  0  0  0  0  0  0  0  0  0  0
  -23.5255  -30.4091   24.8987 C   0  0  1  0  0  0  0  0  0  0  0  0
  -28.9055  -25.9011   20.8177 C   0  0  1  0  0  0  0  0  0  1  0  0
  -22.7342  -29.1227   21.4126 C   0  0  1  0  0  0  0  0  0  0  0  0
  -27.1959  -14.8662   20.0936 C   0  0  2  0  0  0  0  0  0  0  0  0
  -25.7411  -23.9650   22.6458 C   0  0  0  0  0  0  0  0  0  0  0  0
  -20.3767  -23.9182   16.5039 C   0  0  0  0  0  0  0  0  0  0  0  0
  -19.7435  -25.3728   22.7904 C   0  0  0  0  0  0  0  0  0  0  0  0
  -19.6904  -23.6750   20.9511 C   0  0  0  0  0  0  0  0  0  0  0  0
  -18.5202  -25.8592   20.6640 C   0  0  0  0  0  0  0  0  0  0  0  0
  -24.0879  -24.7002   16.8060 C   0  0  0  0  0  0  0  0  0  0  0  0
  -28.5618  -23.1794   22.4472 C   0  0  0  0  0  0  0  0  0  0  0  0
  -21.0466  -25.7889   20.6007 C   0  0  1  0  0  0  0  0  0  0  0  0
  -21.6003  -24.6548   17.0263 C   0  0  2  0  0  0  0  0  0  0  0  0
  -19.7749  -25.1849   21.2605 C   0  0  0  0  0  0  0  0  0  0  0  0
  -25.7874  -13.6321   21.6981 N   0  0  0  0  0  0  0  0  0  0  0  0
  -26.0524  -13.9214   20.4128 N   0  0  0  0  0  0  0  0  0  0  0  0
  -22.5113  -27.7542   20.9418 N   0  0  0  0  0  0  0  0  0  0  0  0
  -28.4950  -16.8278   20.8248 N   0  0  0  0  0  0  0  0  0  0  0  0
  -25.3493  -13.4817   18.1940 N   0  0  0  0  0  0  0  0  0  0  0  0
  -22.5003  -11.0278   20.6953 N   0  0  0  0  0  0  0  0  0  0  0  0
  -27.1378  -18.7565   20.7989 N   0  0  0  0  0  0  0  0  0  0  0  0
  -23.2197  -30.2627   23.4917 N   0  0  0  0  0  0  0  0  0  0  0  0
  -21.0904  -25.6496   19.1492 N   0  0  0  0  0  0  0  0  0  0  0  0
  -29.4993  -23.4818   21.3107 N   0  3  1  0  0  0  0  0  0  0  0  0
  -22.8124  -24.0564   16.3989 N   0  3  0  0  0  0  0  0  0  0  0  0
  -23.0771  -11.5985   18.5505 O   0  0  0  0  0  0  0  0  0  0  0  0
  -23.1240  -27.9372   23.4170 O   0  0  0  0  0  0  0  0  0  0  0  0
  -20.1910  -27.9547   21.0523 O   0  0  0  0  0  0  0  0  0  0  0  0
  -22.2403  -23.6361   19.1215 O   0  0  0  0  0  0  0  0  0  0  0  0
  -29.4086  -18.8966   20.3455 O   0  0  0  0  0  0  0  0  0  0  0  0
  -22.4644  -10.6768   26.2556 O   0  0  0  0  0  0  0  0  0  0  0  0
  -28.4815  -26.7515   19.7570 O   0  0  0  0  0  0  0  0  0  1  0  0
  -19.0846   -6.3546   25.7082 F   0  0  0  0  0  0  0  0  0  0  0  0
  -23.0270   -8.2705   27.4949 F   0  0  0  0  0  0  0  0  0  0  0  0
  1  2  1  0  0  0  0
  1  5  2  0  0  0  0
  2  6  2  0  0  0  0
  3 10  2  0  0  0  0
  3 18  1  0  0  0  0
  4 11  1  0  0  0  0
  4 18  2  0  0  0  0
  5 20  1  0  0  0  0
  6 22  1  0  0  0  0
  7 12  2  0  0  0  0
  7 21  1  0  0  0  0
  8  9  2  0  0  0  0
  8 24  1  0  0  0  0
  9 26  1  0  0  0  0
 10 27  1  0  0  0  0
 11 27  2  0  0  0  0
 12 28  1  0  0  0  0
 13 14  2  0  0  0  0
 13 29  1  0  0  0  0
 14 30  1  0  0  0  0
 15 23  1  0  0  0  0
 15 28  2  0  0  0  0
 16 25  1  0  0  0  0
 16 26  2  0  0  0  0
 17 30  2  0  0  0  0
 17 31  1  0  0  0  0
 18 32  1  0  0  0  0
 19 32  1  0  0  0  0
 19 33  2  0  0  0  0
 19 36  1  0  0  0  0
 20 22  2  0  0  0  0
 20 41  1  0  0  0  0
 21 23  2  0  0  0  0
 21 42  1  0  0  0  0
 22 53  1  0  0  0  0
 23 43  1  0  0  0  0
 24 25  2  0  0  0  0
 24 57  1  0  0  0  0
 25 63  1  0  0  0  0
 26 73  1  0  0  0  0
 27 83  1  0  0  0  0
 28 84  1  0  0  0  0
 29 31  2  0  0  0  0
 29 83  1  0  0  0  0
 30 85  1  0  0  0  0
 31 86  1  0  0  0  0
 32 67  2  0  0  0  0
 33 68  1  0  0  0  0
 33 71  1  0  0  0  0
 34 35  2  0  0  0  0
 34 54  1  0  0  0  0
 34 76  1  0  0  0  0
 36 72  1  0  0  0  0
 36 78  2  0  0  0  0
 37 55  1  0  0  0  0
 37 74  1  0  0  0  0
 37 79  2  0  0  0  0
 38 64  1  0  0  0  0
 38 69  1  0  0  0  0
 38 80  2  0  0  0  0
 39 65  1  0  0  0  0
 39 75  1  0  0  0  0
 39 81  2  0  0  0  0
 40 70  1  0  0  0  0
 40 73  1  0  0  0  0
 40 82  2  0  0  0  0
 41 44  1  0  0  0  0
 42 55  1  0  0  0  0
 43 69  1  0  0  0  0
 44 47  1  0  0  0  0
 45 49  1  0  0  0  0
 45 50  1  0  0  0  0
 46 48  1  0  0  0  0
 46 52  1  0  0  0  0
 47 53  1  0  0  0  0
 48 54  1  0  0  0  0
 49 56  1  0  0  0  0
 50 70  1  0  0  0  0
 51 56  1  0  0  0  0
 51 70  1  0  0  0  0
 52 76  1  0  0  0  0
 53 74  1  0  0  0  0
 54 84  1  0  0  0  0
 55 69  1  0  0  0  0
 56 68  1  0  0  0  0
 58 65  1  0  0  0  0
 59 66  1  0  0  0  0
 60 66  1  0  0  0  0
 61 66  1  0  0  0  0
 62 77  1  0  0  0  0
 63 76  1  0  0  0  0
 64 66  1  0  0  0  0
 64 75  1  0  0  0  0
 65 77  1  0  0  0  0
 67 68  1  0  0  0  0
M  CHG  2  76   1  77   1
M  ISO  4  40 100  54 101  73 100  84 101
M  END
> <Batch ID>
0046

> <Smiles>
C=C1N(Cc2cc([100NH:0][100C:0](=O)N3CCCC(n4nc(-c5ccc(Oc6ccc(F)cc6F)cc5)c(C(N)=O)c4N)C3)ccc2C)CCC[101CH:1]1[101O:1]c1ccc2c(c1)CN(C(=O)C(NC(=O)C(C)NC)C(C)(C)C)C(C(=O)NC1CCCc3ccccc31)C2

> <Shape>
0.223

> <Color>
0.060

> <Negative vol penalty>
0.000

$$$$

  -OEChem-04042322233D

 84 92  0     1  0  0  0  0  0999 V2000
  -23.7365  -18.2595   22.0025 C   0  0  0  0  0  0  0  0  0  0  0  0
  -24.4635  -19.3068   21.4455 C   0  0  0  0  0  0  0  0  0  0  0  0
  -34.8664  -23.5912   16.7927 C   0  0  0  0  0  0  0  0  0  0  0  0
  -35.1105  -22.8186   17.9281 C   0  0  0  0  0  0  0  0  0  0  0  0
  -25.2669  -12.9896   19.2538 C   0  0  0  0  0  0  0  0  0  0  0  0
  -25.1232  -14.2954   21.2815 C   0  0  0  0  0  0  0  0  0  0  0  0
  -22.3594  -18.3856   22.1805 C   0  0  0  0  0  0  0  0  0  0  0  0
  -23.8135  -20.4804   21.0653 C   0  0  0  0  0  0  0  0  0  0  0  0
  -26.3047  -24.6409   22.5244 C   0  0  0  0  0  0  0  0  0  0  0  0
  -33.5569  -23.8031   16.3615 C   0  0  0  0  0  0  0  0  0  0  0  0
  -34.0451  -22.2577   18.6322 C   0  0  0  0  0  0  0  0  0  0  0  0
  -25.1799  -11.8164   20.0032 C   0  0  0  0  0  0  0  0  0  0  0  0
  -25.0362  -13.1221   22.0308 C   0  0  0  0  0  0  0  0  0  0  0  0
  -27.4129  -25.0179   21.7671 C   0  0  0  0  0  0  0  0  0  0  0  0
  -24.6325   -8.4851   21.3516 C   0  0  0  0  0  0  0  0  0  0  0  0
  -23.7752   -7.4849   20.8932 C   0  0  0  0  0  0  0  0  0  0  0  0
  -26.0688  -26.6690   20.6329 C   0  0  0  0  0  0  0  0  0  0  0  0
  -21.9064   -9.0060   21.0693 C   0  0  0  0  0  0  0  0  0  0  0  0
  -25.2386  -14.2291   19.8930 C   0  0  0  0  0  0  0  0  0  0  0  0
  -24.2645  -16.1798   18.5688 C   0  0  0  0  0  0  0  0  0  0  0  0
  -21.6938  -19.5650   21.8112 C   0  0  0  0  0  0  0  0  0  0  0  0
  -25.0654  -25.2688   22.3336 C   0  0  0  0  0  0  0  0  0  0  0  0
  -22.4260  -20.6219   21.2374 C   0  0  0  0  0  0  0  0  0  0  0  0
  -24.9470  -26.2999   21.3908 C   0  0  0  0  0  0  0  0  0  0  0  0
  -32.4914  -23.2422   17.0657 C   0  0  0  0  0  0  0  0  0  0  0  0
  -32.7355  -22.4695   18.2011 C   0  0  0  0  0  0  0  0  0  0  0  0
  -25.0645  -11.8826   21.3917 C   0  0  0  0  0  0  0  0  0  0  0  0
  -27.2944  -26.0301   20.8192 C   0  0  0  0  0  0  0  0  0  0  0  0
  -24.1268   -9.7458   21.6689 C   0  0  0  0  0  0  0  0  0  0  0  0
  -22.4122   -7.7453   20.7520 C   0  0  0  0  0  0  0  0  0  0  0  0
  -22.7638  -10.0062   21.5278 C   0  0  0  0  0  0  0  0  0  0  0  0
  -25.3290  -15.4414   19.1195 C   0  0  0  0  0  0  0  0  0  0  0  0
  -24.8714  -17.2353   17.9330 C   0  0  0  0  0  0  0  0  0  0  0  0
  -22.8532  -15.9337   18.6267 C   0  0  0  0  0  0  0  0  0  0  0  0
  -22.1815  -24.3048   21.4074 C   0  0  0  0  0  0  0  0  0  0  0  0
  -21.3502  -27.3485   22.1604 C   0  0  0  0  0  0  0  0  0  0  0  0
  -29.5496  -25.0796   17.7206 C   0  0  0  0  0  0  0  0  0  0  0  0
  -22.3157  -30.5936   22.5901 C   0  0  0  0  0  0  0  0  0  0  0  0
  -30.0324  -19.9468   18.8640 C   0  0  0  0  0  0  0  0  0  0  0  0
  -20.1967  -19.6367   21.9794 C   0  0  0  0  0  0  0  0  0  0  0  0
  -23.8861  -24.8688   23.1772 C   0  0  0  0  0  0  0  0  0  0  0  0
  -23.6437  -27.0193   21.1619 C   0  0  0  0  0  0  0  0  0  0  0  0
  -19.6417  -21.0564   21.8958 C   0  0  0  0  0  0  0  0  0  0  0  0
  -28.9559  -18.4459   15.7517 C   0  0  0  0  0  0  0  0  0  0  0  0
  -20.2384  -21.7934   20.7010 C   0  0  0  0  0  0  0  0  0  0  0  0
  -27.7932  -17.5704   16.2225 C   0  0  0  0  0  0  0  0  0  0  0  0
  -30.0889  -18.4567   16.7737 C   0  0  0  0  0  0  0  0  0  0  0  0
  -28.5168  -18.0016   18.6163 C   0  0  0  0  0  0  0  0  0  0  0  0
  -21.7607  -21.9202   20.8352 C   0  0  1  0  0  0  0  0  0  0  0  0
  -22.5468  -25.2238   22.5386 C   0  0  1  0  0  0  0  0  0  0  0  0
  -27.3297  -17.9672   17.6366 C   0  0  2  0  0  0  0  0  0  0  0  0
  -21.4055  -32.8595   23.1686 C   0  0  0  0  0  0  0  0  0  0  0  0
  -20.1654  -27.5853   19.3586 C   0  0  0  0  0  0  0  0  0  0  0  0
  -20.1438  -30.0714   19.6534 C   0  0  0  0  0  0  0  0  0  0  0  0
  -18.7855  -28.6260   21.1661 C   0  0  0  0  0  0  0  0  0  0  0  0
  -24.0305  -30.7968   24.9936 C   0  0  0  0  0  0  0  0  0  0  0  0
  -31.0903  -23.4846   16.5838 C   0  0  0  0  0  0  0  0  0  0  0  0
  -31.6110  -21.8583   18.9709 C   0  0  0  0  0  0  0  0  0  0  0  0
  -29.3051  -26.5734   17.8660 C   0  0  0  0  0  0  0  0  0  0  0  0
  -28.1216  -26.8968   18.7648 C   0  0  0  0  0  0  0  0  0  1  0  0
  -21.3014  -28.6594   21.4133 C   0  0  1  0  0  0  0  0  0  0  0  0
  -22.0419  -31.5867   23.7051 C   0  0  2  0  0  0  0  0  0  0  0  0
  -20.1233  -28.7208   20.4006 C   0  0  0  0  0  0  0  0  0  0  0  0
  -26.5218  -15.9819   18.8565 N   0  0  0  0  0  0  0  0  0  0  0  0
  -26.2104  -17.0711   18.1335 N   0  0  0  0  0  0  0  0  0  0  0  0
  -22.5180  -26.5879   22.0070 N   0  0  0  0  0  0  0  0  0  0  0  0
  -29.5847  -18.8606   18.0939 N   0  0  0  0  0  0  0  0  0  0  0  0
  -24.3849  -18.2785   17.2276 N   0  0  0  0  0  0  0  0  0  0  0  0
  -22.4000  -14.8039   19.3213 N   0  0  0  0  0  0  0  0  0  0  0  0
  -22.0998  -22.9734   21.7681 N   0  0  0  0  0  0  0  0  0  0  0  0
  -30.6347  -24.8202   16.8956 N   0  0  0  0  0  0  0  0  0  0  0  0
  -21.2721  -29.7069   22.4283 N   0  0  0  0  0  0  0  0  0  0  0  0
  -31.0508  -20.7059   18.3006 N   0  0  0  0  0  0  0  0  0  0  0  0
  -23.3105  -31.9512   24.3970 N   0  3  0  0  0  0  0  0  0  0  0  0
  -22.0197  -16.6842   18.0649 O   0  0  0  0  0  0  0  0  0  0  0  0
  -21.9867  -24.7695   20.2903 O   0  0  0  0  0  0  0  0  0  0  0  0
  -20.3907  -27.0152   22.8602 O   0  0  0  0  0  0  0  0  0  0  0  0
  -28.8601  -24.2271   18.2736 O   0  0  0  0  0  0  0  0  0  0  0  0
  -23.3500  -30.6056   21.9263 O   0  0  0  0  0  0  0  0  0  0  0  0
  -29.5559  -20.2233   19.9701 O   0  0  0  0  0  0  0  0  0  0  0  0
  -24.9794  -10.7380   22.1232 O   0  0  0  0  0  0  0  0  0  0  0  0
  -28.3744  -26.3995   20.0782 O   0  0  0  0  0  0  0  0  0  1  0  0
  -21.5892   -6.7852   20.3103 F   0  0  0  0  0  0  0  0  0  0  0  0
  -22.2722  -11.2157   21.8299 F   0  0  0  0  0  0  0  0  0  0  0  0
  1  2  1  0  0  0  0
  1  7  2  0  0  0  0
  2  8  2  0  0  0  0
  3  4  1  0  0  0  0
  3 10  2  0  0  0  0
  4 11  2  0  0  0  0
  5 12  2  0  0  0  0
  5 19  1  0  0  0  0
  6 13  1  0  0  0  0
  6 19  2  0  0  0  0
  7 21  1  0  0  0  0
  8 23  1  0  0  0  0
  9 14  2  0  0  0  0
  9 22  1  0  0  0  0
 10 25  1  0  0  0  0
 11 26  1  0  0  0  0
 12 27  1  0  0  0  0
 13 27  2  0  0  0  0
 14 28  1  0  0  0  0
 15 16  2  0  0  0  0
 15 29  1  0  0  0  0
 16 30  1  0  0  0  0
 17 24  1  0  0  0  0
 17 28  2  0  0  0  0
 18 30  2  0  0  0  0
 18 31  1  0  0  0  0
 19 32  1  0  0  0  0
 20 32  1  0  0  0  0
 20 33  2  0  0  0  0
 20 34  1  0  0  0  0
 21 23  2  0  0  0  0
 21 40  1  0  0  0  0
 22 24  2  0  0  0  0
 22 41  1  0  0  0  0
 23 49  1  0  0  0  0
 24 42  1  0  0  0  0
 25 26  2  0  0  0  0
 25 57  1  0  0  0  0
 26 58  1  0  0  0  0
 27 81  1  0  0  0  0
 28 82  1  0  0  0  0
 29 31  2  0  0  0  0
 29 81  1  0  0  0  0
 30 83  1  0  0  0  0
 31 84  1  0  0  0  0
 32 64  2  0  0  0  0
 33 65  1  0  0  0  0
 33 68  1  0  0  0  0
 34 69  1  0  0  0  0
 34 75  2  0  0  0  0
 35 50  1  0  0  0  0
 35 70  1  0  0  0  0
 35 76  2  0  0  0  0
 36 61  1  0  0  0  0
 36 66  1  0  0  0  0
 36 77  2  0  0  0  0
 37 59  1  0  0  0  0
 37 71  1  0  0  0  0
 37 78  2  0  0  0  0
 38 62  1  0  0  0  0
 38 72  1  0  0  0  0
 38 79  2  0  0  0  0
 39 67  1  0  0  0  0
 39 73  1  0  0  0  0
 39 80  2  0  0  0  0
 40 43  1  0  0  0  0
 41 50  1  0  0  0  0
 42 66  1  0  0  0  0
 43 45  1  0  0  0  0
 44 46  1  0  0  0  0
 44 47  1  0  0  0  0
 45 49  1  0  0  0  0
 46 51  1  0  0  0  0
 47 67  1  0  0  0  0
 48 51  1  0  0  0  0
 48 67  1  0  0  0  0
 49 70  1  0  0  0  0
 50 66  1  0  0  0  0
 51 65  1  0  0  0  0
 52 62  1  0  0  0  0
 53 63  1  0  0  0  0
 54 63  1  0  0  0  0
 55 63  1  0  0  0  0
 56 74  1  0  0  0  0
 57 71  1  0  0  0  0
 58 73  1  0  0  0  0
 59 60  1  0  0  0  0
 60 82  1  0  0  0  0
 61 63  1  0  0  0  0
 61 72  1  0  0  0  0
 62 74  1  0  0  0  0
 64 65  1  0  0  0  0
M  CHG  1  74   1
M  ISO  4  39 100  60 101  73 100  82 101
M  END
> <Batch ID>
0046

> <Smiles>
CNC(C)C(=O)NC(C(=O)N1Cc2cc([101O:1][101CH2:1]CC(=O)NCc3ccccc3C[100NH:0][100C:0](=O)N3CCCC(n4nc(-c5ccc(Oc6ccc(F)cc6F)cc5)c(C(N)=O)c4N)C3)ccc2CC1C(=O)NC1CCCc2ccccc21)C(C)(C)C

> <Shape>
0.176

> <Color>
0.087

> <Negative vol penalty>
0.000

$$$$

  -OEChem-04042322233D

 84 92  0     1  0  0  0  0  0999 V2000
  -26.7542  -24.3698   17.1236 C   0  0  0  0  0  0  0  0  0  0  0  0
  -25.7844  -24.6187   18.0896 C   0  0  0  0  0  0  0  0  0  0  0  0
  -26.3152  -17.9433   19.3316 C   0  0  0  0  0  0  0  0  0  0  0  0
  -26.2216  -17.7774   21.7401 C   0  0  0  0  0  0  0  0  0  0  0  0
  -28.0168  -24.9498   17.2394 C   0  0  0  0  0  0  0  0  0  0  0  0
  -26.0771  -25.4469   19.1726 C   0  0  0  0  0  0  0  0  0  0  0  0
  -22.3710  -28.7587   20.1429 C   0  0  0  0  0  0  0  0  0  0  0  0
  -19.4919  -23.0490   27.3979 C   0  0  0  0  0  0  0  0  0  0  0  0
  -27.7034  -18.0644   19.3939 C   0  0  0  0  0  0  0  0  0  0  0  0
  -27.6098  -17.8985   21.8024 C   0  0  0  0  0  0  0  0  0  0  0  0
  -21.2507  -28.2800   20.8209 C   0  0  0  0  0  0  0  0  0  0  0  0
  -31.2404  -18.7785   18.9435 C   0  0  0  0  0  0  0  0  0  0  0  0
  -31.8430  -19.7615   18.1585 C   0  0  0  0  0  0  0  0  0  0  0  0
  -20.0738  -21.7866   27.2827 C   0  0  0  0  0  0  0  0  0  0  0  0
  -22.1096  -29.2018   22.8781 C   0  0  0  0  0  0  0  0  0  0  0  0
  -19.0966  -23.0843   25.0147 C   0  0  0  0  0  0  0  0  0  0  0  0
  -30.5690  -21.4615   19.3092 C   0  0  0  0  0  0  0  0  0  0  0  0
  -25.5743  -17.7998   20.5048 C   0  0  0  0  0  0  0  0  0  0  0  0
  -23.3943  -16.4863   20.3304 C   0  0  0  0  0  0  0  0  0  0  0  0
  -28.3220  -25.7932   18.3193 C   0  0  0  0  0  0  0  0  0  0  0  0
  -23.3759  -29.4542   20.8305 C   0  0  0  0  0  0  0  0  0  0  0  0
  -27.3454  -26.0376   19.3036 C   0  0  0  0  0  0  0  0  0  0  0  0
  -23.2403  -29.6904   22.2060 C   0  0  0  0  0  0  0  0  0  0  0  0
  -19.0032  -23.6979   26.2639 C   0  0  0  0  0  0  0  0  0  0  0  0
  -19.6785  -21.8218   24.8995 C   0  0  0  0  0  0  0  0  0  0  0  0
  -28.3507  -18.0420   20.6293 C   0  0  0  0  0  0  0  0  0  0  0  0
  -21.1213  -28.4990   22.1893 C   0  0  0  0  0  0  0  0  0  0  0  0
  -30.3020  -19.1370   19.9113 C   0  0  0  0  0  0  0  0  0  0  0  0
  -31.5073  -21.1029   18.3413 C   0  0  0  0  0  0  0  0  0  0  0  0
  -29.9663  -20.4785   20.0942 C   0  0  0  0  0  0  0  0  0  0  0  0
  -20.1671  -21.1730   26.0335 C   0  0  0  0  0  0  0  0  0  0  0  0
  -24.1402  -17.6751   20.4411 C   0  0  0  0  0  0  0  0  0  0  0  0
  -22.0857  -16.9028   20.3091 C   0  0  0  0  0  0  0  0  0  0  0  0
  -23.8442  -15.1271   20.2538 C   0  0  0  0  0  0  0  0  0  0  0  0
  -26.4683  -28.9657   21.3797 C   0  0  0  0  0  0  0  0  0  0  0  0
  -26.3041  -31.9277   22.6919 C   0  0  0  0  0  0  0  0  0  0  0  0
  -19.2401  -26.5746   24.5953 C   0  0  0  0  0  0  0  0  0  0  0  0
  -24.3892  -34.3521   24.1418 C   0  0  0  0  0  0  0  0  0  0  0  0
  -19.3137  -21.7626   22.4076 C   0  0  0  0  0  0  0  0  0  0  0  0
  -29.7157  -26.3595   18.4267 C   0  0  0  0  0  0  0  0  0  0  0  0
  -24.5651  -29.9873   20.0796 C   0  0  0  0  0  0  0  0  0  0  0  0
  -24.2812  -30.4491   22.9867 C   0  0  0  0  0  0  0  0  0  0  0  0
  -29.8258  -27.5248   19.4067 C   0  0  0  0  0  0  0  0  0  0  0  0
  -19.3622  -20.6294   19.0326 C   0  0  0  0  0  0  0  0  0  0  0  0
  -29.1129  -27.1924   20.7136 C   0  0  0  0  0  0  0  0  0  0  0  0
  -20.5212  -19.6305   19.0022 C   0  0  0  0  0  0  0  0  0  0  0  0
  -19.6601  -21.8160   19.9474 C   0  0  0  0  0  0  0  0  0  0  0  0
  -21.2260  -20.4615   21.2825 C   0  0  0  0  0  0  0  0  0  0  0  0
  -27.6168  -26.9502   20.4799 C   0  0  1  0  0  0  0  0  0  0  0  0
  -25.7749  -30.2358   20.9752 C   0  0  1  0  0  0  0  0  0  0  0  0
  -20.9460  -19.2166   20.4248 C   0  0  2  0  0  0  0  0  0  0  0  0
  -24.5433  -36.6479   25.1431 C   0  0  0  0  0  0  0  0  0  0  0  0
  -27.5384  -30.7408   25.2173 C   0  0  0  0  0  0  0  0  0  0  0  0
  -26.7984  -32.7865   26.4566 C   0  0  0  0  0  0  0  0  0  0  0  0
  -28.4280  -32.9892   24.5788 C   0  0  0  0  0  0  0  0  0  0  0  0
  -20.1788  -26.6525   26.9116 C   0  0  0  0  0  0  0  0  0  0  0  0
  -22.5439  -35.4827   22.1230 C   0  0  0  0  0  0  0  0  0  0  0  0
  -18.3767  -25.0566   26.3884 C   0  0  0  0  0  0  0  0  0  0  0  0
  -20.2044  -27.6821   24.2259 C   0  0  0  0  0  0  0  0  0  1  0  0
  -26.0065  -32.4723   24.0680 C   0  0  1  0  0  0  0  0  0  0  0  0
  -24.2832  -35.8434   23.8790 C   0  0  2  0  0  0  0  0  0  0  0  0
  -27.1740  -32.2312   25.0661 C   0  0  0  0  0  0  0  0  0  0  0  0
  -23.3695  -18.7651   20.4867 N   0  0  0  0  0  0  0  0  0  0  0  0
  -22.1257  -18.2628   20.4042 N   0  0  0  0  0  0  0  0  0  0  0  0
  -25.4287  -30.9448   22.2089 N   0  0  0  0  0  0  0  0  0  0  0  0
  -20.0514  -21.3476   21.2787 N   0  0  0  0  0  0  0  0  0  0  0  0
  -20.9161  -16.2348   20.2183 N   0  0  0  0  0  0  0  0  0  0  0  0
  -25.2227  -14.8766   20.2894 N   0  0  0  0  0  0  0  0  0  0  0  0
  -19.7587  -21.2273   23.6158 N   0  0  0  0  0  0  0  0  0  0  0  0
  -26.9208  -28.2084   20.3161 N   0  0  0  0  0  0  0  0  0  0  0  0
  -25.6578  -33.8770   23.8845 N   0  0  0  0  0  0  0  0  0  0  0  0
  -19.2648  -26.1138   25.9119 N   0  0  0  0  0  0  0  0  0  0  0  0
  -22.9227  -36.1853   23.3759 N   0  3  0  0  0  0  0  0  0  0  0  0
  -23.0479  -14.1645   20.1402 O   0  0  0  0  0  0  0  0  0  0  0  0
  -26.5856  -28.6936   22.5688 O   0  0  0  0  0  0  0  0  0  0  0  0
  -27.2734  -32.3636   22.0656 O   0  0  0  0  0  0  0  0  0  0  0  0
  -18.4779  -26.1379   23.7274 O   0  0  0  0  0  0  0  0  0  0  0  0
  -23.4424  -33.6768   24.5394 O   0  0  0  0  0  0  0  0  0  0  0  0
  -18.3408  -22.5145   22.3065 O   0  0  0  0  0  0  0  0  0  0  0  0
  -29.7052  -18.1600   20.6904 O   0  0  0  0  0  0  0  0  0  0  0  0
  -20.0292  -28.0323   22.8537 O   0  0  0  0  0  0  0  0  0  1  0  0
  -32.0872  -22.0469   17.5885 F   0  0  0  0  0  0  0  0  0  0  0  0
  -29.0664  -20.8291   21.0232 F   0  0  0  0  0  0  0  0  0  0  0  0
  -20.8954  -19.6094   25.9365 Cl  0  0  0  0  0  0  0  0  0  0  0  0
  1  2  1  0  0  0  0
  1  5  2  0  0  0  0
  2  6  2  0  0  0  0
  3  9  2  0  0  0  0
  3 18  1  0  0  0  0
  4 10  1  0  0  0  0
  4 18  2  0  0  0  0
  5 20  1  0  0  0  0
  6 22  1  0  0  0  0
  7 11  2  0  0  0  0
  7 21  1  0  0  0  0
  8 14  2  0  0  0  0
  8 24  1  0  0  0  0
  9 26  1  0  0  0  0
 10 26  2  0  0  0  0
 11 27  1  0  0  0  0
 12 13  2  0  0  0  0
 12 28  1  0  0  0  0
 13 29  1  0  0  0  0
 14 31  1  0  0  0  0
 15 23  1  0  0  0  0
 15 27  2  0  0  0  0
 16 24  2  0  0  0  0
 16 25  1  0  0  0  0
 17 29  2  0  0  0  0
 17 30  1  0  0  0  0
 18 32  1  0  0  0  0
 19 32  1  0  0  0  0
 19 33  2  0  0  0  0
 19 34  1  0  0  0  0
 20 22  2  0  0  0  0
 20 40  1  0  0  0  0
 21 23  2  0  0  0  0
 21 41  1  0  0  0  0
 22 49  1  0  0  0  0
 23 42  1  0  0  0  0
 24 58  1  0  0  0  0
 25 31  2  0  0  0  0
 25 69  1  0  0  0  0
 26 80  1  0  0  0  0
 27 81  1  0  0  0  0
 28 30  2  0  0  0  0
 28 80  1  0  0  0  0
 29 82  1  0  0  0  0
 30 83  1  0  0  0  0
 31 84  1  0  0  0  0
 32 63  2  0  0  0  0
 33 64  1  0  0  0  0
 33 67  1  0  0  0  0
 34 68  1  0  0  0  0
 34 74  2  0  0  0  0
 35 50  1  0  0  0  0
 35 70  1  0  0  0  0
 35 75  2  0  0  0  0
 36 60  1  0  0  0  0
 36 65  1  0  0  0  0
 36 76  2  0  0  0  0
 37 59  1  0  0  0  0
 37 72  1  0  0  0  0
 37 77  2  0  0  0  0
 38 61  1  0  0  0  0
 38 71  1  0  0  0  0
 38 78  2  0  0  0  0
 39 66  1  0  0  0  0
 39 69  1  0  0  0  0
 39 79  2  0  0  0  0
 40 43  1  0  0  0  0
 41 50  1  0  0  0  0
 42 65  1  0  0  0  0
 43 45  1  0  0  0  0
 44 46  1  0  0  0  0
 44 47  1  0  0  0  0
 45 49  1  0  0  0  0
 46 51  1  0  0  0  0
 47 66  1  0  0  0  0
 48 51  1  0  0  0  0
 48 66  1  0  0  0  0
 49 70  1  0  0  0  0
 50 65  1  0  0  0  0
 51 64  1  0  0  0  0
 52 61  1  0  0  0  0
 53 62  1  0  0  0  0
 54 62  1  0  0  0  0
 55 62  1  0  0  0  0
 56 72  1  0  0  0  0
 57 73  1  0  0  0  0
 58 72  1  0  0  0  0
 59 81  1  0  0  0  0
 60 62  1  0  0  0  0
 60 71  1  0  0  0  0
 61 73  1  0  0  0  0
 63 64  1  0  0  0  0
M  CHG  1  73   1
M  ISO  4  39 100  59 101  69 100  81 101
M  END
> <Batch ID>
0046

> <Smiles>
CNC(C)C(=O)NC(C(=O)N1Cc2cc([101O:1][101CH2:1]C(=O)N(C)Cc3ccc(Cl)c([100NH:0][100C:0](=O)N4CCCC(n5nc(-c6ccc(Oc7ccc(F)cc7F)cc6)c(C(N)=O)c5N)C4)c3)ccc2CC1C(=O)NC1CCCc2ccccc21)C(C)(C)C

> <Shape>
0.240

> <Color>
0.068

> <Negative vol penalty>
0.000

$$$$
