
  -OEChem-04042322263D

 85 93  0     1  0  0  0  0  0999 V2000
  -21.1776  -35.2572   21.6456 C   0  0  0  0  0  0  0  0  0  0  0  0
  -22.3087  -34.5611   21.2315 C   0  0  0  0  0  0  0  0  0  0  0  0
  -24.1928  -12.4881   21.5243 C   0  0  0  0  0  0  0  0  0  0  0  0
  -25.1715  -12.0683   19.3556 C   0  0  0  0  0  0  0  0  0  0  0  0
  -20.3726  -34.7375   22.6584 C   0  0  0  0  0  0  0  0  0  0  0  0
  -22.6360  -33.3452   21.8308 C   0  0  0  0  0  0  0  0  0  0  0  0
  -25.2207  -28.4907   19.1366 C   0  0  0  0  0  0  0  0  0  0  0  0
  -23.3036  -11.4317   21.3275 C   0  0  0  0  0  0  0  0  0  0  0  0
  -24.2823  -11.0118   19.1589 C   0  0  0  0  0  0  0  0  0  0  0  0
  -26.5373  -28.0342   19.0900 C   0  0  0  0  0  0  0  0  0  0  0  0
  -23.3666   -8.0559   21.5103 C   0  0  0  0  0  0  0  0  0  0  0  0
  -23.1735   -7.1658   22.5667 C   0  0  0  0  0  0  0  0  0  0  0  0
  -26.0782  -26.5411   20.9283 C   0  0  0  0  0  0  0  0  0  0  0  0
  -31.5174  -21.8750   19.9065 C   0  0  0  0  0  0  0  0  0  0  0  0
  -32.2498  -19.6388   20.4543 C   0  0  0  0  0  0  0  0  0  0  0  0
  -32.7355  -21.4702   21.9533 C   0  0  0  0  0  0  0  0  0  0  0  0
  -20.8229   -7.7229   22.6065 C   0  0  0  0  0  0  0  0  0  0  0  0
  -25.1268  -12.8065   20.5383 C   0  0  0  0  0  0  0  0  0  0  0  0
  -27.3227  -13.8363   21.3290 C   0  0  0  0  0  0  0  0  0  0  0  0
  -20.6848  -33.5100   23.2637 C   0  0  0  0  0  0  0  0  0  0  0  0
  -24.3246  -27.9828   20.0881 C   0  0  0  0  0  0  0  0  0  0  0  0
  -21.8351  -32.8093   22.8535 C   0  0  0  0  0  0  0  0  0  0  0  0
  -24.7502  -26.9910   20.9832 C   0  0  0  0  0  0  0  0  0  0  0  0
  -31.5996  -20.5192   19.5894 C   0  0  0  0  0  0  0  0  0  0  0  0
  -32.0854  -22.3505   21.0885 C   0  0  0  0  0  0  0  0  0  0  0  0
  -23.3484  -10.6935   20.1448 C   0  0  0  0  0  0  0  0  0  0  0  0
  -26.9670  -27.0614   19.9878 C   0  0  0  0  0  0  0  0  0  0  0  0
  -22.2878   -8.7796   21.0019 C   0  0  0  0  0  0  0  0  0  0  0  0
  -21.9017   -6.9993   23.1148 C   0  0  0  0  0  0  0  0  0  0  0  0
  -21.0160   -8.6130   21.5500 C   0  0  0  0  0  0  0  0  0  0  0  0
  -32.8177  -20.1144   21.6363 C   0  0  0  0  0  0  0  0  0  0  0  0
  -26.0452  -13.8981   20.7407 C   0  0  0  0  0  0  0  0  0  0  0  0
  -27.7835  -15.1295   21.2857 C   0  0  0  0  0  0  0  0  0  0  0  0
  -28.0295  -12.7106   21.8664 C   0  0  0  0  0  0  0  0  0  0  0  0
  -22.6705  -29.2274   22.5004 C   0  0  0  0  0  0  0  0  0  0  0  0
  -21.3829  -26.2533   22.6402 C   0  0  0  0  0  0  0  0  0  0  0  0
  -30.0771  -25.2404   20.6934 C   0  0  0  0  0  0  0  0  0  0  0  0
  -21.6992  -22.9243   21.9587 C   0  0  0  0  0  0  0  0  0  0  0  0
  -28.5212  -19.9446   18.5625 C   0  0  0  0  0  0  0  0  0  0  0  0
  -19.8107  -33.0114   24.3871 C   0  0  0  0  0  0  0  0  0  0  0  0
  -22.9004  -28.4664   20.1078 C   0  0  0  0  0  0  0  0  0  0  0  0
  -23.8217  -26.3987   22.0106 C   0  0  0  0  0  0  0  0  0  0  0  0
  -20.0195  -31.5345   24.7118 C   0  0  0  0  0  0  0  0  0  0  0  0
  -25.3868  -19.4433   20.1754 C   0  0  0  0  0  0  0  0  0  0  0  0
  -21.5079  -31.2126   24.8002 C   0  0  0  0  0  0  0  0  0  0  0  0
  -25.3817  -17.9504   20.5088 C   0  0  0  0  0  0  0  0  0  0  0  0
  -26.0696  -19.7205   18.8378 C   0  0  0  0  0  0  0  0  0  0  0  0
  -27.4248  -17.6724   19.0436 C   0  0  0  0  0  0  0  0  0  0  0  0
  -22.2095  -31.4753   23.4621 C   0  0  1  0  0  0  0  0  0  0  0  0
  -22.2147  -28.2506   21.4535 C   0  0  1  0  0  0  0  0  0  0  0  0
  -26.7965  -17.3489   20.4099 C   0  0  2  0  0  0  0  0  0  0  0  0
  -20.4998  -20.7363   22.2257 C   0  0  0  0  0  0  0  0  0  0  0  0
  -22.1495  -26.1962   25.5930 C   0  0  0  0  0  0  0  0  0  0  0  0
  -21.8124  -23.7156   25.5608 C   0  0  0  0  0  0  0  0  0  0  0  0
  -19.8963  -25.2392   25.0815 C   0  0  0  0  0  0  0  0  0  0  0  0
  -29.8240  -23.6166   22.5780 C   0  0  0  0  0  0  0  0  0  0  0  0
  -21.5697  -22.5056   19.0318 C   0  0  0  0  0  0  0  0  0  0  0  0
  -30.9908  -20.0111   18.3262 C   0  0  0  0  0  0  0  0  0  0  0  0
  -31.9947  -23.8099   21.4295 C   0  0  0  0  0  0  0  0  0  0  0  0
  -28.6242  -25.6166   20.8945 C   0  0  0  0  0  0  0  0  0  1  0  0
  -21.7279  -24.9717   23.3594 C   0  0  1  0  0  0  0  0  0  0  0  0
  -20.7451  -21.9321   21.3187 C   0  0  2  0  0  0  0  0  0  0  0  0
  -21.4148  -25.0430   24.8807 C   0  0  0  0  0  0  0  0  0  0  0  0
  -25.7156  -15.1328   20.3524 N   0  0  0  0  0  0  0  0  0  0  0  0
  -26.7926  -15.8589   20.6974 N   0  0  0  0  0  0  0  0  0  0  0  0
  -22.4407  -26.9087   21.9942 N   0  0  0  0  0  0  0  0  0  0  0  0
  -27.4076  -19.1249   18.8096 N   0  0  0  0  0  0  0  0  0  0  0  0
  -28.9357  -15.7024   21.6940 N   0  0  0  0  0  0  0  0  0  0  0  0
  -27.4102  -11.4538   21.8310 N   0  0  0  0  0  0  0  0  0  0  0  0
  -21.9408  -30.4004   22.5310 N   0  0  0  0  0  0  0  0  0  0  0  0
  -21.0248  -23.9057   22.6539 N   0  0  0  0  0  0  0  0  0  0  0  0
  -29.7528  -19.3013   18.5594 N   0  0  0  0  0  0  0  0  0  0  0  0
  -30.6096  -24.2619   21.5334 N   0  0  0  0  0  0  0  0  0  0  0  0
  -21.3019  -21.4367   20.0281 N   0  3  0  0  0  0  0  0  0  0  0  0
  -29.1697  -12.8190   22.3782 O   0  0  0  0  0  0  0  0  0  0  0  0
  -23.6134  -28.9375   23.2275 O   0  0  0  0  0  0  0  0  0  0  0  0
  -20.2163  -26.6543   22.6451 O   0  0  0  0  0  0  0  0  0  0  0  0
  -30.7176  -25.8040   19.8007 O   0  0  0  0  0  0  0  0  0  0  0  0
  -22.9207  -22.8354   21.8556 O   0  0  0  0  0  0  0  0  0  0  0  0
  -28.4254  -21.1606   18.3650 O   0  0  0  0  0  0  0  0  0  0  0  0
  -22.4810   -9.6623   19.9526 O   0  0  0  0  0  0  0  0  0  0  0  0
  -28.2516  -26.6145   19.9449 O   0  0  0  0  0  0  0  0  0  1  0  0
  -21.7162   -6.1433   24.1282 F   0  0  0  0  0  0  0  0  0  0  0  0
  -19.9756   -9.3046   21.0651 F   0  0  0  0  0  0  0  0  0  0  0  0
  -33.6210  -19.0284   22.7028 Cl  0  0  0  0  0  0  0  0  0  0  0  0
  1  2  1  0  0  0  0
  1  5  2  0  0  0  0
  2  6  2  0  0  0  0
  3  8  2  0  0  0  0
  3 18  1  0  0  0  0
  4  9  1  0  0  0  0
  4 18  2  0  0  0  0
  5 20  1  0  0  0  0
  6 22  1  0  0  0  0
  7 10  2  0  0  0  0
  7 21  1  0  0  0  0
  8 26  1  0  0  0  0
  9 26  2  0  0  0  0
 10 27  1  0  0  0  0
 11 12  2  0  0  0  0
 11 28  1  0  0  0  0
 12 29  1  0  0  0  0
 13 23  1  0  0  0  0
 13 27  2  0  0  0  0
 14 24  1  0  0  0  0
 14 25  2  0  0  0  0
 15 24  2  0  0  0  0
 15 31  1  0  0  0  0
 16 25  1  0  0  0  0
 16 31  2  0  0  0  0
 17 29  2  0  0  0  0
 17 30  1  0  0  0  0
 18 32  1  0  0  0  0
 19 32  1  0  0  0  0
 19 33  2  0  0  0  0
 19 34  1  0  0  0  0
 20 22  2  0  0  0  0
 20 40  1  0  0  0  0
 21 23  2  0  0  0  0
 21 41  1  0  0  0  0
 22 49  1  0  0  0  0
 23 42  1  0  0  0  0
 24 58  1  0  0  0  0
 25 59  1  0  0  0  0
 26 81  1  0  0  0  0
 27 82  1  0  0  0  0
 28 30  2  0  0  0  0
 28 81  1  0  0  0  0
 29 83  1  0  0  0  0
 30 84  1  0  0  0  0
 31 85  1  0  0  0  0
 32 64  2  0  0  0  0
 33 65  1  0  0  0  0
 33 68  1  0  0  0  0
 34 69  1  0  0  0  0
 34 75  2  0  0  0  0
 35 50  1  0  0  0  0
 35 70  1  0  0  0  0
 35 76  2  0  0  0  0
 36 61  1  0  0  0  0
 36 66  1  0  0  0  0
 36 77  2  0  0  0  0
 37 60  1  0  0  0  0
 37 73  1  0  0  0  0
 37 78  2  0  0  0  0
 38 62  1  0  0  0  0
 38 71  1  0  0  0  0
 38 79  2  0  0  0  0
 39 67  1  0  0  0  0
 39 72  1  0  0  0  0
 39 80  2  0  0  0  0
 40 43  1  0  0  0  0
 41 50  1  0  0  0  0
 42 66  1  0  0  0  0
 43 45  1  0  0  0  0
 44 46  1  0  0  0  0
 44 47  1  0  0  0  0
 45 49  1  0  0  0  0
 46 51  1  0  0  0  0
 47 67  1  0  0  0  0
 48 51  1  0  0  0  0
 48 67  1  0  0  0  0
 49 70  1  0  0  0  0
 50 66  1  0  0  0  0
 51 65  1  0  0  0  0
 52 62  1  0  0  0  0
 53 63  1  0  0  0  0
 54 63  1  0  0  0  0
 55 63  1  0  0  0  0
 56 73  1  0  0  0  0
 57 74  1  0  0  0  0
 58 72  1  0  0  0  0
 59 73  1  0  0  0  0
 60 82  1  0  0  0  0
 61 63  1  0  0  0  0
 61 71  1  0  0  0  0
 62 74  1  0  0  0  0
 64 65  1  0  0  0  0
M  CHG  1  74   1
M  ISO  4  39 100  60 101  72 100  82 101
M  END
> <Batch ID>
0047

> <Smiles>
CNC(C)C(=O)NC(C(=O)N1Cc2cc([101O:1][101CH2:1]C(=O)N(C)Cc3cc(Cl)cc(C[100NH:0][100C:0](=O)N4CCCC(n5nc(-c6ccc(Oc7ccc(F)cc7F)cc6)c(C(N)=O)c5N)C4)c3)ccc2CC1C(=O)NC1CCCc2ccccc21)C(C)(C)C

> <Shape>
0.213

> <Color>
0.088

> <Negative vol penalty>
0.000

$$$$

  -OEChem-04042322263D

 84 92  0     1  0  0  0  0  0999 V2000
  -28.7847  -13.6154   18.6144 C   0  0  0  0  0  0  0  0  0  0  0  0
  -28.1390  -14.8218   18.3634 C   0  0  0  0  0  0  0  0  0  0  0  0
  -30.2981  -23.9694   20.1096 C   0  0  0  0  0  0  0  0  0  0  0  0
  -28.6849  -23.5821   18.3532 C   0  0  0  0  0  0  0  0  0  0  0  0
  -28.1456  -12.6261   19.3606 C   0  0  0  0  0  0  0  0  0  0  0  0
  -26.8533  -15.0392   18.8575 C   0  0  0  0  0  0  0  0  0  0  0  0
  -24.5140  -20.3458   20.8257 C   0  0  0  0  0  0  0  0  0  0  0  0
  -19.6858  -28.4731   23.4485 C   0  0  0  0  0  0  0  0  0  0  0  0
  -30.6901  -22.6324   20.0444 C   0  0  0  0  0  0  0  0  0  0  0  0
  -29.0770  -22.2451   18.2880 C   0  0  0  0  0  0  0  0  0  0  0  0
  -23.6943  -21.2936   20.2145 C   0  0  0  0  0  0  0  0  0  0  0  0
  -31.8648  -19.2342   20.5884 C   0  0  0  0  0  0  0  0  0  0  0  0
  -32.0296  -18.5457   21.7902 C   0  0  0  0  0  0  0  0  0  0  0  0
  -18.7813  -27.5080   23.8912 C   0  0  0  0  0  0  0  0  0  0  0  0
  -21.7621  -20.2722   21.2357 C   0  0  0  0  0  0  0  0  0  0  0  0
  -19.5585  -27.5668   21.2126 C   0  0  0  0  0  0  0  0  0  0  0  0
  -29.7134  -18.9548   22.3422 C   0  0  0  0  0  0  0  0  0  0  0  0
  -29.2955  -24.4443   19.2640 C   0  0  0  0  0  0  0  0  0  0  0  0
  -29.4239  -26.9047   18.6024 C   0  0  0  0  0  0  0  0  0  0  0  0
  -26.8553  -12.8351   19.8723 C   0  0  0  0  0  0  0  0  0  0  0  0
  -23.9619  -19.3458   21.6390 C   0  0  0  0  0  0  0  0  0  0  0  0
  -26.1958  -14.0512   19.6101 C   0  0  0  0  0  0  0  0  0  0  0  0
  -22.5773  -19.3144   21.8581 C   0  0  0  0  0  0  0  0  0  0  0  0
  -20.0744  -28.5026   22.1092 C   0  0  0  0  0  0  0  0  0  0  0  0
  -18.6540  -26.6017   21.6553 C   0  0  0  0  0  0  0  0  0  0  0  0
  -30.0796  -21.7702   19.1336 C   0  0  0  0  0  0  0  0  0  0  0  0
  -22.3178  -21.2551   20.4172 C   0  0  0  0  0  0  0  0  0  0  0  0
  -30.6243  -19.7830   20.2635 C   0  0  0  0  0  0  0  0  0  0  0  0
  -30.9539  -18.4060   22.6672 C   0  0  0  0  0  0  0  0  0  0  0  0
  -29.5486  -19.6433   21.1404 C   0  0  0  0  0  0  0  0  0  0  0  0
  -18.2654  -26.5723   22.9946 C   0  0  0  0  0  0  0  0  0  0  0  0
  -28.8897  -25.8252   19.3313 C   0  0  0  0  0  0  0  0  0  0  0  0
  -28.7019  -27.9944   19.0241 C   0  0  0  0  0  0  0  0  0  0  0  0
  -30.4783  -26.9209   17.6310 C   0  0  0  0  0  0  0  0  0  0  0  0
  -23.8574  -16.1707   21.5316 C   0  0  0  0  0  0  0  0  0  0  0  0
  -22.4868  -16.5057   24.4526 C   0  0  0  0  0  0  0  0  0  0  0  0
  -19.9066  -23.9520   20.1698 C   0  0  0  0  0  0  0  0  0  0  0  0
  -20.7446  -18.4769   26.6265 C   0  0  0  0  0  0  0  0  0  0  0  0
  -23.2557  -28.4825   21.2503 C   0  0  0  0  0  0  0  0  0  0  0  0
  -26.1863  -11.7180   20.6333 C   0  0  0  0  0  0  0  0  0  0  0  0
  -24.8625  -18.3469   22.3126 C   0  0  0  0  0  0  0  0  0  0  0  0
  -21.9371  -18.2736   22.7386 C   0  0  0  0  0  0  0  0  0  0  0  0
  -24.9713  -12.1716   21.4383 C   0  0  0  0  0  0  0  0  0  0  0  0
  -26.3002  -29.6560   22.8160 C   0  0  0  0  0  0  0  0  0  0  0  0
  -24.0716  -13.0644   20.5896 C   0  0  0  0  0  0  0  0  0  0  0  0
  -27.3637  -28.8989   22.0185 C   0  0  0  0  0  0  0  0  0  0  0  0
  -25.0636  -28.7925   23.0470 C   0  0  0  0  0  0  0  0  0  0  0  0
  -25.5131  -27.4896   21.0040 C   0  0  0  0  0  0  0  0  0  0  0  0
  -24.8107  -14.3340   20.1501 C   0  0  1  0  0  0  0  0  0  0  0  0
  -24.1404  -17.0624   22.7074 C   0  0  1  0  0  0  0  0  0  0  0  0
  -26.7797  -28.3166   20.7177 C   0  0  2  0  0  0  0  0  0  0  0  0
  -19.7372  -18.4623   28.9248 C   0  0  0  0  0  0  0  0  0  0  0  0
  -20.1780  -14.7948   23.4270 C   0  0  0  0  0  0  0  0  0  0  0  0
  -18.8143  -15.5952   25.3682 C   0  0  0  0  0  0  0  0  0  0  0  0
  -20.8974  -14.2819   25.7666 C   0  0  0  0  0  0  0  0  0  0  0  0
  -22.4677  -20.7102   27.5222 C   0  0  0  0  0  0  0  0  0  0  0  0
  -21.0419  -29.5347   21.6362 C   0  0  0  0  0  0  0  0  0  0  0  0
  -18.1214  -25.6131   20.6586 C   0  0  0  0  0  0  0  0  0  0  0  0
  -20.3142  -22.5332   20.5052 C   0  0  0  0  0  0  0  0  0  1  0  0
  -21.0739  -16.6708   24.9579 C   0  0  1  0  0  0  0  0  0  0  0  0
  -20.9657  -18.7981   28.0936 C   0  0  2  0  0  0  0  0  0  0  0  0
  -20.2525  -15.3542   24.8617 C   0  0  0  0  0  0  0  0  0  0  0  0
  -27.9046  -26.1956   20.1538 N   0  0  0  0  0  0  0  0  0  0  0  0
  -27.8141  -27.5199   19.9443 N   0  0  0  0  0  0  0  0  0  0  0  0
  -22.8591  -17.3150   23.3698 N   0  0  0  0  0  0  0  0  0  0  0  0
  -24.5465  -28.2850   21.7683 N   0  0  0  0  0  0  0  0  0  0  0  0
  -28.7464  -29.3026   18.6938 N   0  0  0  0  0  0  0  0  0  0  0  0
  -31.1139  -25.7125   17.3147 N   0  0  0  0  0  0  0  0  0  0  0  0
  -24.8761  -15.2838   21.2401 N   0  0  0  0  0  0  0  0  0  0  0  0
  -18.7307  -24.3120   20.8092 N   0  0  0  0  0  0  0  0  0  0  0  0
  -21.1841  -17.2089   26.3095 N   0  0  0  0  0  0  0  0  0  0  0  0
  -22.3993  -29.2411   22.0389 N   0  0  0  0  0  0  0  0  0  0  0  0
  -21.2684  -20.2470   28.2667 N   0  3  0  0  0  0  0  0  0  0  0  0
  -30.8569  -27.9784   17.0725 O   0  0  0  0  0  0  0  0  0  0  0  0
  -22.7929  -16.2783   20.9341 O   0  0  0  0  0  0  0  0  0  0  0  0
  -23.2349  -15.6938   25.0029 O   0  0  0  0  0  0  0  0  0  0  0  0
  -20.5595  -24.6706   19.4179 O   0  0  0  0  0  0  0  0  0  0  0  0
  -20.2300  -19.2699   25.8411 O   0  0  0  0  0  0  0  0  0  0  0  0
  -22.8944  -28.0213   20.1622 O   0  0  0  0  0  0  0  0  0  0  0  0
  -30.4620  -20.4655   19.0695 O   0  0  0  0  0  0  0  0  0  0  0  0
  -21.5154  -22.1787   19.8213 O   0  0  0  0  0  0  0  0  0  1  0  0
  -31.1120  -17.7436   23.8206 F   0  0  0  0  0  0  0  0  0  0  0  0
  -28.3541  -20.1674   20.8331 F   0  0  0  0  0  0  0  0  0  0  0  0
  -17.1483  -25.3929   23.5779 Cl  0  0  0  0  0  0  0  0  0  0  0  0
  1  2  1  0  0  0  0
  1  5  2  0  0  0  0
  2  6  2  0  0  0  0
  3  9  2  0  0  0  0
  3 18  1  0  0  0  0
  4 10  1  0  0  0  0
  4 18  2  0  0  0  0
  5 20  1  0  0  0  0
  6 22  1  0  0  0  0
  7 11  2  0  0  0  0
  7 21  1  0  0  0  0
  8 14  2  0  0  0  0
  8 24  1  0  0  0  0
  9 26  1  0  0  0  0
 10 26  2  0  0  0  0
 11 27  1  0  0  0  0
 12 13  2  0  0  0  0
 12 28  1  0  0  0  0
 13 29  1  0  0  0  0
 14 31  1  0  0  0  0
 15 23  1  0  0  0  0
 15 27  2  0  0  0  0
 16 24  2  0  0  0  0
 16 25  1  0  0  0  0
 17 29  2  0  0  0  0
 17 30  1  0  0  0  0
 18 32  1  0  0  0  0
 19 32  1  0  0  0  0
 19 33  2  0  0  0  0
 19 34  1  0  0  0  0
 20 22  2  0  0  0  0
 20 40  1  0  0  0  0
 21 23  2  0  0  0  0
 21 41  1  0  0  0  0
 22 49  1  0  0  0  0
 23 42  1  0  0  0  0
 24 57  1  0  0  0  0
 25 31  2  0  0  0  0
 25 58  1  0  0  0  0
 26 80  1  0  0  0  0
 27 81  1  0  0  0  0
 28 30  2  0  0  0  0
 28 80  1  0  0  0  0
 29 82  1  0  0  0  0
 30 83  1  0  0  0  0
 31 84  1  0  0  0  0
 32 63  2  0  0  0  0
 33 64  1  0  0  0  0
 33 67  1  0  0  0  0
 34 68  1  0  0  0  0
 34 74  2  0  0  0  0
 35 50  1  0  0  0  0
 35 69  1  0  0  0  0
 35 75  2  0  0  0  0
 36 60  1  0  0  0  0
 36 65  1  0  0  0  0
 36 76  2  0  0  0  0
 37 59  1  0  0  0  0
 37 70  1  0  0  0  0
 37 77  2  0  0  0  0
 38 61  1  0  0  0  0
 38 71  1  0  0  0  0
 38 78  2  0  0  0  0
 39 66  1  0  0  0  0
 39 72  1  0  0  0  0
 39 79  2  0  0  0  0
 40 43  1  0  0  0  0
 41 50  1  0  0  0  0
 42 65  1  0  0  0  0
 43 45  1  0  0  0  0
 44 46  1  0  0  0  0
 44 47  1  0  0  0  0
 45 49  1  0  0  0  0
 46 51  1  0  0  0  0
 47 66  1  0  0  0  0
 48 51  1  0  0  0  0
 48 66  1  0  0  0  0
 49 69  1  0  0  0  0
 50 65  1  0  0  0  0
 51 64  1  0  0  0  0
 52 61  1  0  0  0  0
 53 62  1  0  0  0  0
 54 62  1  0  0  0  0
 55 62  1  0  0  0  0
 56 73  1  0  0  0  0
 57 72  1  0  0  0  0
 58 70  1  0  0  0  0
 59 81  1  0  0  0  0
 60 62  1  0  0  0  0
 60 71  1  0  0  0  0
 61 73  1  0  0  0  0
 63 64  1  0  0  0  0
M  CHG  1  73   1
M  ISO  4  39 100  59 101  72 100  81 101
M  END
> <Batch ID>
0047

> <Smiles>
CNC(C)C(=O)NC(C(=O)N1Cc2cc([101O:1][101CH2:1]C(=O)NCc3cc(C[100NH:0][100C:0](=O)N4CCCC(n5nc(-c6ccc(Oc7ccc(F)cc7F)cc6)c(C(N)=O)c5N)C4)ccc3Cl)ccc2CC1C(=O)NC1CCCc2ccccc21)C(C)(C)C

> <Shape>
0.208

> <Color>
0.061

> <Negative vol penalty>
0.000

$$$$

  -OEChem-04042322263D

 87 96  0     1  0  0  0  0  0999 V2000
  -16.6918  -29.9966   23.7058 C   0  0  0  0  0  0  0  0  0  0  0  0
  -17.0927  -28.6890   23.9606 C   0  0  0  0  0  0  0  0  0  0  0  0
  -23.3613  -10.1557   22.2337 C   0  0  0  0  0  0  0  0  0  0  0  0
  -23.6002   -9.5446   19.9085 C   0  0  0  0  0  0  0  0  0  0  0  0
  -17.5114  -30.8432   22.9605 C   0  0  0  0  0  0  0  0  0  0  0  0
  -18.3132  -28.2269   23.4693 C   0  0  0  0  0  0  0  0  0  0  0  0
  -23.6581  -23.7494   25.1125 C   0  0  0  0  0  0  0  0  0  0  0  0
  -22.6318   -8.9896   22.4652 C   0  0  0  0  0  0  0  0  0  0  0  0
  -22.8707   -8.3784   20.1400 C   0  0  0  0  0  0  0  0  0  0  0  0
  -24.3849  -22.6930   24.5652 C   0  0  0  0  0  0  0  0  0  0  0  0
  -19.4762   -7.8859   21.9671 C   0  0  0  0  0  0  0  0  0  0  0  0
  -18.3111   -7.9913   22.7267 C   0  0  0  0  0  0  0  0  0  0  0  0
  -25.7545  -24.2690   23.3571 C   0  0  0  0  0  0  0  0  0  0  0  0
  -31.9273  -18.2969   24.2214 C   0  0  0  0  0  0  0  0  0  0  0  0
  -32.0715  -16.5974   22.5103 C   0  0  0  0  0  0  0  0  0  0  0  0
  -19.2308   -6.4565   24.3502 C   0  0  0  0  0  0  0  0  0  0  0  0
  -23.8454  -10.4332   20.9553 C   0  0  0  0  0  0  0  0  0  0  0  0
  -24.1646  -12.9637   20.9047 C   0  0  0  0  0  0  0  0  0  0  0  0
  -18.7469  -30.3941   22.4680 C   0  0  0  0  0  0  0  0  0  0  0  0
  -23.9676  -25.0754   24.7771 C   0  0  0  0  0  0  0  0  0  0  0  0
  -19.1495  -29.0679   22.7155 C   0  0  0  0  0  0  0  0  0  0  0  0
  -25.0318  -25.3405   23.9035 C   0  0  0  0  0  0  0  0  0  0  0  0
  -32.6947  -17.4517   23.4200 C   0  0  0  0  0  0  0  0  0  0  0  0
  -30.5366  -18.2876   24.1134 C   0  0  0  0  0  0  0  0  0  0  0  0
  -29.9134  -17.4334   23.2038 C   0  0  0  0  0  0  0  0  0  0  0  0
  -30.6808  -16.5882   22.4023 C   0  0  0  0  0  0  0  0  0  0  0  0
  -22.3865   -8.1009   21.4184 C   0  0  0  0  0  0  0  0  0  0  0  0
  -25.4314  -22.9525   23.6852 C   0  0  0  0  0  0  0  0  0  0  0  0
  -20.5186   -7.0658   22.3990 C   0  0  0  0  0  0  0  0  0  0  0  0
  -18.1884   -7.2766   23.9183 C   0  0  0  0  0  0  0  0  0  0  0  0
  -20.3959   -6.3511   23.5905 C   0  0  0  0  0  0  0  0  0  0  0  0
  -24.5986  -11.6380   20.7153 C   0  0  0  0  0  0  0  0  0  0  0  0
  -25.2415  -13.7332   20.5376 C   0  0  0  0  0  0  0  0  0  0  0  0
  -27.8524  -20.6168   24.1900 C   0  0  0  0  0  0  0  0  0  0  0  0
  -22.9011  -13.4556   21.3708 C   0  0  0  0  0  0  0  0  0  0  0  0
  -22.4105  -27.4497   23.3482 C   0  0  0  0  0  0  0  0  0  0  0  0
  -25.0417  -29.1553   24.1787 C   0  0  0  0  0  0  0  0  0  0  0  0
  -28.6124  -28.6392   24.2112 C   0  0  0  0  0  0  0  0  0  0  0  0
  -30.7021  -14.8194   20.6086 C   0  0  0  0  0  0  0  0  0  0  0  0
  -19.5771  -31.3314   21.6272 C   0  0  0  0  0  0  0  0  0  0  0  0
  -23.1912  -26.2048   25.3968 C   0  0  0  0  0  0  0  0  0  0  0  0
  -25.4172  -26.7470   23.5271 C   0  0  0  0  0  0  0  0  0  0  0  0
  -21.0255  -30.8790   21.4606 C   0  0  0  0  0  0  0  0  0  0  0  0
  -29.8201  -21.7998   22.3326 C   0  0  0  0  0  0  0  0  0  0  0  0
  -29.5473  -12.4699   18.1954 C   0  0  0  0  0  0  0  0  0  0  0  0
  -21.0843  -29.3968   21.1050 C   0  0  0  0  0  0  0  0  0  0  0  0
  -28.3127  -21.9088   22.1107 C   0  0  0  0  0  0  0  0  0  0  0  0
  -28.1211  -12.1530   18.6515 C   0  0  0  0  0  0  0  0  0  0  0  0
  -30.1874  -21.3107   23.7308 C   0  0  0  0  0  0  0  0  0  0  0  0
  -30.4904  -12.6696   19.3805 C   0  0  0  0  0  0  0  0  0  0  0  0
  -28.6132  -13.3351   20.8304 C   0  0  0  0  0  0  0  0  0  0  0  0
  -20.4775  -28.5374   22.2206 C   0  0  1  0  0  0  0  0  0  0  0  0
  -27.5322  -21.8901   23.4187 C   0  0  1  0  0  0  0  0  0  1  0  0
  -23.2622  -27.4946   24.5852 C   0  0  1  0  0  0  0  0  0  0  0  0
  -27.6125  -13.1898   19.6723 C   0  0  2  0  0  0  0  0  0  0  0  0
  -34.1815  -17.4605   23.5365 C   0  0  0  0  0  0  0  0  0  0  0  0
  -28.4209  -17.4267   23.0925 C   0  0  0  0  0  0  0  0  0  0  0  0
  -30.3964  -29.6668   25.6459 C   0  0  0  0  0  0  0  0  0  0  0  0
  -25.3248  -31.1538   21.8905 C   0  0  0  0  0  0  0  0  0  0  0  0
  -27.8004  -31.1231   22.2625 C   0  0  0  0  0  0  0  0  0  0  0  0
  -26.2791  -31.9222   24.0707 C   0  0  0  0  0  0  0  0  0  0  0  0
  -29.5940  -25.9893   25.0907 C   0  0  0  0  0  0  0  0  0  0  0  0
  -29.7342  -19.2059   24.9893 C   0  0  0  0  0  0  0  0  0  0  0  0
  -26.3710  -29.4544   23.5287 C   0  0  1  0  0  0  0  0  0  0  0  0
  -29.4938  -28.4613   25.4342 C   0  0  2  0  0  0  0  0  0  0  0  0
  -26.4297  -30.8893   22.9327 C   0  0  0  0  0  0  0  0  0  0  0  0
  -25.8532  -11.5657   20.2630 N   0  0  0  0  0  0  0  0  0  0  0  0
  -26.2169  -12.8558   20.1649 N   0  0  0  0  0  0  0  0  0  0  0  0
  -29.2227  -20.3500   24.2534 N   0  0  0  0  0  0  0  0  0  0  0  0
  -24.6241  -27.8171   24.1544 N   0  0  0  0  0  0  0  0  0  0  0  0
  -29.9457  -13.6682   20.3028 N   0  0  0  0  0  0  0  0  0  0  0  0
  -25.4396  -15.0680   20.5005 N   0  0  0  0  0  0  0  0  0  0  0  0
  -21.9050  -12.5280   21.7049 N   0  0  0  0  0  0  0  0  0  0  0  0
  -30.0683  -15.7135   21.4709 N   0  0  0  0  0  0  0  0  0  0  0  0
  -21.4103  -28.4027   23.3189 N   0  0  0  0  0  0  0  0  0  0  0  0
  -27.3890  -29.1846   24.5383 N   0  0  0  0  0  0  0  0  0  0  0  0
  -30.3521  -27.2524   25.2828 N   0  3  0  0  0  0  0  0  0  0  0  0
  -26.9735  -19.9253   24.7013 O   0  0  0  0  0  0  0  0  0  0  0  0
  -22.6568  -14.6819   21.4718 O   0  0  0  0  0  0  0  0  0  0  0  0
  -22.6443  -26.6133   22.4837 O   0  0  0  0  0  0  0  0  0  0  0  0
  -24.4010  -30.0740   24.6955 O   0  0  0  0  0  0  0  0  0  0  0  0
  -28.9745  -28.3290   23.0784 O   0  0  0  0  0  0  0  0  0  0  0  0
  -31.8177  -15.0120   20.1184 O   0  0  0  0  0  0  0  0  0  0  0  0
  -21.6750   -6.9628   21.6441 O   0  0  0  0  0  0  0  0  0  0  0  0
  -26.1420  -21.9232   23.1491 O   0  0  0  0  0  0  0  0  0  1  0  0
  -17.0701   -7.3791   24.6484 F   0  0  0  0  0  0  0  0  0  0  0  0
  -21.3944   -5.5626   24.0112 F   0  0  0  0  0  0  0  0  0  0  0  0
  1  2  1  0  0  0  0
  1  5  2  0  0  0  0
  2  6  2  0  0  0  0
  3  8  2  0  0  0  0
  3 17  1  0  0  0  0
  4  9  1  0  0  0  0
  4 17  2  0  0  0  0
  5 19  1  0  0  0  0
  6 21  1  0  0  0  0
  7 10  2  0  0  0  0
  7 20  1  0  0  0  0
  8 27  1  0  0  0  0
  9 27  2  0  0  0  0
 10 28  1  0  0  0  0
 11 12  2  0  0  0  0
 11 29  1  0  0  0  0
 12 30  1  0  0  0  0
 13 22  1  0  0  0  0
 13 28  2  0  0  0  0
 14 23  2  0  0  0  0
 14 24  1  0  0  0  0
 15 23  1  0  0  0  0
 15 26  2  0  0  0  0
 16 30  2  0  0  0  0
 16 31  1  0  0  0  0
 17 32  1  0  0  0  0
 18 32  1  0  0  0  0
 18 33  2  0  0  0  0
 18 35  1  0  0  0  0
 19 21  2  0  0  0  0
 19 40  1  0  0  0  0
 20 22  2  0  0  0  0
 20 41  1  0  0  0  0
 21 52  1  0  0  0  0
 22 42  1  0  0  0  0
 23 56  1  0  0  0  0
 24 25  2  0  0  0  0
 24 63  1  0  0  0  0
 25 26  1  0  0  0  0
 25 57  1  0  0  0  0
 26 74  1  0  0  0  0
 27 84  1  0  0  0  0
 28 85  1  0  0  0  0
 29 31  2  0  0  0  0
 29 84  1  0  0  0  0
 30 86  1  0  0  0  0
 31 87  1  0  0  0  0
 32 67  2  0  0  0  0
 33 68  1  0  0  0  0
 33 72  1  0  0  0  0
 34 53  1  0  0  0  0
 34 69  1  0  0  0  0
 34 78  2  0  0  0  0
 35 73  1  0  0  0  0
 35 79  2  0  0  0  0
 36 54  1  0  0  0  0
 36 75  1  0  0  0  0
 36 80  2  0  0  0  0
 37 64  1  0  0  0  0
 37 70  1  0  0  0  0
 37 81  2  0  0  0  0
 38 65  1  0  0  0  0
 38 76  1  0  0  0  0
 38 82  2  0  0  0  0
 39 71  1  0  0  0  0
 39 74  1  0  0  0  0
 39 83  2  0  0  0  0
 40 43  1  0  0  0  0
 41 54  1  0  0  0  0
 42 70  1  0  0  0  0
 43 46  1  0  0  0  0
 44 47  1  0  0  0  0
 44 49  1  0  0  0  0
 45 48  1  0  0  0  0
 45 50  1  0  0  0  0
 46 52  1  0  0  0  0
 47 53  1  0  0  0  0
 48 55  1  0  0  0  0
 49 69  1  0  0  0  0
 50 71  1  0  0  0  0
 51 55  1  0  0  0  0
 51 71  1  0  0  0  0
 52 75  1  0  0  0  0
 53 85  1  0  0  0  0
 54 70  1  0  0  0  0
 55 68  1  0  0  0  0
 58 65  1  0  0  0  0
 59 66  1  0  0  0  0
 60 66  1  0  0  0  0
 61 66  1  0  0  0  0
 62 77  1  0  0  0  0
 63 69  1  0  0  0  0
 64 66  1  0  0  0  0
 64 76  1  0  0  0  0
 65 77  1  0  0  0  0
 67 68  1  0  0  0  0
M  CHG  1  77   1
M  ISO  4  39 100  53 101  74 100  85 101
M  END
> <Batch ID>
0047

> <Smiles>
CNC(C)C(=O)NC(C(=O)N1Cc2cc([101O:1][101CH:1]3CCCN(Cc4cc(C)cc([100NH:0][100C:0](=O)N5CCCC(n6nc(-c7ccc(Oc8ccc(F)cc8F)cc7)c(C(N)=O)c6N)C5)c4C)C3=O)ccc2CC1C(=O)NC1CCCc2ccccc21)C(C)(C)C

> <Shape>
0.269

> <Color>
0.218

> <Negative vol penalty>
0.000

$$$$

  -OEChem-04042322263D

 84 92  0     1  0  0  0  0  0999 V2000
  -16.9206  -26.4419   20.1218 C   0  0  0  0  0  0  0  0  0  0  0  0
  -18.0505  -26.7285   19.3625 C   0  0  0  0  0  0  0  0  0  0  0  0
  -27.4494  -17.7649   18.9369 C   0  0  0  0  0  0  0  0  0  0  0  0
  -26.6767  -18.5877   21.0730 C   0  0  0  0  0  0  0  0  0  0  0  0
  -16.9302  -26.6702   21.4972 C   0  0  0  0  0  0  0  0  0  0  0  0
  -19.1904  -27.2446   19.9780 C   0  0  0  0  0  0  0  0  0  0  0  0
  -25.0180  -26.1314   18.4595 C   0  0  0  0  0  0  0  0  0  0  0  0
  -26.7059  -16.5986   19.1171 C   0  0  0  0  0  0  0  0  0  0  0  0
  -25.9332  -17.4213   21.2533 C   0  0  0  0  0  0  0  0  0  0  0  0
  -25.9431  -26.8480   17.7017 C   0  0  0  0  0  0  0  0  0  0  0  0
  -25.2949  -13.2476   19.1791 C   0  0  0  0  0  0  0  0  0  0  0  0
  -25.9108  -12.0318   18.8822 C   0  0  0  0  0  0  0  0  0  0  0  0
  -33.6643  -28.5811   18.6727 C   0  0  0  0  0  0  0  0  0  0  0  0
  -26.8437  -27.8102   19.7222 C   0  0  0  0  0  0  0  0  0  0  0  0
  -34.1967  -27.5657   20.7993 C   0  0  0  0  0  0  0  0  0  0  0  0
  -27.6067  -12.4856   20.5421 C   0  0  0  0  0  0  0  0  0  0  0  0
  -27.4348  -18.7595   19.9148 C   0  0  0  0  0  0  0  0  0  0  0  0
  -32.3170  -28.2750   18.8638 C   0  0  0  0  0  0  0  0  0  0  0  0
  -27.7776  -21.1578   19.1161 C   0  0  0  0  0  0  0  0  0  0  0  0
  -18.0741  -27.1803   22.1314 C   0  0  0  0  0  0  0  0  0  0  0  0
  -24.9916  -26.2574   19.8559 C   0  0  0  0  0  0  0  0  0  0  0  0
  -19.2148  -27.4811   21.3629 C   0  0  0  0  0  0  0  0  0  0  0  0
  -25.9189  -27.0921   20.4956 C   0  0  0  0  0  0  0  0  0  0  0  0
  -32.8493  -27.2596   20.9905 C   0  0  0  0  0  0  0  0  0  0  0  0
  -31.9095  -27.6143   20.0227 C   0  0  0  0  0  0  0  0  0  0  0  0
  -25.9478  -16.4268   20.2753 C   0  0  0  0  0  0  0  0  0  0  0  0
  -26.8543  -27.6898   18.3328 C   0  0  0  0  0  0  0  0  0  0  0  0
  -25.8350  -14.0825   20.1573 C   0  0  0  0  0  0  0  0  0  0  0  0
  -27.0666  -11.6508   19.5637 C   0  0  0  0  0  0  0  0  0  0  0  0
  -26.9908  -13.7014   20.8389 C   0  0  0  0  0  0  0  0  0  0  0  0
  -34.6042  -28.2264   19.6404 C   0  0  0  0  0  0  0  0  0  0  0  0
  -28.2031  -19.9642   19.7295 C   0  0  0  0  0  0  0  0  0  0  0  0
  -28.8679  -21.9898   19.1909 C   0  0  0  0  0  0  0  0  0  0  0  0
  -31.3515  -28.6639   17.8225 C   0  0  0  0  0  0  0  0  0  0  0  0
  -30.5804  -27.8136   17.1268 C   0  0  0  0  0  0  0  0  0  0  0  0
  -26.5103  -21.4852   18.5311 C   0  0  0  0  0  0  0  0  0  0  0  0
  -22.8526  -27.2730   21.9765 C   0  0  0  0  0  0  0  0  0  0  0  0
  -25.0504  -26.2185   24.1165 C   0  0  0  0  0  0  0  0  0  0  0  0
  -28.3107  -25.4671   24.7894 C   0  0  0  0  0  0  0  0  0  0  0  0
  -33.1340  -24.1767   22.0481 C   0  0  0  0  0  0  0  0  0  0  0  0
  -18.0209  -27.4548   23.6134 C   0  0  0  0  0  0  0  0  0  0  0  0
  -24.0049  -25.4570   20.6610 C   0  0  0  0  0  0  0  0  0  0  0  0
  -25.9454  -27.2469   21.9936 C   0  0  0  0  0  0  0  0  0  0  0  0
  -19.3961  -27.6517   24.2461 C   0  0  0  0  0  0  0  0  0  0  0  0
  -33.6634  -21.0250   20.4786 C   0  0  0  0  0  0  0  0  0  0  0  0
  -20.2432  -28.5959   23.3990 C   0  0  0  0  0  0  0  0  0  0  0  0
  -32.2550  -20.5642   20.0991 C   0  0  0  0  0  0  0  0  0  0  0  0
  -33.6734  -21.7705   21.8113 C   0  0  0  0  0  0  0  0  0  0  0  0
  -31.3194  -22.4383   21.5171 C   0  0  0  0  0  0  0  0  0  0  0  0
  -20.4789  -28.0187   21.9980 C   0  0  1  0  0  0  0  0  0  0  0  0
  -23.7314  -26.0558   22.0373 C   0  0  1  0  0  0  0  0  0  0  0  0
  -31.2499  -21.7303   20.1532 C   0  0  2  0  0  0  0  0  0  0  0  0
  -30.4661  -27.2800   20.2391 C   0  0  0  0  0  0  0  0  0  0  0  0
  -30.2846  -24.6158   26.0841 C   0  0  0  0  0  0  0  0  0  0  0  0
  -24.9367  -28.9816   25.4059 C   0  0  0  0  0  0  0  0  0  0  0  0
  -27.0739  -28.4395   26.5919 C   0  0  0  0  0  0  0  0  0  0  0  0
  -25.0292  -27.0778   27.0250 C   0  0  0  0  0  0  0  0  0  0  0  0
  -27.9509  -22.7178   23.7545 C   0  0  0  0  0  0  0  0  0  0  0  0
  -32.4404  -26.5517   22.2409 C   0  0  0  0  0  0  0  0  0  0  0  0
  -29.6146  -28.2537   16.0608 C   0  0  0  0  0  0  0  0  0  0  0  0
  -28.1917  -27.8033   16.3695 C   0  0  0  0  0  0  0  0  0  1  0  0
  -26.2384  -26.8307   24.8185 C   0  0  1  0  0  0  0  0  0  0  0  0
  -28.9506  -24.2581   25.4477 C   0  0  2  0  0  0  0  0  0  0  0  0
  -25.8181  -27.8312   25.9319 C   0  0  0  0  0  0  0  0  0  0  0  0
  -29.4652  -20.0282   20.1619 N   0  0  0  0  0  0  0  0  0  0  0  0
  -29.8422  -21.2719   19.8198 N   0  0  0  0  0  0  0  0  0  0  0  0
  -24.9566  -26.4482   22.7366 N   0  0  0  0  0  0  0  0  0  0  0  0
  -32.6996  -22.8648   21.7963 N   0  0  0  0  0  0  0  0  0  0  0  0
  -29.0786  -23.2582   18.7795 N   0  0  0  0  0  0  0  0  0  0  0  0
  -25.4999  -20.5138   18.5389 N   0  0  0  0  0  0  0  0  0  0  0  0
  -21.5005  -26.9945   22.0386 N   0  0  0  0  0  0  0  0  0  0  0  0
  -27.0513  -25.7159   25.2928 N   0  0  0  0  0  0  0  0  0  0  0  0
  -32.1479  -25.1548   22.0086 N   0  0  0  0  0  0  0  0  0  0  0  0
  -29.1828  -23.1830   24.4420 N   0  3  0  0  0  0  0  0  0  0  0  0
  -26.2858  -22.6002   18.0020 O   0  0  0  0  0  0  0  0  0  0  0  0
  -23.3634  -28.3829   21.8818 O   0  0  0  0  0  0  0  0  0  0  0  0
  -24.2395  -25.5548   24.7673 O   0  0  0  0  0  0  0  0  0  0  0  0
  -28.8733  -26.1271   23.9186 O   0  0  0  0  0  0  0  0  0  0  0  0
  -34.3141  -24.4562   22.2850 O   0  0  0  0  0  0  0  0  0  0  0  0
  -25.2220  -15.2889   20.4514 O   0  0  0  0  0  0  0  0  0  0  0  0
  -27.7580  -28.3910   17.5955 O   0  0  0  0  0  0  0  0  0  1  0  0
  -27.6570  -10.4825   19.2797 F   0  0  0  0  0  0  0  0  0  0  0  0
  -27.5137  -14.4988   21.7805 F   0  0  0  0  0  0  0  0  0  0  0  0
  -36.2668  -28.6040   19.4049 Cl  0  0  0  0  0  0  0  0  0  0  0  0
  1  2  1  0  0  0  0
  1  5  2  0  0  0  0
  2  6  2  0  0  0  0
  3  8  2  0  0  0  0
  3 17  1  0  0  0  0
  4  9  1  0  0  0  0
  4 17  2  0  0  0  0
  5 20  1  0  0  0  0
  6 22  1  0  0  0  0
  7 10  2  0  0  0  0
  7 21  1  0  0  0  0
  8 26  1  0  0  0  0
  9 26  2  0  0  0  0
 10 27  1  0  0  0  0
 11 12  2  0  0  0  0
 11 28  1  0  0  0  0
 12 29  1  0  0  0  0
 13 18  1  0  0  0  0
 13 31  2  0  0  0  0
 14 23  1  0  0  0  0
 14 27  2  0  0  0  0
 15 24  2  0  0  0  0
 15 31  1  0  0  0  0
 16 29  2  0  0  0  0
 16 30  1  0  0  0  0
 17 32  1  0  0  0  0
 18 25  2  0  0  0  0
 18 34  1  0  0  0  0
 19 32  1  0  0  0  0
 19 33  2  0  0  0  0
 19 36  1  0  0  0  0
 20 22  2  0  0  0  0
 20 41  1  0  0  0  0
 21 23  2  0  0  0  0
 21 42  1  0  0  0  0
 22 50  1  0  0  0  0
 23 43  1  0  0  0  0
 24 25  1  0  0  0  0
 24 59  1  0  0  0  0
 25 53  1  0  0  0  0
 26 80  1  0  0  0  0
 27 81  1  0  0  0  0
 28 30  2  0  0  0  0
 28 80  1  0  0  0  0
 29 82  1  0  0  0  0
 30 83  1  0  0  0  0
 31 84  1  0  0  0  0
 32 65  2  0  0  0  0
 33 66  1  0  0  0  0
 33 69  1  0  0  0  0
 34 35  2  0  0  0  0
 35 60  1  0  0  0  0
 36 70  1  0  0  0  0
 36 75  2  0  0  0  0
 37 51  1  0  0  0  0
 37 71  1  0  0  0  0
 37 76  2  0  0  0  0
 38 62  1  0  0  0  0
 38 67  1  0  0  0  0
 38 77  2  0  0  0  0
 39 63  1  0  0  0  0
 39 72  1  0  0  0  0
 39 78  2  0  0  0  0
 40 68  1  0  0  0  0
 40 73  1  0  0  0  0
 40 79  2  0  0  0  0
 41 44  1  0  0  0  0
 42 51  1  0  0  0  0
 43 67  1  0  0  0  0
 44 46  1  0  0  0  0
 45 47  1  0  0  0  0
 45 48  1  0  0  0  0
 46 50  1  0  0  0  0
 47 52  1  0  0  0  0
 48 68  1  0  0  0  0
 49 52  1  0  0  0  0
 49 68  1  0  0  0  0
 50 71  1  0  0  0  0
 51 67  1  0  0  0  0
 52 66  1  0  0  0  0
 54 63  1  0  0  0  0
 55 64  1  0  0  0  0
 56 64  1  0  0  0  0
 57 64  1  0  0  0  0
 58 74  1  0  0  0  0
 59 73  1  0  0  0  0
 60 61  1  0  0  0  0
 61 81  1  0  0  0  0
 62 64  1  0  0  0  0
 62 72  1  0  0  0  0
 63 74  1  0  0  0  0
 65 66  1  0  0  0  0
M  CHG  1  74   1
M  ISO  4  40 100  61 101  73 100  81 101
M  END
> <Batch ID>
0047

> <Smiles>
CNC(C)C(=O)NC(C(=O)N1Cc2cc([101O:1][101CH2:1]CC=Cc3cc(Cl)cc(C[100NH:0][100C:0](=O)N4CCCC(n5nc(-c6ccc(Oc7ccc(F)cc7F)cc6)c(C(N)=O)c5N)C4)c3C)ccc2CC1C(=O)NC1CCCc2ccccc21)C(C)(C)C

> <Shape>
0.172

> <Color>
0.078

> <Negative vol penalty>
0.000

$$$$

  -OEChem-04042322263D

 87 95  0     1  0  0  0  0  0999 V2000
  -23.1684   -7.9626   20.6023 C   0  0  0  0  0  0  0  0  0  0  0  0
  -22.2523   -8.8336   20.0213 C   0  0  0  0  0  0  0  0  0  0  0  0
  -29.6086  -26.3636   18.0429 C   0  0  0  0  0  0  0  0  0  0  0  0
  -28.8019  -24.8175   19.7150 C   0  0  0  0  0  0  0  0  0  0  0  0
  -24.0379   -8.4243   21.5896 C   0  0  0  0  0  0  0  0  0  0  0  0
  -22.2045  -10.1665   20.4280 C   0  0  0  0  0  0  0  0  0  0  0  0
  -20.8662  -16.7320   17.8942 C   0  0  0  0  0  0  0  0  0  0  0  0
  -18.5054  -28.5315   23.8913 C   0  0  0  0  0  0  0  0  0  0  0  0
  -19.7251  -28.9777   23.3826 C   0  0  0  0  0  0  0  0  0  0  0  0
  -30.8580  -25.7441   18.0729 C   0  0  0  0  0  0  0  0  0  0  0  0
  -30.0513  -24.1979   19.7449 C   0  0  0  0  0  0  0  0  0  0  0  0
  -20.0850  -17.8537   18.1684 C   0  0  0  0  0  0  0  0  0  0  0  0
  -34.1526  -24.3414   17.4460 C   0  0  0  0  0  0  0  0  0  0  0  0
  -34.7693  -24.0661   16.2257 C   0  0  0  0  0  0  0  0  0  0  0  0
  -21.6894  -18.5584   19.8262 C   0  0  0  0  0  0  0  0  0  0  0  0
  -19.5883  -27.3365   21.6148 C   0  0  0  0  0  0  0  0  0  0  0  0
  -32.9001  -22.6709   15.5958 C   0  0  0  0  0  0  0  0  0  0  0  0
  -28.5805  -25.9003   18.8640 C   0  0  0  0  0  0  0  0  0  0  0  0
  -26.1986  -26.2143   18.0064 C   0  0  0  0  0  0  0  0  0  0  0  0
  -24.0073   -9.7658   22.0017 C   0  0  0  0  0  0  0  0  0  0  0  0
  -22.0614  -16.5090   18.5928 C   0  0  0  0  0  0  0  0  0  0  0  0
  -23.0735  -10.6462   21.4227 C   0  0  0  0  0  0  0  0  0  0  0  0
  -22.4853  -17.4344   19.5572 C   0  0  0  0  0  0  0  0  0  0  0  0
  -17.8271  -27.4877   23.2618 C   0  0  0  0  0  0  0  0  0  0  0  0
  -18.3685  -26.8903   22.1236 C   0  0  0  0  0  0  0  0  0  0  0  0
  -20.2666  -28.3803   22.2444 C   0  0  0  0  0  0  0  0  0  0  0  0
  -31.0793  -24.6613   18.9238 C   0  0  0  0  0  0  0  0  0  0  0  0
  -20.4951  -18.7657   19.1365 C   0  0  0  0  0  0  0  0  0  0  0  0
  -32.9096  -23.7815   17.7414 C   0  0  0  0  0  0  0  0  0  0  0  0
  -34.1431  -23.2309   15.3005 C   0  0  0  0  0  0  0  0  0  0  0  0
  -32.2834  -22.9463   16.8163 C   0  0  0  0  0  0  0  0  0  0  0  0
  -27.2899  -26.5401   18.8339 C   0  0  0  0  0  0  0  0  0  0  0  0
  -25.2189  -27.1088   18.3621 C   0  0  0  0  0  0  0  0  0  0  0  0
  -26.0810  -25.1943   17.0058 C   0  0  0  0  0  0  0  0  0  0  0  0
  -23.1330  -14.2326   20.5354 C   0  0  0  0  0  0  0  0  0  0  0  0
  -25.9045  -15.9057   20.3319 C   0  0  0  0  0  0  0  0  0  0  0  0
  -16.8198  -23.5190   22.0816 C   0  0  0  0  0  0  0  0  0  0  0  0
  -27.4515  -18.8862   19.7229 C   0  0  0  0  0  0  0  0  0  0  0  0
  -22.3055  -29.8597   22.2284 C   0  0  0  0  0  0  0  0  0  0  0  0
  -24.9349  -10.2073   23.1060 C   0  0  0  0  0  0  0  0  0  0  0  0
  -22.9062  -15.3081   18.2665 C   0  0  0  0  0  0  0  0  0  0  0  0
  -23.7705  -17.2515   20.3209 C   0  0  0  0  0  0  0  0  0  0  0  0
  -25.0743  -11.7236   23.2146 C   0  0  0  0  0  0  0  0  0  0  0  0
  -25.4366  -31.2521   21.2617 C   0  0  0  0  0  0  0  0  0  0  0  0
  -23.7041  -12.3913   23.1556 C   0  0  0  0  0  0  0  0  0  0  0  0
  -26.1081  -30.1235   20.4759 C   0  0  0  0  0  0  0  0  0  0  0  0
  -24.6278  -30.7178   22.4424 C   0  0  0  0  0  0  0  0  0  0  0  0
  -24.3215  -28.5471   21.3183 C   0  0  0  0  0  0  0  0  0  0  0  0
  -23.0080  -12.1051   21.8195 C   0  0  1  0  0  0  0  0  0  0  0  0
  -23.8462  -14.9126   19.4011 C   0  0  1  0  0  0  0  0  0  0  0  0
  -25.0948  -29.0314   20.0809 C   0  0  2  0  0  0  0  0  0  0  0  0
  -16.5231  -27.0267   23.8253 C   0  0  0  0  0  0  0  0  0  0  0  0
  -29.7226  -19.9523   19.6705 C   0  0  0  0  0  0  0  0  0  0  0  0
  -25.9361  -15.9826   23.3820 C   0  0  0  0  0  0  0  0  0  0  0  0
  -27.6370  -17.8149   23.2488 C   0  0  0  0  0  0  0  0  0  0  0  0
  -28.1630  -15.5578   22.3260 C   0  0  0  0  0  0  0  0  0  0  0  0
  -27.1999  -19.5530   16.8505 C   0  0  0  0  0  0  0  0  0  0  0  0
  -17.6554  -25.7669   21.4281 C   0  0  0  0  0  0  0  0  0  0  0  0
  -18.4724  -21.0732   21.0726 C   0  0  0  0  0  0  0  0  0  0  0  0
  -18.4918  -21.6448   22.4934 C   0  0  0  0  0  0  0  0  0  0  0  0
  -19.7859  -20.3761   20.7364 C   0  0  0  0  0  0  0  0  0  1  0  0
  -26.5244  -17.0455   21.1038 C   0  0  1  0  0  0  0  0  0  0  0  0
  -17.1840  -22.3140   22.9342 C   0  0  2  0  0  0  0  0  0  0  0  0
  -28.6492  -19.2417   18.8607 C   0  0  2  0  0  0  0  0  0  0  0  0
  -27.0399  -16.6029   22.5023 C   0  0  0  0  0  0  0  0  0  0  0  0
  -27.0285  -27.5620   19.6534 N   0  0  0  0  0  0  0  0  0  0  0  0
  -25.7619  -27.8860   19.3426 N   0  0  0  0  0  0  0  0  0  0  0  0
  -24.5585  -16.0584   19.9703 N   0  0  0  0  0  0  0  0  0  0  0  0
  -23.6862  -29.6905   21.9919 N   0  0  0  0  0  0  0  0  0  0  0  0
  -23.9546  -27.2986   17.9286 N   0  0  0  0  0  0  0  0  0  0  0  0
  -27.1833  -24.3622   16.7671 N   0  0  0  0  0  0  0  0  0  0  0  0
  -21.5046  -28.8345   21.7262 N   0  0  0  0  0  0  0  0  0  0  0  0
  -23.5590  -12.9398   20.7736 N   0  0  0  0  0  0  0  0  0  0  0  0
  -17.7754  -24.5215   22.1499 N   0  0  0  0  0  0  0  0  0  0  0  0
  -27.5540  -17.6117   20.2391 N   0  0  0  0  0  0  0  0  0  0  0  0
  -16.0755  -21.3181   22.9296 N   0  3  0  0  0  0  0  0  0  0  0  0
  -28.2354  -20.1355   17.7423 N   0  3  0  0  0  0  0  0  0  0  0  0
  -25.0351  -25.0362   16.3315 O   0  0  0  0  0  0  0  0  0  0  0  0
  -22.2617  -14.8366   21.1500 O   0  0  0  0  0  0  0  0  0  0  0  0
  -26.5913  -14.9196   20.0537 O   0  0  0  0  0  0  0  0  0  0  0  0
  -15.7877  -23.5736   21.4163 O   0  0  0  0  0  0  0  0  0  0  0  0
  -26.5199  -19.6628   19.9218 O   0  0  0  0  0  0  0  0  0  0  0  0
  -21.8636  -30.8551   22.8080 O   0  0  0  0  0  0  0  0  0  0  0  0
  -32.2982  -24.0564   18.9531 O   0  0  0  0  0  0  0  0  0  0  0  0
  -19.7341  -19.8611   19.4066 O   0  0  0  0  0  0  0  0  0  1  0  0
  -34.7347  -22.9678   14.1279 F   0  0  0  0  0  0  0  0  0  0  0  0
  -31.0887  -22.4064   17.0938 F   0  0  0  0  0  0  0  0  0  0  0  0
  1  2  1  0  0  0  0
  1  5  2  0  0  0  0
  2  6  2  0  0  0  0
  3 10  2  0  0  0  0
  3 18  1  0  0  0  0
  4 11  1  0  0  0  0
  4 18  2  0  0  0  0
  5 20  1  0  0  0  0
  6 22  1  0  0  0  0
  7 12  2  0  0  0  0
  7 21  1  0  0  0  0
  8  9  2  0  0  0  0
  8 24  1  0  0  0  0
  9 26  1  0  0  0  0
 10 27  1  0  0  0  0
 11 27  2  0  0  0  0
 12 28  1  0  0  0  0
 13 14  2  0  0  0  0
 13 29  1  0  0  0  0
 14 30  1  0  0  0  0
 15 23  1  0  0  0  0
 15 28  2  0  0  0  0
 16 25  1  0  0  0  0
 16 26  2  0  0  0  0
 17 30  2  0  0  0  0
 17 31  1  0  0  0  0
 18 32  1  0  0  0  0
 19 32  1  0  0  0  0
 19 33  2  0  0  0  0
 19 34  1  0  0  0  0
 20 22  2  0  0  0  0
 20 40  1  0  0  0  0
 21 23  2  0  0  0  0
 21 41  1  0  0  0  0
 22 49  1  0  0  0  0
 23 42  1  0  0  0  0
 24 25  2  0  0  0  0
 24 52  1  0  0  0  0
 25 58  1  0  0  0  0
 26 72  1  0  0  0  0
 27 84  1  0  0  0  0
 28 85  1  0  0  0  0
 29 31  2  0  0  0  0
 29 84  1  0  0  0  0
 30 86  1  0  0  0  0
 31 87  1  0  0  0  0
 32 66  2  0  0  0  0
 33 67  1  0  0  0  0
 33 70  1  0  0  0  0
 34 71  1  0  0  0  0
 34 78  2  0  0  0  0
 35 50  1  0  0  0  0
 35 73  1  0  0  0  0
 35 79  2  0  0  0  0
 36 62  1  0  0  0  0
 36 68  1  0  0  0  0
 36 80  2  0  0  0  0
 37 63  1  0  0  0  0
 37 74  1  0  0  0  0
 37 81  2  0  0  0  0
 38 64  1  0  0  0  0
 38 75  1  0  0  0  0
 38 82  2  0  0  0  0
 39 69  1  0  0  0  0
 39 72  1  0  0  0  0
 39 83  2  0  0  0  0
 40 43  1  0  0  0  0
 41 50  1  0  0  0  0
 42 68  1  0  0  0  0
 43 45  1  0  0  0  0
 44 46  1  0  0  0  0
 44 47  1  0  0  0  0
 45 49  1  0  0  0  0
 46 51  1  0  0  0  0
 47 69  1  0  0  0  0
 48 51  1  0  0  0  0
 48 69  1  0  0  0  0
 49 73  1  0  0  0  0
 50 68  1  0  0  0  0
 51 67  1  0  0  0  0
 53 64  1  0  0  0  0
 54 65  1  0  0  0  0
 55 65  1  0  0  0  0
 56 65  1  0  0  0  0
 57 77  1  0  0  0  0
 58 74  1  0  0  0  0
 59 60  1  0  0  0  0
 59 61  1  0  0  0  0
 60 63  1  0  0  0  0
 61 85  1  0  0  0  0
 62 65  1  0  0  0  0
 62 75  1  0  0  0  0
 63 76  1  0  0  0  0
 64 77  1  0  0  0  0
 66 67  1  0  0  0  0
M  CHG  2  76   1  77   1
M  ISO  4  39 100  61 101  72 100  85 101
M  END
> <Batch ID>
0047

> <Smiles>
CNC(C)C(=O)NC(C(=O)N1Cc2cc([101O:1][101CH2:1]CCC(N)C(=O)NCc3cc([100NH:0][100C:0](=O)N4CCCC(n5nc(-c6ccc(Oc7ccc(F)cc7F)cc6)c(C(N)=O)c5N)C4)ccc3C)ccc2CC1C(=O)NC1CCCc2ccccc21)C(C)(C)C

> <Shape>
0.242

> <Color>
0.079

> <Negative vol penalty>
0.000

$$$$

  -OEChem-04042322263D

 89 98  0     1  0  0  0  0  0999 V2000
  -20.8244  -23.4158   25.1346 C   0  0  0  0  0  0  0  0  0  0  0  0
  -22.0820  -22.8376   25.2749 C   0  0  0  0  0  0  0  0  0  0  0  0
  -25.3806  -30.9363   21.3904 C   0  0  0  0  0  0  0  0  0  0  0  0
  -24.2360  -29.2864   22.7338 C   0  0  0  0  0  0  0  0  0  0  0  0
  -19.7225  -22.6191   24.8268 C   0  0  0  0  0  0  0  0  0  0  0  0
  -22.2380  -21.4619   25.1084 C   0  0  0  0  0  0  0  0  0  0  0  0
  -26.2742  -20.2926   22.2824 C   0  0  0  0  0  0  0  0  0  0  0  0
  -24.7325  -31.9548   22.0891 C   0  0  0  0  0  0  0  0  0  0  0  0
  -23.5879  -30.3049   23.4325 C   0  0  0  0  0  0  0  0  0  0  0  0
  -27.5228  -20.3522   22.8999 C   0  0  0  0  0  0  0  0  0  0  0  0
  -25.0402  -33.5150   25.0730 C   0  0  0  0  0  0  0  0  0  0  0  0
  -25.8065  -34.6021   25.4932 C   0  0  0  0  0  0  0  0  0  0  0  0
  -27.4900  -17.9569   23.1840 C   0  0  0  0  0  0  0  0  0  0  0  0
  -29.2380  -21.2796   19.8181 C   0  0  0  0  0  0  0  0  0  0  0  0
  -28.1268  -20.5431   17.8031 C   0  0  0  0  0  0  0  0  0  0  0  0
  -24.4204  -36.0854   24.1833 C   0  0  0  0  0  0  0  0  0  0  0  0
  -25.1323  -29.6021   21.7127 C   0  0  0  0  0  0  0  0  0  0  0  0
  -27.1887  -28.3318   20.8971 C   0  0  0  0  0  0  0  0  0  0  0  0
  -19.8668  -21.2343   24.6470 C   0  0  0  0  0  0  0  0  0  0  0  0
  -25.6182  -19.0638   22.1205 C   0  0  0  0  0  0  0  0  0  0  0  0
  -21.1367  -20.6457   24.7992 C   0  0  0  0  0  0  0  0  0  0  0  0
  -26.2343  -17.8841   22.5618 C   0  0  0  0  0  0  0  0  0  0  0  0
  -30.3827  -20.5758   19.4440 C   0  0  0  0  0  0  0  0  0  0  0  0
  -30.3995  -19.8557   18.2495 C   0  0  0  0  0  0  0  0  0  0  0  0
  -28.1100  -21.2632   18.9976 C   0  0  0  0  0  0  0  0  0  0  0  0
  -23.8362  -31.6392   23.1101 C   0  0  0  0  0  0  0  0  0  0  0  0
  -28.1296  -19.1846   23.3534 C   0  0  0  0  0  0  0  0  0  0  0  0
  -23.9641  -33.7130   24.2079 C   0  0  0  0  0  0  0  0  0  0  0  0
  -25.4966  -35.8873   25.0483 C   0  0  0  0  0  0  0  0  0  0  0  0
  -29.2716  -19.8394   17.4290 C   0  0  0  0  0  0  0  0  0  0  0  0
  -23.6542  -34.9982   23.7631 C   0  0  0  0  0  0  0  0  0  0  0  0
  -25.8011  -28.5495   20.9909 C   0  0  0  0  0  0  0  0  0  0  0  0
  -27.3084  -27.2156   20.1058 C   0  0  0  0  0  0  0  0  0  0  0  0
  -32.9644  -19.4060   21.9312 C   0  0  0  0  0  0  0  0  0  0  0  0
  -28.2726  -29.0722   21.4739 C   0  0  0  0  0  0  0  0  0  0  0  0
  -34.0570  -18.7489   21.5137 C   0  0  0  0  0  0  0  0  0  0  0  0
  -22.8766  -17.8315   23.1543 C   0  0  0  0  0  0  0  0  0  0  0  0
  -23.6888  -15.3797   21.1919 C   0  0  0  0  0  0  0  0  0  0  0  0
  -26.6880  -13.5543   20.3610 C   0  0  0  0  0  0  0  0  0  0  0  0
  -25.7437  -22.0662   18.6782 C   0  0  0  0  0  0  0  0  0  0  0  0
  -18.6382  -20.4074   24.3618 C   0  0  0  0  0  0  0  0  0  0  0  0
  -24.2838  -19.0133   21.4283 C   0  0  0  0  0  0  0  0  0  0  0  0
  -25.5810  -16.5375   22.3938 C   0  0  0  0  0  0  0  0  0  0  0  0
  -32.9146  -20.1776   23.2219 C   0  0  0  0  0  0  0  0  0  0  0  0
  -18.9534  -19.0108   23.8323 C   0  0  0  0  0  0  0  0  0  0  0  0
  -31.6984  -19.7628   24.0412 C   0  0  0  0  0  0  0  0  0  0  0  0
  -23.8629  -24.7674   17.3207 C   0  0  0  0  0  0  0  0  0  0  0  0
  -20.0469  -18.3563   24.6707 C   0  0  0  0  0  0  0  0  0  0  0  0
  -24.3136  -25.9743   18.1468 C   0  0  0  0  0  0  0  0  0  0  0  0
  -23.7787  -23.4994   18.1684 C   0  0  0  0  0  0  0  0  0  0  0  0
  -25.4454  -24.3841   19.7523 C   0  0  0  0  0  0  0  0  0  0  0  0
  -30.5894  -18.9150   21.9397 C   0  0  0  0  0  0  0  0  0  0  0  0
  -21.3506  -19.1607   24.6019 C   0  0  1  0  0  0  0  0  0  0  0  0
  -23.4760  -17.7673   21.7780 C   0  0  1  0  0  0  0  0  0  0  0  0
  -25.6077  -25.6713   18.9274 C   0  0  2  0  0  0  0  0  0  0  0  0
  -30.4269  -19.7715   23.1928 C   0  0  1  0  0  0  0  0  0  1  0  0
  -31.6156  -19.0966   17.8304 C   0  0  0  0  0  0  0  0  0  0  0  0
  -34.0786  -17.9873   20.2218 C   0  0  0  0  0  0  0  0  0  0  0  0
  -35.3263  -18.7336   22.3124 C   0  0  0  0  0  0  0  0  0  0  0  0
  -27.3223  -12.3247   18.2675 C   0  0  0  0  0  0  0  0  0  0  0  0
  -22.5689  -12.9352   22.6342 C   0  0  0  0  0  0  0  0  0  0  0  0
  -24.4285  -11.5842   21.6416 C   0  0  0  0  0  0  0  0  0  0  0  0
  -22.7579  -12.6867   20.1529 C   0  0  0  0  0  0  0  0  0  0  0  0
  -29.1877  -15.1108   20.0657 C   0  0  0  0  0  0  0  0  0  0  0  0
  -31.5840  -20.6084   20.3422 C   0  0  0  0  0  0  0  0  0  0  0  0
  -24.4786  -14.1025   21.3472 C   0  0  1  0  0  0  0  0  0  0  0  0
  -27.4585  -13.6187   19.0547 C   0  0  2  0  0  0  0  0  0  0  0  0
  -23.5641  -12.8502   21.4598 C   0  0  0  0  0  0  0  0  0  0  0  0
  -25.0902  -27.6444   20.3131 N   0  0  0  0  0  0  0  0  0  0  0  0
  -26.0348  -26.8472   19.7858 N   0  0  0  0  0  0  0  0  0  0  0  0
  -24.2738  -16.5409   21.7165 N   0  0  0  0  0  0  0  0  0  0  0  0
  -25.0415  -23.2740   18.8752 N   0  0  0  0  0  0  0  0  0  0  0  0
  -28.3778  -26.5232   19.6592 N   0  0  0  0  0  0  0  0  0  0  0  0
  -28.7332  -28.7019   22.7447 N   0  0  0  0  0  0  0  0  0  0  0  0
  -26.9471  -21.9783   19.3772 N   0  0  0  0  0  0  0  0  0  0  0  0
  -22.0344  -18.9091   23.3515 N   0  0  0  0  0  0  0  0  0  0  0  0
  -25.4128  -14.0615   20.2274 N   0  0  0  0  0  0  0  0  0  0  0  0
  -31.7800  -19.3310   21.1108 N   0  3  1  0  0  0  0  0  0  0  0  0
  -28.9056  -13.8584   19.3182 N   0  3  0  0  0  0  0  0  0  0  0  0
  -28.8057  -30.0442   20.8869 O   0  0  0  0  0  0  0  0  0  0  0  0
  -23.1563  -16.9665   23.9761 O   0  0  0  0  0  0  0  0  0  0  0  0
  -22.5965  -15.3494   20.6196 O   0  0  0  0  0  0  0  0  0  0  0  0
  -27.1679  -13.0961   21.3956 O   0  0  0  0  0  0  0  0  0  0  0  0
  -25.3228  -21.1866   17.9224 O   0  0  0  0  0  0  0  0  0  0  0  0
  -23.2038  -32.6328   23.7923 O   0  0  0  0  0  0  0  0  0  0  0  0
  -29.3479  -19.2401   23.9571 O   0  0  0  0  0  0  0  0  0  1  0  0
  -26.2316  -36.9314   25.4531 F   0  0  0  0  0  0  0  0  0  0  0  0
  -29.2783  -19.1526   16.2779 F   0  0  0  0  0  0  0  0  0  0  0  0
  -22.6208  -35.1948   22.9328 F   0  0  0  0  0  0  0  0  0  0  0  0
  1  2  1  0  0  0  0
  1  5  2  0  0  0  0
  2  6  2  0  0  0  0
  3  8  2  0  0  0  0
  3 17  1  0  0  0  0
  4  9  1  0  0  0  0
  4 17  2  0  0  0  0
  5 19  1  0  0  0  0
  6 21  1  0  0  0  0
  7 10  2  0  0  0  0
  7 20  1  0  0  0  0
  8 26  1  0  0  0  0
  9 26  2  0  0  0  0
 10 27  1  0  0  0  0
 11 12  2  0  0  0  0
 11 28  1  0  0  0  0
 12 29  1  0  0  0  0
 13 22  1  0  0  0  0
 13 27  2  0  0  0  0
 14 23  1  0  0  0  0
 14 25  2  0  0  0  0
 15 25  1  0  0  0  0
 15 30  2  0  0  0  0
 16 29  2  0  0  0  0
 16 31  1  0  0  0  0
 17 32  1  0  0  0  0
 18 32  1  0  0  0  0
 18 33  2  0  0  0  0
 18 35  1  0  0  0  0
 19 21  2  0  0  0  0
 19 41  1  0  0  0  0
 20 22  2  0  0  0  0
 20 42  1  0  0  0  0
 21 53  1  0  0  0  0
 22 43  1  0  0  0  0
 23 24  2  0  0  0  0
 23 65  1  0  0  0  0
 24 30  1  0  0  0  0
 24 57  1  0  0  0  0
 25 75  1  0  0  0  0
 26 85  1  0  0  0  0
 27 86  1  0  0  0  0
 28 31  2  0  0  0  0
 28 85  1  0  0  0  0
 29 87  1  0  0  0  0
 30 88  1  0  0  0  0
 31 89  1  0  0  0  0
 32 69  2  0  0  0  0
 33 70  1  0  0  0  0
 33 73  1  0  0  0  0
 34 36  2  0  0  0  0
 34 44  1  0  0  0  0
 34 78  1  0  0  0  0
 35 74  1  0  0  0  0
 35 80  2  0  0  0  0
 36 58  1  0  0  0  0
 36 59  1  0  0  0  0
 37 54  1  0  0  0  0
 37 76  1  0  0  0  0
 37 81  2  0  0  0  0
 38 66  1  0  0  0  0
 38 71  1  0  0  0  0
 38 82  2  0  0  0  0
 39 67  1  0  0  0  0
 39 77  1  0  0  0  0
 39 83  2  0  0  0  0
 40 72  1  0  0  0  0
 40 75  1  0  0  0  0
 40 84  2  0  0  0  0
 41 45  1  0  0  0  0
 42 54  1  0  0  0  0
 43 71  1  0  0  0  0
 44 46  1  0  0  0  0
 45 48  1  0  0  0  0
 46 56  1  0  0  0  0
 47 49  1  0  0  0  0
 47 50  1  0  0  0  0
 48 53  1  0  0  0  0
 49 55  1  0  0  0  0
 50 72  1  0  0  0  0
 51 55  1  0  0  0  0
 51 72  1  0  0  0  0
 52 56  1  0  0  0  0
 52 78  1  0  0  0  0
 53 76  1  0  0  0  0
 54 71  1  0  0  0  0
 55 70  1  0  0  0  0
 56 86  1  0  0  0  0
 60 67  1  0  0  0  0
 61 68  1  0  0  0  0
 62 68  1  0  0  0  0
 63 68  1  0  0  0  0
 64 79  1  0  0  0  0
 65 78  1  0  0  0  0
 66 68  1  0  0  0  0
 66 77  1  0  0  0  0
 67 79  1  0  0  0  0
 69 70  1  0  0  0  0
M  CHG  2  78   1  79   1
M  ISO  4  40 100  56 101  75 100  86 101
M  END
> <Batch ID>
0047

> <Smiles>
CNC(C)C(=O)NC(C(=O)N1Cc2cc([101O:1][101CH:1]3CCC(=C(C)C)N(Cc4cc([100NH:0][100C:0](=O)N5CCCC(n6nc(-c7ccc(Oc8ccc(F)cc8F)cc7)c(C(N)=O)c6N)C5)cc(F)c4C)C3)ccc2CC1C(=O)NC1CCCc2ccccc21)C(C)(C)C

> <Shape>
0.194

> <Color>
0.057

> <Negative vol penalty>
0.000

$$$$

  -OEChem-04042322263D

 87 96  0     1  0  0  0  0  0999 V2000
  -32.2610  -13.8654   20.5928 C   0  0  0  0  0  0  0  0  0  0  0  0
  -31.5188  -15.0288   20.7692 C   0  0  0  0  0  0  0  0  0  0  0  0
  -18.2148  -26.2913   21.6735 C   0  0  0  0  0  0  0  0  0  0  0  0
  -26.7841  -25.1217   18.1704 C   0  0  0  0  0  0  0  0  0  0  0  0
  -28.3960  -26.7846   18.8587 C   0  0  0  0  0  0  0  0  0  0  0  0
  -31.6340  -12.6997   20.1548 C   0  0  0  0  0  0  0  0  0  0  0  0
  -30.1493  -15.0274   20.5067 C   0  0  0  0  0  0  0  0  0  0  0  0
  -25.8292  -18.1985   23.4708 C   0  0  0  0  0  0  0  0  0  0  0  0
  -18.7119  -27.5618   21.9638 C   0  0  0  0  0  0  0  0  0  0  0  0
  -18.7895  -25.1658   22.2642 C   0  0  0  0  0  0  0  0  0  0  0  0
  -27.7368  -24.1204   18.3580 C   0  0  0  0  0  0  0  0  0  0  0  0
  -29.3488  -25.7832   19.0464 C   0  0  0  0  0  0  0  0  0  0  0  0
  -25.1837  -19.4002   23.1824 C   0  0  0  0  0  0  0  0  0  0  0  0
  -29.0710  -22.4056   20.9488 C   0  0  0  0  0  0  0  0  0  0  0  0
  -28.6722  -21.2485   21.6179 C   0  0  0  0  0  0  0  0  0  0  0  0
  -23.3531  -18.1741   22.2002 C   0  0  0  0  0  0  0  0  0  0  0  0
  -29.2370  -19.9297   19.6739 C   0  0  0  0  0  0  0  0  0  0  0  0
  -27.1137  -26.4538   18.4207 C   0  0  0  0  0  0  0  0  0  0  0  0
  -25.4644  -27.8150   17.0297 C   0  0  0  0  0  0  0  0  0  0  0  0
  -30.2544  -12.6814   19.8960 C   0  0  0  0  0  0  0  0  0  0  0  0
  -25.2455  -16.9739   23.1157 C   0  0  0  0  0  0  0  0  0  0  0  0
  -29.5036  -13.8606   20.0635 C   0  0  0  0  0  0  0  0  0  0  0  0
  -23.9920  -16.9583   22.4875 C   0  0  0  0  0  0  0  0  0  0  0  0
  -19.7836  -27.7069   22.8447 C   0  0  0  0  0  0  0  0  0  0  0  0
  -19.8612  -25.3109   23.1451 C   0  0  0  0  0  0  0  0  0  0  0  0
  -20.3583  -26.5815   23.4354 C   0  0  0  0  0  0  0  0  0  0  0  0
  -29.0192  -24.4512   18.7961 C   0  0  0  0  0  0  0  0  0  0  0  0
  -23.9468  -19.3882   22.5445 C   0  0  0  0  0  0  0  0  0  0  0  0
  -29.5528  -22.3248   19.6422 C   0  0  0  0  0  0  0  0  0  0  0  0
  -28.7552  -20.0106   20.9805 C   0  0  0  0  0  0  0  0  0  0  0  0
  -29.6358  -21.0868   19.0048 C   0  0  0  0  0  0  0  0  0  0  0  0
  -26.1301  -27.4887   18.2264 C   0  0  0  0  0  0  0  0  0  0  0  0
  -24.6394  -28.8593   17.3694 C   0  0  0  0  0  0  0  0  0  0  0  0
  -22.5407  -22.8777   24.0723 C   0  0  0  0  0  0  0  0  0  0  0  0
  -23.5640  -23.4435   24.7301 C   0  0  0  0  0  0  0  0  0  0  0  0
  -25.5813  -27.2268   15.7274 C   0  0  0  0  0  0  0  0  0  0  0  0
  -26.0601  -14.5730   21.1985 C   0  0  0  0  0  0  0  0  0  0  0  0
  -23.4238  -13.1760   22.4715 C   0  0  0  0  0  0  0  0  0  0  0  0
  -20.0724  -14.1847   23.3478 C   0  0  0  0  0  0  0  0  0  0  0  0
  -22.1729  -30.5903   22.5435 C   0  0  0  0  0  0  0  0  0  0  0  0
  -29.6296  -11.4098   19.3789 C   0  0  0  0  0  0  0  0  0  0  0  0
  -25.9423  -15.6856   23.4578 C   0  0  0  0  0  0  0  0  0  0  0  0
  -23.3134  -15.6696   22.1037 C   0  0  0  0  0  0  0  0  0  0  0  0
  -22.1785  -21.4218   24.2141 C   0  0  0  0  0  0  0  0  0  0  0  0
  -28.1067  -11.3938   19.4821 C   0  0  0  0  0  0  0  0  0  0  0  0
  -24.2977  -32.5172   20.4343 C   0  0  0  0  0  0  0  0  0  0  0  0
  -27.5231  -12.7072   18.9712 C   0  0  0  0  0  0  0  0  0  0  0  0
  -24.9482  -31.4764   19.5213 C   0  0  0  0  0  0  0  0  0  0  0  0
  -21.1843  -21.6131   21.8957 C   0  0  0  0  0  0  0  0  0  0  0  0
  -24.1019  -31.9816   21.8509 C   0  0  0  0  0  0  0  0  0  0  0  0
  -24.0216  -29.6624   21.0211 C   0  0  0  0  0  0  0  0  0  0  0  0
  -21.6921  -23.0516   21.8068 C   0  0  0  0  0  0  0  0  0  0  0  0
  -28.0115  -13.8923   19.8129 C   0  0  1  0  0  0  0  0  0  0  0  0
  -25.4936  -14.5146   22.5889 C   0  0  1  0  0  0  0  0  0  0  0  0
  -24.1885  -30.1370   19.5674 C   0  0  2  0  0  0  0  0  0  0  0  0
  -22.0277  -20.7608   22.8438 C   0  0  1  0  0  0  0  0  0  1  0  0
  -21.5075  -26.7371   24.3799 C   0  0  0  0  0  0  0  0  0  0  0  0
  -18.4901  -13.2695   25.0672 C   0  0  0  0  0  0  0  0  0  0  0  0
  -22.3437  -11.4982   20.1632 C   0  0  0  0  0  0  0  0  0  0  0  0
  -20.0411  -11.8376   21.0858 C   0  0  0  0  0  0  0  0  0  0  0  0
  -21.7608  -10.6400   22.4388 C   0  0  0  0  0  0  0  0  0  0  0  0
  -19.7408  -16.8352   24.6221 C   0  0  0  0  0  0  0  0  0  0  0  0
  -20.2968  -29.0787   23.1390 C   0  0  0  0  0  0  0  0  0  0  0  0
  -20.4609  -24.0844   23.7671 C   0  0  0  0  0  0  0  0  0  0  0  0
  -21.9566  -13.1401   22.1178 C   0  0  1  0  0  0  0  0  0  0  0  0
  -19.5103  -14.3513   24.7480 C   0  0  2  0  0  0  0  0  0  0  0  0
  -21.5419  -11.8013   21.4448 C   0  0  0  0  0  0  0  0  0  0  0  0
  -25.7601  -28.2630   19.2499 N   0  0  0  0  0  0  0  0  0  0  0  0
  -24.8530  -29.0863   18.6972 N   0  0  0  0  0  0  0  0  0  0  0  0
  -24.0376  -14.4365   22.4537 N   0  0  0  0  0  0  0  0  0  0  0  0
  -23.3736  -30.7108   21.8247 N   0  0  0  0  0  0  0  0  0  0  0  0
  -23.7595  -29.5963   16.6589 N   0  0  0  0  0  0  0  0  0  0  0  0
  -26.5312  -27.7511   14.8402 N   0  0  0  0  0  0  0  0  0  0  0  0
  -27.2887  -13.9547   21.0652 N   0  0  0  0  0  0  0  0  0  0  0  0
  -21.2326  -13.4396   23.3484 N   0  0  0  0  0  0  0  0  0  0  0  0
  -21.5432  -29.3545   22.4598 N   0  0  0  0  0  0  0  0  0  0  0  0
  -21.7860  -23.7063   23.1651 N   0  3  1  0  0  0  0  0  0  0  0  0
  -18.8465  -15.6785   24.8852 N   0  3  0  0  0  0  0  0  0  0  0  0
  -24.8534  -26.2753   15.3555 O   0  0  0  0  0  0  0  0  0  0  0  0
  -25.4287  -15.1360   20.3119 O   0  0  0  0  0  0  0  0  0  0  0  0
  -24.0022  -12.1254   22.7601 O   0  0  0  0  0  0  0  0  0  0  0  0
  -19.5339  -14.6641   22.3524 O   0  0  0  0  0  0  0  0  0  0  0  0
  -21.6944  -31.5171   23.2060 O   0  0  0  0  0  0  0  0  0  0  0  0
  -29.9491  -23.4743   18.9796 O   0  0  0  0  0  0  0  0  0  0  0  0
  -23.3149  -20.5597   22.2612 O   0  0  0  0  0  0  0  0  0  1  0  0
  -28.3737  -18.8993   21.6237 F   0  0  0  0  0  0  0  0  0  0  0  0
  -30.0989  -21.0028   17.7501 F   0  0  0  0  0  0  0  0  0  0  0  0
  1  2  1  0  0  0  0
  1  6  2  0  0  0  0
  2  7  2  0  0  0  0
  3  9  1  0  0  0  0
  3 10  2  0  0  0  0
  4 11  2  0  0  0  0
  4 18  1  0  0  0  0
  5 12  1  0  0  0  0
  5 18  2  0  0  0  0
  6 20  1  0  0  0  0
  7 22  1  0  0  0  0
  8 13  2  0  0  0  0
  8 21  1  0  0  0  0
  9 24  2  0  0  0  0
 10 25  1  0  0  0  0
 11 27  1  0  0  0  0
 12 27  2  0  0  0  0
 13 28  1  0  0  0  0
 14 15  2  0  0  0  0
 14 29  1  0  0  0  0
 15 30  1  0  0  0  0
 16 23  1  0  0  0  0
 16 28  2  0  0  0  0
 17 30  2  0  0  0  0
 17 31  1  0  0  0  0
 18 32  1  0  0  0  0
 19 32  1  0  0  0  0
 19 33  2  0  0  0  0
 19 36  1  0  0  0  0
 20 22  2  0  0  0  0
 20 41  1  0  0  0  0
 21 23  2  0  0  0  0
 21 42  1  0  0  0  0
 22 53  1  0  0  0  0
 23 43  1  0  0  0  0
 24 26  1  0  0  0  0
 24 63  1  0  0  0  0
 25 26  2  0  0  0  0
 25 64  1  0  0  0  0
 26 57  1  0  0  0  0
 27 84  1  0  0  0  0
 28 85  1  0  0  0  0
 29 31  2  0  0  0  0
 29 84  1  0  0  0  0
 30 86  1  0  0  0  0
 31 87  1  0  0  0  0
 32 68  2  0  0  0  0
 33 69  1  0  0  0  0
 33 72  1  0  0  0  0
 34 35  2  0  0  0  0
 34 44  1  0  0  0  0
 34 77  1  0  0  0  0
 36 73  1  0  0  0  0
 36 79  2  0  0  0  0
 37 54  1  0  0  0  0
 37 74  1  0  0  0  0
 37 80  2  0  0  0  0
 38 65  1  0  0  0  0
 38 70  1  0  0  0  0
 38 81  2  0  0  0  0
 39 66  1  0  0  0  0
 39 75  1  0  0  0  0
 39 82  2  0  0  0  0
 40 71  1  0  0  0  0
 40 76  1  0  0  0  0
 40 83  2  0  0  0  0
 41 45  1  0  0  0  0
 42 54  1  0  0  0  0
 43 70  1  0  0  0  0
 44 56  1  0  0  0  0
 45 47  1  0  0  0  0
 46 48  1  0  0  0  0
 46 50  1  0  0  0  0
 47 53  1  0  0  0  0
 48 55  1  0  0  0  0
 49 52  1  0  0  0  0
 49 56  1  0  0  0  0
 50 71  1  0  0  0  0
 51 55  1  0  0  0  0
 51 71  1  0  0  0  0
 52 77  1  0  0  0  0
 53 74  1  0  0  0  0
 54 70  1  0  0  0  0
 55 69  1  0  0  0  0
 56 85  1  0  0  0  0
 58 66  1  0  0  0  0
 59 67  1  0  0  0  0
 60 67  1  0  0  0  0
 61 67  1  0  0  0  0
 62 78  1  0  0  0  0
 63 76  1  0  0  0  0
 64 77  1  0  0  0  0
 65 67  1  0  0  0  0
 65 75  1  0  0  0  0
 66 78  1  0  0  0  0
 68 69  1  0  0  0  0
M  CHG  2  77   1  78   1
M  ISO  4  40 100  56 101  76 100  85 101
M  END
> <Batch ID>
0047

> <Smiles>
C=C1C[101CH:1]([101O:1]c2ccc3c(c2)CN(C(=O)C(NC(=O)C(C)NC)C(C)(C)C)C(C(=O)NC2CCCc4ccccc42)C3)CCN1Cc1cccc(C[100NH:0][100C:0](=O)N2CCCC(n3nc(-c4ccc(Oc5ccc(F)cc5F)cc4)c(C(N)=O)c3N)C2)c1C

> <Shape>
0.249

> <Color>
0.072

> <Negative vol penalty>
0.000

$$$$

  -OEChem-04042322263D

 83 91  0     1  0  0  0  0  0999 V2000
  -37.9259  -32.3573   16.7668 C   0  0  0  0  0  0  0  0  0  0  0  0
  -37.9670  -31.1227   17.4068 C   0  0  0  0  0  0  0  0  0  0  0  0
  -23.1019   -9.8340   19.9980 C   0  0  0  0  0  0  0  0  0  0  0  0
  -23.8232   -9.9443   22.3012 C   0  0  0  0  0  0  0  0  0  0  0  0
  -36.9012  -33.2574   17.0561 C   0  0  0  0  0  0  0  0  0  0  0  0
  -36.9840  -30.7880   18.3375 C   0  0  0  0  0  0  0  0  0  0  0  0
  -34.6227  -25.2308   19.3609 C   0  0  0  0  0  0  0  0  0  0  0  0
  -32.5903  -17.6452   23.3205 C   0  0  0  0  0  0  0  0  0  0  0  0
  -32.0048  -16.7265   22.4494 C   0  0  0  0  0  0  0  0  0  0  0  0
  -22.3610   -8.6876   20.2849 C   0  0  0  0  0  0  0  0  0  0  0  0
  -23.0822   -8.7979   22.5881 C   0  0  0  0  0  0  0  0  0  0  0  0
  -34.8915  -24.2605   20.3253 C   0  0  0  0  0  0  0  0  0  0  0  0
  -19.8493   -8.0047   23.1710 C   0  0  0  0  0  0  0  0  0  0  0  0
  -19.0731   -8.0098   24.3298 C   0  0  0  0  0  0  0  0  0  0  0  0
  -33.0577  -25.0855   21.6578 C   0  0  0  0  0  0  0  0  0  0  0  0
  -30.4063  -18.5268   23.8588 C   0  0  0  0  0  0  0  0  0  0  0  0
  -20.3137   -6.1141   25.1692 C   0  0  0  0  0  0  0  0  0  0  0  0
  -23.8331  -10.4624   21.0061 C   0  0  0  0  0  0  0  0  0  0  0  0
  -24.1615  -12.9823   20.7835 C   0  0  0  0  0  0  0  0  0  0  0  0
  -35.8997  -32.9297   17.9837 C   0  0  0  0  0  0  0  0  0  0  0  0
  -33.5745  -26.1442   19.5432 C   0  0  0  0  0  0  0  0  0  0  0  0
  -35.9457  -31.6852   18.6405 C   0  0  0  0  0  0  0  0  0  0  0  0
  -32.7761  -26.0648   20.6931 C   0  0  0  0  0  0  0  0  0  0  0  0
  -31.7910  -18.5453   24.0252 C   0  0  0  0  0  0  0  0  0  0  0  0
  -29.8207  -17.6080   22.9877 C   0  0  0  0  0  0  0  0  0  0  0  0
  -30.6200  -16.7079   22.2830 C   0  0  0  0  0  0  0  0  0  0  0  0
  -22.3511   -8.1695   21.5800 C   0  0  0  0  0  0  0  0  0  0  0  0
  -34.1108  -24.1896   21.4753 C   0  0  0  0  0  0  0  0  0  0  0  0
  -20.8577   -7.0543   23.0111 C   0  0  0  0  0  0  0  0  0  0  0  0
  -19.3053   -7.0645   25.3289 C   0  0  0  0  0  0  0  0  0  0  0  0
  -21.0899   -6.1090   24.0102 C   0  0  0  0  0  0  0  0  0  0  0  0
  -24.5991  -11.6463   20.7103 C   0  0  0  0  0  0  0  0  0  0  0  0
  -25.2550  -13.7230   20.4065 C   0  0  0  0  0  0  0  0  0  0  0  0
  -22.8811  -13.5070   21.1589 C   0  0  0  0  0  0  0  0  0  0  0  0
  -33.3752  -29.3049   19.8152 C   0  0  0  0  0  0  0  0  0  0  0  0
  -30.1854  -28.7184   19.7574 C   0  0  0  0  0  0  0  0  0  0  0  0
  -33.5022  -21.3440   23.6387 C   0  0  0  0  0  0  0  0  0  0  0  0
  -27.6346  -26.5151   20.2922 C   0  0  0  0  0  0  0  0  0  0  0  0
  -30.7111  -14.8122   20.6264 C   0  0  0  0  0  0  0  0  0  0  0  0
  -34.8387  -33.9542   18.2987 C   0  0  0  0  0  0  0  0  0  0  0  0
  -33.2806  -27.1679   18.4810 C   0  0  0  0  0  0  0  0  0  0  0  0
  -31.6262  -27.0090   20.9269 C   0  0  0  0  0  0  0  0  0  0  0  0
  -33.6256  -33.3727   19.0202 C   0  0  0  0  0  0  0  0  0  0  0  0
  -29.6513  -12.2917   18.3458 C   0  0  0  0  0  0  0  0  0  0  0  0
  -34.0689  -32.4641   20.1625 C   0  0  0  0  0  0  0  0  0  0  0  0
  -28.2064  -12.0090   18.7637 C   0  0  0  0  0  0  0  0  0  0  0  0
  -30.5447  -12.5780   19.5515 C   0  0  0  0  0  0  0  0  0  0  0  0
  -28.6104  -13.3479   20.8687 C   0  0  0  0  0  0  0  0  0  0  0  0
  -34.8836  -31.2757   19.6377 C   0  0  1  0  0  0  0  0  0  0  0  0
  -32.5121  -28.3747   19.0106 C   0  0  1  0  0  0  0  0  0  0  0  0
  -27.6586  -13.1178   19.6835 C   0  0  2  0  0  0  0  0  0  0  0  0
  -28.3350  -17.6128   22.8267 C   0  0  0  0  0  0  0  0  0  0  0  0
  -25.1335  -26.3358   20.1945 C   0  0  0  0  0  0  0  0  0  0  0  0
  -29.9722  -30.3116   22.3509 C   0  0  0  0  0  0  0  0  0  0  0  0
  -27.7019  -29.3139   22.6955 C   0  0  0  0  0  0  0  0  0  0  0  0
  -28.1421  -30.7500   20.7038 C   0  0  0  0  0  0  0  0  0  0  0  0
  -27.7521  -24.3665   18.2604 C   0  0  0  0  0  0  0  0  0  0  0  0
  -32.4216  -19.5358   24.9609 C   0  0  0  0  0  0  0  0  0  0  0  0
  -33.2654  -22.7685   23.1846 C   0  0  0  0  0  0  0  0  0  1  0  0
  -29.1331  -28.4260   20.7996 C   0  0  1  0  0  0  0  0  0  0  0  0
  -26.4381  -26.1332   19.4397 C   0  0  2  0  0  0  0  0  0  0  0  0
  -28.7601  -29.6837   21.6343 C   0  0  0  0  0  0  0  0  0  0  0  0
  -25.8714  -11.5413   20.3174 N   0  0  0  0  0  0  0  0  0  0  0  0
  -26.2426  -12.8207   20.1403 N   0  0  0  0  0  0  0  0  0  0  0  0
  -31.3827  -27.9963   19.8623 N   0  0  0  0  0  0  0  0  0  0  0  0
  -29.9648  -13.6416   20.3744 N   0  0  0  0  0  0  0  0  0  0  0  0
  -25.4585  -15.0515   20.2799 N   0  0  0  0  0  0  0  0  0  0  0  0
  -21.8692  -12.6062   21.5181 N   0  0  0  0  0  0  0  0  0  0  0  0
  -30.0444  -15.7670   21.3935 N   0  0  0  0  0  0  0  0  0  0  0  0
  -34.0080  -30.2767   19.0637 N   0  0  0  0  0  0  0  0  0  0  0  0
  -32.4475  -20.8674   24.4014 N   0  0  0  0  0  0  0  0  0  0  0  0
  -28.0095  -27.8263   20.0882 N   0  0  0  0  0  0  0  0  0  0  0  0
  -26.5280  -24.7026   19.0321 N   0  3  0  0  0  0  0  0  0  0  0  0
  -22.6364  -14.7373   21.1594 O   0  0  0  0  0  0  0  0  0  0  0  0
  -33.4596  -29.1532   21.0283 O   0  0  0  0  0  0  0  0  0  0  0  0
  -29.9509  -29.5514   18.8784 O   0  0  0  0  0  0  0  0  0  0  0  0
  -34.5166  -20.7148   23.3507 O   0  0  0  0  0  0  0  0  0  0  0  0
  -28.1797  -25.7300   21.0649 O   0  0  0  0  0  0  0  0  0  0  0  0
  -31.8468  -14.9684   20.1706 O   0  0  0  0  0  0  0  0  0  0  0  0
  -21.6280   -7.0510   21.8603 O   0  0  0  0  0  0  0  0  0  0  0  0
  -34.3715  -23.2439   22.4185 O   0  0  0  0  0  0  0  0  0  1  0  0
  -18.5608   -7.0705   26.4424 F   0  0  0  0  0  0  0  0  0  0  0  0
  -22.0581   -5.1942   23.8629 F   0  0  0  0  0  0  0  0  0  0  0  0
  1  2  1  0  0  0  0
  1  5  2  0  0  0  0
  2  6  2  0  0  0  0
  3 10  2  0  0  0  0
  3 18  1  0  0  0  0
  4 11  1  0  0  0  0
  4 18  2  0  0  0  0
  5 20  1  0  0  0  0
  6 22  1  0  0  0  0
  7 12  2  0  0  0  0
  7 21  1  0  0  0  0
  8  9  2  0  0  0  0
  8 24  1  0  0  0  0
  9 26  1  0  0  0  0
 10 27  1  0  0  0  0
 11 27  2  0  0  0  0
 12 28  1  0  0  0  0
 13 14  2  0  0  0  0
 13 29  1  0  0  0  0
 14 30  1  0  0  0  0
 15 23  1  0  0  0  0
 15 28  2  0  0  0  0
 16 24  2  0  0  0  0
 16 25  1  0  0  0  0
 17 30  2  0  0  0  0
 17 31  1  0  0  0  0
 18 32  1  0  0  0  0
 19 32  1  0  0  0  0
 19 33  2  0  0  0  0
 19 34  1  0  0  0  0
 20 22  2  0  0  0  0
 20 40  1  0  0  0  0
 21 23  2  0  0  0  0
 21 41  1  0  0  0  0
 22 49  1  0  0  0  0
 23 42  1  0  0  0  0
 24 58  1  0  0  0  0
 25 26  2  0  0  0  0
 25 52  1  0  0  0  0
 26 69  1  0  0  0  0
 27 80  1  0  0  0  0
 28 81  1  0  0  0  0
 29 31  2  0  0  0  0
 29 80  1  0  0  0  0
 30 82  1  0  0  0  0
 31 83  1  0  0  0  0
 32 63  2  0  0  0  0
 33 64  1  0  0  0  0
 33 67  1  0  0  0  0
 34 68  1  0  0  0  0
 34 74  2  0  0  0  0
 35 50  1  0  0  0  0
 35 70  1  0  0  0  0
 35 75  2  0  0  0  0
 36 60  1  0  0  0  0
 36 65  1  0  0  0  0
 36 76  2  0  0  0  0
 37 59  1  0  0  0  0
 37 71  1  0  0  0  0
 37 77  2  0  0  0  0
 38 61  1  0  0  0  0
 38 72  1  0  0  0  0
 38 78  2  0  0  0  0
 39 66  1  0  0  0  0
 39 69  1  0  0  0  0
 39 79  2  0  0  0  0
 40 43  1  0  0  0  0
 41 50  1  0  0  0  0
 42 65  1  0  0  0  0
 43 45  1  0  0  0  0
 44 46  1  0  0  0  0
 44 47  1  0  0  0  0
 45 49  1  0  0  0  0
 46 51  1  0  0  0  0
 47 66  1  0  0  0  0
 48 51  1  0  0  0  0
 48 66  1  0  0  0  0
 49 70  1  0  0  0  0
 50 65  1  0  0  0  0
 51 64  1  0  0  0  0
 53 61  1  0  0  0  0
 54 62  1  0  0  0  0
 55 62  1  0  0  0  0
 56 62  1  0  0  0  0
 57 73  1  0  0  0  0
 58 71  1  0  0  0  0
 59 81  1  0  0  0  0
 60 62  1  0  0  0  0
 60 72  1  0  0  0  0
 61 73  1  0  0  0  0
 63 64  1  0  0  0  0
M  CHG  1  73   1
M  ISO  4  39 100  59 101  69 100  81 101
M  END
> <Batch ID>
0047

> <Smiles>
CNC(C)C(=O)NC(C(=O)N1Cc2cc([101O:1][101CH2:1]C(=O)NCc3ccc([100NH:0][100C:0](=O)N4CCCC(n5nc(-c6ccc(Oc7ccc(F)cc7F)cc6)c(C(N)=O)c5N)C4)c(C)c3)ccc2CC1C(=O)NC1CCCc2ccccc21)C(C)(C)C

> <Shape>
0.225

> <Color>
0.193

> <Negative vol penalty>
0.000

$$$$

  -OEChem-04042322263D

 87 96  0     1  0  0  0  0  0999 V2000
  -27.8243  -37.7528   21.8925 C   0  0  0  0  0  0  0  0  0  0  0  0
  -28.2644  -36.6663   21.1433 C   0  0  0  0  0  0  0  0  0  0  0  0
  -24.4653   -6.6841   19.6271 C   0  0  0  0  0  0  0  0  0  0  0  0
  -26.2421   -8.0789   20.4841 C   0  0  0  0  0  0  0  0  0  0  0  0
  -27.1035  -37.5420   23.0672 C   0  0  0  0  0  0  0  0  0  0  0  0
  -27.9848  -35.3682   21.5691 C   0  0  0  0  0  0  0  0  0  0  0  0
  -26.5896  -28.8285   18.9995 C   0  0  0  0  0  0  0  0  0  0  0  0
  -26.8353  -17.5167   19.4566 C   0  0  0  0  0  0  0  0  0  0  0  0
  -25.3847   -5.6648   19.3798 C   0  0  0  0  0  0  0  0  0  0  0  0
  -27.1616   -7.0595   20.2368 C   0  0  0  0  0  0  0  0  0  0  0  0
  -27.0221  -27.5087   19.1210 C   0  0  0  0  0  0  0  0  0  0  0  0
  -27.0044   -3.2864   21.1554 C   0  0  0  0  0  0  0  0  0  0  0  0
  -26.6533   -1.9907   21.5343 C   0  0  0  0  0  0  0  0  0  0  0  0
  -27.7618  -18.5477   19.3010 C   0  0  0  0  0  0  0  0  0  0  0  0
  -25.7008  -27.2665   21.1247 C   0  0  0  0  0  0  0  0  0  0  0  0
  -26.8555   -1.2646   19.2388 C   0  0  0  0  0  0  0  0  0  0  0  0
  -24.8940   -7.8912   20.1792 C   0  0  0  0  0  0  0  0  0  0  0  0
  -22.8192   -8.8890   21.2780 C   0  0  0  0  0  0  0  0  0  0  0  0
  -26.8067  -36.2408   23.5025 C   0  0  0  0  0  0  0  0  0  0  0  0
  -25.7165  -29.3816   19.9473 C   0  0  0  0  0  0  0  0  0  0  0  0
  -27.2606  -35.1398   22.7515 C   0  0  0  0  0  0  0  0  0  0  0  0
  -25.2566  -28.5928   21.0115 C   0  0  0  0  0  0  0  0  0  0  0  0
  -25.9981  -20.0198   18.5530 C   0  0  0  0  0  0  0  0  0  0  0  0
  -25.4902  -17.7372   19.1603 C   0  0  0  0  0  0  0  0  0  0  0  0
  -26.7328   -5.8524   19.6847 C   0  0  0  0  0  0  0  0  0  0  0  0
  -26.5800  -26.7284   20.1853 C   0  0  0  0  0  0  0  0  0  0  0  0
  -27.2810   -3.5712   19.8182 C   0  0  0  0  0  0  0  0  0  0  0  0
  -26.5789   -0.9799   20.5760 C   0  0  0  0  0  0  0  0  0  0  0  0
  -27.2066   -2.5603   18.8599 C   0  0  0  0  0  0  0  0  0  0  0  0
  -27.3432  -19.7993   18.8493 C   0  0  0  0  0  0  0  0  0  0  0  0
  -25.0716  -18.9887   18.7086 C   0  0  0  0  0  0  0  0  0  0  0  0
  -23.9448   -8.9448   20.4344 C   0  0  0  0  0  0  0  0  0  0  0  0
  -22.2512  -10.1353   21.1756 C   0  0  0  0  0  0  0  0  0  0  0  0
  -26.2460  -23.5248   19.0912 C   0  0  0  0  0  0  0  0  0  0  0  0
  -22.3307   -7.8072   22.0823 C   0  0  0  0  0  0  0  0  0  0  0  0
  -25.8829  -31.7917   22.0131 C   0  0  0  0  0  0  0  0  0  0  0  0
  -22.7580  -31.0737   22.5050 C   0  0  0  0  0  0  0  0  0  0  0  0
  -20.7645  -28.0857   22.8445 C   0  0  0  0  0  0  0  0  0  0  0  0
  -24.8597  -15.3671   19.7682 C   0  0  0  0  0  0  0  0  0  0  0  0
  -26.0654  -36.0621   24.8038 C   0  0  0  0  0  0  0  0  0  0  0  0
  -25.2383  -30.7986   19.7873 C   0  0  0  0  0  0  0  0  0  0  0  0
  -24.3030  -29.1329   22.0446 C   0  0  0  0  0  0  0  0  0  0  0  0
  -25.4880  -34.6611   24.9883 C   0  0  0  0  0  0  0  0  0  0  0  0
  -25.0735  -22.4634   21.5852 C   0  0  0  0  0  0  0  0  0  0  0  0
  -22.3502  -13.4153   17.6194 C   0  0  0  0  0  0  0  0  0  0  0  0
  -26.5295  -33.6037   24.6361 C   0  0  0  0  0  0  0  0  0  0  0  0
  -26.0758  -23.6161   21.5746 C   0  0  0  0  0  0  0  0  0  0  0  0
  -21.9120  -12.3625   18.6348 C   0  0  0  0  0  0  0  0  0  0  0  0
  -24.5163  -22.1395   20.2019 C   0  0  0  0  0  0  0  0  0  0  0  0
  -22.9055  -14.6665   18.2880 C   0  0  0  0  0  0  0  0  0  0  0  0
  -24.1954  -12.9758   19.6046 C   0  0  0  0  0  0  0  0  0  0  0  0
  -26.9558  -33.7170   23.1675 C   0  0  1  0  0  0  0  0  0  0  0  0
  -26.0059  -24.4322   20.2902 C   0  0  1  0  0  0  0  0  0  1  0  0
  -24.7539  -31.4171   21.0951 C   0  0  1  0  0  0  0  0  0  0  0  0
  -22.8533  -12.2694   19.8520 C   0  0  2  0  0  0  0  0  0  0  0  0
  -18.3365  -27.6803   22.3569 C   0  0  0  0  0  0  0  0  0  0  0  0
  -22.3565  -31.7093   25.4622 C   0  0  0  0  0  0  0  0  0  0  0  0
  -20.6150  -29.9122   25.5403 C   0  0  0  0  0  0  0  0  0  0  0  0
  -20.2909  -31.8973   24.0648 C   0  0  0  0  0  0  0  0  0  0  0  0
  -21.3853  -25.8259   21.0370 C   0  0  0  0  0  0  0  0  0  0  0  0
  -25.5534  -21.3695   18.0686 C   0  0  0  0  0  0  0  0  0  0  0  0
  -22.0065  -30.1508   23.4337 C   0  0  1  0  0  0  0  0  0  0  0  0
  -19.7610  -27.5440   21.8424 C   0  0  2  0  0  0  0  0  0  0  0  0
  -21.3437  -30.9115   24.6167 C   0  0  0  0  0  0  0  0  0  0  0  0
  -24.0852  -10.1326   19.8398 N   0  0  0  0  0  0  0  0  0  0  0  0
  -23.0402  -10.8346   20.3104 N   0  0  0  0  0  0  0  0  0  0  0  0
  -25.5009  -22.3438   19.1456 N   0  0  0  0  0  0  0  0  0  0  0  0
  -23.8690  -30.5260   21.8481 N   0  0  0  0  0  0  0  0  0  0  0  0
  -23.9951  -14.3812   19.2328 N   0  0  0  0  0  0  0  0  0  0  0  0
  -21.1588  -10.6904   21.7422 N   0  0  0  0  0  0  0  0  0  0  0  0
  -22.7912   -7.6944   23.4012 N   0  0  0  0  0  0  0  0  0  0  0  0
  -24.5801  -16.6638   19.3289 N   0  0  0  0  0  0  0  0  0  0  0  0
  -25.9482  -33.1412   22.3029 N   0  0  0  0  0  0  0  0  0  0  0  0
  -21.0676  -29.4084   22.5997 N   0  0  0  0  0  0  0  0  0  0  0  0
  -20.0268  -26.1031   21.5705 N   0  3  0  0  0  0  0  0  0  0  0  0
  -27.0132  -23.8349   18.1816 O   0  0  0  0  0  0  0  0  0  0  0  0
  -21.5227   -6.9561   21.6392 O   0  0  0  0  0  0  0  0  0  0  0  0
  -26.6379  -30.9206   22.4289 O   0  0  0  0  0  0  0  0  0  0  0  0
  -22.3693  -32.2356   22.3621 O   0  0  0  0  0  0  0  0  0  0  0  0
  -21.2299  -27.4047   23.7556 O   0  0  0  0  0  0  0  0  0  0  0  0
  -25.7606  -15.0784   20.5587 O   0  0  0  0  0  0  0  0  0  0  0  0
  -27.6302   -4.8579   19.4437 O   0  0  0  0  0  0  0  0  0  0  0  0
  -27.0011  -25.4400   20.3066 O   0  0  0  0  0  0  0  0  0  1  0  0
  -26.2432    0.2646   20.9403 F   0  0  0  0  0  0  0  0  0  0  0  0
  -27.4724   -2.8276   17.5740 F   0  0  0  0  0  0  0  0  0  0  0  0
  -28.5248  -21.0458   18.6695 Cl  0  0  0  0  0  0  0  0  0  0  0  0
  -23.3979  -19.2626   18.3431 Cl  0  0  0  0  0  0  0  0  0  0  0  0
  1  2  1  0  0  0  0
  1  5  2  0  0  0  0
  2  6  2  0  0  0  0
  3  9  2  0  0  0  0
  3 17  1  0  0  0  0
  4 10  1  0  0  0  0
  4 17  2  0  0  0  0
  5 19  1  0  0  0  0
  6 21  1  0  0  0  0
  7 11  2  0  0  0  0
  7 20  1  0  0  0  0
  8 14  1  0  0  0  0
  8 24  2  0  0  0  0
  9 25  1  0  0  0  0
 10 25  2  0  0  0  0
 11 26  1  0  0  0  0
 12 13  2  0  0  0  0
 12 27  1  0  0  0  0
 13 28  1  0  0  0  0
 14 30  2  0  0  0  0
 15 22  1  0  0  0  0
 15 26  2  0  0  0  0
 16 28  2  0  0  0  0
 16 29  1  0  0  0  0
 17 32  1  0  0  0  0
 18 32  1  0  0  0  0
 18 33  2  0  0  0  0
 18 35  1  0  0  0  0
 19 21  2  0  0  0  0
 19 40  1  0  0  0  0
 20 22  2  0  0  0  0
 20 41  1  0  0  0  0
 21 52  1  0  0  0  0
 22 42  1  0  0  0  0
 23 30  1  0  0  0  0
 23 31  2  0  0  0  0
 23 61  1  0  0  0  0
 24 31  1  0  0  0  0
 24 72  1  0  0  0  0
 25 82  1  0  0  0  0
 26 83  1  0  0  0  0
 27 29  2  0  0  0  0
 27 82  1  0  0  0  0
 28 84  1  0  0  0  0
 29 85  1  0  0  0  0
 30 86  1  0  0  0  0
 31 87  1  0  0  0  0
 32 65  2  0  0  0  0
 33 66  1  0  0  0  0
 33 70  1  0  0  0  0
 34 53  1  0  0  0  0
 34 67  1  0  0  0  0
 34 76  2  0  0  0  0
 35 71  1  0  0  0  0
 35 77  2  0  0  0  0
 36 54  1  0  0  0  0
 36 73  1  0  0  0  0
 36 78  2  0  0  0  0
 37 62  1  0  0  0  0
 37 68  1  0  0  0  0
 37 79  2  0  0  0  0
 38 63  1  0  0  0  0
 38 74  1  0  0  0  0
 38 80  2  0  0  0  0
 39 69  1  0  0  0  0
 39 72  1  0  0  0  0
 39 81  2  0  0  0  0
 40 43  1  0  0  0  0
 41 54  1  0  0  0  0
 42 68  1  0  0  0  0
 43 46  1  0  0  0  0
 44 47  1  0  0  0  0
 44 49  1  0  0  0  0
 45 48  1  0  0  0  0
 45 50  1  0  0  0  0
 46 52  1  0  0  0  0
 47 53  1  0  0  0  0
 48 55  1  0  0  0  0
 49 67  1  0  0  0  0
 50 69  1  0  0  0  0
 51 55  1  0  0  0  0
 51 69  1  0  0  0  0
 52 73  1  0  0  0  0
 53 83  1  0  0  0  0
 54 68  1  0  0  0  0
 55 66  1  0  0  0  0
 56 63  1  0  0  0  0
 57 64  1  0  0  0  0
 58 64  1  0  0  0  0
 59 64  1  0  0  0  0
 60 75  1  0  0  0  0
 61 67  1  0  0  0  0
 62 64  1  0  0  0  0
 62 74  1  0  0  0  0
 63 75  1  0  0  0  0
 65 66  1  0  0  0  0
M  CHG  1  75   1
M  ISO  4  39 100  53 101  72 100  83 101
M  END
> <Batch ID>
0047

> <Smiles>
CNC(C)C(=O)NC(C(=O)N1Cc2cc([101O:1][101CH:1]3CCCN(Cc4c(Cl)ccc([100NH:0][100C:0](=O)N5CCCC(n6nc(-c7ccc(Oc8ccc(F)cc8F)cc7)c(C(N)=O)c6N)C5)c4Cl)C3=O)ccc2CC1C(=O)NC1CCCc2ccccc21)C(C)(C)C

> <Shape>
0.226

> <Color>
0.102

> <Negative vol penalty>
0.000

$$$$

  -OEChem-04042322263D

 87 96  0     1  0  0  0  0  0999 V2000
  -30.4988  -25.1560   17.5773 C   0  0  0  0  0  0  0  0  0  0  0  0
  -29.1117  -25.1227   17.6787 C   0  0  0  0  0  0  0  0  0  0  0  0
  -23.7538  -25.8744   23.4897 C   0  0  0  0  0  0  0  0  0  0  0  0
  -27.1104  -15.2483   18.9251 C   0  0  0  0  0  0  0  0  0  0  0  0
  -25.5698  -15.8383   20.6902 C   0  0  0  0  0  0  0  0  0  0  0  0
  -31.2594  -25.6987   18.6121 C   0  0  0  0  0  0  0  0  0  0  0  0
  -28.4845  -25.6312   18.8156 C   0  0  0  0  0  0  0  0  0  0  0  0
  -23.0853  -28.5109   19.0643 C   0  0  0  0  0  0  0  0  0  0  0  0
  -22.4303  -25.4344   23.5002 C   0  0  0  0  0  0  0  0  0  0  0  0
  -24.7955  -24.9500   23.4100 C   0  0  0  0  0  0  0  0  0  0  0  0
  -26.9435  -13.8977   19.2308 C   0  0  0  0  0  0  0  0  0  0  0  0
  -25.4029  -14.4876   20.9959 C   0  0  0  0  0  0  0  0  0  0  0  0
  -21.8034  -28.0738   19.3952 C   0  0  0  0  0  0  0  0  0  0  0  0
  -27.1986  -10.3124   19.7826 C   0  0  0  0  0  0  0  0  0  0  0  0
  -28.3413   -9.5154   19.8507 C   0  0  0  0  0  0  0  0  0  0  0  0
  -22.1232  -28.8636   21.6520 C   0  0  0  0  0  0  0  0  0  0  0  0
  -29.2102  -10.9124   21.6201 C   0  0  0  0  0  0  0  0  0  0  0  0
  -26.4236  -16.2187   19.6548 C   0  0  0  0  0  0  0  0  0  0  0  0
  -26.3163  -18.2501   18.1154 C   0  0  0  0  0  0  0  0  0  0  0  0
  -30.6407  -26.2229   19.7580 C   0  0  0  0  0  0  0  0  0  0  0  0
  -23.9012  -29.1189   20.0292 C   0  0  0  0  0  0  0  0  0  0  0  0
  -29.2376  -26.1802   19.8673 C   0  0  0  0  0  0  0  0  0  0  0  0
  -23.4141  -29.3099   21.3301 C   0  0  0  0  0  0  0  0  0  0  0  0
  -22.1483  -24.0700   23.4313 C   0  0  0  0  0  0  0  0  0  0  0  0
  -23.1899  -23.1457   23.3517 C   0  0  0  0  0  0  0  0  0  0  0  0
  -24.5135  -23.5857   23.3411 C   0  0  0  0  0  0  0  0  0  0  0  0
  -26.0897  -13.5173   20.2662 C   0  0  0  0  0  0  0  0  0  0  0  0
  -21.3233  -28.2475   20.6899 C   0  0  0  0  0  0  0  0  0  0  0  0
  -27.0618  -11.4095   20.6331 C   0  0  0  0  0  0  0  0  0  0  0  0
  -29.3470   -9.8153   20.7695 C   0  0  0  0  0  0  0  0  0  0  0  0
  -28.0675  -11.7095   21.5518 C   0  0  0  0  0  0  0  0  0  0  0  0
  -26.5960  -17.6141   19.3398 C   0  0  0  0  0  0  0  0  0  0  0  0
  -26.6477  -19.5658   18.3284 C   0  0  0  0  0  0  0  0  0  0  0  0
  -19.3429  -25.4224   22.4562 C   0  0  0  0  0  0  0  0  0  0  0  0
  -25.8026  -17.7006   16.8948 C   0  0  0  0  0  0  0  0  0  0  0  0
  -26.7079  -28.4276   21.3514 C   0  0  0  0  0  0  0  0  0  0  0  0
  -26.3377  -31.3417   22.7274 C   0  0  0  0  0  0  0  0  0  0  0  0
  -24.2206  -33.8178   23.7438 C   0  0  0  0  0  0  0  0  0  0  0  0
  -26.9506  -22.9559   23.2396 C   0  0  0  0  0  0  0  0  0  0  0  0
  -31.5072  -26.7563   20.8712 C   0  0  0  0  0  0  0  0  0  0  0  0
  -25.2715  -29.6090   19.6493 C   0  0  0  0  0  0  0  0  0  0  0  0
  -24.2427  -29.9752   22.3974 C   0  0  0  0  0  0  0  0  0  0  0  0
  -30.7457  -27.6148   21.8778 C   0  0  0  0  0  0  0  0  0  0  0  0
  -18.9086  -23.6662   20.0922 C   0  0  0  0  0  0  0  0  0  0  0  0
  -29.5828  -22.3145   20.9293 C   0  0  0  0  0  0  0  0  0  0  0  0
  -29.4428  -26.9330   22.2832 C   0  0  0  0  0  0  0  0  0  0  0  0
  -17.9274  -24.7449   20.5261 C   0  0  0  0  0  0  0  0  0  0  0  0
  -29.0874  -21.0979   20.1440 C   0  0  0  0  0  0  0  0  0  0  0  0
  -20.0838  -23.4858   21.0492 C   0  0  0  0  0  0  0  0  0  0  0  0
  -29.1783  -22.2428   22.4007 C   0  0  0  0  0  0  0  0  0  0  0  0
  -27.2507  -20.8088   21.8557 C   0  0  0  0  0  0  0  0  0  0  0  0
  -28.5192  -26.7445   21.0737 C   0  0  1  0  0  0  0  0  0  0  0  0
  -18.6188  -25.9170   21.2143 C   0  0  2  0  0  0  0  0  0  0  0  0
  -26.2081  -29.7511   20.8452 C   0  0  1  0  0  0  0  0  0  0  0  0
  -27.5780  -20.8676   20.3547 C   0  0  2  0  0  0  0  0  0  0  0  0
  -22.8824  -21.6828   23.2778 C   0  0  0  0  0  0  0  0  0  0  0  0
  -24.2087  -36.0606   24.8696 C   0  0  0  0  0  0  0  0  0  0  0  0
  -26.7950  -29.9881   25.4234 C   0  0  0  0  0  0  0  0  0  0  0  0
  -25.8472  -32.0250   26.5283 C   0  0  0  0  0  0  0  0  0  0  0  0
  -27.9272  -32.2027   25.1627 C   0  0  0  0  0  0  0  0  0  0  0  0
  -23.0372  -35.1322   21.3708 C   0  0  0  0  0  0  0  0  0  0  0  0
  -20.7149  -23.6236   23.4444 C   0  0  0  0  0  0  0  0  0  0  0  0
  -19.5654  -26.6927   20.3046 C   0  0  0  0  0  0  0  0  0  1  0  0
  -25.7089  -31.8499   24.0022 C   0  0  1  0  0  0  0  0  0  0  0  0
  -24.2586  -35.3218   23.5413 C   0  0  2  0  0  0  0  0  0  0  0  0
  -26.5544  -31.5021   25.2598 C   0  0  0  0  0  0  0  0  0  0  0  0
  -27.0689  -18.4564   20.2622 N   0  0  0  0  0  0  0  0  0  0  0  0
  -27.0890  -19.6352   19.6170 N   0  0  0  0  0  0  0  0  0  0  0  0
  -19.9613  -24.1787   22.3296 N   0  0  0  0  0  0  0  0  0  0  0  0
  -25.5783  -30.4315   21.9786 N   0  0  0  0  0  0  0  0  0  0  0  0
  -27.7348  -22.0276   22.5227 N   0  0  0  0  0  0  0  0  0  0  0  0
  -26.6020  -20.6586   17.5371 N   0  0  0  0  0  0  0  0  0  0  0  0
  -24.4140  -17.6725   16.7070 N   0  0  0  0  0  0  0  0  0  0  0  0
  -25.5871  -22.6645   23.2603 N   0  0  0  0  0  0  0  0  0  0  0  0
  -27.8663  -27.9915   20.7372 N   0  0  0  0  0  0  0  0  0  0  0  0
  -25.4881  -33.2788   23.8071 N   0  0  0  0  0  0  0  0  0  0  0  0
  -23.0997  -35.7626   22.7145 N   0  3  0  0  0  0  0  0  0  0  0  0
  -19.3683  -26.1184   23.4730 O   0  0  0  0  0  0  0  0  0  0  0  0
  -26.5522  -17.2329   16.0043 O   0  0  0  0  0  0  0  0  0  0  0  0
  -26.0892  -27.8459   22.2349 O   0  0  0  0  0  0  0  0  0  0  0  0
  -27.4584  -31.7432   22.4040 O   0  0  0  0  0  0  0  0  0  0  0  0
  -23.1714  -33.1851   23.8403 O   0  0  0  0  0  0  0  0  0  0  0  0
  -27.4481  -23.9518   23.7715 O   0  0  0  0  0  0  0  0  0  0  0  0
  -25.9264  -12.1995   20.5647 O   0  0  0  0  0  0  0  0  0  0  0  0
  -20.0727  -27.8211   21.0158 O   0  0  0  0  0  0  0  0  0  1  0  0
  -30.4436   -9.0489   20.8359 F   0  0  0  0  0  0  0  0  0  0  0  0
  -27.9412  -12.7614   22.3723 F   0  0  0  0  0  0  0  0  0  0  0  0
  1  2  1  0  0  0  0
  1  6  2  0  0  0  0
  2  7  2  0  0  0  0
  3  9  2  0  0  0  0
  3 10  1  0  0  0  0
  4 11  2  0  0  0  0
  4 18  1  0  0  0  0
  5 12  1  0  0  0  0
  5 18  2  0  0  0  0
  6 20  1  0  0  0  0
  7 22  1  0  0  0  0
  8 13  2  0  0  0  0
  8 21  1  0  0  0  0
  9 24  1  0  0  0  0
 10 26  2  0  0  0  0
 11 27  1  0  0  0  0
 12 27  2  0  0  0  0
 13 28  1  0  0  0  0
 14 15  2  0  0  0  0
 14 29  1  0  0  0  0
 15 30  1  0  0  0  0
 16 23  1  0  0  0  0
 16 28  2  0  0  0  0
 17 30  2  0  0  0  0
 17 31  1  0  0  0  0
 18 32  1  0  0  0  0
 19 32  1  0  0  0  0
 19 33  2  0  0  0  0
 19 35  1  0  0  0  0
 20 22  2  0  0  0  0
 20 40  1  0  0  0  0
 21 23  2  0  0  0  0
 21 41  1  0  0  0  0
 22 52  1  0  0  0  0
 23 42  1  0  0  0  0
 24 25  2  0  0  0  0
 24 62  1  0  0  0  0
 25 26  1  0  0  0  0
 25 56  1  0  0  0  0
 26 74  1  0  0  0  0
 27 84  1  0  0  0  0
 28 85  1  0  0  0  0
 29 31  2  0  0  0  0
 29 84  1  0  0  0  0
 30 86  1  0  0  0  0
 31 87  1  0  0  0  0
 32 67  2  0  0  0  0
 33 68  1  0  0  0  0
 33 72  1  0  0  0  0
 34 53  1  0  0  0  0
 34 69  1  0  0  0  0
 34 78  2  0  0  0  0
 35 73  1  0  0  0  0
 35 79  2  0  0  0  0
 36 54  1  0  0  0  0
 36 75  1  0  0  0  0
 36 80  2  0  0  0  0
 37 64  1  0  0  0  0
 37 70  1  0  0  0  0
 37 81  2  0  0  0  0
 38 65  1  0  0  0  0
 38 76  1  0  0  0  0
 38 82  2  0  0  0  0
 39 71  1  0  0  0  0
 39 74  1  0  0  0  0
 39 83  2  0  0  0  0
 40 43  1  0  0  0  0
 41 54  1  0  0  0  0
 42 70  1  0  0  0  0
 43 46  1  0  0  0  0
 44 47  1  0  0  0  0
 44 49  1  0  0  0  0
 45 48  1  0  0  0  0
 45 50  1  0  0  0  0
 46 52  1  0  0  0  0
 47 53  1  0  0  0  0
 48 55  1  0  0  0  0
 49 69  1  0  0  0  0
 50 71  1  0  0  0  0
 51 55  1  0  0  0  0
 51 71  1  0  0  0  0
 52 75  1  0  0  0  0
 53 63  1  0  0  0  0
 54 70  1  0  0  0  0
 55 68  1  0  0  0  0
 57 65  1  0  0  0  0
 58 66  1  0  0  0  0
 59 66  1  0  0  0  0
 60 66  1  0  0  0  0
 61 77  1  0  0  0  0
 62 69  1  0  0  0  0
 63 85  1  0  0  0  0
 64 66  1  0  0  0  0
 64 76  1  0  0  0  0
 65 77  1  0  0  0  0
 67 68  1  0  0  0  0
M  CHG  1  77   1
M  ISO  4  39 100  63 101  74 100  85 101
M  END
> <Batch ID>
0047

> <Smiles>
CNC(C)C(=O)NC(C(=O)N1Cc2cc([101O:1][101CH2:1]C3CCCN(Cc4cccc([100NH:0][100C:0](=O)N5CCCC(n6nc(-c7ccc(Oc8ccc(F)cc8F)cc7)c(C(N)=O)c6N)C5)c4C)C3=O)ccc2CC1C(=O)NC1CCCc2ccccc21)C(C)(C)C

> <Shape>
0.284

> <Color>
0.065

> <Negative vol penalty>
0.000

$$$$

  -OEChem-04042322263D

 89 98  0     1  0  0  0  0  0999 V2000
  -20.9707  -30.9277   23.2659 C   0  0  0  0  0  0  0  0  0  0  0  0
  -21.9702  -30.0539   23.6787 C   0  0  0  0  0  0  0  0  0  0  0  0
  -30.5589  -23.8220   19.7978 C   0  0  0  0  0  0  0  0  0  0  0  0
  -28.5044  -23.1103   20.8511 C   0  0  0  0  0  0  0  0  0  0  0  0
  -19.7654  -30.4233   22.7821 C   0  0  0  0  0  0  0  0  0  0  0  0
  -21.7695  -28.6756   23.5966 C   0  0  0  0  0  0  0  0  0  0  0  0
  -23.4510  -20.9400   24.3424 C   0  0  0  0  0  0  0  0  0  0  0  0
  -24.9442  -11.4241   20.0680 C   0  0  0  0  0  0  0  0  0  0  0  0
  -25.9330  -12.3080   19.6361 C   0  0  0  0  0  0  0  0  0  0  0  0
  -30.0234  -25.0968   19.6147 C   0  0  0  0  0  0  0  0  0  0  0  0
  -27.9689  -24.3851   20.6680 C   0  0  0  0  0  0  0  0  0  0  0  0
  -22.8672  -19.6754   24.4036 C   0  0  0  0  0  0  0  0  0  0  0  0
  -28.1989  -27.4170   22.1429 C   0  0  0  0  0  0  0  0  0  0  0  0
  -27.5227  -27.9947   23.2175 C   0  0  0  0  0  0  0  0  0  0  0  0
  -21.7744  -20.0844   22.2922 C   0  0  0  0  0  0  0  0  0  0  0  0
  -25.0982  -13.9865   21.1602 C   0  0  0  0  0  0  0  0  0  0  0  0
  -25.5151  -28.1319   21.8804 C   0  0  0  0  0  0  0  0  0  0  0  0
  -29.7994  -22.8286   20.4160 C   0  0  0  0  0  0  0  0  0  0  0  0
  -31.5049  -21.1701   21.3370 C   0  0  0  0  0  0  0  0  0  0  0  0
  -19.5458  -29.0380   22.7061 C   0  0  0  0  0  0  0  0  0  0  0  0
  -23.1917  -21.7920   23.2592 C   0  0  0  0  0  0  0  0  0  0  0  0
  -20.5690  -28.1469   23.0888 C   0  0  0  0  0  0  0  0  0  0  0  0
  -22.3581  -21.3584   22.2185 C   0  0  0  0  0  0  0  0  0  0  0  0
  -24.0324  -11.8213   21.0460 C   0  0  0  0  0  0  0  0  0  0  0  0
  -24.1094  -13.1025   21.5922 C   0  0  0  0  0  0  0  0  0  0  0  0
  -26.0100  -13.5892   20.1822 C   0  0  0  0  0  0  0  0  0  0  0  0
  -28.7284  -25.3784   20.0498 C   0  0  0  0  0  0  0  0  0  0  0  0
  -22.0265  -19.2485   23.3798 C   0  0  0  0  0  0  0  0  0  0  0  0
  -27.5332  -27.1968   20.9371 C   0  0  0  0  0  0  0  0  0  0  0  0
  -26.1808  -28.3521   23.0862 C   0  0  0  0  0  0  0  0  0  0  0  0
  -26.1913  -27.5542   20.8058 C   0  0  0  0  0  0  0  0  0  0  0  0
  -30.3518  -21.5114   20.6050 C   0  0  0  0  0  0  0  0  0  0  0  0
  -31.6005  -19.8057   21.2105 C   0  0  0  0  0  0  0  0  0  0  0  0
  -22.4995  -15.9116   22.9490 C   0  0  0  0  0  0  0  0  0  0  0  0
  -32.4086  -22.0111   22.0661 C   0  0  0  0  0  0  0  0  0  0  0  0
  -21.8509  -24.6549   22.9281 C   0  0  0  0  0  0  0  0  0  0  0  0
  -22.8298  -24.3266   19.8530 C   0  0  0  0  0  0  0  0  0  0  0  0
  -22.9193  -21.6967   17.3846 C   0  0  0  0  0  0  0  0  0  0  0  0
  -27.2395  -15.7966   20.1783 C   0  0  0  0  0  0  0  0  0  0  0  0
  -18.2255  -28.5465   22.1672 C   0  0  0  0  0  0  0  0  0  0  0  0
  -23.8504  -23.1427   23.1951 C   0  0  0  0  0  0  0  0  0  0  0  0
  -22.0639  -22.2271   21.0238 C   0  0  0  0  0  0  0  0  0  0  0  0
  -17.9383  -27.0937   22.5321 C   0  0  0  0  0  0  0  0  0  0  0  0
  -20.7615  -15.7341   20.5963 C   0  0  0  0  0  0  0  0  0  0  0  0
  -30.0442  -16.7946   17.7572 C   0  0  0  0  0  0  0  0  0  0  0  0
  -19.1442  -26.2267   22.2023 C   0  0  0  0  0  0  0  0  0  0  0  0
  -20.4639  -16.7524   21.6770 C   0  0  0  0  0  0  0  0  0  0  0  0
  -30.9115  -17.6235   18.7017 C   0  0  0  0  0  0  0  0  0  0  0  0
  -21.3446  -14.4802   21.2229 C   0  0  0  0  0  0  0  0  0  0  0  0
  -29.1626  -15.8019   18.5043 C   0  0  0  0  0  0  0  0  0  0  0  0
  -28.6612  -17.8181   19.8969 C   0  0  0  0  0  0  0  0  0  0  0  0
  -20.3614  -26.6440   23.0373 C   0  0  1  0  0  0  0  0  0  0  0  0
  -21.7553  -17.1146   22.3837 C   0  0  1  0  0  0  0  0  0  1  0  0
  -23.1082  -24.1274   22.2968 C   0  0  1  0  0  0  0  0  0  0  0  0
  -30.1810  -18.0202   19.9999 C   0  0  2  0  0  0  0  0  0  0  0  0
  -24.4466  -21.3510   15.4236 C   0  0  0  0  0  0  0  0  0  0  0  0
  -20.6549  -25.7709   18.2738 C   0  0  0  0  0  0  0  0  0  0  0  0
  -21.0827  -24.1942   16.3766 C   0  0  0  0  0  0  0  0  0  0  0  0
  -22.8936  -25.7205   17.1602 C   0  0  0  0  0  0  0  0  0  0  0  0
  -23.6840  -18.9913   18.3091 C   0  0  0  0  0  0  0  0  0  0  0  0
  -23.1403  -13.5514   22.6474 C   0  0  0  0  0  0  0  0  0  0  0  0
  -22.2274  -23.7485   18.5952 C   0  0  1  0  0  0  0  0  0  0  0  0
  -24.1520  -20.9769   16.8679 C   0  0  2  0  0  0  0  0  0  0  0  0
  -22.9821  -10.8577   21.4919 C   0  0  0  0  0  0  0  0  0  0  0  0
  -21.7076  -24.8486   17.6272 C   0  0  0  0  0  0  0  0  0  0  0  0
  -29.7576  -20.4495   20.0542 N   0  0  0  0  0  0  0  0  0  0  0  0
  -30.5404  -19.4276   20.4402 N   0  0  0  0  0  0  0  0  0  0  0  0
  -22.3812  -14.7219   22.2279 N   0  0  0  0  0  0  0  0  0  0  0  0
  -22.7267  -23.5416   21.0101 N   0  0  0  0  0  0  0  0  0  0  0  0
  -28.3327  -16.4329   19.5408 N   0  0  0  0  0  0  0  0  0  0  0  0
  -32.4871  -18.9047   21.6842 N   0  0  0  0  0  0  0  0  0  0  0  0
  -32.1629  -23.3906   22.0932 N   0  0  0  0  0  0  0  0  0  0  0  0
  -27.0158  -14.4871   19.7450 N   0  0  0  0  0  0  0  0  0  0  0  0
  -21.5301  -25.9448   22.5503 N   0  0  0  0  0  0  0  0  0  0  0  0
  -23.2453  -22.8772   18.0182 N   0  0  0  0  0  0  0  0  0  0  0  0
  -23.9586  -19.5010   16.9410 N   0  3  0  0  0  0  0  0  0  0  0  0
  -23.2080  -16.0423   23.9505 O   0  0  0  0  0  0  0  0  0  0  0  0
  -33.4138  -21.5547   22.6618 O   0  0  0  0  0  0  0  0  0  0  0  0
  -21.2179  -23.9438   23.6997 O   0  0  0  0  0  0  0  0  0  0  0  0
  -23.3781  -25.4307   19.8087 O   0  0  0  0  0  0  0  0  0  0  0  0
  -21.7809  -21.2577   17.2372 O   0  0  0  0  0  0  0  0  0  0  0  0
  -26.5722  -16.3678   21.0434 O   0  0  0  0  0  0  0  0  0  0  0  0
  -28.2057  -26.6224   19.8715 O   0  0  0  0  0  0  0  0  0  0  0  0
  -21.4549  -18.0149   23.4373 O   0  0  0  0  0  0  0  0  0  1  0  0
  -25.5312  -28.9055   24.1187 F   0  0  0  0  0  0  0  0  0  0  0  0
  -25.5461  -27.3440   19.6502 F   0  0  0  0  0  0  0  0  0  0  0  0
  -23.0457   -9.6500   20.8586 F   0  0  0  0  0  0  0  0  0  0  0  0
  -23.0404  -10.5665   22.8243 F   0  0  0  0  0  0  0  0  0  0  0  0
  -21.7186  -11.3223   21.2718 F   0  0  0  0  0  0  0  0  0  0  0  0
  1  2  1  0  0  0  0
  1  5  2  0  0  0  0
  2  6  2  0  0  0  0
  3 10  2  0  0  0  0
  3 18  1  0  0  0  0
  4 11  1  0  0  0  0
  4 18  2  0  0  0  0
  5 20  1  0  0  0  0
  6 22  1  0  0  0  0
  7 12  2  0  0  0  0
  7 21  1  0  0  0  0
  8  9  2  0  0  0  0
  8 24  1  0  0  0  0
  9 26  1  0  0  0  0
 10 27  1  0  0  0  0
 11 27  2  0  0  0  0
 12 28  1  0  0  0  0
 13 14  2  0  0  0  0
 13 29  1  0  0  0  0
 14 30  1  0  0  0  0
 15 23  1  0  0  0  0
 15 28  2  0  0  0  0
 16 25  1  0  0  0  0
 16 26  2  0  0  0  0
 17 30  2  0  0  0  0
 17 31  1  0  0  0  0
 18 32  1  0  0  0  0
 19 32  1  0  0  0  0
 19 33  2  0  0  0  0
 19 35  1  0  0  0  0
 20 22  2  0  0  0  0
 20 40  1  0  0  0  0
 21 23  2  0  0  0  0
 21 41  1  0  0  0  0
 22 52  1  0  0  0  0
 23 42  1  0  0  0  0
 24 25  2  0  0  0  0
 24 64  1  0  0  0  0
 25 61  1  0  0  0  0
 26 73  1  0  0  0  0
 27 83  1  0  0  0  0
 28 84  1  0  0  0  0
 29 31  2  0  0  0  0
 29 83  1  0  0  0  0
 30 85  1  0  0  0  0
 31 86  1  0  0  0  0
 32 66  2  0  0  0  0
 33 67  1  0  0  0  0
 33 71  1  0  0  0  0
 34 53  1  0  0  0  0
 34 68  1  0  0  0  0
 34 77  2  0  0  0  0
 35 72  1  0  0  0  0
 35 78  2  0  0  0  0
 36 54  1  0  0  0  0
 36 74  1  0  0  0  0
 36 79  2  0  0  0  0
 37 62  1  0  0  0  0
 37 69  1  0  0  0  0
 37 80  2  0  0  0  0
 38 63  1  0  0  0  0
 38 75  1  0  0  0  0
 38 81  2  0  0  0  0
 39 70  1  0  0  0  0
 39 73  1  0  0  0  0
 39 82  2  0  0  0  0
 40 43  1  0  0  0  0
 41 54  1  0  0  0  0
 42 69  1  0  0  0  0
 43 46  1  0  0  0  0
 44 47  1  0  0  0  0
 44 49  1  0  0  0  0
 45 48  1  0  0  0  0
 45 50  1  0  0  0  0
 46 52  1  0  0  0  0
 47 53  1  0  0  0  0
 48 55  1  0  0  0  0
 49 68  1  0  0  0  0
 50 70  1  0  0  0  0
 51 55  1  0  0  0  0
 51 70  1  0  0  0  0
 52 74  1  0  0  0  0
 53 84  1  0  0  0  0
 54 69  1  0  0  0  0
 55 67  1  0  0  0  0
 56 63  1  0  0  0  0
 57 65  1  0  0  0  0
 58 65  1  0  0  0  0
 59 65  1  0  0  0  0
 60 76  1  0  0  0  0
 61 68  1  0  0  0  0
 62 65  1  0  0  0  0
 62 75  1  0  0  0  0
 63 76  1  0  0  0  0
 64 87  1  0  0  0  0
 64 88  1  0  0  0  0
 64 89  1  0  0  0  0
 66 67  1  0  0  0  0
M  CHG  1  76   1
M  ISO  4  39 100  53 101  73 100  84 101
M  END
> <Batch ID>
0047

> <Smiles>
CNC(C)C(=O)NC(C(=O)N1Cc2cc([101O:1][101CH:1]3CCCN(Cc4cc([100NH:0][100C:0](=O)N5CCCC(n6nc(-c7ccc(Oc8ccc(F)cc8F)cc7)c(C(N)=O)c6N)C5)ccc4C(F)(F)F)C3=O)ccc2CC1C(=O)NC1CCCc2ccccc21)C(C)(C)C

> <Shape>
0.202

> <Color>
0.073

> <Negative vol penalty>
0.000

$$$$

  -OEChem-04042322263D

 94103  0     1  0  0  0  0  0999 V2000
  -22.3055  -31.8856   25.4424 C   0  0  0  0  0  0  0  0  0  0  0  0
  -22.4580  -30.6931   24.7423 C   0  0  0  0  0  0  0  0  0  0  0  0
  -29.2408  -18.8637   21.9912 C   0  0  0  0  0  0  0  0  0  0  0  0
  -29.0060  -19.4524   23.2338 C   0  0  0  0  0  0  0  0  0  0  0  0
  -23.2041   -9.7809   20.0185 C   0  0  0  0  0  0  0  0  0  0  0  0
  -23.7456  -10.0397   22.3588 C   0  0  0  0  0  0  0  0  0  0  0  0
  -23.4228  -32.6627   25.7451 C   0  0  0  0  0  0  0  0  0  0  0  0
  -23.7279  -30.2776   24.3434 C   0  0  0  0  0  0  0  0  0  0  0  0
  -24.5352  -25.3602   25.2451 C   0  0  0  0  0  0  0  0  0  0  0  0
  -29.9416  -17.6603   21.9108 C   0  0  0  0  0  0  0  0  0  0  0  0
  -23.4541  -17.0897   22.4570 C   0  0  0  0  0  0  0  0  0  0  0  0
  -23.4987  -16.1616   23.4973 C   0  0  0  0  0  0  0  0  0  0  0  0
  -22.4835   -8.6235   20.3132 C   0  0  0  0  0  0  0  0  0  0  0  0
  -23.0249   -8.8824   22.6535 C   0  0  0  0  0  0  0  0  0  0  0  0
  -23.9659  -24.4483   24.3574 C   0  0  0  0  0  0  0  0  0  0  0  0
  -23.4899   -5.5395   22.4540 C   0  0  0  0  0  0  0  0  0  0  0  0
  -29.4721  -18.8378   24.3959 C   0  0  0  0  0  0  0  0  0  0  0  0
  -24.0733   -4.6161   23.3215 C   0  0  0  0  0  0  0  0  0  0  0  0
  -25.8444  -16.8848   22.1715 C   0  0  0  0  0  0  0  0  0  0  0  0
  -26.0928  -24.2138   23.2436 C   0  0  0  0  0  0  0  0  0  0  0  0
  -22.2146   -4.8718   24.8437 C   0  0  0  0  0  0  0  0  0  0  0  0
  -23.8352  -10.4890   21.0413 C   0  0  0  0  0  0  0  0  0  0  0  0
  -25.8891  -15.9567   23.2119 C   0  0  0  0  0  0  0  0  0  0  0  0
  -24.0926  -13.0045   20.7044 C   0  0  0  0  0  0  0  0  0  0  0  0
  -24.7081  -32.2516   25.3582 C   0  0  0  0  0  0  0  0  0  0  0  0
  -25.8872  -25.7147   25.1317 C   0  0  0  0  0  0  0  0  0  0  0  0
  -24.8633  -31.0506   24.6401 C   0  0  0  0  0  0  0  0  0  0  0  0
  -26.6775  -25.1286   24.1327 C   0  0  0  0  0  0  0  0  0  0  0  0
  -24.6269  -17.4512   21.7941 C   0  0  0  0  0  0  0  0  0  0  0  0
  -24.7162  -15.5951   23.8748 C   0  0  0  0  0  0  0  0  0  0  0  0
  -30.4078  -17.0457   23.0730 C   0  0  0  0  0  0  0  0  0  0  0  0
  -22.3939   -8.1743   21.6307 C   0  0  0  0  0  0  0  0  0  0  0  0
  -24.7440  -23.8771   23.3546 C   0  0  0  0  0  0  0  0  0  0  0  0
  -22.2689   -6.1291   22.7814 C   0  0  0  0  0  0  0  0  0  0  0  0
  -23.4357   -4.2822   24.5163 C   0  0  0  0  0  0  0  0  0  0  0  0
  -30.1730  -17.6344   24.3156 C   0  0  0  0  0  0  0  0  0  0  0  0
  -21.6312   -5.7953   23.9762 C   0  0  0  0  0  0  0  0  0  0  0  0
  -24.5802  -11.6843   20.7374 C   0  0  0  0  0  0  0  0  0  0  0  0
  -25.1853  -13.7657   20.3683 C   0  0  0  0  0  0  0  0  0  0  0  0
  -27.1760  -15.3828   23.5833 C   0  0  0  0  0  0  0  0  0  0  0  0
  -27.9938  -14.6832   22.7663 C   0  0  0  0  0  0  0  0  0  0  0  0
  -22.7703  -13.4986   20.9553 C   0  0  0  0  0  0  0  0  0  0  0  0
  -27.4570  -28.4200   24.5654 C   0  0  0  0  0  0  0  0  0  0  0  0
  -30.0592  -26.5811   25.1733 C   0  0  0  0  0  0  0  0  0  0  0  0
  -24.2647  -20.7297   21.6191 C   0  0  0  0  0  0  0  0  0  0  0  0
  -31.4457  -23.4642   25.2693 C   0  0  0  0  0  0  0  0  0  0  0  0
  -30.8126  -14.1374   21.1510 C   0  0  0  0  0  0  0  0  0  0  0  0
  -25.8807  -33.1486   25.6668 C   0  0  0  0  0  0  0  0  0  0  0  0
  -26.4928  -26.6797   26.1138 C   0  0  0  0  0  0  0  0  0  0  0  0
  -28.1388  -25.4602   23.9811 C   0  0  0  0  0  0  0  0  0  0  0  0
  -27.2322  -32.4512   25.5352 C   0  0  0  0  0  0  0  0  0  0  0  0
  -29.5222  -12.8845   18.1860 C   0  0  0  0  0  0  0  0  0  0  0  0
  -27.2967  -31.6524   24.2373 C   0  0  0  0  0  0  0  0  0  0  0  0
  -28.0657  -12.5687   18.5235 C   0  0  0  0  0  0  0  0  0  0  0  0
  -30.4440  -12.4956   19.3357 C   0  0  0  0  0  0  0  0  0  0  0  0
  -28.6359  -12.8408   20.9888 C   0  0  0  0  0  0  0  0  0  0  0  0
  -26.2271  -30.5538   24.2119 C   0  0  1  0  0  0  0  0  0  0  0  0
  -27.7534  -27.3575   25.5856 C   0  0  1  0  0  0  0  0  0  0  0  0
  -27.6563  -13.2162   19.8580 C   0  0  2  0  0  0  0  0  0  0  0  0
  -24.7268  -14.6054   24.9953 C   0  0  0  0  0  0  0  0  0  0  0  0
  -33.6023  -22.2820   25.7683 C   0  0  0  0  0  0  0  0  0  0  0  0
  -31.1834  -27.5053   22.4915 C   0  0  0  0  0  0  0  0  0  0  0  0
  -32.8212  -25.6150   22.6056 C   0  0  0  0  0  0  0  0  0  0  0  0
  -32.8588  -27.4024   24.3453 C   0  0  0  0  0  0  0  0  0  0  0  0
  -30.2203  -21.9130   27.4719 C   0  0  0  0  0  0  0  0  0  0  0  0
  -24.5775  -18.4504   20.6745 C   0  0  0  0  0  0  0  0  0  0  0  0
  -31.1617  -15.7504   22.9824 C   0  0  0  0  0  0  0  0  0  0  0  0
  -29.3152  -14.1275   23.1912 C   0  0  0  0  0  0  0  0  0  0  0  0
  -25.0496  -21.9802   21.9531 C   0  0  0  0  0  0  0  0  0  1  0  0
  -30.9751  -25.7162   24.3413 C   0  0  1  0  0  0  0  0  0  0  0  0
  -32.2734  -22.7622   26.3307 C   0  0  2  0  0  0  0  0  0  0  0  0
  -31.9316  -26.5547   23.4473 C   0  0  0  0  0  0  0  0  0  0  0  0
  -25.8813  -11.6076   20.4454 N   0  0  0  0  0  0  0  0  0  0  0  0
  -26.2205  -12.8893   20.2256 N   0  0  0  0  0  0  0  0  0  0  0  0
  -28.6833  -26.4139   24.9617 N   0  0  0  0  0  0  0  0  0  0  0  0
  -30.0227  -13.1240   20.5881 N   0  0  0  0  0  0  0  0  0  0  0  0
  -25.3520  -15.0926   20.1837 N   0  0  0  0  0  0  0  0  0  0  0  0
  -21.7657  -12.5798   21.2885 N   0  0  0  0  0  0  0  0  0  0  0  0
  -26.6365  -29.4310   25.0280 N   0  0  0  0  0  0  0  0  0  0  0  0
  -25.0768  -19.7434   21.0814 N   0  0  0  0  0  0  0  0  0  0  0  0
  -31.6566  -24.8268   25.2755 N   0  0  0  0  0  0  0  0  0  0  0  0
  -30.3692  -14.7014   22.3567 N   0  0  0  0  0  0  0  0  0  0  0  0
  -31.5363  -21.5831   26.8666 N   0  3  0  0  0  0  0  0  0  0  0  0
  -22.4841  -14.7169   20.8699 O   0  0  0  0  0  0  0  0  0  0  0  0
  -27.9384  -28.3301   23.4420 O   0  0  0  0  0  0  0  0  0  0  0  0
  -30.5464  -27.3706   25.9862 O   0  0  0  0  0  0  0  0  0  0  0  0
  -23.0558  -20.6327   21.8119 O   0  0  0  0  0  0  0  0  0  0  0  0
  -30.6905  -22.8634   24.5082 O   0  0  0  0  0  0  0  0  0  0  0  0
  -31.8611  -14.5132   20.6110 O   0  0  0  0  0  0  0  0  0  0  0  0
  -21.6906   -7.0451   21.9187 O   0  0  0  0  0  0  0  0  0  0  0  0
  -24.1906  -22.9872   22.4865 O   0  0  0  0  0  0  0  0  0  1  0  0
  -23.9953   -3.3943   25.3486 F   0  0  0  0  0  0  0  0  0  0  0  0
  -30.6168  -17.0513   25.4378 F   0  0  0  0  0  0  0  0  0  0  0  0
  -20.4575   -6.3575   24.2955 F   0  0  0  0  0  0  0  0  0  0  0  0
  1  2  1  0  0  0  0
  1  7  2  0  0  0  0
  2  8  2  0  0  0  0
  3  4  1  0  0  0  0
  3 10  2  0  0  0  0
  4 17  2  0  0  0  0
  5 13  2  0  0  0  0
  5 22  1  0  0  0  0
  6 14  1  0  0  0  0
  6 22  2  0  0  0  0
  7 25  1  0  0  0  0
  8 27  1  0  0  0  0
  9 15  2  0  0  0  0
  9 26  1  0  0  0  0
 10 31  1  0  0  0  0
 11 12  2  0  0  0  0
 11 29  1  0  0  0  0
 12 30  1  0  0  0  0
 13 32  1  0  0  0  0
 14 32  2  0  0  0  0
 15 33  1  0  0  0  0
 16 18  2  0  0  0  0
 16 34  1  0  0  0  0
 17 36  1  0  0  0  0
 18 35  1  0  0  0  0
 19 23  1  0  0  0  0
 19 29  2  0  0  0  0
 20 28  1  0  0  0  0
 20 33  2  0  0  0  0
 21 35  2  0  0  0  0
 21 37  1  0  0  0  0
 22 38  1  0  0  0  0
 23 30  2  0  0  0  0
 23 40  1  0  0  0  0
 24 38  1  0  0  0  0
 24 39  2  0  0  0  0
 24 42  1  0  0  0  0
 25 27  2  0  0  0  0
 25 48  1  0  0  0  0
 26 28  2  0  0  0  0
 26 49  1  0  0  0  0
 27 57  1  0  0  0  0
 28 50  1  0  0  0  0
 29 66  1  0  0  0  0
 30 60  1  0  0  0  0
 31 36  2  0  0  0  0
 31 67  1  0  0  0  0
 32 90  1  0  0  0  0
 33 91  1  0  0  0  0
 34 37  2  0  0  0  0
 34 90  1  0  0  0  0
 35 92  1  0  0  0  0
 36 93  1  0  0  0  0
 37 94  1  0  0  0  0
 38 73  2  0  0  0  0
 39 74  1  0  0  0  0
 39 77  1  0  0  0  0
 40 41  2  0  0  0  0
 41 68  1  0  0  0  0
 42 78  1  0  0  0  0
 42 84  2  0  0  0  0
 43 58  1  0  0  0  0
 43 79  1  0  0  0  0
 43 85  2  0  0  0  0
 44 70  1  0  0  0  0
 44 75  1  0  0  0  0
 44 86  2  0  0  0  0
 45 69  1  0  0  0  0
 45 80  1  0  0  0  0
 45 87  2  0  0  0  0
 46 71  1  0  0  0  0
 46 81  1  0  0  0  0
 46 88  2  0  0  0  0
 47 76  1  0  0  0  0
 47 82  1  0  0  0  0
 47 89  2  0  0  0  0
 48 51  1  0  0  0  0
 49 58  1  0  0  0  0
 50 75  1  0  0  0  0
 51 53  1  0  0  0  0
 52 54  1  0  0  0  0
 52 55  1  0  0  0  0
 53 57  1  0  0  0  0
 54 59  1  0  0  0  0
 55 76  1  0  0  0  0
 56 59  1  0  0  0  0
 56 76  1  0  0  0  0
 57 79  1  0  0  0  0
 58 75  1  0  0  0  0
 59 74  1  0  0  0  0
 61 71  1  0  0  0  0
 62 72  1  0  0  0  0
 63 72  1  0  0  0  0
 64 72  1  0  0  0  0
 65 83  1  0  0  0  0
 66 80  1  0  0  0  0
 67 82  1  0  0  0  0
 68 82  1  0  0  0  0
 69 91  1  0  0  0  0
 70 72  1  0  0  0  0
 70 81  1  0  0  0  0
 71 83  1  0  0  0  0
 73 74  1  0  0  0  0
M  CHG  1  83   1
M  ISO  4  47 100  69 101  82 100  91 101
M  END
> <Batch ID>
0047

> <Smiles>
CNC(C)C(=O)NC(C(=O)N1Cc2cc([101O:1][101CH2:1]C(=O)NCc3ccc(C)c(C=CC[100N:0](Cc4ccccc4F)[100C:0](=O)N4CCCC(n5nc(-c6ccc(Oc7ccc(F)cc7F)cc6)c(C(N)=O)c5N)C4)c3)ccc2CC1C(=O)NC1CCCc2ccccc21)C(C)(C)C

> <Shape>
0.227

> <Color>
0.190

> <Negative vol penalty>
0.000

$$$$

  -OEChem-04042322263D

 93102  0     1  0  0  0  0  0999 V2000
  -27.2350  -18.8790   18.8780 C   0  0  0  0  0  0  0  0  0  0  0  0
  -26.4465  -20.0018   19.1079 C   0  0  0  0  0  0  0  0  0  0  0  0
  -19.4204  -20.4106   28.7670 C   0  0  0  0  0  0  0  0  0  0  0  0
  -18.1900  -20.6537   28.1567 C   0  0  0  0  0  0  0  0  0  0  0  0
  -25.0810  -15.5732   20.9981 C   0  0  0  0  0  0  0  0  0  0  0  0
  -23.3141  -14.3183   19.9301 C   0  0  0  0  0  0  0  0  0  0  0  0
  -28.5441  -18.8381   19.3561 C   0  0  0  0  0  0  0  0  0  0  0  0
  -26.9663  -21.0840   19.8172 C   0  0  0  0  0  0  0  0  0  0  0  0
  -25.7372  -27.0142   18.9072 C   0  0  0  0  0  0  0  0  0  0  0  0
  -20.6026  -20.7760   28.1232 C   0  0  0  0  0  0  0  0  0  0  0  0
  -21.0210  -29.3025   25.9917 C   0  0  0  0  0  0  0  0  0  0  0  0
  -21.0370  -28.4223   27.0737 C   0  0  0  0  0  0  0  0  0  0  0  0
  -18.1417  -21.2622   26.9025 C   0  0  0  0  0  0  0  0  0  0  0  0
  -25.8879  -14.4354   21.0000 C   0  0  0  0  0  0  0  0  0  0  0  0
  -24.1211  -13.1805   19.9320 C   0  0  0  0  0  0  0  0  0  0  0  0
  -24.8684  -27.9003   19.5426 C   0  0  0  0  0  0  0  0  0  0  0  0
  -28.5446  -11.9545   20.9592 C   0  0  0  0  0  0  0  0  0  0  0  0
  -29.8742  -12.1018   20.5643 C   0  0  0  0  0  0  0  0  0  0  0  0
  -19.6092  -27.7715   24.7670 C   0  0  0  0  0  0  0  0  0  0  0  0
  -26.6834  -28.6763   20.9292 C   0  0  0  0  0  0  0  0  0  0  0  0
  -29.1442  -12.8900   18.4003 C   0  0  0  0  0  0  0  0  0  0  0  0
  -23.7940  -15.5146   20.4632 C   0  0  0  0  0  0  0  0  0  0  0  0
  -19.6252  -26.8912   25.8489 C   0  0  0  0  0  0  0  0  0  0  0  0
  -22.8729  -17.6688   19.4540 C   0  0  0  0  0  0  0  0  0  0  0  0
  -29.0833  -19.9243   20.0632 C   0  0  0  0  0  0  0  0  0  0  0  0
  -27.0856  -26.9447   19.2862 C   0  0  0  0  0  0  0  0  0  0  0  0
  -28.2834  -21.0571   20.3064 C   0  0  0  0  0  0  0  0  0  0  0  0
  -27.5679  -27.7903   20.2953 C   0  0  0  0  0  0  0  0  0  0  0  0
  -20.3070  -28.9771   24.8384 C   0  0  0  0  0  0  0  0  0  0  0  0
  -20.3392  -27.2166   27.0023 C   0  0  0  0  0  0  0  0  0  0  0  0
  -20.5544  -21.3845   26.8690 C   0  0  0  0  0  0  0  0  0  0  0  0
  -19.3239  -21.6276   26.2586 C   0  0  0  0  0  0  0  0  0  0  0  0
  -25.4080  -13.2391   20.4670 C   0  0  0  0  0  0  0  0  0  0  0  0
  -25.3407  -28.7295   20.5557 C   0  0  0  0  0  0  0  0  0  0  0  0
  -27.5147  -12.2748   20.0746 C   0  0  0  0  0  0  0  0  0  0  0  0
  -30.1741  -12.5696   19.2849 C   0  0  0  0  0  0  0  0  0  0  0  0
  -27.8146  -12.7426   18.7952 C   0  0  0  0  0  0  0  0  0  0  0  0
  -22.9598  -16.6894   20.4614 C   0  0  0  0  0  0  0  0  0  0  0  0
  -21.9478  -18.5670   19.9272 C   0  0  0  0  0  0  0  0  0  0  0  0
  -18.8868  -25.6394   25.7439 C   0  0  0  0  0  0  0  0  0  0  0  0
  -19.1119  -24.6636   24.8367 C   0  0  0  0  0  0  0  0  0  0  0  0
  -23.5663  -17.7586   18.2023 C   0  0  0  0  0  0  0  0  0  0  0  0
  -28.9598  -24.6843   20.5033 C   0  0  0  0  0  0  0  0  0  0  0  0
  -31.2795  -26.9036   20.0389 C   0  0  0  0  0  0  0  0  0  0  0  0
  -22.4784  -29.8198   22.4965 C   0  0  0  0  0  0  0  0  0  0  0  0
  -32.1116  -30.1944   19.6847 C   0  0  0  0  0  0  0  0  0  0  0  0
  -19.8599  -21.6701   23.8291 C   0  0  0  0  0  0  0  0  0  0  0  0
  -30.4880  -19.8147   20.6014 C   0  0  0  0  0  0  0  0  0  0  0  0
  -28.0159  -26.0025   18.5727 C   0  0  0  0  0  0  0  0  0  0  0  0
  -29.0112  -27.7688   20.7254 C   0  0  0  0  0  0  0  0  0  0  0  0
  -31.0862  -21.1554   21.0198 C   0  0  0  0  0  0  0  0  0  0  0  0
  -18.7755  -18.2838   23.8465 C   0  0  0  0  0  0  0  0  0  0  0  0
  -30.0865  -21.9485   21.8555 C   0  0  0  0  0  0  0  0  0  0  0  0
  -19.7748  -17.6403   22.8857 C   0  0  0  0  0  0  0  0  0  0  0  0
  -19.4367  -19.3310   24.7434 C   0  0  0  0  0  0  0  0  0  0  0  0
  -21.1882  -19.7258   23.0402 C   0  0  0  0  0  0  0  0  0  0  0  0
  -28.8195  -22.2610   21.0501 C   0  0  1  0  0  0  0  0  0  0  0  0
  -29.2542  -25.6512   19.3916 C   0  0  1  0  0  0  0  0  0  0  0  0
  -20.5400  -18.7100   22.0867 C   0  0  1  0  0  0  0  0  0  0  0  0
  -20.3801  -26.2967   28.1800 C   0  0  0  0  0  0  0  0  0  0  0  0
  -21.8367  -21.7651   26.2027 C   0  0  0  0  0  0  0  0  0  0  0  0
  -34.0912  -31.7015   19.3572 C   0  0  0  0  0  0  0  0  0  0  0  0
  -32.0318  -26.5494   22.9747 C   0  0  0  0  0  0  0  0  0  0  0  0
  -33.3184  -28.6925   22.8314 C   0  0  0  0  0  0  0  0  0  0  0  0
  -33.9774  -26.7471   21.4157 C   0  0  0  0  0  0  0  0  0  0  0  0
  -31.0671  -31.1979   17.1038 C   0  0  0  0  0  0  0  0  0  0  0  0
  -20.2906  -29.9254   23.6745 C   0  0  0  0  0  0  0  0  0  0  0  0
  -18.3357  -23.3870   24.7802 C   0  0  0  0  0  0  0  0  0  0  0  0
  -23.1239  -29.2092   21.2709 C   0  0  0  0  0  0  0  0  0  1  0  0
  -31.8669  -28.0245   20.8621 C   0  0  1  0  0  0  0  0  0  0  0  0
  -32.9892  -30.9081   18.6723 C   0  0  2  0  0  0  0  0  0  0  0  0
  -32.7709  -27.5027   22.0144 C   0  0  0  0  0  0  0  0  0  0  0  0
  -22.1543  -16.9416   21.4966 N   0  0  0  0  0  0  0  0  0  0  0  0
  -21.5525  -18.0898   21.1421 N   0  0  0  0  0  0  0  0  0  0  0  0
  -29.8801  -26.8259   20.0019 N   0  0  0  0  0  0  0  0  0  0  0  0
  -20.1879  -20.3057   23.9398 N   0  0  0  0  0  0  0  0  0  0  0  0
  -21.4421  -19.7106   19.4184 N   0  0  0  0  0  0  0  0  0  0  0  0
  -24.4826  -16.7508   17.8723 N   0  0  0  0  0  0  0  0  0  0  0  0
  -29.0596  -23.3562   20.1350 N   0  0  0  0  0  0  0  0  0  0  0  0
  -21.1401  -29.4735   22.5970 N   0  0  0  0  0  0  0  0  0  0  0  0
  -32.5479  -28.9080   19.9217 N   0  0  0  0  0  0  0  0  0  0  0  0
  -19.2525  -22.2562   24.9605 N   0  0  0  0  0  0  0  0  0  0  0  0
  -32.1742  -31.8478   17.8515 N   0  3  0  0  0  0  0  0  0  0  0  0
  -23.3911  -18.7132   17.4076 O   0  0  0  0  0  0  0  0  0  0  0  0
  -28.6654  -25.1115   21.6135 O   0  0  0  0  0  0  0  0  0  0  0  0
  -32.0345  -26.1299   19.4446 O   0  0  0  0  0  0  0  0  0  0  0  0
  -23.0928  -30.5323   23.2857 O   0  0  0  0  0  0  0  0  0  0  0  0
  -31.1388  -30.7261   20.2151 O   0  0  0  0  0  0  0  0  0  0  0  0
  -20.1137  -22.3212   22.8085 O   0  0  0  0  0  0  0  0  0  0  0  0
  -26.1952  -12.1288   20.4684 O   0  0  0  0  0  0  0  0  0  0  0  0
  -24.4947  -29.5948   21.1780 O   0  0  0  0  0  0  0  0  0  1  0  0
  -31.4510  -12.7124   18.9064 F   0  0  0  0  0  0  0  0  0  0  0  0
  -26.8295  -13.0532   17.9414 F   0  0  0  0  0  0  0  0  0  0  0  0
  1  2  1  0  0  0  0
  1  7  2  0  0  0  0
  2  8  2  0  0  0  0
  3  4  1  0  0  0  0
  3 10  2  0  0  0  0
  4 13  2  0  0  0  0
  5 14  2  0  0  0  0
  5 22  1  0  0  0  0
  6 15  1  0  0  0  0
  6 22  2  0  0  0  0
  7 25  1  0  0  0  0
  8 27  1  0  0  0  0
  9 16  2  0  0  0  0
  9 26  1  0  0  0  0
 10 31  1  0  0  0  0
 11 12  2  0  0  0  0
 11 29  1  0  0  0  0
 12 30  1  0  0  0  0
 13 32  1  0  0  0  0
 14 33  1  0  0  0  0
 15 33  2  0  0  0  0
 16 34  1  0  0  0  0
 17 18  2  0  0  0  0
 17 35  1  0  0  0  0
 18 36  1  0  0  0  0
 19 23  1  0  0  0  0
 19 29  2  0  0  0  0
 20 28  1  0  0  0  0
 20 34  2  0  0  0  0
 21 36  2  0  0  0  0
 21 37  1  0  0  0  0
 22 38  1  0  0  0  0
 23 30  2  0  0  0  0
 23 40  1  0  0  0  0
 24 38  1  0  0  0  0
 24 39  2  0  0  0  0
 24 42  1  0  0  0  0
 25 27  2  0  0  0  0
 25 48  1  0  0  0  0
 26 28  2  0  0  0  0
 26 49  1  0  0  0  0
 27 57  1  0  0  0  0
 28 50  1  0  0  0  0
 29 67  1  0  0  0  0
 30 60  1  0  0  0  0
 31 32  2  0  0  0  0
 31 61  1  0  0  0  0
 32 82  1  0  0  0  0
 33 90  1  0  0  0  0
 34 91  1  0  0  0  0
 35 37  2  0  0  0  0
 35 90  1  0  0  0  0
 36 92  1  0  0  0  0
 37 93  1  0  0  0  0
 38 73  2  0  0  0  0
 39 74  1  0  0  0  0
 39 77  1  0  0  0  0
 40 41  2  0  0  0  0
 41 68  1  0  0  0  0
 42 78  1  0  0  0  0
 42 84  2  0  0  0  0
 43 58  1  0  0  0  0
 43 79  1  0  0  0  0
 43 85  2  0  0  0  0
 44 70  1  0  0  0  0
 44 75  1  0  0  0  0
 44 86  2  0  0  0  0
 45 69  1  0  0  0  0
 45 80  1  0  0  0  0
 45 87  2  0  0  0  0
 46 71  1  0  0  0  0
 46 81  1  0  0  0  0
 46 88  2  0  0  0  0
 47 76  1  0  0  0  0
 47 82  1  0  0  0  0
 47 89  2  0  0  0  0
 48 51  1  0  0  0  0
 49 58  1  0  0  0  0
 50 75  1  0  0  0  0
 51 53  1  0  0  0  0
 52 54  1  0  0  0  0
 52 55  1  0  0  0  0
 53 57  1  0  0  0  0
 54 59  1  0  0  0  0
 55 76  1  0  0  0  0
 56 59  1  0  0  0  0
 56 76  1  0  0  0  0
 57 79  1  0  0  0  0
 58 75  1  0  0  0  0
 59 74  1  0  0  0  0
 62 71  1  0  0  0  0
 63 72  1  0  0  0  0
 64 72  1  0  0  0  0
 65 72  1  0  0  0  0
 66 83  1  0  0  0  0
 67 80  1  0  0  0  0
 68 82  1  0  0  0  0
 69 91  1  0  0  0  0
 70 72  1  0  0  0  0
 70 81  1  0  0  0  0
 71 83  1  0  0  0  0
 73 74  1  0  0  0  0
M  CHG  1  83   1
M  ISO  4  47 100  69 101  82 100  91 101
M  END
> <Batch ID>
0047

> <Smiles>
CNC(C)C(=O)NC(C(=O)N1Cc2cc([101O:1][101CH2:1]C(=O)NCc3ccc(C)c(C=CC[100N:0](c4ccccc4C)[100C:0](=O)N4CCCC(n5nc(-c6ccc(Oc7ccc(F)cc7F)cc6)c(C(N)=O)c5N)C4)c3)ccc2CC1C(=O)NC1CCCc2ccccc21)C(C)(C)C

> <Shape>
0.227

> <Color>
0.067

> <Negative vol penalty>
0.000

$$$$

  -OEChem-04042322263D

 87 96  0     1  0  0  0  0  0999 V2000
  -31.9677  -31.6018   25.9480 C   0  0  0  0  0  0  0  0  0  0  0  0
  -31.6583  -30.4314   25.2625 C   0  0  0  0  0  0  0  0  0  0  0  0
  -31.5766  -18.5678   18.5249 C   0  0  0  0  0  0  0  0  0  0  0  0
  -22.8252  -11.2410   22.4243 C   0  0  0  0  0  0  0  0  0  0  0  0
  -23.4636   -9.6073   20.7628 C   0  0  0  0  0  0  0  0  0  0  0  0
  -30.9920  -32.2384   26.7139 C   0  0  0  0  0  0  0  0  0  0  0  0
  -30.3732  -29.8963   25.3435 C   0  0  0  0  0  0  0  0  0  0  0  0
  -27.3253  -26.9534   20.9213 C   0  0  0  0  0  0  0  0  0  0  0  0
  -30.7676  -19.6678   18.8094 C   0  0  0  0  0  0  0  0  0  0  0  0
  -31.3053  -17.3320   19.1120 C   0  0  0  0  0  0  0  0  0  0  0  0
  -21.9754  -10.3068   23.0164 C   0  0  0  0  0  0  0  0  0  0  0  0
  -22.6138   -8.6730   21.3550 C   0  0  0  0  0  0  0  0  0  0  0  0
  -27.1278  -25.5982   20.6604 C   0  0  0  0  0  0  0  0  0  0  0  0
  -22.6558   -6.6194   24.0386 C   0  0  0  0  0  0  0  0  0  0  0  0
  -23.1465   -5.3276   24.2276 C   0  0  0  0  0  0  0  0  0  0  0  0
  -25.0080  -25.6924   21.8079 C   0  0  0  0  0  0  0  0  0  0  0  0
  -21.3785   -4.4519   22.8332 C   0  0  0  0  0  0  0  0  0  0  0  0
  -23.5693  -10.8913   21.2974 C   0  0  0  0  0  0  0  0  0  0  0  0
  -24.0898  -13.1026   20.1370 C   0  0  0  0  0  0  0  0  0  0  0  0
  -29.6916  -31.7161   26.7966 C   0  0  0  0  0  0  0  0  0  0  0  0
  -26.3691  -27.6870   21.6382 C   0  0  0  0  0  0  0  0  0  0  0  0
  -29.3795  -30.5257   26.1124 C   0  0  0  0  0  0  0  0  0  0  0  0
  -25.1946  -27.0574   22.0744 C   0  0  0  0  0  0  0  0  0  0  0  0
  -29.6872  -19.5321   19.6812 C   0  0  0  0  0  0  0  0  0  0  0  0
  -29.4159  -18.2962   20.2685 C   0  0  0  0  0  0  0  0  0  0  0  0
  -30.2250  -17.1962   19.9839 C   0  0  0  0  0  0  0  0  0  0  0  0
  -21.8697   -9.0228   22.4818 C   0  0  0  0  0  0  0  0  0  0  0  0
  -25.9703  -24.9668   21.1061 C   0  0  0  0  0  0  0  0  0  0  0  0
  -21.5263   -6.8276   23.2469 C   0  0  0  0  0  0  0  0  0  0  0  0
  -22.5079   -4.2438   23.6249 C   0  0  0  0  0  0  0  0  0  0  0  0
  -20.8877   -5.7438   22.6442 C   0  0  0  0  0  0  0  0  0  0  0  0
  -24.4469  -11.8561   20.6849 C   0  0  0  0  0  0  0  0  0  0  0  0
  -25.2745  -13.6317   19.6864 C   0  0  0  0  0  0  0  0  0  0  0  0
  -25.0880  -21.3593   19.2167 C   0  0  0  0  0  0  0  0  0  0  0  0
  -23.9463  -21.0221   19.8348 C   0  0  0  0  0  0  0  0  0  0  0  0
  -22.8022  -13.7266   20.0436 C   0  0  0  0  0  0  0  0  0  0  0  0
  -26.3591  -29.2661   24.3968 C   0  0  0  0  0  0  0  0  0  0  0  0
  -23.3848  -30.1379   23.4396 C   0  0  0  0  0  0  0  0  0  0  0  0
  -20.6376  -29.4532   21.5342 C   0  0  0  0  0  0  0  0  0  0  0  0
  -30.6848  -14.7509   20.3783 C   0  0  0  0  0  0  0  0  0  0  0  0
  -28.6835  -32.4137   27.6751 C   0  0  0  0  0  0  0  0  0  0  0  0
  -26.5848  -29.1544   21.8883 C   0  0  0  0  0  0  0  0  0  0  0  0
  -24.1279  -27.8050   22.8305 C   0  0  0  0  0  0  0  0  0  0  0  0
  -25.1597  -21.5779   17.7284 C   0  0  0  0  0  0  0  0  0  0  0  0
  -27.2428  -31.9861   27.4072 C   0  0  0  0  0  0  0  0  0  0  0  0
  -26.2794  -20.7413   17.1103 C   0  0  0  0  0  0  0  0  0  0  0  0
  -29.8412  -11.5120   19.1637 C   0  0  0  0  0  0  0  0  0  0  0  0
  -27.1450  -30.4666   27.3163 C   0  0  0  0  0  0  0  0  0  0  0  0
  -28.3332  -11.4153   19.4061 C   0  0  0  0  0  0  0  0  0  0  0  0
  -30.5483  -12.2715   20.2849 C   0  0  0  0  0  0  0  0  0  0  0  0
  -28.4829  -13.4998   20.8273 C   0  0  0  0  0  0  0  0  0  0  0  0
  -27.6259  -20.9704   17.7894 C   0  0  0  0  0  0  0  0  0  0  0  0
  -27.9900  -29.9279   26.1555 C   0  0  1  0  0  0  0  0  0  0  0  0
  -26.3990  -21.4948   19.9606 C   0  0  2  0  0  0  0  0  0  0  0  0
  -25.7824  -29.6828   23.0734 C   0  0  1  0  0  0  0  0  0  0  0  0
  -27.7185  -12.7995   19.6919 C   0  0  2  0  0  0  0  0  0  0  0  0
  -28.2555  -18.1554   21.2031 C   0  0  0  0  0  0  0  0  0  0  0  0
  -18.3496  -30.3287   20.9902 C   0  0  0  0  0  0  0  0  0  0  0  0
  -22.3561  -29.1089   26.1215 C   0  0  0  0  0  0  0  0  0  0  0  0
  -20.0442  -29.1217   25.1607 C   0  0  0  0  0  0  0  0  0  0  0  0
  -21.3214  -31.2551   25.3612 C   0  0  0  0  0  0  0  0  0  0  0  0
  -21.3193  -29.7888   18.6738 C   0  0  0  0  0  0  0  0  0  0  0  0
  -28.8332  -20.7313   19.9700 C   0  0  0  0  0  0  0  0  0  0  0  0
  -26.7976  -22.9640   20.1260 C   0  0  0  0  0  0  0  0  0  1  0  0
  -21.9977  -29.5659   23.6058 C   0  0  1  0  0  0  0  0  0  0  0  0
  -19.8189  -30.3234   20.5978 C   0  0  2  0  0  0  0  0  0  0  0  0
  -21.4506  -29.7481   25.0498 C   0  0  0  0  0  0  0  0  0  0  0  0
  -25.7560  -11.6079   20.5919 N   0  0  0  0  0  0  0  0  0  0  0  0
  -26.2318  -12.7058   19.9801 N   0  0  0  0  0  0  0  0  0  0  0  0
  -24.3878  -29.2365   23.0558 N   0  0  0  0  0  0  0  0  0  0  0  0
  -29.9145  -13.5747   20.4963 N   0  0  0  0  0  0  0  0  0  0  0  0
  -25.5802  -14.7940   19.0715 N   0  0  0  0  0  0  0  0  0  0  0  0
  -22.0234  -13.4842   18.9039 N   0  0  0  0  0  0  0  0  0  0  0  0
  -29.9674  -15.9315   20.5686 N   0  0  0  0  0  0  0  0  0  0  0  0
  -27.3094  -30.1366   24.8955 N   0  0  0  0  0  0  0  0  0  0  0  0
  -21.1745  -30.1846   22.5725 N   0  0  0  0  0  0  0  0  0  0  0  0
  -27.5018  -20.6887   19.2713 N   0  3  2  0  0  0  0  0  0  0  0  0
  -19.9296  -29.8248   19.1978 N   0  3  0  0  0  0  0  0  0  0  0  0
  -22.3626  -14.4899   20.9367 O   0  0  0  0  0  0  0  0  0  0  0  0
  -25.9696  -28.2323   24.9270 O   0  0  0  0  0  0  0  0  0  0  0  0
  -23.5701  -31.3415   23.6359 O   0  0  0  0  0  0  0  0  0  0  0  0
  -20.7830  -28.2447   21.3638 O   0  0  0  0  0  0  0  0  0  0  0  0
  -31.8861  -14.7147   20.0999 O   0  0  0  0  0  0  0  0  0  0  0  0
  -21.0408   -8.1109   23.0595 O   0  0  0  0  0  0  0  0  0  0  0  0
  -25.7753  -23.6439   20.8534 O   0  0  0  0  0  0  0  0  0  1  0  0
  -22.9802   -3.0034   23.8053 F   0  0  0  0  0  0  0  0  0  0  0  0
  -19.8030   -5.9377   21.8815 F   0  0  0  0  0  0  0  0  0  0  0  0
  1  2  1  0  0  0  0
  1  6  2  0  0  0  0
  2  7  2  0  0  0  0
  3  9  2  0  0  0  0
  3 10  1  0  0  0  0
  4 11  2  0  0  0  0
  4 18  1  0  0  0  0
  5 12  1  0  0  0  0
  5 18  2  0  0  0  0
  6 20  1  0  0  0  0
  7 22  1  0  0  0  0
  8 13  2  0  0  0  0
  8 21  1  0  0  0  0
  9 24  1  0  0  0  0
 10 26  2  0  0  0  0
 11 27  1  0  0  0  0
 12 27  2  0  0  0  0
 13 28  1  0  0  0  0
 14 15  2  0  0  0  0
 14 29  1  0  0  0  0
 15 30  1  0  0  0  0
 16 23  1  0  0  0  0
 16 28  2  0  0  0  0
 17 30  2  0  0  0  0
 17 31  1  0  0  0  0
 18 32  1  0  0  0  0
 19 32  1  0  0  0  0
 19 33  2  0  0  0  0
 19 36  1  0  0  0  0
 20 22  2  0  0  0  0
 20 41  1  0  0  0  0
 21 23  2  0  0  0  0
 21 42  1  0  0  0  0
 22 53  1  0  0  0  0
 23 43  1  0  0  0  0
 24 25  2  0  0  0  0
 24 63  1  0  0  0  0
 25 26  1  0  0  0  0
 25 57  1  0  0  0  0
 26 74  1  0  0  0  0
 27 84  1  0  0  0  0
 28 85  1  0  0  0  0
 29 31  2  0  0  0  0
 29 84  1  0  0  0  0
 30 86  1  0  0  0  0
 31 87  1  0  0  0  0
 32 68  2  0  0  0  0
 33 69  1  0  0  0  0
 33 72  1  0  0  0  0
 34 35  2  0  0  0  0
 34 44  1  0  0  0  0
 34 54  1  0  0  0  0
 36 73  1  0  0  0  0
 36 79  2  0  0  0  0
 37 55  1  0  0  0  0
 37 75  1  0  0  0  0
 37 80  2  0  0  0  0
 38 65  1  0  0  0  0
 38 70  1  0  0  0  0
 38 81  2  0  0  0  0
 39 66  1  0  0  0  0
 39 76  1  0  0  0  0
 39 82  2  0  0  0  0
 40 71  1  0  0  0  0
 40 74  1  0  0  0  0
 40 83  2  0  0  0  0
 41 45  1  0  0  0  0
 42 55  1  0  0  0  0
 43 70  1  0  0  0  0
 44 46  1  0  0  0  0
 45 48  1  0  0  0  0
 46 52  1  0  0  0  0
 47 49  1  0  0  0  0
 47 50  1  0  0  0  0
 48 53  1  0  0  0  0
 49 56  1  0  0  0  0
 50 71  1  0  0  0  0
 51 56  1  0  0  0  0
 51 71  1  0  0  0  0
 52 77  1  0  0  0  0
 53 75  1  0  0  0  0
 54 64  1  0  0  0  0
 54 77  1  0  0  0  0
 55 70  1  0  0  0  0
 56 69  1  0  0  0  0
 58 66  1  0  0  0  0
 59 67  1  0  0  0  0
 60 67  1  0  0  0  0
 61 67  1  0  0  0  0
 62 78  1  0  0  0  0
 63 77  1  0  0  0  0
 64 85  1  0  0  0  0
 65 67  1  0  0  0  0
 65 76  1  0  0  0  0
 66 78  1  0  0  0  0
 68 69  1  0  0  0  0
M  CHG  2  77   1  78   1
M  ISO  4  40 100  64 101  74 100  85 101
M  END
> <Batch ID>
0047

> <Smiles>
C=C1CCCN(Cc2cccc([100NH:0][100C:0](=O)N3CCCC(n4nc(-c5ccc(Oc6ccc(F)cc6F)cc5)c(C(N)=O)c4N)C3)c2C)C1[101CH2:1][101O:1]c1ccc2c(c1)CN(C(=O)C(NC(=O)C(C)NC)C(C)(C)C)C(C(=O)NC1CCCc3ccccc31)C2

> <Shape>
0.266

> <Color>
0.135

> <Negative vol penalty>
0.000

$$$$

  -OEChem-04042322263D

 85 93  0     1  0  0  0  0  0999 V2000
  -17.6164  -25.2255   23.6200 C   0  0  0  0  0  0  0  0  0  0  0  0
  -18.9254  -25.1710   23.1522 C   0  0  0  0  0  0  0  0  0  0  0  0
  -24.1613   -8.9301   20.8785 C   0  0  0  0  0  0  0  0  0  0  0  0
  -22.9200  -10.9998   20.7662 C   0  0  0  0  0  0  0  0  0  0  0  0
  -16.9533  -26.4499   23.6916 C   0  0  0  0  0  0  0  0  0  0  0  0
  -19.5718  -26.3409   22.7546 C   0  0  0  0  0  0  0  0  0  0  0  0
  -24.3075  -26.6409   24.5231 C   0  0  0  0  0  0  0  0  0  0  0  0
  -29.6238  -19.9653   16.8555 C   0  0  0  0  0  0  0  0  0  0  0  0
  -23.0660   -8.3055   21.4747 C   0  0  0  0  0  0  0  0  0  0  0  0
  -21.8246  -10.3751   21.3624 C   0  0  0  0  0  0  0  0  0  0  0  0
  -25.2810  -25.8886   23.8672 C   0  0  0  0  0  0  0  0  0  0  0  0
  -21.6548   -8.1468   24.5419 C   0  0  0  0  0  0  0  0  0  0  0  0
  -21.8969   -7.3330   25.6486 C   0  0  0  0  0  0  0  0  0  0  0  0
  -28.9898  -18.8926   16.2287 C   0  0  0  0  0  0  0  0  0  0  0  0
  -25.9946  -27.8615   22.6765 C   0  0  0  0  0  0  0  0  0  0  0  0
  -30.1021  -18.5662   18.7662 C   0  0  0  0  0  0  0  0  0  0  0  0
  -20.9645   -5.4449   24.4642 C   0  0  0  0  0  0  0  0  0  0  0  0
  -24.0884  -10.2773   20.5242 C   0  0  0  0  0  0  0  0  0  0  0  0
  -25.5002  -11.0171   18.5325 C   0  0  0  0  0  0  0  0  0  0  0  0
  -17.5952  -27.6366   23.3037 C   0  0  0  0  0  0  0  0  0  0  0  0
  -24.1629  -28.0091   24.2522 C   0  0  0  0  0  0  0  0  0  0  0  0
  -18.9162  -27.5821   22.8198 C   0  0  0  0  0  0  0  0  0  0  0  0
  -25.0203  -28.6294   23.3322 C   0  0  0  0  0  0  0  0  0  0  0  0
  -30.1800  -19.8021   18.1243 C   0  0  0  0  0  0  0  0  0  0  0  0
  -29.4680  -17.4935   18.1394 C   0  0  0  0  0  0  0  0  0  0  0  0
  -21.8976   -9.0279   21.7166 C   0  0  0  0  0  0  0  0  0  0  0  0
  -26.1228  -26.4983   22.9416 C   0  0  0  0  0  0  0  0  0  0  0  0
  -21.0674   -7.6096   23.3964 C   0  0  0  0  0  0  0  0  0  0  0  0
  -21.5518   -5.9821   25.6098 C   0  0  0  0  0  0  0  0  0  0  0  0
  -20.7223   -6.2587   23.3575 C   0  0  0  0  0  0  0  0  0  0  0  0
  -28.9118  -17.6567   16.8707 C   0  0  0  0  0  0  0  0  0  0  0  0
  -25.2198  -10.9233   19.9088 C   0  0  0  0  0  0  0  0  0  0  0  0
  -26.6779  -11.7210   18.4692 C   0  0  0  0  0  0  0  0  0  0  0  0
  -28.4426  -22.9524   20.8767 C   0  0  0  0  0  0  0  0  0  0  0  0
  -27.5309  -23.9343   20.8585 C   0  0  0  0  0  0  0  0  0  0  0  0
  -24.7621  -10.5130   17.4114 C   0  0  0  0  0  0  0  0  0  0  0  0
  -29.1481  -22.5576   19.6263 C   0  0  0  0  0  0  0  0  0  0  0  0
  -21.8387  -29.8289   23.0730 C   0  0  0  0  0  0  0  0  0  0  0  0
  -23.8673  -32.2403   23.8427 C   0  0  0  0  0  0  0  0  0  0  0  0
  -27.0718  -33.2517   24.4386 C   0  0  0  0  0  0  0  0  0  0  0  0
  -29.9151  -15.9541   20.0829 C   0  0  0  0  0  0  0  0  0  0  0  0
  -16.8216  -28.9303   23.3544 C   0  0  0  0  0  0  0  0  0  0  0  0
  -23.1255  -28.8122   24.9879 C   0  0  0  0  0  0  0  0  0  0  0  0
  -24.9193  -30.0995   23.0207 C   0  0  0  0  0  0  0  0  0  0  0  0
  -17.7051  -30.1721   23.2668 C   0  0  0  0  0  0  0  0  0  0  0  0
  -29.9315  -13.0328   22.1182 C   0  0  0  0  0  0  0  0  0  0  0  0
  -18.7271  -30.0222   22.1444 C   0  0  0  0  0  0  0  0  0  0  0  0
  -28.7302  -12.2313   21.6116 C   0  0  0  0  0  0  0  0  0  0  0  0
  -29.6564  -14.5354   22.1065 C   0  0  0  0  0  0  0  0  0  0  0  0
  -27.9858  -14.2692   20.3156 C   0  0  0  0  0  0  0  0  0  0  0  0
  -19.6596  -28.8325   22.4026 C   0  0  1  0  0  0  0  0  0  0  0  0
  -22.7288  -30.0901   24.2551 C   0  0  1  0  0  0  0  0  0  0  0  0
  -28.2385  -12.7542   20.2477 C   0  0  2  0  0  0  0  0  0  0  0  0
  -28.4207  -35.2901   25.0062 C   0  0  0  0  0  0  0  0  0  0  0  0
  -23.6023  -33.2145   20.9633 C   0  0  0  0  0  0  0  0  0  0  0  0
  -25.6417  -34.6209   21.3251 C   0  0  0  0  0  0  0  0  0  0  0  0
  -23.5901  -35.0294   22.6840 C   0  0  0  0  0  0  0  0  0  0  0  0
  -28.0210  -32.0593   26.9755 C   0  0  0  0  0  0  0  0  0  0  0  0
  -30.8628  -20.9569   18.7984 C   0  0  0  0  0  0  0  0  0  0  0  0
  -26.7885  -24.3861   22.0747 C   0  0  0  0  0  0  0  0  0  1  0  0
  -24.9827  -32.9672   23.1311 C   0  0  1  0  0  0  0  0  0  0  0  0
  -27.6739  -34.0847   25.5557 C   0  0  2  0  0  0  0  0  0  0  0  0
  -24.4551  -33.9299   22.0301 C   0  0  0  0  0  0  0  0  0  0  0  0
  -26.1450  -11.5198   20.6654 N   0  0  0  0  0  0  0  0  0  0  0  0
  -27.0183  -11.9951   19.7612 N   0  0  0  0  0  0  0  0  0  0  0  0
  -23.8851  -30.8407   23.7613 N   0  0  0  0  0  0  0  0  0  0  0  0
  -29.1987  -14.9595   20.7816 N   0  0  0  0  0  0  0  0  0  0  0  0
  -27.4453  -12.1260   17.4350 N   0  0  0  0  0  0  0  0  0  0  0  0
  -23.5730   -9.8122   17.6549 N   0  0  0  0  0  0  0  0  0  0  0  0
  -29.4051  -16.2520   18.8196 N   0  0  0  0  0  0  0  0  0  0  0  0
  -30.0486  -21.5294   19.8471 N   0  0  0  0  0  0  0  0  0  0  0  0
  -20.6604  -29.1796   23.3886 N   0  0  0  0  0  0  0  0  0  0  0  0
  -25.7710  -33.6218   24.1696 N   0  0  0  0  0  0  0  0  0  0  0  0
  -28.6275  -33.2658   26.3562 N   0  3  0  0  0  0  0  0  0  0  0  0
  -25.1542  -10.6650   16.2296 O   0  0  0  0  0  0  0  0  0  0  0  0
  -28.9303  -23.0996   18.5477 O   0  0  0  0  0  0  0  0  0  0  0  0
  -22.1939  -30.1910   21.9575 O   0  0  0  0  0  0  0  0  0  0  0  0
  -23.0157  -32.8901   24.4544 O   0  0  0  0  0  0  0  0  0  0  0  0
  -27.6944  -32.3641   23.8597 O   0  0  0  0  0  0  0  0  0  0  0  0
  -30.9239  -16.4819   20.5581 O   0  0  0  0  0  0  0  0  0  0  0  0
  -20.8284   -8.4186   22.2982 O   0  0  0  0  0  0  0  0  0  0  0  0
  -27.0734  -25.7662   22.2995 O   0  0  0  0  0  0  0  0  0  1  0  0
  -21.7858   -5.2004   26.6720 F   0  0  0  0  0  0  0  0  0  0  0  0
  -20.1589   -5.7367   22.2594 F   0  0  0  0  0  0  0  0  0  0  0  0
  -28.1173  -16.3554   16.0582 Cl  0  0  0  0  0  0  0  0  0  0  0  0
  1  2  1  0  0  0  0
  1  5  2  0  0  0  0
  2  6  2  0  0  0  0
  3  9  2  0  0  0  0
  3 18  1  0  0  0  0
  4 10  1  0  0  0  0
  4 18  2  0  0  0  0
  5 20  1  0  0  0  0
  6 22  1  0  0  0  0
  7 11  2  0  0  0  0
  7 21  1  0  0  0  0
  8 14  2  0  0  0  0
  8 24  1  0  0  0  0
  9 26  1  0  0  0  0
 10 26  2  0  0  0  0
 11 27  1  0  0  0  0
 12 13  2  0  0  0  0
 12 28  1  0  0  0  0
 13 29  1  0  0  0  0
 14 31  1  0  0  0  0
 15 23  1  0  0  0  0
 15 27  2  0  0  0  0
 16 24  2  0  0  0  0
 16 25  1  0  0  0  0
 17 29  2  0  0  0  0
 17 30  1  0  0  0  0
 18 32  1  0  0  0  0
 19 32  1  0  0  0  0
 19 33  2  0  0  0  0
 19 36  1  0  0  0  0
 20 22  2  0  0  0  0
 20 42  1  0  0  0  0
 21 23  2  0  0  0  0
 21 43  1  0  0  0  0
 22 51  1  0  0  0  0
 23 44  1  0  0  0  0
 24 59  1  0  0  0  0
 25 31  2  0  0  0  0
 25 70  1  0  0  0  0
 26 81  1  0  0  0  0
 27 82  1  0  0  0  0
 28 30  2  0  0  0  0
 28 81  1  0  0  0  0
 29 83  1  0  0  0  0
 30 84  1  0  0  0  0
 31 85  1  0  0  0  0
 32 64  2  0  0  0  0
 33 65  1  0  0  0  0
 33 68  1  0  0  0  0
 34 35  2  0  0  0  0
 34 37  1  0  0  0  0
 35 60  1  0  0  0  0
 36 69  1  0  0  0  0
 36 75  2  0  0  0  0
 37 71  1  0  0  0  0
 37 76  2  0  0  0  0
 38 52  1  0  0  0  0
 38 72  1  0  0  0  0
 38 77  2  0  0  0  0
 39 61  1  0  0  0  0
 39 66  1  0  0  0  0
 39 78  2  0  0  0  0
 40 62  1  0  0  0  0
 40 73  1  0  0  0  0
 40 79  2  0  0  0  0
 41 67  1  0  0  0  0
 41 70  1  0  0  0  0
 41 80  2  0  0  0  0
 42 45  1  0  0  0  0
 43 52  1  0  0  0  0
 44 66  1  0  0  0  0
 45 47  1  0  0  0  0
 46 48  1  0  0  0  0
 46 49  1  0  0  0  0
 47 51  1  0  0  0  0
 48 53  1  0  0  0  0
 49 67  1  0  0  0  0
 50 53  1  0  0  0  0
 50 67  1  0  0  0  0
 51 72  1  0  0  0  0
 52 66  1  0  0  0  0
 53 65  1  0  0  0  0
 54 62  1  0  0  0  0
 55 63  1  0  0  0  0
 56 63  1  0  0  0  0
 57 63  1  0  0  0  0
 58 74  1  0  0  0  0
 59 71  1  0  0  0  0
 60 82  1  0  0  0  0
 61 63  1  0  0  0  0
 61 73  1  0  0  0  0
 62 74  1  0  0  0  0
 64 65  1  0  0  0  0
M  CHG  1  74   1
M  ISO  4  41 100  60 101  70 100  82 101
M  END
> <Batch ID>
0047

> <Smiles>
CNC(C)C(=O)NC(C(=O)N1Cc2cc([101O:1][101CH2:1]C=CC(=O)NCc3ccc(Cl)c([100NH:0][100C:0](=O)N4CCCC(n5nc(-c6ccc(Oc7ccc(F)cc7F)cc6)c(C(N)=O)c5N)C4)c3)ccc2CC1C(=O)NC1CCCc2ccccc21)C(C)(C)C

> <Shape>
0.289

> <Color>
0.094

> <Negative vol penalty>
0.000

$$$$

  -OEChem-04042322263D

 87 95  0     1  0  0  0  0  0999 V2000
  -30.3986  -31.4481   32.0266 C   0  0  0  0  0  0  0  0  0  0  0  0
  -29.9492  -30.2840   31.4115 C   0  0  0  0  0  0  0  0  0  0  0  0
  -23.0955   -9.8650   21.4470 C   0  0  0  0  0  0  0  0  0  0  0  0
  -23.8498  -10.7371   23.5701 C   0  0  0  0  0  0  0  0  0  0  0  0
  -29.9544  -32.6901   31.5747 C   0  0  0  0  0  0  0  0  0  0  0  0
  -29.0544  -30.3612   30.3448 C   0  0  0  0  0  0  0  0  0  0  0  0
  -30.3207  -27.2922   26.5209 C   0  0  0  0  0  0  0  0  0  0  0  0
  -32.5367  -18.4012   21.8349 C   0  0  0  0  0  0  0  0  0  0  0  0
  -31.9656  -17.2354   21.3246 C   0  0  0  0  0  0  0  0  0  0  0  0
  -22.3699   -8.8760   22.1110 C   0  0  0  0  0  0  0  0  0  0  0  0
  -23.1242   -9.7480   24.2341 C   0  0  0  0  0  0  0  0  0  0  0  0
  -30.0209  -25.9382   26.6651 C   0  0  0  0  0  0  0  0  0  0  0  0
  -20.6074   -5.9010   23.2364 C   0  0  0  0  0  0  0  0  0  0  0  0
  -20.6896   -4.5967   22.7490 C   0  0  0  0  0  0  0  0  0  0  0  0
  -29.7667  -18.2068   21.5662 C   0  0  0  0  0  0  0  0  0  0  0  0
  -28.0597  -26.2324   25.2916 C   0  0  0  0  0  0  0  0  0  0  0  0
  -23.0761   -4.6063   23.1259 C   0  0  0  0  0  0  0  0  0  0  0  0
  -23.8355  -10.7955   22.1765 C   0  0  0  0  0  0  0  0  0  0  0  0
  -30.3378  -19.3725   22.0766 C   0  0  0  0  0  0  0  0  0  0  0  0
  -24.1365  -13.0998   21.1241 C   0  0  0  0  0  0  0  0  0  0  0  0
  -29.0612  -32.7829   30.4958 C   0  0  0  0  0  0  0  0  0  0  0  0
  -29.4849  -28.1301   25.7687 C   0  0  0  0  0  0  0  0  0  0  0  0
  -28.5967  -31.6055   29.8790 C   0  0  0  0  0  0  0  0  0  0  0  0
  -28.3525  -27.5961   25.1373 C   0  0  0  0  0  0  0  0  0  0  0  0
  -31.7227  -19.4698   22.2110 C   0  0  0  0  0  0  0  0  0  0  0  0
  -30.5807  -17.1382   21.1902 C   0  0  0  0  0  0  0  0  0  0  0  0
  -22.3842   -8.8175   23.5045 C   0  0  0  0  0  0  0  0  0  0  0  0
  -28.8887  -25.4088   26.0527 C   0  0  0  0  0  0  0  0  0  0  0  0
  -21.7595   -6.5580   23.6685 C   0  0  0  0  0  0  0  0  0  0  0  0
  -21.9239   -3.9493   22.6938 C   0  0  0  0  0  0  0  0  0  0  0  0
  -22.9938   -5.9107   23.6132 C   0  0  0  0  0  0  0  0  0  0  0  0
  -24.5857  -11.8171   21.4912 C   0  0  0  0  0  0  0  0  0  0  0  0
  -25.2172  -13.6776   20.5038 C   0  0  0  0  0  0  0  0  0  0  0  0
  -29.4477  -20.4955   22.4687 C   0  0  0  0  0  0  0  0  0  0  0  0
  -22.8568  -13.7141   21.3260 C   0  0  0  0  0  0  0  0  0  0  0  0
  -27.7239  -30.6987   26.4050 C   0  0  0  0  0  0  0  0  0  0  0  0
  -28.2568  -21.9890   25.0300 C   0  0  0  0  0  0  0  0  0  0  0  0
  -27.2791  -30.7092   23.1918 C   0  0  0  0  0  0  0  0  0  0  0  0
  -27.2427  -28.9524   20.2663 C   0  0  0  0  0  0  0  0  0  0  0  0
  -30.6652  -14.8003   20.2557 C   0  0  0  0  0  0  0  0  0  0  0  0
  -28.5723  -34.1457   30.0732 C   0  0  0  0  0  0  0  0  0  0  0  0
  -29.8367  -29.5828   25.6008 C   0  0  0  0  0  0  0  0  0  0  0  0
  -27.4340  -28.4490   24.3023 C   0  0  0  0  0  0  0  0  0  0  0  0
  -27.9150  -34.1568   28.6955 C   0  0  0  0  0  0  0  0  0  0  0  0
  -29.5957  -11.6610   18.9601 C   0  0  0  0  0  0  0  0  0  0  0  0
  -26.9308  -32.9989   28.5642 C   0  0  0  0  0  0  0  0  0  0  0  0
  -28.1600  -11.5273   19.4729 C   0  0  0  0  0  0  0  0  0  0  0  0
  -30.5042  -12.3352   19.9867 C   0  0  0  0  0  0  0  0  0  0  0  0
  -28.5825  -13.4911   21.0066 C   0  0  0  0  0  0  0  0  0  0  0  0
  -27.6452  -31.6491   28.7031 C   0  0  1  0  0  0  0  0  0  0  0  0
  -28.6357  -30.4503   25.2368 C   0  0  1  0  0  0  0  0  0  0  0  0
  -27.6154  -12.8764   19.9816 C   0  0  2  0  0  0  0  0  0  0  0  0
  -32.3603  -20.7067   22.7547 C   0  0  0  0  0  0  0  0  0  0  0  0
  -25.5663  -19.7268   23.4065 C   0  0  0  0  0  0  0  0  0  0  0  0
  -26.8070  -29.2250   17.8100 C   0  0  0  0  0  0  0  0  0  0  0  0
  -24.2769  -30.7685   23.7334 C   0  0  0  0  0  0  0  0  0  0  0  0
  -23.9046  -30.0878   21.3530 C   0  0  0  0  0  0  0  0  0  0  0  0
  -25.0299  -32.2538   21.8676 C   0  0  0  0  0  0  0  0  0  0  0  0
  -30.0050  -28.1505   19.5691 C   0  0  0  0  0  0  0  0  0  0  0  0
  -27.8986  -23.4602   25.1154 C   0  0  0  0  0  0  0  0  0  1  0  0
  -26.2863  -20.5553   24.4614 C   0  0  0  0  0  0  0  0  0  0  0  0
  -27.5676  -21.1938   23.9294 C   0  0  2  0  0  0  0  0  0  0  0  0
  -26.2769  -30.0879   22.2492 C   0  0  1  0  0  0  0  0  0  0  0  0
  -27.8579  -29.2428   18.9092 C   0  0  2  0  0  0  0  0  0  0  0  0
  -24.8881  -30.7836   22.3181 C   0  0  0  0  0  0  0  0  0  0  0  0
  -25.8529  -11.5927   21.1337 N   0  0  0  0  0  0  0  0  0  0  0  0
  -26.2092  -12.7422   20.5355 N   0  0  0  0  0  0  0  0  0  0  0  0
  -27.8171  -29.8647   24.1732 N   0  0  0  0  0  0  0  0  0  0  0  0
  -29.9265  -13.6094   20.4197 N   0  0  0  0  0  0  0  0  0  0  0  0
  -25.4060  -14.8894   19.9398 N   0  0  0  0  0  0  0  0  0  0  0  0
  -21.8590  -12.9797   21.9813 N   0  0  0  0  0  0  0  0  0  0  0  0
  -30.0009  -15.9530   20.6736 N   0  0  0  0  0  0  0  0  0  0  0  0
  -28.5152  -20.2172   23.4596 N   0  0  0  0  0  0  0  0  0  0  0  0
  -28.3389  -31.3160   27.4774 N   0  0  0  0  0  0  0  0  0  0  0  0
  -26.8918  -30.1109   20.9265 N   0  0  0  0  0  0  0  0  0  0  0  0
  -28.8966  -28.2252   18.5828 N   0  3  0  0  0  0  0  0  0  0  0  0
  -29.5617  -21.5782   21.9001 O   0  0  0  0  0  0  0  0  0  0  0  0
  -22.6004  -14.8737   20.9222 O   0  0  0  0  0  0  0  0  0  0  0  0
  -26.5490  -30.3570   26.3377 O   0  0  0  0  0  0  0  0  0  0  0  0
  -29.0337  -21.4642   25.8281 O   0  0  0  0  0  0  0  0  0  0  0  0
  -27.5790  -31.8982   23.0577 O   0  0  0  0  0  0  0  0  0  0  0  0
  -27.0856  -27.8117   20.6960 O   0  0  0  0  0  0  0  0  0  0  0  0
  -31.7925  -14.8009   19.7545 O   0  0  0  0  0  0  0  0  0  0  0  0
  -21.6761   -7.8527   24.1528 O   0  0  0  0  0  0  0  0  0  0  0  0
  -28.5934  -24.0877   26.1924 O   0  0  0  0  0  0  0  0  0  1  0  0
  -22.0025   -2.6962   22.2271 F   0  0  0  0  0  0  0  0  0  0  0  0
  -24.1039   -6.5363   24.0280 F   0  0  0  0  0  0  0  0  0  0  0  0
  1  2  1  0  0  0  0
  1  5  2  0  0  0  0
  2  6  2  0  0  0  0
  3 10  2  0  0  0  0
  3 18  1  0  0  0  0
  4 11  1  0  0  0  0
  4 18  2  0  0  0  0
  5 21  1  0  0  0  0
  6 23  1  0  0  0  0
  7 12  2  0  0  0  0
  7 22  1  0  0  0  0
  8  9  2  0  0  0  0
  8 25  1  0  0  0  0
  9 26  1  0  0  0  0
 10 27  1  0  0  0  0
 11 27  2  0  0  0  0
 12 28  1  0  0  0  0
 13 14  2  0  0  0  0
 13 29  1  0  0  0  0
 14 30  1  0  0  0  0
 15 19  1  0  0  0  0
 15 26  2  0  0  0  0
 16 24  1  0  0  0  0
 16 28  2  0  0  0  0
 17 30  2  0  0  0  0
 17 31  1  0  0  0  0
 18 32  1  0  0  0  0
 19 25  2  0  0  0  0
 19 34  1  0  0  0  0
 20 32  1  0  0  0  0
 20 33  2  0  0  0  0
 20 35  1  0  0  0  0
 21 23  2  0  0  0  0
 21 41  1  0  0  0  0
 22 24  2  0  0  0  0
 22 42  1  0  0  0  0
 23 50  1  0  0  0  0
 24 43  1  0  0  0  0
 25 53  1  0  0  0  0
 26 72  1  0  0  0  0
 27 84  1  0  0  0  0
 28 85  1  0  0  0  0
 29 31  2  0  0  0  0
 29 84  1  0  0  0  0
 30 86  1  0  0  0  0
 31 87  1  0  0  0  0
 32 66  2  0  0  0  0
 33 67  1  0  0  0  0
 33 70  1  0  0  0  0
 34 73  1  0  0  0  0
 34 77  2  0  0  0  0
 35 71  1  0  0  0  0
 35 78  2  0  0  0  0
 36 51  1  0  0  0  0
 36 74  1  0  0  0  0
 36 79  2  0  0  0  0
 37 60  1  0  0  0  0
 37 62  1  0  0  0  0
 37 80  2  0  0  0  0
 38 63  1  0  0  0  0
 38 68  1  0  0  0  0
 38 81  2  0  0  0  0
 39 64  1  0  0  0  0
 39 75  1  0  0  0  0
 39 82  2  0  0  0  0
 40 69  1  0  0  0  0
 40 72  1  0  0  0  0
 40 83  2  0  0  0  0
 41 44  1  0  0  0  0
 42 51  1  0  0  0  0
 43 68  1  0  0  0  0
 44 46  1  0  0  0  0
 45 47  1  0  0  0  0
 45 48  1  0  0  0  0
 46 50  1  0  0  0  0
 47 52  1  0  0  0  0
 48 69  1  0  0  0  0
 49 52  1  0  0  0  0
 49 69  1  0  0  0  0
 50 74  1  0  0  0  0
 51 68  1  0  0  0  0
 52 67  1  0  0  0  0
 54 61  1  0  0  0  0
 55 64  1  0  0  0  0
 56 65  1  0  0  0  0
 57 65  1  0  0  0  0
 58 65  1  0  0  0  0
 59 76  1  0  0  0  0
 60 85  1  0  0  0  0
 61 62  1  0  0  0  0
 62 73  1  0  0  0  0
 63 65  1  0  0  0  0
 63 75  1  0  0  0  0
 64 76  1  0  0  0  0
 66 67  1  0  0  0  0
M  CHG  1  76   1
M  ISO  4  40 100  60 101  72 100  85 101
M  END
> <Batch ID>
0047

> <Smiles>
CCC(NC(=O)c1cc([100NH:0][100C:0](=O)N2CCCC(n3nc(-c4ccc(Oc5ccc(F)cc5F)cc4)c(C(N)=O)c3N)C2)ccc1C)C(=O)[101CH2:1][101O:1]c1ccc2c(c1)CN(C(=O)C(NC(=O)C(C)NC)C(C)(C)C)C(C(=O)NC1CCCc3ccccc31)C2

> <Shape>
0.255

> <Color>
0.148

> <Negative vol penalty>
0.000

$$$$

  -OEChem-04042322263D

 88 97  0     1  0  0  0  0  0999 V2000
  -34.7114  -16.9810   22.0886 C   0  0  0  0  0  0  0  0  0  0  0  0
  -33.8564  -17.8157   22.8011 C   0  0  0  0  0  0  0  0  0  0  0  0
  -28.7213  -26.2719   19.2536 C   0  0  0  0  0  0  0  0  0  0  0  0
  -26.6889  -24.9890   19.4993 C   0  0  0  0  0  0  0  0  0  0  0  0
  -34.3120  -16.4629   20.8573 C   0  0  0  0  0  0  0  0  0  0  0  0
  -32.6018  -18.1336   22.2821 C   0  0  0  0  0  0  0  0  0  0  0  0
  -25.9008  -19.5753   24.3643 C   0  0  0  0  0  0  0  0  0  0  0  0
  -29.4244  -25.1026   18.9637 C   0  0  0  0  0  0  0  0  0  0  0  0
  -27.3920  -23.8196   19.2094 C   0  0  0  0  0  0  0  0  0  0  0  0
  -24.9034  -20.5346   24.1955 C   0  0  0  0  0  0  0  0  0  0  0  0
  -30.7424  -22.5009   20.6720 C   0  0  0  0  0  0  0  0  0  0  0  0
  -31.9741  -22.3138   21.2994 C   0  0  0  0  0  0  0  0  0  0  0  0
  -24.2890  -19.5177   22.0961 C   0  0  0  0  0  0  0  0  0  0  0  0
  -17.3982  -28.4588   22.8679 C   0  0  0  0  0  0  0  0  0  0  0  0
  -17.8552  -26.0866   22.8414 C   0  0  0  0  0  0  0  0  0  0  0  0
  -33.0588  -22.2224   19.1425 C   0  0  0  0  0  0  0  0  0  0  0  0
  -27.3536  -26.2151   19.5214 C   0  0  0  0  0  0  0  0  0  0  0  0
  -26.4798  -28.5536   18.9962 C   0  0  0  0  0  0  0  0  0  0  0  0
  -33.0481  -16.7669   20.3275 C   0  0  0  0  0  0  0  0  0  0  0  0
  -26.1074  -18.5848   23.3934 C   0  0  0  0  0  0  0  0  0  0  0  0
  -32.1856  -17.6202   21.0420 C   0  0  0  0  0  0  0  0  0  0  0  0
  -25.2881  -18.5455   22.2561 C   0  0  0  0  0  0  0  0  0  0  0  0
  -16.9433  -27.1416   22.8072 C   0  0  0  0  0  0  0  0  0  0  0  0
  -18.7650  -28.7210   22.9625 C   0  0  0  0  0  0  0  0  0  0  0  0
  -19.2219  -26.3487   22.9361 C   0  0  0  0  0  0  0  0  0  0  0  0
  -19.6768  -27.6660   22.9967 C   0  0  0  0  0  0  0  0  0  0  0  0
  -28.7598  -23.8765   18.9416 C   0  0  0  0  0  0  0  0  0  0  0  0
  -24.0992  -20.5077   23.0599 C   0  0  0  0  0  0  0  0  0  0  0  0
  -30.6689  -22.5487   19.2799 C   0  0  0  0  0  0  0  0  0  0  0  0
  -33.1323  -22.1745   20.5347 C   0  0  0  0  0  0  0  0  0  0  0  0
  -31.8271  -22.4095   18.5152 C   0  0  0  0  0  0  0  0  0  0  0  0
  -26.6269  -27.4225   19.8214 C   0  0  0  0  0  0  0  0  0  0  0  0
  -25.7076  -29.4181   19.7329 C   0  0  0  0  0  0  0  0  0  0  0  0
  -21.8493  -23.8957   21.7716 C   0  0  0  0  0  0  0  0  0  0  0  0
  -23.1469  -24.2254   21.8865 C   0  0  0  0  0  0  0  0  0  0  0  0
  -26.9952  -28.8006   17.6813 C   0  0  0  0  0  0  0  0  0  0  0  0
  -28.5212  -17.7801   21.4882 C   0  0  0  0  0  0  0  0  0  0  0  0
  -26.5899  -15.2824   20.7440 C   0  0  0  0  0  0  0  0  0  0  0  0
  -23.4254  -14.0149   20.5822 C   0  0  0  0  0  0  0  0  0  0  0  0
  -21.7260  -28.6127   24.1151 C   0  0  0  0  0  0  0  0  0  0  0  0
  -32.6793  -16.2212   18.9707 C   0  0  0  0  0  0  0  0  0  0  0  0
  -27.1700  -17.5412   23.6032 C   0  0  0  0  0  0  0  0  0  0  0  0
  -25.4559  -17.4908   21.1941 C   0  0  0  0  0  0  0  0  0  0  0  0
  -31.1859  -16.3053   18.6658 C   0  0  0  0  0  0  0  0  0  0  0  0
  -24.6817  -30.5926   24.2608 C   0  0  0  0  0  0  0  0  0  0  0  0
  -19.3575  -23.4709   20.4212 C   0  0  0  0  0  0  0  0  0  0  0  0
  -30.6445  -17.6852   19.0255 C   0  0  0  0  0  0  0  0  0  0  0  0
  -20.3842  -22.3429   20.4852 C   0  0  0  0  0  0  0  0  0  0  0  0
  -25.4998  -30.1115   23.0603 C   0  0  0  0  0  0  0  0  0  0  0  0
  -23.9223  -29.4459   24.9258 C   0  0  0  0  0  0  0  0  0  0  0  0
  -23.9032  -28.1673   22.8200 C   0  0  0  0  0  0  0  0  0  0  0  0
  -20.0263  -24.8392   20.4651 C   0  0  0  0  0  0  0  0  0  0  0  0
  -30.8071  -17.9683   20.5238 C   0  0  1  0  0  0  0  0  0  0  0  0
  -21.2968  -22.4800   21.7132 C   0  0  1  0  0  0  0  0  0  0  0  0
  -27.6298  -16.8870   22.3039 C   0  0  1  0  0  0  0  0  0  0  0  0
  -24.6344  -29.2980   22.0781 C   0  0  2  0  0  0  0  0  0  0  0  0
  -15.4822  -26.8613   22.7057 C   0  0  0  0  0  0  0  0  0  0  0  0
  -19.2218  -30.1427   23.0252 C   0  0  0  0  0  0  0  0  0  0  0  0
  -22.1592  -11.9599   19.8959 C   0  0  0  0  0  0  0  0  0  0  0  0
  -26.9293  -16.0554   17.8119 C   0  0  0  0  0  0  0  0  0  0  0  0
  -24.9484  -14.6209   17.2766 C   0  0  0  0  0  0  0  0  0  0  0  0
  -27.0002  -13.5955   18.2572 C   0  0  0  0  0  0  0  0  0  0  0  0
  -22.3968  -13.5916   23.3248 C   0  0  0  0  0  0  0  0  0  0  0  0
  -20.1780  -25.1931   22.9711 C   0  0  0  0  0  0  0  0  0  0  0  0
  -22.3383  -21.3562   21.7052 C   0  0  0  0  0  0  0  0  0  1  0  0
  -25.5149  -15.0320   19.7141 C   0  0  1  0  0  0  0  0  0  0  0  0
  -22.8471  -12.6881   21.0401 C   0  0  2  0  0  0  0  0  0  0  0  0
  -26.0961  -14.8471   18.2839 C   0  0  0  0  0  0  0  0  0  0  0  0
  -25.9986  -27.5538   20.9928 N   0  0  0  0  0  0  0  0  0  0  0  0
  -25.4494  -28.7774   20.9089 N   0  0  0  0  0  0  0  0  0  0  0  0
  -26.5127  -16.4961   21.4417 N   0  0  0  0  0  0  0  0  0  0  0  0
  -23.1211  -28.7232   23.9355 N   0  0  0  0  0  0  0  0  0  0  0  0
  -25.2311  -30.6562   19.4830 N   0  0  0  0  0  0  0  0  0  0  0  0
  -26.2175  -28.4250   16.5774 N   0  0  0  0  0  0  0  0  0  0  0  0
  -21.0652  -27.9320   23.0930 N   0  0  0  0  0  0  0  0  0  0  0  0
  -29.7900  -17.2728   21.2829 N   0  0  0  0  0  0  0  0  0  0  0  0
  -24.7438  -13.8919   20.1977 N   0  0  0  0  0  0  0  0  0  0  0  0
  -20.9152  -24.9986   21.6748 N   0  3  1  0  0  0  0  0  0  0  0  0
  -21.8499  -12.9050   22.1263 N   0  3  0  0  0  0  0  0  0  0  0  0
  -28.1194  -29.3234   17.4908 O   0  0  0  0  0  0  0  0  0  0  0  0
  -28.0893  -18.8497   21.0743 O   0  0  0  0  0  0  0  0  0  0  0  0
  -27.4617  -14.4293   20.9279 O   0  0  0  0  0  0  0  0  0  0  0  0
  -22.7717  -15.0555   20.5636 O   0  0  0  0  0  0  0  0  0  0  0  0
  -21.1557  -29.1105   25.0892 O   0  0  0  0  0  0  0  0  0  0  0  0
  -29.4455  -22.7353   18.6586 O   0  0  0  0  0  0  0  0  0  0  0  0
  -23.1253  -21.4433   22.8923 O   0  0  0  0  0  0  0  0  0  1  0  0
  -34.3152  -21.9964   21.1373 F   0  0  0  0  0  0  0  0  0  0  0  0
  -31.7629  -22.4557   17.1774 F   0  0  0  0  0  0  0  0  0  0  0  0
  1  2  1  0  0  0  0
  1  5  2  0  0  0  0
  2  6  2  0  0  0  0
  3  8  2  0  0  0  0
  3 17  1  0  0  0  0
  4  9  1  0  0  0  0
  4 17  2  0  0  0  0
  5 19  1  0  0  0  0
  6 21  1  0  0  0  0
  7 10  2  0  0  0  0
  7 20  1  0  0  0  0
  8 27  1  0  0  0  0
  9 27  2  0  0  0  0
 10 28  1  0  0  0  0
 11 12  2  0  0  0  0
 11 29  1  0  0  0  0
 12 30  1  0  0  0  0
 13 22  1  0  0  0  0
 13 28  2  0  0  0  0
 14 23  1  0  0  0  0
 14 24  2  0  0  0  0
 15 23  2  0  0  0  0
 15 25  1  0  0  0  0
 16 30  2  0  0  0  0
 16 31  1  0  0  0  0
 17 32  1  0  0  0  0
 18 32  1  0  0  0  0
 18 33  2  0  0  0  0
 18 36  1  0  0  0  0
 19 21  2  0  0  0  0
 19 41  1  0  0  0  0
 20 22  2  0  0  0  0
 20 42  1  0  0  0  0
 21 53  1  0  0  0  0
 22 43  1  0  0  0  0
 23 57  1  0  0  0  0
 24 26  1  0  0  0  0
 24 58  1  0  0  0  0
 25 26  2  0  0  0  0
 25 64  1  0  0  0  0
 26 75  1  0  0  0  0
 27 85  1  0  0  0  0
 28 86  1  0  0  0  0
 29 31  2  0  0  0  0
 29 85  1  0  0  0  0
 30 87  1  0  0  0  0
 31 88  1  0  0  0  0
 32 69  2  0  0  0  0
 33 70  1  0  0  0  0
 33 73  1  0  0  0  0
 34 35  2  0  0  0  0
 34 54  1  0  0  0  0
 34 78  1  0  0  0  0
 36 74  1  0  0  0  0
 36 80  2  0  0  0  0
 37 55  1  0  0  0  0
 37 76  1  0  0  0  0
 37 81  2  0  0  0  0
 38 66  1  0  0  0  0
 38 71  1  0  0  0  0
 38 82  2  0  0  0  0
 39 67  1  0  0  0  0
 39 77  1  0  0  0  0
 39 83  2  0  0  0  0
 40 72  1  0  0  0  0
 40 75  1  0  0  0  0
 40 84  2  0  0  0  0
 41 44  1  0  0  0  0
 42 55  1  0  0  0  0
 43 71  1  0  0  0  0
 44 47  1  0  0  0  0
 45 49  1  0  0  0  0
 45 50  1  0  0  0  0
 46 48  1  0  0  0  0
 46 52  1  0  0  0  0
 47 53  1  0  0  0  0
 48 54  1  0  0  0  0
 49 56  1  0  0  0  0
 50 72  1  0  0  0  0
 51 56  1  0  0  0  0
 51 72  1  0  0  0  0
 52 78  1  0  0  0  0
 53 76  1  0  0  0  0
 54 65  1  0  0  0  0
 55 71  1  0  0  0  0
 56 70  1  0  0  0  0
 59 67  1  0  0  0  0
 60 68  1  0  0  0  0
 61 68  1  0  0  0  0
 62 68  1  0  0  0  0
 63 79  1  0  0  0  0
 64 78  1  0  0  0  0
 65 86  1  0  0  0  0
 66 68  1  0  0  0  0
 66 77  1  0  0  0  0
 67 79  1  0  0  0  0
 69 70  1  0  0  0  0
M  CHG  2  78   1  79   1
M  ISO  4  40 100  65 101  75 100  86 101
M  END
> <Batch ID>
0047

> <Smiles>
C=C1C([101CH2:1][101O:1]c2ccc3c(c2)CN(C(=O)C(NC(=O)C(C)NC)C(C)(C)C)C(C(=O)NC2CCCc4ccccc42)C3)CCCN1Cc1cc(C)cc(C)c1[100NH:0][100C:0](=O)N1CCCC(n2nc(-c3ccc(Oc4ccc(F)cc4F)cc3)c(C(N)=O)c2N)C1

> <Shape>
0.220

> <Color>
0.072

> <Negative vol penalty>
0.000

$$$$

  -OEChem-04042322263D

 87 96  0     1  0  0  0  0  0999 V2000
  -28.2551  -38.4431   22.3449 C   0  0  0  0  0  0  0  0  0  0  0  0
  -28.7948  -37.6161   23.3248 C   0  0  0  0  0  0  0  0  0  0  0  0
  -24.4948   -9.1083   21.2509 C   0  0  0  0  0  0  0  0  0  0  0  0
  -22.6104  -10.5321   20.7420 C   0  0  0  0  0  0  0  0  0  0  0  0
  -26.8812  -38.4361   22.1076 C   0  0  0  0  0  0  0  0  0  0  0  0
  -27.9607  -36.7822   24.0687 C   0  0  0  0  0  0  0  0  0  0  0  0
  -28.9230  -29.6433   24.0964 C   0  0  0  0  0  0  0  0  0  0  0  0
  -23.6291   -8.0321   21.4457 C   0  0  0  0  0  0  0  0  0  0  0  0
  -21.7446   -9.4559   20.9368 C   0  0  0  0  0  0  0  0  0  0  0  0
  -29.1723  -28.2891   24.3205 C   0  0  0  0  0  0  0  0  0  0  0  0
  -21.5554   -6.9110   23.8679 C   0  0  0  0  0  0  0  0  0  0  0  0
  -21.7643   -6.1067   24.9882 C   0  0  0  0  0  0  0  0  0  0  0  0
  -27.2012  -28.1458   25.7141 C   0  0  0  0  0  0  0  0  0  0  0  0
  -23.2774  -21.8604   24.1798 C   0  0  0  0  0  0  0  0  0  0  0  0
  -24.8769  -23.5093   24.9279 C   0  0  0  0  0  0  0  0  0  0  0  0
  -22.0946   -4.1922   23.5520 C   0  0  0  0  0  0  0  0  0  0  0  0
  -23.9854  -10.3583   20.8991 C   0  0  0  0  0  0  0  0  0  0  0  0
  -25.9225  -11.5637   19.7578 C   0  0  0  0  0  0  0  0  0  0  0  0
  -26.0310  -37.5946   22.8423 C   0  0  0  0  0  0  0  0  0  0  0  0
  -27.8019  -30.2509   24.6685 C   0  0  0  0  0  0  0  0  0  0  0  0
  -26.5740  -36.7649   23.8418 C   0  0  0  0  0  0  0  0  0  0  0  0
  -26.9394  -29.4989   25.4831 C   0  0  0  0  0  0  0  0  0  0  0  0
  -24.2084  -21.3736   23.2622 C   0  0  0  0  0  0  0  0  0  0  0  0
  -25.4737  -21.9546   23.1775 C   0  0  0  0  0  0  0  0  0  0  0  0
  -25.8080  -23.0225   24.0103 C   0  0  0  0  0  0  0  0  0  0  0  0
  -22.2540   -8.2059   21.2886 C   0  0  0  0  0  0  0  0  0  0  0  0
  -28.3137  -27.5423   25.1276 C   0  0  0  0  0  0  0  0  0  0  0  0
  -21.6159   -6.3559   22.5896 C   0  0  0  0  0  0  0  0  0  0  0  0
  -22.0340   -4.7473   24.8302 C   0  0  0  0  0  0  0  0  0  0  0  0
  -21.8856   -4.9965   22.4317 C   0  0  0  0  0  0  0  0  0  0  0  0
  -23.6117  -22.9284   25.0126 C   0  0  0  0  0  0  0  0  0  0  0  0
  -24.8791  -11.4706   20.6982 C   0  0  0  0  0  0  0  0  0  0  0  0
  -26.4650  -12.8077   19.9688 C   0  0  0  0  0  0  0  0  0  0  0  0
  -28.1892  -23.2001   24.7084 C   0  0  0  0  0  0  0  0  0  0  0  0
  -28.2630  -22.0446   25.4001 C   0  0  0  0  0  0  0  0  0  0  0  0
  -26.3619  -10.6108   18.7806 C   0  0  0  0  0  0  0  0  0  0  0  0
  -25.7718  -33.3786   25.0839 C   0  0  0  0  0  0  0  0  0  0  0  0
  -23.7854  -31.0630   24.7634 C   0  0  0  0  0  0  0  0  0  0  0  0
  -22.2389  -28.6174   23.5266 C   0  0  0  0  0  0  0  0  0  0  0  0
  -24.1645  -17.7807   22.1671 C   0  0  0  0  0  0  0  0  0  0  0  0
  -24.5467  -37.6564   22.5824 C   0  0  0  0  0  0  0  0  0  0  0  0
  -27.5279  -31.7212   24.5043 C   0  0  0  0  0  0  0  0  0  0  0  0
  -25.7649  -30.2027   26.1059 C   0  0  0  0  0  0  0  0  0  0  0  0
  -29.4396  -24.0655   24.7292 C   0  0  0  0  0  0  0  0  0  0  0  0
  -23.7778  -36.4694   23.1571 C   0  0  0  0  0  0  0  0  0  0  0  0
  -27.1094  -16.0785   23.4030 C   0  0  0  0  0  0  0  0  0  0  0  0
  -24.2167  -36.1931   24.5916 C   0  0  0  0  0  0  0  0  0  0  0  0
  -26.9620  -14.7029   22.7503 C   0  0  0  0  0  0  0  0  0  0  0  0
  -28.4053  -25.5482   23.0140 C   0  0  0  0  0  0  0  0  0  0  0  0
  -25.7544  -16.6370   23.8275 C   0  0  0  0  0  0  0  0  0  0  0  0
  -27.0360  -24.9093   23.2119 C   0  0  0  0  0  0  0  0  0  0  0  0
  -24.6006  -15.3426   22.0762 C   0  0  0  0  0  0  0  0  0  0  0  0
  -25.7049  -35.8282   24.6526 C   0  0  1  0  0  0  0  0  0  0  0  0
  -26.0262  -32.0510   24.4326 C   0  0  1  0  0  0  0  0  0  0  0  0
  -25.9335  -14.7338   21.6042 C   0  0  2  0  0  0  0  0  0  0  0  0
  -29.2217  -25.5102   24.2953 C   0  0  1  0  0  0  0  0  0  1  0  0
  -26.4694  -21.4301   22.1910 C   0  0  0  0  0  0  0  0  0  0  0  0
  -20.6562  -26.8725   22.6616 C   0  0  0  0  0  0  0  0  0  0  0  0
  -23.3609  -31.0375   27.7839 C   0  0  0  0  0  0  0  0  0  0  0  0
  -21.4603  -29.4463   27.4320 C   0  0  0  0  0  0  0  0  0  0  0  0
  -21.3620  -31.7394   26.4550 C   0  0  0  0  0  0  0  0  0  0  0  0
  -21.7827  -30.1111   21.0127 C   0  0  0  0  0  0  0  0  0  0  0  0
  -23.8253  -20.2293   22.3820 C   0  0  0  0  0  0  0  0  0  0  0  0
  -22.9272  -30.0288   25.4471 C   0  0  1  0  0  0  0  0  0  0  0  0
  -21.0565  -28.3390   22.6161 C   0  0  2  0  0  0  0  0  0  0  0  0
  -22.3037  -30.5568   26.7699 C   0  0  0  0  0  0  0  0  0  0  0  0
  -24.7639  -12.5679   21.4509 N   0  0  0  0  0  0  0  0  0  0  0  0
  -25.7420  -13.3624   20.9836 N   0  0  0  0  0  0  0  0  0  0  0  0
  -27.0966  -23.6297   23.9391 N   0  0  0  0  0  0  0  0  0  0  0  0
  -25.1381  -31.1003   25.1230 N   0  0  0  0  0  0  0  0  0  0  0  0
  -24.8278  -16.6567   22.6868 N   0  0  0  0  0  0  0  0  0  0  0  0
  -27.4852  -13.4702   19.3836 N   0  0  0  0  0  0  0  0  0  0  0  0
  -27.3495   -9.6860   19.1462 N   0  0  0  0  0  0  0  0  0  0  0  0
  -25.9069  -34.4582   24.2320 N   0  0  0  0  0  0  0  0  0  0  0  0
  -21.9482  -29.5920   24.4576 N   0  0  0  0  0  0  0  0  0  0  0  0
  -24.4288  -18.9857   22.8065 N   0  0  0  0  0  0  0  0  0  0  0  0
  -21.3932  -28.6908   21.2077 N   0  3  0  0  0  0  0  0  0  0  0  0
  -25.9044  -10.5910   17.6128 O   0  0  0  0  0  0  0  0  0  0  0  0
  -25.4733  -33.4216   26.2716 O   0  0  0  0  0  0  0  0  0  0  0  0
  -23.2718  -31.8222   23.9369 O   0  0  0  0  0  0  0  0  0  0  0  0
  -23.3117  -28.0264   23.4247 O   0  0  0  0  0  0  0  0  0  0  0  0
  -23.3970  -17.7162   21.2006 O   0  0  0  0  0  0  0  0  0  0  0  0
  -21.4090   -7.1559   21.4784 O   0  0  0  0  0  0  0  0  0  0  0  0
  -28.5606  -26.2197   25.3385 O   0  0  0  0  0  0  0  0  0  1  0  0
  -22.2362   -3.9753   25.9060 F   0  0  0  0  0  0  0  0  0  0  0  0
  -21.9462   -4.4577   21.2062 F   0  0  0  0  0  0  0  0  0  0  0  0
  -22.4631  -23.5283   26.1451 Cl  0  0  0  0  0  0  0  0  0  0  0  0
  1  2  1  0  0  0  0
  1  5  2  0  0  0  0
  2  6  2  0  0  0  0
  3  8  2  0  0  0  0
  3 17  1  0  0  0  0
  4  9  1  0  0  0  0
  4 17  2  0  0  0  0
  5 19  1  0  0  0  0
  6 21  1  0  0  0  0
  7 10  2  0  0  0  0
  7 20  1  0  0  0  0
  8 26  1  0  0  0  0
  9 26  2  0  0  0  0
 10 27  1  0  0  0  0
 11 12  2  0  0  0  0
 11 28  1  0  0  0  0
 12 29  1  0  0  0  0
 13 22  1  0  0  0  0
 13 27  2  0  0  0  0
 14 23  2  0  0  0  0
 14 31  1  0  0  0  0
 15 25  1  0  0  0  0
 15 31  2  0  0  0  0
 16 29  2  0  0  0  0
 16 30  1  0  0  0  0
 17 32  1  0  0  0  0
 18 32  1  0  0  0  0
 18 33  2  0  0  0  0
 18 36  1  0  0  0  0
 19 21  2  0  0  0  0
 19 41  1  0  0  0  0
 20 22  2  0  0  0  0
 20 42  1  0  0  0  0
 21 53  1  0  0  0  0
 22 43  1  0  0  0  0
 23 24  1  0  0  0  0
 23 63  1  0  0  0  0
 24 25  2  0  0  0  0
 24 57  1  0  0  0  0
 25 69  1  0  0  0  0
 26 83  1  0  0  0  0
 27 84  1  0  0  0  0
 28 30  2  0  0  0  0
 28 83  1  0  0  0  0
 29 85  1  0  0  0  0
 30 86  1  0  0  0  0
 31 87  1  0  0  0  0
 32 67  2  0  0  0  0
 33 68  1  0  0  0  0
 33 72  1  0  0  0  0
 34 35  2  0  0  0  0
 34 44  1  0  0  0  0
 34 69  1  0  0  0  0
 36 73  1  0  0  0  0
 36 78  2  0  0  0  0
 37 54  1  0  0  0  0
 37 74  1  0  0  0  0
 37 79  2  0  0  0  0
 38 64  1  0  0  0  0
 38 70  1  0  0  0  0
 38 80  2  0  0  0  0
 39 65  1  0  0  0  0
 39 75  1  0  0  0  0
 39 81  2  0  0  0  0
 40 71  1  0  0  0  0
 40 76  1  0  0  0  0
 40 82  2  0  0  0  0
 41 45  1  0  0  0  0
 42 54  1  0  0  0  0
 43 70  1  0  0  0  0
 44 56  1  0  0  0  0
 45 47  1  0  0  0  0
 46 48  1  0  0  0  0
 46 50  1  0  0  0  0
 47 53  1  0  0  0  0
 48 55  1  0  0  0  0
 49 51  1  0  0  0  0
 49 56  1  0  0  0  0
 50 71  1  0  0  0  0
 51 69  1  0  0  0  0
 52 55  1  0  0  0  0
 52 71  1  0  0  0  0
 53 74  1  0  0  0  0
 54 70  1  0  0  0  0
 55 68  1  0  0  0  0
 56 84  1  0  0  0  0
 58 65  1  0  0  0  0
 59 66  1  0  0  0  0
 60 66  1  0  0  0  0
 61 66  1  0  0  0  0
 62 77  1  0  0  0  0
 63 76  1  0  0  0  0
 64 66  1  0  0  0  0
 64 75  1  0  0  0  0
 65 77  1  0  0  0  0
 67 68  1  0  0  0  0
M  CHG  1  77   1
M  ISO  4  40 100  56 101  76 100  84 101
M  END
> <Batch ID>
0047

> <Smiles>
C=C1C[101CH:1]([101O:1]c2ccc3c(c2)CN(C(=O)C(NC(=O)C(C)NC)C(C)(C)C)C(C(=O)NC2CCCc4ccccc42)C3)CCN1c1cc(Cl)cc(C[100NH:0][100C:0](=O)N2CCCC(n3nc(-c4ccc(Oc5ccc(F)cc5F)cc4)c(C(N)=O)c3N)C2)c1C

> <Shape>
0.255

> <Color>
0.117

> <Negative vol penalty>
0.000

$$$$

  -OEChem-04042322263D

 89 98  0     1  0  0  0  0  0999 V2000
  -20.0819  -22.9360   22.0096 C   0  0  0  0  0  0  0  0  0  0  0  0
  -21.4297  -22.7860   21.6992 C   0  0  0  0  0  0  0  0  0  0  0  0
  -24.1110  -27.9258   23.0046 C   0  0  0  0  0  0  0  0  0  0  0  0
  -22.8245  -27.5371   20.9969 C   0  0  0  0  0  0  0  0  0  0  0  0
  -19.4137  -21.9337   22.7115 C   0  0  0  0  0  0  0  0  0  0  0  0
  -22.1104  -21.6340   22.0917 C   0  0  0  0  0  0  0  0  0  0  0  0
  -26.5961  -18.7896   19.0432 C   0  0  0  0  0  0  0  0  0  0  0  0
  -32.4749  -23.0599   23.3775 C   0  0  0  0  0  0  0  0  0  0  0  0
  -22.9515  -27.8068   23.7707 C   0  0  0  0  0  0  0  0  0  0  0  0
  -21.6650  -27.4180   21.7630 C   0  0  0  0  0  0  0  0  0  0  0  0
  -27.9840  -18.8217   19.1712 C   0  0  0  0  0  0  0  0  0  0  0  0
  -19.4749  -29.4814   23.3049 C   0  0  0  0  0  0  0  0  0  0  0  0
  -33.1985  -24.1279   23.9079 C   0  0  0  0  0  0  0  0  0  0  0  0
  -18.3325  -30.1457   22.8588 C   0  0  0  0  0  0  0  0  0  0  0  0
  -27.8982  -16.8341   20.5355 C   0  0  0  0  0  0  0  0  0  0  0  0
  -33.2760  -25.1596   21.7246 C   0  0  0  0  0  0  0  0  0  0  0  0
  -17.1640  -28.0363   22.7100 C   0  0  0  0  0  0  0  0  0  0  0  0
  -24.0475  -27.7910   21.6177 C   0  0  0  0  0  0  0  0  0  0  0  0
  -26.0951  -29.0331   20.7388 C   0  0  0  0  0  0  0  0  0  0  0  0
  -20.0840  -20.7646   23.1044 C   0  0  0  0  0  0  0  0  0  0  0  0
  -25.8466  -17.7841   19.6705 C   0  0  0  0  0  0  0  0  0  0  0  0
  -21.4508  -20.6157   22.8008 C   0  0  0  0  0  0  0  0  0  0  0  0
  -26.5011  -16.7900   20.4118 C   0  0  0  0  0  0  0  0  0  0  0  0
  -32.1520  -23.0416   22.0206 C   0  0  0  0  0  0  0  0  0  0  0  0
  -32.5525  -24.0915   21.1942 C   0  0  0  0  0  0  0  0  0  0  0  0
  -21.7285  -27.5529   23.1499 C   0  0  0  0  0  0  0  0  0  0  0  0
  -28.6350  -17.8455   19.9198 C   0  0  0  0  0  0  0  0  0  0  0  0
  -19.4620  -28.0945   23.4535 C   0  0  0  0  0  0  0  0  0  0  0  0
  -33.5990  -25.1778   23.0815 C   0  0  0  0  0  0  0  0  0  0  0  0
  -17.1770  -29.4232   22.5614 C   0  0  0  0  0  0  0  0  0  0  0  0
  -18.3065  -27.3719   23.1561 C   0  0  0  0  0  0  0  0  0  0  0  0
  -25.2449  -27.9144   20.8257 C   0  0  0  0  0  0  0  0  0  0  0  0
  -27.0805  -28.6482   19.8629 C   0  0  0  0  0  0  0  0  0  0  0  0
  -31.3592  -19.4605   21.2843 C   0  0  0  0  0  0  0  0  0  0  0  0
  -31.9990  -18.2937   24.7068 C   0  0  0  0  0  0  0  0  0  0  0  0
  -31.3174  -18.7104   22.3978 C   0  0  0  0  0  0  0  0  0  0  0  0
  -32.0410  -19.0410   23.5982 C   0  0  0  0  0  0  0  0  0  0  0  0
  -26.0024  -30.3063   21.3915 C   0  0  0  0  0  0  0  0  0  0  0  0
  -23.5828  -17.7350   21.9013 C   0  0  0  0  0  0  0  0  0  0  0  0
  -23.4754  -14.5766   21.1697 C   0  0  0  0  0  0  0  0  0  0  0  0
  -25.0733  -11.8403   19.9025 C   0  0  0  0  0  0  0  0  0  0  0  0
  -30.1551  -23.9768   18.3665 C   0  0  0  0  0  0  0  0  0  0  0  0
  -19.3315  -19.7297   23.9027 C   0  0  0  0  0  0  0  0  0  0  0  0
  -24.3525  -17.7481   19.5006 C   0  0  0  0  0  0  0  0  0  0  0  0
  -25.7441  -15.6774   21.0882 C   0  0  0  0  0  0  0  0  0  0  0  0
  -20.0309  -18.3738   23.9551 C   0  0  0  0  0  0  0  0  0  0  0  0
  -27.4698  -25.1794   16.3617 C   0  0  0  0  0  0  0  0  0  0  0  0
  -32.4129  -20.4661   18.8149 C   0  0  0  0  0  0  0  0  0  0  0  0
  -21.5122  -18.5493   24.2744 C   0  0  0  0  0  0  0  0  0  0  0  0
  -31.5766  -19.1914   18.8146 C   0  0  0  0  0  0  0  0  0  0  0  0
  -26.7013  -26.1113   17.3004 C   0  0  0  0  0  0  0  0  0  0  0  0
  -28.0249  -23.9648   17.1022 C   0  0  0  0  0  0  0  0  0  0  0  0
  -28.0752  -25.2146   19.2257 C   0  0  0  0  0  0  0  0  0  0  0  0
  -33.1452  -20.6518   20.1398 C   0  0  0  0  0  0  0  0  0  0  0  0
  -22.2174  -19.3696   23.1876 C   0  0  1  0  0  0  0  0  0  0  0  0
  -30.6172  -19.1525   20.0031 C   0  0  1  0  0  0  0  0  0  1  0  0
  -23.6438  -16.9735   20.6075 C   0  0  1  0  0  0  0  0  0  0  0  0
  -27.5440  -26.4825   18.5355 C   0  0  2  0  0  0  0  0  0  0  0  0
  -24.7428   -9.3904   19.4706 C   0  0  0  0  0  0  0  0  0  0  0  0
  -23.8615  -14.0031   24.1415 C   0  0  0  0  0  0  0  0  0  0  0  0
  -24.4688  -11.6505   23.5374 C   0  0  0  0  0  0  0  0  0  0  0  0
  -22.1954  -12.5266   23.0020 C   0  0  0  0  0  0  0  0  0  0  0  0
  -25.4473  -12.1854   16.9870 C   0  0  0  0  0  0  0  0  0  0  0  0
  -32.2201  -24.0932   19.7381 C   0  0  0  0  0  0  0  0  0  0  0  0
  -31.3739  -21.8816   21.4731 C   0  0  0  0  0  0  0  0  0  0  0  0
  -24.1828  -13.3393   21.6672 C   0  0  1  0  0  0  0  0  0  0  0  0
  -24.6333  -10.7937   18.8948 C   0  0  2  0  0  0  0  0  0  0  0  0
  -23.6915  -12.9018   23.0760 C   0  0  0  0  0  0  0  0  0  0  0  0
  -25.6543  -26.8953   20.0656 N   0  0  0  0  0  0  0  0  0  0  0  0
  -26.7725  -27.3722   19.4926 N   0  0  0  0  0  0  0  0  0  0  0  0
  -24.2843  -15.6891   20.8978 N   0  0  0  0  0  0  0  0  0  0  0  0
  -28.8154  -24.3856   18.2615 N   0  0  0  0  0  0  0  0  0  0  0  0
  -28.1718  -29.2802   19.3810 N   0  0  0  0  0  0  0  0  0  0  0  0
  -25.2923  -31.3334   20.7549 N   0  0  0  0  0  0  0  0  0  0  0  0
  -22.4738  -18.5504   22.0225 N   0  0  0  0  0  0  0  0  0  0  0  0
  -24.0090  -12.3257   20.6324 N   0  0  0  0  0  0  0  0  0  0  0  0
  -30.8343  -24.4249   19.4928 N   0  0  0  0  0  0  0  0  0  0  0  0
  -32.2023  -20.6356   21.3208 N   0  3  1  0  0  0  0  0  0  0  0  0
  -25.4790  -10.8663   17.6698 N   0  3  0  0  0  0  0  0  0  0  0  0
  -26.5474  -30.5316   22.4986 O   0  0  0  0  0  0  0  0  0  0  0  0
  -24.4750  -17.5922   22.7291 O   0  0  0  0  0  0  0  0  0  0  0  0
  -22.2511  -14.5545   21.0207 O   0  0  0  0  0  0  0  0  0  0  0  0
  -26.2446  -12.1893   20.0320 O   0  0  0  0  0  0  0  0  0  0  0  0
  -30.7068  -23.2696   17.5165 O   0  0  0  0  0  0  0  0  0  0  0  0
  -20.5968  -27.4365   23.8972 O   0  0  0  0  0  0  0  0  0  0  0  0
  -29.9896  -17.8749   20.0469 O   0  0  0  0  0  0  0  0  0  1  0  0
  -34.2932  -26.2038   23.5908 F   0  0  0  0  0  0  0  0  0  0  0  0
  -16.0794  -30.0614   22.1345 F   0  0  0  0  0  0  0  0  0  0  0  0
  -18.2877  -26.0395   23.2980 F   0  0  0  0  0  0  0  0  0  0  0  0
  1  2  1  0  0  0  0
  1  5  2  0  0  0  0
  2  6  2  0  0  0  0
  3  9  2  0  0  0  0
  3 18  1  0  0  0  0
  4 10  1  0  0  0  0
  4 18  2  0  0  0  0
  5 20  1  0  0  0  0
  6 22  1  0  0  0  0
  7 11  2  0  0  0  0
  7 21  1  0  0  0  0
  8 13  2  0  0  0  0
  8 24  1  0  0  0  0
  9 26  1  0  0  0  0
 10 26  2  0  0  0  0
 11 27  1  0  0  0  0
 12 14  2  0  0  0  0
 12 28  1  0  0  0  0
 13 29  1  0  0  0  0
 14 30  1  0  0  0  0
 15 23  1  0  0  0  0
 15 27  2  0  0  0  0
 16 25  1  0  0  0  0
 16 29  2  0  0  0  0
 17 30  2  0  0  0  0
 17 31  1  0  0  0  0
 18 32  1  0  0  0  0
 19 32  1  0  0  0  0
 19 33  2  0  0  0  0
 19 38  1  0  0  0  0
 20 22  2  0  0  0  0
 20 43  1  0  0  0  0
 21 23  2  0  0  0  0
 21 44  1  0  0  0  0
 22 55  1  0  0  0  0
 23 45  1  0  0  0  0
 24 25  2  0  0  0  0
 24 65  1  0  0  0  0
 25 64  1  0  0  0  0
 26 85  1  0  0  0  0
 27 86  1  0  0  0  0
 28 31  2  0  0  0  0
 28 85  1  0  0  0  0
 29 87  1  0  0  0  0
 30 88  1  0  0  0  0
 31 89  1  0  0  0  0
 32 69  2  0  0  0  0
 33 70  1  0  0  0  0
 33 73  1  0  0  0  0
 34 36  2  0  0  0  0
 34 56  1  0  0  0  0
 34 78  1  0  0  0  0
 35 37  2  0  0  0  0
 36 37  1  0  0  0  0
 38 74  1  0  0  0  0
 38 80  2  0  0  0  0
 39 57  1  0  0  0  0
 39 75  1  0  0  0  0
 39 81  2  0  0  0  0
 40 66  1  0  0  0  0
 40 71  1  0  0  0  0
 40 82  2  0  0  0  0
 41 67  1  0  0  0  0
 41 76  1  0  0  0  0
 41 83  2  0  0  0  0
 42 72  1  0  0  0  0
 42 77  1  0  0  0  0
 42 84  2  0  0  0  0
 43 46  1  0  0  0  0
 44 57  1  0  0  0  0
 45 71  1  0  0  0  0
 46 49  1  0  0  0  0
 47 51  1  0  0  0  0
 47 52  1  0  0  0  0
 48 50  1  0  0  0  0
 48 54  1  0  0  0  0
 49 55  1  0  0  0  0
 50 56  1  0  0  0  0
 51 58  1  0  0  0  0
 52 72  1  0  0  0  0
 53 58  1  0  0  0  0
 53 72  1  0  0  0  0
 54 78  1  0  0  0  0
 55 75  1  0  0  0  0
 56 86  1  0  0  0  0
 57 71  1  0  0  0  0
 58 70  1  0  0  0  0
 59 67  1  0  0  0  0
 60 68  1  0  0  0  0
 61 68  1  0  0  0  0
 62 68  1  0  0  0  0
 63 79  1  0  0  0  0
 64 77  1  0  0  0  0
 65 78  1  0  0  0  0
 66 68  1  0  0  0  0
 66 76  1  0  0  0  0
 67 79  1  0  0  0  0
 69 70  1  0  0  0  0
M  CHG  2  78   1  79   1
M  ISO  4  42 100  56 101  77 100  86 101
M  END
> <Batch ID>
0047

> <Smiles>
C=CC=C1N(Cc2ccc(F)cc2C[100NH:0][100C:0](=O)N2CCCC(n3nc(-c4ccc(Oc5ccc(F)cc5F)cc4)c(C(N)=O)c3N)C2)CCC[101CH:1]1[101O:1]c1ccc2c(c1)CN(C(=O)C(NC(=O)C(C)NC)C(C)(C)C)C(C(=O)NC1CCCc3ccccc31)C2

> <Shape>
0.209

> <Color>
0.067

> <Negative vol penalty>
0.000

$$$$

  -OEChem-04042322263D

 84 92  0     1  0  0  0  0  0999 V2000
  -16.6135  -29.0897   23.7652 C   0  0  0  0  0  0  0  0  0  0  0  0
  -17.2282  -28.4519   22.6924 C   0  0  0  0  0  0  0  0  0  0  0  0
  -28.0715   -9.9772   21.4740 C   0  0  0  0  0  0  0  0  0  0  0  0
  -26.2519  -11.2877   20.5747 C   0  0  0  0  0  0  0  0  0  0  0  0
  -17.2233  -30.1928   24.3613 C   0  0  0  0  0  0  0  0  0  0  0  0
  -18.4525  -28.9176   22.2143 C   0  0  0  0  0  0  0  0  0  0  0  0
  -21.7463  -25.1728   21.3355 C   0  0  0  0  0  0  0  0  0  0  0  0
  -27.4091  -21.5624   21.2982 C   0  0  0  0  0  0  0  0  0  0  0  0
  -28.3226  -20.5126   21.2039 C   0  0  0  0  0  0  0  0  0  0  0  0
  -27.1555   -9.1586   22.1345 C   0  0  0  0  0  0  0  0  0  0  0  0
  -25.3359  -10.4689   21.2351 C   0  0  0  0  0  0  0  0  0  0  0  0
  -21.5764  -24.4375   20.1632 C   0  0  0  0  0  0  0  0  0  0  0  0
  -23.9510   -7.4186   20.7900 C   0  0  0  0  0  0  0  0  0  0  0  0
  -22.8352   -6.9870   20.0729 C   0  0  0  0  0  0  0  0  0  0  0  0
  -26.8347  -19.3533   19.6942 C   0  0  0  0  0  0  0  0  0  0  0  0
  -23.3244  -25.7238   19.1101 C   0  0  0  0  0  0  0  0  0  0  0  0
  -21.3868   -8.0727   21.6731 C   0  0  0  0  0  0  0  0  0  0  0  0
  -27.6198  -11.0419   20.6941 C   0  0  0  0  0  0  0  0  0  0  0  0
  -25.9211  -20.4031   19.7885 C   0  0  0  0  0  0  0  0  0  0  0  0
  -29.0810  -11.7133   18.7138 C   0  0  0  0  0  0  0  0  0  0  0  0
  -18.4604  -30.6663   23.8964 C   0  0  0  0  0  0  0  0  0  0  0  0
  -22.7006  -26.1982   21.4005 C   0  0  0  0  0  0  0  0  0  0  0  0
  -19.0787  -30.0289   22.8039 C   0  0  0  0  0  0  0  0  0  0  0  0
  -23.5062  -26.4690   20.2852 C   0  0  0  0  0  0  0  0  0  0  0  0
  -26.2082  -21.5077   20.5905 C   0  0  0  0  0  0  0  0  0  0  0  0
  -28.0354  -19.4081   20.4019 C   0  0  0  0  0  0  0  0  0  0  0  0
  -25.7877   -9.4043   22.0150 C   0  0  0  0  0  0  0  0  0  0  0  0
  -22.3635  -24.7148   19.0494 C   0  0  0  0  0  0  0  0  0  0  0  0
  -23.7848   -8.1771   21.9487 C   0  0  0  0  0  0  0  0  0  0  0  0
  -21.5531   -7.3141   20.5144 C   0  0  0  0  0  0  0  0  0  0  0  0
  -22.5027   -8.5042   22.3903 C   0  0  0  0  0  0  0  0  0  0  0  0
  -28.5655  -11.8883   20.0121 C   0  0  0  0  0  0  0  0  0  0  0  0
  -29.9328  -12.7761   18.5365 C   0  0  0  0  0  0  0  0  0  0  0  0
  -24.6557  -20.3261   19.0313 C   0  0  0  0  0  0  0  0  0  0  0  0
  -28.8136  -10.6824   17.7539 C   0  0  0  0  0  0  0  0  0  0  0  0
  -22.5903  -29.3377   21.8852 C   0  0  0  0  0  0  0  0  0  0  0  0
  -25.8221  -29.0581   21.8858 C   0  0  0  0  0  0  0  0  0  0  0  0
  -28.5777  -27.2951   20.9137 C   0  0  0  0  0  0  0  0  0  0  0  0
  -30.2004  -18.2390   20.9428 C   0  0  0  0  0  0  0  0  0  0  0  0
  -19.0581  -31.8911   24.5424 C   0  0  0  0  0  0  0  0  0  0  0  0
  -22.8899  -26.9643   22.6809 C   0  0  0  0  0  0  0  0  0  0  0  0
  -24.5588  -27.5460   20.3100 C   0  0  0  0  0  0  0  0  0  0  0  0
  -20.5358  -32.0919   24.2166 C   0  0  0  0  0  0  0  0  0  0  0  0
  -32.7574  -15.7618   20.9944 C   0  0  0  0  0  0  0  0  0  0  0  0
  -20.7826  -31.9093   22.7224 C   0  0  0  0  0  0  0  0  0  0  0  0
  -32.0207  -14.4725   20.6242 C   0  0  0  0  0  0  0  0  0  0  0  0
  -31.8978  -16.6761   21.8655 C   0  0  0  0  0  0  0  0  0  0  0  0
  -29.8321  -15.6934   20.9510 C   0  0  0  0  0  0  0  0  0  0  0  0
  -20.4189  -30.4891   22.2726 C   0  0  1  0  0  0  0  0  0  0  0  0
  -23.5381  -28.3292   22.4703 C   0  0  1  0  0  0  0  0  0  0  0  0
  -30.6341  -14.7693   20.0201 C   0  0  2  0  0  0  0  0  0  0  0  0
  -25.2466  -22.6446   20.7071 C   0  0  0  0  0  0  0  0  0  0  0  0
  -31.0002  -26.6579   20.7619 C   0  0  0  0  0  0  0  0  0  0  0  0
  -25.8855  -31.2328   19.7465 C   0  0  0  0  0  0  0  0  0  0  0  0
  -28.2435  -30.5640   19.2356 C   0  0  0  0  0  0  0  0  0  0  0  0
  -27.6594  -31.4396   21.4973 C   0  0  0  0  0  0  0  0  0  0  0  0
  -28.3955  -25.5747   23.3149 C   0  0  0  0  0  0  0  0  0  0  0  0
  -23.2376  -22.4871   16.3564 C   0  0  0  0  0  0  0  0  0  0  0  0
  -23.1776  -21.3099   17.3155 C   0  0  0  0  0  0  0  0  0  0  0  0
  -23.3488  -23.8252   17.0761 C   0  0  0  0  0  0  0  0  0  1  0  0
  -26.9008  -29.1215   20.8316 C   0  0  1  0  0  0  0  0  0  0  0  0
  -29.8035  -26.8369   21.6831 C   0  0  2  0  0  0  0  0  0  0  0  0
  -27.1512  -30.5704   20.3263 C   0  0  0  0  0  0  0  0  0  0  0  0
  -29.0496  -12.9764   20.6168 N   0  0  0  0  0  0  0  0  0  0  0  0
  -29.8782  -13.4948   19.6944 N   0  0  0  0  0  0  0  0  0  0  0  0
  -24.7015  -28.2716   21.5830 N   0  0  0  0  0  0  0  0  0  0  0  0
  -30.6015  -16.9166   21.2278 N   0  0  0  0  0  0  0  0  0  0  0  0
  -30.7158  -13.1565   17.5047 N   0  0  0  0  0  0  0  0  0  0  0  0
  -23.8313  -19.3103   19.2874 N   0  0  0  0  0  0  0  0  0  0  0  0
  -27.9122   -9.6660   18.0987 N   0  0  0  0  0  0  0  0  0  0  0  0
  -28.9639  -18.3419   20.3064 N   0  0  0  0  0  0  0  0  0  0  0  0
  -21.4603  -29.5574   22.6495 N   0  0  0  0  0  0  0  0  0  0  0  0
  -28.0758  -28.4792   21.4108 N   0  0  0  0  0  0  0  0  0  0  0  0
  -24.3969  -21.2763   18.1235 N   0  3  0  0  0  0  0  0  0  0  0  0
  -29.5338  -25.5375   22.3611 N   0  3  0  0  0  0  0  0  0  0  0  0
  -29.3703  -10.6541   16.6302 O   0  0  0  0  0  0  0  0  0  0  0  0
  -22.8647  -29.8777   20.8199 O   0  0  0  0  0  0  0  0  0  0  0  0
  -25.9715  -29.6776   22.9420 O   0  0  0  0  0  0  0  0  0  0  0  0
  -28.1143  -26.6674   19.9641 O   0  0  0  0  0  0  0  0  0  0  0  0
  -30.9144  -19.2070   21.2167 O   0  0  0  0  0  0  0  0  0  0  0  0
  -24.8936   -8.6055   22.6592 O   0  0  0  0  0  0  0  0  0  0  0  0
  -22.1993  -23.9990   17.9037 O   0  0  0  0  0  0  0  0  0  1  0  0
  -20.4817   -6.9009   19.8248 F   0  0  0  0  0  0  0  0  0  0  0  0
  -22.3367   -9.2337   23.5021 F   0  0  0  0  0  0  0  0  0  0  0  0
  1  2  1  0  0  0  0
  1  5  2  0  0  0  0
  2  6  2  0  0  0  0
  3 10  2  0  0  0  0
  3 18  1  0  0  0  0
  4 11  1  0  0  0  0
  4 18  2  0  0  0  0
  5 21  1  0  0  0  0
  6 23  1  0  0  0  0
  7 12  2  0  0  0  0
  7 22  1  0  0  0  0
  8  9  2  0  0  0  0
  8 25  1  0  0  0  0
  9 26  1  0  0  0  0
 10 27  1  0  0  0  0
 11 27  2  0  0  0  0
 12 28  1  0  0  0  0
 13 14  2  0  0  0  0
 13 29  1  0  0  0  0
 14 30  1  0  0  0  0
 15 19  1  0  0  0  0
 15 26  2  0  0  0  0
 16 24  1  0  0  0  0
 16 28  2  0  0  0  0
 17 30  2  0  0  0  0
 17 31  1  0  0  0  0
 18 32  1  0  0  0  0
 19 25  2  0  0  0  0
 19 34  1  0  0  0  0
 20 32  1  0  0  0  0
 20 33  2  0  0  0  0
 20 35  1  0  0  0  0
 21 23  2  0  0  0  0
 21 40  1  0  0  0  0
 22 24  2  0  0  0  0
 22 41  1  0  0  0  0
 23 49  1  0  0  0  0
 24 42  1  0  0  0  0
 25 52  1  0  0  0  0
 26 71  1  0  0  0  0
 27 81  1  0  0  0  0
 28 82  1  0  0  0  0
 29 31  2  0  0  0  0
 29 81  1  0  0  0  0
 30 83  1  0  0  0  0
 31 84  1  0  0  0  0
 32 64  2  0  0  0  0
 33 65  1  0  0  0  0
 33 68  1  0  0  0  0
 34 69  1  0  0  0  0
 34 74  2  0  0  0  0
 35 70  1  0  0  0  0
 35 76  2  0  0  0  0
 36 50  1  0  0  0  0
 36 72  1  0  0  0  0
 36 77  2  0  0  0  0
 37 61  1  0  0  0  0
 37 66  1  0  0  0  0
 37 78  2  0  0  0  0
 38 62  1  0  0  0  0
 38 73  1  0  0  0  0
 38 79  2  0  0  0  0
 39 67  1  0  0  0  0
 39 71  1  0  0  0  0
 39 80  2  0  0  0  0
 40 43  1  0  0  0  0
 41 50  1  0  0  0  0
 42 66  1  0  0  0  0
 43 45  1  0  0  0  0
 44 46  1  0  0  0  0
 44 47  1  0  0  0  0
 45 49  1  0  0  0  0
 46 51  1  0  0  0  0
 47 67  1  0  0  0  0
 48 51  1  0  0  0  0
 48 67  1  0  0  0  0
 49 72  1  0  0  0  0
 50 66  1  0  0  0  0
 51 65  1  0  0  0  0
 53 62  1  0  0  0  0
 54 63  1  0  0  0  0
 55 63  1  0  0  0  0
 56 63  1  0  0  0  0
 57 75  1  0  0  0  0
 58 59  1  0  0  0  0
 58 60  1  0  0  0  0
 59 74  1  0  0  0  0
 60 82  1  0  0  0  0
 61 63  1  0  0  0  0
 61 73  1  0  0  0  0
 62 75  1  0  0  0  0
 64 65  1  0  0  0  0
M  CHG  2  74   1  75   1
M  ISO  4  39 100  60 101  71 100  82 101
M  END
> <Batch ID>
0047

> <Smiles>
CNC(C)C(=O)NC(C(=O)N1Cc2cc([101O:1][101CH2:1]CCNC(=N)c3cc([100NH:0][100C:0](=O)N4CCCC(n5nc(-c6ccc(Oc7ccc(F)cc7F)cc6)c(C(N)=O)c5N)C4)ccc3C)ccc2CC1C(=O)NC1CCCc2ccccc21)C(C)(C)C

> <Shape>
0.276

> <Color>
0.070

> <Negative vol penalty>
0.000

$$$$

  -OEChem-04042322263D

 85 93  0     1  0  0  0  0  0999 V2000
  -32.8426  -30.6383   21.6506 C   0  0  0  0  0  0  0  0  0  0  0  0
  -32.2082  -29.4694   21.2423 C   0  0  0  0  0  0  0  0  0  0  0  0
  -23.9512   -9.7697   21.9954 C   0  0  0  0  0  0  0  0  0  0  0  0
  -22.1899  -10.3713   20.4549 C   0  0  0  0  0  0  0  0  0  0  0  0
  -32.2950  -31.4049   22.6784 C   0  0  0  0  0  0  0  0  0  0  0  0
  -31.0262  -29.0659   21.8625 C   0  0  0  0  0  0  0  0  0  0  0  0
  -27.5121  -27.5497   18.5463 C   0  0  0  0  0  0  0  0  0  0  0  0
  -23.4671   -8.4623   22.0385 C   0  0  0  0  0  0  0  0  0  0  0  0
  -21.7057   -9.0638   20.4980 C   0  0  0  0  0  0  0  0  0  0  0  0
  -27.6559  -26.2728   18.0054 C   0  0  0  0  0  0  0  0  0  0  0  0
  -20.9549   -6.7857   23.5558 C   0  0  0  0  0  0  0  0  0  0  0  0
  -20.8508   -6.1748   24.8054 C   0  0  0  0  0  0  0  0  0  0  0  0
  -26.0160  -25.4348   19.5636 C   0  0  0  0  0  0  0  0  0  0  0  0
  -22.1499  -21.9908   18.1158 C   0  0  0  0  0  0  0  0  0  0  0  0
  -21.9770  -20.9956   20.3105 C   0  0  0  0  0  0  0  0  0  0  0  0
  -22.3747   -4.4436   24.0860 C   0  0  0  0  0  0  0  0  0  0  0  0
  -23.3126  -10.7243   21.2036 C   0  0  0  0  0  0  0  0  0  0  0  0
  -24.7687  -12.5989   20.2693 C   0  0  0  0  0  0  0  0  0  0  0  0
  -31.1006  -31.0156   23.3049 C   0  0  0  0  0  0  0  0  0  0  0  0
  -26.6257  -27.7770   19.6089 C   0  0  0  0  0  0  0  0  0  0  0  0
  -30.4628  -29.8272   22.9005 C   0  0  0  0  0  0  0  0  0  0  0  0
  -25.8610  -26.7160   20.1145 C   0  0  0  0  0  0  0  0  0  0  0  0
  -21.6690  -22.0281   19.4246 C   0  0  0  0  0  0  0  0  0  0  0  0
  -22.9387  -20.9209   17.6928 C   0  0  0  0  0  0  0  0  0  0  0  0
  -23.2468  -19.8885   18.5787 C   0  0  0  0  0  0  0  0  0  0  0  0
  -22.7659  -19.9258   19.8876 C   0  0  0  0  0  0  0  0  0  0  0  0
  -22.3444   -8.1093   21.2897 C   0  0  0  0  0  0  0  0  0  0  0  0
  -26.9099  -25.2145   18.5160 C   0  0  0  0  0  0  0  0  0  0  0  0
  -21.7689   -6.2255   22.5712 C   0  0  0  0  0  0  0  0  0  0  0  0
  -21.5607   -5.0038   25.0705 C   0  0  0  0  0  0  0  0  0  0  0  0
  -22.4788   -5.0545   22.8364 C   0  0  0  0  0  0  0  0  0  0  0  0
  -23.8119  -12.0751   21.1592 C   0  0  0  0  0  0  0  0  0  0  0  0
  -24.8953  -13.9160   20.6375 C   0  0  0  0  0  0  0  0  0  0  0  0
  -25.4795  -11.9526   19.2049 C   0  0  0  0  0  0  0  0  0  0  0  0
  -26.9317  -28.7785   22.6101 C   0  0  0  0  0  0  0  0  0  0  0  0
  -23.6892  -28.7070   22.5533 C   0  0  0  0  0  0  0  0  0  0  0  0
  -25.3045  -22.5484   16.0858 C   0  0  0  0  0  0  0  0  0  0  0  0
  -20.8432  -27.4331   21.1660 C   0  0  0  0  0  0  0  0  0  0  0  0
  -22.6612  -18.7915   22.1345 C   0  0  0  0  0  0  0  0  0  0  0  0
  -30.5720  -31.8517   24.4434 C   0  0  0  0  0  0  0  0  0  0  0  0
  -26.4625  -29.1656   20.1634 C   0  0  0  0  0  0  0  0  0  0  0  0
  -24.8807  -26.9114   21.2411 C   0  0  0  0  0  0  0  0  0  0  0  0
  -29.1170  -31.5521   24.7948 C   0  0  0  0  0  0  0  0  0  0  0  0
  -23.1631  -16.3801   24.7056 C   0  0  0  0  0  0  0  0  0  0  0  0
  -28.8874  -30.0465   24.8793 C   0  0  0  0  0  0  0  0  0  0  0  0
  -23.4553  -15.0883   23.9389 C   0  0  0  0  0  0  0  0  0  0  0  0
  -22.1167  -17.2369   23.9951 C   0  0  0  0  0  0  0  0  0  0  0  0
  -22.7001  -16.2391   21.8195 C   0  0  0  0  0  0  0  0  0  0  0  0
  -29.1659  -29.3695   23.5319 C   0  0  1  0  0  0  0  0  0  0  0  0
  -25.9091  -29.1801   21.5850 C   0  0  1  0  0  0  0  0  0  0  0  0
  -23.7957  -15.3735   22.4630 C   0  0  2  0  0  0  0  0  0  0  0  0
  -20.8243  -23.1712   19.8764 C   0  0  0  0  0  0  0  0  0  0  0  0
  -24.0928  -18.7424   18.1196 C   0  0  0  0  0  0  0  0  0  0  0  0
  -18.3430  -27.5356   21.3550 C   0  0  0  0  0  0  0  0  0  0  0  0
  -23.8087  -26.9592   25.0515 C   0  0  0  0  0  0  0  0  0  0  0  0
  -21.4223  -26.3255   24.6376 C   0  0  0  0  0  0  0  0  0  0  0  0
  -22.0191  -28.7058   25.0849 C   0  0  0  0  0  0  0  0  0  0  0  0
  -20.5599  -28.4494   18.4009 C   0  0  0  0  0  0  0  0  0  0  0  0
  -23.4418  -20.9044   16.2783 C   0  0  0  0  0  0  0  0  0  0  0  0
  -26.8231  -22.5995   16.0233 C   0  0  0  0  0  0  0  0  0  0  0  0
  -27.3990  -23.8791   16.6098 C   0  0  0  0  0  0  0  0  0  1  0  0
  -22.6371  -27.6696   22.8632 C   0  0  1  0  0  0  0  0  0  0  0  0
  -19.5757  -28.1057   20.6707 C   0  0  2  0  0  0  0  0  0  0  0  0
  -22.4916  -27.4106   24.3894 C   0  0  0  0  0  0  0  0  0  0  0  0
  -23.3626  -12.9852   22.0274 N   0  0  0  0  0  0  0  0  0  0  0  0
  -24.0402  -14.0941   21.6850 N   0  0  0  0  0  0  0  0  0  0  0  0
  -24.7615  -28.2864   21.7539 N   0  0  0  0  0  0  0  0  0  0  0  0
  -22.5082  -17.4695   22.6031 N   0  0  0  0  0  0  0  0  0  0  0  0
  -25.6537  -14.9276   20.1643 N   0  0  0  0  0  0  0  0  0  0  0  0
  -25.2293  -10.5951   18.9621 N   0  0  0  0  0  0  0  0  0  0  0  0
  -23.0678  -18.8882   20.8041 N   0  0  0  0  0  0  0  0  0  0  0  0
  -28.0589  -29.5777   22.6233 N   0  0  0  0  0  0  0  0  0  0  0  0
  -24.8442  -21.2444   16.1991 N   0  0  0  0  0  0  0  0  0  0  0  0
  -21.4119  -28.1244   22.2148 N   0  0  0  0  0  0  0  0  0  0  0  0
  -19.4280  -27.9137   19.2002 N   0  3  0  0  0  0  0  0  0  0  0  0
  -26.3239  -12.5568   18.5010 O   0  0  0  0  0  0  0  0  0  0  0  0
  -26.7135  -27.8159   23.3363 O   0  0  0  0  0  0  0  0  0  0  0  0
  -23.5605  -29.8503   22.9980 O   0  0  0  0  0  0  0  0  0  0  0  0
  -24.5944  -23.5492   16.0401 O   0  0  0  0  0  0  0  0  0  0  0  0
  -21.2827  -26.3959   20.6744 O   0  0  0  0  0  0  0  0  0  0  0  0
  -22.4737  -19.7658   22.8678 O   0  0  0  0  0  0  0  0  0  0  0  0
  -21.8718   -6.8336   21.3314 O   0  0  0  0  0  0  0  0  0  0  0  0
  -27.0488  -23.9670   17.9904 O   0  0  0  0  0  0  0  0  0  1  0  0
  -21.4618   -4.4181   26.2711 F   0  0  0  0  0  0  0  0  0  0  0  0
  -23.2633   -4.5122   21.8949 F   0  0  0  0  0  0  0  0  0  0  0  0
  1  2  1  0  0  0  0
  1  5  2  0  0  0  0
  2  6  2  0  0  0  0
  3  8  2  0  0  0  0
  3 17  1  0  0  0  0
  4  9  1  0  0  0  0
  4 17  2  0  0  0  0
  5 19  1  0  0  0  0
  6 21  1  0  0  0  0
  7 10  2  0  0  0  0
  7 20  1  0  0  0  0
  8 27  1  0  0  0  0
  9 27  2  0  0  0  0
 10 28  1  0  0  0  0
 11 12  2  0  0  0  0
 11 29  1  0  0  0  0
 12 30  1  0  0  0  0
 13 22  1  0  0  0  0
 13 28  2  0  0  0  0
 14 23  2  0  0  0  0
 14 24  1  0  0  0  0
 15 23  1  0  0  0  0
 15 26  2  0  0  0  0
 16 30  2  0  0  0  0
 16 31  1  0  0  0  0
 17 32  1  0  0  0  0
 18 32  1  0  0  0  0
 18 33  2  0  0  0  0
 18 34  1  0  0  0  0
 19 21  2  0  0  0  0
 19 40  1  0  0  0  0
 20 22  2  0  0  0  0
 20 41  1  0  0  0  0
 21 49  1  0  0  0  0
 22 42  1  0  0  0  0
 23 52  1  0  0  0  0
 24 25  2  0  0  0  0
 24 59  1  0  0  0  0
 25 26  1  0  0  0  0
 25 53  1  0  0  0  0
 26 71  1  0  0  0  0
 27 82  1  0  0  0  0
 28 83  1  0  0  0  0
 29 31  2  0  0  0  0
 29 82  1  0  0  0  0
 30 84  1  0  0  0  0
 31 85  1  0  0  0  0
 32 65  2  0  0  0  0
 33 66  1  0  0  0  0
 33 69  1  0  0  0  0
 34 70  1  0  0  0  0
 34 76  2  0  0  0  0
 35 50  1  0  0  0  0
 35 72  1  0  0  0  0
 35 77  2  0  0  0  0
 36 62  1  0  0  0  0
 36 67  1  0  0  0  0
 36 78  2  0  0  0  0
 37 60  1  0  0  0  0
 37 73  1  0  0  0  0
 37 79  2  0  0  0  0
 38 63  1  0  0  0  0
 38 74  1  0  0  0  0
 38 80  2  0  0  0  0
 39 68  1  0  0  0  0
 39 71  1  0  0  0  0
 39 81  2  0  0  0  0
 40 43  1  0  0  0  0
 41 50  1  0  0  0  0
 42 67  1  0  0  0  0
 43 45  1  0  0  0  0
 44 46  1  0  0  0  0
 44 47  1  0  0  0  0
 45 49  1  0  0  0  0
 46 51  1  0  0  0  0
 47 68  1  0  0  0  0
 48 51  1  0  0  0  0
 48 68  1  0  0  0  0
 49 72  1  0  0  0  0
 50 67  1  0  0  0  0
 51 66  1  0  0  0  0
 54 63  1  0  0  0  0
 55 64  1  0  0  0  0
 56 64  1  0  0  0  0
 57 64  1  0  0  0  0
 58 75  1  0  0  0  0
 59 73  1  0  0  0  0
 60 61  1  0  0  0  0
 61 83  1  0  0  0  0
 62 64  1  0  0  0  0
 62 74  1  0  0  0  0
 63 75  1  0  0  0  0
 65 66  1  0  0  0  0
M  CHG  1  75   1
M  ISO  4  39 100  61 101  71 100  83 101
M  END
> <Batch ID>
0047

> <Smiles>
CNC(C)C(=O)NC(C(=O)N1Cc2cc([101O:1][101CH2:1]CC(=O)NCc3cc(C)cc([100NH:0][100C:0](=O)N4CCCC(n5nc(-c6ccc(Oc7ccc(F)cc7F)cc6)c(C(N)=O)c5N)C4)c3C)ccc2CC1C(=O)NC1CCCc2ccccc21)C(C)(C)C

> <Shape>
0.192

> <Color>
0.111

> <Negative vol penalty>
0.000

$$$$

  -OEChem-04042322263D

 92101  0     1  0  0  0  0  0999 V2000
  -21.8786  -11.0396   19.3963 C   0  0  0  0  0  0  0  0  0  0  0  0
  -21.5689  -12.3160   19.8548 C   0  0  0  0  0  0  0  0  0  0  0  0
  -19.0825  -24.5818   22.8243 C   0  0  0  0  0  0  0  0  0  0  0  0
  -21.0433  -24.4255   24.2271 C   0  0  0  0  0  0  0  0  0  0  0  0
  -25.6383  -24.4939   21.7078 C   0  0  0  0  0  0  0  0  0  0  0  0
  -23.1810  -10.5555   19.5121 C   0  0  0  0  0  0  0  0  0  0  0  0
  -22.5612  -13.1088   20.4304 C   0  0  0  0  0  0  0  0  0  0  0  0
  -23.1035  -19.1958   20.0309 C   0  0  0  0  0  0  0  0  0  0  0  0
  -26.6479  -32.8912   24.4371 C   0  0  0  0  0  0  0  0  0  0  0  0
  -18.6329  -23.3564   23.3161 C   0  0  0  0  0  0  0  0  0  0  0  0
  -20.5937  -23.2001   24.7190 C   0  0  0  0  0  0  0  0  0  0  0  0
  -24.7648  -23.4129   21.5902 C   0  0  0  0  0  0  0  0  0  0  0  0
  -22.7426  -20.2284   20.8954 C   0  0  0  0  0  0  0  0  0  0  0  0
  -17.1464  -20.0963   23.9368 C   0  0  0  0  0  0  0  0  0  0  0  0
  -16.6529  -19.1691   23.0191 C   0  0  0  0  0  0  0  0  0  0  0  0
  -25.8404  -34.0283   24.4637 C   0  0  0  0  0  0  0  0  0  0  0  0
  -24.9883  -20.2683   21.7755 C   0  0  0  0  0  0  0  0  0  0  0  0
  -24.5137  -23.3544   23.9922 C   0  0  0  0  0  0  0  0  0  0  0  0
  -25.4459  -33.8035   22.0907 C   0  0  0  0  0  0  0  0  0  0  0  0
  -18.7891  -19.1490   21.8906 C   0  0  0  0  0  0  0  0  0  0  0  0
  -20.2877  -25.1163   23.2797 C   0  0  0  0  0  0  0  0  0  0  0  0
  -25.9496  -25.0053   22.9676 C   0  0  0  0  0  0  0  0  0  0  0  0
  -20.4807  -27.6600   23.2950 C   0  0  0  0  0  0  0  0  0  0  0  0
  -24.1919  -11.3464   20.0806 C   0  0  0  0  0  0  0  0  0  0  0  0
  -24.4088  -18.6835   20.0399 C   0  0  0  0  0  0  0  0  0  0  0  0
  -23.8780  -12.6343   20.5551 C   0  0  0  0  0  0  0  0  0  0  0  0
  -25.3639  -19.2310   20.9084 C   0  0  0  0  0  0  0  0  0  0  0  0
  -26.8544  -32.2103   23.2373 C   0  0  0  0  0  0  0  0  0  0  0  0
  -25.3873  -24.4355   24.1099 C   0  0  0  0  0  0  0  0  0  0  0  0
  -26.2534  -32.6664   22.0642 C   0  0  0  0  0  0  0  0  0  0  0  0
  -19.3885  -22.6656   24.2635 C   0  0  0  0  0  0  0  0  0  0  0  0
  -23.6842  -20.7629   21.7699 C   0  0  0  0  0  0  0  0  0  0  0  0
  -24.2024  -22.8431   22.7324 C   0  0  0  0  0  0  0  0  0  1  0  0
  -18.4612  -20.5500   23.8314 C   0  0  0  0  0  0  0  0  0  0  0  0
  -17.4742  -18.6954   21.9960 C   0  0  0  0  0  0  0  0  0  0  0  0
  -19.2825  -20.0763   22.8083 C   0  0  0  0  0  0  0  0  0  0  0  0
  -25.2394  -34.4844   23.2905 C   0  0  0  0  0  0  0  0  0  0  0  0
  -20.7530  -26.3818   22.7716 C   0  0  0  0  0  0  0  0  0  0  0  0
  -21.1480  -28.5223   22.4598 C   0  0  0  0  0  0  0  0  0  0  0  0
  -26.8656  -26.1347   23.0573 C   0  0  0  0  0  0  0  0  0  0  0  0
  -26.4997  -27.4348   23.0558 C   0  0  0  0  0  0  0  0  0  0  0  0
  -19.6948  -28.0343   24.4343 C   0  0  0  0  0  0  0  0  0  0  0  0
  -27.5268  -28.5101   23.1625 C   0  0  0  0  0  0  0  0  0  0  0  0
  -25.7008  -15.8466   20.6618 C   0  0  0  0  0  0  0  0  0  0  0  0
  -28.4220  -17.3017   19.6616 C   0  0  0  0  0  0  0  0  0  0  0  0
  -30.1472  -20.2078   19.1870 C   0  0  0  0  0  0  0  0  0  0  0  0
  -25.6938  -29.9347   19.5469 C   0  0  0  0  0  0  0  0  0  0  0  0
  -25.5745  -10.7621   20.2273 C   0  0  0  0  0  0  0  0  0  0  0  0
  -24.7893  -17.5876   19.0825 C   0  0  0  0  0  0  0  0  0  0  0  0
  -26.7839  -18.7301   20.9430 C   0  0  0  0  0  0  0  0  0  0  0  0
  -26.6509  -11.8074   20.5084 C   0  0  0  0  0  0  0  0  0  0  0  0
  -23.3851  -27.7117   17.9961 C   0  0  0  0  0  0  0  0  0  0  0  0
  -26.1888  -12.7697   21.5980 C   0  0  0  0  0  0  0  0  0  0  0  0
  -22.4766  -27.2686   19.1443 C   0  0  0  0  0  0  0  0  0  0  0  0
  -24.8312  -27.8851   18.4554 C   0  0  0  0  0  0  0  0  0  0  0  0
  -24.1007  -28.3314   20.7665 C   0  0  0  0  0  0  0  0  0  0  0  0
  -24.9325  -13.5337   21.1628 C   0  0  1  0  0  0  0  0  0  0  0  0
  -26.0103  -16.7940   19.5374 C   0  0  1  0  0  0  0  0  0  0  0  0
  -22.6218  -28.1973   20.3648 C   0  0  2  0  0  0  0  0  0  0  0  0
  -25.6987  -24.9568   25.4760 C   0  0  0  0  0  0  0  0  0  0  0  0
  -32.3628  -21.0756   18.3898 C   0  0  0  0  0  0  0  0  0  0  0  0
  -29.7075  -16.4236   22.2858 C   0  0  0  0  0  0  0  0  0  0  0  0
  -31.5347  -18.0827   21.8652 C   0  0  0  0  0  0  0  0  0  0  0  0
  -31.1775  -16.1936   20.2758 C   0  0  0  0  0  0  0  0  0  0  0  0
  -28.8864  -21.7510   16.9989 C   0  0  0  0  0  0  0  0  0  0  0  0
  -27.7282  -30.9894   23.2329 C   0  0  0  0  0  0  0  0  0  0  0  0
  -26.4613  -31.9546   20.7676 C   0  0  0  0  0  0  0  0  0  0  0  0
  -29.5161  -18.0985   20.3303 C   0  0  1  0  0  0  0  0  0  0  0  0
  -30.9347  -20.7291   17.9985 C   0  0  2  0  0  0  0  0  0  0  0  0
  -30.4568  -17.2079   21.1902 C   0  0  0  0  0  0  0  0  0  0  0  0
  -21.5324  -26.4238   21.6878 N   0  0  0  0  0  0  0  0  0  0  0  0
  -21.7555  -27.7388   21.5233 N   0  0  0  0  0  0  0  0  0  0  0  0
  -27.1055  -17.6531   19.9921 N   0  0  0  0  0  0  0  0  0  0  0  0
  -24.8996  -28.7782   19.6146 N   0  0  0  0  0  0  0  0  0  0  0  0
  -21.2684  -29.8668   22.4425 N   0  0  0  0  0  0  0  0  0  0  0  0
  -19.0781  -27.0221   25.1823 N   0  0  0  0  0  0  0  0  0  0  0  0
  -26.9549  -29.7710   23.1434 N   0  0  0  0  0  0  0  0  0  0  0  0
  -25.2804  -14.5978   20.2456 N   0  0  0  0  0  0  0  0  0  0  0  0
  -30.1947  -18.8321   19.2674 N   0  0  0  0  0  0  0  0  0  0  0  0
  -25.6977  -30.7294   20.6867 N   0  0  0  0  0  0  0  0  0  0  0  0
  -30.2887  -21.9531   17.4458 N   0  3  0  0  0  0  0  0  0  0  0  0
  -19.5305  -29.2320   24.7692 O   0  0  0  0  0  0  0  0  0  0  0  0
  -28.7261  -28.2698   23.2549 O   0  0  0  0  0  0  0  0  0  0  0  0
  -25.8350  -16.2204   21.8211 O   0  0  0  0  0  0  0  0  0  0  0  0
  -28.7242  -16.4055   18.8697 O   0  0  0  0  0  0  0  0  0  0  0  0
  -29.5528  -20.9472   19.9684 O   0  0  0  0  0  0  0  0  0  0  0  0
  -26.3467  -30.2395   18.5429 O   0  0  0  0  0  0  0  0  0  0  0  0
  -18.9499  -21.4700   24.7438 O   0  0  0  0  0  0  0  0  0  0  0  0
  -23.3345  -21.7704   22.6151 O   0  0  0  0  0  0  0  0  0  1  0  0
  -17.0006  -17.8038   21.1156 F   0  0  0  0  0  0  0  0  0  0  0  0
  -20.5469  -20.5076   22.7027 F   0  0  0  0  0  0  0  0  0  0  0  0
  -24.2449  -35.8881   23.3233 Cl  0  0  0  0  0  0  0  0  0  0  0  0
  1  2  1  0  0  0  0
  1  6  2  0  0  0  0
  2  7  2  0  0  0  0
  3 10  2  0  0  0  0
  3 21  1  0  0  0  0
  4 11  1  0  0  0  0
  4 21  2  0  0  0  0
  5 12  2  0  0  0  0
  5 22  1  0  0  0  0
  6 24  1  0  0  0  0
  7 26  1  0  0  0  0
  8 13  2  0  0  0  0
  8 25  1  0  0  0  0
  9 16  2  0  0  0  0
  9 28  1  0  0  0  0
 10 31  1  0  0  0  0
 11 31  2  0  0  0  0
 12 33  1  0  0  0  0
 13 32  1  0  0  0  0
 14 15  2  0  0  0  0
 14 34  1  0  0  0  0
 15 35  1  0  0  0  0
 16 37  1  0  0  0  0
 17 27  1  0  0  0  0
 17 32  2  0  0  0  0
 18 29  1  0  0  0  0
 18 33  2  0  0  0  0
 19 30  1  0  0  0  0
 19 37  2  0  0  0  0
 20 35  2  0  0  0  0
 20 36  1  0  0  0  0
 21 38  1  0  0  0  0
 22 29  2  0  0  0  0
 22 40  1  0  0  0  0
 23 38  1  0  0  0  0
 23 39  2  0  0  0  0
 23 42  1  0  0  0  0
 24 26  2  0  0  0  0
 24 48  1  0  0  0  0
 25 27  2  0  0  0  0
 25 49  1  0  0  0  0
 26 57  1  0  0  0  0
 27 50  1  0  0  0  0
 28 30  2  0  0  0  0
 28 66  1  0  0  0  0
 29 60  1  0  0  0  0
 30 67  1  0  0  0  0
 31 88  1  0  0  0  0
 32 89  1  0  0  0  0
 33 89  1  0  0  0  0
 34 36  2  0  0  0  0
 34 88  1  0  0  0  0
 35 90  1  0  0  0  0
 36 91  1  0  0  0  0
 37 92  1  0  0  0  0
 38 71  2  0  0  0  0
 39 72  1  0  0  0  0
 39 75  1  0  0  0  0
 40 41  2  0  0  0  0
 41 43  1  0  0  0  0
 42 76  1  0  0  0  0
 42 82  2  0  0  0  0
 43 77  1  0  0  0  0
 43 83  2  0  0  0  0
 44 58  1  0  0  0  0
 44 78  1  0  0  0  0
 44 84  2  0  0  0  0
 45 68  1  0  0  0  0
 45 73  1  0  0  0  0
 45 85  2  0  0  0  0
 46 69  1  0  0  0  0
 46 79  1  0  0  0  0
 46 86  2  0  0  0  0
 47 74  1  0  0  0  0
 47 80  1  0  0  0  0
 47 87  2  0  0  0  0
 48 51  1  0  0  0  0
 49 58  1  0  0  0  0
 50 73  1  0  0  0  0
 51 53  1  0  0  0  0
 52 54  1  0  0  0  0
 52 55  1  0  0  0  0
 53 57  1  0  0  0  0
 54 59  1  0  0  0  0
 55 74  1  0  0  0  0
 56 59  1  0  0  0  0
 56 74  1  0  0  0  0
 57 78  1  0  0  0  0
 58 73  1  0  0  0  0
 59 72  1  0  0  0  0
 61 69  1  0  0  0  0
 62 70  1  0  0  0  0
 63 70  1  0  0  0  0
 64 70  1  0  0  0  0
 65 81  1  0  0  0  0
 66 77  1  0  0  0  0
 67 80  1  0  0  0  0
 68 70  1  0  0  0  0
 68 79  1  0  0  0  0
 69 81  1  0  0  0  0
 71 72  1  0  0  0  0
M  CHG  1  81   1
M  ISO  4  33 101  47 100  80 100  89 101
M  END
> <Batch ID>
0047

> <Smiles>
CNC(C)C(=O)NC(C(=O)N1Cc2cc([101O:1][101c:1]3ccc(C=CC(=O)NCc4ccc(Cl)cc4C[100NH:0][100C:0](=O)N4CCCC(n5nc(-c6ccc(Oc7ccc(F)cc7F)cc6)c(C(N)=O)c5N)C4)c(C)c3)ccc2CC1C(=O)NC1CCCc2ccccc21)C(C)(C)C

> <Shape>
0.228

> <Color>
0.056

> <Negative vol penalty>
0.000

$$$$

  -OEChem-04042322263D

 87 96  0     1  0  0  0  0  0999 V2000
  -29.5525  -12.9045   18.8991 C   0  0  0  0  0  0  0  0  0  0  0  0
  -29.4317  -13.9208   19.8400 C   0  0  0  0  0  0  0  0  0  0  0  0
  -27.9009  -23.8423   19.4536 C   0  0  0  0  0  0  0  0  0  0  0  0
  -25.9843  -23.5670   20.8986 C   0  0  0  0  0  0  0  0  0  0  0  0
  -28.4948  -12.6311   18.0344 C   0  0  0  0  0  0  0  0  0  0  0  0
  -28.2489  -14.6561   19.9247 C   0  0  0  0  0  0  0  0  0  0  0  0
  -23.2037  -20.1913   22.5948 C   0  0  0  0  0  0  0  0  0  0  0  0
  -18.9736  -27.8300   23.8413 C   0  0  0  0  0  0  0  0  0  0  0  0
  -18.1672  -26.7017   23.6919 C   0  0  0  0  0  0  0  0  0  0  0  0
  -28.4403  -22.6524   19.9422 C   0  0  0  0  0  0  0  0  0  0  0  0
  -26.5237  -22.3770   21.3872 C   0  0  0  0  0  0  0  0  0  0  0  0
  -22.0549  -20.9055   22.2569 C   0  0  0  0  0  0  0  0  0  0  0  0
  -30.1503  -19.5019   20.5462 C   0  0  0  0  0  0  0  0  0  0  0  0
  -30.6845  -18.6042   19.6219 C   0  0  0  0  0  0  0  0  0  0  0  0
  -20.8831  -18.8309   21.8805 C   0  0  0  0  0  0  0  0  0  0  0  0
  -19.3952  -27.8437   21.4624 C   0  0  0  0  0  0  0  0  0  0  0  0
  -28.5306  -18.4361   18.5404 C   0  0  0  0  0  0  0  0  0  0  0  0
  -26.6729  -24.2997   19.9318 C   0  0  0  0  0  0  0  0  0  0  0  0
  -25.7746  -25.8242   18.0943 C   0  0  0  0  0  0  0  0  0  0  0  0
  -27.3034  -13.3721   18.1008 C   0  0  0  0  0  0  0  0  0  0  0  0
  -23.2039  -18.7893   22.5675 C   0  0  0  0  0  0  0  0  0  0  0  0
  -27.1611  -14.3794   19.0768 C   0  0  0  0  0  0  0  0  0  0  0  0
  -22.0323  -18.1012   22.2210 C   0  0  0  0  0  0  0  0  0  0  0  0
  -19.5876  -28.4010   22.7265 C   0  0  0  0  0  0  0  0  0  0  0  0
  -17.9748  -26.1444   22.4278 C   0  0  0  0  0  0  0  0  0  0  0  0
  -27.7517  -21.9197   20.9090 C   0  0  0  0  0  0  0  0  0  0  0  0
  -20.8953  -20.2254   21.8969 C   0  0  0  0  0  0  0  0  0  0  0  0
  -28.8062  -19.8665   20.4678 C   0  0  0  0  0  0  0  0  0  0  0  0
  -29.8747  -18.0714   18.6189 C   0  0  0  0  0  0  0  0  0  0  0  0
  -18.5888  -26.7154   21.3130 C   0  0  0  0  0  0  0  0  0  0  0  0
  -27.9964  -19.3337   19.4649 C   0  0  0  0  0  0  0  0  0  0  0  0
  -26.1155  -25.5291   19.4279 C   0  0  0  0  0  0  0  0  0  0  0  0
  -25.2899  -27.1085   18.1400 C   0  0  0  0  0  0  0  0  0  0  0  0
  -18.5809  -22.9706   21.8661 C   0  0  0  0  0  0  0  0  0  0  0  0
  -25.8861  -25.0102   16.9193 C   0  0  0  0  0  0  0  0  0  0  0  0
  -24.7978  -16.5779   20.9327 C   0  0  0  0  0  0  0  0  0  0  0  0
  -23.2460  -14.5435   22.9266 C   0  0  0  0  0  0  0  0  0  0  0  0
  -19.9250  -14.2239   24.2999 C   0  0  0  0  0  0  0  0  0  0  0  0
  -22.7793  -30.3667   22.4911 C   0  0  0  0  0  0  0  0  0  0  0  0
  -26.1874  -13.0288   17.1459 C   0  0  0  0  0  0  0  0  0  0  0  0
  -24.4433  -18.0333   22.9606 C   0  0  0  0  0  0  0  0  0  0  0  0
  -21.9745  -16.5964   22.1957 C   0  0  0  0  0  0  0  0  0  0  0  0
  -25.1541  -14.1429   17.0139 C   0  0  0  0  0  0  0  0  0  0  0  0
  -17.5127  -21.9221   24.4118 C   0  0  0  0  0  0  0  0  0  0  0  0
  -25.6983  -31.1789   20.6211 C   0  0  0  0  0  0  0  0  0  0  0  0
  -24.7153  -14.6110   18.3934 C   0  0  0  0  0  0  0  0  0  0  0  0
  -18.1892  -21.0276   23.3746 C   0  0  0  0  0  0  0  0  0  0  0  0
  -26.1054  -29.8496   19.9829 C   0  0  0  0  0  0  0  0  0  0  0  0
  -17.7237  -23.4107   24.1500 C   0  0  0  0  0  0  0  0  0  0  0  0
  -25.1337  -30.9809   22.0261 C   0  0  0  0  0  0  0  0  0  0  0  0
  -24.4331  -28.6822   21.4793 C   0  0  0  0  0  0  0  0  0  0  0  0
  -25.8955  -15.2127   19.1668 C   0  0  1  0  0  0  0  0  0  0  0  0
  -19.2307  -21.7778   22.5543 C   0  0  1  0  0  0  0  0  0  1  0  0
  -24.4805  -16.6145   22.4009 C   0  0  1  0  0  0  0  0  0  0  0  0
  -24.9564  -28.8251   20.0398 C   0  0  2  0  0  0  0  0  0  0  0  0
  -19.1363  -13.1598   26.4313 C   0  0  0  0  0  0  0  0  0  0  0  0
  -22.7930  -12.0774   21.1879 C   0  0  0  0  0  0  0  0  0  0  0  0
  -20.7080  -11.6231   22.4973 C   0  0  0  0  0  0  0  0  0  0  0  0
  -22.9244  -11.6138   23.6419 C   0  0  0  0  0  0  0  0  0  0  0  0
  -18.5721  -16.7064   25.1748 C   0  0  0  0  0  0  0  0  0  0  0  0
  -17.1073  -24.9292   22.2702 C   0  0  0  0  0  0  0  0  0  0  0  0
  -20.4500  -29.6071   22.8862 C   0  0  0  0  0  0  0  0  0  0  0  0
  -21.9258  -13.8122   22.8922 C   0  0  1  0  0  0  0  0  0  0  0  0
  -19.5106  -14.4620   25.7407 C   0  0  2  0  0  0  0  0  0  0  0  0
  -22.0913  -12.3065   22.5415 C   0  0  0  0  0  0  0  0  0  0  0  0
  -25.8684  -26.5442   20.2600 N   0  0  0  0  0  0  0  0  0  0  0  0
  -25.3672  -27.4898   19.4472 N   0  0  0  0  0  0  0  0  0  0  0  0
  -17.7749  -23.7215   22.7260 N   0  0  0  0  0  0  0  0  0  0  0  0
  -23.2140  -15.9022   22.5820 N   0  0  0  0  0  0  0  0  0  0  0  0
  -24.0469  -29.9988   22.0105 N   0  0  0  0  0  0  0  0  0  0  0  0
  -24.8094  -27.9375   17.1891 N   0  0  0  0  0  0  0  0  0  0  0  0
  -26.4052  -23.7149   17.0506 N   0  0  0  0  0  0  0  0  0  0  0  0
  -25.4911  -15.4506   20.5349 N   0  0  0  0  0  0  0  0  0  0  0  0
  -21.2888  -14.0589   24.1813 N   0  0  0  0  0  0  0  0  0  0  0  0
  -21.8044  -29.3783   22.4346 N   0  0  0  0  0  0  0  0  0  0  0  0
  -18.3367  -15.3783   25.7975 N   0  3  0  0  0  0  0  0  0  0  0  0
  -18.7761  -23.2248   20.6789 O   0  0  0  0  0  0  0  0  0  0  0  0
  -25.5511  -25.4251   15.7839 O   0  0  0  0  0  0  0  0  0  0  0  0
  -24.4389  -17.5030   20.2137 O   0  0  0  0  0  0  0  0  0  0  0  0
  -24.2669  -13.9335   23.2543 O   0  0  0  0  0  0  0  0  0  0  0  0
  -19.1190  -14.1843   23.3729 O   0  0  0  0  0  0  0  0  0  0  0  0
  -22.5332  -31.4944   22.9325 O   0  0  0  0  0  0  0  0  0  0  0  0
  -28.2775  -20.7584   21.3858 O   0  0  0  0  0  0  0  0  0  0  0  0
  -19.7729  -20.9200   21.5660 O   0  0  0  0  0  0  0  0  0  1  0  0
  -30.3882  -17.2106   17.7304 F   0  0  0  0  0  0  0  0  0  0  0  0
  -18.4106  -26.1861   20.0945 F   0  0  0  0  0  0  0  0  0  0  0  0
  -26.7047  -19.6812   19.3837 F   0  0  0  0  0  0  0  0  0  0  0  0
  1  2  1  0  0  0  0
  1  5  2  0  0  0  0
  2  6  2  0  0  0  0
  3 10  2  0  0  0  0
  3 18  1  0  0  0  0
  4 11  1  0  0  0  0
  4 18  2  0  0  0  0
  5 20  1  0  0  0  0
  6 22  1  0  0  0  0
  7 12  2  0  0  0  0
  7 21  1  0  0  0  0
  8  9  2  0  0  0  0
  8 24  1  0  0  0  0
  9 25  1  0  0  0  0
 10 26  1  0  0  0  0
 11 26  2  0  0  0  0
 12 27  1  0  0  0  0
 13 14  2  0  0  0  0
 13 28  1  0  0  0  0
 14 29  1  0  0  0  0
 15 23  1  0  0  0  0
 15 27  2  0  0  0  0
 16 24  2  0  0  0  0
 16 30  1  0  0  0  0
 17 29  2  0  0  0  0
 17 31  1  0  0  0  0
 18 32  1  0  0  0  0
 19 32  1  0  0  0  0
 19 33  2  0  0  0  0
 19 35  1  0  0  0  0
 20 22  2  0  0  0  0
 20 40  1  0  0  0  0
 21 23  2  0  0  0  0
 21 41  1  0  0  0  0
 22 52  1  0  0  0  0
 23 42  1  0  0  0  0
 24 62  1  0  0  0  0
 25 30  2  0  0  0  0
 25 61  1  0  0  0  0
 26 83  1  0  0  0  0
 27 84  1  0  0  0  0
 28 31  2  0  0  0  0
 28 83  1  0  0  0  0
 29 85  1  0  0  0  0
 30 86  1  0  0  0  0
 31 87  1  0  0  0  0
 32 66  2  0  0  0  0
 33 67  1  0  0  0  0
 33 71  1  0  0  0  0
 34 53  1  0  0  0  0
 34 68  1  0  0  0  0
 34 77  2  0  0  0  0
 35 72  1  0  0  0  0
 35 78  2  0  0  0  0
 36 54  1  0  0  0  0
 36 73  1  0  0  0  0
 36 79  2  0  0  0  0
 37 63  1  0  0  0  0
 37 69  1  0  0  0  0
 37 80  2  0  0  0  0
 38 64  1  0  0  0  0
 38 74  1  0  0  0  0
 38 81  2  0  0  0  0
 39 70  1  0  0  0  0
 39 75  1  0  0  0  0
 39 82  2  0  0  0  0
 40 43  1  0  0  0  0
 41 54  1  0  0  0  0
 42 69  1  0  0  0  0
 43 46  1  0  0  0  0
 44 47  1  0  0  0  0
 44 49  1  0  0  0  0
 45 48  1  0  0  0  0
 45 50  1  0  0  0  0
 46 52  1  0  0  0  0
 47 53  1  0  0  0  0
 48 55  1  0  0  0  0
 49 68  1  0  0  0  0
 50 70  1  0  0  0  0
 51 55  1  0  0  0  0
 51 70  1  0  0  0  0
 52 73  1  0  0  0  0
 53 84  1  0  0  0  0
 54 69  1  0  0  0  0
 55 67  1  0  0  0  0
 56 64  1  0  0  0  0
 57 65  1  0  0  0  0
 58 65  1  0  0  0  0
 59 65  1  0  0  0  0
 60 76  1  0  0  0  0
 61 68  1  0  0  0  0
 62 75  1  0  0  0  0
 63 65  1  0  0  0  0
 63 74  1  0  0  0  0
 64 76  1  0  0  0  0
 66 67  1  0  0  0  0
M  CHG  1  76   1
M  ISO  4  39 100  53 101  75 100  84 101
M  END
> <Batch ID>
0047

> <Smiles>
CNC(C)C(=O)NC(C(=O)N1Cc2cc([101O:1][101CH:1]3CCCN(Cc4ccc(C[100NH:0][100C:0](=O)N5CCCC(n6nc(-c7ccc(Oc8ccc(F)cc8F)cc7)c(C(N)=O)c6N)C5)cc4F)C3=O)ccc2CC1C(=O)NC1CCCc2ccccc21)C(C)(C)C

> <Shape>
0.222

> <Color>
0.070

> <Negative vol penalty>
0.000

$$$$

  -OEChem-04042322263D

 87 96  0     1  0  0  0  0  0999 V2000
  -25.8331  -35.1929   22.3909 C   0  0  0  0  0  0  0  0  0  0  0  0
  -26.4174  -33.9377   22.2553 C   0  0  0  0  0  0  0  0  0  0  0  0
  -25.1425  -16.5927   19.5356 C   0  0  0  0  0  0  0  0  0  0  0  0
  -25.3605  -16.0508   21.8800 C   0  0  0  0  0  0  0  0  0  0  0  0
  -24.5627  -35.3121   22.9529 C   0  0  0  0  0  0  0  0  0  0  0  0
  -25.7321  -32.8010   22.6827 C   0  0  0  0  0  0  0  0  0  0  0  0
  -25.9776  -29.0105   19.3335 C   0  0  0  0  0  0  0  0  0  0  0  0
  -33.3197  -21.5753   18.2584 C   0  0  0  0  0  0  0  0  0  0  0  0
  -23.8812  -15.9974   19.5153 C   0  0  0  0  0  0  0  0  0  0  0  0
  -24.0992  -15.4555   21.8596 C   0  0  0  0  0  0  0  0  0  0  0  0
  -27.1601  -28.2731   19.2919 C   0  0  0  0  0  0  0  0  0  0  0  0
  -22.7417  -12.5288   20.8485 C   0  0  0  0  0  0  0  0  0  0  0  0
  -22.5995  -11.2903   21.4742 C   0  0  0  0  0  0  0  0  0  0  0  0
  -33.6757  -21.0733   17.0067 C   0  0  0  0  0  0  0  0  0  0  0  0
  -26.1214  -26.5443   20.6153 C   0  0  0  0  0  0  0  0  0  0  0  0
  -33.1854  -23.2177   16.0073 C   0  0  0  0  0  0  0  0  0  0  0  0
  -20.9476  -12.2329   22.9641 C   0  0  0  0  0  0  0  0  0  0  0  0
  -25.8821  -16.6194   20.7180 C   0  0  0  0  0  0  0  0  0  0  0  0
  -28.3091  -16.8704   19.9734 C   0  0  0  0  0  0  0  0  0  0  0  0
  -23.8575  -34.1754   23.3786 C   0  0  0  0  0  0  0  0  0  0  0  0
  -24.8596  -28.5245   20.0266 C   0  0  0  0  0  0  0  0  0  0  0  0
  -24.4516  -32.9053   23.2522 C   0  0  0  0  0  0  0  0  0  0  0  0
  -24.9251  -27.2763   20.6620 C   0  0  0  0  0  0  0  0  0  0  0  0
  -32.8965  -22.8985   18.3847 C   0  0  0  0  0  0  0  0  0  0  0  0
  -32.8294  -23.7196   17.2591 C   0  0  0  0  0  0  0  0  0  0  0  0
  -23.3596  -15.4288   20.6772 C   0  0  0  0  0  0  0  0  0  0  0  0
  -27.2330  -27.0412   19.9354 C   0  0  0  0  0  0  0  0  0  0  0  0
  -21.9870  -13.6193   21.2806 C   0  0  0  0  0  0  0  0  0  0  0  0
  -21.7024  -11.1424   22.5320 C   0  0  0  0  0  0  0  0  0  0  0  0
  -21.0899  -13.4714   22.3384 C   0  0  0  0  0  0  0  0  0  0  0  0
  -33.6086  -21.8945   15.8811 C   0  0  0  0  0  0  0  0  0  0  0  0
  -27.1853  -17.2337   20.7395 C   0  0  0  0  0  0  0  0  0  0  0  0
  -29.2879  -17.7532   20.3597 C   0  0  0  0  0  0  0  0  0  0  0  0
  -30.3843  -25.8883   18.6571 C   0  0  0  0  0  0  0  0  0  0  0  0
  -28.4552  -15.8283   18.9997 C   0  0  0  0  0  0  0  0  0  0  0  0
  -23.1540  -29.5250   22.5153 C   0  0  0  0  0  0  0  0  0  0  0  0
  -21.2646  -27.0056   21.7373 C   0  0  0  0  0  0  0  0  0  0  0  0
  -21.7357  -23.5853   20.6901 C   0  0  0  0  0  0  0  0  0  0  0  0
  -30.9563  -22.9321   21.6012 C   0  0  0  0  0  0  0  0  0  0  0  0
  -22.5064  -34.3586   24.0234 C   0  0  0  0  0  0  0  0  0  0  0  0
  -23.5830  -29.3198   20.0394 C   0  0  0  0  0  0  0  0  0  0  0  0
  -23.7466  -26.7006   21.4026 C   0  0  0  0  0  0  0  0  0  0  0  0
  -21.6919  -33.0703   24.1075 C   0  0  0  0  0  0  0  0  0  0  0  0
  -28.8549  -24.0514   16.9227 C   0  0  0  0  0  0  0  0  0  0  0  0
  -29.4264  -21.0411   24.2012 C   0  0  0  0  0  0  0  0  0  0  0  0
  -22.5557  -31.9256   24.6275 C   0  0  0  0  0  0  0  0  0  0  0  0
  -28.3165  -24.5576   18.2596 C   0  0  0  0  0  0  0  0  0  0  0  0
  -28.7948  -19.8561   23.4686 C   0  0  0  0  0  0  0  0  0  0  0  0
  -30.0844  -24.8171   16.4419 C   0  0  0  0  0  0  0  0  0  0  0  0
  -29.3406  -22.3243   23.3779 C   0  0  0  0  0  0  0  0  0  0  0  0
  -29.2542  -21.0360   21.2787 C   0  0  0  0  0  0  0  0  0  0  0  0
  -23.7296  -31.6464   23.6812 C   0  0  1  0  0  0  0  0  0  0  0  0
  -28.8626  -25.9332   18.6202 C   0  0  1  0  0  0  0  0  0  1  0  0
  -22.6693  -28.9643   21.2082 C   0  0  1  0  0  0  0  0  0  0  0  0
  -29.3663  -19.7073   22.0457 C   0  0  2  0  0  0  0  0  0  0  0  0
  -20.2629  -22.0789   19.3266 C   0  0  0  0  0  0  0  0  0  0  0  0
  -20.2179  -26.0607   24.4432 C   0  0  0  0  0  0  0  0  0  0  0  0
  -20.1140  -23.7383   23.5137 C   0  0  0  0  0  0  0  0  0  0  0  0
  -18.7201  -25.5460   22.5077 C   0  0  0  0  0  0  0  0  0  0  0  0
  -23.8952  -23.0470   18.7392 C   0  0  0  0  0  0  0  0  0  0  0  0
  -32.3754  -25.1464   17.3703 C   0  0  0  0  0  0  0  0  0  0  0  0
  -32.5196  -23.4138   19.7348 C   0  0  0  0  0  0  0  0  0  0  0  0
  -21.2184  -25.5458   22.1194 C   0  0  1  0  0  0  0  0  0  0  0  0
  -21.4641  -23.0114   19.3112 C   0  0  2  0  0  0  0  0  0  0  0  0
  -20.0920  -25.2373   23.1458 C   0  0  0  0  0  0  0  0  0  0  0  0
  -27.4266  -18.2667   21.5512 N   0  0  0  0  0  0  0  0  0  0  0  0
  -28.7133  -18.5600   21.2973 N   0  0  0  0  0  0  0  0  0  0  0  0
  -30.9362  -25.2472   17.5447 N   0  0  0  0  0  0  0  0  0  0  0  0
  -22.5228  -27.5189   21.3918 N   0  0  0  0  0  0  0  0  0  0  0  0
  -29.9006  -22.1162   22.0403 N   0  0  0  0  0  0  0  0  0  0  0  0
  -30.5754  -17.9103   19.9854 N   0  0  0  0  0  0  0  0  0  0  0  0
  -27.3495  -15.0127   18.7229 N   0  0  0  0  0  0  0  0  0  0  0  0
  -23.2804  -30.9010   22.5248 N   0  0  0  0  0  0  0  0  0  0  0  0
  -21.1091  -24.8002   20.8702 N   0  0  0  0  0  0  0  0  0  0  0  0
  -31.4325  -22.6639   20.3236 N   0  0  0  0  0  0  0  0  0  0  0  0
  -22.6472  -22.2458   18.8265 N   0  3  0  0  0  0  0  0  0  0  0  0
  -31.0295  -26.3849   19.5786 O   0  0  0  0  0  0  0  0  0  0  0  0
  -29.5390  -15.6157   18.4050 O   0  0  0  0  0  0  0  0  0  0  0  0
  -23.3940  -28.7656   23.4466 O   0  0  0  0  0  0  0  0  0  0  0  0
  -20.2217  -27.6643   21.7383 O   0  0  0  0  0  0  0  0  0  0  0  0
  -22.4310  -23.0112   21.5253 O   0  0  0  0  0  0  0  0  0  0  0  0
  -31.4423  -23.8293   22.2981 O   0  0  0  0  0  0  0  0  0  0  0  0
  -22.1288  -14.8480   20.6578 O   0  0  0  0  0  0  0  0  0  0  0  0
  -28.3862  -26.3197   19.8969 O   0  0  0  0  0  0  0  0  0  1  0  0
  -21.5647   -9.9526   23.1318 F   0  0  0  0  0  0  0  0  0  0  0  0
  -20.3612  -14.5151   22.7572 F   0  0  0  0  0  0  0  0  0  0  0  0
  -34.0461  -21.2744   14.3369 Cl  0  0  0  0  0  0  0  0  0  0  0  0
  1  2  1  0  0  0  0
  1  5  2  0  0  0  0
  2  6  2  0  0  0  0
  3  9  2  0  0  0  0
  3 18  1  0  0  0  0
  4 10  1  0  0  0  0
  4 18  2  0  0  0  0
  5 20  1  0  0  0  0
  6 22  1  0  0  0  0
  7 11  2  0  0  0  0
  7 21  1  0  0  0  0
  8 14  2  0  0  0  0
  8 24  1  0  0  0  0
  9 26  1  0  0  0  0
 10 26  2  0  0  0  0
 11 27  1  0  0  0  0
 12 13  2  0  0  0  0
 12 28  1  0  0  0  0
 13 29  1  0  0  0  0
 14 31  1  0  0  0  0
 15 23  1  0  0  0  0
 15 27  2  0  0  0  0
 16 25  1  0  0  0  0
 16 31  2  0  0  0  0
 17 29  2  0  0  0  0
 17 30  1  0  0  0  0
 18 32  1  0  0  0  0
 19 32  1  0  0  0  0
 19 33  2  0  0  0  0
 19 35  1  0  0  0  0
 20 22  2  0  0  0  0
 20 40  1  0  0  0  0
 21 23  2  0  0  0  0
 21 41  1  0  0  0  0
 22 52  1  0  0  0  0
 23 42  1  0  0  0  0
 24 25  2  0  0  0  0
 24 62  1  0  0  0  0
 25 61  1  0  0  0  0
 26 83  1  0  0  0  0
 27 84  1  0  0  0  0
 28 30  2  0  0  0  0
 28 83  1  0  0  0  0
 29 85  1  0  0  0  0
 30 86  1  0  0  0  0
 31 87  1  0  0  0  0
 32 66  2  0  0  0  0
 33 67  1  0  0  0  0
 33 71  1  0  0  0  0
 34 53  1  0  0  0  0
 34 68  1  0  0  0  0
 34 77  2  0  0  0  0
 35 72  1  0  0  0  0
 35 78  2  0  0  0  0
 36 54  1  0  0  0  0
 36 73  1  0  0  0  0
 36 79  2  0  0  0  0
 37 63  1  0  0  0  0
 37 69  1  0  0  0  0
 37 80  2  0  0  0  0
 38 64  1  0  0  0  0
 38 74  1  0  0  0  0
 38 81  2  0  0  0  0
 39 70  1  0  0  0  0
 39 75  1  0  0  0  0
 39 82  2  0  0  0  0
 40 43  1  0  0  0  0
 41 54  1  0  0  0  0
 42 69  1  0  0  0  0
 43 46  1  0  0  0  0
 44 47  1  0  0  0  0
 44 49  1  0  0  0  0
 45 48  1  0  0  0  0
 45 50  1  0  0  0  0
 46 52  1  0  0  0  0
 47 53  1  0  0  0  0
 48 55  1  0  0  0  0
 49 68  1  0  0  0  0
 50 70  1  0  0  0  0
 51 55  1  0  0  0  0
 51 70  1  0  0  0  0
 52 73  1  0  0  0  0
 53 84  1  0  0  0  0
 54 69  1  0  0  0  0
 55 67  1  0  0  0  0
 56 64  1  0  0  0  0
 57 65  1  0  0  0  0
 58 65  1  0  0  0  0
 59 65  1  0  0  0  0
 60 76  1  0  0  0  0
 61 68  1  0  0  0  0
 62 75  1  0  0  0  0
 63 65  1  0  0  0  0
 63 74  1  0  0  0  0
 64 76  1  0  0  0  0
 66 67  1  0  0  0  0
M  CHG  1  76   1
M  ISO  4  39 100  53 101  75 100  84 101
M  END
> <Batch ID>
0047

> <Smiles>
CNC(C)C(=O)NC(C(=O)N1Cc2cc([101O:1][101CH:1]3CCCN(Cc4cc(Cl)ccc4C[100NH:0][100C:0](=O)N4CCCC(n5nc(-c6ccc(Oc7ccc(F)cc7F)cc6)c(C(N)=O)c5N)C4)C3=O)ccc2CC1C(=O)NC1CCCc2ccccc21)C(C)(C)C

> <Shape>
0.233

> <Color>
0.091

> <Negative vol penalty>
0.000

$$$$

  -OEChem-04042322263D

 87 96  0     1  0  0  0  0  0999 V2000
  -17.4001  -25.8185   21.2891 C   0  0  0  0  0  0  0  0  0  0  0  0
  -18.7164  -25.3994   21.1248 C   0  0  0  0  0  0  0  0  0  0  0  0
  -23.3139  -10.3892   22.4807 C   0  0  0  0  0  0  0  0  0  0  0  0
  -23.6512   -9.4471   20.2816 C   0  0  0  0  0  0  0  0  0  0  0  0
  -17.1325  -27.0934   21.7861 C   0  0  0  0  0  0  0  0  0  0  0  0
  -19.7660  -26.2554   21.4564 C   0  0  0  0  0  0  0  0  0  0  0  0
  -23.4196  -23.9250   24.0766 C   0  0  0  0  0  0  0  0  0  0  0  0
  -29.0809  -19.6493   19.1887 C   0  0  0  0  0  0  0  0  0  0  0  0
  -22.5825   -9.2610   22.8518 C   0  0  0  0  0  0  0  0  0  0  0  0
  -22.9198   -8.3189   20.6528 C   0  0  0  0  0  0  0  0  0  0  0  0
  -24.3078  -23.1260   23.3580 C   0  0  0  0  0  0  0  0  0  0  0  0
  -19.4564   -8.0590   22.3966 C   0  0  0  0  0  0  0  0  0  0  0  0
  -18.2607   -8.2606   23.0859 C   0  0  0  0  0  0  0  0  0  0  0  0
  -30.1216  -19.9186   18.2999 C   0  0  0  0  0  0  0  0  0  0  0  0
  -25.9313  -24.9099   23.3929 C   0  0  0  0  0  0  0  0  0  0  0  0
  -31.5364  -18.3586   19.4840 C   0  0  0  0  0  0  0  0  0  0  0  0
  -19.1224   -6.9911   24.9522 C   0  0  0  0  0  0  0  0  0  0  0  0
  -23.8483  -10.4823   21.1955 C   0  0  0  0  0  0  0  0  0  0  0  0
  -24.1543  -12.9817   20.7868 C   0  0  0  0  0  0  0  0  0  0  0  0
  -18.1793  -27.9619   22.1331 C   0  0  0  0  0  0  0  0  0  0  0  0
  -23.7770  -25.2285   24.4499 C   0  0  0  0  0  0  0  0  0  0  0  0
  -19.5122  -27.5436   21.9573 C   0  0  0  0  0  0  0  0  0  0  0  0
  -25.0468  -25.7224   24.1184 C   0  0  0  0  0  0  0  0  0  0  0  0
  -29.2679  -18.7347   20.2252 C   0  0  0  0  0  0  0  0  0  0  0  0
  -30.4956  -18.0894   20.3728 C   0  0  0  0  0  0  0  0  0  0  0  0
  -22.3855   -8.2258   21.9379 C   0  0  0  0  0  0  0  0  0  0  0  0
  -25.5628  -23.6194   23.0135 C   0  0  0  0  0  0  0  0  0  0  0  0
  -20.4852   -7.3233   22.9851 C   0  0  0  0  0  0  0  0  0  0  0  0
  -18.0936   -7.7267   24.3637 C   0  0  0  0  0  0  0  0  0  0  0  0
  -20.3181   -6.7895   24.2629 C   0  0  0  0  0  0  0  0  0  0  0  0
  -31.3494  -19.2733   18.4476 C   0  0  0  0  0  0  0  0  0  0  0  0
  -24.6034  -11.6477   20.8114 C   0  0  0  0  0  0  0  0  0  0  0  0
  -25.2406  -13.7019   20.3536 C   0  0  0  0  0  0  0  0  0  0  0  0
  -27.0486  -20.5773   21.8168 C   0  0  0  0  0  0  0  0  0  0  0  0
  -22.8699  -13.5216   21.1253 C   0  0  0  0  0  0  0  0  0  0  0  0
  -22.6542  -28.1326   23.8103 C   0  0  0  0  0  0  0  0  0  0  0  0
  -24.8624  -29.0447   26.0044 C   0  0  0  0  0  0  0  0  0  0  0  0
  -28.2710  -28.1902   26.8223 C   0  0  0  0  0  0  0  0  0  0  0  0
  -30.7050  -14.8269   20.4972 C   0  0  0  0  0  0  0  0  0  0  0  0
  -17.8408  -29.3479   22.6221 C   0  0  0  0  0  0  0  0  0  0  0  0
  -22.8176  -26.0681   25.2480 C   0  0  0  0  0  0  0  0  0  0  0  0
  -25.4866  -27.1078   24.5130 C   0  0  0  0  0  0  0  0  0  0  0  0
  -19.0095  -30.0562   23.3023 C   0  0  0  0  0  0  0  0  0  0  0  0
  -28.5340  -20.5599   24.3427 C   0  0  0  0  0  0  0  0  0  0  0  0
  -29.6403  -12.1624   18.3892 C   0  0  0  0  0  0  0  0  0  0  0  0
  -20.2801  -29.9083   22.4713 C   0  0  0  0  0  0  0  0  0  0  0  0
  -28.0562  -21.8732   23.7595 C   0  0  0  0  0  0  0  0  0  0  0  0
  -28.2009  -11.8972   18.8336 C   0  0  0  0  0  0  0  0  0  0  0  0
  -28.9070  -19.6083   23.2201 C   0  0  0  0  0  0  0  0  0  0  0  0
  -30.5353  -12.5366   19.5686 C   0  0  0  0  0  0  0  0  0  0  0  0
  -28.6015  -13.3923   20.8343 C   0  0  0  0  0  0  0  0  0  0  0  0
  -20.6779  -28.4341   22.3291 C   0  0  1  0  0  0  0  0  0  0  0  0
  -26.8285  -21.6179   22.9075 C   0  0  1  0  0  0  0  0  0  1  0  0
  -23.0922  -27.5642   25.1304 C   0  0  1  0  0  0  0  0  0  0  0  0
  -27.6485  -13.0657   19.6718 C   0  0  2  0  0  0  0  0  0  0  0  0
  -29.5094  -28.3264   29.0006 C   0  0  0  0  0  0  0  0  0  0  0  0
  -25.7633  -31.7773   24.9889 C   0  0  0  0  0  0  0  0  0  0  0  0
  -28.0118  -31.3330   25.9964 C   0  0  0  0  0  0  0  0  0  0  0  0
  -25.9939  -31.4541   27.4580 C   0  0  0  0  0  0  0  0  0  0  0  0
  -29.0187  -25.3289   26.7094 C   0  0  0  0  0  0  0  0  0  0  0  0
  -28.1336  -18.4615   21.1701 C   0  0  0  0  0  0  0  0  0  0  0  0
  -30.7195  -17.1075   21.4758 C   0  0  0  0  0  0  0  0  0  0  0  0
  -26.3165  -29.4474   25.9542 C   0  0  1  0  0  0  0  0  0  0  0  0
  -28.7479  -27.4236   28.0427 C   0  0  2  0  0  0  0  0  0  0  0  0
  -26.5102  -30.9850   26.0803 C   0  0  0  0  0  0  0  0  0  0  0  0
  -25.8759  -11.5249   20.4245 N   0  0  0  0  0  0  0  0  0  0  0  0
  -26.2356  -12.7910   20.1526 N   0  0  0  0  0  0  0  0  0  0  0  0
  -27.9421  -19.5485   22.1208 N   0  0  0  0  0  0  0  0  0  0  0  0
  -24.5106  -27.8925   25.2871 N   0  0  0  0  0  0  0  0  0  0  0  0
  -29.9557  -13.6519   20.3211 N   0  0  0  0  0  0  0  0  0  0  0  0
  -25.4323  -15.0191   20.1289 N   0  0  0  0  0  0  0  0  0  0  0  0
  -21.8665  -12.6411   21.5523 N   0  0  0  0  0  0  0  0  0  0  0  0
  -21.3094  -27.9617   23.5426 N   0  0  0  0  0  0  0  0  0  0  0  0
  -26.9906  -28.6732   26.9908 N   0  0  0  0  0  0  0  0  0  0  0  0
  -30.0790  -15.8372   21.2170 N   0  0  0  0  0  0  0  0  0  0  0  0
  -29.6467  -26.3071   27.6344 N   0  3  0  0  0  0  0  0  0  0  0  0
  -26.4034  -20.6413   20.7671 O   0  0  0  0  0  0  0  0  0  0  0  0
  -22.6144  -14.7464   21.0356 O   0  0  0  0  0  0  0  0  0  0  0  0
  -23.4753  -28.6867   23.0888 O   0  0  0  0  0  0  0  0  0  0  0  0
  -24.0694  -29.7232   26.6619 O   0  0  0  0  0  0  0  0  0  0  0  0
  -28.9663  -28.3482   25.8212 O   0  0  0  0  0  0  0  0  0  0  0  0
  -31.8451  -14.9672   20.0418 O   0  0  0  0  0  0  0  0  0  0  0  0
  -21.6720   -7.1247   22.2998 O   0  0  0  0  0  0  0  0  0  0  0  0
  -26.4314  -22.8418   22.3116 O   0  0  0  0  0  0  0  0  0  1  0  0
  -16.9459   -7.9218   25.0261 F   0  0  0  0  0  0  0  0  0  0  0  0
  -21.3033   -6.0829   24.8339 F   0  0  0  0  0  0  0  0  0  0  0  0
  -32.6335  -19.6071   17.3521 Cl  0  0  0  0  0  0  0  0  0  0  0  0
  1  2  1  0  0  0  0
  1  5  2  0  0  0  0
  2  6  2  0  0  0  0
  3  9  2  0  0  0  0
  3 18  1  0  0  0  0
  4 10  1  0  0  0  0
  4 18  2  0  0  0  0
  5 20  1  0  0  0  0
  6 22  1  0  0  0  0
  7 11  2  0  0  0  0
  7 21  1  0  0  0  0
  8 14  2  0  0  0  0
  8 24  1  0  0  0  0
  9 26  1  0  0  0  0
 10 26  2  0  0  0  0
 11 27  1  0  0  0  0
 12 13  2  0  0  0  0
 12 28  1  0  0  0  0
 13 29  1  0  0  0  0
 14 31  1  0  0  0  0
 15 23  1  0  0  0  0
 15 27  2  0  0  0  0
 16 25  1  0  0  0  0
 16 31  2  0  0  0  0
 17 29  2  0  0  0  0
 17 30  1  0  0  0  0
 18 32  1  0  0  0  0
 19 32  1  0  0  0  0
 19 33  2  0  0  0  0
 19 35  1  0  0  0  0
 20 22  2  0  0  0  0
 20 40  1  0  0  0  0
 21 23  2  0  0  0  0
 21 41  1  0  0  0  0
 22 52  1  0  0  0  0
 23 42  1  0  0  0  0
 24 25  2  0  0  0  0
 24 61  1  0  0  0  0
 25 62  1  0  0  0  0
 26 83  1  0  0  0  0
 27 84  1  0  0  0  0
 28 30  2  0  0  0  0
 28 83  1  0  0  0  0
 29 85  1  0  0  0  0
 30 86  1  0  0  0  0
 31 87  1  0  0  0  0
 32 66  2  0  0  0  0
 33 67  1  0  0  0  0
 33 71  1  0  0  0  0
 34 53  1  0  0  0  0
 34 68  1  0  0  0  0
 34 77  2  0  0  0  0
 35 72  1  0  0  0  0
 35 78  2  0  0  0  0
 36 54  1  0  0  0  0
 36 73  1  0  0  0  0
 36 79  2  0  0  0  0
 37 63  1  0  0  0  0
 37 69  1  0  0  0  0
 37 80  2  0  0  0  0
 38 64  1  0  0  0  0
 38 74  1  0  0  0  0
 38 81  2  0  0  0  0
 39 70  1  0  0  0  0
 39 75  1  0  0  0  0
 39 82  2  0  0  0  0
 40 43  1  0  0  0  0
 41 54  1  0  0  0  0
 42 69  1  0  0  0  0
 43 46  1  0  0  0  0
 44 47  1  0  0  0  0
 44 49  1  0  0  0  0
 45 48  1  0  0  0  0
 45 50  1  0  0  0  0
 46 52  1  0  0  0  0
 47 53  1  0  0  0  0
 48 55  1  0  0  0  0
 49 68  1  0  0  0  0
 50 70  1  0  0  0  0
 51 55  1  0  0  0  0
 51 70  1  0  0  0  0
 52 73  1  0  0  0  0
 53 84  1  0  0  0  0
 54 69  1  0  0  0  0
 55 67  1  0  0  0  0
 56 64  1  0  0  0  0
 57 65  1  0  0  0  0
 58 65  1  0  0  0  0
 59 65  1  0  0  0  0
 60 76  1  0  0  0  0
 61 68  1  0  0  0  0
 62 75  1  0  0  0  0
 63 65  1  0  0  0  0
 63 74  1  0  0  0  0
 64 76  1  0  0  0  0
 66 67  1  0  0  0  0
M  CHG  1  76   1
M  ISO  4  39 100  53 101  75 100  84 101
M  END
> <Batch ID>
0047

> <Smiles>
CNC(C)C(=O)NC(C(=O)N1Cc2cc([101O:1][101CH:1]3CCCN(Cc4ccc(Cl)cc4C[100NH:0][100C:0](=O)N4CCCC(n5nc(-c6ccc(Oc7ccc(F)cc7F)cc6)c(C(N)=O)c5N)C4)C3=O)ccc2CC1C(=O)NC1CCCc2ccccc21)C(C)(C)C

> <Shape>
0.293

> <Color>
0.227

> <Negative vol penalty>
0.000

$$$$

  -OEChem-04042322263D

 87 96  0     1  0  0  0  0  0999 V2000
  -27.4061  -27.5250   26.7036 C   0  0  0  0  0  0  0  0  0  0  0  0
  -27.2047  -26.4408   25.8554 C   0  0  0  0  0  0  0  0  0  0  0  0
  -22.6318  -24.5580   20.5786 C   0  0  0  0  0  0  0  0  0  0  0  0
  -22.9940  -23.2294   22.5637 C   0  0  0  0  0  0  0  0  0  0  0  0
  -27.7810  -28.7603   26.1771 C   0  0  0  0  0  0  0  0  0  0  0  0
  -27.3770  -26.5918   24.4799 C   0  0  0  0  0  0  0  0  0  0  0  0
  -29.9945  -22.7773   22.4199 C   0  0  0  0  0  0  0  0  0  0  0  0
  -22.1279  -25.5945   21.3643 C   0  0  0  0  0  0  0  0  0  0  0  0
  -22.4901  -24.2659   23.3494 C   0  0  0  0  0  0  0  0  0  0  0  0
  -29.3102  -21.5834   22.1958 C   0  0  0  0  0  0  0  0  0  0  0  0
  -19.2324  -26.3450   22.9383 C   0  0  0  0  0  0  0  0  0  0  0  0
  -18.0630  -26.9726   22.5094 C   0  0  0  0  0  0  0  0  0  0  0  0
  -29.0537  -22.1738   19.8710 C   0  0  0  0  0  0  0  0  0  0  0  0
  -26.8043  -15.1710   22.2631 C   0  0  0  0  0  0  0  0  0  0  0  0
  -28.0398  -13.4926   21.0412 C   0  0  0  0  0  0  0  0  0  0  0  0
  -25.6754  -13.1992   21.4417 C   0  0  0  0  0  0  0  0  0  0  0  0
  -19.2389  -29.0796   22.3865 C   0  0  0  0  0  0  0  0  0  0  0  0
  -23.0648  -23.3754   21.1783 C   0  0  0  0  0  0  0  0  0  0  0  0
  -24.7022  -22.3507   19.5120 C   0  0  0  0  0  0  0  0  0  0  0  0
  -27.9674  -28.9240   24.7954 C   0  0  0  0  0  0  0  0  0  0  0  0
  -30.2043  -23.6849   21.3717 C   0  0  0  0  0  0  0  0  0  0  0  0
  -27.7535  -27.8308   23.9342 C   0  0  0  0  0  0  0  0  0  0  0  0
  -29.7431  -23.3773   20.0838 C   0  0  0  0  0  0  0  0  0  0  0  0
  -28.0042  -14.7093   21.7224 C   0  0  0  0  0  0  0  0  0  0  0  0
  -25.6398  -14.4159   22.1229 C   0  0  0  0  0  0  0  0  0  0  0  0
  -22.0570  -25.4485   22.7497 C   0  0  0  0  0  0  0  0  0  0  0  0
  -28.8372  -21.2828   20.9219 C   0  0  0  0  0  0  0  0  0  0  0  0
  -20.4051  -27.0846   23.0914 C   0  0  0  0  0  0  0  0  0  0  0  0
  -18.0662  -28.3399   22.2334 C   0  0  0  0  0  0  0  0  0  0  0  0
  -20.4084  -28.4519   22.8155 C   0  0  0  0  0  0  0  0  0  0  0  0
  -26.8754  -12.7375   20.9009 C   0  0  0  0  0  0  0  0  0  0  0  0
  -23.5850  -22.3041   20.3672 C   0  0  0  0  0  0  0  0  0  0  0  0
  -24.7775  -21.0882   18.9764 C   0  0  0  0  0  0  0  0  0  0  0  0
  -28.7844  -17.9140   21.3906 C   0  0  0  0  0  0  0  0  0  0  0  0
  -25.5924  -23.4380   19.2273 C   0  0  0  0  0  0  0  0  0  0  0  0
  -29.3323  -26.6868   20.7955 C   0  0  0  0  0  0  0  0  0  0  0  0
  -31.2741  -26.3454   18.2197 C   0  0  0  0  0  0  0  0  0  0  0  0
  -31.9620  -23.7972   15.7598 C   0  0  0  0  0  0  0  0  0  0  0  0
  -22.8882  -15.7336   20.8763 C   0  0  0  0  0  0  0  0  0  0  0  0
  -28.3270  -30.2906   24.2682 C   0  0  0  0  0  0  0  0  0  0  0  0
  -30.9677  -24.9562   21.6240 C   0  0  0  0  0  0  0  0  0  0  0  0
  -29.9602  -24.3087   18.9202 C   0  0  0  0  0  0  0  0  0  0  0  0
  -28.8535  -30.2716   22.8355 C   0  0  0  0  0  0  0  0  0  0  0  0
  -29.2104  -17.1975   18.5576 C   0  0  0  0  0  0  0  0  0  0  0  0
  -22.0353  -17.3429   17.8170 C   0  0  0  0  0  0  0  0  0  0  0  0
  -27.9646  -29.4025   21.9516 C   0  0  0  0  0  0  0  0  0  0  0  0
  -28.4629  -18.4603   18.9818 C   0  0  0  0  0  0  0  0  0  0  0  0
  -22.4366  -18.8011   18.0465 C   0  0  0  0  0  0  0  0  0  0  0  0
  -29.9658  -16.5328   19.7050 C   0  0  0  0  0  0  0  0  0  0  0  0
  -21.4769  -16.7047   19.0870 C   0  0  0  0  0  0  0  0  0  0  0  0
  -22.7521  -18.2705   20.4996 C   0  0  0  0  0  0  0  0  0  0  0  0
  -27.9547  -27.9486   22.4390 C   0  0  1  0  0  0  0  0  0  0  0  0
  -28.9414  -18.9920   20.3267 C   0  0  1  0  0  0  0  0  0  1  0  0
  -30.6750  -26.0432   20.5944 C   0  0  1  0  0  0  0  0  0  0  0  0
  -23.3730  -18.9404   19.2618 C   0  0  2  0  0  0  0  0  0  0  0  0
  -34.0314  -23.3446   14.4144 C   0  0  0  0  0  0  0  0  0  0  0  0
  -29.9199  -28.0674   16.0958 C   0  0  0  0  0  0  0  0  0  0  0  0
  -30.8255  -26.5110   14.3563 C   0  0  0  0  0  0  0  0  0  0  0  0
  -32.3900  -27.8043   15.8062 C   0  0  0  0  0  0  0  0  0  0  0  0
  -32.1063  -20.9974   16.7080 C   0  0  0  0  0  0  0  0  0  0  0  0
  -29.2569  -15.5233   21.8724 C   0  0  0  0  0  0  0  0  0  0  0  0
  -24.3569  -14.9115   22.7001 C   0  0  0  0  0  0  0  0  0  0  0  0
  -31.0901  -25.8753   16.7969 C   0  0  1  0  0  0  0  0  0  0  0  0
  -33.2244  -22.9619   15.6452 C   0  0  2  0  0  0  0  0  0  0  0  0
  -31.0401  -27.0547   15.7850 C   0  0  0  0  0  0  0  0  0  0  0  0
  -22.9930  -21.1068   20.3773 N   0  0  0  0  0  0  0  0  0  0  0  0
  -23.7410  -20.3895   19.5218 N   0  0  0  0  0  0  0  0  0  0  0  0
  -29.2706  -16.6699   20.9796 N   0  0  0  0  0  0  0  0  0  0  0  0
  -30.7066  -25.5421   19.2189 N   0  0  0  0  0  0  0  0  0  0  0  0
  -22.4136  -16.8702   20.2011 N   0  0  0  0  0  0  0  0  0  0  0  0
  -25.6285  -20.5187   18.0967 N   0  0  0  0  0  0  0  0  0  0  0  0
  -25.3714  -24.6668   19.8641 N   0  0  0  0  0  0  0  0  0  0  0  0
  -29.1693  -27.2724   22.0365 N   0  0  0  0  0  0  0  0  0  0  0  0
  -32.1586  -24.9149   16.5430 N   0  0  0  0  0  0  0  0  0  0  0  0
  -23.7772  -15.9789   21.9156 N   0  0  0  0  0  0  0  0  0  0  0  0
  -32.8811  -21.5147   15.5508 N   0  3  0  0  0  0  0  0  0  0  0  0
  -28.2883  -18.1504   22.4907 O   0  0  0  0  0  0  0  0  0  0  0  0
  -26.5455  -23.3280   18.4192 O   0  0  0  0  0  0  0  0  0  0  0  0
  -28.5059  -26.6558   19.8912 O   0  0  0  0  0  0  0  0  0  0  0  0
  -31.9045  -27.3832   18.4369 O   0  0  0  0  0  0  0  0  0  0  0  0
  -30.9081  -23.4909   15.2066 O   0  0  0  0  0  0  0  0  0  0  0  0
  -22.5491  -14.5850   20.5719 O   0  0  0  0  0  0  0  0  0  0  0  0
  -21.5655  -26.4598   23.5166 O   0  0  0  0  0  0  0  0  0  0  0  0
  -28.1684  -20.1185   20.7006 O   0  0  0  0  0  0  0  0  0  1  0  0
  -16.9435  -28.9423   21.8200 F   0  0  0  0  0  0  0  0  0  0  0  0
  -21.5322  -29.1674   22.9596 F   0  0  0  0  0  0  0  0  0  0  0  0
  -26.9195  -11.2356   20.0616 Cl  0  0  0  0  0  0  0  0  0  0  0  0
  1  2  1  0  0  0  0
  1  5  2  0  0  0  0
  2  6  2  0  0  0  0
  3  8  2  0  0  0  0
  3 18  1  0  0  0  0
  4  9  1  0  0  0  0
  4 18  2  0  0  0  0
  5 20  1  0  0  0  0
  6 22  1  0  0  0  0
  7 10  2  0  0  0  0
  7 21  1  0  0  0  0
  8 26  1  0  0  0  0
  9 26  2  0  0  0  0
 10 27  1  0  0  0  0
 11 12  2  0  0  0  0
 11 28  1  0  0  0  0
 12 29  1  0  0  0  0
 13 23  1  0  0  0  0
 13 27  2  0  0  0  0
 14 24  2  0  0  0  0
 14 25  1  0  0  0  0
 15 24  1  0  0  0  0
 15 31  2  0  0  0  0
 16 25  2  0  0  0  0
 16 31  1  0  0  0  0
 17 29  2  0  0  0  0
 17 30  1  0  0  0  0
 18 32  1  0  0  0  0
 19 32  1  0  0  0  0
 19 33  2  0  0  0  0
 19 35  1  0  0  0  0
 20 22  2  0  0  0  0
 20 40  1  0  0  0  0
 21 23  2  0  0  0  0
 21 41  1  0  0  0  0
 22 52  1  0  0  0  0
 23 42  1  0  0  0  0
 24 61  1  0  0  0  0
 25 62  1  0  0  0  0
 26 83  1  0  0  0  0
 27 84  1  0  0  0  0
 28 30  2  0  0  0  0
 28 83  1  0  0  0  0
 29 85  1  0  0  0  0
 30 86  1  0  0  0  0
 31 87  1  0  0  0  0
 32 66  2  0  0  0  0
 33 67  1  0  0  0  0
 33 71  1  0  0  0  0
 34 53  1  0  0  0  0
 34 68  1  0  0  0  0
 34 77  2  0  0  0  0
 35 72  1  0  0  0  0
 35 78  2  0  0  0  0
 36 54  1  0  0  0  0
 36 73  1  0  0  0  0
 36 79  2  0  0  0  0
 37 63  1  0  0  0  0
 37 69  1  0  0  0  0
 37 80  2  0  0  0  0
 38 64  1  0  0  0  0
 38 74  1  0  0  0  0
 38 81  2  0  0  0  0
 39 70  1  0  0  0  0
 39 75  1  0  0  0  0
 39 82  2  0  0  0  0
 40 43  1  0  0  0  0
 41 54  1  0  0  0  0
 42 69  1  0  0  0  0
 43 46  1  0  0  0  0
 44 47  1  0  0  0  0
 44 49  1  0  0  0  0
 45 48  1  0  0  0  0
 45 50  1  0  0  0  0
 46 52  1  0  0  0  0
 47 53  1  0  0  0  0
 48 55  1  0  0  0  0
 49 68  1  0  0  0  0
 50 70  1  0  0  0  0
 51 55  1  0  0  0  0
 51 70  1  0  0  0  0
 52 73  1  0  0  0  0
 53 84  1  0  0  0  0
 54 69  1  0  0  0  0
 55 67  1  0  0  0  0
 56 64  1  0  0  0  0
 57 65  1  0  0  0  0
 58 65  1  0  0  0  0
 59 65  1  0  0  0  0
 60 76  1  0  0  0  0
 61 68  1  0  0  0  0
 62 75  1  0  0  0  0
 63 65  1  0  0  0  0
 63 74  1  0  0  0  0
 64 76  1  0  0  0  0
 66 67  1  0  0  0  0
M  CHG  1  76   1
M  ISO  4  39 100  53 101  75 100  84 101
M  END
> <Batch ID>
0047

> <Smiles>
CNC(C)C(=O)NC(C(=O)N1Cc2cc([101O:1][101CH:1]3CCCN(Cc4cc(Cl)cc(C[100NH:0][100C:0](=O)N5CCCC(n6nc(-c7ccc(Oc8ccc(F)cc8F)cc7)c(C(N)=O)c6N)C5)c4)C3=O)ccc2CC1C(=O)NC1CCCc2ccccc21)C(C)(C)C

> <Shape>
0.212

> <Color>
0.058

> <Negative vol penalty>
0.000

$$$$

  -OEChem-04042322263D

 96105  0     1  0  0  0  0  0999 V2000
  -24.5780  -37.3354   22.1232 C   0  0  0  0  0  0  0  0  0  0  0  0
  -25.4138  -36.3396   21.6280 C   0  0  0  0  0  0  0  0  0  0  0  0
  -23.2372  -12.9766   18.7608 C   0  0  0  0  0  0  0  0  0  0  0  0
  -22.7885  -10.7388   19.5533 C   0  0  0  0  0  0  0  0  0  0  0  0
  -27.4951  -20.9832   19.0841 C   0  0  0  0  0  0  0  0  0  0  0  0
  -23.6882  -37.0468   23.1570 C   0  0  0  0  0  0  0  0  0  0  0  0
  -25.3610  -35.0547   22.1672 C   0  0  0  0  0  0  0  0  0  0  0  0
  -26.1713  -29.7716   19.1775 C   0  0  0  0  0  0  0  0  0  0  0  0
  -27.8983  -22.1378   18.4134 C   0  0  0  0  0  0  0  0  0  0  0  0
  -22.2173  -12.8472   17.8181 C   0  0  0  0  0  0  0  0  0  0  0  0
  -21.7685  -10.6095   18.6107 C   0  0  0  0  0  0  0  0  0  0  0  0
  -27.2725  -28.9265   19.0480 C   0  0  0  0  0  0  0  0  0  0  0  0
  -18.8409  -13.0206   17.7616 C   0  0  0  0  0  0  0  0  0  0  0  0
  -17.9547  -14.0876   17.6150 C   0  0  0  0  0  0  0  0  0  0  0  0
  -26.4328  -27.5656   20.8542 C   0  0  0  0  0  0  0  0  0  0  0  0
  -29.9559  -22.1547   19.6795 C   0  0  0  0  0  0  0  0  0  0  0  0
  -28.5609  -15.7913   22.2589 C   0  0  0  0  0  0  0  0  0  0  0  0
  -30.3868  -14.2967   21.7399 C   0  0  0  0  0  0  0  0  0  0  0  0
  -18.6034  -14.3081   15.2982 C   0  0  0  0  0  0  0  0  0  0  0  0
  -23.5228  -11.9223   19.6284 C   0  0  0  0  0  0  0  0  0  0  0  0
  -28.3222  -20.4143   20.0526 C   0  0  0  0  0  0  0  0  0  0  0  0
  -24.4622  -12.5436   21.9173 C   0  0  0  0  0  0  0  0  0  0  0  0
  -23.6176  -35.7552   23.7025 C   0  0  0  0  0  0  0  0  0  0  0  0
  -25.1965  -29.5259   20.1551 C   0  0  0  0  0  0  0  0  0  0  0  0
  -24.4703  -34.7488   23.2101 C   0  0  0  0  0  0  0  0  0  0  0  0
  -25.3189  -28.4077   20.9923 C   0  0  0  0  0  0  0  0  0  0  0  0
  -29.1287  -22.7236   18.7111 C   0  0  0  0  0  0  0  0  0  0  0  0
  -29.6079  -14.9714   22.6800 C   0  0  0  0  0  0  0  0  0  0  0  0
  -29.5527  -21.0001   20.3502 C   0  0  0  0  0  0  0  0  0  0  0  0
  -28.2928  -15.9364   20.8978 C   0  0  0  0  0  0  0  0  0  0  0  0
  -29.0717  -15.2617   19.9577 C   0  0  0  0  0  0  0  0  0  0  0  0
  -30.1187  -14.4418   20.3787 C   0  0  0  0  0  0  0  0  0  0  0  0
  -21.4829  -11.6637   17.7431 C   0  0  0  0  0  0  0  0  0  0  0  0
  -27.4049  -27.8249   19.8883 C   0  0  0  0  0  0  0  0  0  0  0  0
  -19.6086  -12.5973   16.6765 C   0  0  0  0  0  0  0  0  0  0  0  0
  -17.8359  -14.7313   16.3833 C   0  0  0  0  0  0  0  0  0  0  0  0
  -19.4898  -13.2411   15.4448 C   0  0  0  0  0  0  0  0  0  0  0  0
  -24.5767  -12.0551   20.6020 C   0  0  0  0  0  0  0  0  0  0  0  0
  -25.7365  -12.4667   22.4242 C   0  0  0  0  0  0  0  0  0  0  0  0
  -27.8766  -19.2086   20.7377 C   0  0  0  0  0  0  0  0  0  0  0  0
  -23.3074  -13.0239   22.6183 C   0  0  0  0  0  0  0  0  0  0  0  0
  -24.1135  -31.1080   22.6904 C   0  0  0  0  0  0  0  0  0  0  0  0
  -21.9558  -28.6881   22.7921 C   0  0  0  0  0  0  0  0  0  0  0  0
  -21.1749  -25.4667   21.9800 C   0  0  0  0  0  0  0  0  0  0  0  0
  -31.0537  -12.3331   19.3939 C   0  0  0  0  0  0  0  0  0  0  0  0
  -28.3015  -25.9220   18.8740 C   0  0  0  0  0  0  0  0  0  1  0  0
  -22.6731  -35.5029   24.8510 C   0  0  0  0  0  0  0  0  0  0  0  0
  -24.0008  -30.4319   20.2643 C   0  0  0  0  0  0  0  0  0  0  0  0
  -24.2896  -28.0884   22.0445 C   0  0  0  0  0  0  0  0  0  0  0  0
  -22.4150  -34.0214   25.1131 C   0  0  0  0  0  0  0  0  0  0  0  0
  -29.8185  -10.0161   22.0014 C   0  0  0  0  0  0  0  0  0  0  0  0
  -23.7268  -33.2430   25.1142 C   0  0  0  0  0  0  0  0  0  0  0  0
  -28.3109  -10.2616   21.9869 C   0  0  0  0  0  0  0  0  0  0  0  0
  -30.4488  -10.2818   20.6376 C   0  0  0  0  0  0  0  0  0  0  0  0
  -28.6484  -11.8938   20.0886 C   0  0  0  0  0  0  0  0  0  0  0  0
  -24.4250  -33.3366   23.7521 C   0  0  1  0  0  0  0  0  0  0  0  0
  -23.3329  -30.3773   21.6348 C   0  0  1  0  0  0  0  0  0  0  0  0
  -27.9961  -11.6719   21.4614 C   0  0  1  0  0  0  0  0  0  0  0  0
  -29.8936  -14.8151   24.1354 C   0  0  0  0  0  0  0  0  0  0  0  0
  -30.4583  -20.4114   21.3823 C   0  0  0  0  0  0  0  0  0  0  0  0
  -28.7792  -15.4201   18.4985 C   0  0  0  0  0  0  0  0  0  0  0  0
  -33.1288  -14.8615   19.4138 C   0  0  0  0  0  0  0  0  0  0  0  0
  -19.3547  -23.7576   22.2315 C   0  0  0  0  0  0  0  0  0  0  0  0
  -22.7745  -28.2473   25.6982 C   0  0  0  0  0  0  0  0  0  0  0  0
  -21.6675  -26.0040   25.5969 C   0  0  0  0  0  0  0  0  0  0  0  0
  -20.3166  -28.0753   25.2692 C   0  0  0  0  0  0  0  0  0  0  0  0
  -20.8101  -25.2544   19.0507 C   0  0  0  0  0  0  0  0  0  0  0  0
  -29.5632  -23.9658   17.9884 C   0  0  0  0  0  0  0  0  0  0  0  0
  -27.1589  -16.8234   20.4716 C   0  0  0  0  0  0  0  0  0  0  0  0
  -31.8825  -14.5134   18.6253 C   0  0  0  0  0  0  0  0  0  0  0  0
  -21.9034  -27.3293   23.4478 C   0  0  1  0  0  0  0  0  0  0  0  0
  -19.9323  -24.8582   21.3553 C   0  0  2  0  0  0  0  0  0  0  0  0
  -21.6861  -27.4208   24.9846 C   0  0  0  0  0  0  0  0  0  0  0  0
  -25.8250  -11.6946   20.2926 N   0  0  0  0  0  0  0  0  0  0  0  0
  -26.5067  -11.9570   21.4207 N   0  0  0  0  0  0  0  0  0  0  0  0
  -23.1419  -29.0077   22.1163 N   0  0  0  0  0  0  0  0  0  0  0  0
  -30.0913  -11.6047   20.1229 N   0  0  0  0  0  0  0  0  0  0  0  0
  -26.2620  -12.7862   23.6259 N   0  0  0  0  0  0  0  0  0  0  0  0
  -22.0761  -13.0346   21.9489 N   0  0  0  0  0  0  0  0  0  0  0  0
  -27.6277  -18.0845   19.9436 N   0  0  0  0  0  0  0  0  0  0  0  0
  -23.7950  -32.4483   22.7991 N   0  0  0  0  0  0  0  0  0  0  0  0
  -20.8728  -26.5751   22.7424 N   0  0  0  0  0  0  0  0  0  0  0  0
  -29.4392  -25.1438   18.8155 N   0  0  0  0  0  0  0  0  0  0  0  0
  -30.9375  -13.7359   19.4238 N   0  0  0  0  0  0  0  0  0  0  0  0
  -20.2548  -24.2767   20.0216 N   0  3  0  0  0  0  0  0  0  0  0  0
  -27.7123  -19.2094   21.9694 O   0  0  0  0  0  0  0  0  0  0  0  0
  -23.3688  -13.4469   23.7976 O   0  0  0  0  0  0  0  0  0  0  0  0
  -24.9423  -30.5005   23.3580 O   0  0  0  0  0  0  0  0  0  0  0  0
  -20.9775  -29.4354   22.8704 O   0  0  0  0  0  0  0  0  0  0  0  0
  -22.3005  -25.0027   21.8117 O   0  0  0  0  0  0  0  0  0  0  0  0
  -31.9240  -11.7721   18.7167 O   0  0  0  0  0  0  0  0  0  0  0  0
  -27.2660  -25.7235   18.2456 O   0  0  0  0  0  0  0  0  0  0  0  0
  -20.4874  -11.5373   16.8235 O   0  0  0  0  0  0  0  0  0  0  0  0
  -28.4792  -26.9988   19.7645 O   0  0  0  0  0  0  0  0  0  1  0  0
  -16.9836  -15.7550   16.2422 F   0  0  0  0  0  0  0  0  0  0  0  0
  -20.2237  -12.8382   14.3985 F   0  0  0  0  0  0  0  0  0  0  0  0
  1  2  1  0  0  0  0
  1  6  2  0  0  0  0
  2  7  2  0  0  0  0
  3 10  2  0  0  0  0
  3 20  1  0  0  0  0
  4 11  1  0  0  0  0
  4 20  2  0  0  0  0
  5  9  2  0  0  0  0
  5 21  1  0  0  0  0
  6 23  1  0  0  0  0
  7 25  1  0  0  0  0
  8 12  2  0  0  0  0
  8 24  1  0  0  0  0
  9 27  1  0  0  0  0
 10 33  1  0  0  0  0
 11 33  2  0  0  0  0
 12 34  1  0  0  0  0
 13 14  2  0  0  0  0
 13 35  1  0  0  0  0
 14 36  1  0  0  0  0
 15 26  1  0  0  0  0
 15 34  2  0  0  0  0
 16 27  2  0  0  0  0
 16 29  1  0  0  0  0
 17 28  1  0  0  0  0
 17 30  2  0  0  0  0
 18 28  2  0  0  0  0
 18 32  1  0  0  0  0
 19 36  2  0  0  0  0
 19 37  1  0  0  0  0
 20 38  1  0  0  0  0
 21 29  2  0  0  0  0
 21 40  1  0  0  0  0
 22 38  1  0  0  0  0
 22 39  2  0  0  0  0
 22 41  1  0  0  0  0
 23 25  2  0  0  0  0
 23 47  1  0  0  0  0
 24 26  2  0  0  0  0
 24 48  1  0  0  0  0
 25 56  1  0  0  0  0
 26 49  1  0  0  0  0
 27 68  1  0  0  0  0
 28 59  1  0  0  0  0
 29 60  1  0  0  0  0
 30 31  1  0  0  0  0
 30 69  1  0  0  0  0
 31 32  2  0  0  0  0
 31 61  1  0  0  0  0
 32 84  1  0  0  0  0
 33 93  1  0  0  0  0
 34 94  1  0  0  0  0
 35 37  2  0  0  0  0
 35 93  1  0  0  0  0
 36 95  1  0  0  0  0
 37 96  1  0  0  0  0
 38 74  2  0  0  0  0
 39 75  1  0  0  0  0
 39 78  1  0  0  0  0
 40 80  1  0  0  0  0
 40 86  2  0  0  0  0
 41 79  1  0  0  0  0
 41 87  2  0  0  0  0
 42 57  1  0  0  0  0
 42 81  1  0  0  0  0
 42 88  2  0  0  0  0
 43 71  1  0  0  0  0
 43 76  1  0  0  0  0
 43 89  2  0  0  0  0
 44 72  1  0  0  0  0
 44 82  1  0  0  0  0
 44 90  2  0  0  0  0
 45 77  1  0  0  0  0
 45 84  1  0  0  0  0
 45 91  2  0  0  0  0
 46 83  1  0  0  0  0
 46 92  2  0  0  0  0
 46 94  1  0  0  0  0
 47 50  1  0  0  0  0
 48 57  1  0  0  0  0
 49 76  1  0  0  0  0
 50 52  1  0  0  0  0
 51 53  1  0  0  0  0
 51 54  1  0  0  0  0
 52 56  1  0  0  0  0
 53 58  1  0  0  0  0
 54 77  1  0  0  0  0
 55 58  1  0  0  0  0
 55 77  1  0  0  0  0
 56 81  1  0  0  0  0
 57 76  1  0  0  0  0
 58 75  1  0  0  0  0
 62 70  1  0  0  0  0
 63 72  1  0  0  0  0
 64 73  1  0  0  0  0
 65 73  1  0  0  0  0
 66 73  1  0  0  0  0
 67 85  1  0  0  0  0
 68 83  1  0  0  0  0
 69 80  1  0  0  0  0
 70 84  1  0  0  0  0
 71 73  1  0  0  0  0
 71 82  1  0  0  0  0
 72 85  1  0  0  0  0
 74 75  1  0  0  0  0
M  CHG  1  85   1
M  ISO  4  45 100  46 101  84 100  94 101
M  END
> <Batch ID>
0047

> <Smiles>
CC[100N:0](c1cc(C)cc(CNC(=O)c2ccc(CN[101C:1](=O)[101O:1]c3ccc4c(c3)CN(C(=O)C(NC(=O)C(C)NC)C(C)(C)C)C(C(=O)NC3CCCc5ccccc53)C4)cc2C)c1C)[100C:0](=O)N1CCCC(n2nc(-c3ccc(Oc4ccc(F)cc4F)cc3)c(C(N)=O)c2N)C1

> <Shape>
0.286

> <Color>
0.066

> <Negative vol penalty>
0.000

$$$$

  -OEChem-04042322263D

 86 94  0     1  0  0  0  0  0999 V2000
  -16.7631  -28.2384   23.3146 C   0  0  0  0  0  0  0  0  0  0  0  0
  -17.7721  -27.2981   23.4966 C   0  0  0  0  0  0  0  0  0  0  0  0
  -23.7667   -8.9992   20.1960 C   0  0  0  0  0  0  0  0  0  0  0  0
  -22.9555  -10.9655   21.3417 C   0  0  0  0  0  0  0  0  0  0  0  0
  -17.0081  -29.3848   22.5597 C   0  0  0  0  0  0  0  0  0  0  0  0
  -19.0264  -27.5031   22.9228 C   0  0  0  0  0  0  0  0  0  0  0  0
  -25.9786  -26.2405   24.1017 C   0  0  0  0  0  0  0  0  0  0  0  0
  -22.9182   -8.2017   20.9639 C   0  0  0  0  0  0  0  0  0  0  0  0
  -22.1069  -10.1680   22.1096 C   0  0  0  0  0  0  0  0  0  0  0  0
  -27.0937  -25.6852   23.4756 C   0  0  0  0  0  0  0  0  0  0  0  0
  -22.8652   -6.9091   24.0865 C   0  0  0  0  0  0  0  0  0  0  0  0
  -23.3933   -5.7379   24.6296 C   0  0  0  0  0  0  0  0  0  0  0  0
  -27.4260  -27.7408   22.2577 C   0  0  0  0  0  0  0  0  0  0  0  0
  -21.7569   -4.4378   23.4176 C   0  0  0  0  0  0  0  0  0  0  0  0
  -23.7854  -10.3811   20.3849 C   0  0  0  0  0  0  0  0  0  0  0  0
  -24.3726  -11.8081   18.3536 C   0  0  0  0  0  0  0  0  0  0  0  0
  -18.2689  -29.6086   21.9845 C   0  0  0  0  0  0  0  0  0  0  0  0
  -25.5717  -27.5485   23.8019 C   0  0  0  0  0  0  0  0  0  0  0  0
  -19.2880  -28.6528   22.1584 C   0  0  0  0  0  0  0  0  0  0  0  0
  -26.3069  -28.3113   22.8833 C   0  0  0  0  0  0  0  0  0  0  0  0
  -22.0883   -8.7861   21.9206 C   0  0  0  0  0  0  0  0  0  0  0  0
  -27.8159  -26.4344   22.5514 C   0  0  0  0  0  0  0  0  0  0  0  0
  -21.7828   -6.8446   23.2089 C   0  0  0  0  0  0  0  0  0  0  0  0
  -22.8392   -4.5023   24.2952 C   0  0  0  0  0  0  0  0  0  0  0  0
  -21.2287   -5.6090   22.8745 C   0  0  0  0  0  0  0  0  0  0  0  0
  -24.6620  -11.2054   19.5924 C   0  0  0  0  0  0  0  0  0  0  0  0
  -25.5242  -12.4784   18.0204 C   0  0  0  0  0  0  0  0  0  0  0  0
  -32.9822  -19.4071   19.8368 C   0  0  0  0  0  0  0  0  0  0  0  0
  -32.4160  -18.1072   19.5816 C   0  0  0  0  0  0  0  0  0  0  0  0
  -29.9683  -19.8880   20.0833 C   0  0  0  0  0  0  0  0  0  0  0  0
  -32.3541  -20.5932   19.9167 C   0  0  0  0  0  0  0  0  0  0  0  0
  -30.9113  -20.7874   19.7534 C   0  0  0  0  0  0  0  0  0  0  0  0
  -31.2063  -17.6601   19.9411 C   0  0  0  0  0  0  0  0  0  0  0  0
  -30.1602  -18.5023   20.5768 C   0  0  0  0  0  0  0  0  0  0  0  0
  -23.1703  -11.7659   17.5737 C   0  0  0  0  0  0  0  0  0  0  0  0
  -22.9565  -28.8532   22.5518 C   0  0  0  0  0  0  0  0  0  0  0  0
  -24.4539  -31.6304   23.3053 C   0  0  0  0  0  0  0  0  0  0  0  0
  -29.7214  -24.1148   20.5174 C   0  0  0  0  0  0  0  0  0  0  0  0
  -27.3836  -33.2652   23.9305 C   0  0  0  0  0  0  0  0  0  0  0  0
  -29.5651  -15.9208   19.5079 C   0  0  0  0  0  0  0  0  0  0  0  0
  -18.4721  -30.8397   21.1373 C   0  0  0  0  0  0  0  0  0  0  0  0
  -24.3823  -28.1422   24.5057 C   0  0  0  0  0  0  0  0  0  0  0  0
  -25.9235  -29.7271   22.5416 C   0  0  0  0  0  0  0  0  0  0  0  0
  -19.9407  -31.1635   20.8757 C   0  0  0  0  0  0  0  0  0  0  0  0
  -30.1447  -12.3075   20.0247 C   0  0  0  0  0  0  0  0  0  0  0  0
  -20.6987  -29.9066   20.4603 C   0  0  0  0  0  0  0  0  0  0  0  0
  -28.7241  -11.7633   19.9081 C   0  0  0  0  0  0  0  0  0  0  0  0
  -30.1757  -13.7009   20.6515 C   0  0  0  0  0  0  0  0  0  0  0  0
  -27.8761  -14.1403   19.8380 C   0  0  0  0  0  0  0  0  0  0  0  0
  -20.6692  -28.8516   21.5727 C   0  0  1  0  0  0  0  0  0  0  0  0
  -23.7549  -29.3044   23.7421 C   0  0  1  0  0  0  0  0  0  0  0  0
  -27.8217  -12.7600   19.1652 C   0  0  2  0  0  0  0  0  0  0  0  0
  -33.1800  -21.8250   20.2091 C   0  0  0  0  0  0  0  0  0  0  0  0
  -29.5887  -21.9643   17.9896 C   0  0  0  0  0  0  0  0  0  0  0  0
  -28.2923  -35.5392   24.4790 C   0  0  0  0  0  0  0  0  0  0  0  0
  -24.0562  -32.4864   20.4038 C   0  0  0  0  0  0  0  0  0  0  0  0
  -25.7704  -34.2742   20.7693 C   0  0  0  0  0  0  0  0  0  0  0  0
  -23.6532  -34.2905   22.0883 C   0  0  0  0  0  0  0  0  0  0  0  0
  -28.5015  -32.3252   26.5046 C   0  0  0  0  0  0  0  0  0  0  0  0
  -28.9020  -24.4820   21.7362 C   0  0  0  0  0  0  0  0  0  1  0  0
  -30.4622  -22.1278   19.2179 C   0  0  1  0  0  0  0  0  0  0  0  0
  -25.4170  -32.5520   22.5969 C   0  0  1  0  0  0  0  0  0  0  0  0
  -27.7880  -34.2188   25.0403 C   0  0  2  0  0  0  0  0  0  0  0  0
  -24.7306  -33.3735   21.4694 C   0  0  0  0  0  0  0  0  0  0  0  0
  -25.9005  -11.4693   20.0174 N   0  0  0  0  0  0  0  0  0  0  0  0
  -26.3995  -12.2452   19.0401 N   0  0  0  0  0  0  0  0  0  0  0  0
  -24.7493  -30.2608   23.2516 N   0  0  0  0  0  0  0  0  0  0  0  0
  -29.2568  -14.6241   19.9659 N   0  0  0  0  0  0  0  0  0  0  0  0
  -25.8635  -13.2385   16.9576 N   0  0  0  0  0  0  0  0  0  0  0  0
  -22.0819  -11.0308   18.0630 N   0  0  0  0  0  0  0  0  0  0  0  0
  -30.8677  -16.3503   19.7473 N   0  0  0  0  0  0  0  0  0  0  0  0
  -21.6172  -29.1876   22.6133 N   0  0  0  0  0  0  0  0  0  0  0  0
  -29.7486  -22.7442   20.3124 N   0  0  0  0  0  0  0  0  0  0  0  0
  -26.0407  -33.3663   23.6344 N   0  0  0  0  0  0  0  0  0  0  0  0
  -28.8693  -33.6178   25.8713 N   0  3  0  0  0  0  0  0  0  0  0  0
  -29.3737  -18.0309   21.3948 O   0  0  0  0  0  0  0  0  0  0  0  0
  -23.0697  -12.3489   16.4675 O   0  0  0  0  0  0  0  0  0  0  0  0
  -23.5147  -28.2479   21.6442 O   0  0  0  0  0  0  0  0  0  0  0  0
  -23.4793  -32.1086   23.8911 O   0  0  0  0  0  0  0  0  0  0  0  0
  -30.2825  -24.9529   19.8170 O   0  0  0  0  0  0  0  0  0  0  0  0
  -28.1801  -32.5091   23.3788 O   0  0  0  0  0  0  0  0  0  0  0  0
  -28.7335  -16.6370   18.9385 O   0  0  0  0  0  0  0  0  0  0  0  0
  -21.2600   -8.0082   22.6699 O   0  0  0  0  0  0  0  0  0  0  0  0
  -28.9044  -25.8946   21.9383 O   0  0  0  0  0  0  0  0  0  1  0  0
  -23.3475   -3.3776   24.8156 F   0  0  0  0  0  0  0  0  0  0  0  0
  -20.1895   -5.5407   22.0311 F   0  0  0  0  0  0  0  0  0  0  0  0
  1  2  1  0  0  0  0
  1  5  2  0  0  0  0
  2  6  2  0  0  0  0
  3  8  2  0  0  0  0
  3 15  1  0  0  0  0
  4  9  1  0  0  0  0
  4 15  2  0  0  0  0
  5 17  1  0  0  0  0
  6 19  1  0  0  0  0
  7 10  2  0  0  0  0
  7 18  1  0  0  0  0
  8 21  1  0  0  0  0
  9 21  2  0  0  0  0
 10 22  1  0  0  0  0
 11 12  2  0  0  0  0
 11 23  1  0  0  0  0
 12 24  1  0  0  0  0
 13 20  1  0  0  0  0
 13 22  2  0  0  0  0
 14 24  2  0  0  0  0
 14 25  1  0  0  0  0
 15 26  1  0  0  0  0
 16 26  1  0  0  0  0
 16 27  2  0  0  0  0
 16 35  1  0  0  0  0
 17 19  2  0  0  0  0
 17 41  1  0  0  0  0
 18 20  2  0  0  0  0
 18 42  1  0  0  0  0
 19 50  1  0  0  0  0
 20 43  1  0  0  0  0
 21 83  1  0  0  0  0
 22 84  1  0  0  0  0
 23 25  2  0  0  0  0
 23 83  1  0  0  0  0
 24 85  1  0  0  0  0
 25 86  1  0  0  0  0
 26 65  2  0  0  0  0
 27 66  1  0  0  0  0
 27 69  1  0  0  0  0
 28 29  1  0  0  0  0
 28 31  2  0  0  0  0
 29 33  2  0  0  0  0
 30 32  2  0  0  0  0
 30 34  1  0  0  0  0
 31 32  1  0  0  0  0
 31 53  1  0  0  0  0
 32 61  1  0  0  0  0
 33 34  1  0  0  0  0
 33 71  1  0  0  0  0
 34 76  2  0  0  0  0
 35 70  1  0  0  0  0
 35 77  2  0  0  0  0
 36 51  1  0  0  0  0
 36 72  1  0  0  0  0
 36 78  2  0  0  0  0
 37 62  1  0  0  0  0
 37 67  1  0  0  0  0
 37 79  2  0  0  0  0
 38 60  1  0  0  0  0
 38 73  1  0  0  0  0
 38 80  2  0  0  0  0
 39 63  1  0  0  0  0
 39 74  1  0  0  0  0
 39 81  2  0  0  0  0
 40 68  1  0  0  0  0
 40 71  1  0  0  0  0
 40 82  2  0  0  0  0
 41 44  1  0  0  0  0
 42 51  1  0  0  0  0
 43 67  1  0  0  0  0
 44 46  1  0  0  0  0
 45 47  1  0  0  0  0
 45 48  1  0  0  0  0
 46 50  1  0  0  0  0
 47 52  1  0  0  0  0
 48 68  1  0  0  0  0
 49 52  1  0  0  0  0
 49 68  1  0  0  0  0
 50 72  1  0  0  0  0
 51 67  1  0  0  0  0
 52 66  1  0  0  0  0
 54 61  1  0  0  0  0
 55 63  1  0  0  0  0
 56 64  1  0  0  0  0
 57 64  1  0  0  0  0
 58 64  1  0  0  0  0
 59 75  1  0  0  0  0
 60 84  1  0  0  0  0
 61 73  1  0  0  0  0
 62 64  1  0  0  0  0
 62 74  1  0  0  0  0
 63 75  1  0  0  0  0
 65 66  1  0  0  0  0
M  CHG  1  75   1
M  ISO  4  40 100  60 101  71 100  84 101
M  END
> <Batch ID>
0047

> <Smiles>
CNC(C)C(=O)NC(C(=O)N1Cc2cc([101O:1][101CH2:1]C(=O)NC(C)c3cc(=O)c([100NH:0][100C:0](=O)N4CCCC(n5nc(-c6ccc(Oc7ccc(F)cc7F)cc6)c(C(N)=O)c5N)C4)ccc3C)ccc2CC1C(=O)NC1CCCc2ccccc21)C(C)(C)C

> <Shape>
0.284

> <Color>
0.121

> <Negative vol penalty>
0.000

$$$$

  -OEChem-04042322263D

 86 94  0     1  0  0  0  0  0999 V2000
  -29.6704  -33.8849   17.9359 C   0  0  0  0  0  0  0  0  0  0  0  0
  -30.0818  -32.8651   18.7879 C   0  0  0  0  0  0  0  0  0  0  0  0
  -32.7019  -17.4364   23.4308 C   0  0  0  0  0  0  0  0  0  0  0  0
  -23.0711   -9.8765   19.9422 C   0  0  0  0  0  0  0  0  0  0  0  0
  -23.8355   -9.8760   22.2341 C   0  0  0  0  0  0  0  0  0  0  0  0
  -28.3848  -33.8650   17.3965 C   0  0  0  0  0  0  0  0  0  0  0  0
  -29.2075  -31.8252   19.1020 C   0  0  0  0  0  0  0  0  0  0  0  0
  -30.6659  -25.9585   20.0825 C   0  0  0  0  0  0  0  0  0  0  0  0
  -31.9271  -18.3128   24.1905 C   0  0  0  0  0  0  0  0  0  0  0  0
  -32.0889  -16.5640   22.5314 C   0  0  0  0  0  0  0  0  0  0  0  0
  -22.3236   -8.7255   20.1912 C   0  0  0  0  0  0  0  0  0  0  0  0
  -23.0880   -8.7250   22.4831 C   0  0  0  0  0  0  0  0  0  0  0  0
  -30.8638  -25.2238   21.2507 C   0  0  0  0  0  0  0  0  0  0  0  0
  -21.0960   -5.9921   23.8180 C   0  0  0  0  0  0  0  0  0  0  0  0
  -20.3419   -5.9488   24.9905 C   0  0  0  0  0  0  0  0  0  0  0  0
  -28.5817  -24.4494   21.1431 C   0  0  0  0  0  0  0  0  0  0  0  0
  -19.1027   -7.8920   24.2655 C   0  0  0  0  0  0  0  0  0  0  0  0
  -23.8271  -10.4517   20.9636 C   0  0  0  0  0  0  0  0  0  0  0  0
  -24.1776  -12.9759   20.8482 C   0  0  0  0  0  0  0  0  0  0  0  0
  -27.4976  -32.8193   17.6965 C   0  0  0  0  0  0  0  0  0  0  0  0
  -29.4191  -25.9529   19.4407 C   0  0  0  0  0  0  0  0  0  0  0  0
  -27.9085  -31.7920   18.5673 C   0  0  0  0  0  0  0  0  0  0  0  0
  -28.3713  -25.1829   19.9654 C   0  0  0  0  0  0  0  0  0  0  0  0
  -30.5393  -18.3167   24.0511 C   0  0  0  0  0  0  0  0  0  0  0  0
  -29.9262  -17.4443   23.1517 C   0  0  0  0  0  0  0  0  0  0  0  0
  -30.7010  -16.5680   22.3919 C   0  0  0  0  0  0  0  0  0  0  0  0
  -22.3320   -8.1497   21.4617 C   0  0  0  0  0  0  0  0  0  0  0  0
  -29.8208  -24.4714   21.7828 C   0  0  0  0  0  0  0  0  0  0  0  0
  -20.8535   -6.9855   22.8691 C   0  0  0  0  0  0  0  0  0  0  0  0
  -19.3452   -6.8987   25.2143 C   0  0  0  0  0  0  0  0  0  0  0  0
  -19.8569   -7.9353   23.0929 C   0  0  0  0  0  0  0  0  0  0  0  0
  -24.5999  -11.6404   20.7068 C   0  0  0  0  0  0  0  0  0  0  0  0
  -25.2717  -13.7223   20.4843 C   0  0  0  0  0  0  0  0  0  0  0  0
  -22.9098  -13.4953   21.2707 C   0  0  0  0  0  0  0  0  0  0  0  0
  -27.2402  -28.1627   18.7531 C   0  0  0  0  0  0  0  0  0  0  0  0
  -25.8282  -25.7158   17.1589 C   0  0  0  0  0  0  0  0  0  0  0  0
  -29.9861  -21.5532   23.9287 C   0  0  0  0  0  0  0  0  0  0  0  0
  -25.4230  -22.3470   16.7932 C   0  0  0  0  0  0  0  0  0  0  0  0
  -30.7419  -14.7481   20.6504 C   0  0  0  0  0  0  0  0  0  0  0  0
  -26.1018  -32.8656   17.1270 C   0  0  0  0  0  0  0  0  0  0  0  0
  -29.2297  -26.7295   18.1666 C   0  0  0  0  0  0  0  0  0  0  0  0
  -27.0196  -25.1271   19.3035 C   0  0  0  0  0  0  0  0  0  0  0  0
  -25.3646  -31.5317   17.2124 C   0  0  0  0  0  0  0  0  0  0  0  0
  -29.6143  -12.3432   18.2793 C   0  0  0  0  0  0  0  0  0  0  0  0
  -25.5236  -30.9218   18.6015 C   0  0  0  0  0  0  0  0  0  0  0  0
  -28.1745  -12.0558   18.7111 C   0  0  0  0  0  0  0  0  0  0  0  0
  -30.5326  -12.5662   19.4796 C   0  0  0  0  0  0  0  0  0  0  0  0
  -28.6309  -13.2946   20.8662 C   0  0  0  0  0  0  0  0  0  0  0  0
  -26.9974  -30.6338   18.9121 C   0  0  1  0  0  0  0  0  0  0  0  0
  -27.7681  -27.0598   17.8798 C   0  0  1  0  0  0  0  0  0  0  0  0
  -27.6552  -13.1272   19.6899 C   0  0  2  0  0  0  0  0  0  0  0  0
  -24.1754  -20.6495   15.4297 C   0  0  0  0  0  0  0  0  0  0  0  0
  -23.2874  -26.3190   18.7371 C   0  0  0  0  0  0  0  0  0  0  0  0
  -22.4173  -24.0708   18.0613 C   0  0  0  0  0  0  0  0  0  0  0  0
  -22.9140  -25.7884   16.3218 C   0  0  0  0  0  0  0  0  0  0  0  0
  -27.9308  -21.1639   15.7588 C   0  0  0  0  0  0  0  0  0  0  0  0
  -29.7292  -19.2701   24.8810 C   0  0  0  0  0  0  0  0  0  0  0  0
  -29.2448  -22.5596   23.0747 C   0  0  0  0  0  0  0  0  0  1  0  0
  -24.8265  -24.6442   17.5155 C   0  0  1  0  0  0  0  0  0  0  0  0
  -25.4577  -21.4557   15.5649 C   0  0  2  0  0  0  0  0  0  0  0  0
  -28.4368  -17.4523   23.0055 C   0  0  0  0  0  0  0  0  0  0  0  0
  -23.3861  -25.2080   17.6727 C   0  0  0  0  0  0  0  0  0  0  0  0
  -25.8636  -11.5410   20.2859 N   0  0  0  0  0  0  0  0  0  0  0  0
  -26.2448  -12.8235   20.1595 N   0  0  0  0  0  0  0  0  0  0  0  0
  -26.8820  -25.9086   18.0633 N   0  0  0  0  0  0  0  0  0  0  0  0
  -29.9790  -13.5972   20.3603 N   0  0  0  0  0  0  0  0  0  0  0  0
  -25.4867  -15.0531   20.4136 N   0  0  0  0  0  0  0  0  0  0  0  0
  -21.8953  -12.5891   21.6080 N   0  0  0  0  0  0  0  0  0  0  0  0
  -30.0994  -15.6737   21.4720 N   0  0  0  0  0  0  0  0  0  0  0  0
  -27.4306  -29.4298   18.2359 N   0  0  0  0  0  0  0  0  0  0  0  0
  -29.2515  -20.3911   24.1050 N   0  0  0  0  0  0  0  0  0  0  0  0
  -24.9551  -23.6094   16.4952 N   0  0  0  0  0  0  0  0  0  0  0  0
  -26.6035  -20.5062   15.6461 N   0  3  0  0  0  0  0  0  0  0  0  0
  -22.6780  -14.7267   21.3310 O   0  0  0  0  0  0  0  0  0  0  0  0
  -26.6987  -27.8845   19.8166 O   0  0  0  0  0  0  0  0  0  0  0  0
  -25.6849  -26.3534   16.1126 O   0  0  0  0  0  0  0  0  0  0  0  0
  -31.1010  -21.7709   24.3950 O   0  0  0  0  0  0  0  0  0  0  0  0
  -25.7722  -21.9608   17.9065 O   0  0  0  0  0  0  0  0  0  0  0  0
  -31.8707  -14.9138   20.1809 O   0  0  0  0  0  0  0  0  0  0  0  0
  -21.6026   -7.0267   21.7051 O   0  0  0  0  0  0  0  0  0  0  0  0
  -30.0110  -23.7539   22.9233 O   0  0  0  0  0  0  0  0  0  1  0  0
  -18.6201   -6.8560   26.3397 F   0  0  0  0  0  0  0  0  0  0  0  0
  -19.6186   -8.8913   22.1845 F   0  0  0  0  0  0  0  0  0  0  0  0
  -27.8175  -18.3610   23.8123 F   0  0  0  0  0  0  0  0  0  0  0  0
  -28.0183  -17.7480   21.7416 F   0  0  0  0  0  0  0  0  0  0  0  0
  -27.8782  -16.2465   23.3083 F   0  0  0  0  0  0  0  0  0  0  0  0
  1  2  1  0  0  0  0
  1  6  2  0  0  0  0
  2  7  2  0  0  0  0
  3  9  2  0  0  0  0
  3 10  1  0  0  0  0
  4 11  2  0  0  0  0
  4 18  1  0  0  0  0
  5 12  1  0  0  0  0
  5 18  2  0  0  0  0
  6 20  1  0  0  0  0
  7 22  1  0  0  0  0
  8 13  2  0  0  0  0
  8 21  1  0  0  0  0
  9 24  1  0  0  0  0
 10 26  2  0  0  0  0
 11 27  1  0  0  0  0
 12 27  2  0  0  0  0
 13 28  1  0  0  0  0
 14 15  2  0  0  0  0
 14 29  1  0  0  0  0
 15 30  1  0  0  0  0
 16 23  1  0  0  0  0
 16 28  2  0  0  0  0
 17 30  2  0  0  0  0
 17 31  1  0  0  0  0
 18 32  1  0  0  0  0
 19 32  1  0  0  0  0
 19 33  2  0  0  0  0
 19 34  1  0  0  0  0
 20 22  2  0  0  0  0
 20 40  1  0  0  0  0
 21 23  2  0  0  0  0
 21 41  1  0  0  0  0
 22 49  1  0  0  0  0
 23 42  1  0  0  0  0
 24 25  2  0  0  0  0
 24 57  1  0  0  0  0
 25 26  1  0  0  0  0
 25 61  1  0  0  0  0
 26 69  1  0  0  0  0
 27 80  1  0  0  0  0
 28 81  1  0  0  0  0
 29 31  2  0  0  0  0
 29 80  1  0  0  0  0
 30 82  1  0  0  0  0
 31 83  1  0  0  0  0
 32 63  2  0  0  0  0
 33 64  1  0  0  0  0
 33 67  1  0  0  0  0
 34 68  1  0  0  0  0
 34 74  2  0  0  0  0
 35 50  1  0  0  0  0
 35 70  1  0  0  0  0
 35 75  2  0  0  0  0
 36 59  1  0  0  0  0
 36 65  1  0  0  0  0
 36 76  2  0  0  0  0
 37 58  1  0  0  0  0
 37 71  1  0  0  0  0
 37 77  2  0  0  0  0
 38 60  1  0  0  0  0
 38 72  1  0  0  0  0
 38 78  2  0  0  0  0
 39 66  1  0  0  0  0
 39 69  1  0  0  0  0
 39 79  2  0  0  0  0
 40 43  1  0  0  0  0
 41 50  1  0  0  0  0
 42 65  1  0  0  0  0
 43 45  1  0  0  0  0
 44 46  1  0  0  0  0
 44 47  1  0  0  0  0
 45 49  1  0  0  0  0
 46 51  1  0  0  0  0
 47 66  1  0  0  0  0
 48 51  1  0  0  0  0
 48 66  1  0  0  0  0
 49 70  1  0  0  0  0
 50 65  1  0  0  0  0
 51 64  1  0  0  0  0
 52 60  1  0  0  0  0
 53 62  1  0  0  0  0
 54 62  1  0  0  0  0
 55 62  1  0  0  0  0
 56 73  1  0  0  0  0
 57 71  1  0  0  0  0
 58 81  1  0  0  0  0
 59 62  1  0  0  0  0
 59 72  1  0  0  0  0
 60 73  1  0  0  0  0
 61 84  1  0  0  0  0
 61 85  1  0  0  0  0
 61 86  1  0  0  0  0
 63 64  1  0  0  0  0
M  CHG  1  73   1
M  ISO  4  39 100  58 101  69 100  81 101
M  END
> <Batch ID>
0047

> <Smiles>
CNC(C)C(=O)NC(C(=O)N1Cc2cc([101O:1][101CH2:1]C(=O)NCc3cccc([100NH:0][100C:0](=O)N4CCCC(n5nc(-c6ccc(Oc7ccc(F)cc7F)cc6)c(C(N)=O)c5N)C4)c3C(F)(F)F)ccc2CC1C(=O)NC1CCCc2ccccc21)C(C)(C)C

> <Shape>
0.214

> <Color>
0.192

> <Negative vol penalty>
0.000

$$$$

  -OEChem-04042322263D

 84 92  0     1  0  0  0  0  0999 V2000
  -20.3581  -23.8606   21.9001 C   0  0  0  0  0  0  0  0  0  0  0  0
  -21.3898  -24.4322   21.1623 C   0  0  0  0  0  0  0  0  0  0  0  0
  -26.7082  -12.9224   20.9780 C   0  0  0  0  0  0  0  0  0  0  0  0
  -26.7162  -13.0267   18.5643 C   0  0  0  0  0  0  0  0  0  0  0  0
  -19.4120  -24.6754   22.5206 C   0  0  0  0  0  0  0  0  0  0  0  0
  -21.4754  -25.8189   21.0438 C   0  0  0  0  0  0  0  0  0  0  0  0
  -26.1915  -27.5385   21.7119 C   0  0  0  0  0  0  0  0  0  0  0  0
  -26.2024  -11.6238   20.9202 C   0  0  0  0  0  0  0  0  0  0  0  0
  -26.2104  -11.7280   18.5065 C   0  0  0  0  0  0  0  0  0  0  0  0
  -27.0770  -27.3998   20.6440 C   0  0  0  0  0  0  0  0  0  0  0  0
  -24.5702   -8.4116   21.4117 C   0  0  0  0  0  0  0  0  0  0  0  0
  -23.5191   -8.0847   22.2684 C   0  0  0  0  0  0  0  0  0  0  0  0
  -26.7144  -29.7098   20.0510 C   0  0  0  0  0  0  0  0  0  0  0  0
  -27.9011  -23.3069   16.1032 C   0  0  0  0  0  0  0  0  0  0  0  0
  -29.7535  -23.7682   14.6225 C   0  0  0  0  0  0  0  0  0  0  0  0
  -29.8797  -21.9224   16.1762 C   0  0  0  0  0  0  0  0  0  0  0  0
  -22.1595   -9.8072   21.2576 C   0  0  0  0  0  0  0  0  0  0  0  0
  -26.9650  -13.6239   19.8000 C   0  0  0  0  0  0  0  0  0  0  0  0
  -28.8408  -15.3510   19.8800 C   0  0  0  0  0  0  0  0  0  0  0  0
  -19.4916  -26.0731   22.4176 C   0  0  0  0  0  0  0  0  0  0  0  0
  -25.5513  -28.7630   21.9512 C   0  0  0  0  0  0  0  0  0  0  0  0
  -20.5287  -26.6531   21.6624 C   0  0  0  0  0  0  0  0  0  0  0  0
  -25.8231  -29.8621   21.1241 C   0  0  0  0  0  0  0  0  0  0  0  0
  -28.4765  -24.0760   15.0918 C   0  0  0  0  0  0  0  0  0  0  0  0
  -28.6027  -22.2301   16.6455 C   0  0  0  0  0  0  0  0  0  0  0  0
  -25.9536  -11.0266   19.6845 C   0  0  0  0  0  0  0  0  0  0  0  0
  -27.3364  -28.4847   19.8117 C   0  0  0  0  0  0  0  0  0  0  0  0
  -24.4160   -9.4364   20.4780 C   0  0  0  0  0  0  0  0  0  0  0  0
  -22.3138   -8.7824   22.1913 C   0  0  0  0  0  0  0  0  0  0  0  0
  -23.2107  -10.1342   20.4010 C   0  0  0  0  0  0  0  0  0  0  0  0
  -30.4551  -22.6914   15.1647 C   0  0  0  0  0  0  0  0  0  0  0  0
  -27.4869  -14.9656   19.8590 C   0  0  0  0  0  0  0  0  0  0  0  0
  -28.8064  -16.7228   19.9383 C   0  0  0  0  0  0  0  0  0  0  0  0
  -30.0236  -14.5413   19.8493 C   0  0  0  0  0  0  0  0  0  0  0  0
  -22.5278  -29.7429   21.9930 C   0  0  0  0  0  0  0  0  0  0  0  0
  -23.8478  -32.5110   23.0503 C   0  0  0  0  0  0  0  0  0  0  0  0
  -27.7459  -27.1323   16.1246 C   0  0  0  0  0  0  0  0  0  0  0  0
  -26.5923  -34.5323   23.2208 C   0  0  0  0  0  0  0  0  0  0  0  0
  -26.7617  -21.6200   18.2533 C   0  0  0  0  0  0  0  0  0  0  0  0
  -18.4186  -26.9111   23.0666 C   0  0  0  0  0  0  0  0  0  0  0  0
  -24.6192  -28.9037   23.1233 C   0  0  0  0  0  0  0  0  0  0  0  0
  -25.1772  -31.2038   21.3505 C   0  0  0  0  0  0  0  0  0  0  0  0
  -18.7955  -28.3840   23.2035 C   0  0  0  0  0  0  0  0  0  0  0  0
  -24.9474  -19.8883   20.7804 C   0  0  0  0  0  0  0  0  0  0  0  0
  -19.3853  -28.9076   21.8978 C   0  0  0  0  0  0  0  0  0  0  0  0
  -25.5577  -18.4849   20.7677 C   0  0  0  0  0  0  0  0  0  0  0  0
  -24.8593  -20.4812   19.3753 C   0  0  0  0  0  0  0  0  0  0  0  0
  -26.7285  -19.0725   18.6065 C   0  0  0  0  0  0  0  0  0  0  0  0
  -20.6695  -28.1541   21.5311 C   0  0  1  0  0  0  0  0  0  0  0  0
  -23.6301  -30.0544   22.9654 C   0  0  1  0  0  0  0  0  0  0  0  0
  -26.8976  -18.4600   20.0064 C   0  0  2  0  0  0  0  0  0  0  0  0
  -27.3543  -36.7477   24.1199 C   0  0  0  0  0  0  0  0  0  0  0  0
  -22.3648  -33.9336   20.7949 C   0  0  0  0  0  0  0  0  0  0  0  0
  -23.8704  -35.9036   21.1413 C   0  0  0  0  0  0  0  0  0  0  0  0
  -22.3594  -35.1526   22.9785 C   0  0  0  0  0  0  0  0  0  0  0  0
  -28.6410  -33.2618   24.9378 C   0  0  0  0  0  0  0  0  0  0  0  0
  -27.7216  -25.2354   14.5088 C   0  0  0  0  0  0  0  0  0  0  0  0
  -28.4637  -28.4487   16.3784 C   0  0  0  0  0  0  0  0  0  0  0  0
  -27.9635  -29.1678   17.6217 C   0  0  0  0  0  0  0  0  0  1  0  0
  -24.3856  -33.7587   22.3922 C   0  0  1  0  0  0  0  0  0  0  0  0
  -27.2399  -35.2552   24.3881 C   0  0  2  0  0  0  0  0  0  0  0  0
  -23.2559  -34.6614   21.8210 C   0  0  0  0  0  0  0  0  0  0  0  0
  -26.6533  -16.0084   19.9008 N   0  0  0  0  0  0  0  0  0  0  0  0
  -27.4856  -17.0625   19.9487 N   0  0  0  0  0  0  0  0  0  0  0  0
  -24.2686  -31.2894   22.5058 N   0  0  0  0  0  0  0  0  0  0  0  0
  -26.1663  -20.4278   18.7167 N   0  0  0  0  0  0  0  0  0  0  0  0
  -29.7775  -17.6596   19.9813 N   0  0  0  0  0  0  0  0  0  0  0  0
  -29.8786  -13.1486   19.7894 N   0  0  0  0  0  0  0  0  0  0  0  0
  -28.0185  -21.4494   17.6736 N   0  0  0  0  0  0  0  0  0  0  0  0
  -21.7799  -28.6303   22.3279 N   0  0  0  0  0  0  0  0  0  0  0  0
  -28.2258  -26.5034   14.9847 N   0  0  0  0  0  0  0  0  0  0  0  0
  -25.2286  -34.4137   23.3866 N   0  0  0  0  0  0  0  0  0  0  0  0
  -28.6068  -34.7163   24.6372 N   0  3  0  0  0  0  0  0  0  0  0  0
  -31.1750  -15.0374   19.8909 O   0  0  0  0  0  0  0  0  0  0  0  0
  -22.3667  -30.4599   21.0123 O   0  0  0  0  0  0  0  0  0  0  0  0
  -23.0881  -32.6163   24.0164 O   0  0  0  0  0  0  0  0  0  0  0  0
  -26.8557  -26.6995   16.8513 O   0  0  0  0  0  0  0  0  0  0  0  0
  -27.2317  -34.1177   22.2565 O   0  0  0  0  0  0  0  0  0  0  0  0
  -26.2103  -22.7155   18.3871 O   0  0  0  0  0  0  0  0  0  0  0  0
  -25.4603   -9.7593   19.6277 O   0  0  0  0  0  0  0  0  0  0  0  0
  -28.1998  -28.3518   18.7682 O   0  0  0  0  0  0  0  0  0  1  0  0
  -21.3039   -8.4673   23.0129 F   0  0  0  0  0  0  0  0  0  0  0  0
  -23.0563  -11.1189   19.5052 F   0  0  0  0  0  0  0  0  0  0  0  0
  -32.0315  -22.3128   14.5872 Cl  0  0  0  0  0  0  0  0  0  0  0  0
  1  2  1  0  0  0  0
  1  5  2  0  0  0  0
  2  6  2  0  0  0  0
  3  8  2  0  0  0  0
  3 18  1  0  0  0  0
  4  9  1  0  0  0  0
  4 18  2  0  0  0  0
  5 20  1  0  0  0  0
  6 22  1  0  0  0  0
  7 10  2  0  0  0  0
  7 21  1  0  0  0  0
  8 26  1  0  0  0  0
  9 26  2  0  0  0  0
 10 27  1  0  0  0  0
 11 12  2  0  0  0  0
 11 28  1  0  0  0  0
 12 29  1  0  0  0  0
 13 23  1  0  0  0  0
 13 27  2  0  0  0  0
 14 24  2  0  0  0  0
 14 25  1  0  0  0  0
 15 24  1  0  0  0  0
 15 31  2  0  0  0  0
 16 25  2  0  0  0  0
 16 31  1  0  0  0  0
 17 29  2  0  0  0  0
 17 30  1  0  0  0  0
 18 32  1  0  0  0  0
 19 32  1  0  0  0  0
 19 33  2  0  0  0  0
 19 34  1  0  0  0  0
 20 22  2  0  0  0  0
 20 40  1  0  0  0  0
 21 23  2  0  0  0  0
 21 41  1  0  0  0  0
 22 49  1  0  0  0  0
 23 42  1  0  0  0  0
 24 57  1  0  0  0  0
 25 69  1  0  0  0  0
 26 80  1  0  0  0  0
 27 81  1  0  0  0  0
 28 30  2  0  0  0  0
 28 80  1  0  0  0  0
 29 82  1  0  0  0  0
 30 83  1  0  0  0  0
 31 84  1  0  0  0  0
 32 63  2  0  0  0  0
 33 64  1  0  0  0  0
 33 67  1  0  0  0  0
 34 68  1  0  0  0  0
 34 74  2  0  0  0  0
 35 50  1  0  0  0  0
 35 70  1  0  0  0  0
 35 75  2  0  0  0  0
 36 60  1  0  0  0  0
 36 65  1  0  0  0  0
 36 76  2  0  0  0  0
 37 58  1  0  0  0  0
 37 71  1  0  0  0  0
 37 77  2  0  0  0  0
 38 61  1  0  0  0  0
 38 72  1  0  0  0  0
 38 78  2  0  0  0  0
 39 66  1  0  0  0  0
 39 69  1  0  0  0  0
 39 79  2  0  0  0  0
 40 43  1  0  0  0  0
 41 50  1  0  0  0  0
 42 65  1  0  0  0  0
 43 45  1  0  0  0  0
 44 46  1  0  0  0  0
 44 47  1  0  0  0  0
 45 49  1  0  0  0  0
 46 51  1  0  0  0  0
 47 66  1  0  0  0  0
 48 51  1  0  0  0  0
 48 66  1  0  0  0  0
 49 70  1  0  0  0  0
 50 65  1  0  0  0  0
 51 64  1  0  0  0  0
 52 61  1  0  0  0  0
 53 62  1  0  0  0  0
 54 62  1  0  0  0  0
 55 62  1  0  0  0  0
 56 73  1  0  0  0  0
 57 71  1  0  0  0  0
 58 59  1  0  0  0  0
 59 81  1  0  0  0  0
 60 62  1  0  0  0  0
 60 72  1  0  0  0  0
 61 73  1  0  0  0  0
 63 64  1  0  0  0  0
M  CHG  1  73   1
M  ISO  4  39 100  59 101  69 100  81 101
M  END
> <Batch ID>
0047

> <Smiles>
CNC(C)C(=O)NC(C(=O)N1Cc2cc([101O:1][101CH2:1]CC(=O)NCc3cc(Cl)cc([100NH:0][100C:0](=O)N4CCCC(n5nc(-c6ccc(Oc7ccc(F)cc7F)cc6)c(C(N)=O)c5N)C4)c3)ccc2CC1C(=O)NC1CCCc2ccccc21)C(C)(C)C

> <Shape>
0.256

> <Color>
0.115

> <Negative vol penalty>
0.000

$$$$

  -OEChem-04042322263D

 88 97  0     1  0  0  0  0  0999 V2000
  -38.4086  -28.3951   20.8825 C   0  0  0  0  0  0  0  0  0  0  0  0
  -38.3546  -27.2304   21.6413 C   0  0  0  0  0  0  0  0  0  0  0  0
  -23.2334   -9.8370   19.9776 C   0  0  0  0  0  0  0  0  0  0  0  0
  -23.9530   -9.9597   22.2807 C   0  0  0  0  0  0  0  0  0  0  0  0
  -37.2304  -28.9789   20.4188 C   0  0  0  0  0  0  0  0  0  0  0  0
  -37.1222  -26.6493   21.9379 C   0  0  0  0  0  0  0  0  0  0  0  0
  -35.8989  -20.6704   22.4498 C   0  0  0  0  0  0  0  0  0  0  0  0
  -22.5643   -8.6438   20.2503 C   0  0  0  0  0  0  0  0  0  0  0  0
  -23.2839   -8.7666   22.5534 C   0  0  0  0  0  0  0  0  0  0  0  0
  -35.7848  -19.8275   23.5545 C   0  0  0  0  0  0  0  0  0  0  0  0
  -20.1068   -7.7704   23.1316 C   0  0  0  0  0  0  0  0  0  0  0  0
  -19.3350   -7.7126   24.2920 C   0  0  0  0  0  0  0  0  0  0  0  0
  -33.3916  -20.1295   23.5302 C   0  0  0  0  0  0  0  0  0  0  0  0
  -32.5741  -14.9437   23.2187 C   0  0  0  0  0  0  0  0  0  0  0  0
  -31.3123  -15.9368   25.5000 C   0  0  0  0  0  0  0  0  0  0  0  0
  -20.6909   -5.8847   25.1028 C   0  0  0  0  0  0  0  0  0  0  0  0
  -23.9278  -10.4949   20.9929 C   0  0  0  0  0  0  0  0  0  0  0  0
  -24.1019  -13.0329   20.8041 C   0  0  0  0  0  0  0  0  0  0  0  0
  -35.9835  -28.3994   20.7017 C   0  0  0  0  0  0  0  0  0  0  0  0
  -34.7593  -21.2588   21.8827 C   0  0  0  0  0  0  0  0  0  0  0  0
  -35.9261  -27.2266   21.4787 C   0  0  0  0  0  0  0  0  0  0  0  0
  -33.4937  -20.9774   22.4167 C   0  0  0  0  0  0  0  0  0  0  0  0
  -33.3302  -15.2938   24.3373 C   0  0  0  0  0  0  0  0  0  0  0  0
  -32.6993  -15.7903   25.4780 C   0  0  0  0  0  0  0  0  0  0  0  0
  -31.1871  -15.0902   23.2407 C   0  0  0  0  0  0  0  0  0  0  0  0
  -22.5895   -8.1086   21.5381 C   0  0  0  0  0  0  0  0  0  0  0  0
  -34.5313  -19.5593   24.0966 C   0  0  0  0  0  0  0  0  0  0  0  0
  -21.1707   -6.8853   22.9568 C   0  0  0  0  0  0  0  0  0  0  0  0
  -19.6270   -6.7697   25.2776 C   0  0  0  0  0  0  0  0  0  0  0  0
  -30.5562  -15.5868   24.3814 C   0  0  0  0  0  0  0  0  0  0  0  0
  -21.4627   -5.9425   23.9424 C   0  0  0  0  0  0  0  0  0  0  0  0
  -24.6197  -11.7271   20.7117 C   0  0  0  0  0  0  0  0  0  0  0  0
  -25.1473  -13.8438   20.4351 C   0  0  0  0  0  0  0  0  0  0  0  0
  -34.5877  -18.4712   28.6673 C   0  0  0  0  0  0  0  0  0  0  0  0
  -33.6096  -17.5527   28.6858 C   0  0  0  0  0  0  0  0  0  0  0  0
  -34.8759  -19.2646   27.4505 C   0  0  0  0  0  0  0  0  0  0  0  0
  -22.7930  -13.4736   21.1891 C   0  0  0  0  0  0  0  0  0  0  0  0
  -33.7464  -24.2430   21.4678 C   0  0  0  0  0  0  0  0  0  0  0  0
  -31.3703  -22.7916   19.8036 C   0  0  0  0  0  0  0  0  0  0  0  0
  -29.5276  -19.9740   19.2449 C   0  0  0  0  0  0  0  0  0  0  0  0
  -30.8923  -14.2260   20.8928 C   0  0  0  0  0  0  0  0  0  0  0  0
  -34.7343  -29.0929   20.2187 C   0  0  0  0  0  0  0  0  0  0  0  0
  -34.8967  -22.1445   20.6748 C   0  0  0  0  0  0  0  0  0  0  0  0
  -32.2373  -21.5679   21.8324 C   0  0  0  0  0  0  0  0  0  0  0  0
  -33.4913  -28.2077   20.2604 C   0  0  0  0  0  0  0  0  0  0  0  0
  -29.3263  -13.1903   17.8675 C   0  0  0  0  0  0  0  0  0  0  0  0
  -33.4022  -27.4752   21.5955 C   0  0  0  0  0  0  0  0  0  0  0  0
  -27.9020  -12.8348   18.2999 C   0  0  0  0  0  0  0  0  0  0  0  0
  -30.3546  -12.8022   18.9285 C   0  0  0  0  0  0  0  0  0  0  0  0
  -28.6584  -12.9646   20.7078 C   0  0  0  0  0  0  0  0  0  0  0  0
  -32.5666  -18.5440   26.7117 C   0  0  0  0  0  0  0  0  0  0  0  0
  -34.6098  -26.5527   21.8003 C   0  0  1  0  0  0  0  0  0  0  0  0
  -33.8420  -19.2872   26.3461 C   0  0  2  0  0  0  0  0  0  1  0  0
  -33.7191  -23.0976   20.4957 C   0  0  1  0  0  0  0  0  0  0  0  0
  -27.5811  -13.3957   19.6992 C   0  0  2  0  0  0  0  0  0  0  0  0
  -34.8138  -15.1287   24.2906 C   0  0  0  0  0  0  0  0  0  0  0  0
  -33.2761  -16.7739   29.9243 C   0  0  0  0  0  0  0  0  0  0  0  0
  -27.6318  -19.1046   17.8493 C   0  0  0  0  0  0  0  0  0  0  0  0
  -29.3863  -24.3009   21.5629 C   0  0  0  0  0  0  0  0  0  0  0  0
  -27.6065  -22.7164   20.7949 C   0  0  0  0  0  0  0  0  0  0  0  0
  -28.7603  -24.1885   19.1443 C   0  0  0  0  0  0  0  0  0  0  0  0
  -31.2423  -17.9129   17.9916 C   0  0  0  0  0  0  0  0  0  0  0  0
  -33.4913  -16.1737   26.6932 C   0  0  0  0  0  0  0  0  0  0  0  0
  -30.0105  -22.2336   20.1479 C   0  0  1  0  0  0  0  0  0  0  0  0
  -29.1403  -19.2617   17.9614 C   0  0  2  0  0  0  0  0  0  0  0  0
  -28.9646  -23.3501   20.4249 C   0  0  0  0  0  0  0  0  0  0  0  0
  -25.8949  -11.7050   20.3150 N   0  0  0  0  0  0  0  0  0  0  0  0
  -26.1871  -13.0069   20.1547 N   0  0  0  0  0  0  0  0  0  0  0  0
  -32.4243  -22.4326   20.6557 N   0  0  0  0  0  0  0  0  0  0  0  0
  -29.9877  -13.3724   20.2266 N   0  0  0  0  0  0  0  0  0  0  0  0
  -25.2693  -15.1838   20.3263 N   0  0  0  0  0  0  0  0  0  0  0  0
  -21.8387  -12.5082   21.5380 N   0  0  0  0  0  0  0  0  0  0  0  0
  -30.4212  -14.7336   22.1032 N   0  0  0  0  0  0  0  0  0  0  0  0
  -34.4579  -25.3412   21.0235 N   0  0  0  0  0  0  0  0  0  0  0  0
  -29.6501  -21.3345   19.0570 N   0  0  0  0  0  0  0  0  0  0  0  0
  -32.8543  -17.2825   27.4864 N   0  3  1  0  0  0  0  0  0  0  0  0
  -29.7587  -17.9067   17.9141 N   0  3  0  0  0  0  0  0  0  0  0  0
  -35.9373  -19.8785   27.3587 O   0  0  0  0  0  0  0  0  0  0  0  0
  -22.4740  -14.6866   21.2070 O   0  0  0  0  0  0  0  0  0  0  0  0
  -33.1639  -24.1388   22.5409 O   0  0  0  0  0  0  0  0  0  0  0  0
  -31.4941  -23.5134   18.8109 O   0  0  0  0  0  0  0  0  0  0  0  0
  -29.7003  -19.3830   20.3086 O   0  0  0  0  0  0  0  0  0  0  0  0
  -31.9921  -14.5092   20.4110 O   0  0  0  0  0  0  0  0  0  0  0  0
  -21.9366   -6.9445   21.8046 O   0  0  0  0  0  0  0  0  0  0  0  0
  -34.4172  -18.7375   25.1753 O   0  0  0  0  0  0  0  0  0  1  0  0
  -18.8866   -6.7153   26.3925 F   0  0  0  0  0  0  0  0  0  0  0  0
  -29.2238  -15.7315   24.4139 F   0  0  0  0  0  0  0  0  0  0  0  0
  -22.4842   -5.0903   23.7806 F   0  0  0  0  0  0  0  0  0  0  0  0
  1  2  1  0  0  0  0
  1  5  2  0  0  0  0
  2  6  2  0  0  0  0
  3  8  2  0  0  0  0
  3 17  1  0  0  0  0
  4  9  1  0  0  0  0
  4 17  2  0  0  0  0
  5 19  1  0  0  0  0
  6 21  1  0  0  0  0
  7 10  2  0  0  0  0
  7 20  1  0  0  0  0
  8 26  1  0  0  0  0
  9 26  2  0  0  0  0
 10 27  1  0  0  0  0
 11 12  2  0  0  0  0
 11 28  1  0  0  0  0
 12 29  1  0  0  0  0
 13 22  1  0  0  0  0
 13 27  2  0  0  0  0
 14 23  1  0  0  0  0
 14 25  2  0  0  0  0
 15 24  1  0  0  0  0
 15 30  2  0  0  0  0
 16 29  2  0  0  0  0
 16 31  1  0  0  0  0
 17 32  1  0  0  0  0
 18 32  1  0  0  0  0
 18 33  2  0  0  0  0
 18 37  1  0  0  0  0
 19 21  2  0  0  0  0
 19 42  1  0  0  0  0
 20 22  2  0  0  0  0
 20 43  1  0  0  0  0
 21 52  1  0  0  0  0
 22 44  1  0  0  0  0
 23 24  2  0  0  0  0
 23 56  1  0  0  0  0
 24 63  1  0  0  0  0
 25 30  1  0  0  0  0
 25 73  1  0  0  0  0
 26 84  1  0  0  0  0
 27 85  1  0  0  0  0
 28 31  2  0  0  0  0
 28 84  1  0  0  0  0
 29 86  1  0  0  0  0
 30 87  1  0  0  0  0
 31 88  1  0  0  0  0
 32 67  2  0  0  0  0
 33 68  1  0  0  0  0
 33 71  1  0  0  0  0
 34 35  2  0  0  0  0
 34 36  1  0  0  0  0
 35 57  1  0  0  0  0
 35 76  1  0  0  0  0
 36 53  1  0  0  0  0
 36 78  2  0  0  0  0
 37 72  1  0  0  0  0
 37 79  2  0  0  0  0
 38 54  1  0  0  0  0
 38 74  1  0  0  0  0
 38 80  2  0  0  0  0
 39 64  1  0  0  0  0
 39 69  1  0  0  0  0
 39 81  2  0  0  0  0
 40 65  1  0  0  0  0
 40 75  1  0  0  0  0
 40 82  2  0  0  0  0
 41 70  1  0  0  0  0
 41 73  1  0  0  0  0
 41 83  2  0  0  0  0
 42 45  1  0  0  0  0
 43 54  1  0  0  0  0
 44 69  1  0  0  0  0
 45 47  1  0  0  0  0
 46 48  1  0  0  0  0
 46 49  1  0  0  0  0
 47 52  1  0  0  0  0
 48 55  1  0  0  0  0
 49 70  1  0  0  0  0
 50 55  1  0  0  0  0
 50 70  1  0  0  0  0
 51 53  1  0  0  0  0
 51 76  1  0  0  0  0
 52 74  1  0  0  0  0
 53 85  1  0  0  0  0
 54 69  1  0  0  0  0
 55 68  1  0  0  0  0
 58 65  1  0  0  0  0
 59 66  1  0  0  0  0
 60 66  1  0  0  0  0
 61 66  1  0  0  0  0
 62 77  1  0  0  0  0
 63 76  1  0  0  0  0
 64 66  1  0  0  0  0
 64 75  1  0  0  0  0
 65 77  1  0  0  0  0
 67 68  1  0  0  0  0
M  CHG  2  76   1  77   1
M  ISO  4  41 100  53 101  73 100  85 101
M  END
> <Batch ID>
0047

> <Smiles>
C=C1CC(=O)[101CH:1]([101O:1]c2ccc3c(c2)CN(C(=O)C(NC(=O)C(C)NC)C(C)(C)C)C(C(=O)NC2CCCc4ccccc42)C3)CN1Cc1cc(F)c([100NH:0][100C:0](=O)N2CCCC(n3nc(-c4ccc(Oc5ccc(F)cc5F)cc4)c(C(N)=O)c3N)C2)cc1C

> <Shape>
0.211

> <Color>
0.184

> <Negative vol penalty>
0.000

$$$$

  -OEChem-04042322263D

 85 93  0     1  0  0  0  0  0999 V2000
  -28.0373  -11.1234   21.9968 C   0  0  0  0  0  0  0  0  0  0  0  0
  -28.6288  -12.2883   21.5187 C   0  0  0  0  0  0  0  0  0  0  0  0
  -23.0059  -27.3903   21.7263 C   0  0  0  0  0  0  0  0  0  0  0  0
  -22.7766  -28.0318   19.4084 C   0  0  0  0  0  0  0  0  0  0  0  0
  -32.4250  -27.6026   14.7548 C   0  0  0  0  0  0  0  0  0  0  0  0
  -26.6736  -10.9059   21.8049 C   0  0  0  0  0  0  0  0  0  0  0  0
  -27.8569  -13.2360   20.8474 C   0  0  0  0  0  0  0  0  0  0  0  0
  -28.5416  -19.3198   21.0014 C   0  0  0  0  0  0  0  0  0  0  0  0
  -21.6209  -27.2584   21.8268 C   0  0  0  0  0  0  0  0  0  0  0  0
  -21.3916  -27.8998   19.5088 C   0  0  0  0  0  0  0  0  0  0  0  0
  -29.1589  -20.2166   20.1304 C   0  0  0  0  0  0  0  0  0  0  0  0
  -18.9453  -29.2918   22.1887 C   0  0  0  0  0  0  0  0  0  0  0  0
  -32.4422  -28.8911   14.2209 C   0  0  0  0  0  0  0  0  0  0  0  0
  -18.3228  -29.8377   23.3112 C   0  0  0  0  0  0  0  0  0  0  0  0
  -32.1273  -28.5238   16.9684 C   0  0  0  0  0  0  0  0  0  0  0  0
  -27.0284  -20.6650   19.0917 C   0  0  0  0  0  0  0  0  0  0  0  0
  -17.4960  -27.6499   23.9168 C   0  0  0  0  0  0  0  0  0  0  0  0
  -23.5837  -27.7771   20.5171 C   0  0  0  0  0  0  0  0  0  0  0  0
  -32.2675  -27.4190   16.1286 C   0  0  0  0  0  0  0  0  0  0  0  0
  -25.9391  -26.9183   20.0455 C   0  0  0  0  0  0  0  0  0  0  0  0
  -25.8827  -11.8558   21.1394 C   0  0  0  0  0  0  0  0  0  0  0  0
  -27.1625  -19.0803   20.9167 C   0  0  0  0  0  0  0  0  0  0  0  0
  -26.4816  -13.0304   20.6453 C   0  0  0  0  0  0  0  0  0  0  0  0
  -26.3956  -19.7666   19.9643 C   0  0  0  0  0  0  0  0  0  0  0  0
  -32.1446  -29.8123   16.4345 C   0  0  0  0  0  0  0  0  0  0  0  0
  -20.8138  -27.5131   20.7181 C   0  0  0  0  0  0  0  0  0  0  0  0
  -28.4028  -20.8872   19.1735 C   0  0  0  0  0  0  0  0  0  0  0  0
  -18.8431  -27.9249   21.9302 C   0  0  0  0  0  0  0  0  0  0  0  0
  -17.5982  -29.0168   24.1753 C   0  0  0  0  0  0  0  0  0  0  0  0
  -32.3020  -29.9960   15.0607 C   0  0  0  0  0  0  0  0  0  0  0  0
  -18.1184  -27.1039   22.7942 C   0  0  0  0  0  0  0  0  0  0  0  0
  -25.0143  -27.9141   20.4128 C   0  0  0  0  0  0  0  0  0  0  0  0
  -27.1592  -27.5468   20.0979 C   0  0  0  0  0  0  0  0  0  0  0  0
  -32.2472  -26.0462   16.6962 C   0  0  0  0  0  0  0  0  0  0  0  0
  -25.7152  -25.5478   19.6889 C   0  0  0  0  0  0  0  0  0  0  0  0
  -25.3616  -16.5346   20.3005 C   0  0  0  0  0  0  0  0  0  0  0  0
  -22.9364  -18.5526   21.0544 C   0  0  0  0  0  0  0  0  0  0  0  0
  -21.8128  -21.7652   21.3064 C   0  0  0  0  0  0  0  0  0  0  0  0
  -30.4212  -31.9409   19.0041 C   0  0  0  0  0  0  0  0  0  0  0  0
  -24.4221  -11.5548   20.9144 C   0  0  0  0  0  0  0  0  0  0  0  0
  -26.5073  -18.1300   21.8810 C   0  0  0  0  0  0  0  0  0  0  0  0
  -24.9084  -19.5602   19.8456 C   0  0  0  0  0  0  0  0  0  0  0  0
  -23.6011  -12.7805   20.5221 C   0  0  0  0  0  0  0  0  0  0  0  0
  -28.4595  -32.0612   21.9730 C   0  0  0  0  0  0  0  0  0  0  0  0
  -24.3171  -13.5775   19.4363 C   0  0  0  0  0  0  0  0  0  0  0  0
  -27.4612  -30.9153   21.7984 C   0  0  0  0  0  0  0  0  0  0  0  0
  -28.7567  -32.7577   20.6469 C   0  0  0  0  0  0  0  0  0  0  0  0
  -28.1967  -30.7153   19.3864 C   0  0  0  0  0  0  0  0  0  0  0  0
  -25.6728  -14.0934   19.9339 C   0  0  1  0  0  0  0  0  0  0  0  0
  -25.1814  -17.5772   21.3674 C   0  0  1  0  0  0  0  0  0  0  0  0
  -27.9083  -29.9465   20.6872 C   0  0  2  0  0  0  0  0  0  0  0  0
  -19.7747  -23.0973   21.9140 C   0  0  0  0  0  0  0  0  0  0  0  0
  -21.6668  -17.8270   18.3765 C   0  0  0  0  0  0  0  0  0  0  0  0
  -20.1930  -19.8374   18.6095 C   0  0  0  0  0  0  0  0  0  0  0  0
  -20.0571  -17.9927   20.2833 C   0  0  0  0  0  0  0  0  0  0  0  0
  -23.2212  -23.1258   23.5255 C   0  0  0  0  0  0  0  0  0  0  0  0
  -31.9931  -30.9923   17.3343 C   0  0  0  0  0  0  0  0  0  0  0  0
  -30.2515  -23.8003   18.1046 C   0  0  0  0  0  0  0  0  0  0  0  0
  -31.4472  -24.6233   18.5647 C   0  0  0  0  0  0  0  0  0  0  0  0
  -30.1574  -22.4493   18.8033 C   0  0  0  0  0  0  0  0  0  1  0  0
  -22.0718  -19.5202   20.2830 C   0  0  1  0  0  0  0  0  0  0  0  0
  -21.0748  -22.4900   22.4176 C   0  0  2  0  0  0  0  0  0  0  0  0
  -21.0255  -18.7970   19.3888 C   0  0  0  0  0  0  0  0  0  0  0  0
  -25.5970  -29.0861   20.6790 N   0  0  0  0  0  0  0  0  0  0  0  0
  -26.9012  -28.8307   20.4788 N   0  0  0  0  0  0  0  0  0  0  0  0
  -24.3150  -18.6162   20.8070 N   0  0  0  0  0  0  0  0  0  0  0  0
  -29.1769  -31.7837   19.6366 N   0  0  0  0  0  0  0  0  0  0  0  0
  -28.4170  -27.1208   19.8549 N   0  0  0  0  0  0  0  0  0  0  0  0
  -24.3997  -25.0644   19.6860 N   0  0  0  0  0  0  0  0  0  0  0  0
  -31.5387  -25.8839   17.8815 N   0  0  0  0  0  0  0  0  0  0  0  0
  -25.4918  -15.2480   20.7875 N   0  0  0  0  0  0  0  0  0  0  0  0
  -21.4913  -20.4248   21.2695 N   0  0  0  0  0  0  0  0  0  0  0  0
  -30.7450  -30.9703   18.0640 N   0  0  0  0  0  0  0  0  0  0  0  0
  -21.9205  -23.5841   22.9732 N   0  3  0  0  0  0  0  0  0  0  0  0
  -32.8568  -25.1494   16.1196 O   0  0  0  0  0  0  0  0  0  0  0  0
  -26.6556  -24.7702   19.3977 O   0  0  0  0  0  0  0  0  0  0  0  0
  -25.3796  -16.8723   19.1226 O   0  0  0  0  0  0  0  0  0  0  0  0
  -22.4088  -17.7740   21.8526 O   0  0  0  0  0  0  0  0  0  0  0  0
  -22.5933  -22.3321   20.5449 O   0  0  0  0  0  0  0  0  0  0  0  0
  -31.1891  -32.8740   19.2622 O   0  0  0  0  0  0  0  0  0  0  0  0
  -19.4623  -27.3843   20.8158 O   0  0  0  0  0  0  0  0  0  0  0  0
  -29.0030  -21.7625   18.3218 O   0  0  0  0  0  0  0  0  0  1  0  0
  -17.0017  -29.5409   25.2540 F   0  0  0  0  0  0  0  0  0  0  0  0
  -32.3205  -31.2301   14.5383 F   0  0  0  0  0  0  0  0  0  0  0  0
  -18.0177  -25.7899   22.5517 F   0  0  0  0  0  0  0  0  0  0  0  0
  1  2  1  0  0  0  0
  1  6  2  0  0  0  0
  2  7  2  0  0  0  0
  3  9  2  0  0  0  0
  3 18  1  0  0  0  0
  4 10  1  0  0  0  0
  4 18  2  0  0  0  0
  5 13  2  0  0  0  0
  5 19  1  0  0  0  0
  6 21  1  0  0  0  0
  7 23  1  0  0  0  0
  8 11  2  0  0  0  0
  8 22  1  0  0  0  0
  9 26  1  0  0  0  0
 10 26  2  0  0  0  0
 11 27  1  0  0  0  0
 12 14  2  0  0  0  0
 12 28  1  0  0  0  0
 13 30  1  0  0  0  0
 14 29  1  0  0  0  0
 15 19  2  0  0  0  0
 15 25  1  0  0  0  0
 16 24  1  0  0  0  0
 16 27  2  0  0  0  0
 17 29  2  0  0  0  0
 17 31  1  0  0  0  0
 18 32  1  0  0  0  0
 19 34  1  0  0  0  0
 20 32  1  0  0  0  0
 20 33  2  0  0  0  0
 20 35  1  0  0  0  0
 21 23  2  0  0  0  0
 21 40  1  0  0  0  0
 22 24  2  0  0  0  0
 22 41  1  0  0  0  0
 23 49  1  0  0  0  0
 24 42  1  0  0  0  0
 25 30  2  0  0  0  0
 25 57  1  0  0  0  0
 26 81  1  0  0  0  0
 27 82  1  0  0  0  0
 28 31  2  0  0  0  0
 28 81  1  0  0  0  0
 29 83  1  0  0  0  0
 30 84  1  0  0  0  0
 31 85  1  0  0  0  0
 32 64  2  0  0  0  0
 33 65  1  0  0  0  0
 33 68  1  0  0  0  0
 34 70  1  0  0  0  0
 34 75  2  0  0  0  0
 35 69  1  0  0  0  0
 35 76  2  0  0  0  0
 36 50  1  0  0  0  0
 36 71  1  0  0  0  0
 36 77  2  0  0  0  0
 37 61  1  0  0  0  0
 37 66  1  0  0  0  0
 37 78  2  0  0  0  0
 38 62  1  0  0  0  0
 38 72  1  0  0  0  0
 38 79  2  0  0  0  0
 39 67  1  0  0  0  0
 39 73  1  0  0  0  0
 39 80  2  0  0  0  0
 40 43  1  0  0  0  0
 41 50  1  0  0  0  0
 42 66  1  0  0  0  0
 43 45  1  0  0  0  0
 44 46  1  0  0  0  0
 44 47  1  0  0  0  0
 45 49  1  0  0  0  0
 46 51  1  0  0  0  0
 47 67  1  0  0  0  0
 48 51  1  0  0  0  0
 48 67  1  0  0  0  0
 49 71  1  0  0  0  0
 50 66  1  0  0  0  0
 51 65  1  0  0  0  0
 52 62  1  0  0  0  0
 53 63  1  0  0  0  0
 54 63  1  0  0  0  0
 55 63  1  0  0  0  0
 56 74  1  0  0  0  0
 57 73  1  0  0  0  0
 58 59  1  0  0  0  0
 58 60  1  0  0  0  0
 59 70  1  0  0  0  0
 60 82  1  0  0  0  0
 61 63  1  0  0  0  0
 61 72  1  0  0  0  0
 62 74  1  0  0  0  0
 64 65  1  0  0  0  0
M  CHG  1  74   1
M  ISO  4  39 100  60 101  73 100  82 101
M  END
> <Batch ID>
0047

> <Smiles>
CNC(C)C(=O)NC(C(=O)N1Cc2cc([101O:1][101CH2:1]CCNC(=O)c3ccc(F)c(C[100NH:0][100C:0](=O)N4CCCC(n5nc(-c6ccc(Oc7ccc(F)cc7F)cc6)c(C(N)=O)c5N)C4)c3)ccc2CC1C(=O)NC1CCCc2ccccc21)C(C)(C)C

> <Shape>
0.202

> <Color>
0.079

> <Negative vol penalty>
0.000

$$$$

  -OEChem-04042322263D

 86 94  0     1  0  0  0  0  0999 V2000
  -35.7395  -34.2561   16.8897 C   0  0  0  0  0  0  0  0  0  0  0  0
  -36.2558  -32.9709   17.0206 C   0  0  0  0  0  0  0  0  0  0  0  0
  -23.0966   -9.8369   19.9878 C   0  0  0  0  0  0  0  0  0  0  0  0
  -23.8231   -9.9305   22.2901 C   0  0  0  0  0  0  0  0  0  0  0  0
  -34.7468  -34.6995   17.7625 C   0  0  0  0  0  0  0  0  0  0  0  0
  -35.7804  -32.1287   18.0252 C   0  0  0  0  0  0  0  0  0  0  0  0
  -34.5133  -25.2082   19.3734 C   0  0  0  0  0  0  0  0  0  0  0  0
  -32.5814  -17.6375   23.3602 C   0  0  0  0  0  0  0  0  0  0  0  0
  -32.0119  -16.7167   22.4808 C   0  0  0  0  0  0  0  0  0  0  0  0
  -22.3548   -8.6895   20.2685 C   0  0  0  0  0  0  0  0  0  0  0  0
  -23.0812   -8.7831   22.5708 C   0  0  0  0  0  0  0  0  0  0  0  0
  -34.7976  -24.2259   20.3211 C   0  0  0  0  0  0  0  0  0  0  0  0
  -19.8485   -7.9901   23.1553 C   0  0  0  0  0  0  0  0  0  0  0  0
  -19.0749   -7.9883   24.3159 C   0  0  0  0  0  0  0  0  0  0  0  0
  -33.0247  -25.0720   21.7212 C   0  0  0  0  0  0  0  0  0  0  0  0
  -29.8151  -17.5745   23.0053 C   0  0  0  0  0  0  0  0  0  0  0  0
  -20.3148   -6.0853   25.1395 C   0  0  0  0  0  0  0  0  0  0  0  0
  -23.8308  -10.4574   20.9986 C   0  0  0  0  0  0  0  0  0  0  0  0
  -24.1621  -12.9784   20.7926 C   0  0  0  0  0  0  0  0  0  0  0  0
  -34.2522  -33.8591   18.7722 C   0  0  0  0  0  0  0  0  0  0  0  0
  -33.4880  -26.1382   19.5979 C   0  0  0  0  0  0  0  0  0  0  0  0
  -34.7811  -32.5619   18.9132 C   0  0  0  0  0  0  0  0  0  0  0  0
  -32.7277  -26.0635   20.7737 C   0  0  0  0  0  0  0  0  0  0  0  0
  -31.7678  -18.5268   24.0622 C   0  0  0  0  0  0  0  0  0  0  0  0
  -30.3846  -18.4953   23.8847 C   0  0  0  0  0  0  0  0  0  0  0  0
  -30.6288  -16.6851   22.3034 C   0  0  0  0  0  0  0  0  0  0  0  0
  -22.3471   -8.1626   21.5600 C   0  0  0  0  0  0  0  0  0  0  0  0
  -34.0552  -24.1594   21.4964 C   0  0  0  0  0  0  0  0  0  0  0  0
  -20.8553   -7.0395   22.9867 C   0  0  0  0  0  0  0  0  0  0  0  0
  -19.3080   -7.0359   25.3080 C   0  0  0  0  0  0  0  0  0  0  0  0
  -21.0885   -6.0871   23.9788 C   0  0  0  0  0  0  0  0  0  0  0  0
  -24.5978  -11.6423   20.7092 C   0  0  0  0  0  0  0  0  0  0  0  0
  -25.2557  -13.7202   20.4182 C   0  0  0  0  0  0  0  0  0  0  0  0
  -22.8831  -13.5021   21.1743 C   0  0  0  0  0  0  0  0  0  0  0  0
  -33.3535  -29.2996   19.8995 C   0  0  0  0  0  0  0  0  0  0  0  0
  -30.1538  -28.7687   19.9460 C   0  0  0  0  0  0  0  0  0  0  0  0
  -33.4704  -21.3079   23.6586 C   0  0  0  0  0  0  0  0  0  0  0  0
  -27.5843  -26.6057   20.5513 C   0  0  0  0  0  0  0  0  0  0  0  0
  -30.7136  -14.8008   20.6335 C   0  0  0  0  0  0  0  0  0  0  0  0
  -33.2122  -34.3992   19.7217 C   0  0  0  0  0  0  0  0  0  0  0  0
  -33.1762  -27.1751   18.5538 C   0  0  0  0  0  0  0  0  0  0  0  0
  -31.6031  -27.0256   21.0534 C   0  0  0  0  0  0  0  0  0  0  0  0
  -32.4972  -33.3145   20.5231 C   0  0  0  0  0  0  0  0  0  0  0  0
  -29.6455  -12.2974   18.3381 C   0  0  0  0  0  0  0  0  0  0  0  0
  -33.5043  -32.3215   21.0944 C   0  0  0  0  0  0  0  0  0  0  0  0
  -28.2012  -12.0137   18.7572 C   0  0  0  0  0  0  0  0  0  0  0  0
  -30.5420  -12.5742   19.5437 C   0  0  0  0  0  0  0  0  0  0  0  0
  -28.6116  -13.3376   20.8704 C   0  0  0  0  0  0  0  0  0  0  0  0
  -34.2736  -31.6102   19.9747 C   0  0  1  0  0  0  0  0  0  0  0  0
  -32.4474  -28.3908   19.1180 C   0  0  1  0  0  0  0  0  0  0  0  0
  -27.6569  -13.1168   19.6858 C   0  0  2  0  0  0  0  0  0  0  0  0
  -25.0786  -26.4704   20.5374 C   0  0  0  0  0  0  0  0  0  0  0  0
  -30.0565  -30.3450   22.5567 C   0  0  0  0  0  0  0  0  0  0  0  0
  -27.7821  -29.3840   22.9711 C   0  0  0  0  0  0  0  0  0  0  0  0
  -28.1796  -30.8278   20.9761 C   0  0  0  0  0  0  0  0  0  0  0  0
  -27.5952  -24.4714   18.5011 C   0  0  0  0  0  0  0  0  0  0  0  0
  -32.4037  -19.5083   25.0037 C   0  0  0  0  0  0  0  0  0  0  0  0
  -33.2434  -22.7399   23.2232 C   0  0  0  0  0  0  0  0  0  1  0  0
  -29.1324  -28.4864   21.0213 C   0  0  1  0  0  0  0  0  0  0  0  0
  -26.3531  -26.2512   19.7372 C   0  0  2  0  0  0  0  0  0  0  0  0
  -29.4939  -19.4391   24.6240 C   0  0  0  0  0  0  0  0  0  0  0  0
  -28.8101  -29.7437   21.8772 C   0  0  0  0  0  0  0  0  0  0  0  0
  -25.8690  -11.5383   20.3128 N   0  0  0  0  0  0  0  0  0  0  0  0
  -26.2415  -12.8185   20.1437 N   0  0  0  0  0  0  0  0  0  0  0  0
  -31.3410  -28.0253   20.0048 N   0  0  0  0  0  0  0  0  0  0  0  0
  -29.9653  -13.6329   20.3752 N   0  0  0  0  0  0  0  0  0  0  0  0
  -25.4607  -15.0493   20.3003 N   0  0  0  0  0  0  0  0  0  0  0  0
  -21.8709  -12.6002   21.5296 N   0  0  0  0  0  0  0  0  0  0  0  0
  -30.0500  -15.7512   21.4087 N   0  0  0  0  0  0  0  0  0  0  0  0
  -33.4563  -30.5753   19.3784 N   0  0  0  0  0  0  0  0  0  0  0  0
  -32.4339  -20.8437   24.4533 N   0  0  0  0  0  0  0  0  0  0  0  0
  -27.9750  -27.9118   20.3441 N   0  0  0  0  0  0  0  0  0  0  0  0
  -26.4040  -24.8225   19.3164 N   0  3  0  0  0  0  0  0  0  0  0  0
  -22.6401  -14.7327   21.1839 O   0  0  0  0  0  0  0  0  0  0  0  0
  -33.9164  -28.8754   20.9019 O   0  0  0  0  0  0  0  0  0  0  0  0
  -29.9042  -29.6125   19.0815 O   0  0  0  0  0  0  0  0  0  0  0  0
  -34.4633  -20.6636   23.3317 O   0  0  0  0  0  0  0  0  0  0  0  0
  -28.1414  -25.8053   21.2993 O   0  0  0  0  0  0  0  0  0  0  0  0
  -31.8486  -14.9587   20.1764 O   0  0  0  0  0  0  0  0  0  0  0  0
  -21.6231   -7.0432   21.8343 O   0  0  0  0  0  0  0  0  0  0  0  0
  -34.3310  -23.2020   22.4233 O   0  0  0  0  0  0  0  0  0  1  0  0
  -18.5660   -7.0352   26.4231 F   0  0  0  0  0  0  0  0  0  0  0  0
  -22.0551   -5.1721   23.8230 F   0  0  0  0  0  0  0  0  0  0  0  0
  -28.1693  -19.2781   24.3356 F   0  0  0  0  0  0  0  0  0  0  0  0
  -29.5816  -19.3207   25.9811 F   0  0  0  0  0  0  0  0  0  0  0  0
  -29.7738  -20.7457   24.3498 F   0  0  0  0  0  0  0  0  0  0  0  0
  1  2  1  0  0  0  0
  1  5  2  0  0  0  0
  2  6  2  0  0  0  0
  3 10  2  0  0  0  0
  3 18  1  0  0  0  0
  4 11  1  0  0  0  0
  4 18  2  0  0  0  0
  5 20  1  0  0  0  0
  6 22  1  0  0  0  0
  7 12  2  0  0  0  0
  7 21  1  0  0  0  0
  8  9  2  0  0  0  0
  8 24  1  0  0  0  0
  9 26  1  0  0  0  0
 10 27  1  0  0  0  0
 11 27  2  0  0  0  0
 12 28  1  0  0  0  0
 13 14  2  0  0  0  0
 13 29  1  0  0  0  0
 14 30  1  0  0  0  0
 15 23  1  0  0  0  0
 15 28  2  0  0  0  0
 16 25  1  0  0  0  0
 16 26  2  0  0  0  0
 17 30  2  0  0  0  0
 17 31  1  0  0  0  0
 18 32  1  0  0  0  0
 19 32  1  0  0  0  0
 19 33  2  0  0  0  0
 19 34  1  0  0  0  0
 20 22  2  0  0  0  0
 20 40  1  0  0  0  0
 21 23  2  0  0  0  0
 21 41  1  0  0  0  0
 22 49  1  0  0  0  0
 23 42  1  0  0  0  0
 24 25  2  0  0  0  0
 24 57  1  0  0  0  0
 25 61  1  0  0  0  0
 26 69  1  0  0  0  0
 27 80  1  0  0  0  0
 28 81  1  0  0  0  0
 29 31  2  0  0  0  0
 29 80  1  0  0  0  0
 30 82  1  0  0  0  0
 31 83  1  0  0  0  0
 32 63  2  0  0  0  0
 33 64  1  0  0  0  0
 33 67  1  0  0  0  0
 34 68  1  0  0  0  0
 34 74  2  0  0  0  0
 35 50  1  0  0  0  0
 35 70  1  0  0  0  0
 35 75  2  0  0  0  0
 36 59  1  0  0  0  0
 36 65  1  0  0  0  0
 36 76  2  0  0  0  0
 37 58  1  0  0  0  0
 37 71  1  0  0  0  0
 37 77  2  0  0  0  0
 38 60  1  0  0  0  0
 38 72  1  0  0  0  0
 38 78  2  0  0  0  0
 39 66  1  0  0  0  0
 39 69  1  0  0  0  0
 39 79  2  0  0  0  0
 40 43  1  0  0  0  0
 41 50  1  0  0  0  0
 42 65  1  0  0  0  0
 43 45  1  0  0  0  0
 44 46  1  0  0  0  0
 44 47  1  0  0  0  0
 45 49  1  0  0  0  0
 46 51  1  0  0  0  0
 47 66  1  0  0  0  0
 48 51  1  0  0  0  0
 48 66  1  0  0  0  0
 49 70  1  0  0  0  0
 50 65  1  0  0  0  0
 51 64  1  0  0  0  0
 52 60  1  0  0  0  0
 53 62  1  0  0  0  0
 54 62  1  0  0  0  0
 55 62  1  0  0  0  0
 56 73  1  0  0  0  0
 57 71  1  0  0  0  0
 58 81  1  0  0  0  0
 59 62  1  0  0  0  0
 59 72  1  0  0  0  0
 60 73  1  0  0  0  0
 61 84  1  0  0  0  0
 61 85  1  0  0  0  0
 61 86  1  0  0  0  0
 63 64  1  0  0  0  0
M  CHG  1  73   1
M  ISO  4  39 100  58 101  69 100  81 101
M  END
> <Batch ID>
0047

> <Smiles>
CNC(C)C(=O)NC(C(=O)N1Cc2cc([101O:1][101CH2:1]C(=O)NCc3ccc([100NH:0][100C:0](=O)N4CCCC(n5nc(-c6ccc(Oc7ccc(F)cc7F)cc6)c(C(N)=O)c5N)C4)cc3C(F)(F)F)ccc2CC1C(=O)NC1CCCc2ccccc21)C(C)(C)C

> <Shape>
0.219

> <Color>
0.192

> <Negative vol penalty>
0.000

$$$$

  -OEChem-04042322263D

 84 92  0     1  0  0  0  0  0999 V2000
  -21.7563  -29.4476   24.1632 C   0  0  0  0  0  0  0  0  0  0  0  0
  -22.5809  -28.3402   24.3338 C   0  0  0  0  0  0  0  0  0  0  0  0
  -26.9801  -11.7927   23.1531 C   0  0  0  0  0  0  0  0  0  0  0  0
  -29.8233  -23.8863   21.0325 C   0  0  0  0  0  0  0  0  0  0  0  0
  -27.6054  -23.4895   20.1602 C   0  0  0  0  0  0  0  0  0  0  0  0
  -25.9102  -12.5730   22.7149 C   0  0  0  0  0  0  0  0  0  0  0  0
  -20.5171  -29.3032   23.5407 C   0  0  0  0  0  0  0  0  0  0  0  0
  -22.1662  -27.0875   23.8829 C   0  0  0  0  0  0  0  0  0  0  0  0
  -24.7635  -20.9993   21.1436 C   0  0  0  0  0  0  0  0  0  0  0  0
  -29.7400  -25.2213   20.6371 C   0  0  0  0  0  0  0  0  0  0  0  0
  -27.5221  -24.8246   19.7649 C   0  0  0  0  0  0  0  0  0  0  0  0
  -24.7291  -19.6218   21.3559 C   0  0  0  0  0  0  0  0  0  0  0  0
  -26.9035  -27.8152   21.2120 C   0  0  0  0  0  0  0  0  0  0  0  0
  -28.2692  -12.0524   22.6879 C   0  0  0  0  0  0  0  0  0  0  0  0
  -25.7203  -28.4993   21.4904 C   0  0  0  0  0  0  0  0  0  0  0  0
  -22.6021  -19.5064   20.2239 C   0  0  0  0  0  0  0  0  0  0  0  0
  -25.3962  -28.8997   19.1299 C   0  0  0  0  0  0  0  0  0  0  0  0
  -28.7560  -23.0203   20.7940 C   0  0  0  0  0  0  0  0  0  0  0  0
  -26.1294  -13.6129   21.8115 C   0  0  0  0  0  0  0  0  0  0  0  0
  -28.4525  -21.0946   22.4393 C   0  0  0  0  0  0  0  0  0  0  0  0
  -20.0912  -28.0499   23.0733 C   0  0  0  0  0  0  0  0  0  0  0  0
  -23.7104  -21.6433   20.4782 C   0  0  0  0  0  0  0  0  0  0  0  0
  -20.9196  -26.9260   23.2548 C   0  0  0  0  0  0  0  0  0  0  0  0
  -22.6267  -20.8918   20.0021 C   0  0  0  0  0  0  0  0  0  0  0  0
  -27.4185  -13.8726   21.3462 C   0  0  0  0  0  0  0  0  0  0  0  0
  -28.5894  -25.6905   20.0033 C   0  0  0  0  0  0  0  0  0  0  0  0
  -23.6470  -18.8755   20.8986 C   0  0  0  0  0  0  0  0  0  0  0  0
  -27.3332  -27.6733   19.8925 C   0  0  0  0  0  0  0  0  0  0  0  0
  -24.9666  -29.0415   20.4494 C   0  0  0  0  0  0  0  0  0  0  0  0
  -28.4884  -13.0923   21.7845 C   0  0  0  0  0  0  0  0  0  0  0  0
  -26.5795  -28.2156   18.8515 C   0  0  0  0  0  0  0  0  0  0  0  0
  -28.8417  -21.6410   21.2017 C   0  0  0  0  0  0  0  0  0  0  0  0
  -28.7352  -19.7552   22.3275 C   0  0  0  0  0  0  0  0  0  0  0  0
  -24.9643  -14.4275   21.3644 C   0  0  0  0  0  0  0  0  0  0  0  0
  -27.8859  -21.7401   23.5874 C   0  0  0  0  0  0  0  0  0  0  0  0
  -21.6039  -23.8913   21.2609 C   0  0  0  0  0  0  0  0  0  0  0  0
  -23.5978  -15.7402   22.6816 C   0  0  0  0  0  0  0  0  0  0  0  0
  -20.7974  -23.6780   18.1262 C   0  0  0  0  0  0  0  0  0  0  0  0
  -20.7390  -21.8106   15.2703 C   0  0  0  0  0  0  0  0  0  0  0  0
  -28.6606  -14.9844   19.4575 C   0  0  0  0  0  0  0  0  0  0  0  0
  -18.7231  -27.9345   22.4490 C   0  0  0  0  0  0  0  0  0  0  0  0
  -23.7752  -23.1260   20.2336 C   0  0  0  0  0  0  0  0  0  0  0  0
  -21.4806  -21.5324   19.2642 C   0  0  0  0  0  0  0  0  0  0  0  0
  -18.5189  -26.6413   21.6641 C   0  0  0  0  0  0  0  0  0  0  0  0
  -31.3525  -17.2235   18.8115 C   0  0  0  0  0  0  0  0  0  0  0  0
  -19.0135  -25.4441   22.4696 C   0  0  0  0  0  0  0  0  0  0  0  0
  -30.9072  -18.5274   19.4776 C   0  0  0  0  0  0  0  0  0  0  0  0
  -30.1776  -16.4801   18.1783 C   0  0  0  0  0  0  0  0  0  0  0  0
  -28.5959  -17.5399   19.7417 C   0  0  0  0  0  0  0  0  0  0  0  0
  -20.5157  -25.5552   22.7570 C   0  0  1  0  0  0  0  0  0  0  0  0
  -22.4047  -23.7531   19.9971 C   0  0  1  0  0  0  0  0  0  0  0  0
  -29.7347  -18.2918   20.4498 C   0  0  2  0  0  0  0  0  0  0  0  0
  -22.4652  -15.8405   23.6735 C   0  0  0  0  0  0  0  0  0  0  0  0
  -19.9817  -21.8911   12.8792 C   0  0  0  0  0  0  0  0  0  0  0  0
  -17.9156  -23.2369   19.0266 C   0  0  0  0  0  0  0  0  0  0  0  0
  -17.3994  -22.3942   16.7263 C   0  0  0  0  0  0  0  0  0  0  0  0
  -18.1711  -24.7445   17.0476 C   0  0  0  0  0  0  0  0  0  0  0  0
  -23.5011  -21.4724   14.2627 C   0  0  0  0  0  0  0  0  0  0  0  0
  -24.2667  -17.0350   22.2713 C   0  0  0  0  0  0  0  0  0  1  0  0
  -19.8206  -22.8490   17.3276 C   0  0  1  0  0  0  0  0  0  0  0  0
  -21.1319  -22.1420   13.8419 C   0  0  2  0  0  0  0  0  0  0  0  0
  -18.3472  -23.2941   17.5476 C   0  0  0  0  0  0  0  0  0  0  0  0
  -29.3343  -20.7237   20.3651 N   0  0  0  0  0  0  0  0  0  0  0  0
  -23.9370  -14.5570   22.2680 N   0  0  0  0  0  0  0  0  0  0  0  0
  -29.2566  -19.5873   21.0784 N   0  0  0  0  0  0  0  0  0  0  0  0
  -21.5871  -22.9859   19.0553 N   0  0  0  0  0  0  0  0  0  0  0  0
  -29.1070  -16.2892   19.1592 N   0  0  0  0  0  0  0  0  0  0  0  0
  -28.5862  -18.7164   23.1767 N   0  0  0  0  0  0  0  0  0  0  0  0
  -27.6607  -23.1223   23.5335 N   0  0  0  0  0  0  0  0  0  0  0  0
  -27.6619  -14.9247   20.4288 N   0  0  0  0  0  0  0  0  0  0  0  0
  -21.2827  -25.1960   21.5835 N   0  0  0  0  0  0  0  0  0  0  0  0
  -20.2651  -22.9189   15.9398 N   0  0  0  0  0  0  0  0  0  0  0  0
  -22.2912  -21.3076   13.4167 N   0  3  0  0  0  0  0  0  0  0  0  0
  -24.9885  -14.9617   20.2600 O   0  0  0  0  0  0  0  0  0  0  0  0
  -27.6035  -21.1125   24.6362 O   0  0  0  0  0  0  0  0  0  0  0  0
  -21.2986  -22.8885   21.8955 O   0  0  0  0  0  0  0  0  0  0  0  0
  -20.8625  -24.8937   17.9277 O   0  0  0  0  0  0  0  0  0  0  0  0
  -20.8388  -20.6807   15.7435 O   0  0  0  0  0  0  0  0  0  0  0  0
  -29.1488  -13.9910   18.9125 O   0  0  0  0  0  0  0  0  0  0  0  0
  -28.5077  -26.9932   19.6176 O   0  0  0  0  0  0  0  0  0  0  0  0
  -23.6106  -17.5309   21.1051 O   0  0  0  0  0  0  0  0  0  1  0  0
  -23.8296  -29.6971   20.7169 F   0  0  0  0  0  0  0  0  0  0  0  0
  -29.7323  -13.3327   21.3452 F   0  0  0  0  0  0  0  0  0  0  0  0
  -26.9866  -28.0815   17.5818 F   0  0  0  0  0  0  0  0  0  0  0  0
  1  2  1  0  0  0  0
  1  7  2  0  0  0  0
  2  8  2  0  0  0  0
  3  6  2  0  0  0  0
  3 14  1  0  0  0  0
  4 10  2  0  0  0  0
  4 18  1  0  0  0  0
  5 11  1  0  0  0  0
  5 18  2  0  0  0  0
  6 19  1  0  0  0  0
  7 21  1  0  0  0  0
  8 23  1  0  0  0  0
  9 12  2  0  0  0  0
  9 22  1  0  0  0  0
 10 26  1  0  0  0  0
 11 26  2  0  0  0  0
 12 27  1  0  0  0  0
 13 15  2  0  0  0  0
 13 28  1  0  0  0  0
 14 30  2  0  0  0  0
 15 29  1  0  0  0  0
 16 24  1  0  0  0  0
 16 27  2  0  0  0  0
 17 29  2  0  0  0  0
 17 31  1  0  0  0  0
 18 32  1  0  0  0  0
 19 25  2  0  0  0  0
 19 34  1  0  0  0  0
 20 32  1  0  0  0  0
 20 33  2  0  0  0  0
 20 35  1  0  0  0  0
 21 23  2  0  0  0  0
 21 41  1  0  0  0  0
 22 24  2  0  0  0  0
 22 42  1  0  0  0  0
 23 50  1  0  0  0  0
 24 43  1  0  0  0  0
 25 30  1  0  0  0  0
 25 70  1  0  0  0  0
 26 80  1  0  0  0  0
 27 81  1  0  0  0  0
 28 31  2  0  0  0  0
 28 80  1  0  0  0  0
 29 82  1  0  0  0  0
 30 83  1  0  0  0  0
 31 84  1  0  0  0  0
 32 63  2  0  0  0  0
 33 65  1  0  0  0  0
 33 68  1  0  0  0  0
 34 64  1  0  0  0  0
 34 74  2  0  0  0  0
 35 69  1  0  0  0  0
 35 75  2  0  0  0  0
 36 51  1  0  0  0  0
 36 71  1  0  0  0  0
 36 76  2  0  0  0  0
 37 53  1  0  0  0  0
 37 59  1  0  0  0  0
 37 64  2  0  0  0  0
 38 60  1  0  0  0  0
 38 66  1  0  0  0  0
 38 77  2  0  0  0  0
 39 61  1  0  0  0  0
 39 72  1  0  0  0  0
 39 78  2  0  0  0  0
 40 67  1  0  0  0  0
 40 70  1  0  0  0  0
 40 79  2  0  0  0  0
 41 44  1  0  0  0  0
 42 51  1  0  0  0  0
 43 66  1  0  0  0  0
 44 46  1  0  0  0  0
 45 47  1  0  0  0  0
 45 48  1  0  0  0  0
 46 50  1  0  0  0  0
 47 52  1  0  0  0  0
 48 67  1  0  0  0  0
 49 52  1  0  0  0  0
 49 67  1  0  0  0  0
 50 71  1  0  0  0  0
 51 66  1  0  0  0  0
 52 65  1  0  0  0  0
 54 61  1  0  0  0  0
 55 62  1  0  0  0  0
 56 62  1  0  0  0  0
 57 62  1  0  0  0  0
 58 73  1  0  0  0  0
 59 81  1  0  0  0  0
 60 62  1  0  0  0  0
 60 72  1  0  0  0  0
 61 73  1  0  0  0  0
 63 65  1  0  0  0  0
M  CHG  1  73   1
M  ISO  4  40 100  59 101  70 100  81 101
M  END
> <Batch ID>
0047

> <Smiles>
CNC(C)C(=O)NC(C(=O)N1Cc2cc([101O:1][101CH2:1]C(C)=NC(=O)c3cccc(F)c3[100NH:0][100C:0](=O)N3CCCC(n4nc(-c5ccc(Oc6ccc(F)cc6F)cc5)c(C(N)=O)c4N)C3)ccc2CC1C(=O)NC1CCCc2ccccc21)C(C)(C)C

> <Shape>
0.191

> <Color>
0.071

> <Negative vol penalty>
0.000

$$$$

  -OEChem-04042322263D

 88 97  0     1  0  0  0  0  0999 V2000
  -16.2961  -29.5850   24.1372 C   0  0  0  0  0  0  0  0  0  0  0  0
  -17.0945  -28.7960   23.3153 C   0  0  0  0  0  0  0  0  0  0  0  0
  -23.7985   -9.1687   19.6856 C   0  0  0  0  0  0  0  0  0  0  0  0
  -23.3110   -9.9725   21.9112 C   0  0  0  0  0  0  0  0  0  0  0  0
  -16.6566  -30.9065   24.3968 C   0  0  0  0  0  0  0  0  0  0  0  0
  -18.2534  -29.3285   22.7517 C   0  0  0  0  0  0  0  0  0  0  0  0
  -22.2050  -26.1803   23.0963 C   0  0  0  0  0  0  0  0  0  0  0  0
  -22.9934   -8.0525   19.9124 C   0  0  0  0  0  0  0  0  0  0  0  0
  -22.5058   -8.8563   22.1380 C   0  0  0  0  0  0  0  0  0  0  0  0
  -22.2580  -25.1233   22.1888 C   0  0  0  0  0  0  0  0  0  0  0  0
  -22.9317   -5.5955   22.9235 C   0  0  0  0  0  0  0  0  0  0  0  0
  -23.0737   -4.9307   24.1415 C   0  0  0  0  0  0  0  0  0  0  0  0
  -23.8341  -26.3621   20.8471 C   0  0  0  0  0  0  0  0  0  0  0  0
  -20.7538   -5.3712   24.6524 C   0  0  0  0  0  0  0  0  0  0  0  0
  -29.8552  -19.5788   20.4389 C   0  0  0  0  0  0  0  0  0  0  0  0
  -23.9573  -10.1287   20.6851 C   0  0  0  0  0  0  0  0  0  0  0  0
  -24.6249  -12.2606   19.4533 C   0  0  0  0  0  0  0  0  0  0  0  0
  -17.8257  -31.4526   23.8439 C   0  0  0  0  0  0  0  0  0  0  0  0
  -22.9591  -27.3426   22.8800 C   0  0  0  0  0  0  0  0  0  0  0  0
  -18.6292  -30.6590   23.0031 C   0  0  0  0  0  0  0  0  0  0  0  0
  -23.7909  -27.4315   21.7547 C   0  0  0  0  0  0  0  0  0  0  0  0
  -27.3676  -19.2846   21.6671 C   0  0  0  0  0  0  0  0  0  0  0  0
  -27.6822  -20.4708   21.0041 C   0  0  0  0  0  0  0  0  0  0  0  0
  -28.2969  -18.2454   21.7160 C   0  0  0  0  0  0  0  0  0  0  0  0
  -22.3470   -7.8963   21.1385 C   0  0  0  0  0  0  0  0  0  0  0  0
  -23.0704  -25.2152   21.0625 C   0  0  0  0  0  0  0  0  0  0  0  0
  -21.7007   -6.1483   22.5700 C   0  0  0  0  0  0  0  0  0  0  0  0
  -21.9848   -4.8185   25.0059 C   0  0  0  0  0  0  0  0  0  0  0  0
  -20.6118   -6.0360   23.4344 C   0  0  0  0  0  0  0  0  0  0  0  0
  -29.5407  -18.3925   21.1019 C   0  0  0  0  0  0  0  0  0  0  0  0
  -28.9259  -20.6179   20.3901 C   0  0  0  0  0  0  0  0  0  0  0  0
  -24.7893  -11.2817   20.4516 C   0  0  0  0  0  0  0  0  0  0  0  0
  -25.6658  -13.1339   19.6541 C   0  0  0  0  0  0  0  0  0  0  0  0
  -24.3876  -22.1123   20.3361 C   0  0  0  0  0  0  0  0  0  0  0  0
  -23.3714  -21.4764   20.9422 C   0  0  0  0  0  0  0  0  0  0  0  0
  -23.6211  -12.3705   18.4355 C   0  0  0  0  0  0  0  0  0  0  0  0
  -22.2688  -30.4104   22.4157 C   0  0  0  0  0  0  0  0  0  0  0  0
  -25.4898  -30.7577   22.5785 C   0  0  0  0  0  0  0  0  0  0  0  0
  -28.3931  -28.9990   21.3556 C   0  0  0  0  0  0  0  0  0  0  0  0
  -28.8915  -16.1753   23.0227 C   0  0  0  0  0  0  0  0  0  0  0  0
  -18.1493  -32.9005   24.1151 C   0  0  0  0  0  0  0  0  0  0  0  0
  -22.9114  -28.4631   23.8823 C   0  0  0  0  0  0  0  0  0  0  0  0
  -24.6358  -28.6493   21.4872 C   0  0  0  0  0  0  0  0  0  0  0  0
  -19.5910  -33.2752   23.7811 C   0  0  0  0  0  0  0  0  0  0  0  0
  -29.7666  -12.7505   22.5965 C   0  0  0  0  0  0  0  0  0  0  0  0
  -26.0479  -22.9640   18.1595 C   0  0  0  0  0  0  0  0  0  0  0  0
  -19.9826  -32.7246   22.4135 C   0  0  0  0  0  0  0  0  0  0  0  0
  -24.7830  -23.7464   18.4943 C   0  0  0  0  0  0  0  0  0  0  0  0
  -28.5362  -12.1436   21.9183 C   0  0  0  0  0  0  0  0  0  0  0  0
  -29.3816  -13.8143   23.6230 C   0  0  0  0  0  0  0  0  0  0  0  0
  -27.2687  -14.2669   22.4398 C   0  0  0  0  0  0  0  0  0  0  0  0
  -25.9119  -21.4942   18.5436 C   0  0  0  0  0  0  0  0  0  0  0  0
  -19.9070  -31.1931   22.3931 C   0  0  1  0  0  0  0  0  0  0  0  0
  -24.3937  -23.5775   19.9622 C   0  0  1  0  0  0  0  0  0  1  0  0
  -23.3278  -29.8082   23.2951 C   0  0  1  0  0  0  0  0  0  0  0  0
  -27.6090  -13.2363   21.3509 C   0  0  2  0  0  0  0  0  0  0  0  0
  -26.0325  -19.1265   22.3262 C   0  0  0  0  0  0  0  0  0  0  0  0
  -30.7313  -28.8835   22.2594 C   0  0  0  0  0  0  0  0  0  0  0  0
  -26.0388  -33.0582   20.6508 C   0  0  0  0  0  0  0  0  0  0  0  0
  -28.2748  -32.0362   20.1777 C   0  0  0  0  0  0  0  0  0  0  0  0
  -27.7215  -32.8092   22.4840 C   0  0  0  0  0  0  0  0  0  0  0  0
  -28.3323  -26.0418   21.4561 C   0  0  0  0  0  0  0  0  0  0  0  0
  -26.6734  -21.5805   20.9602 C   0  0  0  0  0  0  0  0  0  0  0  0
  -26.6209  -30.7205   21.5794 C   0  0  1  0  0  0  0  0  0  0  0  0
  -29.3798  -28.1909   22.1790 C   0  0  2  0  0  0  0  0  0  0  0  0
  -27.1401  -32.1411   21.2190 C   0  0  0  0  0  0  0  0  0  0  0  0
  -25.8511  -11.5111   21.2288 N   0  0  0  0  0  0  0  0  0  0  0  0
  -26.3634  -12.6440   20.7187 N   0  0  0  0  0  0  0  0  0  0  0  0
  -24.5499  -29.7208   22.4932 N   0  0  0  0  0  0  0  0  0  0  0  0
  -28.5065  -14.8179   23.0132 N   0  0  0  0  0  0  0  0  0  0  0  0
  -26.0433  -14.2655   19.0219 N   0  0  0  0  0  0  0  0  0  0  0  0
  -22.4502  -13.0840   18.7262 N   0  0  0  0  0  0  0  0  0  0  0  0
  -27.9959  -17.0331   22.3849 N   0  0  0  0  0  0  0  0  0  0  0  0
  -21.0611  -30.6214   23.0532 N   0  0  0  0  0  0  0  0  0  0  0  0
  -27.6364  -29.8389   22.1450 N   0  0  0  0  0  0  0  0  0  0  0  0
  -25.5472  -21.3155   19.9993 N   0  3  1  0  0  0  0  0  0  0  0  0
  -29.5775  -26.8432   21.5744 N   0  3  0  0  0  0  0  0  0  0  0  0
  -23.7512  -11.8377   17.3074 O   0  0  0  0  0  0  0  0  0  0  0  0
  -22.5285  -30.6662   21.2458 O   0  0  0  0  0  0  0  0  0  0  0  0
  -25.4459  -31.6689   23.4087 O   0  0  0  0  0  0  0  0  0  0  0  0
  -28.3052  -28.8981   20.1339 O   0  0  0  0  0  0  0  0  0  0  0  0
  -29.9517  -16.5456   23.5334 O   0  0  0  0  0  0  0  0  0  0  0  0
  -21.5612   -6.8073   21.3601 O   0  0  0  0  0  0  0  0  0  0  0  0
  -23.1235  -24.1852   20.1747 O   0  0  0  0  0  0  0  0  0  1  0  0
  -22.1209   -4.1787   26.1748 F   0  0  0  0  0  0  0  0  0  0  0  0
  -19.4264   -6.5640   23.0997 F   0  0  0  0  0  0  0  0  0  0  0  0
  -30.4421  -17.4009   21.1421 F   0  0  0  0  0  0  0  0  0  0  0  0
  -29.3540  -22.0691   19.5583 Cl  0  0  0  0  0  0  0  0  0  0  0  0
  1  2  1  0  0  0  0
  1  5  2  0  0  0  0
  2  6  2  0  0  0  0
  3  8  2  0  0  0  0
  3 16  1  0  0  0  0
  4  9  1  0  0  0  0
  4 16  2  0  0  0  0
  5 18  1  0  0  0  0
  6 20  1  0  0  0  0
  7 10  2  0  0  0  0
  7 19  1  0  0  0  0
  8 25  1  0  0  0  0
  9 25  2  0  0  0  0
 10 26  1  0  0  0  0
 11 12  2  0  0  0  0
 11 27  1  0  0  0  0
 12 28  1  0  0  0  0
 13 21  1  0  0  0  0
 13 26  2  0  0  0  0
 14 28  2  0  0  0  0
 14 29  1  0  0  0  0
 15 30  1  0  0  0  0
 15 31  2  0  0  0  0
 16 32  1  0  0  0  0
 17 32  1  0  0  0  0
 17 33  2  0  0  0  0
 17 36  1  0  0  0  0
 18 20  2  0  0  0  0
 18 41  1  0  0  0  0
 19 21  2  0  0  0  0
 19 42  1  0  0  0  0
 20 53  1  0  0  0  0
 21 43  1  0  0  0  0
 22 23  2  0  0  0  0
 22 24  1  0  0  0  0
 22 57  1  0  0  0  0
 23 31  1  0  0  0  0
 23 63  1  0  0  0  0
 24 30  2  0  0  0  0
 24 73  1  0  0  0  0
 25 83  1  0  0  0  0
 26 84  1  0  0  0  0
 27 29  2  0  0  0  0
 27 83  1  0  0  0  0
 28 85  1  0  0  0  0
 29 86  1  0  0  0  0
 30 87  1  0  0  0  0
 31 88  1  0  0  0  0
 32 67  2  0  0  0  0
 33 68  1  0  0  0  0
 33 71  1  0  0  0  0
 34 35  2  0  0  0  0
 34 54  1  0  0  0  0
 34 76  1  0  0  0  0
 36 72  1  0  0  0  0
 36 78  2  0  0  0  0
 37 55  1  0  0  0  0
 37 74  1  0  0  0  0
 37 79  2  0  0  0  0
 38 64  1  0  0  0  0
 38 69  1  0  0  0  0
 38 80  2  0  0  0  0
 39 65  1  0  0  0  0
 39 75  1  0  0  0  0
 39 81  2  0  0  0  0
 40 70  1  0  0  0  0
 40 73  1  0  0  0  0
 40 82  2  0  0  0  0
 41 44  1  0  0  0  0
 42 55  1  0  0  0  0
 43 69  1  0  0  0  0
 44 47  1  0  0  0  0
 45 49  1  0  0  0  0
 45 50  1  0  0  0  0
 46 48  1  0  0  0  0
 46 52  1  0  0  0  0
 47 53  1  0  0  0  0
 48 54  1  0  0  0  0
 49 56  1  0  0  0  0
 50 70  1  0  0  0  0
 51 56  1  0  0  0  0
 51 70  1  0  0  0  0
 52 76  1  0  0  0  0
 53 74  1  0  0  0  0
 54 84  1  0  0  0  0
 55 69  1  0  0  0  0
 56 68  1  0  0  0  0
 58 65  1  0  0  0  0
 59 66  1  0  0  0  0
 60 66  1  0  0  0  0
 61 66  1  0  0  0  0
 62 77  1  0  0  0  0
 63 76  1  0  0  0  0
 64 66  1  0  0  0  0
 64 75  1  0  0  0  0
 65 77  1  0  0  0  0
 67 68  1  0  0  0  0
M  CHG  2  76   1  77   1
M  ISO  4  40 100  54 101  73 100  84 101
M  END
> <Batch ID>
0047

> <Smiles>
C=C1N(Cc2c(Cl)cc(F)c([100NH:0][100C:0](=O)N3CCCC(n4nc(-c5ccc(Oc6ccc(F)cc6F)cc5)c(C(N)=O)c4N)C3)c2C)CCC[101CH:1]1[101O:1]c1ccc2c(c1)CN(C(=O)C(NC(=O)C(C)NC)C(C)(C)C)C(C(=O)NC1CCCc3ccccc31)C2

> <Shape>
0.271

> <Color>
0.091

> <Negative vol penalty>
0.000

$$$$

  -OEChem-04042322263D

 87 96  0     1  0  0  0  0  0999 V2000
  -25.8328  -35.1947   22.3864 C   0  0  0  0  0  0  0  0  0  0  0  0
  -26.4172  -33.9394   22.2516 C   0  0  0  0  0  0  0  0  0  0  0  0
  -25.1436  -16.5920   19.5358 C   0  0  0  0  0  0  0  0  0  0  0  0
  -25.3613  -16.0493   21.8799 C   0  0  0  0  0  0  0  0  0  0  0  0
  -24.5623  -35.3141   22.9482 C   0  0  0  0  0  0  0  0  0  0  0  0
  -25.7319  -32.8029   22.6795 C   0  0  0  0  0  0  0  0  0  0  0  0
  -25.9783  -29.0105   19.3326 C   0  0  0  0  0  0  0  0  0  0  0  0
  -33.3210  -21.5749   18.2622 C   0  0  0  0  0  0  0  0  0  0  0  0
  -23.8824  -15.9967   19.5150 C   0  0  0  0  0  0  0  0  0  0  0  0
  -24.1000  -15.4540   21.8592 C   0  0  0  0  0  0  0  0  0  0  0  0
  -27.1609  -28.2733   19.2917 C   0  0  0  0  0  0  0  0  0  0  0  0
  -22.7426  -12.5276   20.8468 C   0  0  0  0  0  0  0  0  0  0  0  0
  -33.6771  -21.0727   17.0106 C   0  0  0  0  0  0  0  0  0  0  0  0
  -22.6003  -11.2890   21.4721 C   0  0  0  0  0  0  0  0  0  0  0  0
  -26.1221  -26.5451   20.6159 C   0  0  0  0  0  0  0  0  0  0  0  0
  -33.1872  -23.2169   16.0108 C   0  0  0  0  0  0  0  0  0  0  0  0
  -20.9482  -12.2310   22.9622 C   0  0  0  0  0  0  0  0  0  0  0  0
  -25.8831  -16.6183   20.7182 C   0  0  0  0  0  0  0  0  0  0  0  0
  -28.3102  -16.8696   19.9741 C   0  0  0  0  0  0  0  0  0  0  0  0
  -23.8571  -34.1776   23.3744 C   0  0  0  0  0  0  0  0  0  0  0  0
  -24.8603  -28.5248   20.0258 C   0  0  0  0  0  0  0  0  0  0  0  0
  -24.4514  -32.9074   23.2488 C   0  0  0  0  0  0  0  0  0  0  0  0
  -24.9258  -27.2769   20.6619 C   0  0  0  0  0  0  0  0  0  0  0  0
  -32.8979  -22.8981   18.3881 C   0  0  0  0  0  0  0  0  0  0  0  0
  -32.8310  -23.7191   17.2625 C   0  0  0  0  0  0  0  0  0  0  0  0
  -23.3605  -15.4277   20.6767 C   0  0  0  0  0  0  0  0  0  0  0  0
  -27.2339  -27.0416   19.9358 C   0  0  0  0  0  0  0  0  0  0  0  0
  -21.9878  -13.6181   21.2792 C   0  0  0  0  0  0  0  0  0  0  0  0
  -33.6102  -21.8937   15.8849 C   0  0  0  0  0  0  0  0  0  0  0  0
  -21.7031  -11.1406   22.5297 C   0  0  0  0  0  0  0  0  0  0  0  0
  -21.0906  -13.4697   22.3369 C   0  0  0  0  0  0  0  0  0  0  0  0
  -27.1863  -17.2325   20.7402 C   0  0  0  0  0  0  0  0  0  0  0  0
  -29.2889  -17.7522   20.3608 C   0  0  0  0  0  0  0  0  0  0  0  0
  -30.3854  -25.8883   18.6587 C   0  0  0  0  0  0  0  0  0  0  0  0
  -28.4564  -15.8277   19.0000 C   0  0  0  0  0  0  0  0  0  0  0  0
  -23.1542  -29.5266   22.5136 C   0  0  0  0  0  0  0  0  0  0  0  0
  -21.2652  -27.0066   21.7368 C   0  0  0  0  0  0  0  0  0  0  0  0
  -21.7367  -23.5857   20.6916 C   0  0  0  0  0  0  0  0  0  0  0  0
  -30.9573  -22.9306   21.6044 C   0  0  0  0  0  0  0  0  0  0  0  0
  -22.5059  -34.3610   24.0189 C   0  0  0  0  0  0  0  0  0  0  0  0
  -23.5836  -29.3200   20.0380 C   0  0  0  0  0  0  0  0  0  0  0  0
  -23.7473  -26.7017   21.4026 C   0  0  0  0  0  0  0  0  0  0  0  0
  -21.6915  -33.0727   24.1035 C   0  0  0  0  0  0  0  0  0  0  0  0
  -28.8566  -24.0503   16.9252 C   0  0  0  0  0  0  0  0  0  0  0  0
  -29.4270  -21.0386   24.2036 C   0  0  0  0  0  0  0  0  0  0  0  0
  -22.5553  -31.9284   24.6243 C   0  0  0  0  0  0  0  0  0  0  0  0
  -28.3179  -24.5572   18.2617 C   0  0  0  0  0  0  0  0  0  0  0  0
  -28.7954  -19.8539   23.4704 C   0  0  0  0  0  0  0  0  0  0  0  0
  -30.0860  -24.8158   16.4441 C   0  0  0  0  0  0  0  0  0  0  0  0
  -29.3413  -22.3222   23.3807 C   0  0  0  0  0  0  0  0  0  0  0  0
  -29.2551  -21.0346   21.2811 C   0  0  0  0  0  0  0  0  0  0  0  0
  -23.7294  -31.6487   23.6784 C   0  0  1  0  0  0  0  0  0  0  0  0
  -28.8638  -25.9330   18.6216 C   0  0  1  0  0  0  0  0  0  1  0  0
  -22.6697  -28.9651   21.2068 C   0  0  1  0  0  0  0  0  0  0  0  0
  -29.3671  -19.7056   22.0476 C   0  0  2  0  0  0  0  0  0  0  0  0
  -20.2643  -22.0784   19.3288 C   0  0  0  0  0  0  0  0  0  0  0  0
  -20.2181  -26.0631   24.4430 C   0  0  0  0  0  0  0  0  0  0  0  0
  -20.1145  -23.7402   23.5149 C   0  0  0  0  0  0  0  0  0  0  0  0
  -18.7207  -25.5472   22.5076 C   0  0  0  0  0  0  0  0  0  0  0  0
  -23.8966  -23.0465   18.7414 C   0  0  0  0  0  0  0  0  0  0  0  0
  -32.3769  -25.1459   17.3728 C   0  0  0  0  0  0  0  0  0  0  0  0
  -32.5208  -23.4129   19.7384 C   0  0  0  0  0  0  0  0  0  0  0  0
  -21.2190  -25.5470   22.1197 C   0  0  1  0  0  0  0  0  0  0  0  0
  -21.4654  -23.0110   19.3130 C   0  0  2  0  0  0  0  0  0  0  0  0
  -20.0925  -25.2390   23.1461 C   0  0  0  0  0  0  0  0  0  0  0  0
  -27.4275  -18.2652   21.5523 N   0  0  0  0  0  0  0  0  0  0  0  0
  -28.7142  -18.5586   21.2987 N   0  0  0  0  0  0  0  0  0  0  0  0
  -30.9376  -25.2466   17.5469 N   0  0  0  0  0  0  0  0  0  0  0  0
  -22.5233  -27.5198   21.3912 N   0  0  0  0  0  0  0  0  0  0  0  0
  -29.9015  -22.1146   22.0431 N   0  0  0  0  0  0  0  0  0  0  0  0
  -30.5764  -17.9094   19.9867 N   0  0  0  0  0  0  0  0  0  0  0  0
  -27.3507  -15.0123   18.7227 N   0  0  0  0  0  0  0  0  0  0  0  0
  -23.2804  -30.9026   22.5224 N   0  0  0  0  0  0  0  0  0  0  0  0
  -21.1099  -24.8007   20.8709 N   0  0  0  0  0  0  0  0  0  0  0  0
  -31.4336  -22.6628   20.3269 N   0  0  0  0  0  0  0  0  0  0  0  0
  -22.6487  -22.2452   18.8289 N   0  3  0  0  0  0  0  0  0  0  0  0
  -31.0305  -26.3855   19.5801 O   0  0  0  0  0  0  0  0  0  0  0  0
  -29.5403  -15.6154   18.4053 O   0  0  0  0  0  0  0  0  0  0  0  0
  -23.3941  -28.7678   23.4454 O   0  0  0  0  0  0  0  0  0  0  0  0
  -20.2222  -27.6652   21.7373 O   0  0  0  0  0  0  0  0  0  0  0  0
  -22.4319  -23.0122   21.5273 O   0  0  0  0  0  0  0  0  0  0  0  0
  -31.4432  -23.8275   22.3018 O   0  0  0  0  0  0  0  0  0  0  0  0
  -22.1297  -14.8470   20.6569 O   0  0  0  0  0  0  0  0  0  0  0  0
  -28.3871  -26.3203   19.8980 O   0  0  0  0  0  0  0  0  0  1  0  0
  -33.9528  -21.4118   14.6830 F   0  0  0  0  0  0  0  0  0  0  0  0
  -21.5653   -9.9507   23.1291 F   0  0  0  0  0  0  0  0  0  0  0  0
  -20.3618  -14.5133   22.7559 F   0  0  0  0  0  0  0  0  0  0  0  0
  1  2  1  0  0  0  0
  1  5  2  0  0  0  0
  2  6  2  0  0  0  0
  3  9  2  0  0  0  0
  3 18  1  0  0  0  0
  4 10  1  0  0  0  0
  4 18  2  0  0  0  0
  5 20  1  0  0  0  0
  6 22  1  0  0  0  0
  7 11  2  0  0  0  0
  7 21  1  0  0  0  0
  8 13  2  0  0  0  0
  8 24  1  0  0  0  0
  9 26  1  0  0  0  0
 10 26  2  0  0  0  0
 11 27  1  0  0  0  0
 12 14  2  0  0  0  0
 12 28  1  0  0  0  0
 13 29  1  0  0  0  0
 14 30  1  0  0  0  0
 15 23  1  0  0  0  0
 15 27  2  0  0  0  0
 16 25  1  0  0  0  0
 16 29  2  0  0  0  0
 17 30  2  0  0  0  0
 17 31  1  0  0  0  0
 18 32  1  0  0  0  0
 19 32  1  0  0  0  0
 19 33  2  0  0  0  0
 19 35  1  0  0  0  0
 20 22  2  0  0  0  0
 20 40  1  0  0  0  0
 21 23  2  0  0  0  0
 21 41  1  0  0  0  0
 22 52  1  0  0  0  0
 23 42  1  0  0  0  0
 24 25  2  0  0  0  0
 24 62  1  0  0  0  0
 25 61  1  0  0  0  0
 26 83  1  0  0  0  0
 27 84  1  0  0  0  0
 28 31  2  0  0  0  0
 28 83  1  0  0  0  0
 29 85  1  0  0  0  0
 30 86  1  0  0  0  0
 31 87  1  0  0  0  0
 32 66  2  0  0  0  0
 33 67  1  0  0  0  0
 33 71  1  0  0  0  0
 34 53  1  0  0  0  0
 34 68  1  0  0  0  0
 34 77  2  0  0  0  0
 35 72  1  0  0  0  0
 35 78  2  0  0  0  0
 36 54  1  0  0  0  0
 36 73  1  0  0  0  0
 36 79  2  0  0  0  0
 37 63  1  0  0  0  0
 37 69  1  0  0  0  0
 37 80  2  0  0  0  0
 38 64  1  0  0  0  0
 38 74  1  0  0  0  0
 38 81  2  0  0  0  0
 39 70  1  0  0  0  0
 39 75  1  0  0  0  0
 39 82  2  0  0  0  0
 40 43  1  0  0  0  0
 41 54  1  0  0  0  0
 42 69  1  0  0  0  0
 43 46  1  0  0  0  0
 44 47  1  0  0  0  0
 44 49  1  0  0  0  0
 45 48  1  0  0  0  0
 45 50  1  0  0  0  0
 46 52  1  0  0  0  0
 47 53  1  0  0  0  0
 48 55  1  0  0  0  0
 49 68  1  0  0  0  0
 50 70  1  0  0  0  0
 51 55  1  0  0  0  0
 51 70  1  0  0  0  0
 52 73  1  0  0  0  0
 53 84  1  0  0  0  0
 54 69  1  0  0  0  0
 55 67  1  0  0  0  0
 56 64  1  0  0  0  0
 57 65  1  0  0  0  0
 58 65  1  0  0  0  0
 59 65  1  0  0  0  0
 60 76  1  0  0  0  0
 61 68  1  0  0  0  0
 62 75  1  0  0  0  0
 63 65  1  0  0  0  0
 63 74  1  0  0  0  0
 64 76  1  0  0  0  0
 66 67  1  0  0  0  0
M  CHG  1  76   1
M  ISO  4  39 100  53 101  75 100  84 101
M  END
> <Batch ID>
0047

> <Smiles>
CNC(C)C(=O)NC(C(=O)N1Cc2cc([101O:1][101CH:1]3CCCN(Cc4cc(F)ccc4C[100NH:0][100C:0](=O)N4CCCC(n5nc(-c6ccc(Oc7ccc(F)cc7F)cc6)c(C(N)=O)c5N)C4)C3=O)ccc2CC1C(=O)NC1CCCc2ccccc21)C(C)(C)C

> <Shape>
0.233

> <Color>
0.091

> <Negative vol penalty>
0.000

$$$$

  -OEChem-04042322263D

 84 92  0     1  0  0  0  0  0999 V2000
  -32.5118  -19.4670   25.9337 C   0  0  0  0  0  0  0  0  0  0  0  0
  -31.2925  -20.0751   26.2142 C   0  0  0  0  0  0  0  0  0  0  0  0
  -29.0416  -26.1267   20.5385 C   0  0  0  0  0  0  0  0  0  0  0  0
  -27.2377  -26.1290   18.9313 C   0  0  0  0  0  0  0  0  0  0  0  0
  -32.7093  -18.8372   24.7055 C   0  0  0  0  0  0  0  0  0  0  0  0
  -30.2701  -20.0548   25.2661 C   0  0  0  0  0  0  0  0  0  0  0  0
  -23.1286  -19.8080   24.7614 C   0  0  0  0  0  0  0  0  0  0  0  0
  -29.4403  -24.8678   20.0892 C   0  0  0  0  0  0  0  0  0  0  0  0
  -27.6365  -24.8701   18.4819 C   0  0  0  0  0  0  0  0  0  0  0  0
  -22.0677  -20.4809   24.1569 C   0  0  0  0  0  0  0  0  0  0  0  0
  -27.3361  -21.6559   19.4866 C   0  0  0  0  0  0  0  0  0  0  0  0
  -26.3449  -20.6951   19.2868 C   0  0  0  0  0  0  0  0  0  0  0  0
  -22.4950  -19.2947   22.1003 C   0  0  0  0  0  0  0  0  0  0  0  0
  -19.5140  -27.6971   21.7054 C   0  0  0  0  0  0  0  0  0  0  0  0
  -17.6183  -26.7166   22.8376 C   0  0  0  0  0  0  0  0  0  0  0  0
  -18.2447  -29.0055   23.2910 C   0  0  0  0  0  0  0  0  0  0  0  0
  -26.9665  -20.5383   16.9574 C   0  0  0  0  0  0  0  0  0  0  0  0
  -27.9402  -26.7572   19.9596 C   0  0  0  0  0  0  0  0  0  0  0  0
  -27.9580  -29.3081   19.9419 C   0  0  0  0  0  0  0  0  0  0  0  0
  -31.6855  -18.8008   23.7458 C   0  0  0  0  0  0  0  0  0  0  0  0
  -23.8889  -18.8798   24.0355 C   0  0  0  0  0  0  0  0  0  0  0  0
  -30.4545  -19.4251   24.0235 C   0  0  0  0  0  0  0  0  0  0  0  0
  -23.5635  -18.6095   22.6987 C   0  0  0  0  0  0  0  0  0  0  0  0
  -18.6733  -26.6073   21.9317 C   0  0  0  0  0  0  0  0  0  0  0  0
  -19.2997  -28.8962   22.3851 C   0  0  0  0  0  0  0  0  0  0  0  0
  -28.7378  -24.2395   19.0609 C   0  0  0  0  0  0  0  0  0  0  0  0
  -21.7526  -20.2264   22.8254 C   0  0  0  0  0  0  0  0  0  0  0  0
  -28.1426  -22.0579   18.4218 C   0  0  0  0  0  0  0  0  0  0  0  0
  -26.1601  -20.1363   18.0222 C   0  0  0  0  0  0  0  0  0  0  0  0
  -17.4040  -27.9157   23.5173 C   0  0  0  0  0  0  0  0  0  0  0  0
  -27.9578  -21.4991   17.1572 C   0  0  0  0  0  0  0  0  0  0  0  0
  -27.5275  -28.0574   20.4236 C   0  0  0  0  0  0  0  0  0  0  0  0
  -27.2769  -30.2235   20.7065 C   0  0  0  0  0  0  0  0  0  0  0  0
  -28.8903  -29.6150   18.8967 C   0  0  0  0  0  0  0  0  0  0  0  0
  -26.9402  -18.6664   23.1708 C   0  0  0  0  0  0  0  0  0  0  0  0
  -26.0262  -15.7464   22.0936 C   0  0  0  0  0  0  0  0  0  0  0  0
  -19.8122  -23.0370   21.6072 C   0  0  0  0  0  0  0  0  0  0  0  0
  -23.5072  -13.7190   21.0024 C   0  0  0  0  0  0  0  0  0  0  0  0
  -22.1107  -29.9775   23.7233 C   0  0  0  0  0  0  0  0  0  0  0  0
  -31.9618  -18.1491   22.4140 C   0  0  0  0  0  0  0  0  0  0  0  0
  -25.0133  -18.1427   24.7099 C   0  0  0  0  0  0  0  0  0  0  0  0
  -24.3358  -17.6073   21.8816 C   0  0  0  0  0  0  0  0  0  0  0  0
  -30.6998  -17.8472   21.6101 C   0  0  0  0  0  0  0  0  0  0  0  0
  -25.3229  -30.7687   25.0395 C   0  0  0  0  0  0  0  0  0  0  0  0
  -29.7667  -19.0539   21.6079 C   0  0  0  0  0  0  0  0  0  0  0  0
  -26.2910  -30.2764   23.9623 C   0  0  0  0  0  0  0  0  0  0  0  0
  -24.1133  -29.8465   25.1754 C   0  0  0  0  0  0  0  0  0  0  0  0
  -24.3556  -29.0954   22.8407 C   0  0  0  0  0  0  0  0  0  0  0  0
  -29.3127  -19.4027   23.0305 C   0  0  1  0  0  0  0  0  0  0  0  0
  -26.0439  -17.5962   23.7268 C   0  0  1  0  0  0  0  0  0  0  0  0
  -25.5637  -30.0236   22.6280 C   0  0  2  0  0  0  0  0  0  0  0  0
  -23.0741  -11.3961   20.1572 C   0  0  0  0  0  0  0  0  0  0  0  0
  -27.2084  -16.5133   19.3872 C   0  0  0  0  0  0  0  0  0  0  0  0
  -25.9329  -14.6141   18.3702 C   0  0  0  0  0  0  0  0  0  0  0  0
  -27.6725  -14.1614   20.0997 C   0  0  0  0  0  0  0  0  0  0  0  0
  -21.6894  -13.1124   23.2577 C   0  0  0  0  0  0  0  0  0  0  0  0
  -18.9042  -25.3164   21.2006 C   0  0  0  0  0  0  0  0  0  0  0  0
  -20.1985  -30.0616   22.1435 C   0  0  0  0  0  0  0  0  0  0  0  0
  -20.4250  -22.1960   22.7067 C   0  0  0  0  0  0  0  0  0  1  0  0
  -25.4789  -15.2099   20.7930 C   0  0  1  0  0  0  0  0  0  0  0  0
  -23.1213  -12.3000   21.3793 C   0  0  2  0  0  0  0  0  0  0  0  0
  -26.5596  -15.1450   19.6771 C   0  0  0  0  0  0  0  0  0  0  0  0
  -26.6415  -28.1647   21.4174 N   0  0  0  0  0  0  0  0  0  0  0  0
  -26.5099  -29.4939   21.5664 N   0  0  0  0  0  0  0  0  0  0  0  0
  -25.4302  -16.9170   22.5839 N   0  0  0  0  0  0  0  0  0  0  0  0
  -23.4679  -29.6490   23.8753 N   0  0  0  0  0  0  0  0  0  0  0  0
  -27.2652  -31.5734   20.7204 N   0  0  0  0  0  0  0  0  0  0  0  0
  -29.4997  -28.5546   18.2123 N   0  0  0  0  0  0  0  0  0  0  0  0
  -28.2780  -18.4907   23.4687 N   0  0  0  0  0  0  0  0  0  0  0  0
  -19.5018  -24.3130   22.0509 N   0  0  0  0  0  0  0  0  0  0  0  0
  -24.8667  -13.9235   21.1074 N   0  0  0  0  0  0  0  0  0  0  0  0
  -21.5787  -29.7657   22.4573 N   0  0  0  0  0  0  0  0  0  0  0  0
  -21.7799  -12.2831   22.0285 N   0  3  0  0  0  0  0  0  0  0  0  0
  -29.1868  -30.7947   18.5901 O   0  0  0  0  0  0  0  0  0  0  0  0
  -26.4541  -19.5829   22.5185 O   0  0  0  0  0  0  0  0  0  0  0  0
  -26.9438  -15.1450   22.6575 O   0  0  0  0  0  0  0  0  0  0  0  0
  -19.6248  -22.6108   20.4710 O   0  0  0  0  0  0  0  0  0  0  0  0
  -22.6853  -14.5606   20.6465 O   0  0  0  0  0  0  0  0  0  0  0  0
  -21.4254  -30.4313   24.6459 O   0  0  0  0  0  0  0  0  0  0  0  0
  -29.1268  -23.0113   18.6220 O   0  0  0  0  0  0  0  0  0  0  0  0
  -20.7180  -20.8823   22.2327 O   0  0  0  0  0  0  0  0  0  1  0  0
  -25.2091  -19.2126   17.8308 F   0  0  0  0  0  0  0  0  0  0  0  0
  -16.3916  -28.0201   24.3879 F   0  0  0  0  0  0  0  0  0  0  0  0
  -28.7302  -21.8804   16.1307 F   0  0  0  0  0  0  0  0  0  0  0  0
  1  2  1  0  0  0  0
  1  5  2  0  0  0  0
  2  6  2  0  0  0  0
  3  8  2  0  0  0  0
  3 18  1  0  0  0  0
  4  9  1  0  0  0  0
  4 18  2  0  0  0  0
  5 20  1  0  0  0  0
  6 22  1  0  0  0  0
  7 10  2  0  0  0  0
  7 21  1  0  0  0  0
  8 26  1  0  0  0  0
  9 26  2  0  0  0  0
 10 27  1  0  0  0  0
 11 12  2  0  0  0  0
 11 28  1  0  0  0  0
 12 29  1  0  0  0  0
 13 23  1  0  0  0  0
 13 27  2  0  0  0  0
 14 24  2  0  0  0  0
 14 25  1  0  0  0  0
 15 24  1  0  0  0  0
 15 30  2  0  0  0  0
 16 25  2  0  0  0  0
 16 30  1  0  0  0  0
 17 29  2  0  0  0  0
 17 31  1  0  0  0  0
 18 32  1  0  0  0  0
 19 32  1  0  0  0  0
 19 33  2  0  0  0  0
 19 34  1  0  0  0  0
 20 22  2  0  0  0  0
 20 40  1  0  0  0  0
 21 23  2  0  0  0  0
 21 41  1  0  0  0  0
 22 49  1  0  0  0  0
 23 42  1  0  0  0  0
 24 57  1  0  0  0  0
 25 58  1  0  0  0  0
 26 80  1  0  0  0  0
 27 81  1  0  0  0  0
 28 31  2  0  0  0  0
 28 80  1  0  0  0  0
 29 82  1  0  0  0  0
 30 83  1  0  0  0  0
 31 84  1  0  0  0  0
 32 63  2  0  0  0  0
 33 64  1  0  0  0  0
 33 67  1  0  0  0  0
 34 68  1  0  0  0  0
 34 74  2  0  0  0  0
 35 50  1  0  0  0  0
 35 69  1  0  0  0  0
 35 75  2  0  0  0  0
 36 60  1  0  0  0  0
 36 65  1  0  0  0  0
 36 76  2  0  0  0  0
 37 59  1  0  0  0  0
 37 70  1  0  0  0  0
 37 77  2  0  0  0  0
 38 61  1  0  0  0  0
 38 71  1  0  0  0  0
 38 78  2  0  0  0  0
 39 66  1  0  0  0  0
 39 72  1  0  0  0  0
 39 79  2  0  0  0  0
 40 43  1  0  0  0  0
 41 50  1  0  0  0  0
 42 65  1  0  0  0  0
 43 45  1  0  0  0  0
 44 46  1  0  0  0  0
 44 47  1  0  0  0  0
 45 49  1  0  0  0  0
 46 51  1  0  0  0  0
 47 66  1  0  0  0  0
 48 51  1  0  0  0  0
 48 66  1  0  0  0  0
 49 69  1  0  0  0  0
 50 65  1  0  0  0  0
 51 64  1  0  0  0  0
 52 61  1  0  0  0  0
 53 62  1  0  0  0  0
 54 62  1  0  0  0  0
 55 62  1  0  0  0  0
 56 73  1  0  0  0  0
 57 70  1  0  0  0  0
 58 72  1  0  0  0  0
 59 81  1  0  0  0  0
 60 62  1  0  0  0  0
 60 71  1  0  0  0  0
 61 73  1  0  0  0  0
 63 64  1  0  0  0  0
M  CHG  1  73   1
M  ISO  4  39 100  59 101  72 100  81 101
M  END
> <Batch ID>
0047

> <Smiles>
CNC(C)C(=O)NC(C(=O)N1Cc2cc([101O:1][101CH2:1]C(=O)NCc3cc(F)cc(C[100NH:0][100C:0](=O)N4CCCC(n5nc(-c6ccc(Oc7ccc(F)cc7F)cc6)c(C(N)=O)c5N)C4)c3)ccc2CC1C(=O)NC1CCCc2ccccc21)C(C)(C)C

> <Shape>
0.210

> <Color>
0.077

> <Negative vol penalty>
0.000

$$$$

  -OEChem-04042322263D

 87 96  0     1  0  0  0  0  0999 V2000
  -23.9317  -38.0754   24.0751 C   0  0  0  0  0  0  0  0  0  0  0  0
  -24.0777  -37.5018   22.8171 C   0  0  0  0  0  0  0  0  0  0  0  0
  -23.7344   -8.4130   19.0972 C   0  0  0  0  0  0  0  0  0  0  0  0
  -24.6220   -8.8753   21.2962 C   0  0  0  0  0  0  0  0  0  0  0  0
  -24.2801  -37.3499   25.2124 C   0  0  0  0  0  0  0  0  0  0  0  0
  -24.5609  -36.1983   22.6966 C   0  0  0  0  0  0  0  0  0  0  0  0
  -26.9122  -29.5323   19.0555 C   0  0  0  0  0  0  0  0  0  0  0  0
  -25.0739  -19.8462   18.0030 C   0  0  0  0  0  0  0  0  0  0  0  0
  -25.6473  -18.5769   18.0786 C   0  0  0  0  0  0  0  0  0  0  0  0
  -22.6159   -7.8124   19.6749 C   0  0  0  0  0  0  0  0  0  0  0  0
  -23.5035   -8.2747   21.8739 C   0  0  0  0  0  0  0  0  0  0  0  0
  -27.6576  -28.3683   19.2382 C   0  0  0  0  0  0  0  0  0  0  0  0
  -21.0545   -6.5434   23.9270 C   0  0  0  0  0  0  0  0  0  0  0  0
  -21.2667   -5.6626   24.9875 C   0  0  0  0  0  0  0  0  0  0  0  0
  -26.3261  -27.8270   21.1756 C   0  0  0  0  0  0  0  0  0  0  0  0
  -22.6100   -4.2582   23.5522 C   0  0  0  0  0  0  0  0  0  0  0  0
  -24.7375   -8.9444   19.9078 C   0  0  0  0  0  0  0  0  0  0  0  0
  -26.8272   -8.9657   18.4449 C   0  0  0  0  0  0  0  0  0  0  0  0
  -24.7794  -36.0415   25.1042 C   0  0  0  0  0  0  0  0  0  0  0  0
  -25.8735  -29.8584   19.9394 C   0  0  0  0  0  0  0  0  0  0  0  0
  -24.8954  -35.4412   23.8340 C   0  0  0  0  0  0  0  0  0  0  0  0
  -25.5674  -28.9944   21.0004 C   0  0  0  0  0  0  0  0  0  0  0  0
  -25.8822  -20.9814   18.0636 C   0  0  0  0  0  0  0  0  0  0  0  0
  -27.2639  -20.8474   18.1999 C   0  0  0  0  0  0  0  0  0  0  0  0
  -27.0290  -18.4429   18.2150 C   0  0  0  0  0  0  0  0  0  0  0  0
  -22.5004   -7.7433   21.0633 C   0  0  0  0  0  0  0  0  0  0  0  0
  -27.3665  -27.5169   20.3001 C   0  0  0  0  0  0  0  0  0  0  0  0
  -21.6200   -6.2816   22.6790 C   0  0  0  0  0  0  0  0  0  0  0  0
  -22.0445   -4.5200   24.8001 C   0  0  0  0  0  0  0  0  0  0  0  0
  -22.3978   -5.1390   22.4916 C   0  0  0  0  0  0  0  0  0  0  0  0
  -27.8373  -19.5781   18.2756 C   0  0  0  0  0  0  0  0  0  0  0  0
  -25.8935   -9.5645   19.3117 C   0  0  0  0  0  0  0  0  0  0  0  0
  -27.7251   -9.9662   18.1633 C   0  0  0  0  0  0  0  0  0  0  0  0
  -27.8886  -24.3232   19.2647 C   0  0  0  0  0  0  0  0  0  0  0  0
  -26.8783   -7.6250   17.9393 C   0  0  0  0  0  0  0  0  0  0  0  0
  -25.3019  -32.2617   21.9396 C   0  0  0  0  0  0  0  0  0  0  0  0
  -22.4382  -30.7781   22.2868 C   0  0  0  0  0  0  0  0  0  0  0  0
  -21.2517  -27.3860   22.6079 C   0  0  0  0  0  0  0  0  0  0  0  0
  -26.8884  -15.9202   18.2431 C   0  0  0  0  0  0  0  0  0  0  0  0
  -25.1337  -35.2988   26.3684 C   0  0  0  0  0  0  0  0  0  0  0  0
  -25.0616  -31.1042   19.7129 C   0  0  0  0  0  0  0  0  0  0  0  0
  -24.4492  -29.2887   21.9655 C   0  0  0  0  0  0  0  0  0  0  0  0
  -26.0466  -34.1027   26.1193 C   0  0  0  0  0  0  0  0  0  0  0  0
  -26.8622  -23.1116   21.7275 C   0  0  0  0  0  0  0  0  0  0  0  0
  -29.0441  -13.8840   20.6785 C   0  0  0  0  0  0  0  0  0  0  0  0
  -25.4871  -33.2477   24.9920 C   0  0  0  0  0  0  0  0  0  0  0  0
  -27.5491  -24.4601   21.7815 C   0  0  0  0  0  0  0  0  0  0  0  0
  -29.0251  -12.5337   19.9658 C   0  0  0  0  0  0  0  0  0  0  0  0
  -27.5067  -22.2530   20.6540 C   0  0  0  0  0  0  0  0  0  0  0  0
  -28.7651  -15.0422   19.7289 C   0  0  0  0  0  0  0  0  0  0  0  0
  -26.8846  -13.5557   19.0149 C   0  0  0  0  0  0  0  0  0  0  0  0
  -25.4477  -34.0360   23.6767 C   0  0  1  0  0  0  0  0  0  0  0  0
  -27.3878  -25.1507   20.4416 C   0  0  1  0  0  0  0  0  0  1  0  0
  -24.3606  -31.5980   20.9747 C   0  0  1  0  0  0  0  0  0  0  0  0
  -27.9303  -12.4373   18.8848 C   0  0  2  0  0  0  0  0  0  0  0  0
  -25.2406  -22.3281   17.9803 C   0  0  0  0  0  0  0  0  0  0  0  0
  -19.0388  -26.3677   22.0050 C   0  0  0  0  0  0  0  0  0  0  0  0
  -21.7163  -31.3342   25.1988 C   0  0  0  0  0  0  0  0  0  0  0  0
  -20.4863  -29.1539   25.2375 C   0  0  0  0  0  0  0  0  0  0  0  0
  -19.7560  -30.9685   23.6896 C   0  0  0  0  0  0  0  0  0  0  0  0
  -22.5301  -25.3325   20.9026 C   0  0  0  0  0  0  0  0  0  0  0  0
  -28.1141  -22.0832   18.2627 C   0  0  0  0  0  0  0  0  0  0  0  0
  -21.8925  -29.7080   23.2012 C   0  0  1  0  0  0  0  0  0  0  0  0
  -20.4789  -26.5915   21.5705 C   0  0  2  0  0  0  0  0  0  0  0  0
  -20.9903  -30.2921   24.3248 C   0  0  0  0  0  0  0  0  0  0  0  0
  -26.1724  -10.8460   19.5643 N   0  0  0  0  0  0  0  0  0  0  0  0
  -27.2917  -11.0607   18.8521 N   0  0  0  0  0  0  0  0  0  0  0  0
  -27.7499  -22.9391   19.3840 N   0  0  0  0  0  0  0  0  0  0  0  0
  -23.6882  -30.5220   21.7057 N   0  0  0  0  0  0  0  0  0  0  0  0
  -27.5154  -14.8800   18.9719 N   0  0  0  0  0  0  0  0  0  0  0  0
  -28.8353  -10.0077   17.3964 N   0  0  0  0  0  0  0  0  0  0  0  0
  -27.5838   -6.6610   18.6723 N   0  0  0  0  0  0  0  0  0  0  0  0
  -27.5744  -17.1367   18.2895 N   0  0  0  0  0  0  0  0  0  0  0  0
  -24.7228  -33.2687   22.6880 N   0  0  0  0  0  0  0  0  0  0  0  0
  -21.2230  -28.7384   22.3408 N   0  0  0  0  0  0  0  0  0  0  0  0
  -21.1169  -25.2620   21.3553 N   0  3  0  0  0  0  0  0  0  0  0  0
  -28.3224  -24.8875   18.2569 O   0  0  0  0  0  0  0  0  0  0  0  0
  -26.3290   -7.2955   16.8608 O   0  0  0  0  0  0  0  0  0  0  0  0
  -26.4669  -31.8869   22.0017 O   0  0  0  0  0  0  0  0  0  0  0  0
  -21.7764  -31.8002   22.0896 O   0  0  0  0  0  0  0  0  0  0  0  0
  -21.8205  -26.8598   23.5618 O   0  0  0  0  0  0  0  0  0  0  0  0
  -25.8393  -15.7353   17.6227 O   0  0  0  0  0  0  0  0  0  0  0  0
  -21.4090   -7.1575   21.6274 O   0  0  0  0  0  0  0  0  0  0  0  0
  -28.0928  -26.3805   20.4811 O   0  0  0  0  0  0  0  0  0  1  0  0
  -22.2495   -3.6750   25.8190 F   0  0  0  0  0  0  0  0  0  0  0  0
  -22.9446   -4.8828   21.2954 F   0  0  0  0  0  0  0  0  0  0  0  0
  -29.5554  -19.4137   18.4456 Cl  0  0  0  0  0  0  0  0  0  0  0  0
  1  2  1  0  0  0  0
  1  5  2  0  0  0  0
  2  6  2  0  0  0  0
  3 10  2  0  0  0  0
  3 17  1  0  0  0  0
  4 11  1  0  0  0  0
  4 17  2  0  0  0  0
  5 19  1  0  0  0  0
  6 21  1  0  0  0  0
  7 12  2  0  0  0  0
  7 20  1  0  0  0  0
  8  9  1  0  0  0  0
  8 23  2  0  0  0  0
  9 25  2  0  0  0  0
 10 26  1  0  0  0  0
 11 26  2  0  0  0  0
 12 27  1  0  0  0  0
 13 14  2  0  0  0  0
 13 28  1  0  0  0  0
 14 29  1  0  0  0  0
 15 22  1  0  0  0  0
 15 27  2  0  0  0  0
 16 29  2  0  0  0  0
 16 30  1  0  0  0  0
 17 32  1  0  0  0  0
 18 32  1  0  0  0  0
 18 33  2  0  0  0  0
 18 35  1  0  0  0  0
 19 21  2  0  0  0  0
 19 40  1  0  0  0  0
 20 22  2  0  0  0  0
 20 41  1  0  0  0  0
 21 52  1  0  0  0  0
 22 42  1  0  0  0  0
 23 24  1  0  0  0  0
 23 56  1  0  0  0  0
 24 31  2  0  0  0  0
 24 62  1  0  0  0  0
 25 31  1  0  0  0  0
 25 73  1  0  0  0  0
 26 83  1  0  0  0  0
 27 84  1  0  0  0  0
 28 30  2  0  0  0  0
 28 83  1  0  0  0  0
 29 85  1  0  0  0  0
 30 86  1  0  0  0  0
 31 87  1  0  0  0  0
 32 66  2  0  0  0  0
 33 67  1  0  0  0  0
 33 71  1  0  0  0  0
 34 53  1  0  0  0  0
 34 68  1  0  0  0  0
 34 77  2  0  0  0  0
 35 72  1  0  0  0  0
 35 78  2  0  0  0  0
 36 54  1  0  0  0  0
 36 74  1  0  0  0  0
 36 79  2  0  0  0  0
 37 63  1  0  0  0  0
 37 69  1  0  0  0  0
 37 80  2  0  0  0  0
 38 64  1  0  0  0  0
 38 75  1  0  0  0  0
 38 81  2  0  0  0  0
 39 70  1  0  0  0  0
 39 73  1  0  0  0  0
 39 82  2  0  0  0  0
 40 43  1  0  0  0  0
 41 54  1  0  0  0  0
 42 69  1  0  0  0  0
 43 46  1  0  0  0  0
 44 47  1  0  0  0  0
 44 49  1  0  0  0  0
 45 48  1  0  0  0  0
 45 50  1  0  0  0  0
 46 52  1  0  0  0  0
 47 53  1  0  0  0  0
 48 55  1  0  0  0  0
 49 68  1  0  0  0  0
 50 70  1  0  0  0  0
 51 55  1  0  0  0  0
 51 70  1  0  0  0  0
 52 74  1  0  0  0  0
 53 84  1  0  0  0  0
 54 69  1  0  0  0  0
 55 67  1  0  0  0  0
 57 64  1  0  0  0  0
 58 65  1  0  0  0  0
 59 65  1  0  0  0  0
 60 65  1  0  0  0  0
 61 76  1  0  0  0  0
 62 68  1  0  0  0  0
 63 65  1  0  0  0  0
 63 75  1  0  0  0  0
 64 76  1  0  0  0  0
 66 67  1  0  0  0  0
M  CHG  1  76   1
M  ISO  4  39 100  53 101  73 100  84 101
M  END
> <Batch ID>
0047

> <Smiles>
CNC(C)C(=O)NC(C(=O)N1Cc2cc([101O:1][101CH:1]3CCCN(Cc4c(C)ccc([100NH:0][100C:0](=O)N5CCCC(n6nc(-c7ccc(Oc8ccc(F)cc8F)cc7)c(C(N)=O)c6N)C5)c4Cl)C3=O)ccc2CC1C(=O)NC1CCCc2ccccc21)C(C)(C)C

> <Shape>
0.302

> <Color>
0.104

> <Negative vol penalty>
0.000

$$$$

  -OEChem-04042322263D

 86 95  0     1  0  0  0  0  0999 V2000
  -16.6950  -30.0015   23.7032 C   0  0  0  0  0  0  0  0  0  0  0  0
  -17.0954  -28.6939   23.9589 C   0  0  0  0  0  0  0  0  0  0  0  0
  -32.6926  -17.4509   23.4230 C   0  0  0  0  0  0  0  0  0  0  0  0
  -22.6540  -10.2052   20.2635 C   0  0  0  0  0  0  0  0  0  0  0  0
  -24.3068   -9.4939   21.8758 C   0  0  0  0  0  0  0  0  0  0  0  0
  -17.5149  -30.8471   22.9572 C   0  0  0  0  0  0  0  0  0  0  0  0
  -18.3156  -28.2309   23.4677 C   0  0  0  0  0  0  0  0  0  0  0  0
  -23.6587  -23.7521   25.1133 C   0  0  0  0  0  0  0  0  0  0  0  0
  -31.9253  -18.2955   24.2252 C   0  0  0  0  0  0  0  0  0  0  0  0
  -32.0692  -16.5974   22.5127 C   0  0  0  0  0  0  0  0  0  0  0  0
  -21.9257   -9.0383   20.4953 C   0  0  0  0  0  0  0  0  0  0  0  0
  -23.5785   -8.3270   22.1076 C   0  0  0  0  0  0  0  0  0  0  0  0
  -24.3849  -22.6950   24.5667 C   0  0  0  0  0  0  0  0  0  0  0  0
  -19.7897   -7.8587   22.8360 C   0  0  0  0  0  0  0  0  0  0  0  0
  -18.4093   -7.9774   22.9970 C   0  0  0  0  0  0  0  0  0  0  0  0
  -25.7551  -24.2695   23.3573 C   0  0  0  0  0  0  0  0  0  0  0  0
  -18.0628   -6.5347   21.0903 C   0  0  0  0  0  0  0  0  0  0  0  0
  -23.8446  -10.4329   20.9538 C   0  0  0  0  0  0  0  0  0  0  0  0
  -24.1634  -12.9634   20.9039 C   0  0  0  0  0  0  0  0  0  0  0  0
  -18.7501  -30.3972   22.4648 C   0  0  0  0  0  0  0  0  0  0  0  0
  -23.9687  -25.0777   24.7770 C   0  0  0  0  0  0  0  0  0  0  0  0
  -19.1521  -29.0709   22.7132 C   0  0  0  0  0  0  0  0  0  0  0  0
  -25.0329  -25.3418   23.9030 C   0  0  0  0  0  0  0  0  0  0  0  0
  -30.5346  -18.2866   24.1171 C   0  0  0  0  0  0  0  0  0  0  0  0
  -29.9113  -17.4330   23.2068 C   0  0  0  0  0  0  0  0  0  0  0  0
  -30.6786  -16.5884   22.4046 C   0  0  0  0  0  0  0  0  0  0  0  0
  -22.3879   -8.0993   21.4173 C   0  0  0  0  0  0  0  0  0  0  0  0
  -25.4314  -22.9534   23.6863 C   0  0  0  0  0  0  0  0  0  0  0  0
  -20.3067   -7.0781   21.8020 C   0  0  0  0  0  0  0  0  0  0  0  0
  -17.5458   -7.3154   22.1242 C   0  0  0  0  0  0  0  0  0  0  0  0
  -19.4433   -6.4161   20.9292 C   0  0  0  0  0  0  0  0  0  0  0  0
  -24.5976  -11.6378   20.7144 C   0  0  0  0  0  0  0  0  0  0  0  0
  -25.2402  -13.7332   20.5374 C   0  0  0  0  0  0  0  0  0  0  0  0
  -27.8514  -20.6170   24.1924 C   0  0  0  0  0  0  0  0  0  0  0  0
  -22.8996  -13.4551   21.3697 C   0  0  0  0  0  0  0  0  0  0  0  0
  -22.4125  -27.4517   23.3466 C   0  0  0  0  0  0  0  0  0  0  0  0
  -25.0446  -29.1567   24.1756 C   0  0  0  0  0  0  0  0  0  0  0  0
  -28.6151  -28.6390   24.2080 C   0  0  0  0  0  0  0  0  0  0  0  0
  -30.7007  -14.8201   20.6104 C   0  0  0  0  0  0  0  0  0  0  0  0
  -19.5807  -31.3335   21.6233 C   0  0  0  0  0  0  0  0  0  0  0  0
  -23.1930  -26.2079   25.3960 C   0  0  0  0  0  0  0  0  0  0  0  0
  -25.4190  -26.7479   23.5256 C   0  0  0  0  0  0  0  0  0  0  0  0
  -21.0288  -30.8804   21.4568 C   0  0  0  0  0  0  0  0  0  0  0  0
  -29.8195  -21.7978   22.3340 C   0  0  0  0  0  0  0  0  0  0  0  0
  -29.5470  -12.4710   18.1963 C   0  0  0  0  0  0  0  0  0  0  0  0
  -21.0869  -29.3979   21.1022 C   0  0  0  0  0  0  0  0  0  0  0  0
  -28.3121  -21.9073   22.1121 C   0  0  0  0  0  0  0  0  0  0  0  0
  -28.1208  -12.1539   18.6518 C   0  0  0  0  0  0  0  0  0  0  0  0
  -30.1867  -21.3095   23.7325 C   0  0  0  0  0  0  0  0  0  0  0  0
  -30.4898  -12.6705   19.3817 C   0  0  0  0  0  0  0  0  0  0  0  0
  -28.6120  -13.3355   20.8312 C   0  0  0  0  0  0  0  0  0  0  0  0
  -20.4799  -28.5395   22.2185 C   0  0  1  0  0  0  0  0  0  0  0  0
  -27.5317  -21.8899   23.4203 C   0  0  1  0  0  0  0  0  0  1  0  0
  -23.2644  -27.4972   24.5835 C   0  0  1  0  0  0  0  0  0  0  0  0
  -27.6116  -13.1903   19.6727 C   0  0  2  0  0  0  0  0  0  0  0  0
  -28.4189  -17.4271   23.0943 C   0  0  0  0  0  0  0  0  0  0  0  0
  -30.3997  -29.6668   25.6418 C   0  0  0  0  0  0  0  0  0  0  0  0
  -25.3283  -31.1535   21.8860 C   0  0  0  0  0  0  0  0  0  0  0  0
  -27.8040  -31.1219   22.2577 C   0  0  0  0  0  0  0  0  0  0  0  0
  -26.2832  -31.9230   24.0656 C   0  0  0  0  0  0  0  0  0  0  0  0
  -29.5956  -25.9893   25.0892 C   0  0  0  0  0  0  0  0  0  0  0  0
  -29.7327  -19.2058   24.9924 C   0  0  0  0  0  0  0  0  0  0  0  0
  -26.3739  -29.4548   23.5252 C   0  0  1  0  0  0  0  0  0  0  0  0
  -29.4966  -28.4616   25.4310 C   0  0  2  0  0  0  0  0  0  0  0  0
  -26.4332  -30.8892   22.9282 C   0  0  0  0  0  0  0  0  0  0  0  0
  -25.8524  -11.5659   20.2624 N   0  0  0  0  0  0  0  0  0  0  0  0
  -26.2159  -12.8560   20.1648 N   0  0  0  0  0  0  0  0  0  0  0  0
  -29.2216  -20.3496   24.2559 N   0  0  0  0  0  0  0  0  0  0  0  0
  -24.6264  -27.8187   24.1522 N   0  0  0  0  0  0  0  0  0  0  0  0
  -29.9446  -13.6689   20.3041 N   0  0  0  0  0  0  0  0  0  0  0  0
  -25.4383  -15.0680   20.5007 N   0  0  0  0  0  0  0  0  0  0  0  0
  -21.9036  -12.5272   21.7033 N   0  0  0  0  0  0  0  0  0  0  0  0
  -30.0665  -15.7138   21.4728 N   0  0  0  0  0  0  0  0  0  0  0  0
  -21.4127  -28.4052   23.3168 N   0  0  0  0  0  0  0  0  0  0  0  0
  -27.3919  -29.1852   24.5348 N   0  0  0  0  0  0  0  0  0  0  0  0
  -30.3542  -27.2522   25.2803 N   0  3  0  0  0  0  0  0  0  0  0  0
  -26.9723  -19.9262   24.7043 O   0  0  0  0  0  0  0  0  0  0  0  0
  -22.6552  -14.6812   21.4710 O   0  0  0  0  0  0  0  0  0  0  0  0
  -22.6459  -26.6146   22.4826 O   0  0  0  0  0  0  0  0  0  0  0  0
  -24.4043  -30.0761   24.6919 O   0  0  0  0  0  0  0  0  0  0  0  0
  -28.9769  -28.3279   23.0753 O   0  0  0  0  0  0  0  0  0  0  0  0
  -31.8165  -15.0130   20.1207 O   0  0  0  0  0  0  0  0  0  0  0  0
  -21.6774   -6.9607   21.6439 O   0  0  0  0  0  0  0  0  0  0  0  0
  -26.1415  -21.9234   23.1508 O   0  0  0  0  0  0  0  0  0  1  0  0
  -16.2202   -7.4282   22.2799 F   0  0  0  0  0  0  0  0  0  0  0  0
  -19.9340   -5.6638   19.9347 F   0  0  0  0  0  0  0  0  0  0  0  0
  1  2  1  0  0  0  0
  1  6  2  0  0  0  0
  2  7  2  0  0  0  0
  3  9  2  0  0  0  0
  3 10  1  0  0  0  0
  4 11  2  0  0  0  0
  4 18  1  0  0  0  0
  5 12  1  0  0  0  0
  5 18  2  0  0  0  0
  6 20  1  0  0  0  0
  7 22  1  0  0  0  0
  8 13  2  0  0  0  0
  8 21  1  0  0  0  0
  9 24  1  0  0  0  0
 10 26  2  0  0  0  0
 11 27  1  0  0  0  0
 12 27  2  0  0  0  0
 13 28  1  0  0  0  0
 14 15  2  0  0  0  0
 14 29  1  0  0  0  0
 15 30  1  0  0  0  0
 16 23  1  0  0  0  0
 16 28  2  0  0  0  0
 17 30  2  0  0  0  0
 17 31  1  0  0  0  0
 18 32  1  0  0  0  0
 19 32  1  0  0  0  0
 19 33  2  0  0  0  0
 19 35  1  0  0  0  0
 20 22  2  0  0  0  0
 20 40  1  0  0  0  0
 21 23  2  0  0  0  0
 21 41  1  0  0  0  0
 22 52  1  0  0  0  0
 23 42  1  0  0  0  0
 24 25  2  0  0  0  0
 24 62  1  0  0  0  0
 25 26  1  0  0  0  0
 25 56  1  0  0  0  0
 26 73  1  0  0  0  0
 27 83  1  0  0  0  0
 28 84  1  0  0  0  0
 29 31  2  0  0  0  0
 29 83  1  0  0  0  0
 30 85  1  0  0  0  0
 31 86  1  0  0  0  0
 32 66  2  0  0  0  0
 33 67  1  0  0  0  0
 33 71  1  0  0  0  0
 34 53  1  0  0  0  0
 34 68  1  0  0  0  0
 34 77  2  0  0  0  0
 35 72  1  0  0  0  0
 35 78  2  0  0  0  0
 36 54  1  0  0  0  0
 36 74  1  0  0  0  0
 36 79  2  0  0  0  0
 37 63  1  0  0  0  0
 37 69  1  0  0  0  0
 37 80  2  0  0  0  0
 38 64  1  0  0  0  0
 38 75  1  0  0  0  0
 38 81  2  0  0  0  0
 39 70  1  0  0  0  0
 39 73  1  0  0  0  0
 39 82  2  0  0  0  0
 40 43  1  0  0  0  0
 41 54  1  0  0  0  0
 42 69  1  0  0  0  0
 43 46  1  0  0  0  0
 44 47  1  0  0  0  0
 44 49  1  0  0  0  0
 45 48  1  0  0  0  0
 45 50  1  0  0  0  0
 46 52  1  0  0  0  0
 47 53  1  0  0  0  0
 48 55  1  0  0  0  0
 49 68  1  0  0  0  0
 50 70  1  0  0  0  0
 51 55  1  0  0  0  0
 51 70  1  0  0  0  0
 52 74  1  0  0  0  0
 53 84  1  0  0  0  0
 54 69  1  0  0  0  0
 55 67  1  0  0  0  0
 57 64  1  0  0  0  0
 58 65  1  0  0  0  0
 59 65  1  0  0  0  0
 60 65  1  0  0  0  0
 61 76  1  0  0  0  0
 62 68  1  0  0  0  0
 63 65  1  0  0  0  0
 63 75  1  0  0  0  0
 64 76  1  0  0  0  0
 66 67  1  0  0  0  0
M  CHG  1  76   1
M  ISO  4  39 100  53 101  73 100  84 101
M  END
> <Batch ID>
0047

> <Smiles>
CNC(C)C(=O)NC(C(=O)N1Cc2cc([101O:1][101CH:1]3CCCN(Cc4cccc([100NH:0][100C:0](=O)N5CCCC(n6nc(-c7ccc(Oc8ccc(F)cc8F)cc7)c(C(N)=O)c6N)C5)c4C)C3=O)ccc2CC1C(=O)NC1CCCc2ccccc21)C(C)(C)C

> <Shape>
0.266

> <Color>
0.218

> <Negative vol penalty>
0.000

$$$$

  -OEChem-04042322263D

 89 98  0     1  0  0  0  0  0999 V2000
  -16.6509  -29.0626   24.2451 C   0  0  0  0  0  0  0  0  0  0  0  0
  -17.5280  -27.9899   24.1209 C   0  0  0  0  0  0  0  0  0  0  0  0
  -22.5013  -10.3158   20.4935 C   0  0  0  0  0  0  0  0  0  0  0  0
  -23.8785  -10.0726   22.4637 C   0  0  0  0  0  0  0  0  0  0  0  0
  -16.9266  -30.2656   23.5965 C   0  0  0  0  0  0  0  0  0  0  0  0
  -18.6808  -28.1192   23.3471 C   0  0  0  0  0  0  0  0  0  0  0  0
  -24.1335  -25.5394   24.4047 C   0  0  0  0  0  0  0  0  0  0  0  0
  -30.6120  -19.9020   20.2401 C   0  0  0  0  0  0  0  0  0  0  0  0
  -21.6881   -9.2713   20.9330 C   0  0  0  0  0  0  0  0  0  0  0  0
  -23.0652   -9.0281   22.9032 C   0  0  0  0  0  0  0  0  0  0  0  0
  -24.7469  -24.3982   23.8898 C   0  0  0  0  0  0  0  0  0  0  0  0
  -22.6556   -5.7392   22.2351 C   0  0  0  0  0  0  0  0  0  0  0  0
  -23.2812   -4.5932   22.7259 C   0  0  0  0  0  0  0  0  0  0  0  0
  -30.9026  -18.9139   19.2995 C   0  0  0  0  0  0  0  0  0  0  0  0
  -25.9083  -25.7597   22.2721 C   0  0  0  0  0  0  0  0  0  0  0  0
  -22.1907   -4.9109   24.8582 C   0  0  0  0  0  0  0  0  0  0  0  0
  -23.5966  -10.7165   21.2588 C   0  0  0  0  0  0  0  0  0  0  0  0
  -24.0513  -13.1249   20.5514 C   0  0  0  0  0  0  0  0  0  0  0  0
  -18.0882  -30.4129   22.8221 C   0  0  0  0  0  0  0  0  0  0  0  0
  -24.3949  -26.8001   23.8492 C   0  0  0  0  0  0  0  0  0  0  0  0
  -18.9715  -29.3249   22.6864 C   0  0  0  0  0  0  0  0  0  0  0  0
  -25.2988  -26.9156   22.7835 C   0  0  0  0  0  0  0  0  0  0  0  0
  -30.1065  -19.5473   21.4909 C   0  0  0  0  0  0  0  0  0  0  0  0
  -29.8915  -18.2045   21.8010 C   0  0  0  0  0  0  0  0  0  0  0  0
  -30.1821  -17.2163   20.8603 C   0  0  0  0  0  0  0  0  0  0  0  0
  -21.9700   -8.6274   22.1378 C   0  0  0  0  0  0  0  0  0  0  0  0
  -25.6322  -24.5079   22.8215 C   0  0  0  0  0  0  0  0  0  0  0  0
  -21.7975   -6.4711   23.0560 C   0  0  0  0  0  0  0  0  0  0  0  0
  -23.0488   -4.1790   24.0374 C   0  0  0  0  0  0  0  0  0  0  0  0
  -21.5651   -6.0570   24.3675 C   0  0  0  0  0  0  0  0  0  0  0  0
  -30.6876  -17.5711   19.6096 C   0  0  0  0  0  0  0  0  0  0  0  0
  -24.4373  -11.7951   20.8051 C   0  0  0  0  0  0  0  0  0  0  0  0
  -25.2070  -13.7465   20.1459 C   0  0  0  0  0  0  0  0  0  0  0  0
  -28.0793  -22.1948   23.2210 C   0  0  0  0  0  0  0  0  0  0  0  0
  -22.7632  -13.7430   20.6716 C   0  0  0  0  0  0  0  0  0  0  0  0
  -28.2366  -22.3175   24.5489 C   0  0  0  0  0  0  0  0  0  0  0  0
  -22.6423  -29.0182   22.3958 C   0  0  0  0  0  0  0  0  0  0  0  0
  -25.3927  -30.7316   22.5432 C   0  0  0  0  0  0  0  0  0  0  0  0
  -28.9123  -30.1096   22.0503 C   0  0  0  0  0  0  0  0  0  0  0  0
  -30.6554  -14.7466   20.7091 C   0  0  0  0  0  0  0  0  0  0  0  0
  -18.3196  -31.7173   22.1014 C   0  0  0  0  0  0  0  0  0  0  0  0
  -23.7456  -28.0247   24.4334 C   0  0  0  0  0  0  0  0  0  0  0  0
  -25.6290  -28.2485   22.1646 C   0  0  0  0  0  0  0  0  0  0  0  0
  -19.7524  -31.8931   21.6050 C   0  0  0  0  0  0  0  0  0  0  0  0
  -29.7215  -11.8222   18.9055 C   0  0  0  0  0  0  0  0  0  0  0  0
  -27.8927  -21.8283   20.3267 C   0  0  0  0  0  0  0  0  0  0  0  0
  -20.2357  -30.6246   20.9092 C   0  0  0  0  0  0  0  0  0  0  0  0
  -28.2008  -23.2010   20.9353 C   0  0  0  0  0  0  0  0  0  0  0  0
  -28.2317  -11.6639   19.2181 C   0  0  0  0  0  0  0  0  0  0  0  0
  -30.5023  -12.3392   20.1125 C   0  0  0  0  0  0  0  0  0  0  0  0
  -28.4813  -13.4098   21.0281 C   0  0  0  0  0  0  0  0  0  0  0  0
  -27.5515  -20.7443   21.3475 C   0  0  0  0  0  0  0  0  0  0  0  0
  -20.2449  -29.4344   21.8760 C   0  0  1  0  0  0  0  0  0  0  0  0
  -27.6572  -23.3527   22.3537 C   0  0  1  0  0  0  0  0  0  1  0  0
  -23.6912  -29.1956   23.4570 C   0  0  1  0  0  0  0  0  0  0  0  0
  -27.6427  -12.9532   19.8232 C   0  0  2  0  0  0  0  0  0  0  0  0
  -29.3505  -17.8326   23.1464 C   0  0  0  0  0  0  0  0  0  0  0  0
  -28.6567  -21.1617   25.4059 C   0  0  0  0  0  0  0  0  0  0  0  0
  -28.0013  -23.6178   25.2564 C   0  0  0  0  0  0  0  0  0  0  0  0
  -30.9231  -31.2566   23.0191 C   0  0  0  0  0  0  0  0  0  0  0  0
  -25.3049  -32.4069   19.9945 C   0  0  0  0  0  0  0  0  0  0  0  0
  -27.8074  -32.3451   19.9508 C   0  0  0  0  0  0  0  0  0  0  0  0
  -26.6213  -33.4200   21.8640 C   0  0  0  0  0  0  0  0  0  0  0  0
  -30.0022  -27.5658   23.0992 C   0  0  0  0  0  0  0  0  0  0  0  0
  -29.8019  -20.6304   22.4834 C   0  0  0  0  0  0  0  0  0  0  0  0
  -26.5959  -30.9012   21.6474 C   0  0  1  0  0  0  0  0  0  0  0  0
  -29.9859  -30.0634   23.1226 C   0  0  2  0  0  0  0  0  0  0  0  0
  -26.5673  -32.2442   20.8644 C   0  0  0  0  0  0  0  0  0  0  0  0
  -25.7367  -11.5834   20.5796 N   0  0  0  0  0  0  0  0  0  0  0  0
  -26.1771  -12.7885   20.1797 N   0  0  0  0  0  0  0  0  0  0  0  0
  -24.9638  -29.4156   22.7668 N   0  0  0  0  0  0  0  0  0  0  0  0
  -29.8891  -13.5646   20.6295 N   0  0  0  0  0  0  0  0  0  0  0  0
  -25.4778  -15.0136   19.7671 N   0  0  0  0  0  0  0  0  0  0  0  0
  -22.4141  -14.3271   21.8969 N   0  0  0  0  0  0  0  0  0  0  0  0
  -29.9569  -15.8556   21.1853 N   0  0  0  0  0  0  0  0  0  0  0  0
  -21.3970  -29.5015   22.7494 N   0  0  0  0  0  0  0  0  0  0  0  0
  -27.7672  -30.7318   22.5006 N   0  0  0  0  0  0  0  0  0  0  0  0
  -28.3268  -20.8975   22.6315 N   0  3  1  0  0  0  0  0  0  0  0  0
  -30.7942  -28.8182   22.9929 N   0  3  0  0  0  0  0  0  0  0  0  0
  -21.9396  -13.7620   19.7256 O   0  0  0  0  0  0  0  0  0  0  0  0
  -22.9411  -28.4838   21.3343 O   0  0  0  0  0  0  0  0  0  0  0  0
  -24.8576  -31.7296   23.0324 O   0  0  0  0  0  0  0  0  0  0  0  0
  -29.0747  -29.6439   20.9246 O   0  0  0  0  0  0  0  0  0  0  0  0
  -31.8363  -14.7797   20.3534 O   0  0  0  0  0  0  0  0  0  0  0  0
  -21.1766   -7.6082   22.5671 O   0  0  0  0  0  0  0  0  0  0  0  0
  -26.2318  -23.3955   22.3166 O   0  0  0  0  0  0  0  0  0  1  0  0
  -23.6484   -3.0776   24.5080 F   0  0  0  0  0  0  0  0  0  0  0  0
  -20.7409   -6.7554   25.1604 F   0  0  0  0  0  0  0  0  0  0  0  0
  -31.0669  -16.3824   18.4138 Cl  0  0  0  0  0  0  0  0  0  0  0  0
  1  2  1  0  0  0  0
  1  5  2  0  0  0  0
  2  6  2  0  0  0  0
  3  9  2  0  0  0  0
  3 17  1  0  0  0  0
  4 10  1  0  0  0  0
  4 17  2  0  0  0  0
  5 19  1  0  0  0  0
  6 21  1  0  0  0  0
  7 11  2  0  0  0  0
  7 20  1  0  0  0  0
  8 14  2  0  0  0  0
  8 23  1  0  0  0  0
  9 26  1  0  0  0  0
 10 26  2  0  0  0  0
 11 27  1  0  0  0  0
 12 13  2  0  0  0  0
 12 28  1  0  0  0  0
 13 29  1  0  0  0  0
 14 31  1  0  0  0  0
 15 22  1  0  0  0  0
 15 27  2  0  0  0  0
 16 29  2  0  0  0  0
 16 30  1  0  0  0  0
 17 32  1  0  0  0  0
 18 32  1  0  0  0  0
 18 33  2  0  0  0  0
 18 35  1  0  0  0  0
 19 21  2  0  0  0  0
 19 41  1  0  0  0  0
 20 22  2  0  0  0  0
 20 42  1  0  0  0  0
 21 53  1  0  0  0  0
 22 43  1  0  0  0  0
 23 24  2  0  0  0  0
 23 65  1  0  0  0  0
 24 25  1  0  0  0  0
 24 57  1  0  0  0  0
 25 31  2  0  0  0  0
 25 75  1  0  0  0  0
 26 85  1  0  0  0  0
 27 86  1  0  0  0  0
 28 30  2  0  0  0  0
 28 85  1  0  0  0  0
 29 87  1  0  0  0  0
 30 88  1  0  0  0  0
 31 89  1  0  0  0  0
 32 69  2  0  0  0  0
 33 70  1  0  0  0  0
 33 73  1  0  0  0  0
 34 36  2  0  0  0  0
 34 54  1  0  0  0  0
 34 78  1  0  0  0  0
 35 74  1  0  0  0  0
 35 80  2  0  0  0  0
 36 58  1  0  0  0  0
 36 59  1  0  0  0  0
 37 55  1  0  0  0  0
 37 76  1  0  0  0  0
 37 81  2  0  0  0  0
 38 66  1  0  0  0  0
 38 71  1  0  0  0  0
 38 82  2  0  0  0  0
 39 67  1  0  0  0  0
 39 77  1  0  0  0  0
 39 83  2  0  0  0  0
 40 72  1  0  0  0  0
 40 75  1  0  0  0  0
 40 84  2  0  0  0  0
 41 44  1  0  0  0  0
 42 55  1  0  0  0  0
 43 71  1  0  0  0  0
 44 47  1  0  0  0  0
 45 49  1  0  0  0  0
 45 50  1  0  0  0  0
 46 48  1  0  0  0  0
 46 52  1  0  0  0  0
 47 53  1  0  0  0  0
 48 54  1  0  0  0  0
 49 56  1  0  0  0  0
 50 72  1  0  0  0  0
 51 56  1  0  0  0  0
 51 72  1  0  0  0  0
 52 78  1  0  0  0  0
 53 76  1  0  0  0  0
 54 86  1  0  0  0  0
 55 71  1  0  0  0  0
 56 70  1  0  0  0  0
 60 67  1  0  0  0  0
 61 68  1  0  0  0  0
 62 68  1  0  0  0  0
 63 68  1  0  0  0  0
 64 79  1  0  0  0  0
 65 78  1  0  0  0  0
 66 68  1  0  0  0  0
 66 77  1  0  0  0  0
 67 79  1  0  0  0  0
 69 70  1  0  0  0  0
M  CHG  2  78   1  79   1
M  ISO  4  40 100  54 101  75 100  86 101
M  END
> <Batch ID>
0047

> <Smiles>
CNC(C)C(=O)NC(C(=O)N1Cc2cc([101O:1][101CH:1]3CCCN(Cc4ccc(Cl)c([100NH:0][100C:0](=O)N5CCCC(n6nc(-c7ccc(Oc8ccc(F)cc8F)cc7)c(C(N)=O)c6N)C5)c4C)C3=C(C)C)ccc2CC1C(=O)NC1CCCc2ccccc21)C(C)(C)C

> <Shape>
0.313

> <Color>
0.168

> <Negative vol penalty>
0.000

$$$$

  -OEChem-04042322263D

 86 95  0     1  0  0  0  0  0999 V2000
  -16.8981  -30.4307   23.5416 C   0  0  0  0  0  0  0  0  0  0  0  0
  -18.1458  -31.0458   23.5233 C   0  0  0  0  0  0  0  0  0  0  0  0
  -28.1558  -12.8405   18.5754 C   0  0  0  0  0  0  0  0  0  0  0  0
  -29.2231  -14.0430   20.3787 C   0  0  0  0  0  0  0  0  0  0  0  0
  -16.8001  -29.0505   23.3701 C   0  0  0  0  0  0  0  0  0  0  0  0
  -19.2963  -30.2809   23.3346 C   0  0  0  0  0  0  0  0  0  0  0  0
  -25.8211  -30.6418   20.3998 C   0  0  0  0  0  0  0  0  0  0  0  0
  -30.4671  -23.3258   23.8210 C   0  0  0  0  0  0  0  0  0  0  0  0
  -29.6733  -22.2086   24.0800 C   0  0  0  0  0  0  0  0  0  0  0  0
  -28.9758  -11.7399   18.8240 C   0  0  0  0  0  0  0  0  0  0  0  0
  -30.0431  -12.9424   20.6274 C   0  0  0  0  0  0  0  0  0  0  0  0
  -27.1605  -30.4275   20.7222 C   0  0  0  0  0  0  0  0  0  0  0  0
  -32.1559  -10.8040   18.1642 C   0  0  0  0  0  0  0  0  0  0  0  0
  -32.7434  -10.1736   17.0674 C   0  0  0  0  0  0  0  0  0  0  0  0
  -26.8635  -28.0615   20.3573 C   0  0  0  0  0  0  0  0  0  0  0  0
  -30.0214  -23.0947   21.4577 C   0  0  0  0  0  0  0  0  0  0  0  0
  -31.6242   -8.1138   17.6520 C   0  0  0  0  0  0  0  0  0  0  0  0
  -28.2795  -13.9921   19.3527 C   0  0  0  0  0  0  0  0  0  0  0  0
  -26.0270  -15.1720   19.1486 C   0  0  0  0  0  0  0  0  0  0  0  0
  -17.9492  -28.2695   23.1695 C   0  0  0  0  0  0  0  0  0  0  0  0
  -24.9887  -29.5645   20.0638 C   0  0  0  0  0  0  0  0  0  0  0  0
  -19.2137  -28.8888   23.1616 C   0  0  0  0  0  0  0  0  0  0  0  0
  -25.5146  -28.2651   20.0286 C   0  0  0  0  0  0  0  0  0  0  0  0
  -30.6412  -23.7689   22.5098 C   0  0  0  0  0  0  0  0  0  0  0  0
  -29.0535  -21.5343   23.0279 C   0  0  0  0  0  0  0  0  0  0  0  0
  -29.2275  -21.9774   21.7168 C   0  0  0  0  0  0  0  0  0  0  0  0
  -29.9194  -11.7908   19.8500 C   0  0  0  0  0  0  0  0  0  0  0  0
  -27.6811  -29.1369   20.7038 C   0  0  0  0  0  0  0  0  0  0  0  0
  -31.3026  -10.0893   19.0050 C   0  0  0  0  0  0  0  0  0  0  0  0
  -32.4775   -8.8285   16.8113 C   0  0  0  0  0  0  0  0  0  0  0  0
  -31.0368   -8.7442   18.7488 C   0  0  0  0  0  0  0  0  0  0  0  0
  -27.4331  -15.1296   19.0961 C   0  0  0  0  0  0  0  0  0  0  0  0
  -25.7103  -16.4692   18.8267 C   0  0  0  0  0  0  0  0  0  0  0  0
  -30.0072  -26.8450   21.6425 C   0  0  0  0  0  0  0  0  0  0  0  0
  -25.0908  -14.1319   19.4606 C   0  0  0  0  0  0  0  0  0  0  0  0
  -22.3527  -28.2942   21.3053 C   0  0  0  0  0  0  0  0  0  0  0  0
  -22.4458  -26.4595   18.6318 C   0  0  0  0  0  0  0  0  0  0  0  0
  -24.9638  -24.7333   16.7090 C   0  0  0  0  0  0  0  0  0  0  0  0
  -28.6863  -21.6308   19.2809 C   0  0  0  0  0  0  0  0  0  0  0  0
  -17.7970  -26.7750   23.0359 C   0  0  0  0  0  0  0  0  0  0  0  0
  -23.5529  -29.8155   19.6925 C   0  0  0  0  0  0  0  0  0  0  0  0
  -24.6679  -27.0769   19.6548 C   0  0  0  0  0  0  0  0  0  0  0  0
  -19.0343  -26.0851   22.4673 C   0  0  0  0  0  0  0  0  0  0  0  0
  -30.3671  -27.9672   24.3255 C   0  0  0  0  0  0  0  0  0  0  0  0
  -27.3344  -20.2065   16.3109 C   0  0  0  0  0  0  0  0  0  0  0  0
  -20.2945  -26.5915   23.1618 C   0  0  0  0  0  0  0  0  0  0  0  0
  -30.0099  -28.8786   23.1700 C   0  0  0  0  0  0  0  0  0  0  0  0
  -27.0727  -18.7483   16.6947 C   0  0  0  0  0  0  0  0  0  0  0  0
  -31.2598  -26.8428   23.8318 C   0  0  0  0  0  0  0  0  0  0  0  0
  -28.6081  -20.7441   16.9608 C   0  0  0  0  0  0  0  0  0  0  0  0
  -28.4184  -19.1180   18.8017 C   0  0  0  0  0  0  0  0  0  0  0  0
  -20.4828  -28.0963   22.9347 C   0  0  1  0  0  0  0  0  0  0  0  0
  -29.2562  -28.0794   22.1252 C   0  0  1  0  0  0  0  0  0  1  0  0
  -22.6673  -28.5854   19.8652 C   0  0  1  0  0  0  0  0  0  0  0  0
  -27.1113  -18.5522   18.2230 C   0  0  2  0  0  0  0  0  0  0  0  0
  -28.2095  -20.3400   23.3349 C   0  0  0  0  0  0  0  0  0  0  0  0
  -25.0217  -24.1164   14.2773 C   0  0  0  0  0  0  0  0  0  0  0  0
  -21.3034  -23.7934   19.5788 C   0  0  0  0  0  0  0  0  0  0  0  0
  -22.7452  -22.6517   17.8800 C   0  0  0  0  0  0  0  0  0  0  0  0
  -20.9853  -24.2582   17.1421 C   0  0  0  0  0  0  0  0  0  0  0  0
  -27.5472  -26.1180   16.3000 C   0  0  0  0  0  0  0  0  0  0  0  0
  -31.4957  -24.9717   22.2320 C   0  0  0  0  0  0  0  0  0  0  0  0
  -23.0736  -25.1368   18.2642 C   0  0  1  0  0  0  0  0  0  0  0  0
  -25.4752  -25.1143   15.3315 C   0  0  2  0  0  0  0  0  0  0  0  0
  -22.0384  -23.9770   18.2360 C   0  0  0  0  0  0  0  0  0  0  0  0
  -27.9725  -16.3062   18.7665 N   0  0  0  0  0  0  0  0  0  0  0  0
  -26.8997  -17.1002   18.6091 N   0  0  0  0  0  0  0  0  0  0  0  0
  -30.8207  -26.2134   22.5852 N   0  0  0  0  0  0  0  0  0  0  0  0
  -23.2686  -27.3730   19.3059 N   0  0  0  0  0  0  0  0  0  0  0  0
  -28.5720  -20.5275   18.4088 N   0  0  0  0  0  0  0  0  0  0  0  0
  -24.5333  -17.1201   18.7114 N   0  0  0  0  0  0  0  0  0  0  0  0
  -25.5860  -12.8575   19.7686 N   0  0  0  0  0  0  0  0  0  0  0  0
  -28.6057  -21.3063   20.6347 N   0  0  0  0  0  0  0  0  0  0  0  0
  -21.0055  -28.3458   21.6085 N   0  0  0  0  0  0  0  0  0  0  0  0
  -23.7654  -25.3511   16.9978 N   0  0  0  0  0  0  0  0  0  0  0  0
  -26.9648  -25.1592   15.3261 N   0  3  0  0  0  0  0  0  0  0  0  0
  -29.8257  -26.4239   20.4971 O   0  0  0  0  0  0  0  0  0  0  0  0
  -23.8510  -14.3227   19.4500 O   0  0  0  0  0  0  0  0  0  0  0  0
  -23.2646  -28.0400   22.0835 O   0  0  0  0  0  0  0  0  0  0  0  0
  -21.2709  -26.6772   18.3255 O   0  0  0  0  0  0  0  0  0  0  0  0
  -25.5652  -23.9616   17.4529 O   0  0  0  0  0  0  0  0  0  0  0  0
  -28.8169  -22.7821   18.8573 O   0  0  0  0  0  0  0  0  0  0  0  0
  -30.7196  -10.7169   20.0931 O   0  0  0  0  0  0  0  0  0  0  0  0
  -28.9879  -28.9248   21.0187 O   0  0  0  0  0  0  0  0  0  1  0  0
  -33.0405   -8.2236   15.7571 F   0  0  0  0  0  0  0  0  0  0  0  0
  -30.2169   -8.0528   19.5523 F   0  0  0  0  0  0  0  0  0  0  0  0
  1  2  1  0  0  0  0
  1  5  2  0  0  0  0
  2  6  2  0  0  0  0
  3 10  2  0  0  0  0
  3 18  1  0  0  0  0
  4 11  1  0  0  0  0
  4 18  2  0  0  0  0
  5 20  1  0  0  0  0
  6 22  1  0  0  0  0
  7 12  2  0  0  0  0
  7 21  1  0  0  0  0
  8  9  2  0  0  0  0
  8 24  1  0  0  0  0
  9 25  1  0  0  0  0
 10 27  1  0  0  0  0
 11 27  2  0  0  0  0
 12 28  1  0  0  0  0
 13 14  2  0  0  0  0
 13 29  1  0  0  0  0
 14 30  1  0  0  0  0
 15 23  1  0  0  0  0
 15 28  2  0  0  0  0
 16 24  2  0  0  0  0
 16 26  1  0  0  0  0
 17 30  2  0  0  0  0
 17 31  1  0  0  0  0
 18 32  1  0  0  0  0
 19 32  1  0  0  0  0
 19 33  2  0  0  0  0
 19 35  1  0  0  0  0
 20 22  2  0  0  0  0
 20 40  1  0  0  0  0
 21 23  2  0  0  0  0
 21 41  1  0  0  0  0
 22 52  1  0  0  0  0
 23 42  1  0  0  0  0
 24 62  1  0  0  0  0
 25 26  2  0  0  0  0
 25 56  1  0  0  0  0
 26 73  1  0  0  0  0
 27 83  1  0  0  0  0
 28 84  1  0  0  0  0
 29 31  2  0  0  0  0
 29 83  1  0  0  0  0
 30 85  1  0  0  0  0
 31 86  1  0  0  0  0
 32 66  2  0  0  0  0
 33 67  1  0  0  0  0
 33 71  1  0  0  0  0
 34 53  1  0  0  0  0
 34 68  1  0  0  0  0
 34 77  2  0  0  0  0
 35 72  1  0  0  0  0
 35 78  2  0  0  0  0
 36 54  1  0  0  0  0
 36 74  1  0  0  0  0
 36 79  2  0  0  0  0
 37 63  1  0  0  0  0
 37 69  1  0  0  0  0
 37 80  2  0  0  0  0
 38 64  1  0  0  0  0
 38 75  1  0  0  0  0
 38 81  2  0  0  0  0
 39 70  1  0  0  0  0
 39 73  1  0  0  0  0
 39 82  2  0  0  0  0
 40 43  1  0  0  0  0
 41 54  1  0  0  0  0
 42 69  1  0  0  0  0
 43 46  1  0  0  0  0
 44 47  1  0  0  0  0
 44 49  1  0  0  0  0
 45 48  1  0  0  0  0
 45 50  1  0  0  0  0
 46 52  1  0  0  0  0
 47 53  1  0  0  0  0
 48 55  1  0  0  0  0
 49 68  1  0  0  0  0
 50 70  1  0  0  0  0
 51 55  1  0  0  0  0
 51 70  1  0  0  0  0
 52 74  1  0  0  0  0
 53 84  1  0  0  0  0
 54 69  1  0  0  0  0
 55 67  1  0  0  0  0
 57 64  1  0  0  0  0
 58 65  1  0  0  0  0
 59 65  1  0  0  0  0
 60 65  1  0  0  0  0
 61 76  1  0  0  0  0
 62 68  1  0  0  0  0
 63 65  1  0  0  0  0
 63 75  1  0  0  0  0
 64 76  1  0  0  0  0
 66 67  1  0  0  0  0
M  CHG  1  76   1
M  ISO  4  39 100  53 101  73 100  84 101
M  END
> <Batch ID>
0047

> <Smiles>
CNC(C)C(=O)NC(C(=O)N1Cc2cc([101O:1][101CH:1]3CCCN(Cc4ccc(C)c([100NH:0][100C:0](=O)N5CCCC(n6nc(-c7ccc(Oc8ccc(F)cc8F)cc7)c(C(N)=O)c6N)C5)c4)C3=O)ccc2CC1C(=O)NC1CCCc2ccccc21)C(C)(C)C

> <Shape>
0.241

> <Color>
0.084

> <Negative vol penalty>
0.000

$$$$

  -OEChem-04042322263D

 91100  0     1  0  0  0  0  0999 V2000
  -16.6866  -28.2236   23.9480 C   0  0  0  0  0  0  0  0  0  0  0  0
  -17.4429  -27.4054   23.1149 C   0  0  0  0  0  0  0  0  0  0  0  0
  -30.2154  -18.9133   19.3402 C   0  0  0  0  0  0  0  0  0  0  0  0
  -22.8050  -10.8906   21.0378 C   0  0  0  0  0  0  0  0  0  0  0  0
  -24.3790   -9.0982   21.4211 C   0  0  0  0  0  0  0  0  0  0  0  0
  -17.0803  -29.5421   24.1727 C   0  0  0  0  0  0  0  0  0  0  0  0
  -18.5929  -27.9057   22.5051 C   0  0  0  0  0  0  0  0  0  0  0  0
  -22.4934  -24.6875   22.7781 C   0  0  0  0  0  0  0  0  0  0  0  0
  -29.0933  -19.6876   19.6351 C   0  0  0  0  0  0  0  0  0  0  0  0
  -30.2407  -17.5620   19.6853 C   0  0  0  0  0  0  0  0  0  0  0  0
  -21.9456  -10.3392   21.9879 C   0  0  0  0  0  0  0  0  0  0  0  0
  -23.5195   -8.5467   22.3713 C   0  0  0  0  0  0  0  0  0  0  0  0
  -22.4969  -23.6144   21.8880 C   0  0  0  0  0  0  0  0  0  0  0  0
  -21.5807   -6.4694   24.6375 C   0  0  0  0  0  0  0  0  0  0  0  0
  -21.3651   -5.0920   24.5947 C   0  0  0  0  0  0  0  0  0  0  0  0
  -24.0519  -24.7995   20.4749 C   0  0  0  0  0  0  0  0  0  0  0  0
  -20.4863   -5.2991   22.3537 C   0  0  0  0  0  0  0  0  0  0  0  0
  -24.0217  -10.2701   20.7543 C   0  0  0  0  0  0  0  0  0  0  0  0
  -24.6380  -11.0644   18.4098 C   0  0  0  0  0  0  0  0  0  0  0  0
  -18.2409  -30.0559   23.5730 C   0  0  0  0  0  0  0  0  0  0  0  0
  -23.2619  -25.8311   22.5173 C   0  0  0  0  0  0  0  0  0  0  0  0
  -19.0017  -29.2327   22.7209 C   0  0  0  0  0  0  0  0  0  0  0  0
  -24.0583  -25.8847   21.3645 C   0  0  0  0  0  0  0  0  0  0  0  0
  -27.9965  -19.1106   20.2753 C   0  0  0  0  0  0  0  0  0  0  0  0
  -28.0218  -17.7594   20.6205 C   0  0  0  0  0  0  0  0  0  0  0  0
  -29.1439  -16.9851   20.3254 C   0  0  0  0  0  0  0  0  0  0  0  0
  -22.3028   -9.1672   22.6547 C   0  0  0  0  0  0  0  0  0  0  0  0
  -23.2740  -23.6715   20.7348 C   0  0  0  0  0  0  0  0  0  0  0  0
  -21.2491   -7.2617   23.5384 C   0  0  0  0  0  0  0  0  0  0  0  0
  -20.8179   -4.5068   23.4529 C   0  0  0  0  0  0  0  0  0  0  0  0
  -20.7019   -6.6765   22.3965 C   0  0  0  0  0  0  0  0  0  0  0  0
  -24.9097  -10.8390   19.7725 C   0  0  0  0  0  0  0  0  0  0  0  0
  -25.7944  -11.6169   17.9159 C   0  0  0  0  0  0  0  0  0  0  0  0
  -24.5081  -20.5316   20.0211 C   0  0  0  0  0  0  0  0  0  0  0  0
  -23.5003  -19.9261   20.6706 C   0  0  0  0  0  0  0  0  0  0  0  0
  -22.5039  -17.2690   19.4378 C   0  0  0  0  0  0  0  0  0  0  0  0
  -23.4467  -10.7983   17.6576 C   0  0  0  0  0  0  0  0  0  0  0  0
  -23.5068  -18.4938   21.0495 C   0  0  0  0  0  0  0  0  0  0  0  0
  -22.6149  -28.9035   22.0216 C   0  0  0  0  0  0  0  0  0  0  0  0
  -25.8456  -29.1907   22.0749 C   0  0  0  0  0  0  0  0  0  0  0  0
  -28.6740  -27.3554   20.7906 C   0  0  0  0  0  0  0  0  0  0  0  0
  -30.2373  -14.7182   20.4354 C   0  0  0  0  0  0  0  0  0  0  0  0
  -18.6005  -31.5016   23.8082 C   0  0  0  0  0  0  0  0  0  0  0  0
  -23.2678  -26.9691   23.5008 C   0  0  0  0  0  0  0  0  0  0  0  0
  -24.9169  -27.0812   21.0487 C   0  0  0  0  0  0  0  0  0  0  0  0
  -20.0374  -31.8425   23.4217 C   0  0  0  0  0  0  0  0  0  0  0  0
  -30.5288  -11.6601   18.6354 C   0  0  0  0  0  0  0  0  0  0  0  0
  -26.1129  -21.3139   17.7778 C   0  0  0  0  0  0  0  0  0  0  0  0
  -20.3740  -31.2613   22.0521 C   0  0  0  0  0  0  0  0  0  0  0  0
  -24.8744  -22.1264   18.1392 C   0  0  0  0  0  0  0  0  0  0  0  0
  -29.0952  -11.1260   18.5934 C   0  0  0  0  0  0  0  0  0  0  0  0
  -30.8370  -12.3538   19.9611 C   0  0  0  0  0  0  0  0  0  0  0  0
  -28.4530  -12.8702   20.3058 C   0  0  0  0  0  0  0  0  0  0  0  0
  -25.9616  -19.8538   18.1917 C   0  0  0  0  0  0  0  0  0  0  0  0
  -20.2689  -29.7315   22.0610 C   0  0  1  0  0  0  0  0  0  0  0  0
  -24.5298  -21.9900   19.6215 C   0  0  1  0  0  0  0  0  0  1  0  0
  -23.6903  -28.2957   22.8771 C   0  0  1  0  0  0  0  0  0  0  0  0
  -28.0752  -12.2201   18.9648 C   0  0  2  0  0  0  0  0  0  0  0  0
  -26.8425  -17.1447   21.3071 C   0  0  0  0  0  0  0  0  0  0  0  0
  -22.4989  -16.3467   18.2604 C   0  0  0  0  0  0  0  0  0  0  0  0
  -31.0376  -27.2098   21.6208 C   0  0  0  0  0  0  0  0  0  0  0  0
  -26.3751  -31.4472   20.0905 C   0  0  0  0  0  0  0  0  0  0  0  0
  -28.5750  -30.3740   19.5639 C   0  0  0  0  0  0  0  0  0  0  0  0
  -28.1114  -31.1965   21.8729 C   0  0  0  0  0  0  0  0  0  0  0  0
  -28.5605  -24.4021   20.9449 C   0  0  0  0  0  0  0  0  0  0  0  0
  -26.8025  -19.9662   20.5808 C   0  0  0  0  0  0  0  0  0  0  0  0
  -26.9428  -29.1147   21.0408 C   0  0  1  0  0  0  0  0  0  0  0  0
  -29.6713  -26.5424   21.5960 C   0  0  2  0  0  0  0  0  0  0  0  0
  -27.4768  -30.5186   20.6391 C   0  0  0  0  0  0  0  0  0  0  0  0
  -26.1422  -11.2172   20.1220 N   0  0  0  0  0  0  0  0  0  0  0  0
  -23.6174  -17.6481   19.9757 N   0  0  0  0  0  0  0  0  0  0  0  0
  -26.6551  -11.6858   18.9716 N   0  0  0  0  0  0  0  0  0  0  0  0
  -24.8839  -28.1710   22.0380 N   0  0  0  0  0  0  0  0  0  0  0  0
  -29.8317  -13.3802   20.2450 N   0  0  0  0  0  0  0  0  0  0  0  0
  -26.1488  -12.0456   16.6858 N   0  0  0  0  0  0  0  0  0  0  0  0
  -23.3137   -9.5488   17.0368 N   0  0  0  0  0  0  0  0  0  0  0  0
  -29.1909  -15.6105   20.6664 N   0  0  0  0  0  0  0  0  0  0  0  0
  -21.4327  -29.1486   22.6937 N   0  0  0  0  0  0  0  0  0  0  0  0
  -27.9593  -28.2232   21.5890 N   0  0  0  0  0  0  0  0  0  0  0  0
  -23.3826  -18.0393   22.2439 N   0  3  0  0  0  0  0  0  0  0  0  0
  -25.6410  -19.7069   19.6613 N   0  3  1  0  0  0  0  0  0  0  0  0
  -29.8239  -25.1810   21.0091 N   0  3  0  0  0  0  0  0  0  0  0  0
  -22.5347  -11.6494   17.5259 O   0  0  0  0  0  0  0  0  0  0  0  0
  -22.8415  -29.1343   20.8396 O   0  0  0  0  0  0  0  0  0  0  0  0
  -25.8458  -30.1166   22.8900 O   0  0  0  0  0  0  0  0  0  0  0  0
  -28.5446  -27.2356   19.5743 O   0  0  0  0  0  0  0  0  0  0  0  0
  -31.4229  -15.0525   20.3695 O   0  0  0  0  0  0  0  0  0  0  0  0
  -21.4645   -8.6289   23.5821 O   0  0  0  0  0  0  0  0  0  0  0  0
  -23.2788  -22.6257   19.8640 O   0  0  0  0  0  0  0  0  0  1  0  0
  -20.6124   -3.1839   23.4114 F   0  0  0  0  0  0  0  0  0  0  0  0
  -20.3825   -7.4324   21.3370 F   0  0  0  0  0  0  0  0  0  0  0  0
  1  2  1  0  0  0  0
  1  6  2  0  0  0  0
  2  7  2  0  0  0  0
  3  9  2  0  0  0  0
  3 10  1  0  0  0  0
  4 11  2  0  0  0  0
  4 18  1  0  0  0  0
  5 12  1  0  0  0  0
  5 18  2  0  0  0  0
  6 20  1  0  0  0  0
  7 22  1  0  0  0  0
  8 13  2  0  0  0  0
  8 21  1  0  0  0  0
  9 24  1  0  0  0  0
 10 26  2  0  0  0  0
 11 27  1  0  0  0  0
 12 27  2  0  0  0  0
 13 28  1  0  0  0  0
 14 15  2  0  0  0  0
 14 29  1  0  0  0  0
 15 30  1  0  0  0  0
 16 23  1  0  0  0  0
 16 28  2  0  0  0  0
 17 30  2  0  0  0  0
 17 31  1  0  0  0  0
 18 32  1  0  0  0  0
 19 32  1  0  0  0  0
 19 33  2  0  0  0  0
 19 37  1  0  0  0  0
 20 22  2  0  0  0  0
 20 43  1  0  0  0  0
 21 23  2  0  0  0  0
 21 44  1  0  0  0  0
 22 55  1  0  0  0  0
 23 45  1  0  0  0  0
 24 25  2  0  0  0  0
 24 66  1  0  0  0  0
 25 26  1  0  0  0  0
 25 59  1  0  0  0  0
 26 77  1  0  0  0  0
 27 88  1  0  0  0  0
 28 89  1  0  0  0  0
 29 31  2  0  0  0  0
 29 88  1  0  0  0  0
 30 90  1  0  0  0  0
 31 91  1  0  0  0  0
 32 70  2  0  0  0  0
 33 72  1  0  0  0  0
 33 75  1  0  0  0  0
 34 35  2  0  0  0  0
 34 56  1  0  0  0  0
 34 81  1  0  0  0  0
 35 38  1  0  0  0  0
 36 60  1  0  0  0  0
 36 71  2  0  0  0  0
 37 76  1  0  0  0  0
 37 83  2  0  0  0  0
 38 71  1  0  0  0  0
 38 80  2  0  0  0  0
 39 57  1  0  0  0  0
 39 78  1  0  0  0  0
 39 84  2  0  0  0  0
 40 67  1  0  0  0  0
 40 73  1  0  0  0  0
 40 85  2  0  0  0  0
 41 68  1  0  0  0  0
 41 79  1  0  0  0  0
 41 86  2  0  0  0  0
 42 74  1  0  0  0  0
 42 77  1  0  0  0  0
 42 87  2  0  0  0  0
 43 46  1  0  0  0  0
 44 57  1  0  0  0  0
 45 73  1  0  0  0  0
 46 49  1  0  0  0  0
 47 51  1  0  0  0  0
 47 52  1  0  0  0  0
 48 50  1  0  0  0  0
 48 54  1  0  0  0  0
 49 55  1  0  0  0  0
 50 56  1  0  0  0  0
 51 58  1  0  0  0  0
 52 74  1  0  0  0  0
 53 58  1  0  0  0  0
 53 74  1  0  0  0  0
 54 81  1  0  0  0  0
 55 78  1  0  0  0  0
 56 89  1  0  0  0  0
 57 73  1  0  0  0  0
 58 72  1  0  0  0  0
 61 68  1  0  0  0  0
 62 69  1  0  0  0  0
 63 69  1  0  0  0  0
 64 69  1  0  0  0  0
 65 82  1  0  0  0  0
 66 81  1  0  0  0  0
 67 69  1  0  0  0  0
 67 79  1  0  0  0  0
 68 82  1  0  0  0  0
 70 72  1  0  0  0  0
M  CHG  3  80   1  81   1  82   1
M  ISO  4  42 100  56 101  77 100  89 101
M  END
> <Batch ID>
0047

> <Smiles>
C=CNC(=N)C=C1N(Cc2cccc([100NH:0][100C:0](=O)N3CCCC(n4nc(-c5ccc(Oc6ccc(F)cc6F)cc5)c(C(N)=O)c4N)C3)c2C)CCC[101CH:1]1[101O:1]c1ccc2c(c1)CN(C(=O)C(NC(=O)C(C)NC)C(C)(C)C)C(C(=O)NC1CCCc3ccccc31)C2

> <Shape>
0.286

> <Color>
0.094

> <Negative vol penalty>
0.000

$$$$

  -OEChem-04042322263D

 84 92  0     1  0  0  0  0  0999 V2000
  -23.6953  -11.6771   24.0652 C   0  0  0  0  0  0  0  0  0  0  0  0
  -23.7917  -13.0549   24.2319 C   0  0  0  0  0  0  0  0  0  0  0  0
  -29.4973  -21.4868   26.2472 C   0  0  0  0  0  0  0  0  0  0  0  0
  -24.5224  -28.7736   19.9840 C   0  0  0  0  0  0  0  0  0  0  0  0
  -24.4753  -27.8249   22.2055 C   0  0  0  0  0  0  0  0  0  0  0  0
  -28.1699  -21.4067   26.6679 C   0  0  0  0  0  0  0  0  0  0  0  0
  -24.1313  -11.0874   22.8794 C   0  0  0  0  0  0  0  0  0  0  0  0
  -24.3252  -13.8437   23.2132 C   0  0  0  0  0  0  0  0  0  0  0  0
  -21.5974  -18.0246   22.3625 C   0  0  0  0  0  0  0  0  0  0  0  0
  -29.8265  -21.2086   24.9205 C   0  0  0  0  0  0  0  0  0  0  0  0
  -23.1979  -29.1854   20.1317 C   0  0  0  0  0  0  0  0  0  0  0  0
  -23.1508  -28.2368   22.3533 C   0  0  0  0  0  0  0  0  0  0  0  0
  -21.7582  -19.0826   23.2561 C   0  0  0  0  0  0  0  0  0  0  0  0
  -20.0922  -27.1955   21.3574 C   0  0  0  0  0  0  0  0  0  0  0  0
  -19.1861  -26.2825   21.8969 C   0  0  0  0  0  0  0  0  0  0  0  0
  -23.2340  -20.1730   21.6901 C   0  0  0  0  0  0  0  0  0  0  0  0
  -18.7361  -27.8053   23.7179 C   0  0  0  0  0  0  0  0  0  0  0  0
  -25.1610  -28.0933   21.0209 C   0  0  0  0  0  0  0  0  0  0  0  0
  -27.1716  -21.0483   25.7620 C   0  0  0  0  0  0  0  0  0  0  0  0
  -27.6878  -28.3931   21.2034 C   0  0  0  0  0  0  0  0  0  0  0  0
  -24.6615  -11.8704   21.8419 C   0  0  0  0  0  0  0  0  0  0  0  0
  -22.2634  -18.0277   21.1284 C   0  0  0  0  0  0  0  0  0  0  0  0
  -24.7700  -13.2637   22.0130 C   0  0  0  0  0  0  0  0  0  0  0  0
  -23.0779  -19.1151   20.7815 C   0  0  0  0  0  0  0  0  0  0  0  0
  -28.8283  -20.8502   24.0147 C   0  0  0  0  0  0  0  0  0  0  0  0
  -27.5008  -20.7701   24.4354 C   0  0  0  0  0  0  0  0  0  0  0  0
  -22.5121  -28.9170   21.3164 C   0  0  0  0  0  0  0  0  0  0  0  0
  -22.5789  -20.1557   22.9212 C   0  0  0  0  0  0  0  0  0  0  0  0
  -20.3204  -28.4133   21.9982 C   0  0  0  0  0  0  0  0  0  0  0  0
  -18.5080  -26.5874   23.0771 C   0  0  0  0  0  0  0  0  0  0  0  0
  -19.6423  -28.7182   23.1784 C   0  0  0  0  0  0  0  0  0  0  0  0
  -26.5290  -27.6672   20.8687 C   0  0  0  0  0  0  0  0  0  0  0  0
  -28.7251  -27.5571   20.8694 C   0  0  0  0  0  0  0  0  0  0  0  0
  -25.7668  -20.9728   26.2396 C   0  0  0  0  0  0  0  0  0  0  0  0
  -27.8151  -29.7057   21.7662 C   0  0  0  0  0  0  0  0  0  0  0  0
  -24.4355  -16.1630   19.7470 C   0  0  0  0  0  0  0  0  0  0  0  0
  -23.8876  -18.0814   17.1893 C   0  0  0  0  0  0  0  0  0  0  0  0
  -22.8235  -21.1011   16.0077 C   0  0  0  0  0  0  0  0  0  0  0  0
  -29.1626  -21.6082   20.3504 C   0  0  0  0  0  0  0  0  0  0  0  0
  -25.1634  -11.1825   20.5971 C   0  0  0  0  0  0  0  0  0  0  0  0
  -22.0583  -16.8915   20.1644 C   0  0  0  0  0  0  0  0  0  0  0  0
  -23.7990  -19.1762   19.4606 C   0  0  0  0  0  0  0  0  0  0  0  0
  -25.3703  -12.1306   19.4187 C   0  0  0  0  0  0  0  0  0  0  0  0
  -29.8683  -24.0337   17.8413 C   0  0  0  0  0  0  0  0  0  0  0  0
  -26.1192  -13.3821   19.8656 C   0  0  0  0  0  0  0  0  0  0  0  0
  -29.1971  -25.3054   18.3629 C   0  0  0  0  0  0  0  0  0  0  0  0
  -29.0516  -22.7871   18.1746 C   0  0  0  0  0  0  0  0  0  0  0  0
  -28.0379  -23.9059   20.1225 C   0  0  0  0  0  0  0  0  0  0  0  0
  -25.3201  -14.1557   20.9213 C   0  0  1  0  0  0  0  0  0  0  0  0
  -23.1904  -16.7562   19.1507 C   0  0  1  0  0  0  0  0  0  0  0  0
  -28.8523  -25.1841   19.8594 C   0  0  2  0  0  0  0  0  0  0  0  0
  -26.4323  -20.3857   23.4607 C   0  0  0  0  0  0  0  0  0  0  0  0
  -22.5276  -22.3882   13.8739 C   0  0  0  0  0  0  0  0  0  0  0  0
  -26.8967  -18.5725   17.0710 C   0  0  0  0  0  0  0  0  0  0  0  0
  -26.4468  -20.5421   15.5923 C   0  0  0  0  0  0  0  0  0  0  0  0
  -25.8039  -18.2507   14.8446 C   0  0  0  0  0  0  0  0  0  0  0  0
  -19.9031  -21.3430   16.4227 C   0  0  0  0  0  0  0  0  0  0  0  0
  -29.2070  -20.5593   22.5992 C   0  0  0  0  0  0  0  0  0  0  0  0
  -23.4714  -21.8769   25.9759 C   0  0  0  0  0  0  0  0  0  0  0  0
  -22.6352  -20.8885   25.1830 C   0  0  0  0  0  0  0  0  0  1  0  0
  -24.4744  -19.3749   16.6778 C   0  0  1  0  0  0  0  0  0  0  0  0
  -21.8680  -21.4636   14.8852 C   0  0  2  0  0  0  0  0  0  0  0  0
  -25.8935  -19.1833   16.0722 C   0  0  0  0  0  0  0  0  0  0  0  0
  -26.8038  -26.4628   20.3607 N   0  0  0  0  0  0  0  0  0  0  0  0
  -28.1471  -26.4255   20.3738 N   0  0  0  0  0  0  0  0  0  0  0  0
  -23.5715  -18.0383   18.5546 N   0  0  0  0  0  0  0  0  0  0  0  0
  -28.7598  -22.7311   19.6090 N   0  0  0  0  0  0  0  0  0  0  0  0
  -30.0662  -27.6870   20.9541 N   0  0  0  0  0  0  0  0  0  0  0  0
  -26.6475  -30.4276   22.0489 N   0  0  0  0  0  0  0  0  0  0  0  0
  -24.8614  -21.8169   25.6090 N   0  0  0  0  0  0  0  0  0  0  0  0
  -24.2534  -14.9083   20.2966 N   0  0  0  0  0  0  0  0  0  0  0  0
  -23.4966  -19.9265   15.7461 N   0  0  0  0  0  0  0  0  0  0  0  0
  -28.8524  -21.6385   21.7045 N   0  0  0  0  0  0  0  0  0  0  0  0
  -20.6625  -22.1484   15.4319 N   0  3  0  0  0  0  0  0  0  0  0  0
  -25.4852  -20.2053   27.1562 O   0  0  0  0  0  0  0  0  0  0  0  0
  -28.9315  -30.2295   21.9958 O   0  0  0  0  0  0  0  0  0  0  0  0
  -25.4841  -16.7961   19.7097 O   0  0  0  0  0  0  0  0  0  0  0  0
  -23.7094  -17.1463   16.4048 O   0  0  0  0  0  0  0  0  0  0  0  0
  -22.9618  -21.7928   17.0142 O   0  0  0  0  0  0  0  0  0  0  0  0
  -29.7595  -20.6519   19.8442 O   0  0  0  0  0  0  0  0  0  0  0  0
  -21.2198  -29.3189   21.4610 O   0  0  0  0  0  0  0  0  0  0  0  0
  -22.7381  -21.1893   23.7919 O   0  0  0  0  0  0  0  0  0  1  0  0
  -17.6366  -25.7113   23.5942 F   0  0  0  0  0  0  0  0  0  0  0  0
  -19.8565  -29.8870   23.7979 F   0  0  0  0  0  0  0  0  0  0  0  0
  1  2  1  0  0  0  0
  1  7  2  0  0  0  0
  2  8  2  0  0  0  0
  3  6  2  0  0  0  0
  3 10  1  0  0  0  0
  4 11  2  0  0  0  0
  4 18  1  0  0  0  0
  5 12  1  0  0  0  0
  5 18  2  0  0  0  0
  6 19  1  0  0  0  0
  7 21  1  0  0  0  0
  8 23  1  0  0  0  0
  9 13  2  0  0  0  0
  9 22  1  0  0  0  0
 10 25  2  0  0  0  0
 11 27  1  0  0  0  0
 12 27  2  0  0  0  0
 13 28  1  0  0  0  0
 14 15  2  0  0  0  0
 14 29  1  0  0  0  0
 15 30  1  0  0  0  0
 16 24  1  0  0  0  0
 16 28  2  0  0  0  0
 17 30  2  0  0  0  0
 17 31  1  0  0  0  0
 18 32  1  0  0  0  0
 19 26  2  0  0  0  0
 19 34  1  0  0  0  0
 20 32  1  0  0  0  0
 20 33  2  0  0  0  0
 20 35  1  0  0  0  0
 21 23  2  0  0  0  0
 21 40  1  0  0  0  0
 22 24  2  0  0  0  0
 22 41  1  0  0  0  0
 23 49  1  0  0  0  0
 24 42  1  0  0  0  0
 25 26  1  0  0  0  0
 25 58  1  0  0  0  0
 26 52  1  0  0  0  0
 27 81  1  0  0  0  0
 28 82  1  0  0  0  0
 29 31  2  0  0  0  0
 29 81  1  0  0  0  0
 30 83  1  0  0  0  0
 31 84  1  0  0  0  0
 32 64  2  0  0  0  0
 33 65  1  0  0  0  0
 33 68  1  0  0  0  0
 34 70  1  0  0  0  0
 34 75  2  0  0  0  0
 35 69  1  0  0  0  0
 35 76  2  0  0  0  0
 36 50  1  0  0  0  0
 36 71  1  0  0  0  0
 36 77  2  0  0  0  0
 37 61  1  0  0  0  0
 37 66  1  0  0  0  0
 37 78  2  0  0  0  0
 38 62  1  0  0  0  0
 38 72  1  0  0  0  0
 38 79  2  0  0  0  0
 39 67  1  0  0  0  0
 39 73  1  0  0  0  0
 39 80  2  0  0  0  0
 40 43  1  0  0  0  0
 41 50  1  0  0  0  0
 42 66  1  0  0  0  0
 43 45  1  0  0  0  0
 44 46  1  0  0  0  0
 44 47  1  0  0  0  0
 45 49  1  0  0  0  0
 46 51  1  0  0  0  0
 47 67  1  0  0  0  0
 48 51  1  0  0  0  0
 48 67  1  0  0  0  0
 49 71  1  0  0  0  0
 50 66  1  0  0  0  0
 51 65  1  0  0  0  0
 53 62  1  0  0  0  0
 54 63  1  0  0  0  0
 55 63  1  0  0  0  0
 56 63  1  0  0  0  0
 57 74  1  0  0  0  0
 58 73  1  0  0  0  0
 59 60  1  0  0  0  0
 59 70  1  0  0  0  0
 60 82  1  0  0  0  0
 61 63  1  0  0  0  0
 61 72  1  0  0  0  0
 62 74  1  0  0  0  0
 64 65  1  0  0  0  0
M  CHG  1  74   1
M  ISO  4  39 100  60 101  73 100  82 101
M  END
> <Batch ID>
0047

> <Smiles>
CNC(C)C(=O)NC(C(=O)N1Cc2cc([101O:1][101CH2:1]CNC(=O)c3cccc(C[100NH:0][100C:0](=O)N4CCCC(n5nc(-c6ccc(Oc7ccc(F)cc7F)cc6)c(C(N)=O)c5N)C4)c3C)ccc2CC1C(=O)NC1CCCc2ccccc21)C(C)(C)C

> <Shape>
0.196

> <Color>
0.060

> <Negative vol penalty>
0.000

$$$$

  -OEChem-04042322263D

 87 96  0     1  0  0  0  0  0999 V2000
  -17.7809  -25.6217   22.5724 C   0  0  0  0  0  0  0  0  0  0  0  0
  -19.0968  -25.1849   22.4588 C   0  0  0  0  0  0  0  0  0  0  0  0
  -25.8938  -15.7648   22.1157 C   0  0  0  0  0  0  0  0  0  0  0  0
  -23.5919  -15.4533   21.4514 C   0  0  0  0  0  0  0  0  0  0  0  0
  -17.4546  -26.9387   22.2514 C   0  0  0  0  0  0  0  0  0  0  0  0
  -20.0872  -26.0645   22.0232 C   0  0  0  0  0  0  0  0  0  0  0  0
  -25.9330  -26.2196   23.8419 C   0  0  0  0  0  0  0  0  0  0  0  0
  -26.6244  -24.8887   16.3087 C   0  0  0  0  0  0  0  0  0  0  0  0
  -25.6739  -24.3921   17.2006 C   0  0  0  0  0  0  0  0  0  0  0  0
  -26.1946  -14.4749   21.6783 C   0  0  0  0  0  0  0  0  0  0  0  0
  -23.8927  -14.1634   21.0139 C   0  0  0  0  0  0  0  0  0  0  0  0
  -27.1039  -25.7122   23.2802 C   0  0  0  0  0  0  0  0  0  0  0  0
  -24.3766  -11.1146   22.3928 C   0  0  0  0  0  0  0  0  0  0  0  0
  -23.4984  -10.0897   22.7447 C   0  0  0  0  0  0  0  0  0  0  0  0
  -27.5480  -27.8617   22.2793 C   0  0  0  0  0  0  0  0  0  0  0  0
  -27.4297  -23.3469   18.4897 C   0  0  0  0  0  0  0  0  0  0  0  0
  -23.0959   -9.6319   20.4068 C   0  0  0  0  0  0  0  0  0  0  0  0
  -24.5924  -16.2540   22.0023 C   0  0  0  0  0  0  0  0  0  0  0  0
  -24.4238  -18.0963   23.7588 C   0  0  0  0  0  0  0  0  0  0  0  0
  -18.4432  -27.8376   21.8208 C   0  0  0  0  0  0  0  0  0  0  0  0
  -25.5546  -27.5510   23.6171 C   0  0  0  0  0  0  0  0  0  0  0  0
  -19.7736  -27.3944   21.6948 C   0  0  0  0  0  0  0  0  0  0  0  0
  -26.3732  -28.3842   22.8414 C   0  0  0  0  0  0  0  0  0  0  0  0
  -27.9776  -24.6144   16.5072 C   0  0  0  0  0  0  0  0  0  0  0  0
  -28.3802  -23.8435   17.5978 C   0  0  0  0  0  0  0  0  0  0  0  0
  -26.0766  -23.6212   18.2911 C   0  0  0  0  0  0  0  0  0  0  0  0
  -25.1941  -13.6743   21.1274 C   0  0  0  0  0  0  0  0  0  0  0  0
  -27.9101  -26.5325   22.4964 C   0  0  0  0  0  0  0  0  0  0  0  0
  -24.6145  -11.3983   21.0479 C   0  0  0  0  0  0  0  0  0  0  0  0
  -22.8581   -9.3483   21.7517 C   0  0  0  0  0  0  0  0  0  0  0  0
  -23.9742  -10.6569   20.0550 C   0  0  0  0  0  0  0  0  0  0  0  0
  -24.2810  -17.5862   22.4545 C   0  0  0  0  0  0  0  0  0  0  0  0
  -23.9959  -19.3982   23.6670 C   0  0  0  0  0  0  0  0  0  0  0  0
  -30.4743  -24.5119   20.0003 C   0  0  0  0  0  0  0  0  0  0  0  0
  -24.9007  -17.4510   24.9470 C   0  0  0  0  0  0  0  0  0  0  0  0
  -23.0691  -28.9745   22.2387 C   0  0  0  0  0  0  0  0  0  0  0  0
  -24.4830  -31.6676   23.3659 C   0  0  0  0  0  0  0  0  0  0  0  0
  -27.3367  -33.2240   24.4053 C   0  0  0  0  0  0  0  0  0  0  0  0
  -23.7297  -23.2988   19.1482 C   0  0  0  0  0  0  0  0  0  0  0  0
  -18.0343  -29.2385   21.4399 C   0  0  0  0  0  0  0  0  0  0  0  0
  -24.3024  -28.0906   24.2522 C   0  0  0  0  0  0  0  0  0  0  0  0
  -26.0220  -29.8265   22.5866 C   0  0  0  0  0  0  0  0  0  0  0  0
  -19.2073  -30.2106   21.3443 C   0  0  0  0  0  0  0  0  0  0  0  0
  -30.2993  -21.8481   21.2228 C   0  0  0  0  0  0  0  0  0  0  0  0
  -21.0151  -22.1931   21.1695 C   0  0  0  0  0  0  0  0  0  0  0  0
  -20.3542  -29.5874   20.5549 C   0  0  0  0  0  0  0  0  0  0  0  0
  -31.1624  -22.9161   21.8659 C   0  0  0  0  0  0  0  0  0  0  0  0
  -21.5596  -20.9361   21.8518 C   0  0  0  0  0  0  0  0  0  0  0  0
  -30.3223  -22.0136   19.7154 C   0  0  0  0  0  0  0  0  0  0  0  0
  -21.5205  -22.3233   19.7337 C   0  0  0  0  0  0  0  0  0  0  0  0
  -23.5234  -20.9895   20.2619 C   0  0  0  0  0  0  0  0  0  0  0  0
  -20.8803  -28.3255   21.2495 C   0  0  1  0  0  0  0  0  0  0  0  0
  -30.6689  -24.3114   21.4992 C   0  0  2  0  0  0  0  0  0  0  0  0
  -23.7491  -29.3175   23.5340 C   0  0  1  0  0  0  0  0  0  0  0  0
  -23.0937  -20.8492   21.7313 C   0  0  2  0  0  0  0  0  0  0  0  0
  -28.9767  -25.1563   15.5384 C   0  0  0  0  0  0  0  0  0  0  0  0
  -28.1851  -35.4371   25.2299 C   0  0  0  0  0  0  0  0  0  0  0  0
  -24.3637  -32.7698   20.5232 C   0  0  0  0  0  0  0  0  0  0  0  0
  -26.0322  -34.5087   21.2019 C   0  0  0  0  0  0  0  0  0  0  0  0
  -23.7983  -34.4267   22.3091 C   0  0  0  0  0  0  0  0  0  0  0  0
  -28.2045  -32.0613   26.9848 C   0  0  0  0  0  0  0  0  0  0  0  0
  -29.8311  -23.5372   17.8328 C   0  0  0  0  0  0  0  0  0  0  0  0
  -29.3656  -24.6731   22.2136 C   0  0  0  0  0  0  0  0  0  1  0  0
  -25.5081  -32.6398   22.8339 C   0  0  1  0  0  0  0  0  0  0  0  0
  -27.6315  -34.0771   25.6258 C   0  0  2  0  0  0  0  0  0  0  0  0
  -24.9315  -33.5586   21.7201 C   0  0  0  0  0  0  0  0  0  0  0  0
  -23.7998  -18.4902   21.5970 N   0  0  0  0  0  0  0  0  0  0  0  0
  -23.6364  -19.5815   22.3642 N   0  0  0  0  0  0  0  0  0  0  0  0
  -30.1340  -23.3870   19.2499 N   0  0  0  0  0  0  0  0  0  0  0  0
  -24.7844  -30.3057   23.2240 N   0  0  0  0  0  0  0  0  0  0  0  0
  -22.9820  -22.2361   19.6980 N   0  0  0  0  0  0  0  0  0  0  0  0
  -23.8957  -20.3926   24.5745 N   0  0  0  0  0  0  0  0  0  0  0  0
  -25.3005  -16.1103   24.8646 N   0  0  0  0  0  0  0  0  0  0  0  0
  -25.1115  -23.1182   19.1985 N   0  0  0  0  0  0  0  0  0  0  0  0
  -21.7254  -28.6802   22.3695 N   0  0  0  0  0  0  0  0  0  0  0  0
  -26.0282  -33.3588   23.9919 N   0  0  0  0  0  0  0  0  0  0  0  0
  -28.6292  -33.4005   26.5020 N   0  3  0  0  0  0  0  0  0  0  0  0
  -30.5388  -25.6545   19.5362 O   0  0  0  0  0  0  0  0  0  0  0  0
  -24.9548  -18.0410   26.0527 O   0  0  0  0  0  0  0  0  0  0  0  0
  -23.7154  -28.9780   21.1976 O   0  0  0  0  0  0  0  0  0  0  0  0
  -23.4560  -32.1007   23.8944 O   0  0  0  0  0  0  0  0  0  0  0  0
  -28.1836  -32.5124   23.8697 O   0  0  0  0  0  0  0  0  0  0  0  0
  -23.1852  -24.3079   18.6929 O   0  0  0  0  0  0  0  0  0  0  0  0
  -25.4873  -12.4156   20.7002 O   0  0  0  0  0  0  0  0  0  0  0  0
  -29.0531  -26.0396   21.9464 O   0  0  0  0  0  0  0  0  0  1  0  0
  -22.0159   -8.3631   22.0897 F   0  0  0  0  0  0  0  0  0  0  0  0
  -24.1996  -10.9240   18.7613 F   0  0  0  0  0  0  0  0  0  0  0  0
  1  2  1  0  0  0  0
  1  5  2  0  0  0  0
  2  6  2  0  0  0  0
  3 10  2  0  0  0  0
  3 18  1  0  0  0  0
  4 11  1  0  0  0  0
  4 18  2  0  0  0  0
  5 20  1  0  0  0  0
  6 22  1  0  0  0  0
  7 12  2  0  0  0  0
  7 21  1  0  0  0  0
  8  9  2  0  0  0  0
  8 24  1  0  0  0  0
  9 26  1  0  0  0  0
 10 27  1  0  0  0  0
 11 27  2  0  0  0  0
 12 28  1  0  0  0  0
 13 14  2  0  0  0  0
 13 29  1  0  0  0  0
 14 30  1  0  0  0  0
 15 23  1  0  0  0  0
 15 28  2  0  0  0  0
 16 25  1  0  0  0  0
 16 26  2  0  0  0  0
 17 30  2  0  0  0  0
 17 31  1  0  0  0  0
 18 32  1  0  0  0  0
 19 32  1  0  0  0  0
 19 33  2  0  0  0  0
 19 35  1  0  0  0  0
 20 22  2  0  0  0  0
 20 40  1  0  0  0  0
 21 23  2  0  0  0  0
 21 41  1  0  0  0  0
 22 52  1  0  0  0  0
 23 42  1  0  0  0  0
 24 25  2  0  0  0  0
 24 56  1  0  0  0  0
 25 62  1  0  0  0  0
 26 74  1  0  0  0  0
 27 84  1  0  0  0  0
 28 85  1  0  0  0  0
 29 31  2  0  0  0  0
 29 84  1  0  0  0  0
 30 86  1  0  0  0  0
 31 87  1  0  0  0  0
 32 67  2  0  0  0  0
 33 68  1  0  0  0  0
 33 72  1  0  0  0  0
 34 53  1  0  0  0  0
 34 69  1  0  0  0  0
 34 78  2  0  0  0  0
 35 73  1  0  0  0  0
 35 79  2  0  0  0  0
 36 54  1  0  0  0  0
 36 75  1  0  0  0  0
 36 80  2  0  0  0  0
 37 64  1  0  0  0  0
 37 70  1  0  0  0  0
 37 81  2  0  0  0  0
 38 65  1  0  0  0  0
 38 76  1  0  0  0  0
 38 82  2  0  0  0  0
 39 71  1  0  0  0  0
 39 74  1  0  0  0  0
 39 83  2  0  0  0  0
 40 43  1  0  0  0  0
 41 54  1  0  0  0  0
 42 70  1  0  0  0  0
 43 46  1  0  0  0  0
 44 47  1  0  0  0  0
 44 49  1  0  0  0  0
 45 48  1  0  0  0  0
 45 50  1  0  0  0  0
 46 52  1  0  0  0  0
 47 53  1  0  0  0  0
 48 55  1  0  0  0  0
 49 69  1  0  0  0  0
 50 71  1  0  0  0  0
 51 55  1  0  0  0  0
 51 71  1  0  0  0  0
 52 75  1  0  0  0  0
 53 63  1  0  0  0  0
 54 70  1  0  0  0  0
 55 68  1  0  0  0  0
 57 65  1  0  0  0  0
 58 66  1  0  0  0  0
 59 66  1  0  0  0  0
 60 66  1  0  0  0  0
 61 77  1  0  0  0  0
 62 69  1  0  0  0  0
 63 85  1  0  0  0  0
 64 66  1  0  0  0  0
 64 76  1  0  0  0  0
 65 77  1  0  0  0  0
 67 68  1  0  0  0  0
M  CHG  1  77   1
M  ISO  4  39 100  63 101  74 100  85 101
M  END
> <Batch ID>
0047

> <Smiles>
CNC(C)C(=O)NC(C(=O)N1Cc2cc([101O:1][101CH2:1]C3CCCN(Cc4cc([100NH:0][100C:0](=O)N5CCCC(n6nc(-c7ccc(Oc8ccc(F)cc8F)cc7)c(C(N)=O)c6N)C5)ccc4C)C3=O)ccc2CC1C(=O)NC1CCCc2ccccc21)C(C)(C)C

> <Shape>
0.218

> <Color>
0.075

> <Negative vol penalty>
0.000

$$$$

  -OEChem-04042322263D

 89 98  0     1  0  0  0  0  0999 V2000
  -24.8267  -30.8514   20.2058 C   0  0  0  0  0  0  0  0  0  0  0  0
  -24.2538  -29.6712   19.7453 C   0  0  0  0  0  0  0  0  0  0  0  0
  -29.1249  -21.4025   20.3781 C   0  0  0  0  0  0  0  0  0  0  0  0
  -30.8748  -20.8401   18.8101 C   0  0  0  0  0  0  0  0  0  0  0  0
  -25.4986  -30.8656   21.4263 C   0  0  0  0  0  0  0  0  0  0  0  0
  -24.3424  -28.5079   20.5106 C   0  0  0  0  0  0  0  0  0  0  0  0
  -23.0609  -21.4536   20.5748 C   0  0  0  0  0  0  0  0  0  0  0  0
  -28.8568  -22.5683   19.6607 C   0  0  0  0  0  0  0  0  0  0  0  0
  -30.6066  -22.0059   18.0926 C   0  0  0  0  0  0  0  0  0  0  0  0
  -23.6403  -20.1942   20.7230 C   0  0  0  0  0  0  0  0  0  0  0  0
  -30.1855  -25.6602   19.3464 C   0  0  0  0  0  0  0  0  0  0  0  0
  -30.0078  -26.8393   20.0702 C   0  0  0  0  0  0  0  0  0  0  0  0
  -23.7003  -20.5098   23.1138 C   0  0  0  0  0  0  0  0  0  0  0  0
  -25.0927  -13.7987   21.0677 C   0  0  0  0  0  0  0  0  0  0  0  0
  -27.7757  -27.0547   19.1712 C   0  0  0  0  0  0  0  0  0  0  0  0
  -24.8479  -11.1040   20.7146 C   0  0  0  0  0  0  0  0  0  0  0  0
  -30.1340  -20.5384   19.9528 C   0  0  0  0  0  0  0  0  0  0  0  0
  -30.8131  -19.2379   22.0397 C   0  0  0  0  0  0  0  0  0  0  0  0
  -25.6058  -29.6984   22.2004 C   0  0  0  0  0  0  0  0  0  0  0  0
  -22.8064  -22.2564   21.6960 C   0  0  0  0  0  0  0  0  0  0  0  0
  -24.9958  -28.5076   21.7563 C   0  0  0  0  0  0  0  0  0  0  0  0
  -23.1152  -21.7779   22.9773 C   0  0  0  0  0  0  0  0  0  0  0  0
  -23.8953  -13.1735   21.3975 C   0  0  0  0  0  0  0  0  0  0  0  0
  -23.7624  -11.8008   21.2206 C   0  0  0  0  0  0  0  0  0  0  0  0
  -29.5976  -22.8700   18.5180 C   0  0  0  0  0  0  0  0  0  0  0  0
  -23.9627  -19.7233   21.9924 C   0  0  0  0  0  0  0  0  0  0  0  0
  -29.1584  -25.1785   18.5349 C   0  0  0  0  0  0  0  0  0  0  0  0
  -28.8029  -27.5365   19.9826 C   0  0  0  0  0  0  0  0  0  0  0  0
  -27.9534  -25.8757   18.4473 C   0  0  0  0  0  0  0  0  0  0  0  0
  -30.4118  -19.3343   20.6937 C   0  0  0  0  0  0  0  0  0  0  0  0
  -26.1187  -13.0124   20.5688 C   0  0  0  0  0  0  0  0  0  0  0  0
  -30.9454  -17.8891   22.2627 C   0  0  0  0  0  0  0  0  0  0  0  0
  -23.4211  -16.3693   22.0420 C   0  0  0  0  0  0  0  0  0  0  0  0
  -31.0453  -20.2748   23.0023 C   0  0  0  0  0  0  0  0  0  0  0  0
  -23.8093  -25.1042   22.6900 C   0  0  0  0  0  0  0  0  0  0  0  0
  -21.6010  -24.6355   25.0193 C   0  0  0  0  0  0  0  0  0  0  0  0
  -20.5060  -21.8968   27.0973 C   0  0  0  0  0  0  0  0  0  0  0  0
  -28.4901  -13.0709   19.7206 C   0  0  0  0  0  0  0  0  0  0  0  0
  -26.3376  -29.7722   23.5173 C   0  0  0  0  0  0  0  0  0  0  0  0
  -22.1564  -23.6015   21.5213 C   0  0  0  0  0  0  0  0  0  0  0  0
  -22.8435  -22.5924   24.2147 C   0  0  0  0  0  0  0  0  0  0  0  0
  -26.7602  -28.4031   24.0400 C   0  0  0  0  0  0  0  0  0  0  0  0
  -23.9702  -16.0895   24.9069 C   0  0  0  0  0  0  0  0  0  0  0  0
  -31.9649  -13.7997   19.9885 C   0  0  0  0  0  0  0  0  0  0  0  0
  -25.5799  -27.4440   23.9991 C   0  0  0  0  0  0  0  0  0  0  0  0
  -24.6852  -17.1560   24.1041 C   0  0  0  0  0  0  0  0  0  0  0  0
  -31.9973  -15.2916   20.3283 C   0  0  0  0  0  0  0  0  0  0  0  0
  -23.7435  -14.8639   24.0400 C   0  0  0  0  0  0  0  0  0  0  0  0
  -30.8390  -13.4648   19.0118 C   0  0  0  0  0  0  0  0  0  0  0  0
  -29.5385  -15.4194   19.7584 C   0  0  0  0  0  0  0  0  0  0  0  0
  -25.1058  -27.2227   22.5571 C   0  0  1  0  0  0  0  0  0  0  0  0
  -23.8206  -17.5472   22.9218 C   0  0  1  0  0  0  0  0  0  1  0  0
  -22.4142  -24.5461   22.6912 C   0  0  1  0  0  0  0  0  0  0  0  0
  -30.6153  -15.7947   20.7894 C   0  0  2  0  0  0  0  0  0  0  0  0
  -18.2871  -21.4600   28.1851 C   0  0  0  0  0  0  0  0  0  0  0  0
  -22.4929  -10.5886   23.0032 C   0  0  0  0  0  0  0  0  0  0  0  0
  -22.8444  -26.0115   27.4423 C   0  0  0  0  0  0  0  0  0  0  0  0
  -21.6698  -24.3500   28.9011 C   0  0  0  0  0  0  0  0  0  0  0  0
  -20.3458  -25.9065   27.4703 C   0  0  0  0  0  0  0  0  0  0  0  0
  -20.2760  -19.2343   25.8257 C   0  0  0  0  0  0  0  0  0  0  0  0
  -22.7636  -13.9966   21.9415 C   0  0  0  0  0  0  0  0  0  0  0  0
  -21.6105  -24.0025   26.3898 C   0  0  1  0  0  0  0  0  0  0  0  0
  -19.1869  -21.1520   26.9984 C   0  0  2  0  0  0  0  0  0  0  0  0
  -22.5025  -11.0812   21.5573 C   0  0  0  0  0  0  0  0  0  0  0  0
  -21.6353  -25.0589   27.5303 C   0  0  0  0  0  0  0  0  0  0  0  0
  -26.0268  -11.6765   20.3830 N   0  0  0  0  0  0  0  0  0  0  0  0
  -30.2970  -18.1418   20.1032 N   0  0  0  0  0  0  0  0  0  0  0  0
  -30.6281  -17.2832   21.0827 N   0  0  0  0  0  0  0  0  0  0  0  0
  -23.2404  -15.1486   22.6950 N   0  0  0  0  0  0  0  0  0  0  0  0
  -22.2125  -23.9037   23.9915 N   0  0  0  0  0  0  0  0  0  0  0  0
  -29.5597  -13.9682   19.5166 N   0  0  0  0  0  0  0  0  0  0  0  0
  -31.3011  -17.1741   23.3511 N   0  0  0  0  0  0  0  0  0  0  0  0
  -32.3340  -20.8164   23.1031 N   0  0  0  0  0  0  0  0  0  0  0  0
  -27.3345  -13.6587   20.2341 N   0  0  0  0  0  0  0  0  0  0  0  0
  -23.8648  -26.4802   22.5769 N   0  0  0  0  0  0  0  0  0  0  0  0
  -20.4619  -23.1040   26.4324 N   0  0  0  0  0  0  0  0  0  0  0  0
  -19.4244  -19.6813   26.9579 N   0  3  0  0  0  0  0  0  0  0  0  0
  -23.2145  -16.5437   20.8383 O   0  0  0  0  0  0  0  0  0  0  0  0
  -30.1409  -20.6967   23.7621 O   0  0  0  0  0  0  0  0  0  0  0  0
  -24.7647  -24.3427   22.7860 O   0  0  0  0  0  0  0  0  0  0  0  0
  -21.0643  -25.7354   24.8649 O   0  0  0  0  0  0  0  0  0  0  0  0
  -21.4770  -21.4539   27.7068 O   0  0  0  0  0  0  0  0  0  0  0  0
  -28.6006  -11.8651   19.4846 O   0  0  0  0  0  0  0  0  0  0  0  0
  -29.3361  -24.0073   17.8176 O   0  0  0  0  0  0  0  0  0  0  0  0
  -24.5290  -18.4946   22.1398 O   0  0  0  0  0  0  0  0  0  1  0  0
  -28.6318  -28.6679   20.6790 F   0  0  0  0  0  0  0  0  0  0  0  0
  -26.9626  -25.4172   17.6703 F   0  0  0  0  0  0  0  0  0  0  0  0
  -22.2787   -9.9861   20.7609 F   0  0  0  0  0  0  0  0  0  0  0  0
  -21.3804  -11.8540   21.3911 F   0  0  0  0  0  0  0  0  0  0  0  0
  1  2  1  0  0  0  0
  1  5  2  0  0  0  0
  2  6  2  0  0  0  0
  3  8  2  0  0  0  0
  3 17  1  0  0  0  0
  4  9  1  0  0  0  0
  4 17  2  0  0  0  0
  5 19  1  0  0  0  0
  6 21  1  0  0  0  0
  7 10  2  0  0  0  0
  7 20  1  0  0  0  0
  8 25  1  0  0  0  0
  9 25  2  0  0  0  0
 10 26  1  0  0  0  0
 11 12  2  0  0  0  0
 11 27  1  0  0  0  0
 12 28  1  0  0  0  0
 13 22  1  0  0  0  0
 13 26  2  0  0  0  0
 14 23  1  0  0  0  0
 14 31  2  0  0  0  0
 15 28  2  0  0  0  0
 15 29  1  0  0  0  0
 16 24  1  0  0  0  0
 16 66  2  0  0  0  0
 17 30  1  0  0  0  0
 18 30  1  0  0  0  0
 18 32  2  0  0  0  0
 18 34  1  0  0  0  0
 19 21  2  0  0  0  0
 19 39  1  0  0  0  0
 20 22  2  0  0  0  0
 20 40  1  0  0  0  0
 21 51  1  0  0  0  0
 22 41  1  0  0  0  0
 23 24  2  0  0  0  0
 23 61  1  0  0  0  0
 24 64  1  0  0  0  0
 25 84  1  0  0  0  0
 26 85  1  0  0  0  0
 27 29  2  0  0  0  0
 27 84  1  0  0  0  0
 28 86  1  0  0  0  0
 29 87  1  0  0  0  0
 30 67  2  0  0  0  0
 31 66  1  0  0  0  0
 31 74  1  0  0  0  0
 32 68  1  0  0  0  0
 32 72  1  0  0  0  0
 33 52  1  0  0  0  0
 33 69  1  0  0  0  0
 33 78  2  0  0  0  0
 34 73  1  0  0  0  0
 34 79  2  0  0  0  0
 35 53  1  0  0  0  0
 35 75  1  0  0  0  0
 35 80  2  0  0  0  0
 36 62  1  0  0  0  0
 36 70  1  0  0  0  0
 36 81  2  0  0  0  0
 37 63  1  0  0  0  0
 37 76  1  0  0  0  0
 37 82  2  0  0  0  0
 38 71  1  0  0  0  0
 38 74  1  0  0  0  0
 38 83  2  0  0  0  0
 39 42  1  0  0  0  0
 40 53  1  0  0  0  0
 41 70  1  0  0  0  0
 42 45  1  0  0  0  0
 43 46  1  0  0  0  0
 43 48  1  0  0  0  0
 44 47  1  0  0  0  0
 44 49  1  0  0  0  0
 45 51  1  0  0  0  0
 46 52  1  0  0  0  0
 47 54  1  0  0  0  0
 48 69  1  0  0  0  0
 49 71  1  0  0  0  0
 50 54  1  0  0  0  0
 50 71  1  0  0  0  0
 51 75  1  0  0  0  0
 52 85  1  0  0  0  0
 53 70  1  0  0  0  0
 54 68  1  0  0  0  0
 55 63  1  0  0  0  0
 56 64  1  0  0  0  0
 57 65  1  0  0  0  0
 58 65  1  0  0  0  0
 59 65  1  0  0  0  0
 60 77  1  0  0  0  0
 61 69  1  0  0  0  0
 62 65  1  0  0  0  0
 62 76  1  0  0  0  0
 63 77  1  0  0  0  0
 64 88  1  0  0  0  0
 64 89  1  0  0  0  0
 67 68  1  0  0  0  0
M  CHG  1  77   1
M  ISO  4  38 100  52 101  74 100  85 101
M  END
> <Batch ID>
0047

> <Smiles>
CNC(C)C(=O)NC(C(=O)N1Cc2cc([101O:1][101CH:1]3CCCN(Cc4cc([100NH:0][100C:0](=O)N5CCCC(n6nc(-c7ccc(Oc8ccc(F)cc8F)cc7)c(C(N)=O)c6N)C5)ncc4C(C)(F)F)C3=O)ccc2CC1C(=O)NC1CCCc2ccccc21)C(C)(C)C

> <Shape>
0.226

> <Color>
0.066

> <Negative vol penalty>
0.000

$$$$

  -OEChem-04042322263D

 87 95  0     1  0  0  0  0  0999 V2000
  -27.9657  -35.4806   24.0749 C   0  0  0  0  0  0  0  0  0  0  0  0
  -28.1810  -34.1315   23.8120 C   0  0  0  0  0  0  0  0  0  0  0  0
  -33.3258  -17.2323   22.7893 C   0  0  0  0  0  0  0  0  0  0  0  0
  -24.0721  -10.2340   23.0789 C   0  0  0  0  0  0  0  0  0  0  0  0
  -24.3543  -12.2759   24.3390 C   0  0  0  0  0  0  0  0  0  0  0  0
  -26.6808  -35.9363   24.3669 C   0  0  0  0  0  0  0  0  0  0  0  0
  -27.1116  -33.2372   23.8421 C   0  0  0  0  0  0  0  0  0  0  0  0
  -27.1442  -30.0373   19.9172 C   0  0  0  0  0  0  0  0  0  0  0  0
  -32.7005  -18.1389   23.6453 C   0  0  0  0  0  0  0  0  0  0  0  0
  -32.5586  -16.3894   21.9851 C   0  0  0  0  0  0  0  0  0  0  0  0
  -23.6267   -9.5849   24.2304 C   0  0  0  0  0  0  0  0  0  0  0  0
  -23.9089  -11.6269   25.4905 C   0  0  0  0  0  0  0  0  0  0  0  0
  -28.0332  -28.9650   19.9773 C   0  0  0  0  0  0  0  0  0  0  0  0
  -20.7751   -9.3940   26.0372 C   0  0  0  0  0  0  0  0  0  0  0  0
  -19.6436   -8.5856   25.9291 C   0  0  0  0  0  0  0  0  0  0  0  0
  -26.2311  -27.5173   20.6672 C   0  0  0  0  0  0  0  0  0  0  0  0
  -20.9378   -6.6776   26.6514 C   0  0  0  0  0  0  0  0  0  0  0  0
  -24.4359  -11.5795   23.1332 C   0  0  0  0  0  0  0  0  0  0  0  0
  -24.1132  -12.9413   21.0004 C   0  0  0  0  0  0  0  0  0  0  0  0
  -25.5935  -35.0487   24.3910 C   0  0  0  0  0  0  0  0  0  0  0  0
  -25.7918  -29.8597   20.2427 C   0  0  0  0  0  0  0  0  0  0  0  0
  -25.8111  -33.6812   24.1360 C   0  0  0  0  0  0  0  0  0  0  0  0
  -25.3265  -28.5884   20.6079 C   0  0  0  0  0  0  0  0  0  0  0  0
  -31.3081  -18.2027   23.6971 C   0  0  0  0  0  0  0  0  0  0  0  0
  -31.1662  -16.4532   22.0369 C   0  0  0  0  0  0  0  0  0  0  0  0
  -23.5451  -10.2813   25.4362 C   0  0  0  0  0  0  0  0  0  0  0  0
  -27.5774  -27.7054   20.3551 C   0  0  0  0  0  0  0  0  0  0  0  0
  -21.9880   -8.8443   26.4524 C   0  0  0  0  0  0  0  0  0  0  0  0
  -19.7249   -7.2274   26.2362 C   0  0  0  0  0  0  0  0  0  0  0  0
  -22.0693   -7.4861   26.7595 C   0  0  0  0  0  0  0  0  0  0  0  0
  -30.5409  -17.3598   22.8929 C   0  0  0  0  0  0  0  0  0  0  0  0
  -24.8966  -12.2504   21.9442 C   0  0  0  0  0  0  0  0  0  0  0  0
  -25.0163  -13.3924   20.0689 C   0  0  0  0  0  0  0  0  0  0  0  0
  -30.6267  -23.6384   22.5526 C   0  0  0  0  0  0  0  0  0  0  0  0
  -30.0624  -22.4724   22.8968 C   0  0  0  0  0  0  0  0  0  0  0  0
  -29.9126  -24.6691   21.8299 C   0  0  0  0  0  0  0  0  0  0  0  0
  -30.4706  -25.8390   21.4817 C   0  0  0  0  0  0  0  0  0  0  0  0
  -22.6960  -13.1563   20.9686 C   0  0  0  0  0  0  0  0  0  0  0  0
  -30.8502  -21.4500   23.6400 C   0  0  0  0  0  0  0  0  0  0  0  0
  -23.8461  -31.0363   22.4639 C   0  0  0  0  0  0  0  0  0  0  0  0
  -21.5932  -29.3963   20.8034 C   0  0  0  0  0  0  0  0  0  0  0  0
  -20.8568  -26.8313   18.6761 C   0  0  0  0  0  0  0  0  0  0  0  0
  -30.8544  -14.6415   20.3143 C   0  0  0  0  0  0  0  0  0  0  0  0
  -24.2306  -35.5801   24.7581 C   0  0  0  0  0  0  0  0  0  0  0  0
  -24.8403  -31.0207   20.1471 C   0  0  0  0  0  0  0  0  0  0  0  0
  -23.8802  -28.3407   20.9476 C   0  0  0  0  0  0  0  0  0  0  0  0
  -23.0902  -34.6301   24.4016 C   0  0  0  0  0  0  0  0  0  0  0  0
  -29.2651  -12.3106   18.1423 C   0  0  0  0  0  0  0  0  0  0  0  0
  -23.4201  -33.2091   24.8471 C   0  0  0  0  0  0  0  0  0  0  0  0
  -27.8909  -12.0981   18.7816 C   0  0  0  0  0  0  0  0  0  0  0  0
  -30.3599  -12.4792   19.1943 C   0  0  0  0  0  0  0  0  0  0  0  0
  -28.7236  -13.3012   20.8422 C   0  0  0  0  0  0  0  0  0  0  0  0
  -24.6726  -32.6843   24.1347 C   0  0  1  0  0  0  0  0  0  0  0  0
  -23.5869  -30.8375   20.9972 C   0  0  1  0  0  0  0  0  0  0  0  0
  -27.5784  -13.1912   19.8223 C   0  0  2  0  0  0  0  0  0  0  0  0
  -18.9228  -25.7164   17.5297 C   0  0  0  0  0  0  0  0  0  0  0  0
  -20.8106  -28.0574   23.4311 C   0  0  0  0  0  0  0  0  0  0  0  0
  -19.5861  -26.3242   22.1027 C   0  0  0  0  0  0  0  0  0  0  0  0
  -18.8824  -28.7143   21.9803 C   0  0  0  0  0  0  0  0  0  0  0  0
  -21.9472  -27.4387   15.9927 C   0  0  0  0  0  0  0  0  0  0  0  0
  -30.6384  -19.1799   24.6194 C   0  0  0  0  0  0  0  0  0  0  0  0
  -29.8018  -26.9545   20.7346 C   0  0  0  0  0  0  0  0  0  1  0  0
  -21.0319  -27.9960   20.8595 C   0  0  1  0  0  0  0  0  0  0  0  0
  -20.0068  -26.7774   17.4195 C   0  0  2  0  0  0  0  0  0  0  0  0
  -20.1055  -27.7777   22.0889 C   0  0  0  0  0  0  0  0  0  0  0  0
  -26.1972  -12.2589   21.6401 N   0  0  0  0  0  0  0  0  0  0  0  0
  -26.2380  -12.9607   20.4947 N   0  0  0  0  0  0  0  0  0  0  0  0
  -22.9901  -29.5090   20.8454 N   0  0  0  0  0  0  0  0  0  0  0  0
  -29.9971  -13.5341   20.1431 N   0  0  0  0  0  0  0  0  0  0  0  0
  -24.8765  -14.1120   18.9354 N   0  0  0  0  0  0  0  0  0  0  0  0
  -21.9161  -12.6241   22.0043 N   0  0  0  0  0  0  0  0  0  0  0  0
  -30.3895  -15.5963   21.2182 N   0  0  0  0  0  0  0  0  0  0  0  0
  -30.1017  -20.3162   23.9060 N   0  0  0  0  0  0  0  0  0  0  0  0
  -24.3532  -32.2818   22.7818 N   0  0  0  0  0  0  0  0  0  0  0  0
  -20.3828  -27.7646   19.5736 N   0  0  0  0  0  0  0  0  0  0  0  0
  -20.8537  -26.4626   16.2344 N   0  3  0  0  0  0  0  0  0  0  0  0
  -22.1359  -13.7872   20.0403 O   0  0  0  0  0  0  0  0  0  0  0  0
  -32.0200  -21.6252   23.9651 O   0  0  0  0  0  0  0  0  0  0  0  0
  -23.6026  -30.1276   23.2491 O   0  0  0  0  0  0  0  0  0  0  0  0
  -20.8209  -30.3544   20.7181 O   0  0  0  0  0  0  0  0  0  0  0  0
  -21.8405  -26.1145   18.8462 O   0  0  0  0  0  0  0  0  0  0  0  0
  -31.9094  -14.7492   19.6838 O   0  0  0  0  0  0  0  0  0  0  0  0
  -23.1103   -9.6483   26.5600 O   0  0  0  0  0  0  0  0  0  0  0  0
  -28.4431  -26.6572   20.4152 O   0  0  0  0  0  0  0  0  0  1  0  0
  -18.6379   -6.4515   26.1339 F   0  0  0  0  0  0  0  0  0  0  0  0
  -23.2315   -6.9524   27.1600 F   0  0  0  0  0  0  0  0  0  0  0  0
  -29.2017  -17.4228   22.9423 F   0  0  0  0  0  0  0  0  0  0  0  0
  1  2  1  0  0  0  0
  1  6  2  0  0  0  0
  2  7  2  0  0  0  0
  3  9  2  0  0  0  0
  3 10  1  0  0  0  0
  4 11  2  0  0  0  0
  4 18  1  0  0  0  0
  5 12  1  0  0  0  0
  5 18  2  0  0  0  0
  6 20  1  0  0  0  0
  7 22  1  0  0  0  0
  8 13  2  0  0  0  0
  8 21  1  0  0  0  0
  9 24  1  0  0  0  0
 10 25  2  0  0  0  0
 11 26  1  0  0  0  0
 12 26  2  0  0  0  0
 13 27  1  0  0  0  0
 14 15  2  0  0  0  0
 14 28  1  0  0  0  0
 15 29  1  0  0  0  0
 16 23  1  0  0  0  0
 16 27  2  0  0  0  0
 17 29  2  0  0  0  0
 17 30  1  0  0  0  0
 18 32  1  0  0  0  0
 19 32  1  0  0  0  0
 19 33  2  0  0  0  0
 19 38  1  0  0  0  0
 20 22  2  0  0  0  0
 20 44  1  0  0  0  0
 21 23  2  0  0  0  0
 21 45  1  0  0  0  0
 22 53  1  0  0  0  0
 23 46  1  0  0  0  0
 24 31  2  0  0  0  0
 24 61  1  0  0  0  0
 25 31  1  0  0  0  0
 25 72  1  0  0  0  0
 26 83  1  0  0  0  0
 27 84  1  0  0  0  0
 28 30  2  0  0  0  0
 28 83  1  0  0  0  0
 29 85  1  0  0  0  0
 30 86  1  0  0  0  0
 31 87  1  0  0  0  0
 32 66  2  0  0  0  0
 33 67  1  0  0  0  0
 33 70  1  0  0  0  0
 34 35  2  0  0  0  0
 34 36  1  0  0  0  0
 35 39  1  0  0  0  0
 36 37  2  0  0  0  0
 37 62  1  0  0  0  0
 38 71  1  0  0  0  0
 38 77  2  0  0  0  0
 39 73  1  0  0  0  0
 39 78  2  0  0  0  0
 40 54  1  0  0  0  0
 40 74  1  0  0  0  0
 40 79  2  0  0  0  0
 41 63  1  0  0  0  0
 41 68  1  0  0  0  0
 41 80  2  0  0  0  0
 42 64  1  0  0  0  0
 42 75  1  0  0  0  0
 42 81  2  0  0  0  0
 43 69  1  0  0  0  0
 43 72  1  0  0  0  0
 43 82  2  0  0  0  0
 44 47  1  0  0  0  0
 45 54  1  0  0  0  0
 46 68  1  0  0  0  0
 47 49  1  0  0  0  0
 48 50  1  0  0  0  0
 48 51  1  0  0  0  0
 49 53  1  0  0  0  0
 50 55  1  0  0  0  0
 51 69  1  0  0  0  0
 52 55  1  0  0  0  0
 52 69  1  0  0  0  0
 53 74  1  0  0  0  0
 54 68  1  0  0  0  0
 55 67  1  0  0  0  0
 56 64  1  0  0  0  0
 57 65  1  0  0  0  0
 58 65  1  0  0  0  0
 59 65  1  0  0  0  0
 60 76  1  0  0  0  0
 61 73  1  0  0  0  0
 62 84  1  0  0  0  0
 63 65  1  0  0  0  0
 63 75  1  0  0  0  0
 64 76  1  0  0  0  0
 66 67  1  0  0  0  0
M  CHG  1  76   1
M  ISO  4  43 100  62 101  72 100  84 101
M  END
> <Batch ID>
0047

> <Smiles>
CNC(C)C(=O)NC(C(=O)N1Cc2cc([101O:1][101CH2:1]C=CC=CC(=O)NCc3cccc([100NH:0][100C:0](=O)N4CCCC(n5nc(-c6ccc(Oc7ccc(F)cc7F)cc6)c(C(N)=O)c5N)C4)c3F)ccc2CC1C(=O)NC1CCCc2ccccc21)C(C)(C)C

> <Shape>
0.291

> <Color>
0.130

> <Negative vol penalty>
0.000

$$$$

  -OEChem-04042322263D

 92101  0     1  0  0  0  0  0999 V2000
  -24.7444  -32.5959   18.0406 C   0  0  0  0  0  0  0  0  0  0  0  0
  -25.0429  -31.2444   18.1815 C   0  0  0  0  0  0  0  0  0  0  0  0
  -23.0320   -9.9075   19.9133 C   0  0  0  0  0  0  0  0  0  0  0  0
  -23.8224   -9.8230   22.1948 C   0  0  0  0  0  0  0  0  0  0  0  0
  -24.6285  -33.1541   16.7683 C   0  0  0  0  0  0  0  0  0  0  0  0
  -25.2245  -30.4501   17.0499 C   0  0  0  0  0  0  0  0  0  0  0  0
  -29.2633  -27.4190   17.4321 C   0  0  0  0  0  0  0  0  0  0  0  0
  -28.4952  -19.2144   24.5063 C   0  0  0  0  0  0  0  0  0  0  0  0
  -22.2705   -8.7600   20.1346 C   0  0  0  0  0  0  0  0  0  0  0  0
  -23.0608   -8.6755   22.4161 C   0  0  0  0  0  0  0  0  0  0  0  0
  -29.1253  -26.2691   18.2083 C   0  0  0  0  0  0  0  0  0  0  0  0
  -19.8269   -7.9155   23.0363 C   0  0  0  0  0  0  0  0  0  0  0  0
  -19.0850   -7.8493   24.2156 C   0  0  0  0  0  0  0  0  0  0  0  0
  -29.0581  -18.0531   25.0356 C   0  0  0  0  0  0  0  0  0  0  0  0
  -28.7974  -24.9642   16.2060 C   0  0  0  0  0  0  0  0  0  0  0  0
  -29.5159  -18.7352   22.3695 C   0  0  0  0  0  0  0  0  0  0  0  0
  -20.3004   -5.8661   24.8689 C   0  0  0  0  0  0  0  0  0  0  0  0
  -23.8080  -10.4390   20.9434 C   0  0  0  0  0  0  0  0  0  0  0  0
  -24.1944  -12.9602   20.9039 C   0  0  0  0  0  0  0  0  0  0  0  0
  -24.8184  -32.3683   15.6206 C   0  0  0  0  0  0  0  0  0  0  0  0
  -29.1584  -27.3518   16.0353 C   0  0  0  0  0  0  0  0  0  0  0  0
  -25.1098  -30.9980   15.7610 C   0  0  0  0  0  0  0  0  0  0  0  0
  -28.9370  -26.1143   15.4142 C   0  0  0  0  0  0  0  0  0  0  0  0
  -28.7241  -19.5554   23.1732 C   0  0  0  0  0  0  0  0  0  0  0  0
  -30.0789  -17.5740   22.8989 C   0  0  0  0  0  0  0  0  0  0  0  0
  -22.2849   -8.1440   21.3860 C   0  0  0  0  0  0  0  0  0  0  0  0
  -28.8894  -25.0420   17.5955 C   0  0  0  0  0  0  0  0  0  0  0  0
  -20.8055   -6.9569   22.7732 C   0  0  0  0  0  0  0  0  0  0  0  0
  -19.3217   -6.8247   25.1319 C   0  0  0  0  0  0  0  0  0  0  0  0
  -21.0423   -5.9322   23.6896 C   0  0  0  0  0  0  0  0  0  0  0  0
  -29.8500  -17.2329   24.2319 C   0  0  0  0  0  0  0  0  0  0  0  0
  -24.5953  -11.6240   20.7153 C   0  0  0  0  0  0  0  0  0  0  0  0
  -25.2952  -13.7020   20.5509 C   0  0  0  0  0  0  0  0  0  0  0  0
  -22.4235  -20.7146   22.4312 C   0  0  0  0  0  0  0  0  0  0  0  0
  -23.7157  -21.4481   22.6149 C   0  0  0  0  0  0  0  0  0  0  0  0
  -22.9393  -13.4841   21.3576 C   0  0  0  0  0  0  0  0  0  0  0  0
  -26.0622  -21.6210   21.7728 C   0  0  0  0  0  0  0  0  0  0  0  0
  -27.2015  -28.6104   13.8697 C   0  0  0  0  0  0  0  0  0  0  0  0
  -29.2721  -27.2484   11.7769 C   0  0  0  0  0  0  0  0  0  0  0  0
  -31.6208  -24.8473   11.1728 C   0  0  0  0  0  0  0  0  0  0  0  0
  -30.7987  -14.6159   20.6971 C   0  0  0  0  0  0  0  0  0  0  0  0
  -24.6363  -33.0059   14.2660 C   0  0  0  0  0  0  0  0  0  0  0  0
  -29.3364  -28.5970   15.2106 C   0  0  0  0  0  0  0  0  0  0  0  0
  -28.8363  -25.9852   13.9170 C   0  0  0  0  0  0  0  0  0  0  0  0
  -25.2132  -32.1780   13.1206 C   0  0  0  0  0  0  0  0  0  0  0  0
  -29.5859  -12.3345   18.2474 C   0  0  0  0  0  0  0  0  0  0  0  0
  -24.7989  -30.7162   13.2571 C   0  0  0  0  0  0  0  0  0  0  0  0
  -28.1492  -12.0520   18.6901 C   0  0  0  0  0  0  0  0  0  0  0  0
  -24.3321  -20.4533   20.4510 C   0  0  0  0  0  0  0  0  0  0  0  0
  -22.8484  -20.4179   20.1208 C   0  0  0  0  0  0  0  0  0  0  0  0
  -30.5228  -12.4980   19.4422 C   0  0  0  0  0  0  0  0  0  0  0  0
  -28.6534  -13.2154   20.8790 C   0  0  0  0  0  0  0  0  0  0  0  0
  -25.3383  -30.1091   14.5578 C   0  0  1  0  0  0  0  0  0  0  0  0
  -24.6102  -21.5961   21.4156 C   0  0  1  0  0  0  0  0  0  0  0  0
  -28.6990  -28.4944   13.8284 C   0  0  1  0  0  0  0  0  0  0  0  0
  -27.6607  -13.0984   19.7098 C   0  0  2  0  0  0  0  0  0  0  0  0
  -33.1073  -23.9584    9.3569 C   0  0  0  0  0  0  0  0  0  0  0  0
  -26.8702  -25.8824   10.4827 C   0  0  0  0  0  0  0  0  0  0  0  0
  -28.4609  -24.3213    9.3420 C   0  0  0  0  0  0  0  0  0  0  0  0
  -28.5618  -26.7682    8.8677 C   0  0  0  0  0  0  0  0  0  0  0  0
  -34.0696  -25.4597   12.7179 C   0  0  0  0  0  0  0  0  0  0  0  0
  -28.1174  -20.8070   22.6033 C   0  0  0  0  0  0  0  0  0  0  0  0
  -30.9204  -16.7217   22.0048 C   0  0  0  0  0  0  0  0  0  0  0  0
  -26.8482  -22.8759   21.4358 C   0  0  0  0  0  0  0  0  0  0  0  0
  -27.4806  -22.8004   20.0499 C   0  0  0  0  0  0  0  0  0  0  0  0
  -28.2147  -24.0783   19.6623 C   0  0  0  0  0  0  0  0  0  1  0  0
  -29.3773  -25.9035   11.0992 C   0  0  1  0  0  0  0  0  0  0  0  0
  -32.9937  -24.9205   10.5292 C   0  0  2  0  0  0  0  0  0  0  0  0
  -28.3175  -25.7213    9.9763 C   0  0  0  0  0  0  0  0  0  0  0  0
  -25.8525  -11.5198   20.2765 N   0  0  0  0  0  0  0  0  0  0  0  0
  -22.0212  -20.2328   21.3125 N   0  0  0  0  0  0  0  0  0  0  0  0
  -26.7027  -20.6383   22.3105 N   0  0  0  0  0  0  0  0  0  0  0  0
  -26.2511  -12.8001   20.1863 N   0  0  0  0  0  0  0  0  0  0  0  0
  -29.0110  -27.2324   13.1544 N   0  0  0  0  0  0  0  0  0  0  0  0
  -30.0031  -13.5055   20.3699 N   0  0  0  0  0  0  0  0  0  0  0  0
  -25.5290  -15.0312   20.5199 N   0  0  0  0  0  0  0  0  0  0  0  0
  -21.9154  -12.5822   21.6781 N   0  0  0  0  0  0  0  0  0  0  0  0
  -26.7437  -29.7912   14.4225 N   0  0  0  0  0  0  0  0  0  0  0  0
  -30.7579  -25.7832   10.6431 N   0  0  0  0  0  0  0  0  0  0  0  0
  -30.2279  -15.5261   21.5783 N   0  0  0  0  0  0  0  0  0  0  0  0
  -34.0504  -24.5777   11.5225 N   0  3  0  0  0  0  0  0  0  0  0  0
  -23.9436  -21.9110   23.7234 O   0  0  0  0  0  0  0  0  0  0  0  0
  -22.7264  -14.7161   21.4597 O   0  0  0  0  0  0  0  0  0  0  0  0
  -26.5124  -27.6969   13.4311 O   0  0  0  0  0  0  0  0  0  0  0  0
  -29.4233  -28.2751   11.1101 O   0  0  0  0  0  0  0  0  0  0  0  0
  -31.3408  -24.0381   12.0544 O   0  0  0  0  0  0  0  0  0  0  0  0
  -31.9315  -14.7863   20.2339 O   0  0  0  0  0  0  0  0  0  0  0  0
  -21.5418   -7.0244   21.6023 O   0  0  0  0  0  0  0  0  0  0  0  0
  -28.7536  -23.9181   18.3508 O   0  0  0  0  0  0  0  0  0  1  0  0
  -18.6103   -6.7622   26.2651 F   0  0  0  0  0  0  0  0  0  0  0  0
  -21.9819   -5.0092   23.4429 F   0  0  0  0  0  0  0  0  0  0  0  0
  -30.5299  -15.8039   24.9208 Cl  0  0  0  0  0  0  0  0  0  0  0  0
  1  2  1  0  0  0  0
  1  5  2  0  0  0  0
  2  6  2  0  0  0  0
  3  9  2  0  0  0  0
  3 18  1  0  0  0  0
  4 10  1  0  0  0  0
  4 18  2  0  0  0  0
  5 20  1  0  0  0  0
  6 22  1  0  0  0  0
  7 11  2  0  0  0  0
  7 21  1  0  0  0  0
  8 14  2  0  0  0  0
  8 24  1  0  0  0  0
  9 26  1  0  0  0  0
 10 26  2  0  0  0  0
 11 27  1  0  0  0  0
 12 13  2  0  0  0  0
 12 28  1  0  0  0  0
 13 29  1  0  0  0  0
 14 31  1  0  0  0  0
 15 23  1  0  0  0  0
 15 27  2  0  0  0  0
 16 24  2  0  0  0  0
 16 25  1  0  0  0  0
 17 29  2  0  0  0  0
 17 30  1  0  0  0  0
 18 32  1  0  0  0  0
 19 32  1  0  0  0  0
 19 33  2  0  0  0  0
 19 36  1  0  0  0  0
 20 22  2  0  0  0  0
 20 42  1  0  0  0  0
 21 23  2  0  0  0  0
 21 43  1  0  0  0  0
 22 53  1  0  0  0  0
 23 44  1  0  0  0  0
 24 62  1  0  0  0  0
 25 31  2  0  0  0  0
 25 63  1  0  0  0  0
 26 88  1  0  0  0  0
 27 89  1  0  0  0  0
 28 30  2  0  0  0  0
 28 88  1  0  0  0  0
 29 90  1  0  0  0  0
 30 91  1  0  0  0  0
 31 92  1  0  0  0  0
 32 70  2  0  0  0  0
 33 73  1  0  0  0  0
 33 76  1  0  0  0  0
 34 35  1  0  0  0  0
 34 71  2  0  0  0  0
 35 54  1  0  0  0  0
 35 82  2  0  0  0  0
 36 77  1  0  0  0  0
 36 83  2  0  0  0  0
 37 54  1  0  0  0  0
 37 64  1  0  0  0  0
 37 72  2  0  0  0  0
 38 55  1  0  0  0  0
 38 78  1  0  0  0  0
 38 84  2  0  0  0  0
 39 67  1  0  0  0  0
 39 74  1  0  0  0  0
 39 85  2  0  0  0  0
 40 68  1  0  0  0  0
 40 79  1  0  0  0  0
 40 86  2  0  0  0  0
 41 75  1  0  0  0  0
 41 80  1  0  0  0  0
 41 87  2  0  0  0  0
 42 45  1  0  0  0  0
 43 55  1  0  0  0  0
 44 74  1  0  0  0  0
 45 47  1  0  0  0  0
 46 48  1  0  0  0  0
 46 51  1  0  0  0  0
 47 53  1  0  0  0  0
 48 56  1  0  0  0  0
 49 50  1  0  0  0  0
 49 54  1  0  0  0  0
 50 71  1  0  0  0  0
 51 75  1  0  0  0  0
 52 56  1  0  0  0  0
 52 75  1  0  0  0  0
 53 78  1  0  0  0  0
 55 74  1  0  0  0  0
 56 73  1  0  0  0  0
 57 68  1  0  0  0  0
 58 69  1  0  0  0  0
 59 69  1  0  0  0  0
 60 69  1  0  0  0  0
 61 81  1  0  0  0  0
 62 72  1  0  0  0  0
 63 80  1  0  0  0  0
 64 65  1  0  0  0  0
 65 66  1  0  0  0  0
 66 89  1  0  0  0  0
 67 69  1  0  0  0  0
 67 79  1  0  0  0  0
 68 81  1  0  0  0  0
 70 73  1  0  0  0  0
M  CHG  1  81   1
M  ISO  4  41 100  66 101  80 100  89 101
M  END
> <Batch ID>
0047

> <Smiles>
CNC(C)C(=O)NC(C(=O)N1Cc2cc([101O:1][101CH2:1]C=CC(NCc3ccc(Cl)c(C[100NH:0][100C:0](=O)N4CCCC(n5nc(-c6ccc(Oc7ccc(F)cc7F)cc6)c(C(N)=O)c5N)C4)c3)=C3CCNCC3=O)ccc2CC1C(=O)NC1CCCc2ccccc21)C(C)(C)C

> <Shape>
0.190

> <Color>
0.189

> <Negative vol penalty>
0.000

$$$$

  -OEChem-04042322263D

 85 93  0     1  0  0  0  0  0999 V2000
  -21.1776  -35.2572   21.6456 C   0  0  0  0  0  0  0  0  0  0  0  0
  -22.3087  -34.5611   21.2315 C   0  0  0  0  0  0  0  0  0  0  0  0
  -24.1928  -12.4881   21.5243 C   0  0  0  0  0  0  0  0  0  0  0  0
  -25.1715  -12.0683   19.3556 C   0  0  0  0  0  0  0  0  0  0  0  0
  -20.3726  -34.7375   22.6584 C   0  0  0  0  0  0  0  0  0  0  0  0
  -22.6360  -33.3452   21.8308 C   0  0  0  0  0  0  0  0  0  0  0  0
  -25.2207  -28.4907   19.1366 C   0  0  0  0  0  0  0  0  0  0  0  0
  -23.3036  -11.4317   21.3275 C   0  0  0  0  0  0  0  0  0  0  0  0
  -24.2823  -11.0118   19.1589 C   0  0  0  0  0  0  0  0  0  0  0  0
  -26.5373  -28.0342   19.0900 C   0  0  0  0  0  0  0  0  0  0  0  0
  -23.3666   -8.0559   21.5103 C   0  0  0  0  0  0  0  0  0  0  0  0
  -23.1735   -7.1658   22.5667 C   0  0  0  0  0  0  0  0  0  0  0  0
  -26.0782  -26.5411   20.9283 C   0  0  0  0  0  0  0  0  0  0  0  0
  -31.5174  -21.8750   19.9065 C   0  0  0  0  0  0  0  0  0  0  0  0
  -32.2498  -19.6388   20.4543 C   0  0  0  0  0  0  0  0  0  0  0  0
  -32.7355  -21.4702   21.9533 C   0  0  0  0  0  0  0  0  0  0  0  0
  -20.8229   -7.7229   22.6065 C   0  0  0  0  0  0  0  0  0  0  0  0
  -25.1268  -12.8065   20.5383 C   0  0  0  0  0  0  0  0  0  0  0  0
  -27.3227  -13.8363   21.3290 C   0  0  0  0  0  0  0  0  0  0  0  0
  -20.6848  -33.5100   23.2637 C   0  0  0  0  0  0  0  0  0  0  0  0
  -24.3246  -27.9828   20.0881 C   0  0  0  0  0  0  0  0  0  0  0  0
  -21.8351  -32.8093   22.8535 C   0  0  0  0  0  0  0  0  0  0  0  0
  -24.7502  -26.9910   20.9832 C   0  0  0  0  0  0  0  0  0  0  0  0
  -31.5996  -20.5192   19.5894 C   0  0  0  0  0  0  0  0  0  0  0  0
  -32.0854  -22.3505   21.0885 C   0  0  0  0  0  0  0  0  0  0  0  0
  -23.3484  -10.6935   20.1448 C   0  0  0  0  0  0  0  0  0  0  0  0
  -26.9670  -27.0614   19.9878 C   0  0  0  0  0  0  0  0  0  0  0  0
  -22.2878   -8.7796   21.0019 C   0  0  0  0  0  0  0  0  0  0  0  0
  -21.9017   -6.9993   23.1148 C   0  0  0  0  0  0  0  0  0  0  0  0
  -21.0160   -8.6130   21.5500 C   0  0  0  0  0  0  0  0  0  0  0  0
  -32.8177  -20.1144   21.6363 C   0  0  0  0  0  0  0  0  0  0  0  0
  -26.0452  -13.8981   20.7407 C   0  0  0  0  0  0  0  0  0  0  0  0
  -27.7835  -15.1295   21.2857 C   0  0  0  0  0  0  0  0  0  0  0  0
  -28.0295  -12.7106   21.8664 C   0  0  0  0  0  0  0  0  0  0  0  0
  -22.6705  -29.2274   22.5004 C   0  0  0  0  0  0  0  0  0  0  0  0
  -21.3829  -26.2533   22.6402 C   0  0  0  0  0  0  0  0  0  0  0  0
  -30.0771  -25.2404   20.6934 C   0  0  0  0  0  0  0  0  0  0  0  0
  -21.6992  -22.9243   21.9587 C   0  0  0  0  0  0  0  0  0  0  0  0
  -28.5212  -19.9446   18.5625 C   0  0  0  0  0  0  0  0  0  0  0  0
  -19.8107  -33.0114   24.3871 C   0  0  0  0  0  0  0  0  0  0  0  0
  -22.9004  -28.4664   20.1078 C   0  0  0  0  0  0  0  0  0  0  0  0
  -23.8217  -26.3987   22.0106 C   0  0  0  0  0  0  0  0  0  0  0  0
  -20.0195  -31.5345   24.7118 C   0  0  0  0  0  0  0  0  0  0  0  0
  -25.3868  -19.4433   20.1754 C   0  0  0  0  0  0  0  0  0  0  0  0
  -21.5079  -31.2126   24.8002 C   0  0  0  0  0  0  0  0  0  0  0  0
  -25.3817  -17.9504   20.5088 C   0  0  0  0  0  0  0  0  0  0  0  0
  -26.0696  -19.7205   18.8378 C   0  0  0  0  0  0  0  0  0  0  0  0
  -27.4248  -17.6724   19.0436 C   0  0  0  0  0  0  0  0  0  0  0  0
  -22.2095  -31.4753   23.4621 C   0  0  1  0  0  0  0  0  0  0  0  0
  -22.2147  -28.2506   21.4535 C   0  0  1  0  0  0  0  0  0  0  0  0
  -26.7965  -17.3489   20.4099 C   0  0  2  0  0  0  0  0  0  0  0  0
  -20.4998  -20.7363   22.2257 C   0  0  0  0  0  0  0  0  0  0  0  0
  -22.1495  -26.1962   25.5930 C   0  0  0  0  0  0  0  0  0  0  0  0
  -21.8124  -23.7156   25.5608 C   0  0  0  0  0  0  0  0  0  0  0  0
  -19.8963  -25.2392   25.0815 C   0  0  0  0  0  0  0  0  0  0  0  0
  -29.8240  -23.6166   22.5780 C   0  0  0  0  0  0  0  0  0  0  0  0
  -21.5697  -22.5056   19.0318 C   0  0  0  0  0  0  0  0  0  0  0  0
  -30.9908  -20.0111   18.3262 C   0  0  0  0  0  0  0  0  0  0  0  0
  -31.9947  -23.8099   21.4295 C   0  0  0  0  0  0  0  0  0  0  0  0
  -28.6242  -25.6166   20.8945 C   0  0  0  0  0  0  0  0  0  1  0  0
  -21.7279  -24.9717   23.3594 C   0  0  1  0  0  0  0  0  0  0  0  0
  -20.7451  -21.9321   21.3187 C   0  0  2  0  0  0  0  0  0  0  0  0
  -21.4148  -25.0430   24.8807 C   0  0  0  0  0  0  0  0  0  0  0  0
  -25.7156  -15.1328   20.3524 N   0  0  0  0  0  0  0  0  0  0  0  0
  -26.7926  -15.8589   20.6974 N   0  0  0  0  0  0  0  0  0  0  0  0
  -22.4407  -26.9087   21.9942 N   0  0  0  0  0  0  0  0  0  0  0  0
  -27.4076  -19.1249   18.8096 N   0  0  0  0  0  0  0  0  0  0  0  0
  -28.9357  -15.7024   21.6940 N   0  0  0  0  0  0  0  0  0  0  0  0
  -27.4102  -11.4538   21.8310 N   0  0  0  0  0  0  0  0  0  0  0  0
  -21.9408  -30.4004   22.5310 N   0  0  0  0  0  0  0  0  0  0  0  0
  -21.0248  -23.9057   22.6539 N   0  0  0  0  0  0  0  0  0  0  0  0
  -29.7528  -19.3013   18.5594 N   0  0  0  0  0  0  0  0  0  0  0  0
  -30.6096  -24.2619   21.5334 N   0  0  0  0  0  0  0  0  0  0  0  0
  -21.3019  -21.4367   20.0281 N   0  3  0  0  0  0  0  0  0  0  0  0
  -29.1697  -12.8190   22.3782 O   0  0  0  0  0  0  0  0  0  0  0  0
  -23.6134  -28.9375   23.2275 O   0  0  0  0  0  0  0  0  0  0  0  0
  -20.2163  -26.6543   22.6451 O   0  0  0  0  0  0  0  0  0  0  0  0
  -30.7176  -25.8040   19.8007 O   0  0  0  0  0  0  0  0  0  0  0  0
  -22.9207  -22.8354   21.8556 O   0  0  0  0  0  0  0  0  0  0  0  0
  -28.4254  -21.1606   18.3650 O   0  0  0  0  0  0  0  0  0  0  0  0
  -22.4810   -9.6623   19.9526 O   0  0  0  0  0  0  0  0  0  0  0  0
  -28.2516  -26.6145   19.9449 O   0  0  0  0  0  0  0  0  0  1  0  0
  -21.7162   -6.1433   24.1282 F   0  0  0  0  0  0  0  0  0  0  0  0
  -19.9756   -9.3046   21.0651 F   0  0  0  0  0  0  0  0  0  0  0  0
  -33.6210  -19.0284   22.7028 Cl  0  0  0  0  0  0  0  0  0  0  0  0
  1  2  1  0  0  0  0
  1  5  2  0  0  0  0
  2  6  2  0  0  0  0
  3  8  2  0  0  0  0
  3 18  1  0  0  0  0
  4  9  1  0  0  0  0
  4 18  2  0  0  0  0
  5 20  1  0  0  0  0
  6 22  1  0  0  0  0
  7 10  2  0  0  0  0
  7 21  1  0  0  0  0
  8 26  1  0  0  0  0
  9 26  2  0  0  0  0
 10 27  1  0  0  0  0
 11 12  2  0  0  0  0
 11 28  1  0  0  0  0
 12 29  1  0  0  0  0
 13 23  1  0  0  0  0
 13 27  2  0  0  0  0
 14 24  1  0  0  0  0
 14 25  2  0  0  0  0
 15 24  2  0  0  0  0
 15 31  1  0  0  0  0
 16 25  1  0  0  0  0
 16 31  2  0  0  0  0
 17 29  2  0  0  0  0
 17 30  1  0  0  0  0
 18 32  1  0  0  0  0
 19 32  1  0  0  0  0
 19 33  2  0  0  0  0
 19 34  1  0  0  0  0
 20 22  2  0  0  0  0
 20 40  1  0  0  0  0
 21 23  2  0  0  0  0
 21 41  1  0  0  0  0
 22 49  1  0  0  0  0
 23 42  1  0  0  0  0
 24 58  1  0  0  0  0
 25 59  1  0  0  0  0
 26 81  1  0  0  0  0
 27 82  1  0  0  0  0
 28 30  2  0  0  0  0
 28 81  1  0  0  0  0
 29 83  1  0  0  0  0
 30 84  1  0  0  0  0
 31 85  1  0  0  0  0
 32 64  2  0  0  0  0
 33 65  1  0  0  0  0
 33 68  1  0  0  0  0
 34 69  1  0  0  0  0
 34 75  2  0  0  0  0
 35 50  1  0  0  0  0
 35 70  1  0  0  0  0
 35 76  2  0  0  0  0
 36 61  1  0  0  0  0
 36 66  1  0  0  0  0
 36 77  2  0  0  0  0
 37 60  1  0  0  0  0
 37 73  1  0  0  0  0
 37 78  2  0  0  0  0
 38 62  1  0  0  0  0
 38 71  1  0  0  0  0
 38 79  2  0  0  0  0
 39 67  1  0  0  0  0
 39 72  1  0  0  0  0
 39 80  2  0  0  0  0
 40 43  1  0  0  0  0
 41 50  1  0  0  0  0
 42 66  1  0  0  0  0
 43 45  1  0  0  0  0
 44 46  1  0  0  0  0
 44 47  1  0  0  0  0
 45 49  1  0  0  0  0
 46 51  1  0  0  0  0
 47 67  1  0  0  0  0
 48 51  1  0  0  0  0
 48 67  1  0  0  0  0
 49 70  1  0  0  0  0
 50 66  1  0  0  0  0
 51 65  1  0  0  0  0
 52 62  1  0  0  0  0
 53 63  1  0  0  0  0
 54 63  1  0  0  0  0
 55 63  1  0  0  0  0
 56 73  1  0  0  0  0
 57 74  1  0  0  0  0
 58 72  1  0  0  0  0
 59 73  1  0  0  0  0
 60 82  1  0  0  0  0
 61 63  1  0  0  0  0
 61 71  1  0  0  0  0
 62 74  1  0  0  0  0
 64 65  1  0  0  0  0
M  CHG  1  74   1
M  ISO  4  39 100  60 101  72 100  82 101
M  END
> <Batch ID>
0047

> <Smiles>
CNC(C)C(=O)NC(C(=O)N1Cc2cc([101O:1][101CH2:1]C(=O)N(C)Cc3cc(Cl)cc(C[100NH:0][100C:0](=O)N4CCCC(n5nc(-c6ccc(Oc7ccc(F)cc7F)cc6)c(C(N)=O)c5N)C4)c3)ccc2CC1C(=O)NC1CCCc2ccccc21)C(C)(C)C

> <Shape>
0.213

> <Color>
0.088

> <Negative vol penalty>
0.000

$$$$

  -OEChem-04042322263D

 84 92  0     1  0  0  0  0  0999 V2000
  -32.6603  -31.4316   18.5962 C   0  0  0  0  0  0  0  0  0  0  0  0
  -31.7988  -30.4671   18.0834 C   0  0  0  0  0  0  0  0  0  0  0  0
  -26.4647  -12.6786   21.4945 C   0  0  0  0  0  0  0  0  0  0  0  0
  -26.1894  -13.3835   19.2000 C   0  0  0  0  0  0  0  0  0  0  0  0
  -32.7334  -31.6380   19.9732 C   0  0  0  0  0  0  0  0  0  0  0  0
  -31.0106  -29.7076   18.9474 C   0  0  0  0  0  0  0  0  0  0  0  0
  -26.2262  -29.2811   17.3436 C   0  0  0  0  0  0  0  0  0  0  0  0
  -25.1975  -12.0964   21.4677 C   0  0  0  0  0  0  0  0  0  0  0  0
  -24.9222  -12.8013   19.1732 C   0  0  0  0  0  0  0  0  0  0  0  0
  -25.9762  -28.3655   16.3224 C   0  0  0  0  0  0  0  0  0  0  0  0
  -23.7848   -9.2577   20.2933 C   0  0  0  0  0  0  0  0  0  0  0  0
  -23.6469   -7.9799   20.8353 C   0  0  0  0  0  0  0  0  0  0  0  0
  -25.1819  -26.7740   17.9519 C   0  0  0  0  0  0  0  0  0  0  0  0
  -29.2442  -22.2963   18.1910 C   0  0  0  0  0  0  0  0  0  0  0  0
  -29.0553  -20.5232   16.5608 C   0  0  0  0  0  0  0  0  0  0  0  0
  -22.0440   -8.8296   22.4308 C   0  0  0  0  0  0  0  0  0  0  0  0
  -26.9607  -13.3223   20.3606 C   0  0  0  0  0  0  0  0  0  0  0  0
  -28.4967  -22.7924   15.9478 C   0  0  0  0  0  0  0  0  0  0  0  0
  -29.4931  -13.3141   20.0534 C   0  0  0  0  0  0  0  0  0  0  0  0
  -31.9387  -30.8873   20.8539 C   0  0  0  0  0  0  0  0  0  0  0  0
  -25.9657  -28.9455   18.6800 C   0  0  0  0  0  0  0  0  0  0  0  0
  -31.0742  -29.9032   20.3375 C   0  0  0  0  0  0  0  0  0  0  0  0
  -25.4270  -27.6881   18.9880 C   0  0  0  0  0  0  0  0  0  0  0  0
  -28.8089  -23.2180   17.2389 C   0  0  0  0  0  0  0  0  0  0  0  0
  -29.3675  -20.9488   17.8519 C   0  0  0  0  0  0  0  0  0  0  0  0
  -24.4262  -12.1577   20.3071 C   0  0  0  0  0  0  0  0  0  0  0  0
  -25.4567  -27.1107   16.6267 C   0  0  0  0  0  0  0  0  0  0  0  0
  -23.0523  -10.3216   20.8201 C   0  0  0  0  0  0  0  0  0  0  0  0
  -22.7765   -7.7658   21.9040 C   0  0  0  0  0  0  0  0  0  0  0  0
  -28.6199  -21.4449   15.6087 C   0  0  0  0  0  0  0  0  0  0  0  0
  -22.1819  -10.1075   21.8889 C   0  0  0  0  0  0  0  0  0  0  0  0
  -28.2694  -13.9244   20.3879 C   0  0  0  0  0  0  0  0  0  0  0  0
  -30.4312  -14.2993   20.2426 C   0  0  0  0  0  0  0  0  0  0  0  0
  -28.0341  -23.7538   14.9269 C   0  0  0  0  0  0  0  0  0  0  0  0
  -29.7581  -11.9763   19.6110 C   0  0  0  0  0  0  0  0  0  0  0  0
  -27.7336  -28.6557   21.3057 C   0  0  0  0  0  0  0  0  0  0  0  0
  -24.8505  -28.2300   22.7300 C   0  0  0  0  0  0  0  0  0  0  0  0
  -21.5779  -27.3101   22.4288 C   0  0  0  0  0  0  0  0  0  0  0  0
  -30.1597  -20.2677   20.1442 C   0  0  0  0  0  0  0  0  0  0  0  0
  -32.0870  -31.1135   22.3376 C   0  0  0  0  0  0  0  0  0  0  0  0
  -26.2158  -29.9541   19.7675 C   0  0  0  0  0  0  0  0  0  0  0  0
  -25.1108  -27.2862   20.4047 C   0  0  0  0  0  0  0  0  0  0  0  0
  -30.9435  -30.5259   23.1606 C   0  0  0  0  0  0  0  0  0  0  0  0
  -31.2597  -18.2304   22.8492 C   0  0  0  0  0  0  0  0  0  0  0  0
  -30.6353  -29.1027   22.7065 C   0  0  0  0  0  0  0  0  0  0  0  0
  -30.7343  -16.8382   22.4915 C   0  0  0  0  0  0  0  0  0  0  0  0
  -30.2790  -19.3286   22.4418 C   0  0  0  0  0  0  0  0  0  0  0  0
  -29.3233  -17.8953   20.6807 C   0  0  0  0  0  0  0  0  0  0  0  0
  -30.1851  -29.0765   21.2409 C   0  0  1  0  0  0  0  0  0  0  0  0
  -26.3950  -29.3182   21.1425 C   0  0  1  0  0  0  0  0  0  0  0  0
  -30.3057  -16.7603   21.0130 C   0  0  2  0  0  0  0  0  0  0  0  0
  -28.6853  -24.6555   17.6260 C   0  0  0  0  0  0  0  0  0  0  0  0
  -19.4788  -27.0290   23.7750 C   0  0  0  0  0  0  0  0  0  0  0  0
  -25.9534  -25.6386   23.9041 C   0  0  0  0  0  0  0  0  0  0  0  0
  -23.6014  -24.9526   24.4192 C   0  0  0  0  0  0  0  0  0  0  0  0
  -24.5655  -26.9921   25.4840 C   0  0  0  0  0  0  0  0  0  0  0  0
  -20.1355  -29.3302   20.8171 C   0  0  0  0  0  0  0  0  0  0  0  0
  -26.1407  -24.9111   13.8443 C   0  0  0  0  0  0  0  0  0  0  0  0
  -26.0454  -26.2854   14.4754 C   0  0  0  0  0  0  0  0  0  1  0  0
  -23.9703  -27.0401   23.0273 C   0  0  1  0  0  0  0  0  0  0  0  0
  -20.2977  -27.9714   22.9066 C   0  0  2  0  0  0  0  0  0  0  0  0
  -24.5303  -26.1624   24.1820 C   0  0  0  0  0  0  0  0  0  0  0  0
  -28.4138  -15.1986   20.7615 N   0  0  0  0  0  0  0  0  0  0  0  0
  -29.7394  -15.3970   20.6629 N   0  0  0  0  0  0  0  0  0  0  0  0
  -25.3787  -28.3048   21.4334 N   0  0  0  0  0  0  0  0  0  0  0  0
  -29.9215  -19.1939   21.0280 N   0  0  0  0  0  0  0  0  0  0  0  0
  -31.7721  -14.3250   20.0888 N   0  0  0  0  0  0  0  0  0  0  0  0
  -28.9506  -24.3477   14.1624 N   0  0  0  0  0  0  0  0  0  0  0  0
  -28.6790  -11.0931   19.4700 N   0  0  0  0  0  0  0  0  0  0  0  0
  -29.8095  -20.0121   18.8188 N   0  0  0  0  0  0  0  0  0  0  0  0
  -28.8079  -29.5064   21.1275 N   0  0  0  0  0  0  0  0  0  0  0  0
  -22.6346  -27.5722   23.2750 N   0  0  0  0  0  0  0  0  0  0  0  0
  -26.7201  -23.9841   14.8195 N   0  3  0  0  0  0  0  0  0  0  0  0
  -19.4623  -28.3837   21.7433 N   0  3  0  0  0  0  0  0  0  0  0  0
  -30.9193  -11.5710   19.3644 O   0  0  0  0  0  0  0  0  0  0  0  0
  -27.7879  -27.4614   21.5747 O   0  0  0  0  0  0  0  0  0  0  0  0
  -25.0559  -29.0660   23.6134 O   0  0  0  0  0  0  0  0  0  0  0  0
  -21.6340  -26.6262   21.4092 O   0  0  0  0  0  0  0  0  0  0  0  0
  -30.6644  -21.3255   20.5294 O   0  0  0  0  0  0  0  0  0  0  0  0
  -23.1897  -11.5894   20.2805 O   0  0  0  0  0  0  0  0  0  0  0  0
  -25.2124  -26.2149   15.6319 O   0  0  0  0  0  0  0  0  0  1  0  0
  -22.6430   -6.5384   22.4234 F   0  0  0  0  0  0  0  0  0  0  0  0
  -28.3224  -21.0254   14.3707 F   0  0  0  0  0  0  0  0  0  0  0  0
  -21.4747  -11.1253   22.3985 F   0  0  0  0  0  0  0  0  0  0  0  0
  1  2  1  0  0  0  0
  1  5  2  0  0  0  0
  2  6  2  0  0  0  0
  3  8  2  0  0  0  0
  3 17  1  0  0  0  0
  4  9  1  0  0  0  0
  4 17  2  0  0  0  0
  5 20  1  0  0  0  0
  6 22  1  0  0  0  0
  7 10  2  0  0  0  0
  7 21  1  0  0  0  0
  8 26  1  0  0  0  0
  9 26  2  0  0  0  0
 10 27  1  0  0  0  0
 11 12  2  0  0  0  0
 11 28  1  0  0  0  0
 12 29  1  0  0  0  0
 13 23  1  0  0  0  0
 13 27  2  0  0  0  0
 14 24  2  0  0  0  0
 14 25  1  0  0  0  0
 15 25  2  0  0  0  0
 15 30  1  0  0  0  0
 16 29  2  0  0  0  0
 16 31  1  0  0  0  0
 17 32  1  0  0  0  0
 18 24  1  0  0  0  0
 18 30  2  0  0  0  0
 18 34  1  0  0  0  0
 19 32  1  0  0  0  0
 19 33  2  0  0  0  0
 19 35  1  0  0  0  0
 20 22  2  0  0  0  0
 20 40  1  0  0  0  0
 21 23  2  0  0  0  0
 21 41  1  0  0  0  0
 22 49  1  0  0  0  0
 23 42  1  0  0  0  0
 24 52  1  0  0  0  0
 25 70  1  0  0  0  0
 26 80  1  0  0  0  0
 27 81  1  0  0  0  0
 28 31  2  0  0  0  0
 28 80  1  0  0  0  0
 29 82  1  0  0  0  0
 30 83  1  0  0  0  0
 31 84  1  0  0  0  0
 32 63  2  0  0  0  0
 33 64  1  0  0  0  0
 33 67  1  0  0  0  0
 34 68  1  0  0  0  0
 34 73  2  0  0  0  0
 35 69  1  0  0  0  0
 35 75  2  0  0  0  0
 36 50  1  0  0  0  0
 36 71  1  0  0  0  0
 36 76  2  0  0  0  0
 37 60  1  0  0  0  0
 37 65  1  0  0  0  0
 37 77  2  0  0  0  0
 38 61  1  0  0  0  0
 38 72  1  0  0  0  0
 38 78  2  0  0  0  0
 39 66  1  0  0  0  0
 39 70  1  0  0  0  0
 39 79  2  0  0  0  0
 40 43  1  0  0  0  0
 41 50  1  0  0  0  0
 42 65  1  0  0  0  0
 43 45  1  0  0  0  0
 44 46  1  0  0  0  0
 44 47  1  0  0  0  0
 45 49  1  0  0  0  0
 46 51  1  0  0  0  0
 47 66  1  0  0  0  0
 48 51  1  0  0  0  0
 48 66  1  0  0  0  0
 49 71  1  0  0  0  0
 50 65  1  0  0  0  0
 51 64  1  0  0  0  0
 53 61  1  0  0  0  0
 54 62  1  0  0  0  0
 55 62  1  0  0  0  0
 56 62  1  0  0  0  0
 57 74  1  0  0  0  0
 58 59  1  0  0  0  0
 58 73  1  0  0  0  0
 59 81  1  0  0  0  0
 60 62  1  0  0  0  0
 60 72  1  0  0  0  0
 61 74  1  0  0  0  0
 63 64  1  0  0  0  0
M  CHG  2  73   1  74   1
M  ISO  4  39 100  59 101  70 100  81 101
M  END
> <Batch ID>
0047

> <Smiles>
CNC(C)C(=O)NC(C(=O)N1Cc2cc([101O:1][101CH2:1]CNC(=N)c3c(C)cc([100NH:0][100C:0](=O)N4CCCC(n5nc(-c6ccc(Oc7ccc(F)cc7F)cc6)c(C(N)=O)c5N)C4)cc3F)ccc2CC1C(=O)NC1CCCc2ccccc21)C(C)(C)C

> <Shape>
0.237

> <Color>
0.066

> <Negative vol penalty>
0.000

$$$$

  -OEChem-04042322263D

 87 95  0     1  0  0  0  0  0999 V2000
  -28.4999  -37.7762   22.0403 C   0  0  0  0  0  0  0  0  0  0  0  0
  -28.9279  -36.5082   21.6605 C   0  0  0  0  0  0  0  0  0  0  0  0
  -22.4784  -14.2586   24.2461 C   0  0  0  0  0  0  0  0  0  0  0  0
  -21.7507  -15.1470   22.1204 C   0  0  0  0  0  0  0  0  0  0  0  0
  -27.4585  -37.9136   22.9571 C   0  0  0  0  0  0  0  0  0  0  0  0
  -28.3155  -35.3767   22.1982 C   0  0  0  0  0  0  0  0  0  0  0  0
  -27.3181  -30.0362   19.3714 C   0  0  0  0  0  0  0  0  0  0  0  0
  -27.4037  -19.0989   15.5418 C   0  0  0  0  0  0  0  0  0  0  0  0
  -21.3223  -14.7543   24.8489 C   0  0  0  0  0  0  0  0  0  0  0  0
  -20.5947  -15.6426   22.7233 C   0  0  0  0  0  0  0  0  0  0  0  0
  -28.0066  -28.8240   19.3864 C   0  0  0  0  0  0  0  0  0  0  0  0
  -18.0655  -13.8773   25.0880 C   0  0  0  0  0  0  0  0  0  0  0  0
  -17.3783  -13.0353   25.9623 C   0  0  0  0  0  0  0  0  0  0  0  0
  -27.9111  -20.3601   15.8543 C   0  0  0  0  0  0  0  0  0  0  0  0
  -26.5041  -27.9986   21.0836 C   0  0  0  0  0  0  0  0  0  0  0  0
  -17.7013  -14.6279   27.7501 C   0  0  0  0  0  0  0  0  0  0  0  0
  -22.6926  -14.4550   22.8818 C   0  0  0  0  0  0  0  0  0  0  0  0
  -24.0628  -12.6775   21.6690 C   0  0  0  0  0  0  0  0  0  0  0  0
  -26.8265  -36.7833   23.4989 C   0  0  0  0  0  0  0  0  0  0  0  0
  -26.2222  -30.2430   20.2216 C   0  0  0  0  0  0  0  0  0  0  0  0
  -27.2655  -35.4991   23.1241 C   0  0  0  0  0  0  0  0  0  0  0  0
  -25.8018  -29.2134   21.0756 C   0  0  0  0  0  0  0  0  0  0  0  0
  -27.4818  -18.0649   16.4749 C   0  0  0  0  0  0  0  0  0  0  0  0
  -28.5748  -19.5533   18.0328 C   0  0  0  0  0  0  0  0  0  0  0  0
  -28.0673  -18.2921   17.7203 C   0  0  0  0  0  0  0  0  0  0  0  0
  -20.3805  -15.4462   24.0876 C   0  0  0  0  0  0  0  0  0  0  0  0
  -27.6015  -27.8060   20.2447 C   0  0  0  0  0  0  0  0  0  0  0  0
  -18.5708  -15.0946   25.5448 C   0  0  0  0  0  0  0  0  0  0  0  0
  -17.1962  -13.4106   27.2933 C   0  0  0  0  0  0  0  0  0  0  0  0
  -18.3886  -15.4699   26.8759 C   0  0  0  0  0  0  0  0  0  0  0  0
  -28.4966  -20.5872   17.0998 C   0  0  0  0  0  0  0  0  0  0  0  0
  -23.8869  -13.9437   22.2585 C   0  0  0  0  0  0  0  0  0  0  0  0
  -25.3626  -12.6829   21.2253 C   0  0  0  0  0  0  0  0  0  0  0  0
  -28.1807  -23.2135   20.6351 C   0  0  0  0  0  0  0  0  0  0  0  0
  -28.6576  -24.4050   21.0221 C   0  0  0  0  0  0  0  0  0  0  0  0
  -23.1342  -11.5935   21.5343 C   0  0  0  0  0  0  0  0  0  0  0  0
  -29.0973  -22.0410   20.5369 C   0  0  0  0  0  0  0  0  0  0  0  0
  -25.5701  -32.2597   22.5904 C   0  0  0  0  0  0  0  0  0  0  0  0
  -22.6396  -30.8771   22.4397 C   0  0  0  0  0  0  0  0  0  0  0  0
  -20.7542  -28.1719   21.5600 C   0  0  0  0  0  0  0  0  0  0  0  0
  -29.1187  -17.0534   19.6456 C   0  0  0  0  0  0  0  0  0  0  0  0
  -25.7366  -36.9817   24.5224 C   0  0  0  0  0  0  0  0  0  0  0  0
  -25.4736  -31.5467   20.1741 C   0  0  0  0  0  0  0  0  0  0  0  0
  -24.6190  -29.3778   21.9935 C   0  0  0  0  0  0  0  0  0  0  0  0
  -24.8906  -35.7336   24.7610 C   0  0  0  0  0  0  0  0  0  0  0  0
  -29.6391  -14.6128   22.1852 C   0  0  0  0  0  0  0  0  0  0  0  0
  -25.7831  -34.5083   24.9314 C   0  0  0  0  0  0  0  0  0  0  0  0
  -28.2400  -14.0448   22.4343 C   0  0  0  0  0  0  0  0  0  0  0  0
  -29.5990  -16.1120   21.8946 C   0  0  0  0  0  0  0  0  0  0  0  0
  -27.2848  -15.9434   21.0669 C   0  0  0  0  0  0  0  0  0  0  0  0
  -26.6097  -34.2477   23.6664 C   0  0  1  0  0  0  0  0  0  0  0  0
  -24.6890  -31.8320   21.4510 C   0  0  1  0  0  0  0  0  0  0  0  0
  -27.2678  -14.4239   21.3000 C   0  0  2  0  0  0  0  0  0  0  0  0
  -26.9279  -16.7256   16.1105 C   0  0  0  0  0  0  0  0  0  0  0  0
  -18.3938  -27.3205   21.5949 C   0  0  0  0  0  0  0  0  0  0  0  0
  -22.8890  -30.3152   25.4284 C   0  0  0  0  0  0  0  0  0  0  0  0
  -21.0099  -28.6758   25.2061 C   0  0  0  0  0  0  0  0  0  0  0  0
  -20.6254  -31.0874   24.6974 C   0  0  0  0  0  0  0  0  0  0  0  0
  -27.1118  -20.5849   20.4157 C   0  0  0  0  0  0  0  0  0  0  0  0
  -20.6657  -27.9555   18.6097 C   0  0  0  0  0  0  0  0  0  0  0  0
  -29.2042  -19.7876   19.3756 C   0  0  0  0  0  0  0  0  0  0  0  0
  -27.8028  -25.6227   21.1659 C   0  0  0  0  0  0  0  0  0  1  0  0
  -21.9855  -29.6839   23.0936 C   0  0  1  0  0  0  0  0  0  0  0  0
  -19.4509  -28.0600   20.7896 C   0  0  2  0  0  0  0  0  0  0  0  0
  -21.6510  -29.9379   24.5906 C   0  0  0  0  0  0  0  0  0  0  0  0
  -24.9871  -14.6986   22.1968 N   0  0  0  0  0  0  0  0  0  0  0  0
  -25.8668  -13.9043   21.5633 N   0  0  0  0  0  0  0  0  0  0  0  0
  -23.9236  -30.6730   21.9148 N   0  0  0  0  0  0  0  0  0  0  0  0
  -28.6606  -16.3954   20.8065 N   0  0  0  0  0  0  0  0  0  0  0  0
  -26.1121  -11.7620   20.5831 N   0  0  0  0  0  0  0  0  0  0  0  0
  -21.8394  -11.7553   22.0460 N   0  0  0  0  0  0  0  0  0  0  0  0
  -28.1441  -17.2394   18.6657 N   0  0  0  0  0  0  0  0  0  0  0  0
  -25.7927  -33.6222   22.6487 N   0  0  0  0  0  0  0  0  0  0  0  0
  -20.8277  -29.3512   22.2707 N   0  0  0  0  0  0  0  0  0  0  0  0
  -28.5175  -20.8374   20.1259 N   0  0  0  0  0  0  0  0  0  0  0  0
  -19.6665  -27.3257   19.5108 N   0  3  0  0  0  0  0  0  0  0  0  0
  -23.4484  -10.5072   20.9913 O   0  0  0  0  0  0  0  0  0  0  0  0
  -30.2856  -22.1674   20.8360 O   0  0  0  0  0  0  0  0  0  0  0  0
  -26.0139  -31.4161   23.3606 O   0  0  0  0  0  0  0  0  0  0  0  0
  -22.0307  -31.9487   22.3900 O   0  0  0  0  0  0  0  0  0  0  0  0
  -21.6188  -27.2987   21.5368 O   0  0  0  0  0  0  0  0  0  0  0  0
  -30.2958  -17.4003   19.5180 O   0  0  0  0  0  0  0  0  0  0  0  0
  -19.2522  -15.9298   24.6755 O   0  0  0  0  0  0  0  0  0  0  0  0
  -28.2722  -26.6221   20.2618 O   0  0  0  0  0  0  0  0  0  1  0  0
  -16.5349  -12.6026   28.1323 F   0  0  0  0  0  0  0  0  0  0  0  0
  -18.8707  -16.6387   27.3202 F   0  0  0  0  0  0  0  0  0  0  0  0
  -29.1143  -22.1623   17.4450 Cl  0  0  0  0  0  0  0  0  0  0  0  0
  1  2  1  0  0  0  0
  1  5  2  0  0  0  0
  2  6  2  0  0  0  0
  3  9  2  0  0  0  0
  3 17  1  0  0  0  0
  4 10  1  0  0  0  0
  4 17  2  0  0  0  0
  5 19  1  0  0  0  0
  6 21  1  0  0  0  0
  7 11  2  0  0  0  0
  7 20  1  0  0  0  0
  8 14  1  0  0  0  0
  8 23  2  0  0  0  0
  9 26  1  0  0  0  0
 10 26  2  0  0  0  0
 11 27  1  0  0  0  0
 12 13  2  0  0  0  0
 12 28  1  0  0  0  0
 13 29  1  0  0  0  0
 14 31  2  0  0  0  0
 15 22  1  0  0  0  0
 15 27  2  0  0  0  0
 16 29  2  0  0  0  0
 16 30  1  0  0  0  0
 17 32  1  0  0  0  0
 18 32  1  0  0  0  0
 18 33  2  0  0  0  0
 18 36  1  0  0  0  0
 19 21  2  0  0  0  0
 19 42  1  0  0  0  0
 20 22  2  0  0  0  0
 20 43  1  0  0  0  0
 21 51  1  0  0  0  0
 22 44  1  0  0  0  0
 23 25  1  0  0  0  0
 23 54  1  0  0  0  0
 24 25  2  0  0  0  0
 24 31  1  0  0  0  0
 24 61  1  0  0  0  0
 25 72  1  0  0  0  0
 26 83  1  0  0  0  0
 27 84  1  0  0  0  0
 28 30  2  0  0  0  0
 28 83  1  0  0  0  0
 29 85  1  0  0  0  0
 30 86  1  0  0  0  0
 31 87  1  0  0  0  0
 32 66  2  0  0  0  0
 33 67  1  0  0  0  0
 33 70  1  0  0  0  0
 34 35  2  0  0  0  0
 34 37  1  0  0  0  0
 35 62  1  0  0  0  0
 36 71  1  0  0  0  0
 36 77  2  0  0  0  0
 37 75  1  0  0  0  0
 37 78  2  0  0  0  0
 38 52  1  0  0  0  0
 38 73  1  0  0  0  0
 38 79  2  0  0  0  0
 39 63  1  0  0  0  0
 39 68  1  0  0  0  0
 39 80  2  0  0  0  0
 40 64  1  0  0  0  0
 40 74  1  0  0  0  0
 40 81  2  0  0  0  0
 41 69  1  0  0  0  0
 41 72  1  0  0  0  0
 41 82  2  0  0  0  0
 42 45  1  0  0  0  0
 43 52  1  0  0  0  0
 44 68  1  0  0  0  0
 45 47  1  0  0  0  0
 46 48  1  0  0  0  0
 46 49  1  0  0  0  0
 47 51  1  0  0  0  0
 48 53  1  0  0  0  0
 49 69  1  0  0  0  0
 50 53  1  0  0  0  0
 50 69  1  0  0  0  0
 51 73  1  0  0  0  0
 52 68  1  0  0  0  0
 53 67  1  0  0  0  0
 55 64  1  0  0  0  0
 56 65  1  0  0  0  0
 57 65  1  0  0  0  0
 58 65  1  0  0  0  0
 59 75  1  0  0  0  0
 60 76  1  0  0  0  0
 61 75  1  0  0  0  0
 62 84  1  0  0  0  0
 63 65  1  0  0  0  0
 63 74  1  0  0  0  0
 64 76  1  0  0  0  0
 66 67  1  0  0  0  0
M  CHG  1  76   1
M  ISO  4  41 100  62 101  72 100  84 101
M  END
> <Batch ID>
0047

> <Smiles>
CNC(C)C(=O)NC(C(=O)N1Cc2cc([101O:1][101CH2:1]C=CC(=O)N(C)Cc3c(Cl)ccc(C)c3[100NH:0][100C:0](=O)N3CCCC(n4nc(-c5ccc(Oc6ccc(F)cc6F)cc5)c(C(N)=O)c4N)C3)ccc2CC1C(=O)NC1CCCc2ccccc21)C(C)(C)C

> <Shape>
0.275

> <Color>
0.097

> <Negative vol penalty>
0.000

$$$$

  -OEChem-04042322263D

 87 96  0     1  0  0  0  0  0999 V2000
  -16.6515  -31.8571   20.3541 C   0  0  0  0  0  0  0  0  0  0  0  0
  -17.9301  -32.3978   20.4443 C   0  0  0  0  0  0  0  0  0  0  0  0
  -25.8102  -12.7567   19.3758 C   0  0  0  0  0  0  0  0  0  0  0  0
  -24.8925  -13.2922   21.5456 C   0  0  0  0  0  0  0  0  0  0  0  0
  -16.3218  -30.7226   21.0943 C   0  0  0  0  0  0  0  0  0  0  0  0
  -18.8796  -31.8049   21.2759 C   0  0  0  0  0  0  0  0  0  0  0  0
  -26.0164  -29.1103   19.5932 C   0  0  0  0  0  0  0  0  0  0  0  0
  -32.0027  -23.1893   17.0077 C   0  0  0  0  0  0  0  0  0  0  0  0
  -31.2554  -22.3411   16.1905 C   0  0  0  0  0  0  0  0  0  0  0  0
  -24.9659  -11.6497   19.2918 C   0  0  0  0  0  0  0  0  0  0  0  0
  -24.0480  -12.1851   21.4616 C   0  0  0  0  0  0  0  0  0  0  0  0
  -27.2315  -28.4567   19.3868 C   0  0  0  0  0  0  0  0  0  0  0  0
  -24.2775   -8.8388   21.8865 C   0  0  0  0  0  0  0  0  0  0  0  0
  -24.1656   -8.0223   23.0118 C   0  0  0  0  0  0  0  0  0  0  0  0
  -26.7998  -27.0302   21.2912 C   0  0  0  0  0  0  0  0  0  0  0  0
  -21.7944   -8.4761   23.1052 C   0  0  0  0  0  0  0  0  0  0  0  0
  -25.7736  -13.5780   20.5027 C   0  0  0  0  0  0  0  0  0  0  0  0
  -28.0535  -14.7209   20.5617 C   0  0  0  0  0  0  0  0  0  0  0  0
  -17.2706  -30.1098   21.9280 C   0  0  0  0  0  0  0  0  0  0  0  0
  -25.1804  -28.7156   20.6414 C   0  0  0  0  0  0  0  0  0  0  0  0
  -18.5618  -30.6619   22.0290 C   0  0  0  0  0  0  0  0  0  0  0  0
  -25.5759  -27.6729   21.4953 C   0  0  0  0  0  0  0  0  0  0  0  0
  -31.7092  -23.2841   18.3681 C   0  0  0  0  0  0  0  0  0  0  0  0
  -30.2146  -21.5879   16.7336 C   0  0  0  0  0  0  0  0  0  0  0  0
  -30.6683  -22.5309   18.9112 C   0  0  0  0  0  0  0  0  0  0  0  0
  -29.9210  -21.6827   18.0940 C   0  0  0  0  0  0  0  0  0  0  0  0
  -24.0847  -11.3639   20.3346 C   0  0  0  0  0  0  0  0  0  0  0  0
  -27.6223  -27.4194   20.2339 C   0  0  0  0  0  0  0  0  0  0  0  0
  -23.1479   -9.4741   21.3706 C   0  0  0  0  0  0  0  0  0  0  0  0
  -22.9240   -7.8408   23.6211 C   0  0  0  0  0  0  0  0  0  0  0  0
  -21.9063   -9.2927   21.9800 C   0  0  0  0  0  0  0  0  0  0  0  0
  -26.6460  -14.7214   20.5903 C   0  0  0  0  0  0  0  0  0  0  0  0
  -28.3997  -16.0451   20.6765 C   0  0  0  0  0  0  0  0  0  0  0  0
  -31.5997  -25.7586   20.8949 C   0  0  0  0  0  0  0  0  0  0  0  0
  -28.9663  -13.6218   20.4419 C   0  0  0  0  0  0  0  0  0  0  0  0
  -21.9404  -29.2298   22.4618 C   0  0  0  0  0  0  0  0  0  0  0  0
  -22.3962  -26.2009   22.2921 C   0  0  0  0  0  0  0  0  0  0  0  0
  -22.0609  -22.8113   22.1041 C   0  0  0  0  0  0  0  0  0  0  0  0
  -27.7221  -21.3948   19.2891 C   0  0  0  0  0  0  0  0  0  0  0  0
  -16.8535  -28.9127   22.7451 C   0  0  0  0  0  0  0  0  0  0  0  0
  -23.8911  -29.4320   20.9385 C   0  0  0  0  0  0  0  0  0  0  0  0
  -24.6603  -27.3052   22.6308 C   0  0  0  0  0  0  0  0  0  0  0  0
  -30.9051  -27.0794   21.1799 C   0  0  0  0  0  0  0  0  0  0  0  0
  -18.0299  -28.1249   23.3158 C   0  0  0  0  0  0  0  0  0  0  0  0
  -25.5917  -20.0959   21.8290 C   0  0  0  0  0  0  0  0  0  0  0  0
  -19.0496  -29.0690   23.9449 C   0  0  0  0  0  0  0  0  0  0  0  0
  -25.7918  -18.5818   21.7308 C   0  0  0  0  0  0  0  0  0  0  0  0
  -30.7062  -27.5217   18.7434 C   0  0  0  0  0  0  0  0  0  0  0  0
  -25.6206  -20.7621   20.4546 C   0  0  0  0  0  0  0  0  0  0  0  0
  -31.1532  -26.1021   18.4403 C   0  0  0  0  0  0  0  0  0  0  0  0
  -27.0023  -18.9384   19.5411 C   0  0  0  0  0  0  0  0  0  0  0  0
  -19.6267  -30.0327   22.9010 C   0  0  1  0  0  0  0  0  0  0  0  0
  -22.7880  -28.4962   21.4645 C   0  0  1  0  0  0  0  0  0  0  0  0
  -27.0456  -18.2314   20.9057 C   0  0  2  0  0  0  0  0  0  0  0  0
  -29.9880  -27.5778   20.0779 C   0  0  1  0  0  0  0  0  0  1  0  0
  -29.4318  -20.6886   15.8322 C   0  0  0  0  0  0  0  0  0  0  0  0
  -30.3581  -22.6387   20.3716 C   0  0  0  0  0  0  0  0  0  0  0  0
  -20.9799  -20.8711   23.2722 C   0  0  0  0  0  0  0  0  0  0  0  0
  -24.5199  -26.3380   24.4772 C   0  0  0  0  0  0  0  0  0  0  0  0
  -24.0118  -23.9478   25.0223 C   0  0  0  0  0  0  0  0  0  0  0  0
  -22.2413  -25.6866   25.2760 C   0  0  0  0  0  0  0  0  0  0  0  0
  -20.4614  -22.1139   19.7137 C   0  0  0  0  0  0  0  0  0  0  0  0
  -32.5293  -24.2050   19.2246 C   0  0  0  0  0  0  0  0  0  0  0  0
  -22.9471  -24.9654   22.9579 C   0  0  1  0  0  0  0  0  0  0  0  0
  -20.8382  -21.9143   22.1748 C   0  0  2  0  0  0  0  0  0  0  0  0
  -23.4379  -25.2419   24.4071 C   0  0  0  0  0  0  0  0  0  0  0  0
  -26.1332  -15.9485   20.7138 N   0  0  0  0  0  0  0  0  0  0  0  0
  -27.2243  -16.7314   20.7639 N   0  0  0  0  0  0  0  0  0  0  0  0
  -31.8077  -25.4259   19.5586 N   0  0  0  0  0  0  0  0  0  0  0  0
  -23.2643  -27.2923   22.1666 N   0  0  0  0  0  0  0  0  0  0  0  0
  -26.8386  -20.3880   19.7324 N   0  0  0  0  0  0  0  0  0  0  0  0
  -29.5918  -16.6777   20.7104 N   0  0  0  0  0  0  0  0  0  0  0  0
  -29.4167  -12.9967   21.6127 N   0  0  0  0  0  0  0  0  0  0  0  0
  -28.8624  -20.9178   18.6434 N   0  0  0  0  0  0  0  0  0  0  0  0
  -20.6171  -29.3617   22.0866 N   0  0  0  0  0  0  0  0  0  0  0  0
  -21.9028  -23.9510   22.8640 N   0  0  0  0  0  0  0  0  0  0  0  0
  -20.6383  -21.2081   20.8778 N   0  3  0  0  0  0  0  0  0  0  0  0
  -32.0110  -25.0863   21.8451 O   0  0  0  0  0  0  0  0  0  0  0  0
  -29.3835  -13.2169   19.3304 O   0  0  0  0  0  0  0  0  0  0  0  0
  -22.4482  -29.6448   23.4970 O   0  0  0  0  0  0  0  0  0  0  0  0
  -21.2265  -26.2031   21.8982 O   0  0  0  0  0  0  0  0  0  0  0  0
  -23.0580  -22.5275   21.4440 O   0  0  0  0  0  0  0  0  0  0  0  0
  -27.4981  -22.5907   19.4931 O   0  0  0  0  0  0  0  0  0  0  0  0
  -23.2605  -10.2839   20.2529 O   0  0  0  0  0  0  0  0  0  0  0  0
  -28.8077  -26.7826   20.0240 O   0  0  0  0  0  0  0  0  0  1  0  0
  -22.8165   -7.0554   24.7008 F   0  0  0  0  0  0  0  0  0  0  0  0
  -20.8173   -9.8994   21.4882 F   0  0  0  0  0  0  0  0  0  0  0  0
  1  2  1  0  0  0  0
  1  5  2  0  0  0  0
  2  6  2  0  0  0  0
  3 10  2  0  0  0  0
  3 17  1  0  0  0  0
  4 11  1  0  0  0  0
  4 17  2  0  0  0  0
  5 19  1  0  0  0  0
  6 21  1  0  0  0  0
  7 12  2  0  0  0  0
  7 20  1  0  0  0  0
  8  9  2  0  0  0  0
  8 23  1  0  0  0  0
  9 24  1  0  0  0  0
 10 27  1  0  0  0  0
 11 27  2  0  0  0  0
 12 28  1  0  0  0  0
 13 14  2  0  0  0  0
 13 29  1  0  0  0  0
 14 30  1  0  0  0  0
 15 22  1  0  0  0  0
 15 28  2  0  0  0  0
 16 30  2  0  0  0  0
 16 31  1  0  0  0  0
 17 32  1  0  0  0  0
 18 32  1  0  0  0  0
 18 33  2  0  0  0  0
 18 35  1  0  0  0  0
 19 21  2  0  0  0  0
 19 40  1  0  0  0  0
 20 22  2  0  0  0  0
 20 41  1  0  0  0  0
 21 52  1  0  0  0  0
 22 42  1  0  0  0  0
 23 25  2  0  0  0  0
 23 63  1  0  0  0  0
 24 26  2  0  0  0  0
 24 56  1  0  0  0  0
 25 26  1  0  0  0  0
 25 57  1  0  0  0  0
 26 74  1  0  0  0  0
 27 84  1  0  0  0  0
 28 85  1  0  0  0  0
 29 31  2  0  0  0  0
 29 84  1  0  0  0  0
 30 86  1  0  0  0  0
 31 87  1  0  0  0  0
 32 67  2  0  0  0  0
 33 68  1  0  0  0  0
 33 72  1  0  0  0  0
 34 43  1  0  0  0  0
 34 69  1  0  0  0  0
 34 78  2  0  0  0  0
 35 73  1  0  0  0  0
 35 79  2  0  0  0  0
 36 53  1  0  0  0  0
 36 75  1  0  0  0  0
 36 80  2  0  0  0  0
 37 64  1  0  0  0  0
 37 70  1  0  0  0  0
 37 81  2  0  0  0  0
 38 65  1  0  0  0  0
 38 76  1  0  0  0  0
 38 82  2  0  0  0  0
 39 71  1  0  0  0  0
 39 74  1  0  0  0  0
 39 83  2  0  0  0  0
 40 44  1  0  0  0  0
 41 53  1  0  0  0  0
 42 70  1  0  0  0  0
 43 55  1  0  0  0  0
 44 46  1  0  0  0  0
 45 47  1  0  0  0  0
 45 49  1  0  0  0  0
 46 52  1  0  0  0  0
 47 54  1  0  0  0  0
 48 50  1  0  0  0  0
 48 55  1  0  0  0  0
 49 71  1  0  0  0  0
 50 69  1  0  0  0  0
 51 54  1  0  0  0  0
 51 71  1  0  0  0  0
 52 75  1  0  0  0  0
 53 70  1  0  0  0  0
 54 68  1  0  0  0  0
 55 85  1  0  0  0  0
 58 65  1  0  0  0  0
 59 66  1  0  0  0  0
 60 66  1  0  0  0  0
 61 66  1  0  0  0  0
 62 77  1  0  0  0  0
 63 69  1  0  0  0  0
 64 66  1  0  0  0  0
 64 76  1  0  0  0  0
 65 77  1  0  0  0  0
 67 68  1  0  0  0  0
M  CHG  1  77   1
M  ISO  4  39 100  55 101  74 100  85 101
M  END
> <Batch ID>
0047

> <Smiles>
CNC(C)C(=O)NC(C(=O)N1Cc2cc([101O:1][101CH:1]3CCN(Cc4ccc(C)c([100NH:0][100C:0](=O)N5CCCC(n6nc(-c7ccc(Oc8ccc(F)cc8F)cc7)c(C(N)=O)c6N)C5)c4C)C(=O)C3)ccc2CC1C(=O)NC1CCCc2ccccc21)C(C)(C)C

> <Shape>
0.260

> <Color>
0.083

> <Negative vol penalty>
0.000

$$$$

  -OEChem-04042322263D

 90 99  0     1  0  0  0  0  0999 V2000
  -20.4360  -31.8032   22.9661 C   0  0  0  0  0  0  0  0  0  0  0  0
  -21.3069  -30.7986   23.3755 C   0  0  0  0  0  0  0  0  0  0  0  0
  -23.0109  -10.6014   21.9346 C   0  0  0  0  0  0  0  0  0  0  0  0
  -23.8201   -9.3906   20.0069 C   0  0  0  0  0  0  0  0  0  0  0  0
  -19.0662  -31.5520   22.8987 C   0  0  0  0  0  0  0  0  0  0  0  0
  -20.8084  -29.5423   23.7187 C   0  0  0  0  0  0  0  0  0  0  0  0
  -23.5314  -25.7627   21.7325 C   0  0  0  0  0  0  0  0  0  0  0  0
  -22.2387   -9.4996   22.3025 C   0  0  0  0  0  0  0  0  0  0  0  0
  -23.0479   -8.2888   20.3748 C   0  0  0  0  0  0  0  0  0  0  0  0
  -24.7361  -25.4480   22.3596 C   0  0  0  0  0  0  0  0  0  0  0  0
  -22.7191   -6.5151   23.8173 C   0  0  0  0  0  0  0  0  0  0  0  0
  -22.7353   -6.1308   25.1580 C   0  0  0  0  0  0  0  0  0  0  0  0
  -23.6649  -23.5965   23.4749 C   0  0  0  0  0  0  0  0  0  0  0  0
  -28.9660  -18.4595   21.4428 C   0  0  0  0  0  0  0  0  0  0  0  0
  -30.9564  -17.9457   20.1734 C   0  0  0  0  0  0  0  0  0  0  0  0
  -20.3499   -6.4910   25.2899 C   0  0  0  0  0  0  0  0  0  0  0  0
  -23.8016  -10.5469   20.7868 C   0  0  0  0  0  0  0  0  0  0  0  0
  -24.1408  -12.9808   20.1020 C   0  0  0  0  0  0  0  0  0  0  0  0
  -18.5517  -30.2891   23.2319 C   0  0  0  0  0  0  0  0  0  0  0  0
  -22.3797  -25.0020   21.9807 C   0  0  0  0  0  0  0  0  0  0  0  0
  -19.4303  -29.2744   23.6569 C   0  0  0  0  0  0  0  0  0  0  0  0
  -22.4474  -23.9021   22.8477 C   0  0  0  0  0  0  0  0  0  0  0  0
  -29.1160  -19.8108   21.1311 C   0  0  0  0  0  0  0  0  0  0  0  0
  -31.1064  -19.2970   19.8616 C   0  0  0  0  0  0  0  0  0  0  0  0
  -30.1862  -20.2295   20.3405 C   0  0  0  0  0  0  0  0  0  0  0  0
  -29.8862  -17.5270   20.9640 C   0  0  0  0  0  0  0  0  0  0  0  0
  -22.2572   -8.3433   21.5226 C   0  0  0  0  0  0  0  0  0  0  0  0
  -24.8023  -24.3665   23.2332 C   0  0  0  0  0  0  0  0  0  0  0  0
  -21.5184   -6.8874   23.2128 C   0  0  0  0  0  0  0  0  0  0  0  0
  -21.5506   -6.1187   25.8944 C   0  0  0  0  0  0  0  0  0  0  0  0
  -20.3338   -6.8753   23.9492 C   0  0  0  0  0  0  0  0  0  0  0  0
  -24.5992  -11.6849   20.4059 C   0  0  0  0  0  0  0  0  0  0  0  0
  -25.2805  -13.6872   19.8045 C   0  0  0  0  0  0  0  0  0  0  0  0
  -27.8811  -22.8404   22.9454 C   0  0  0  0  0  0  0  0  0  0  0  0
  -28.4620  -23.9683   22.5042 C   0  0  0  0  0  0  0  0  0  0  0  0
  -22.8042  -13.4996   20.0898 C   0  0  0  0  0  0  0  0  0  0  0  0
  -19.5176  -25.6058   23.2246 C   0  0  0  0  0  0  0  0  0  0  0  0
  -18.9087  -22.5527   22.3134 C   0  0  0  0  0  0  0  0  0  0  0  0
  -20.6502  -19.3932   22.3616 C   0  0  0  0  0  0  0  0  0  0  0  0
  -30.5568  -15.1000   20.8852 C   0  0  0  0  0  0  0  0  0  0  0  0
  -17.0588  -30.0791   23.1889 C   0  0  0  0  0  0  0  0  0  0  0  0
  -21.0943  -25.3383   21.2757 C   0  0  0  0  0  0  0  0  0  0  0  0
  -21.2445  -23.0415   23.1322 C   0  0  0  0  0  0  0  0  0  0  0  0
  -16.6497  -28.6086   23.2102 C   0  0  0  0  0  0  0  0  0  0  0  0
  -30.0267  -12.1077   19.0297 C   0  0  0  0  0  0  0  0  0  0  0  0
  -27.3428  -20.6772   24.7482 C   0  0  0  0  0  0  0  0  0  0  0  0
  -17.4221  -27.8552   24.2883 C   0  0  0  0  0  0  0  0  0  0  0  0
  -26.6062  -22.0012   24.9175 C   0  0  0  0  0  0  0  0  0  0  0  0
  -28.5297  -11.8376   19.1974 C   0  0  0  0  0  0  0  0  0  0  0  0
  -30.6446  -12.6861   20.3015 C   0  0  0  0  0  0  0  0  0  0  0  0
  -28.4688  -13.6028   21.0049 C   0  0  0  0  0  0  0  0  0  0  0  0
  -28.7175  -20.8808   24.1197 C   0  0  0  0  0  0  0  0  0  0  0  0
  -18.9304  -27.8913   24.0136 C   0  0  1  0  0  0  0  0  0  0  0  0
  -26.5185  -22.7646   23.5968 C   0  0  1  0  0  0  0  0  0  1  0  0
  -19.8600  -24.8078   21.9984 C   0  0  1  0  0  0  0  0  0  0  0  0
  -27.7889  -13.0802   19.7288 C   0  0  2  0  0  0  0  0  0  0  0  0
  -30.3466  -21.6785   20.0059 C   0  0  0  0  0  0  0  0  0  0  0  0
  -20.4171  -17.3791   20.8830 C   0  0  0  0  0  0  0  0  0  0  0  0
  -16.9868  -21.5563   24.4636 C   0  0  0  0  0  0  0  0  0  0  0  0
  -17.9127  -19.2547   24.1261 C   0  0  0  0  0  0  0  0  0  0  0  0
  -16.7544  -20.4190   22.2484 C   0  0  0  0  0  0  0  0  0  0  0  0
  -23.5294  -19.4185   21.6771 C   0  0  0  0  0  0  0  0  0  0  0  0
  -28.1129  -20.7937   21.6591 C   0  0  0  0  0  0  0  0  0  0  0  0
  -19.0533  -21.1955   22.9584 C   0  0  1  0  0  0  0  0  0  0  0  0
  -21.2101  -18.6458   21.1648 C   0  0  2  0  0  0  0  0  0  0  0  0
  -32.2609  -19.7192   19.0131 C   0  0  0  0  0  0  0  0  0  0  0  0
  -17.6940  -20.6280   23.4560 C   0  0  0  0  0  0  0  0  0  0  0  0
  -25.9266  -11.5718   20.3102 N   0  0  0  0  0  0  0  0  0  0  0  0
  -26.3121  -12.8057   19.9426 N   0  0  0  0  0  0  0  0  0  0  0  0
  -20.0092  -23.4145   22.4235 N   0  0  0  0  0  0  0  0  0  0  0  0
  -29.8932  -13.8629   20.7436 N   0  0  0  0  0  0  0  0  0  0  0  0
  -25.4909  -14.9701   19.4408 N   0  0  0  0  0  0  0  0  0  0  0  0
  -22.0689  -13.4237   18.8990 N   0  0  0  0  0  0  0  0  0  0  0  0
  -29.7335  -16.1541   21.2796 N   0  0  0  0  0  0  0  0  0  0  0  0
  -19.2780  -26.9439   22.9763 N   0  0  0  0  0  0  0  0  0  0  0  0
  -19.7325  -20.3501   21.9826 N   0  0  0  0  0  0  0  0  0  0  0  0
  -28.6399  -21.6170   22.8021 N   0  3  1  0  0  0  0  0  0  0  0  0
  -22.6304  -18.2665   21.4091 N   0  3  0  0  0  0  0  0  0  0  0  0
  -22.2834  -14.0301   21.1001 O   0  0  0  0  0  0  0  0  0  0  0  0
  -19.4727  -25.0485   24.3151 O   0  0  0  0  0  0  0  0  0  0  0  0
  -17.8608  -22.8351   21.7271 O   0  0  0  0  0  0  0  0  0  0  0  0
  -20.9899  -19.1499   23.5174 O   0  0  0  0  0  0  0  0  0  0  0  0
  -31.7609  -15.2215   20.6459 O   0  0  0  0  0  0  0  0  0  0  0  0
  -21.5039   -7.2679   21.8814 O   0  0  0  0  0  0  0  0  0  0  0  0
  -25.9768  -24.0575   23.8472 O   0  0  0  0  0  0  0  0  0  1  0  0
  -21.5660   -5.7482   27.1815 F   0  0  0  0  0  0  0  0  0  0  0  0
  -19.1770   -7.2308   23.3736 F   0  0  0  0  0  0  0  0  0  0  0  0
  -33.0634  -18.6836   18.6300 F   0  0  0  0  0  0  0  0  0  0  0  0
  -31.8878  -20.3317   17.8517 F   0  0  0  0  0  0  0  0  0  0  0  0
  -33.0810  -20.6044   19.6491 F   0  0  0  0  0  0  0  0  0  0  0  0
  1  2  1  0  0  0  0
  1  5  2  0  0  0  0
  2  6  2  0  0  0  0
  3  8  2  0  0  0  0
  3 17  1  0  0  0  0
  4  9  1  0  0  0  0
  4 17  2  0  0  0  0
  5 19  1  0  0  0  0
  6 21  1  0  0  0  0
  7 10  2  0  0  0  0
  7 20  1  0  0  0  0
  8 27  1  0  0  0  0
  9 27  2  0  0  0  0
 10 28  1  0  0  0  0
 11 12  2  0  0  0  0
 11 29  1  0  0  0  0
 12 30  1  0  0  0  0
 13 22  1  0  0  0  0
 13 28  2  0  0  0  0
 14 23  1  0  0  0  0
 14 26  2  0  0  0  0
 15 24  2  0  0  0  0
 15 26  1  0  0  0  0
 16 30  2  0  0  0  0
 16 31  1  0  0  0  0
 17 32  1  0  0  0  0
 18 32  1  0  0  0  0
 18 33  2  0  0  0  0
 18 36  1  0  0  0  0
 19 21  2  0  0  0  0
 19 41  1  0  0  0  0
 20 22  2  0  0  0  0
 20 42  1  0  0  0  0
 21 53  1  0  0  0  0
 22 43  1  0  0  0  0
 23 25  2  0  0  0  0
 23 63  1  0  0  0  0
 24 25  1  0  0  0  0
 24 66  1  0  0  0  0
 25 57  1  0  0  0  0
 26 74  1  0  0  0  0
 27 84  1  0  0  0  0
 28 85  1  0  0  0  0
 29 31  2  0  0  0  0
 29 84  1  0  0  0  0
 30 86  1  0  0  0  0
 31 87  1  0  0  0  0
 32 68  2  0  0  0  0
 33 69  1  0  0  0  0
 33 72  1  0  0  0  0
 34 35  2  0  0  0  0
 34 54  1  0  0  0  0
 34 77  1  0  0  0  0
 36 73  1  0  0  0  0
 36 79  2  0  0  0  0
 37 55  1  0  0  0  0
 37 75  1  0  0  0  0
 37 80  2  0  0  0  0
 38 64  1  0  0  0  0
 38 70  1  0  0  0  0
 38 81  2  0  0  0  0
 39 65  1  0  0  0  0
 39 76  1  0  0  0  0
 39 82  2  0  0  0  0
 40 71  1  0  0  0  0
 40 74  1  0  0  0  0
 40 83  2  0  0  0  0
 41 44  1  0  0  0  0
 42 55  1  0  0  0  0
 43 70  1  0  0  0  0
 44 47  1  0  0  0  0
 45 49  1  0  0  0  0
 45 50  1  0  0  0  0
 46 48  1  0  0  0  0
 46 52  1  0  0  0  0
 47 53  1  0  0  0  0
 48 54  1  0  0  0  0
 49 56  1  0  0  0  0
 50 71  1  0  0  0  0
 51 56  1  0  0  0  0
 51 71  1  0  0  0  0
 52 77  1  0  0  0  0
 53 75  1  0  0  0  0
 54 85  1  0  0  0  0
 55 70  1  0  0  0  0
 56 69  1  0  0  0  0
 58 65  1  0  0  0  0
 59 67  1  0  0  0  0
 60 67  1  0  0  0  0
 61 67  1  0  0  0  0
 62 78  1  0  0  0  0
 63 77  1  0  0  0  0
 64 67  1  0  0  0  0
 64 76  1  0  0  0  0
 65 78  1  0  0  0  0
 66 88  1  0  0  0  0
 66 89  1  0  0  0  0
 66 90  1  0  0  0  0
 68 69  1  0  0  0  0
M  CHG  2  77   1  78   1
M  ISO  4  40 100  54 101  74 100  85 101
M  END
> <Batch ID>
0047

> <Smiles>
C=C1N(Cc2cc([100NH:0][100C:0](=O)N3CCCC(n4nc(-c5ccc(Oc6ccc(F)cc6F)cc5)c(C(N)=O)c4N)C3)cc(C(F)(F)F)c2C)CCC[101CH:1]1[101O:1]c1ccc2c(c1)CN(C(=O)C(NC(=O)C(C)NC)C(C)(C)C)C(C(=O)NC1CCCc3ccccc31)C2

> <Shape>
0.234

> <Color>
0.137

> <Negative vol penalty>
0.000

$$$$

  -OEChem-04042322263D

 86 94  0     1  0  0  0  0  0999 V2000
  -28.7199  -23.7623   17.6160 C   0  0  0  0  0  0  0  0  0  0  0  0
  -27.5811  -23.8963   18.4038 C   0  0  0  0  0  0  0  0  0  0  0  0
  -26.8295  -13.1504   19.7091 C   0  0  0  0  0  0  0  0  0  0  0  0
  -24.9776  -13.7661   21.1333 C   0  0  0  0  0  0  0  0  0  0  0  0
  -29.8568  -24.5169   17.9021 C   0  0  0  0  0  0  0  0  0  0  0  0
  -27.5790  -24.7842   19.4790 C   0  0  0  0  0  0  0  0  0  0  0  0
  -23.3519  -27.5646   19.6940 C   0  0  0  0  0  0  0  0  0  0  0  0
  -26.6153  -11.8058   20.0117 C   0  0  0  0  0  0  0  0  0  0  0  0
  -24.7633  -12.4214   21.4359 C   0  0  0  0  0  0  0  0  0  0  0  0
  -22.2111  -26.9502   20.2086 C   0  0  0  0  0  0  0  0  0  0  0  0
  -23.3246   -9.7384   19.9689 C   0  0  0  0  0  0  0  0  0  0  0  0
  -22.0106   -9.2713   19.9435 C   0  0  0  0  0  0  0  0  0  0  0  0
  -24.7611  -24.7634   23.4458 C   0  0  0  0  0  0  0  0  0  0  0  0
  -22.5910  -28.0347   22.3296 C   0  0  0  0  0  0  0  0  0  0  0  0
  -26.5698  -23.7023   24.6458 C   0  0  0  0  0  0  0  0  0  0  0  0
  -22.1840   -8.6565   22.2735 C   0  0  0  0  0  0  0  0  0  0  0  0
  -26.0107  -14.1306   20.2699 C   0  0  0  0  0  0  0  0  0  0  0  0
  -24.0880  -23.5434   23.3817 C   0  0  0  0  0  0  0  0  0  0  0  0
  -25.6628  -16.2548   18.9008 C   0  0  0  0  0  0  0  0  0  0  0  0
  -29.8654  -25.4217   18.9755 C   0  0  0  0  0  0  0  0  0  0  0  0
  -24.1282  -28.4116   20.4980 C   0  0  0  0  0  0  0  0  0  0  0  0
  -28.7176  -25.5507   19.7806 C   0  0  0  0  0  0  0  0  0  0  0  0
  -23.7398  -28.6607   21.8221 C   0  0  0  0  0  0  0  0  0  0  0  0
  -25.8966  -22.4824   24.5818 C   0  0  0  0  0  0  0  0  0  0  0  0
  -24.6556  -22.4029   23.9497 C   0  0  0  0  0  0  0  0  0  0  0  0
  -25.5822  -11.4412   20.8751 C   0  0  0  0  0  0  0  0  0  0  0  0
  -21.8321  -27.1828   21.5274 C   0  0  0  0  0  0  0  0  0  0  0  0
  -24.0685   -9.6644   21.1466 C   0  0  0  0  0  0  0  0  0  0  0  0
  -21.4402   -8.7304   21.0957 C   0  0  0  0  0  0  0  0  0  0  0  0
  -26.0021  -24.8428   24.0778 C   0  0  0  0  0  0  0  0  0  0  0  0
  -23.4981   -9.1235   22.2989 C   0  0  0  0  0  0  0  0  0  0  0  0
  -26.2318  -15.5198   19.9581 C   0  0  0  0  0  0  0  0  0  0  0  0
  -26.1872  -17.5167   19.0387 C   0  0  0  0  0  0  0  0  0  0  0  0
  -22.7752  -23.4844   22.7081 C   0  0  0  0  0  0  0  0  0  0  0  0
  -24.7424  -15.8344   17.8850 C   0  0  0  0  0  0  0  0  0  0  0  0
  -27.1272  -28.3771   21.5511 C   0  0  0  0  0  0  0  0  0  0  0  0
  -26.3533  -31.3183   22.6793 C   0  0  0  0  0  0  0  0  0  0  0  0
  -23.9185  -33.4845   23.6922 C   0  0  0  0  0  0  0  0  0  0  0  0
  -28.3793  -20.5319   23.7242 C   0  0  0  0  0  0  0  0  0  0  0  0
  -31.1337  -26.1809   19.2747 C   0  0  0  0  0  0  0  0  0  0  0  0
  -25.3411  -29.0878   19.9200 C   0  0  0  0  0  0  0  0  0  0  0  0
  -24.5276  -29.5775   22.7206 C   0  0  0  0  0  0  0  0  0  0  0  0
  -30.9245  -27.3742   20.2035 C   0  0  0  0  0  0  0  0  0  0  0  0
  -30.0592  -19.8049   20.6704 C   0  0  0  0  0  0  0  0  0  0  0  0
  -30.0596  -26.9775   21.3957 C   0  0  0  0  0  0  0  0  0  0  0  0
  -29.2175  -18.6906   20.0462 C   0  0  0  0  0  0  0  0  0  0  0  0
  -30.1268  -19.6770   22.1906 C   0  0  0  0  0  0  0  0  0  0  0  0
  -27.9755  -18.4756   22.2393 C   0  0  0  0  0  0  0  0  0  0  0  0
  -28.6681  -26.5215   20.9404 C   0  0  1  0  0  0  0  0  0  0  0  0
  -26.3440  -29.5264   20.9826 C   0  0  1  0  0  0  0  0  0  0  0  0
  -27.8318  -18.5944   20.7124 C   0  0  2  0  0  0  0  0  0  0  0  0
  -23.9344  -21.0941   23.8812 C   0  0  0  0  0  0  0  0  0  0  0  0
  -23.5963  -35.8034   24.5955 C   0  0  0  0  0  0  0  0  0  0  0  0
  -18.9928  -25.3955   20.8409 C   0  0  0  0  0  0  0  0  0  0  0  0
  -27.3083  -30.3803   25.4212 C   0  0  0  0  0  0  0  0  0  0  0  0
  -26.1072  -32.3318   26.4299 C   0  0  0  0  0  0  0  0  0  0  0  0
  -27.9785  -32.7149   24.8255 C   0  0  0  0  0  0  0  0  0  0  0  0
  -22.2914  -34.2934   21.3561 C   0  0  0  0  0  0  0  0  0  0  0  0
  -26.5269  -21.2766   25.1984 C   0  0  0  0  0  0  0  0  0  0  0  0
  -20.4369  -24.2705   22.6035 C   0  0  0  0  0  0  0  0  0  0  0  0
  -25.7647  -31.8498   23.9638 C   0  0  1  0  0  0  0  0  0  0  0  0
  -23.6566  -34.9390   23.3457 C   0  0  2  0  0  0  0  0  0  0  0  0
  -20.3658  -25.3108   21.4932 C   0  0  2  0  0  0  0  0  0  1  0  0
  -26.7757  -31.8004   25.1440 C   0  0  0  0  0  0  0  0  0  0  0  0
  -27.0548  -16.2537   20.7119 N   0  0  0  0  0  0  0  0  0  0  0  0
  -27.0068  -17.4629   20.1275 N   0  0  0  0  0  0  0  0  0  0  0  0
  -25.7090  -30.2102   22.1111 N   0  0  0  0  0  0  0  0  0  0  0  0
  -28.7799  -19.5919   22.7604 N   0  0  0  0  0  0  0  0  0  0  0  0
  -26.0227  -18.6560   18.3334 N   0  0  0  0  0  0  0  0  0  0  0  0
  -22.6446  -22.6756   21.6566 N   0  0  0  0  0  0  0  0  0  0  0  0
  -24.3045  -14.5031   17.8897 N   0  0  0  0  0  0  0  0  0  0  0  0
  -27.8448  -27.6647   20.6093 N   0  0  0  0  0  0  0  0  0  0  0  0
  -25.2644  -33.1864   23.6612 N   0  0  0  0  0  0  0  0  0  0  0  0
  -27.0852  -20.3833   24.2078 N   0  0  0  0  0  0  0  0  0  0  0  0
  -21.7826  -24.2457   23.1832 N   0  3  0  0  0  0  0  0  0  0  0  0
  -22.3627  -35.0734   22.6185 N   0  3  0  0  0  0  0  0  0  0  0  0
  -24.3336  -16.6120   16.9896 O   0  0  0  0  0  0  0  0  0  0  0  0
  -27.0847  -28.1540   22.7554 O   0  0  0  0  0  0  0  0  0  0  0  0
  -27.3439  -31.8705   22.1940 O   0  0  0  0  0  0  0  0  0  0  0  0
  -23.0194  -32.6928   23.9668 O   0  0  0  0  0  0  0  0  0  0  0  0
  -29.1182  -21.4397   24.1203 O   0  0  0  0  0  0  0  0  0  0  0  0
  -25.3727  -10.1292   21.1705 O   0  0  0  0  0  0  0  0  0  0  0  0
  -20.7194  -26.5838   22.0323 O   0  0  0  0  0  0  0  0  0  1  0  0
  -20.1778   -8.2834   21.0716 F   0  0  0  0  0  0  0  0  0  0  0  0
  -26.6491  -26.0144   24.1373 F   0  0  0  0  0  0  0  0  0  0  0  0
  -24.2073   -9.0509   23.4336 F   0  0  0  0  0  0  0  0  0  0  0  0
  1  2  1  0  0  0  0
  1  5  2  0  0  0  0
  2  6  2  0  0  0  0
  3  8  2  0  0  0  0
  3 17  1  0  0  0  0
  4  9  1  0  0  0  0
  4 17  2  0  0  0  0
  5 20  1  0  0  0  0
  6 22  1  0  0  0  0
  7 10  2  0  0  0  0
  7 21  1  0  0  0  0
  8 26  1  0  0  0  0
  9 26  2  0  0  0  0
 10 27  1  0  0  0  0
 11 12  2  0  0  0  0
 11 28  1  0  0  0  0
 12 29  1  0  0  0  0
 13 18  1  0  0  0  0
 13 30  2  0  0  0  0
 14 23  1  0  0  0  0
 14 27  2  0  0  0  0
 15 24  2  0  0  0  0
 15 30  1  0  0  0  0
 16 29  2  0  0  0  0
 16 31  1  0  0  0  0
 17 32  1  0  0  0  0
 18 25  2  0  0  0  0
 18 34  1  0  0  0  0
 19 32  1  0  0  0  0
 19 33  2  0  0  0  0
 19 35  1  0  0  0  0
 20 22  2  0  0  0  0
 20 40  1  0  0  0  0
 21 23  2  0  0  0  0
 21 41  1  0  0  0  0
 22 49  1  0  0  0  0
 23 42  1  0  0  0  0
 24 25  1  0  0  0  0
 24 59  1  0  0  0  0
 25 52  1  0  0  0  0
 26 82  1  0  0  0  0
 27 83  1  0  0  0  0
 28 31  2  0  0  0  0
 28 82  1  0  0  0  0
 29 84  1  0  0  0  0
 30 85  1  0  0  0  0
 31 86  1  0  0  0  0
 32 65  2  0  0  0  0
 33 66  1  0  0  0  0
 33 69  1  0  0  0  0
 34 70  1  0  0  0  0
 34 75  2  0  0  0  0
 35 71  1  0  0  0  0
 35 77  2  0  0  0  0
 36 50  1  0  0  0  0
 36 72  1  0  0  0  0
 36 78  2  0  0  0  0
 37 61  1  0  0  0  0
 37 67  1  0  0  0  0
 37 79  2  0  0  0  0
 38 62  1  0  0  0  0
 38 73  1  0  0  0  0
 38 80  2  0  0  0  0
 39 68  1  0  0  0  0
 39 74  1  0  0  0  0
 39 81  2  0  0  0  0
 40 43  1  0  0  0  0
 41 50  1  0  0  0  0
 42 67  1  0  0  0  0
 43 45  1  0  0  0  0
 44 46  1  0  0  0  0
 44 47  1  0  0  0  0
 45 49  1  0  0  0  0
 46 51  1  0  0  0  0
 47 68  1  0  0  0  0
 48 51  1  0  0  0  0
 48 68  1  0  0  0  0
 49 72  1  0  0  0  0
 50 67  1  0  0  0  0
 51 66  1  0  0  0  0
 53 62  1  0  0  0  0
 54 63  1  0  0  0  0
 55 64  1  0  0  0  0
 56 64  1  0  0  0  0
 57 64  1  0  0  0  0
 58 76  1  0  0  0  0
 59 74  1  0  0  0  0
 60 63  1  0  0  0  0
 60 75  1  0  0  0  0
 61 64  1  0  0  0  0
 61 73  1  0  0  0  0
 62 76  1  0  0  0  0
 63 83  1  0  0  0  0
 65 66  1  0  0  0  0
M  CHG  2  75   1  76   1
M  ISO  4  39 100  63 101  74 100  83 101
M  END
> <Batch ID>
0047

> <Smiles>
CNC(C)C(=O)NC(C(=O)N1Cc2cc([101O:1][101CH:1](C)CNC(=N)c3cc(F)cc(C[100NH:0][100C:0](=O)N4CCCC(n5nc(-c6ccc(Oc7ccc(F)cc7F)cc6)c(C(N)=O)c5N)C4)c3C)ccc2CC1C(=O)NC1CCCc2ccccc21)C(C)(C)C

> <Shape>
0.284

> <Color>
0.070

> <Negative vol penalty>
0.000

$$$$

  -OEChem-04042322263D

 87 96  0     1  0  0  0  0  0999 V2000
  -18.8013  -27.6024   23.6722 C   0  0  0  0  0  0  0  0  0  0  0  0
  -19.9005  -26.7724   23.4762 C   0  0  0  0  0  0  0  0  0  0  0  0
  -23.2605  -16.5776   21.6521 C   0  0  0  0  0  0  0  0  0  0  0  0
  -24.7941  -15.9479   23.4096 C   0  0  0  0  0  0  0  0  0  0  0  0
  -18.4765  -28.5643   22.7166 C   0  0  0  0  0  0  0  0  0  0  0  0
  -20.6748  -26.9031   22.3239 C   0  0  0  0  0  0  0  0  0  0  0  0
  -26.7260  -26.0919   21.8432 C   0  0  0  0  0  0  0  0  0  0  0  0
  -30.4981  -18.7559   14.6628 C   0  0  0  0  0  0  0  0  0  0  0  0
  -29.7392  -19.1368   15.7694 C   0  0  0  0  0  0  0  0  0  0  0  0
  -22.7930  -17.6312   22.4376 C   0  0  0  0  0  0  0  0  0  0  0  0
  -24.3266  -17.0015   24.1951 C   0  0  0  0  0  0  0  0  0  0  0  0
  -27.4962  -25.0147   21.4073 C   0  0  0  0  0  0  0  0  0  0  0  0
  -23.8036  -20.7441   23.2871 C   0  0  0  0  0  0  0  0  0  0  0  0
  -23.6420  -21.9869   22.6750 C   0  0  0  0  0  0  0  0  0  0  0  0
  -27.6391  -26.0116   19.2153 C   0  0  0  0  0  0  0  0  0  0  0  0
  -30.8693  -16.5884   15.6633 C   0  0  0  0  0  0  0  0  0  0  0  0
  -21.2895  -21.9515   23.2240 C   0  0  0  0  0  0  0  0  0  0  0  0
  -24.2611  -15.7359   22.1381 C   0  0  0  0  0  0  0  0  0  0  0  0
  -23.9963  -13.5666   20.8223 C   0  0  0  0  0  0  0  0  0  0  0  0
  -19.2529  -28.7133   21.5566 C   0  0  0  0  0  0  0  0  0  0  0  0
  -26.3967  -27.1335   20.9639 C   0  0  0  0  0  0  0  0  0  0  0  0
  -20.3592  -27.8670   21.3513 C   0  0  0  0  0  0  0  0  0  0  0  0
  -26.8666  -27.1022   19.6432 C   0  0  0  0  0  0  0  0  0  0  0  0
  -31.0631  -17.4817   14.6097 C   0  0  0  0  0  0  0  0  0  0  0  0
  -29.5454  -18.2436   16.8230 C   0  0  0  0  0  0  0  0  0  0  0  0
  -30.1104  -16.9693   16.7700 C   0  0  0  0  0  0  0  0  0  0  0  0
  -23.3261  -17.8432   23.7091 C   0  0  0  0  0  0  0  0  0  0  0  0
  -27.9505  -24.9730   20.0924 C   0  0  0  0  0  0  0  0  0  0  0  0
  -22.7081  -20.1048   23.8677 C   0  0  0  0  0  0  0  0  0  0  0  0
  -22.3850  -22.5907   22.6434 C   0  0  0  0  0  0  0  0  0  0  0  0
  -21.4511  -20.7086   23.8361 C   0  0  0  0  0  0  0  0  0  0  0  0
  -24.7440  -14.6470   21.3274 C   0  0  0  0  0  0  0  0  0  0  0  0
  -24.9083  -12.8156   20.1218 C   0  0  0  0  0  0  0  0  0  0  0  0
  -28.9368  -20.8672   19.1214 C   0  0  0  0  0  0  0  0  0  0  0  0
  -22.6019  -13.2685   20.9728 C   0  0  0  0  0  0  0  0  0  0  0  0
  -23.6842  -28.3166   19.8037 C   0  0  0  0  0  0  0  0  0  0  0  0
  -25.6580  -30.5590   18.5394 C   0  0  0  0  0  0  0  0  0  0  0  0
  -28.7969  -31.3989   17.4961 C   0  0  0  0  0  0  0  0  0  0  0  0
  -30.4201  -14.7447   17.9255 C   0  0  0  0  0  0  0  0  0  0  0  0
  -18.8348  -29.7356   20.5295 C   0  0  0  0  0  0  0  0  0  0  0  0
  -25.5874  -28.3016   21.4570 C   0  0  0  0  0  0  0  0  0  0  0  0
  -26.5579  -28.2053   18.6653 C   0  0  0  0  0  0  0  0  0  0  0  0
  -19.9271  -30.0606   19.5139 C   0  0  0  0  0  0  0  0  0  0  0  0
  -31.4911  -20.0116   20.2748 C   0  0  0  0  0  0  0  0  0  0  0  0
  -29.6794  -11.9747   20.2573 C   0  0  0  0  0  0  0  0  0  0  0  0
  -20.5684  -28.7791   18.9912 C   0  0  0  0  0  0  0  0  0  0  0  0
  -30.6717  -21.0794   20.9726 C   0  0  0  0  0  0  0  0  0  0  0  0
  -28.1883  -12.0803   20.5808 C   0  0  0  0  0  0  0  0  0  0  0  0
  -30.5655  -19.0059   19.6180 C   0  0  0  0  0  0  0  0  0  0  0  0
  -30.0199  -12.4801   18.8621 C   0  0  0  0  0  0  0  0  0  0  0  0
  -28.3087  -14.2609   19.2759 C   0  0  0  0  0  0  0  0  0  0  0  0
  -21.2381  -27.9948   20.1260 C   0  0  1  0  0  0  0  0  0  0  0  0
  -29.8222  -21.8100   19.9397 C   0  0  2  0  0  0  0  0  0  0  0  0
  -24.8804  -29.0549   20.3346 C   0  0  1  0  0  0  0  0  0  0  0  0
  -27.4376  -13.0535   19.6565 C   0  0  2  0  0  0  0  0  0  0  0  0
  -31.8742  -17.0752   13.4259 C   0  0  0  0  0  0  0  0  0  0  0  0
  -30.0934  -33.2893   16.4748 C   0  0  0  0  0  0  0  0  0  0  0  0
  -24.4175  -29.9383   15.8217 C   0  0  0  0  0  0  0  0  0  0  0  0
  -26.3503  -31.1138   14.7490 C   0  0  0  0  0  0  0  0  0  0  0  0
  -24.8111  -32.3692   16.2581 C   0  0  0  0  0  0  0  0  0  0  0  0
  -30.5924  -31.5880   19.8412 C   0  0  0  0  0  0  0  0  0  0  0  0
  -28.7249  -18.6811   18.0017 C   0  0  0  0  0  0  0  0  0  0  0  0
  -28.9873  -22.8976   20.6152 C   0  0  0  0  0  0  0  0  0  1  0  0
  -26.4297  -30.6990   17.2495 C   0  0  1  0  0  0  0  0  0  0  0  0
  -29.6558  -32.6206   17.7687 C   0  0  2  0  0  0  0  0  0  0  0  0
  -25.5065  -31.0082   16.0372 C   0  0  0  0  0  0  0  0  0  0  0  0
  -26.0319  -14.5911   20.9777 N   0  0  0  0  0  0  0  0  0  0  0  0
  -26.1005  -13.4663   20.2454 N   0  0  0  0  0  0  0  0  0  0  0  0
  -29.4579  -19.5963   18.8669 N   0  0  0  0  0  0  0  0  0  0  0  0
  -25.7579  -29.3228   19.1933 N   0  0  0  0  0  0  0  0  0  0  0  0
  -29.5963  -13.8710   18.6763 N   0  0  0  0  0  0  0  0  0  0  0  0
  -24.7987  -11.6686   19.4183 N   0  0  0  0  0  0  0  0  0  0  0  0
  -22.2005  -12.4817   22.0610 N   0  0  0  0  0  0  0  0  0  0  0  0
  -29.9243  -16.0475   17.8300 N   0  0  0  0  0  0  0  0  0  0  0  0
  -22.5083  -28.5947   20.4740 N   0  0  0  0  0  0  0  0  0  0  0  0
  -27.4535  -31.7093   17.4939 N   0  0  0  0  0  0  0  0  0  0  0  0
  -30.8750  -32.2362   18.5347 N   0  3  0  0  0  0  0  0  0  0  0  0
  -27.8709  -21.2712   18.6482 O   0  0  0  0  0  0  0  0  0  0  0  0
  -21.7395  -13.6737   20.1570 O   0  0  0  0  0  0  0  0  0  0  0  0
  -23.8180  -27.5525   18.8551 O   0  0  0  0  0  0  0  0  0  0  0  0
  -24.9969  -31.5137   18.9553 O   0  0  0  0  0  0  0  0  0  0  0  0
  -29.2706  -30.2818   17.3006 O   0  0  0  0  0  0  0  0  0  0  0  0
  -31.4814  -14.3647   17.4263 O   0  0  0  0  0  0  0  0  0  0  0  0
  -22.8703  -18.8713   24.4757 O   0  0  0  0  0  0  0  0  0  0  0  0
  -28.7019  -23.9224   19.6641 O   0  0  0  0  0  0  0  0  0  1  0  0
  -22.2303  -23.7849   22.0569 F   0  0  0  0  0  0  0  0  0  0  0  0
  -20.3951  -20.0999   24.3932 F   0  0  0  0  0  0  0  0  0  0  0  0
  1  2  1  0  0  0  0
  1  5  2  0  0  0  0
  2  6  2  0  0  0  0
  3 10  2  0  0  0  0
  3 18  1  0  0  0  0
  4 11  1  0  0  0  0
  4 18  2  0  0  0  0
  5 20  1  0  0  0  0
  6 22  1  0  0  0  0
  7 12  2  0  0  0  0
  7 21  1  0  0  0  0
  8  9  2  0  0  0  0
  8 24  1  0  0  0  0
  9 25  1  0  0  0  0
 10 27  1  0  0  0  0
 11 27  2  0  0  0  0
 12 28  1  0  0  0  0
 13 14  2  0  0  0  0
 13 29  1  0  0  0  0
 14 30  1  0  0  0  0
 15 23  1  0  0  0  0
 15 28  2  0  0  0  0
 16 24  2  0  0  0  0
 16 26  1  0  0  0  0
 17 30  2  0  0  0  0
 17 31  1  0  0  0  0
 18 32  1  0  0  0  0
 19 32  1  0  0  0  0
 19 33  2  0  0  0  0
 19 35  1  0  0  0  0
 20 22  2  0  0  0  0
 20 40  1  0  0  0  0
 21 23  2  0  0  0  0
 21 41  1  0  0  0  0
 22 52  1  0  0  0  0
 23 42  1  0  0  0  0
 24 56  1  0  0  0  0
 25 26  2  0  0  0  0
 25 62  1  0  0  0  0
 26 74  1  0  0  0  0
 27 84  1  0  0  0  0
 28 85  1  0  0  0  0
 29 31  2  0  0  0  0
 29 84  1  0  0  0  0
 30 86  1  0  0  0  0
 31 87  1  0  0  0  0
 32 67  2  0  0  0  0
 33 68  1  0  0  0  0
 33 72  1  0  0  0  0
 34 53  1  0  0  0  0
 34 69  1  0  0  0  0
 34 78  2  0  0  0  0
 35 73  1  0  0  0  0
 35 79  2  0  0  0  0
 36 54  1  0  0  0  0
 36 75  1  0  0  0  0
 36 80  2  0  0  0  0
 37 64  1  0  0  0  0
 37 70  1  0  0  0  0
 37 81  2  0  0  0  0
 38 65  1  0  0  0  0
 38 76  1  0  0  0  0
 38 82  2  0  0  0  0
 39 71  1  0  0  0  0
 39 74  1  0  0  0  0
 39 83  2  0  0  0  0
 40 43  1  0  0  0  0
 41 54  1  0  0  0  0
 42 70  1  0  0  0  0
 43 46  1  0  0  0  0
 44 47  1  0  0  0  0
 44 49  1  0  0  0  0
 45 48  1  0  0  0  0
 45 50  1  0  0  0  0
 46 52  1  0  0  0  0
 47 53  1  0  0  0  0
 48 55  1  0  0  0  0
 49 69  1  0  0  0  0
 50 71  1  0  0  0  0
 51 55  1  0  0  0  0
 51 71  1  0  0  0  0
 52 75  1  0  0  0  0
 53 63  1  0  0  0  0
 54 70  1  0  0  0  0
 55 68  1  0  0  0  0
 57 65  1  0  0  0  0
 58 66  1  0  0  0  0
 59 66  1  0  0  0  0
 60 66  1  0  0  0  0
 61 77  1  0  0  0  0
 62 69  1  0  0  0  0
 63 85  1  0  0  0  0
 64 66  1  0  0  0  0
 64 76  1  0  0  0  0
 65 77  1  0  0  0  0
 67 68  1  0  0  0  0
M  CHG  1  77   1
M  ISO  4  39 100  63 101  74 100  85 101
M  END
> <Batch ID>
0047

> <Smiles>
CNC(C)C(=O)NC(C(=O)N1Cc2cc([101O:1][101CH2:1]C3CCCN(Cc4ccc(C)cc4[100NH:0][100C:0](=O)N4CCCC(n5nc(-c6ccc(Oc7ccc(F)cc7F)cc6)c(C(N)=O)c5N)C4)C3=O)ccc2CC1C(=O)NC1CCCc2ccccc21)C(C)(C)C

> <Shape>
0.196

> <Color>
0.096

> <Negative vol penalty>
0.000

$$$$

  -OEChem-04042322263D

 84 92  0     1  0  0  0  0  0999 V2000
  -32.5109  -19.4785   25.9471 C   0  0  0  0  0  0  0  0  0  0  0  0
  -31.2913  -20.0870   26.2262 C   0  0  0  0  0  0  0  0  0  0  0  0
  -29.0425  -26.1264   20.5422 C   0  0  0  0  0  0  0  0  0  0  0  0
  -27.2390  -26.1241   18.9345 C   0  0  0  0  0  0  0  0  0  0  0  0
  -32.7091  -18.8475   24.7197 C   0  0  0  0  0  0  0  0  0  0  0  0
  -30.2696  -20.0657   25.2774 C   0  0  0  0  0  0  0  0  0  0  0  0
  -23.1285  -19.8184   24.7680 C   0  0  0  0  0  0  0  0  0  0  0  0
  -29.4409  -24.8660   20.0970 C   0  0  0  0  0  0  0  0  0  0  0  0
  -27.6375  -24.8637   18.4893 C   0  0  0  0  0  0  0  0  0  0  0  0
  -22.0680  -20.4907   24.1621 C   0  0  0  0  0  0  0  0  0  0  0  0
  -27.3359  -21.6528   19.5043 C   0  0  0  0  0  0  0  0  0  0  0  0
  -26.3444  -20.6917   19.3073 C   0  0  0  0  0  0  0  0  0  0  0  0
  -22.4967  -19.3025   22.1070 C   0  0  0  0  0  0  0  0  0  0  0  0
  -19.5164  -27.7040   21.7011 C   0  0  0  0  0  0  0  0  0  0  0  0
  -17.6185  -26.7264   22.8322 C   0  0  0  0  0  0  0  0  0  0  0  0
  -18.2444  -29.0163   23.2814 C   0  0  0  0  0  0  0  0  0  0  0  0
  -26.9665  -20.5272   16.9786 C   0  0  0  0  0  0  0  0  0  0  0  0
  -27.9415  -26.7555   19.9610 C   0  0  0  0  0  0  0  0  0  0  0  0
  -27.9601  -29.3063   19.9351 C   0  0  0  0  0  0  0  0  0  0  0  0
  -31.6860  -18.8102   23.7593 C   0  0  0  0  0  0  0  0  0  0  0  0
  -23.8892  -18.8895   24.0436 C   0  0  0  0  0  0  0  0  0  0  0  0
  -30.4548  -19.4348   24.0355 C   0  0  0  0  0  0  0  0  0  0  0  0
  -23.5647  -18.6178   22.7068 C   0  0  0  0  0  0  0  0  0  0  0  0
  -18.6751  -26.6149   21.9284 C   0  0  0  0  0  0  0  0  0  0  0  0
  -19.3011  -28.9048   22.3777 C   0  0  0  0  0  0  0  0  0  0  0  0
  -28.7385  -24.2346   19.0706 C   0  0  0  0  0  0  0  0  0  0  0  0
  -21.7538  -20.2349   22.8306 C   0  0  0  0  0  0  0  0  0  0  0  0
  -28.1427  -22.0511   18.4384 C   0  0  0  0  0  0  0  0  0  0  0  0
  -26.1597  -20.1289   18.0445 C   0  0  0  0  0  0  0  0  0  0  0  0
  -27.9580  -21.4883   17.1756 C   0  0  0  0  0  0  0  0  0  0  0  0
  -17.4032  -27.9272   23.5087 C   0  0  0  0  0  0  0  0  0  0  0  0
  -27.5290  -28.0572   20.4208 C   0  0  0  0  0  0  0  0  0  0  0  0
  -27.2790  -30.2243   20.6966 C   0  0  0  0  0  0  0  0  0  0  0  0
  -28.8926  -29.6095   18.8892 C   0  0  0  0  0  0  0  0  0  0  0  0
  -26.9411  -18.6753   23.1812 C   0  0  0  0  0  0  0  0  0  0  0  0
  -26.0279  -15.7542   22.1062 C   0  0  0  0  0  0  0  0  0  0  0  0
  -19.8143  -23.0443   21.6083 C   0  0  0  0  0  0  0  0  0  0  0  0
  -23.5096  -13.7256   21.0153 C   0  0  0  0  0  0  0  0  0  0  0  0
  -22.1120  -29.9896   23.7130 C   0  0  0  0  0  0  0  0  0  0  0  0
  -31.9633  -18.1572   22.4283 C   0  0  0  0  0  0  0  0  0  0  0  0
  -25.0131  -18.1531   24.7194 C   0  0  0  0  0  0  0  0  0  0  0  0
  -24.3377  -17.6149   21.8912 C   0  0  0  0  0  0  0  0  0  0  0  0
  -30.7018  -17.8544   21.6238 C   0  0  0  0  0  0  0  0  0  0  0  0
  -25.3242  -30.7841   25.0274 C   0  0  0  0  0  0  0  0  0  0  0  0
  -29.7687  -19.0612   21.6199 C   0  0  0  0  0  0  0  0  0  0  0  0
  -26.2924  -30.2880   23.9520 C   0  0  0  0  0  0  0  0  0  0  0  0
  -24.1143  -29.8626   25.1660 C   0  0  0  0  0  0  0  0  0  0  0  0
  -24.3568  -29.1040   22.8337 C   0  0  0  0  0  0  0  0  0  0  0  0
  -29.3137  -19.4114   23.0418 C   0  0  1  0  0  0  0  0  0  0  0  0
  -26.0445  -17.6056   23.7376 C   0  0  1  0  0  0  0  0  0  0  0  0
  -25.5653  -30.0311   22.6184 C   0  0  2  0  0  0  0  0  0  0  0  0
  -23.0771  -11.4020   20.1721 C   0  0  0  0  0  0  0  0  0  0  0  0
  -27.2119  -16.5183   19.3999 C   0  0  0  0  0  0  0  0  0  0  0  0
  -25.9371  -14.6182   18.3839 C   0  0  0  0  0  0  0  0  0  0  0  0
  -27.6756  -14.1672   20.1150 C   0  0  0  0  0  0  0  0  0  0  0  0
  -21.6903  -13.1214   23.2700 C   0  0  0  0  0  0  0  0  0  0  0  0
  -18.9065  -25.3233   21.1988 C   0  0  0  0  0  0  0  0  0  0  0  0
  -20.2003  -30.0692   22.1325 C   0  0  0  0  0  0  0  0  0  0  0  0
  -20.4262  -22.2044   22.7091 C   0  0  0  0  0  0  0  0  0  1  0  0
  -25.4815  -15.2164   20.8057 C   0  0  1  0  0  0  0  0  0  0  0  0
  -23.1234  -12.3071   21.3934 C   0  0  2  0  0  0  0  0  0  0  0  0
  -26.5630  -15.1504   19.6907 C   0  0  0  0  0  0  0  0  0  0  0  0
  -26.6429  -28.1680   21.4140 N   0  0  0  0  0  0  0  0  0  0  0  0
  -26.5116  -29.4977   21.5587 N   0  0  0  0  0  0  0  0  0  0  0  0
  -25.4316  -16.9252   22.5949 N   0  0  0  0  0  0  0  0  0  0  0  0
  -23.4691  -29.6612   23.8663 N   0  0  0  0  0  0  0  0  0  0  0  0
  -27.2678  -31.5742   20.7062 N   0  0  0  0  0  0  0  0  0  0  0  0
  -29.5019  -28.5467   18.2084 N   0  0  0  0  0  0  0  0  0  0  0  0
  -28.2787  -18.4999   23.4802 N   0  0  0  0  0  0  0  0  0  0  0  0
  -19.5035  -24.3207   22.0505 N   0  0  0  0  0  0  0  0  0  0  0  0
  -24.8691  -13.9303   21.1211 N   0  0  0  0  0  0  0  0  0  0  0  0
  -21.5803  -29.7739   22.4475 N   0  0  0  0  0  0  0  0  0  0  0  0
  -21.7816  -12.2908   22.0416 N   0  3  0  0  0  0  0  0  0  0  0  0
  -29.1896  -30.7881   18.5789 O   0  0  0  0  0  0  0  0  0  0  0  0
  -26.4555  -19.5911   22.5276 O   0  0  0  0  0  0  0  0  0  0  0  0
  -26.9450  -15.1533   22.6713 O   0  0  0  0  0  0  0  0  0  0  0  0
  -19.6276  -22.6170   20.4723 O   0  0  0  0  0  0  0  0  0  0  0  0
  -22.6879  -14.5669   20.6579 O   0  0  0  0  0  0  0  0  0  0  0  0
  -21.4266  -30.4466   24.6340 O   0  0  0  0  0  0  0  0  0  0  0  0
  -29.1272  -23.0048   18.6358 O   0  0  0  0  0  0  0  0  0  0  0  0
  -20.7195  -20.8902   22.2366 O   0  0  0  0  0  0  0  0  0  1  0  0
  -25.2085  -19.2049   17.8558 F   0  0  0  0  0  0  0  0  0  0  0  0
  -28.7308  -21.8661   16.1480 F   0  0  0  0  0  0  0  0  0  0  0  0
  -16.1002  -28.0644   24.6248 Cl  0  0  0  0  0  0  0  0  0  0  0  0
  1  2  1  0  0  0  0
  1  5  2  0  0  0  0
  2  6  2  0  0  0  0
  3  8  2  0  0  0  0
  3 18  1  0  0  0  0
  4  9  1  0  0  0  0
  4 18  2  0  0  0  0
  5 20  1  0  0  0  0
  6 22  1  0  0  0  0
  7 10  2  0  0  0  0
  7 21  1  0  0  0  0
  8 26  1  0  0  0  0
  9 26  2  0  0  0  0
 10 27  1  0  0  0  0
 11 12  2  0  0  0  0
 11 28  1  0  0  0  0
 12 29  1  0  0  0  0
 13 23  1  0  0  0  0
 13 27  2  0  0  0  0
 14 24  2  0  0  0  0
 14 25  1  0  0  0  0
 15 24  1  0  0  0  0
 15 31  2  0  0  0  0
 16 25  2  0  0  0  0
 16 31  1  0  0  0  0
 17 29  2  0  0  0  0
 17 30  1  0  0  0  0
 18 32  1  0  0  0  0
 19 32  1  0  0  0  0
 19 33  2  0  0  0  0
 19 34  1  0  0  0  0
 20 22  2  0  0  0  0
 20 40  1  0  0  0  0
 21 23  2  0  0  0  0
 21 41  1  0  0  0  0
 22 49  1  0  0  0  0
 23 42  1  0  0  0  0
 24 57  1  0  0  0  0
 25 58  1  0  0  0  0
 26 80  1  0  0  0  0
 27 81  1  0  0  0  0
 28 30  2  0  0  0  0
 28 80  1  0  0  0  0
 29 82  1  0  0  0  0
 30 83  1  0  0  0  0
 31 84  1  0  0  0  0
 32 63  2  0  0  0  0
 33 64  1  0  0  0  0
 33 67  1  0  0  0  0
 34 68  1  0  0  0  0
 34 74  2  0  0  0  0
 35 50  1  0  0  0  0
 35 69  1  0  0  0  0
 35 75  2  0  0  0  0
 36 60  1  0  0  0  0
 36 65  1  0  0  0  0
 36 76  2  0  0  0  0
 37 59  1  0  0  0  0
 37 70  1  0  0  0  0
 37 77  2  0  0  0  0
 38 61  1  0  0  0  0
 38 71  1  0  0  0  0
 38 78  2  0  0  0  0
 39 66  1  0  0  0  0
 39 72  1  0  0  0  0
 39 79  2  0  0  0  0
 40 43  1  0  0  0  0
 41 50  1  0  0  0  0
 42 65  1  0  0  0  0
 43 45  1  0  0  0  0
 44 46  1  0  0  0  0
 44 47  1  0  0  0  0
 45 49  1  0  0  0  0
 46 51  1  0  0  0  0
 47 66  1  0  0  0  0
 48 51  1  0  0  0  0
 48 66  1  0  0  0  0
 49 69  1  0  0  0  0
 50 65  1  0  0  0  0
 51 64  1  0  0  0  0
 52 61  1  0  0  0  0
 53 62  1  0  0  0  0
 54 62  1  0  0  0  0
 55 62  1  0  0  0  0
 56 73  1  0  0  0  0
 57 70  1  0  0  0  0
 58 72  1  0  0  0  0
 59 81  1  0  0  0  0
 60 62  1  0  0  0  0
 60 71  1  0  0  0  0
 61 73  1  0  0  0  0
 63 64  1  0  0  0  0
M  CHG  1  73   1
M  ISO  4  39 100  59 101  72 100  81 101
M  END
> <Batch ID>
0047

> <Smiles>
CNC(C)C(=O)NC(C(=O)N1Cc2cc([101O:1][101CH2:1]C(=O)NCc3cc(Cl)cc(C[100NH:0][100C:0](=O)N4CCCC(n5nc(-c6ccc(Oc7ccc(F)cc7F)cc6)c(C(N)=O)c5N)C4)c3)ccc2CC1C(=O)NC1CCCc2ccccc21)C(C)(C)C

> <Shape>
0.209

> <Color>
0.077

> <Negative vol penalty>
0.000

$$$$

  -OEChem-04042322263D

 96105  0     1  0  0  0  0  0999 V2000
  -34.2817  -16.7301   15.2555 C   0  0  0  0  0  0  0  0  0  0  0  0
  -33.1601  -16.4650   16.0348 C   0  0  0  0  0  0  0  0  0  0  0  0
  -23.0812  -10.0860   19.8536 C   0  0  0  0  0  0  0  0  0  0  0  0
  -24.0043   -9.7439   22.0599 C   0  0  0  0  0  0  0  0  0  0  0  0
  -35.0158  -17.8965   15.4664 C   0  0  0  0  0  0  0  0  0  0  0  0
  -32.7727  -17.3658   17.0262 C   0  0  0  0  0  0  0  0  0  0  0  0
  -26.9185  -19.9200   20.2698 C   0  0  0  0  0  0  0  0  0  0  0  0
  -28.4553  -19.2428   28.3498 C   0  0  0  0  0  0  0  0  0  0  0  0
  -29.8012  -19.2326   28.7160 C   0  0  0  0  0  0  0  0  0  0  0  0
  -32.4170  -17.3661   23.1379 C   0  0  0  0  0  0  0  0  0  0  0  0
  -31.9723  -16.2810   22.3828 C   0  0  0  0  0  0  0  0  0  0  0  0
  -22.3801   -8.8850   19.9607 C   0  0  0  0  0  0  0  0  0  0  0  0
  -23.3032   -8.5429   22.1671 C   0  0  0  0  0  0  0  0  0  0  0  0
  -26.3924  -20.1140   21.5463 C   0  0  0  0  0  0  0  0  0  0  0  0
  -21.4739   -5.5645   23.1677 C   0  0  0  0  0  0  0  0  0  0  0  0
  -20.8052   -5.3077   24.3645 C   0  0  0  0  0  0  0  0  0  0  0  0
  -27.6908  -22.1350   21.7677 C   0  0  0  0  0  0  0  0  0  0  0  0
  -31.1208  -16.5867   25.0218 C   0  0  0  0  0  0  0  0  0  0  0  0
  -29.0858  -19.5806   26.0421 C   0  0  0  0  0  0  0  0  0  0  0  0
  -19.4733   -7.2983   24.0474 C   0  0  0  0  0  0  0  0  0  0  0  0
  -23.8934  -10.5155   20.9032 C   0  0  0  0  0  0  0  0  0  0  0  0
  -24.1761  -13.0360   21.1766 C   0  0  0  0  0  0  0  0  0  0  0  0
  -34.6315  -18.8167   16.4544 C   0  0  0  0  0  0  0  0  0  0  0  0
  -27.8445  -20.8278   19.7361 C   0  0  0  0  0  0  0  0  0  0  0  0
  -33.5031  -18.5450   17.2514 C   0  0  0  0  0  0  0  0  0  0  0  0
  -28.2252  -21.9516   20.4832 C   0  0  0  0  0  0  0  0  0  0  0  0
  -31.9913  -17.5190   24.4574 C   0  0  0  0  0  0  0  0  0  0  0  0
  -28.0976  -19.4168   27.0128 C   0  0  0  0  0  0  0  0  0  0  0  0
  -30.7894  -19.3964   27.7453 C   0  0  0  0  0  0  0  0  0  0  0  0
  -30.6759  -15.5015   24.2667 C   0  0  0  0  0  0  0  0  0  0  0  0
  -31.1017  -15.3486   22.9472 C   0  0  0  0  0  0  0  0  0  0  0  0
  -30.4317  -19.5704   26.4083 C   0  0  0  0  0  0  0  0  0  0  0  0
  -22.4910   -8.1134   21.1174 C   0  0  0  0  0  0  0  0  0  0  0  0
  -26.7807  -21.2200   22.2966 C   0  0  0  0  0  0  0  0  0  0  0  0
  -21.1425   -6.6883   22.4108 C   0  0  0  0  0  0  0  0  0  0  0  0
  -19.8048   -6.1746   24.8044 C   0  0  0  0  0  0  0  0  0  0  0  0
  -20.1421   -7.5552   22.8506 C   0  0  0  0  0  0  0  0  0  0  0  0
  -24.6184  -11.7558   20.7929 C   0  0  0  0  0  0  0  0  0  0  0  0
  -25.2242  -13.8682   20.8680 C   0  0  0  0  0  0  0  0  0  0  0  0
  -33.1444  -22.1437   23.2548 C   0  0  0  0  0  0  0  0  0  0  0  0
  -32.6246  -20.9653   23.6127 C   0  0  0  0  0  0  0  0  0  0  0  0
  -22.9293  -13.4371   21.7600 C   0  0  0  0  0  0  0  0  0  0  0  0
  -31.4969  -20.9049   24.5883 C   0  0  0  0  0  0  0  0  0  0  0  0
  -30.8675  -20.6418   18.7712 C   0  0  0  0  0  0  0  0  0  0  0  0
  -30.3441  -23.6989   17.8214 C   0  0  0  0  0  0  0  0  0  0  0  0
  -28.5504  -26.5792   18.1860 C   0  0  0  0  0  0  0  0  0  0  0  0
  -30.9991  -13.9709   20.8406 C   0  0  0  0  0  0  0  0  0  0  0  0
  -35.4839  -20.0409   16.6771 C   0  0  0  0  0  0  0  0  0  0  0  0
  -28.3824  -20.6186   18.3471 C   0  0  0  0  0  0  0  0  0  0  0  0
  -29.2008  -22.9665   19.9478 C   0  0  0  0  0  0  0  0  0  0  0  0
  -34.7896  -21.1257   17.4966 C   0  0  0  0  0  0  0  0  0  0  0  0
  -29.1256  -13.5823   17.8379 C   0  0  0  0  0  0  0  0  0  0  0  0
  -34.1178  -20.5193   18.7246 C   0  0  0  0  0  0  0  0  0  0  0  0
  -27.7285  -13.1968   18.3296 C   0  0  0  0  0  0  0  0  0  0  0  0
  -30.2220  -12.9659   18.7049 C   0  0  0  0  0  0  0  0  0  0  0  0
  -28.6978  -12.8405   20.6363 C   0  0  0  0  0  0  0  0  0  0  0  0
  -33.0368  -19.5098   18.3200 C   0  0  1  0  0  0  0  0  0  0  0  0
  -29.7096  -21.3313   18.1067 C   0  0  1  0  0  0  0  0  0  0  0  0
  -27.5593  -13.4906   19.8332 C   0  0  2  0  0  0  0  0  0  0  0  0
  -32.2230  -19.3820   28.1666 C   0  0  0  0  0  0  0  0  0  0  0  0
  -29.7413  -14.5198   24.8961 C   0  0  0  0  0  0  0  0  0  0  0  0
  -28.3786  -28.9190   17.2954 C   0  0  0  0  0  0  0  0  0  0  0  0
  -32.8176  -24.4881   19.4242 C   0  0  0  0  0  0  0  0  0  0  0  0
  -32.0589  -26.8702   19.2901 C   0  0  0  0  0  0  0  0  0  0  0  0
  -32.6091  -25.6190   17.2034 C   0  0  0  0  0  0  0  0  0  0  0  0
  -25.7826  -26.1381   17.2354 C   0  0  0  0  0  0  0  0  0  0  0  0
  -25.9240  -21.6146   27.5637 C   0  0  0  0  0  0  0  0  0  0  0  0
  -32.4683  -18.6884   25.2692 C   0  0  0  0  0  0  0  0  0  0  0  0
  -26.6497  -19.4276   26.6198 C   0  0  0  0  0  0  0  0  0  0  0  0
  -24.9281  -20.7838   25.4377 C   0  0  0  0  0  0  0  0  0  0  0  0
  -25.3394  -20.4396   24.0198 C   0  0  0  0  0  0  0  0  0  1  0  0
  -30.4900  -25.0576   18.4630 C   0  0  1  0  0  0  0  0  0  0  0  0
  -27.8839  -27.4866   17.1677 C   0  0  2  0  0  0  0  0  0  0  0  0
  -31.9770  -25.4887   18.6063 C   0  0  0  0  0  0  0  0  0  0  0  0
  -25.8514  -11.7686   20.2795 N   0  0  0  0  0  0  0  0  0  0  0  0
  -26.1928  -13.0671   20.3385 N   0  0  0  0  0  0  0  0  0  0  0  0
  -29.7036  -22.7145   18.5872 N   0  0  0  0  0  0  0  0  0  0  0  0
  -29.9986  -13.2896   20.1157 N   0  0  0  0  0  0  0  0  0  0  0  0
  -25.4027  -15.1997   21.0006 N   0  0  0  0  0  0  0  0  0  0  0  0
  -21.9623  -12.4541   22.0113 N   0  0  0  0  0  0  0  0  0  0  0  0
  -30.6612  -14.2532   22.1638 N   0  0  0  0  0  0  0  0  0  0  0  0
  -31.8373  -20.1977   17.8928 N   0  0  0  0  0  0  0  0  0  0  0  0
  -29.6762  -25.9729   17.6703 N   0  0  0  0  0  0  0  0  0  0  0  0
  -31.4071  -19.7353   25.4216 N   0  0  0  0  0  0  0  0  0  0  0  0
  -26.4059  -27.4811   17.3579 N   0  3  0  0  0  0  0  0  0  0  0  0
  -26.1329  -20.8096   26.3049 N   0  3  1  0  0  0  0  0  0  0  0  0
  -22.6737  -14.6340   22.0346 O   0  0  0  0  0  0  0  0  0  0  0  0
  -30.6881  -21.8328   24.6196 O   0  0  0  0  0  0  0  0  0  0  0  0
  -30.8807  -20.5227   19.9908 O   0  0  0  0  0  0  0  0  0  0  0  0
  -30.7761  -23.5197   16.6799 O   0  0  0  0  0  0  0  0  0  0  0  0
  -28.1177  -26.4267   19.3262 O   0  0  0  0  0  0  0  0  0  0  0  0
  -32.0654  -14.3052   20.3179 O   0  0  0  0  0  0  0  0  0  0  0  0
  -21.8068   -6.9415   21.2224 O   0  0  0  0  0  0  0  0  0  0  0  0
  -26.2693  -21.4114   23.5431 O   0  0  0  0  0  0  0  0  0  1  0  0
  -19.1616   -5.9270   25.9529 F   0  0  0  0  0  0  0  0  0  0  0  0
  -19.8185   -8.6358   22.1272 F   0  0  0  0  0  0  0  0  0  0  0  0
  1  2  1  0  0  0  0
  1  5  2  0  0  0  0
  2  6  2  0  0  0  0
  3 12  2  0  0  0  0
  3 21  1  0  0  0  0
  4 13  1  0  0  0  0
  4 21  2  0  0  0  0
  5 23  1  0  0  0  0
  6 25  1  0  0  0  0
  7 14  2  0  0  0  0
  7 24  1  0  0  0  0
  8  9  2  0  0  0  0
  8 28  1  0  0  0  0
  9 29  1  0  0  0  0
 10 11  2  0  0  0  0
 10 27  1  0  0  0  0
 11 31  1  0  0  0  0
 12 33  1  0  0  0  0
 13 33  2  0  0  0  0
 14 34  1  0  0  0  0
 15 16  2  0  0  0  0
 15 35  1  0  0  0  0
 16 36  1  0  0  0  0
 17 26  1  0  0  0  0
 17 34  2  0  0  0  0
 18 27  2  0  0  0  0
 18 30  1  0  0  0  0
 19 28  2  0  0  0  0
 19 32  1  0  0  0  0
 20 36  2  0  0  0  0
 20 37  1  0  0  0  0
 21 38  1  0  0  0  0
 22 38  1  0  0  0  0
 22 39  2  0  0  0  0
 22 42  1  0  0  0  0
 23 25  2  0  0  0  0
 23 48  1  0  0  0  0
 24 26  2  0  0  0  0
 24 49  1  0  0  0  0
 25 57  1  0  0  0  0
 26 50  1  0  0  0  0
 27 68  1  0  0  0  0
 28 69  1  0  0  0  0
 29 32  2  0  0  0  0
 29 60  1  0  0  0  0
 30 31  2  0  0  0  0
 30 61  1  0  0  0  0
 31 81  1  0  0  0  0
 32 84  1  0  0  0  0
 33 93  1  0  0  0  0
 34 94  1  0  0  0  0
 35 37  2  0  0  0  0
 35 93  1  0  0  0  0
 36 95  1  0  0  0  0
 37 96  1  0  0  0  0
 38 75  2  0  0  0  0
 39 76  1  0  0  0  0
 39 79  1  0  0  0  0
 40 41  2  0  0  0  0
 41 43  1  0  0  0  0
 42 80  1  0  0  0  0
 42 87  2  0  0  0  0
 43 84  1  0  0  0  0
 43 88  2  0  0  0  0
 44 58  1  0  0  0  0
 44 82  1  0  0  0  0
 44 89  2  0  0  0  0
 45 72  1  0  0  0  0
 45 77  1  0  0  0  0
 45 90  2  0  0  0  0
 46 73  1  0  0  0  0
 46 83  1  0  0  0  0
 46 91  2  0  0  0  0
 47 78  1  0  0  0  0
 47 81  1  0  0  0  0
 47 92  2  0  0  0  0
 48 51  1  0  0  0  0
 49 58  1  0  0  0  0
 50 77  1  0  0  0  0
 51 53  1  0  0  0  0
 52 54  1  0  0  0  0
 52 55  1  0  0  0  0
 53 57  1  0  0  0  0
 54 59  1  0  0  0  0
 55 78  1  0  0  0  0
 56 59  1  0  0  0  0
 56 78  1  0  0  0  0
 57 82  1  0  0  0  0
 58 77  1  0  0  0  0
 59 76  1  0  0  0  0
 62 73  1  0  0  0  0
 63 74  1  0  0  0  0
 64 74  1  0  0  0  0
 65 74  1  0  0  0  0
 66 85  1  0  0  0  0
 67 86  1  0  0  0  0
 68 84  1  0  0  0  0
 69 86  1  0  0  0  0
 70 71  1  0  0  0  0
 70 86  1  0  0  0  0
 71 94  1  0  0  0  0
 72 74  1  0  0  0  0
 72 83  1  0  0  0  0
 73 85  1  0  0  0  0
 75 76  1  0  0  0  0
M  CHG  2  85   1  86   1
M  ISO  4  47 100  71 101  81 100  94 101
M  END
> <Batch ID>
0047

> <Smiles>
C=CC(=O)N(Cc1ccc([100NH:0][100C:0](=O)N2CCCC(n3nc(-c4ccc(Oc5ccc(F)cc5F)cc4)c(C(N)=O)c3N)C2)c(C)c1)c1cc(CN(C)C[101CH2:1][101O:1]c2ccc3c(c2)CN(C(=O)C(NC(=O)C(C)NC)C(C)(C)C)C(C(=O)NC2CCCc4ccccc42)C3)ccc1C

> <Shape>
0.231

> <Color>
0.165

> <Negative vol penalty>
0.000

$$$$

  -OEChem-04042322263D

 89 98  0     1  0  0  0  0  0999 V2000
  -16.5190  -29.7363   23.4489 C   0  0  0  0  0  0  0  0  0  0  0  0
  -17.5515  -30.6662   23.4033 C   0  0  0  0  0  0  0  0  0  0  0  0
  -28.7037  -24.7538   17.6184 C   0  0  0  0  0  0  0  0  0  0  0  0
  -26.2514  -14.1663   20.6027 C   0  0  0  0  0  0  0  0  0  0  0  0
  -24.0257  -14.2007   21.5419 C   0  0  0  0  0  0  0  0  0  0  0  0
  -16.8083  -28.3753   23.3781 C   0  0  0  0  0  0  0  0  0  0  0  0
  -18.8726  -30.2360   23.2750 C   0  0  0  0  0  0  0  0  0  0  0  0
  -26.7796  -30.8346   22.6888 C   0  0  0  0  0  0  0  0  0  0  0  0
  -29.2875  -24.1431   18.7283 C   0  0  0  0  0  0  0  0  0  0  0  0
  -25.9820  -12.9330   20.0094 C   0  0  0  0  0  0  0  0  0  0  0  0
  -23.7563  -12.9673   20.9487 C   0  0  0  0  0  0  0  0  0  0  0  0
  -27.9641  -30.1147   22.8390 C   0  0  0  0  0  0  0  0  0  0  0  0
  -24.4440   -9.7116   21.5472 C   0  0  0  0  0  0  0  0  0  0  0  0
  -23.8107   -8.7427   22.3254 C   0  0  0  0  0  0  0  0  0  0  0  0
  -27.3360  -24.6124   17.3836 C   0  0  0  0  0  0  0  0  0  0  0  0
  -27.1436  -28.4540   21.2937 C   0  0  0  0  0  0  0  0  0  0  0  0
  -21.9712   -8.6877   20.7601 C   0  0  0  0  0  0  0  0  0  0  0  0
  -25.2733  -14.8001   21.3690 C   0  0  0  0  0  0  0  0  0  0  0  0
  -26.5599  -16.3635   22.9207 C   0  0  0  0  0  0  0  0  0  0  0  0
  -18.1349  -27.9285   23.2615 C   0  0  0  0  0  0  0  0  0  0  0  0
  -25.7621  -30.3632   21.8469 C   0  0  0  0  0  0  0  0  0  0  0  0
  -19.1831  -28.8675   23.1780 C   0  0  0  0  0  0  0  0  0  0  0  0
  -25.9482  -29.1711   21.1326 C   0  0  0  0  0  0  0  0  0  0  0  0
  -28.5037  -23.3910   19.6033 C   0  0  0  0  0  0  0  0  0  0  0  0
  -27.1360  -23.2497   19.3684 C   0  0  0  0  0  0  0  0  0  0  0  0
  -24.7345  -12.3335   20.1824 C   0  0  0  0  0  0  0  0  0  0  0  0
  -28.1450  -28.9227   22.1437 C   0  0  0  0  0  0  0  0  0  0  0  0
  -23.8408  -10.1687   20.3754 C   0  0  0  0  0  0  0  0  0  0  0  0
  -22.5743   -8.2307   21.9319 C   0  0  0  0  0  0  0  0  0  0  0  0
  -22.6045   -9.6567   19.9819 C   0  0  0  0  0  0  0  0  0  0  0  0
  -26.5522  -23.8604   18.2586 C   0  0  0  0  0  0  0  0  0  0  0  0
  -25.5511  -16.0739   21.9825 C   0  0  0  0  0  0  0  0  0  0  0  0
  -26.4059  -17.7018   23.1884 C   0  0  0  0  0  0  0  0  0  0  0  0
  -29.7066  -25.9291   21.7303 C   0  0  0  0  0  0  0  0  0  0  0  0
  -29.1753  -20.2364   21.0894 C   0  0  0  0  0  0  0  0  0  0  0  0
  -29.6304  -21.3357   20.4763 C   0  0  0  0  0  0  0  0  0  0  0  0
  -27.5480  -15.5001   23.4985 C   0  0  0  0  0  0  0  0  0  0  0  0
  -22.7446  -29.4560   22.2658 C   0  0  0  0  0  0  0  0  0  0  0  0
  -22.7572  -29.2790   19.0268 C   0  0  0  0  0  0  0  0  0  0  0  0
  -25.0140  -28.1193   16.4617 C   0  0  0  0  0  0  0  0  0  0  0  0
  -25.0041  -22.6568   20.5725 C   0  0  0  0  0  0  0  0  0  0  0  0
  -18.3906  -26.4441   23.1811 C   0  0  0  0  0  0  0  0  0  0  0  0
  -24.5012  -31.1652   21.6752 C   0  0  0  0  0  0  0  0  0  0  0  0
  -24.8948  -28.6323   20.2007 C   0  0  0  0  0  0  0  0  0  0  0  0
  -19.8365  -26.0722   23.4930 C   0  0  0  0  0  0  0  0  0  0  0  0
  -29.9962  -25.3277   24.6070 C   0  0  0  0  0  0  0  0  0  0  0  0
  -22.7077  -20.9517   22.6929 C   0  0  0  0  0  0  0  0  0  0  0  0
  -20.7839  -26.9451   22.6836 C   0  0  0  0  0  0  0  0  0  0  0  0
  -30.0140  -26.7540   24.0604 C   0  0  0  0  0  0  0  0  0  0  0  0
  -23.3041  -19.5479   22.8187 C   0  0  0  0  0  0  0  0  0  0  0  0
  -29.5100  -24.3004   23.5886 C   0  0  0  0  0  0  0  0  0  0  0  0
  -22.9098  -21.5304   21.2937 C   0  0  0  0  0  0  0  0  0  0  0  0
  -24.8928  -20.1131   20.9363 C   0  0  0  0  0  0  0  0  0  0  0  0
  -20.6301  -28.4217   23.0695 C   0  0  1  0  0  0  0  0  0  0  0  0
  -29.1902  -26.8962   22.7870 C   0  0  1  0  0  0  0  0  0  1  0  0
  -23.3226  -30.3284   21.1875 C   0  0  1  0  0  0  0  0  0  0  0  0
  -24.7711  -19.5146   22.3472 C   0  0  2  0  0  0  0  0  0  0  0  0
  -25.2611  -28.8238   14.0659 C   0  0  0  0  0  0  0  0  0  0  0  0
  -20.8661  -26.9549   18.4507 C   0  0  0  0  0  0  0  0  0  0  0  0
  -22.2050  -26.4667   16.3923 C   0  0  0  0  0  0  0  0  0  0  0  0
  -21.0222  -28.6512   16.6198 C   0  0  0  0  0  0  0  0  0  0  0  0
  -27.8914  -28.7159   16.8128 C   0  0  0  0  0  0  0  0  0  0  0  0
  -30.3503  -23.5584   21.3609 C   0  0  0  0  0  0  0  0  0  0  0  0
  -29.1720  -22.7382   20.8057 C   0  0  1  0  0  0  0  0  0  0  0  0
  -23.0824  -28.2059   18.0160 C   0  0  1  0  0  0  0  0  0  0  0  0
  -25.7940  -28.9772   15.4819 C   0  0  2  0  0  0  0  0  0  0  0  0
  -21.8064  -27.5703   17.3953 C   0  0  0  0  0  0  0  0  0  0  0  0
  -24.8108  -17.1422   21.6750 N   0  0  0  0  0  0  0  0  0  0  0  0
  -25.3548  -18.1162   22.4244 N   0  0  0  0  0  0  0  0  0  0  0  0
  -29.9078  -24.6383   22.2269 N   0  0  0  0  0  0  0  0  0  0  0  0
  -23.6769  -29.4494   20.0713 N   0  0  0  0  0  0  0  0  0  0  0  0
  -24.3235  -21.4696   20.9162 N   0  0  0  0  0  0  0  0  0  0  0  0
  -27.0682  -18.5528   24.0006 N   0  0  0  0  0  0  0  0  0  0  0  0
  -27.2332  -14.8247   24.6856 N   0  0  0  0  0  0  0  0  0  0  0  0
  -26.3523  -22.4797   20.2632 N   0  0  0  0  0  0  0  0  0  0  0  0
  -21.3865  -29.2333   22.1416 N   0  0  0  0  0  0  0  0  0  0  0  0
  -23.9781  -28.8204   17.0422 N   0  0  0  0  0  0  0  0  0  0  0  0
  -27.2333  -28.5907   15.4868 N   0  3  0  0  0  0  0  0  0  0  0  0
  -29.9038  -26.2774   20.5676 O   0  0  0  0  0  0  0  0  0  0  0  0
  -28.6826  -15.3451   22.9863 O   0  0  0  0  0  0  0  0  0  0  0  0
  -23.4769  -29.0162   23.1444 O   0  0  0  0  0  0  0  0  0  0  0  0
  -21.7289  -29.9465   18.8906 O   0  0  0  0  0  0  0  0  0  0  0  0
  -25.2931  -26.9438   16.6867 O   0  0  0  0  0  0  0  0  0  0  0  0
  -24.4397  -23.7539   20.5803 O   0  0  0  0  0  0  0  0  0  0  0  0
  -24.4712  -11.1301   19.6035 O   0  0  0  0  0  0  0  0  0  0  0  0
  -29.2999  -28.2177   22.2889 O   0  0  0  0  0  0  0  0  0  1  0  0
  -21.9670   -7.2991   22.6785 F   0  0  0  0  0  0  0  0  0  0  0  0
  -22.0207  -10.0910   18.8566 F   0  0  0  0  0  0  0  0  0  0  0  0
  -24.8629  -23.7128   17.9259 Cl  0  0  0  0  0  0  0  0  0  0  0  0
  1  2  1  0  0  0  0
  1  6  2  0  0  0  0
  2  7  2  0  0  0  0
  3  9  2  0  0  0  0
  3 15  1  0  0  0  0
  4 10  2  0  0  0  0
  4 18  1  0  0  0  0
  5 11  1  0  0  0  0
  5 18  2  0  0  0  0
  6 20  1  0  0  0  0
  7 22  1  0  0  0  0
  8 12  2  0  0  0  0
  8 21  1  0  0  0  0
  9 24  1  0  0  0  0
 10 26  1  0  0  0  0
 11 26  2  0  0  0  0
 12 27  1  0  0  0  0
 13 14  2  0  0  0  0
 13 28  1  0  0  0  0
 14 29  1  0  0  0  0
 15 31  2  0  0  0  0
 16 23  1  0  0  0  0
 16 27  2  0  0  0  0
 17 29  2  0  0  0  0
 17 30  1  0  0  0  0
 18 32  1  0  0  0  0
 19 32  1  0  0  0  0
 19 33  2  0  0  0  0
 19 37  1  0  0  0  0
 20 22  2  0  0  0  0
 20 42  1  0  0  0  0
 21 23  2  0  0  0  0
 21 43  1  0  0  0  0
 22 54  1  0  0  0  0
 23 44  1  0  0  0  0
 24 25  2  0  0  0  0
 24 64  1  0  0  0  0
 25 31  1  0  0  0  0
 25 75  1  0  0  0  0
 26 85  1  0  0  0  0
 27 86  1  0  0  0  0
 28 30  2  0  0  0  0
 28 85  1  0  0  0  0
 29 87  1  0  0  0  0
 30 88  1  0  0  0  0
 31 89  1  0  0  0  0
 32 68  2  0  0  0  0
 33 69  1  0  0  0  0
 33 73  1  0  0  0  0
 34 55  1  0  0  0  0
 34 70  1  0  0  0  0
 34 79  2  0  0  0  0
 35 36  2  0  0  0  0
 36 64  1  0  0  0  0
 37 74  1  0  0  0  0
 37 80  2  0  0  0  0
 38 56  1  0  0  0  0
 38 76  1  0  0  0  0
 38 81  2  0  0  0  0
 39 65  1  0  0  0  0
 39 71  1  0  0  0  0
 39 82  2  0  0  0  0
 40 66  1  0  0  0  0
 40 77  1  0  0  0  0
 40 83  2  0  0  0  0
 41 72  1  0  0  0  0
 41 75  1  0  0  0  0
 41 84  2  0  0  0  0
 42 45  1  0  0  0  0
 43 56  1  0  0  0  0
 44 71  1  0  0  0  0
 45 48  1  0  0  0  0
 46 49  1  0  0  0  0
 46 51  1  0  0  0  0
 47 50  1  0  0  0  0
 47 52  1  0  0  0  0
 48 54  1  0  0  0  0
 49 55  1  0  0  0  0
 50 57  1  0  0  0  0
 51 70  1  0  0  0  0
 52 72  1  0  0  0  0
 53 57  1  0  0  0  0
 53 72  1  0  0  0  0
 54 76  1  0  0  0  0
 55 86  1  0  0  0  0
 56 71  1  0  0  0  0
 57 69  1  0  0  0  0
 58 66  1  0  0  0  0
 59 67  1  0  0  0  0
 60 67  1  0  0  0  0
 61 67  1  0  0  0  0
 62 78  1  0  0  0  0
 63 64  1  0  0  0  0
 63 70  1  0  0  0  0
 65 67  1  0  0  0  0
 65 77  1  0  0  0  0
 66 78  1  0  0  0  0
 68 69  1  0  0  0  0
M  CHG  1  78   1
M  ISO  4  41 100  55 101  75 100  86 101
M  END
> <Batch ID>
0047

> <Smiles>
C=CC(CN1CCC[101CH:1]([101O:1]c2ccc3c(c2)CN(C(=O)C(NC(=O)C(C)NC)C(C)(C)C)C(C(=O)NC2CCCc4ccccc42)C3)C1=O)c1cccc(Cl)c1[100NH:0][100C:0](=O)N1CCCC(n2nc(-c3ccc(Oc4ccc(F)cc4F)cc3)c(C(N)=O)c2N)C1

> <Shape>
0.265

> <Color>
0.118

> <Negative vol penalty>
0.000

$$$$

  -OEChem-04042322263D

 87 95  0     1  0  0  0  0  0999 V2000
  -23.2035  -10.4029   18.5565 C   0  0  0  0  0  0  0  0  0  0  0  0
  -22.4590  -11.5767   18.6145 C   0  0  0  0  0  0  0  0  0  0  0  0
  -28.9490  -26.5583   19.1682 C   0  0  0  0  0  0  0  0  0  0  0  0
  -28.4524  -26.4220   21.5287 C   0  0  0  0  0  0  0  0  0  0  0  0
  -24.4064  -10.3065   19.2548 C   0  0  0  0  0  0  0  0  0  0  0  0
  -22.9165  -12.6544   19.3719 C   0  0  0  0  0  0  0  0  0  0  0  0
  -22.9119  -19.8174   19.4604 C   0  0  0  0  0  0  0  0  0  0  0  0
  -18.2743  -29.2190   23.0123 C   0  0  0  0  0  0  0  0  0  0  0  0
  -30.2943  -26.7778   19.4639 C   0  0  0  0  0  0  0  0  0  0  0  0
  -29.7978  -26.6414   21.8244 C   0  0  0  0  0  0  0  0  0  0  0  0
  -22.5994  -20.8840   20.3022 C   0  0  0  0  0  0  0  0  0  0  0  0
  -32.6617  -24.8478   21.8671 C   0  0  0  0  0  0  0  0  0  0  0  0
  -33.2507  -24.0380   22.8381 C   0  0  0  0  0  0  0  0  0  0  0  0
  -17.2185  -28.3163   23.1383 C   0  0  0  0  0  0  0  0  0  0  0  0
  -24.7309  -20.6315   21.4032 C   0  0  0  0  0  0  0  0  0  0  0  0
  -18.7239  -26.6903   24.1013 C   0  0  0  0  0  0  0  0  0  0  0  0
  -33.7511  -25.9936   24.1656 C   0  0  0  0  0  0  0  0  0  0  0  0
  -28.0280  -26.3804   20.2007 C   0  0  0  0  0  0  0  0  0  0  0  0
  -26.0035  -24.9144   19.6911 C   0  0  0  0  0  0  0  0  0  0  0  0
  -24.8837  -11.3870   20.0133 C   0  0  0  0  0  0  0  0  0  0  0  0
  -24.1337  -19.1418   19.5911 C   0  0  0  0  0  0  0  0  0  0  0  0
  -24.1263  -12.5719   20.0821 C   0  0  0  0  0  0  0  0  0  0  0  0
  -25.0575  -19.5583   20.5602 C   0  0  0  0  0  0  0  0  0  0  0  0
  -19.5549  -28.8574   23.4306 C   0  0  0  0  0  0  0  0  0  0  0  0
  -19.7797  -27.5931   23.9751 C   0  0  0  0  0  0  0  0  0  0  0  0
  -30.7188  -26.8193   20.7920 C   0  0  0  0  0  0  0  0  0  0  0  0
  -23.5078  -21.2893   21.2757 C   0  0  0  0  0  0  0  0  0  0  0  0
  -32.6174  -26.2306   22.0453 C   0  0  0  0  0  0  0  0  0  0  0  0
  -33.7954  -24.6109   23.9873 C   0  0  0  0  0  0  0  0  0  0  0  0
  -33.1620  -26.8035   23.1946 C   0  0  0  0  0  0  0  0  0  0  0  0
  -17.4433  -27.0519   23.6829 C   0  0  0  0  0  0  0  0  0  0  0  0
  -26.6380  -26.1543   19.8959 C   0  0  0  0  0  0  0  0  0  0  0  0
  -24.6933  -25.2374   19.4350 C   0  0  0  0  0  0  0  0  0  0  0  0
  -21.1368  -24.3114   24.0174 C   0  0  0  0  0  0  0  0  0  0  0  0
  -21.7189  -23.1294   23.7705 C   0  0  0  0  0  0  0  0  0  0  0  0
  -26.5495  -23.5893   19.7290 C   0  0  0  0  0  0  0  0  0  0  0  0
  -21.0896  -24.8414   25.4108 C   0  0  0  0  0  0  0  0  0  0  0  0
  -24.9844  -16.1598   20.2897 C   0  0  0  0  0  0  0  0  0  0  0  0
  -27.9559  -17.2581   19.5924 C   0  0  0  0  0  0  0  0  0  0  0  0
  -30.0761  -19.9208   19.3434 C   0  0  0  0  0  0  0  0  0  0  0  0
  -21.2970  -29.9502   20.8863 C   0  0  0  0  0  0  0  0  0  0  0  0
  -26.1660  -11.2190   20.7893 C   0  0  0  0  0  0  0  0  0  0  0  0
  -24.4669  -18.0104   18.6576 C   0  0  0  0  0  0  0  0  0  0  0  0
  -26.3914  -18.8792   20.7280 C   0  0  0  0  0  0  0  0  0  0  0  0
  -26.7665  -12.5388   21.2665 C   0  0  0  0  0  0  0  0  0  0  0  0
  -21.9869  -28.7360   17.6112 C   0  0  0  0  0  0  0  0  0  0  0  0
  -25.6902  -13.4192   21.8937 C   0  0  0  0  0  0  0  0  0  0  0  0
  -23.1999  -27.8248   17.8068 C   0  0  0  0  0  0  0  0  0  0  0  0
  -22.0458  -29.9581   18.5250 C   0  0  0  0  0  0  0  0  0  0  0  0
  -23.4410  -28.7416   20.1521 C   0  0  0  0  0  0  0  0  0  0  0  0
  -24.6016  -13.7715   20.8728 C   0  0  1  0  0  0  0  0  0  0  0  0
  -25.5244  -17.0647   19.2185 C   0  0  1  0  0  0  0  0  0  0  0  0
  -23.3986  -27.4669   19.2920 C   0  0  2  0  0  0  0  0  0  0  0  0
  -32.4534  -20.5006   18.7871 C   0  0  0  0  0  0  0  0  0  0  0  0
  -28.8463  -16.2107   22.3164 C   0  0  0  0  0  0  0  0  0  0  0  0
  -30.9029  -17.6234   22.1096 C   0  0  0  0  0  0  0  0  0  0  0  0
  -30.4714  -15.8027   20.4598 C   0  0  0  0  0  0  0  0  0  0  0  0
  -21.0807  -26.8259   26.8731 C   0  0  0  0  0  0  0  0  0  0  0  0
  -29.2505  -21.6227   17.0673 C   0  0  0  0  0  0  0  0  0  0  0  0
  -20.6700  -29.8402   23.2850 C   0  0  0  0  0  0  0  0  0  0  0  0
  -21.1496  -27.1811   24.4308 C   0  0  0  0  0  0  0  0  0  0  0  0
  -21.8263  -22.5384   22.4018 C   0  0  0  0  0  0  0  0  0  1  0  0
  -29.0690  -17.9049   20.3809 C   0  0  1  0  0  0  0  0  0  0  0  0
  -31.0400  -20.3420   18.2489 C   0  0  2  0  0  0  0  0  0  0  0  0
  -29.7965  -16.8972   21.3151 C   0  0  0  0  0  0  0  0  0  0  0  0
  -25.8000  -27.1878   19.7798 N   0  0  0  0  0  0  0  0  0  0  0  0
  -24.6254  -26.5981   19.4992 N   0  0  0  0  0  0  0  0  0  0  0  0
  -26.6682  -17.7741   19.7954 N   0  0  0  0  0  0  0  0  0  0  0  0
  -22.2338  -29.5498   19.9192 N   0  0  0  0  0  0  0  0  0  0  0  0
  -23.6042  -24.4875   19.1633 N   0  0  0  0  0  0  0  0  0  0  0  0
  -27.9148  -23.4369   20.0066 N   0  0  0  0  0  0  0  0  0  0  0  0
  -25.0625  -14.8149   19.9822 N   0  0  0  0  0  0  0  0  0  0  0  0
  -29.9397  -18.5500   19.4041 N   0  0  0  0  0  0  0  0  0  0  0  0
  -21.5466  -29.5149   22.1820 N   0  0  0  0  0  0  0  0  0  0  0  0
  -21.0944  -26.2330   25.5420 N   0  0  0  0  0  0  0  0  0  0  0  0
  -30.6144  -21.6412   17.6557 N   0  3  0  0  0  0  0  0  0  0  0  0
  -25.8509  -22.5714   19.5065 O   0  0  0  0  0  0  0  0  0  0  0  0
  -21.0743  -24.0589   26.3622 O   0  0  0  0  0  0  0  0  0  0  0  0
  -24.5319  -16.6458   21.3196 O   0  0  0  0  0  0  0  0  0  0  0  0
  -28.2204  -16.3340   18.8192 O   0  0  0  0  0  0  0  0  0  0  0  0
  -29.5044  -20.7269   20.0741 O   0  0  0  0  0  0  0  0  0  0  0  0
  -20.3084  -30.6398   20.6141 O   0  0  0  0  0  0  0  0  0  0  0  0
  -32.0316  -27.0332   21.0808 O   0  0  0  0  0  0  0  0  0  0  0  0
  -23.2051  -22.3296   22.0991 O   0  0  0  0  0  0  0  0  0  1  0  0
  -34.3596  -23.8329   24.9204 F   0  0  0  0  0  0  0  0  0  0  0  0
  -33.1214  -28.1311   23.3720 F   0  0  0  0  0  0  0  0  0  0  0  0
  -16.1410  -25.9379   23.8366 Cl  0  0  0  0  0  0  0  0  0  0  0  0
  1  2  1  0  0  0  0
  1  5  2  0  0  0  0
  2  6  2  0  0  0  0
  3  9  2  0  0  0  0
  3 18  1  0  0  0  0
  4 10  1  0  0  0  0
  4 18  2  0  0  0  0
  5 20  1  0  0  0  0
  6 22  1  0  0  0  0
  7 11  2  0  0  0  0
  7 21  1  0  0  0  0
  8 14  2  0  0  0  0
  8 24  1  0  0  0  0
  9 26  1  0  0  0  0
 10 26  2  0  0  0  0
 11 27  1  0  0  0  0
 12 13  2  0  0  0  0
 12 28  1  0  0  0  0
 13 29  1  0  0  0  0
 14 31  1  0  0  0  0
 15 23  1  0  0  0  0
 15 27  2  0  0  0  0
 16 25  1  0  0  0  0
 16 31  2  0  0  0  0
 17 29  2  0  0  0  0
 17 30  1  0  0  0  0
 18 32  1  0  0  0  0
 19 32  1  0  0  0  0
 19 33  2  0  0  0  0
 19 36  1  0  0  0  0
 20 22  2  0  0  0  0
 20 42  1  0  0  0  0
 21 23  2  0  0  0  0
 21 43  1  0  0  0  0
 22 51  1  0  0  0  0
 23 44  1  0  0  0  0
 24 25  2  0  0  0  0
 24 60  1  0  0  0  0
 25 61  1  0  0  0  0
 26 83  1  0  0  0  0
 27 84  1  0  0  0  0
 28 30  2  0  0  0  0
 28 83  1  0  0  0  0
 29 85  1  0  0  0  0
 30 86  1  0  0  0  0
 31 87  1  0  0  0  0
 32 66  2  0  0  0  0
 33 67  1  0  0  0  0
 33 70  1  0  0  0  0
 34 35  2  0  0  0  0
 34 37  1  0  0  0  0
 35 62  1  0  0  0  0
 36 71  1  0  0  0  0
 36 77  2  0  0  0  0
 37 75  1  0  0  0  0
 37 78  2  0  0  0  0
 38 52  1  0  0  0  0
 38 72  1  0  0  0  0
 38 79  2  0  0  0  0
 39 63  1  0  0  0  0
 39 68  1  0  0  0  0
 39 80  2  0  0  0  0
 40 64  1  0  0  0  0
 40 73  1  0  0  0  0
 40 81  2  0  0  0  0
 41 69  1  0  0  0  0
 41 74  1  0  0  0  0
 41 82  2  0  0  0  0
 42 45  1  0  0  0  0
 43 52  1  0  0  0  0
 44 68  1  0  0  0  0
 45 47  1  0  0  0  0
 46 48  1  0  0  0  0
 46 49  1  0  0  0  0
 47 51  1  0  0  0  0
 48 53  1  0  0  0  0
 49 69  1  0  0  0  0
 50 53  1  0  0  0  0
 50 69  1  0  0  0  0
 51 72  1  0  0  0  0
 52 68  1  0  0  0  0
 53 67  1  0  0  0  0
 54 64  1  0  0  0  0
 55 65  1  0  0  0  0
 56 65  1  0  0  0  0
 57 65  1  0  0  0  0
 58 75  1  0  0  0  0
 59 76  1  0  0  0  0
 60 74  1  0  0  0  0
 61 75  1  0  0  0  0
 62 84  1  0  0  0  0
 63 65  1  0  0  0  0
 63 73  1  0  0  0  0
 64 76  1  0  0  0  0
 66 67  1  0  0  0  0
M  CHG  1  76   1
M  ISO  4  41 100  62 101  74 100  84 101
M  END
> <Batch ID>
0047

> <Smiles>
CNC(C)C(=O)NC(C(=O)N1Cc2cc([101O:1][101CH2:1]C=CC(=O)N(C)Cc3cc(Cl)ccc3C[100NH:0][100C:0](=O)N3CCCC(n4nc(-c5ccc(Oc6ccc(F)cc6F)cc5)c(C(N)=O)c4N)C3)ccc2CC1C(=O)NC1CCCc2ccccc21)C(C)(C)C

> <Shape>
0.207

> <Color>
0.071

> <Negative vol penalty>
0.000

$$$$

  -OEChem-04042322263D

 94103  0     1  0  0  0  0  0999 V2000
  -20.0184  -26.5262   19.8011 C   0  0  0  0  0  0  0  0  0  0  0  0
  -21.8616  -12.3550   21.4512 C   0  0  0  0  0  0  0  0  0  0  0  0
  -21.4589  -13.6864   21.4286 C   0  0  0  0  0  0  0  0  0  0  0  0
  -17.1238  -29.7255   22.5148 C   0  0  0  0  0  0  0  0  0  0  0  0
  -31.0393  -26.2954   18.9001 C   0  0  0  0  0  0  0  0  0  0  0  0
  -30.6572  -28.6546   19.2540 C   0  0  0  0  0  0  0  0  0  0  0  0
  -23.2111  -12.0385   21.6021 C   0  0  0  0  0  0  0  0  0  0  0  0
  -22.4054  -14.7022   21.5581 C   0  0  0  0  0  0  0  0  0  0  0  0
  -22.3015  -20.1969   18.8556 C   0  0  0  0  0  0  0  0  0  0  0  0
  -18.4338  -30.0234   22.8899 C   0  0  0  0  0  0  0  0  0  0  0  0
  -32.1702  -26.5926   18.1396 C   0  0  0  0  0  0  0  0  0  0  0  0
  -31.7881  -28.9518   18.4934 C   0  0  0  0  0  0  0  0  0  0  0  0
  -21.9019  -21.4552   19.3036 C   0  0  0  0  0  0  0  0  0  0  0  0
  -35.3826  -27.4879   18.6976 C   0  0  0  0  0  0  0  0  0  0  0  0
  -36.5391  -26.7463   18.9385 C   0  0  0  0  0  0  0  0  0  0  0  0
  -16.7373  -28.3987   22.3247 C   0  0  0  0  0  0  0  0  0  0  0  0
  -24.1898  -21.9757   19.8636 C   0  0  0  0  0  0  0  0  0  0  0  0
  -36.5224  -25.9763   16.6486 C   0  0  0  0  0  0  0  0  0  0  0  0
  -30.2828  -27.3264   19.4573 C   0  0  0  0  0  0  0  0  0  0  0  0
  -29.0607  -26.2595   21.4260 C   0  0  0  0  0  0  0  0  0  0  0  0
  -24.1757  -13.0511   21.7237 C   0  0  0  0  0  0  0  0  0  0  0  0
  -23.6490  -19.8138   18.9183 C   0  0  0  0  0  0  0  0  0  0  0  0
  -23.7688  -14.3990   21.7120 C   0  0  0  0  0  0  0  0  0  0  0  0
  -24.6043  -20.7130   19.4133 C   0  0  0  0  0  0  0  0  0  0  0  0
  -19.3574  -28.9947   23.0747 C   0  0  0  0  0  0  0  0  0  0  0  0
  -18.9710  -27.6679   22.8845 C   0  0  0  0  0  0  0  0  0  0  0  0
  -32.5446  -27.9207   17.9362 C   0  0  0  0  0  0  0  0  0  0  0  0
  -22.8456  -22.3437   19.8104 C   0  0  0  0  0  0  0  0  0  0  0  0
  -34.7959  -27.4737   17.4322 C   0  0  0  0  0  0  0  0  0  0  0  0
  -37.1090  -25.9905   17.9140 C   0  0  0  0  0  0  0  0  0  0  0  0
  -35.3658  -26.7179   16.4077 C   0  0  0  0  0  0  0  0  0  0  0  0
  -17.6610  -27.3700   22.5095 C   0  0  0  0  0  0  0  0  0  0  0  0
  -29.1142  -27.0200   20.2426 C   0  0  0  0  0  0  0  0  0  0  0  0
  -27.7328  -26.2637   21.7771 C   0  0  0  0  0  0  0  0  0  0  0  0
  -20.3772  -25.7978   20.8224 C   0  0  0  0  0  0  0  0  0  0  0  0
  -17.1194  -23.7031   23.9760 C   0  0  0  0  0  0  0  0  0  0  0  0
  -17.4226  -24.9940   23.8270 C   0  0  0  0  0  0  0  0  0  0  0  0
  -19.6596  -27.2555   18.7795 C   0  0  0  0  0  0  0  0  0  0  0  0
  -30.1168  -25.6077   22.1439 C   0  0  0  0  0  0  0  0  0  0  0  0
  -25.2617  -17.5210   20.4169 C   0  0  0  0  0  0  0  0  0  0  0  0
  -27.7430  -18.6595   18.6649 C   0  0  0  0  0  0  0  0  0  0  0  0
  -29.0117  -21.8923   17.6869 C   0  0  0  0  0  0  0  0  0  0  0  0
  -23.0322  -28.9496   22.5752 C   0  0  0  0  0  0  0  0  0  0  0  0
  -25.6171  -12.6594   21.9322 C   0  0  0  0  0  0  0  0  0  0  0  0
  -24.0677  -18.4630   18.4062 C   0  0  0  0  0  0  0  0  0  0  0  0
  -26.0663  -20.3578   19.4833 C   0  0  0  0  0  0  0  0  0  0  0  0
  -20.2292  -24.2961   20.8526 C   0  0  0  0  0  0  0  0  0  0  0  0
  -26.6002  -13.8012   21.6870 C   0  0  0  0  0  0  0  0  0  0  0  0
  -23.6500  -27.7831   19.2055 C   0  0  0  0  0  0  0  0  0  0  0  0
  -26.1236  -15.0740   22.3794 C   0  0  0  0  0  0  0  0  0  0  0  0
  -25.1333  -27.4163   19.2778 C   0  0  0  0  0  0  0  0  0  0  0  0
  -22.1314  -24.3045   22.5347 C   0  0  0  0  0  0  0  0  0  0  0  0
  -23.3487  -29.0321   20.0285 C   0  0  0  0  0  0  0  0  0  0  0  0
  -25.2489  -28.5784   21.5308 C   0  0  0  0  0  0  0  0  0  0  0  0
  -22.2733  -25.8127   22.3405 C   0  0  0  0  0  0  0  0  0  0  0  0
  -24.7685  -15.5295   21.8246 C   0  0  1  0  0  0  0  0  0  0  0  0
  -25.3921  -17.9854   18.9938 C   0  0  1  0  0  0  0  0  0  0  0  0
  -25.6140  -27.3107   20.7372 C   0  0  2  0  0  0  0  0  0  0  0  0
  -21.5144  -23.6122   21.3193 C   0  0  2  0  0  0  0  0  0  1  0  0
  -19.0635  -26.6583   17.5367 C   0  0  0  0  0  0  0  0  0  0  0  0
  -19.8102  -28.7500   18.7676 C   0  0  0  0  0  0  0  0  0  0  0  0
  -30.3636  -22.5775   15.6868 C   0  0  0  0  0  0  0  0  0  0  0  0
  -30.1407  -18.2461   20.5060 C   0  0  0  0  0  0  0  0  0  0  0  0
  -31.2060  -20.2529   19.4543 C   0  0  0  0  0  0  0  0  0  0  0  0
  -30.6873  -18.2466   18.0656 C   0  0  0  0  0  0  0  0  0  0  0  0
  -27.0319  -23.9499   16.9087 C   0  0  0  0  0  0  0  0  0  0  0  0
  -20.7537  -29.3422   23.4760 C   0  0  0  0  0  0  0  0  0  0  0  0
  -19.9715  -26.5681   23.0857 C   0  0  0  0  0  0  0  0  0  0  0  0
  -28.7968  -19.7212   18.8679 C   0  0  1  0  0  0  0  0  0  0  0  0
  -28.9726  -22.5014   16.2970 C   0  0  2  0  0  0  0  0  0  0  0  0
  -30.1821  -19.1186   19.2357 C   0  0  0  0  0  0  0  0  0  0  0  0
  -27.9157  -27.4742   19.8668 N   0  0  0  0  0  0  0  0  0  0  0  0
  -18.0697  -25.1801   21.1360 N   0  0  0  0  0  0  0  0  0  0  0  0
  -27.0965  -26.9976   20.8196 N   0  0  0  0  0  0  0  0  0  0  0  0
  -26.4251  -19.0230   18.9762 N   0  0  0  0  0  0  0  0  0  0  0  0
  -23.8143  -28.8593   21.4118 N   0  0  0  0  0  0  0  0  0  0  0  0
  -27.0591  -25.7111   22.8082 N   0  0  0  0  0  0  0  0  0  0  0  0
  -30.7879  -26.3257   23.1431 N   0  0  0  0  0  0  0  0  0  0  0  0
  -24.9403  -16.1832   20.5449 N   0  0  0  0  0  0  0  0  0  0  0  0
  -28.8003  -20.5301   17.6538 N   0  0  0  0  0  0  0  0  0  0  0  0
  -21.6850  -29.2252   22.3760 N   0  0  0  0  0  0  0  0  0  0  0  0
  -20.9642  -26.4615   21.9611 N   0  3  2  0  0  0  0  0  0  0  0  0
  -28.4070  -23.8791   16.3509 N   0  3  0  0  0  0  0  0  0  0  0  0
  -30.4664  -24.4289   21.8950 O   0  0  0  0  0  0  0  0  0  0  0  0
  -25.4410  -18.3171   21.3311 O   0  0  0  0  0  0  0  0  0  0  0  0
  -28.0759  -17.5507   18.2388 O   0  0  0  0  0  0  0  0  0  0  0  0
  -29.2135  -22.5577   18.7003 O   0  0  0  0  0  0  0  0  0  0  0  0
  -23.4991  -28.7908   23.7084 O   0  0  0  0  0  0  0  0  0  0  0  0
  -15.6817  -25.7499   22.1222 O   0  0  0  0  0  0  0  0  0  0  0  0
  -33.6482  -28.2111   17.1943 O   0  0  0  0  0  0  0  0  0  0  0  0
  -22.4582  -23.5723   20.2491 O   0  0  0  0  0  0  0  0  0  1  0  0
  -38.2205  -25.2796   18.1451 F   0  0  0  0  0  0  0  0  0  0  0  0
  -34.8074  -26.7012   15.1896 F   0  0  0  0  0  0  0  0  0  0  0  0
  -17.1384  -25.7178   22.2613 S   0  0  2  0  0  0  0  0  0  0  0  0
  1 35  2  0  0  0  0
  1 38  2  0  0  0  0
  2  3  1  0  0  0  0
  2  7  2  0  0  0  0
  3  8  2  0  0  0  0
  4 10  1  0  0  0  0
  4 16  2  0  0  0  0
  5 11  2  0  0  0  0
  5 19  1  0  0  0  0
  6 12  1  0  0  0  0
  6 19  2  0  0  0  0
  7 21  1  0  0  0  0
  8 23  1  0  0  0  0
  9 13  2  0  0  0  0
  9 22  1  0  0  0  0
 10 25  2  0  0  0  0
 11 27  1  0  0  0  0
 12 27  2  0  0  0  0
 13 28  1  0  0  0  0
 14 15  2  0  0  0  0
 14 29  1  0  0  0  0
 15 30  1  0  0  0  0
 16 32  1  0  0  0  0
 17 24  1  0  0  0  0
 17 28  2  0  0  0  0
 18 30  2  0  0  0  0
 18 31  1  0  0  0  0
 19 33  1  0  0  0  0
 20 33  1  0  0  0  0
 20 34  2  0  0  0  0
 20 39  1  0  0  0  0
 21 23  2  0  0  0  0
 21 44  1  0  0  0  0
 22 24  2  0  0  0  0
 22 45  1  0  0  0  0
 23 56  1  0  0  0  0
 24 46  1  0  0  0  0
 25 26  1  0  0  0  0
 25 67  1  0  0  0  0
 26 32  2  0  0  0  0
 26 68  1  0  0  0  0
 27 90  1  0  0  0  0
 28 91  1  0  0  0  0
 29 31  2  0  0  0  0
 29 90  1  0  0  0  0
 30 92  1  0  0  0  0
 31 93  1  0  0  0  0
 32 94  1  0  0  0  0
 33 72  2  0  0  0  0
 34 74  1  0  0  0  0
 34 77  1  0  0  0  0
 35 47  1  0  0  0  0
 35 82  1  0  0  0  0
 36 37  2  0  0  0  0
 37 94  1  0  0  0  0
 38 60  1  0  0  0  0
 38 61  1  0  0  0  0
 39 78  1  0  0  0  0
 39 84  2  0  0  0  0
 40 57  1  0  0  0  0
 40 79  1  0  0  0  0
 40 85  2  0  0  0  0
 41 69  1  0  0  0  0
 41 75  1  0  0  0  0
 41 86  2  0  0  0  0
 42 70  1  0  0  0  0
 42 80  1  0  0  0  0
 42 87  2  0  0  0  0
 43 76  1  0  0  0  0
 43 81  1  0  0  0  0
 43 88  2  0  0  0  0
 44 48  1  0  0  0  0
 45 57  1  0  0  0  0
 46 75  1  0  0  0  0
 47 59  1  0  0  0  0
 48 50  1  0  0  0  0
 49 51  1  0  0  0  0
 49 53  1  0  0  0  0
 50 56  1  0  0  0  0
 51 58  1  0  0  0  0
 52 55  1  0  0  0  0
 52 59  1  0  0  0  0
 53 76  1  0  0  0  0
 54 58  1  0  0  0  0
 54 76  1  0  0  0  0
 55 82  1  0  0  0  0
 56 79  1  0  0  0  0
 57 75  1  0  0  0  0
 58 74  1  0  0  0  0
 59 91  1  0  0  0  0
 62 70  1  0  0  0  0
 63 71  1  0  0  0  0
 64 71  1  0  0  0  0
 65 71  1  0  0  0  0
 66 83  1  0  0  0  0
 67 81  1  0  0  0  0
 68 82  1  0  0  0  0
 69 71  1  0  0  0  0
 69 80  1  0  0  0  0
 70 83  1  0  0  0  0
 72 74  1  0  0  0  0
 73 94  2  0  0  0  0
 89 94  2  0  0  0  0
M  CHG  2  82   1  83   1
M  ISO  4  43 100  59 101  81 100  91 101
M  END
> <Batch ID>
0047

> <Smiles>
C=CS(=N)(=O)c1cccc(C[100NH:0][100C:0](=O)N2CCCC(n3nc(-c4ccc(Oc5ccc(F)cc5F)cc4)c(C(N)=O)c3N)C2)c1CN1CC[101CH:1]([101O:1]c2ccc3c(c2)CN(C(=O)C(NC(=O)C(C)NC)C(C)(C)C)C(C(=O)NC2CCCc4ccccc42)C3)CC1=C=C(C)C

> <Shape>
0.225

> <Color>
0.068

> <Negative vol penalty>
0.000

$$$$

  -OEChem-04042322263D

 84 92  0     1  0  0  0  0  0999 V2000
  -29.7615  -23.6109   17.9556 C   0  0  0  0  0  0  0  0  0  0  0  0
  -28.5771  -23.6742   18.6827 C   0  0  0  0  0  0  0  0  0  0  0  0
  -28.3771  -14.5847   20.6597 C   0  0  0  0  0  0  0  0  0  0  0  0
  -26.1830  -15.5871   20.7947 C   0  0  0  0  0  0  0  0  0  0  0  0
  -30.8200  -24.4604   18.2745 C   0  0  0  0  0  0  0  0  0  0  0  0
  -28.4509  -24.5864   19.7297 C   0  0  0  0  0  0  0  0  0  0  0  0
  -24.0144  -27.0271   19.6561 C   0  0  0  0  0  0  0  0  0  0  0  0
  -25.0030  -22.6808   28.2579 C   0  0  0  0  0  0  0  0  0  0  0  0
  -26.1106  -22.2590   27.5225 C   0  0  0  0  0  0  0  0  0  0  0  0
  -27.7940  -13.3212   20.5637 C   0  0  0  0  0  0  0  0  0  0  0  0
  -25.5998  -14.3236   20.6986 C   0  0  0  0  0  0  0  0  0  0  0  0
  -22.9003  -26.3373   20.1323 C   0  0  0  0  0  0  0  0  0  0  0  0
  -25.0137  -11.6889   22.7347 C   0  0  0  0  0  0  0  0  0  0  0  0
  -23.9700  -11.3886   23.6099 C   0  0  0  0  0  0  0  0  0  0  0  0
  -24.7159  -22.0085   25.5656 C   0  0  0  0  0  0  0  0  0  0  0  0
  -23.0858  -27.5026   22.2364 C   0  0  0  0  0  0  0  0  0  0  0  0
  -22.4960  -11.0310   21.7294 C   0  0  0  0  0  0  0  0  0  0  0  0
  -27.5716  -15.7176   20.7753 C   0  0  0  0  0  0  0  0  0  0  0  0
  -23.6082  -22.4303   26.3011 C   0  0  0  0  0  0  0  0  0  0  0  0
  -28.5041  -17.8899   19.8163 C   0  0  0  0  0  0  0  0  0  0  0  0
  -30.7033  -25.3902   19.3197 C   0  0  0  0  0  0  0  0  0  0  0  0
  -24.6803  -27.9533   20.4716 C   0  0  0  0  0  0  0  0  0  0  0  0
  -29.5094  -25.4482   20.0637 C   0  0  0  0  0  0  0  0  0  0  0  0
  -24.2066  -28.2046   21.7672 C   0  0  0  0  0  0  0  0  0  0  0  0
  -23.7517  -22.7664   27.6473 C   0  0  0  0  0  0  0  0  0  0  0  0
  -25.9670  -21.9229   26.1763 C   0  0  0  0  0  0  0  0  0  0  0  0
  -26.4054  -13.1907   20.5831 C   0  0  0  0  0  0  0  0  0  0  0  0
  -22.4376  -26.5729   21.4236 C   0  0  0  0  0  0  0  0  0  0  0  0
  -24.7986  -11.6603   21.3568 C   0  0  0  0  0  0  0  0  0  0  0  0
  -22.7111  -11.0596   23.1073 C   0  0  0  0  0  0  0  0  0  0  0  0
  -23.5397  -11.3314   20.8542 C   0  0  0  0  0  0  0  0  0  0  0  0
  -28.1733  -17.0230   20.8751 C   0  0  0  0  0  0  0  0  0  0  0  0
  -29.0447  -18.9925   20.4314 C   0  0  0  0  0  0  0  0  0  0  0  0
  -22.2876  -22.5130   25.6258 C   0  0  0  0  0  0  0  0  0  0  0  0
  -28.3373  -17.7141   18.4032 C   0  0  0  0  0  0  0  0  0  0  0  0
  -27.6152  -28.1839   21.6703 C   0  0  0  0  0  0  0  0  0  0  0  0
  -26.5579  -31.0824   22.6720 C   0  0  0  0  0  0  0  0  0  0  0  0
  -23.9130  -33.0736   23.5005 C   0  0  0  0  0  0  0  0  0  0  0  0
  -28.4028  -21.3502   25.8844 C   0  0  0  0  0  0  0  0  0  0  0  0
  -31.8916  -26.2552   19.6580 C   0  0  0  0  0  0  0  0  0  0  0  0
  -25.8646  -28.7086   19.9337 C   0  0  0  0  0  0  0  0  0  0  0  0
  -24.8737  -29.2038   22.6756 C   0  0  0  0  0  0  0  0  0  0  0  0
  -31.5429  -27.4515   20.5398 C   0  0  0  0  0  0  0  0  0  0  0  0
  -31.4436  -20.2837   24.3700 C   0  0  0  0  0  0  0  0  0  0  0  0
  -30.6520  -27.0180   21.6996 C   0  0  0  0  0  0  0  0  0  0  0  0
  -30.9801  -19.4103   23.2019 C   0  0  0  0  0  0  0  0  0  0  0  0
  -30.5424  -20.1206   25.5927 C   0  0  0  0  0  0  0  0  0  0  0  0
  -28.6464  -19.4473   24.1711 C   0  0  0  0  0  0  0  0  0  0  0  0
  -29.3253  -26.4415   21.1906 C   0  0  1  0  0  0  0  0  0  0  0  0
  -26.7748  -29.2525   21.0306 C   0  0  1  0  0  0  0  0  0  0  0  0
  -29.4852  -19.6265   22.8952 C   0  0  2  0  0  0  0  0  0  0  0  0
  -22.5822  -23.2210   28.4581 C   0  0  0  0  0  0  0  0  0  0  0  0
  -23.3653  -35.3821   24.3180 C   0  0  0  0  0  0  0  0  0  0  0  0
  -27.4421  -30.2937   25.4838 C   0  0  0  0  0  0  0  0  0  0  0  0
  -26.0426  -32.1689   26.3745 C   0  0  0  0  0  0  0  0  0  0  0  0
  -27.9577  -32.6581   24.8528 C   0  0  0  0  0  0  0  0  0  0  0  0
  -22.3490  -33.6908   21.0649 C   0  0  0  0  0  0  0  0  0  0  0  0
  -20.5030  -24.3706   23.5341 C   0  0  0  0  0  0  0  0  0  0  0  0
  -20.4022  -24.0030   25.0083 C   0  0  0  0  0  0  0  0  0  0  0  0
  -21.2968  -25.6493   23.2948 C   0  0  0  0  0  0  0  0  0  1  0  0
  -25.8649  -31.5982   23.9100 C   0  0  1  0  0  0  0  0  0  0  0  0
  -23.5564  -34.4935   23.0988 C   0  0  2  0  0  0  0  0  0  0  0  0
  -26.8152  -31.6594   25.1391 C   0  0  0  0  0  0  0  0  0  0  0  0
  -28.4785  -17.5311   22.0721 N   0  0  0  0  0  0  0  0  0  0  0  0
  -29.0068  -18.7292   21.7691 N   0  0  0  0  0  0  0  0  0  0  0  0
  -26.0317  -29.9124   22.1061 N   0  0  0  0  0  0  0  0  0  0  0  0
  -29.1420  -20.3440   25.2271 N   0  0  0  0  0  0  0  0  0  0  0  0
  -29.5442  -20.1519   19.9532 N   0  0  0  0  0  0  0  0  0  0  0  0
  -27.7648  -16.5212   17.9412 N   0  0  0  0  0  0  0  0  0  0  0  0
  -27.0921  -21.4926   25.4302 N   0  0  0  0  0  0  0  0  0  0  0  0
  -21.6890  -23.7678   25.6024 N   0  0  0  0  0  0  0  0  0  0  0  0
  -28.4333  -27.5069   20.7861 N   0  0  0  0  0  0  0  0  0  0  0  0
  -25.2779  -32.8827   23.5440 N   0  0  0  0  0  0  0  0  0  0  0  0
  -22.2948  -34.5060   22.3057 N   0  3  0  0  0  0  0  0  0  0  0  0
  -21.7913  -21.4945   25.1516 O   0  0  0  0  0  0  0  0  0  0  0  0
  -28.7009  -18.5821   17.5738 O   0  0  0  0  0  0  0  0  0  0  0  0
  -27.5290  -27.9891   22.8771 O   0  0  0  0  0  0  0  0  0  0  0  0
  -27.5258  -31.6988   22.2195 O   0  0  0  0  0  0  0  0  0  0  0  0
  -23.0656  -32.2204   23.7542 O   0  0  0  0  0  0  0  0  0  0  0  0
  -28.9046  -22.0535   26.7651 O   0  0  0  0  0  0  0  0  0  0  0  0
  -25.8360  -11.9580   20.4891 O   0  0  0  0  0  0  0  0  0  0  0  0
  -21.3507  -25.9006   21.8912 O   0  0  0  0  0  0  0  0  0  1  0  0
  -21.7093  -10.7698   23.9479 F   0  0  0  0  0  0  0  0  0  0  0  0
  -23.3273  -11.3011   19.5314 F   0  0  0  0  0  0  0  0  0  0  0  0
  1  2  1  0  0  0  0
  1  5  2  0  0  0  0
  2  6  2  0  0  0  0
  3 10  2  0  0  0  0
  3 18  1  0  0  0  0
  4 11  1  0  0  0  0
  4 18  2  0  0  0  0
  5 21  1  0  0  0  0
  6 23  1  0  0  0  0
  7 12  2  0  0  0  0
  7 22  1  0  0  0  0
  8  9  2  0  0  0  0
  8 25  1  0  0  0  0
  9 26  1  0  0  0  0
 10 27  1  0  0  0  0
 11 27  2  0  0  0  0
 12 28  1  0  0  0  0
 13 14  2  0  0  0  0
 13 29  1  0  0  0  0
 14 30  1  0  0  0  0
 15 19  1  0  0  0  0
 15 26  2  0  0  0  0
 16 24  1  0  0  0  0
 16 28  2  0  0  0  0
 17 30  2  0  0  0  0
 17 31  1  0  0  0  0
 18 32  1  0  0  0  0
 19 25  2  0  0  0  0
 19 34  1  0  0  0  0
 20 32  1  0  0  0  0
 20 33  2  0  0  0  0
 20 35  1  0  0  0  0
 21 23  2  0  0  0  0
 21 40  1  0  0  0  0
 22 24  2  0  0  0  0
 22 41  1  0  0  0  0
 23 49  1  0  0  0  0
 24 42  1  0  0  0  0
 25 52  1  0  0  0  0
 26 70  1  0  0  0  0
 27 81  1  0  0  0  0
 28 82  1  0  0  0  0
 29 31  2  0  0  0  0
 29 81  1  0  0  0  0
 30 83  1  0  0  0  0
 31 84  1  0  0  0  0
 32 64  2  0  0  0  0
 33 65  1  0  0  0  0
 33 68  1  0  0  0  0
 34 71  1  0  0  0  0
 34 75  2  0  0  0  0
 35 69  1  0  0  0  0
 35 76  2  0  0  0  0
 36 50  1  0  0  0  0
 36 72  1  0  0  0  0
 36 77  2  0  0  0  0
 37 61  1  0  0  0  0
 37 66  1  0  0  0  0
 37 78  2  0  0  0  0
 38 62  1  0  0  0  0
 38 73  1  0  0  0  0
 38 79  2  0  0  0  0
 39 67  1  0  0  0  0
 39 70  1  0  0  0  0
 39 80  2  0  0  0  0
 40 43  1  0  0  0  0
 41 50  1  0  0  0  0
 42 66  1  0  0  0  0
 43 45  1  0  0  0  0
 44 46  1  0  0  0  0
 44 47  1  0  0  0  0
 45 49  1  0  0  0  0
 46 51  1  0  0  0  0
 47 67  1  0  0  0  0
 48 51  1  0  0  0  0
 48 67  1  0  0  0  0
 49 72  1  0  0  0  0
 50 66  1  0  0  0  0
 51 65  1  0  0  0  0
 53 62  1  0  0  0  0
 54 63  1  0  0  0  0
 55 63  1  0  0  0  0
 56 63  1  0  0  0  0
 57 74  1  0  0  0  0
 58 59  1  0  0  0  0
 58 60  1  0  0  0  0
 59 71  1  0  0  0  0
 60 82  1  0  0  0  0
 61 63  1  0  0  0  0
 61 73  1  0  0  0  0
 62 74  1  0  0  0  0
 64 65  1  0  0  0  0
M  CHG  1  74   1
M  ISO  4  39 100  60 101  70 100  82 101
M  END
> <Batch ID>
0047

> <Smiles>
CNC(C)C(=O)NC(C(=O)N1Cc2cc([101O:1][101CH2:1]CCNC(=O)c3cc([100NH:0][100C:0](=O)N4CCCC(n5nc(-c6ccc(Oc7ccc(F)cc7F)cc6)c(C(N)=O)c5N)C4)ccc3C)ccc2CC1C(=O)NC1CCCc2ccccc21)C(C)(C)C

> <Shape>
0.262

> <Color>
0.073

> <Negative vol penalty>
0.000

$$$$

  -OEChem-04042322263D

 83 91  0     1  0  0  0  0  0999 V2000
  -26.6864   -8.9838   33.2740 C   0  0  0  0  0  0  0  0  0  0  0  0
  -27.7114   -9.9238   33.3074 C   0  0  0  0  0  0  0  0  0  0  0  0
  -23.0752   -9.8687   19.9403 C   0  0  0  0  0  0  0  0  0  0  0  0
  -23.8348   -9.8746   22.2337 C   0  0  0  0  0  0  0  0  0  0  0  0
  -32.6523  -17.4904   23.4567 C   0  0  0  0  0  0  0  0  0  0  0  0
  -25.6994   -9.0649   32.2926 C   0  0  0  0  0  0  0  0  0  0  0  0
  -27.7505  -10.9450   32.3587 C   0  0  0  0  0  0  0  0  0  0  0  0
  -29.7022  -17.7966   31.6086 C   0  0  0  0  0  0  0  0  0  0  0  0
  -32.0644  -16.6060   22.5524 C   0  0  0  0  0  0  0  0  0  0  0  0
  -22.3309   -8.7157   20.1897 C   0  0  0  0  0  0  0  0  0  0  0  0
  -23.0905   -8.7216   22.4832 C   0  0  0  0  0  0  0  0  0  0  0  0
  -30.4774  -18.6117   30.7849 C   0  0  0  0  0  0  0  0  0  0  0  0
  -19.8620   -7.9247   23.0851 C   0  0  0  0  0  0  0  0  0  0  0  0
  -19.1049   -7.8846   24.2558 C   0  0  0  0  0  0  0  0  0  0  0  0
  -28.6746  -18.6989   29.1845 C   0  0  0  0  0  0  0  0  0  0  0  0
  -29.8807  -17.4558   23.1408 C   0  0  0  0  0  0  0  0  0  0  0  0
  -20.3455   -5.9464   24.9917 C   0  0  0  0  0  0  0  0  0  0  0  0
  -23.8272  -10.4481   20.9623 C   0  0  0  0  0  0  0  0  0  0  0  0
  -31.8543  -18.3575   24.2032 C   0  0  0  0  0  0  0  0  0  0  0  0
  -24.1700  -12.9732   20.8432 C   0  0  0  0  0  0  0  0  0  0  0  0
  -25.7210  -10.0932   31.3373 C   0  0  0  0  0  0  0  0  0  0  0  0
  -28.4092  -17.4170   31.2206 C   0  0  0  0  0  0  0  0  0  0  0  0
  -26.7635  -11.0392   31.3628 C   0  0  0  0  0  0  0  0  0  0  0  0
  -27.8840  -17.8810   30.0061 C   0  0  0  0  0  0  0  0  0  0  0  0
  -30.4686  -18.3402   24.0452 C   0  0  0  0  0  0  0  0  0  0  0  0
  -30.6787  -16.5887   22.3944 C   0  0  0  0  0  0  0  0  0  0  0  0
  -22.3385   -8.1422   21.4612 C   0  0  0  0  0  0  0  0  0  0  0  0
  -29.9648  -19.0606   29.5713 C   0  0  0  0  0  0  0  0  0  0  0  0
  -20.8608   -6.9756   22.8675 C   0  0  0  0  0  0  0  0  0  0  0  0
  -19.3466   -6.8955   25.2092 C   0  0  0  0  0  0  0  0  0  0  0  0
  -21.1026   -5.9865   23.8209 C   0  0  0  0  0  0  0  0  0  0  0  0
  -24.5968  -11.6388   20.7051 C   0  0  0  0  0  0  0  0  0  0  0  0
  -25.2624  -13.7224   20.4804 C   0  0  0  0  0  0  0  0  0  0  0  0
  -32.4971  -19.2863   25.1544 C   0  0  0  0  0  0  0  0  0  0  0  0
  -22.8996  -13.4893   21.2622 C   0  0  0  0  0  0  0  0  0  0  0  0
  -26.9751  -14.6487   30.6013 C   0  0  0  0  0  0  0  0  0  0  0  0
  -24.3311  -16.5144   30.3767 C   0  0  0  0  0  0  0  0  0  0  0  0
  -23.0080  -19.6075   29.8032 C   0  0  0  0  0  0  0  0  0  0  0  0
  -30.7290  -14.7660   20.6561 C   0  0  0  0  0  0  0  0  0  0  0  0
  -24.6586  -10.1122   30.2670 C   0  0  0  0  0  0  0  0  0  0  0  0
  -27.5757  -16.5591   32.1327 C   0  0  0  0  0  0  0  0  0  0  0  0
  -26.4941  -17.5186   29.5531 C   0  0  0  0  0  0  0  0  0  0  0  0
  -24.5638  -11.4437   29.5265 C   0  0  0  0  0  0  0  0  0  0  0  0
  -29.6140  -12.3535   18.2868 C   0  0  0  0  0  0  0  0  0  0  0  0
  -25.9526  -11.9338   29.1295 C   0  0  0  0  0  0  0  0  0  0  0  0
  -28.1742  -12.0622   18.7161 C   0  0  0  0  0  0  0  0  0  0  0  0
  -30.5290  -12.5815   19.4886 C   0  0  0  0  0  0  0  0  0  0  0  0
  -28.6222  -13.3061   20.8699 C   0  0  0  0  0  0  0  0  0  0  0  0
  -26.8265  -12.1761   30.3660 C   0  0  1  0  0  0  0  0  0  0  0  0
  -26.4640  -15.8136   31.4009 C   0  0  1  0  0  0  0  0  0  0  0  0
  -27.6494  -13.1336   19.6919 C   0  0  2  0  0  0  0  0  0  0  0  0
  -29.5934  -19.2608   24.8309 C   0  0  0  0  0  0  0  0  0  0  0  0
  -20.8126  -20.8134   29.6498 C   0  0  0  0  0  0  0  0  0  0  0  0
  -23.8529  -15.2888   27.6237 C   0  0  0  0  0  0  0  0  0  0  0  0
  -22.2628  -17.1619   27.1429 C   0  0  0  0  0  0  0  0  0  0  0  0
  -21.7914  -15.5762   29.0100 C   0  0  0  0  0  0  0  0  0  0  0  0
  -23.7062  -21.4048   32.0484 C   0  0  0  0  0  0  0  0  0  0  0  0
  -32.7390  -20.0619   27.4860 C   0  0  0  0  0  0  0  0  0  0  0  0
  -32.1348  -19.6821   28.8226 C   0  0  0  0  0  0  0  0  0  1  0  0
  -23.6489  -17.2725   29.2636 C   0  0  1  0  0  0  0  0  0  0  0  0
  -21.9652  -20.4127   30.5574 C   0  0  2  0  0  0  0  0  0  0  0  0
  -22.9160  -16.3302   28.2674 C   0  0  0  0  0  0  0  0  0  0  0  0
  -25.8616  -11.5427   20.2869 N   0  0  0  0  0  0  0  0  0  0  0  0
  -26.2390  -12.8262   20.1591 N   0  0  0  0  0  0  0  0  0  0  0  0
  -25.7206  -16.6725   30.4769 N   0  0  0  0  0  0  0  0  0  0  0  0
  -29.9703  -13.6122   20.3663 N   0  0  0  0  0  0  0  0  0  0  0  0
  -25.4733  -15.0538   20.4079 N   0  0  0  0  0  0  0  0  0  0  0  0
  -33.3724  -20.1701   24.6750 N   0  0  0  0  0  0  0  0  0  0  0  0
  -21.8874  -12.5804   21.5990 N   0  0  0  0  0  0  0  0  0  0  0  0
  -30.0819  -15.6910   21.4748 N   0  0  0  0  0  0  0  0  0  0  0  0
  -26.4686  -13.4266   31.0006 N   0  0  0  0  0  0  0  0  0  0  0  0
  -22.7809  -18.2516   29.9088 N   0  0  0  0  0  0  0  0  0  0  0  0
  -32.1726  -19.1951   26.4496 N   0  3  0  0  0  0  0  0  0  0  0  0
  -22.5740  -21.6516   31.1189 N   0  3  0  0  0  0  0  0  0  0  0  0
  -22.6638  -14.7200   21.3200 O   0  0  0  0  0  0  0  0  0  0  0  0
  -27.7690  -14.8443   29.6885 O   0  0  0  0  0  0  0  0  0  0  0  0
  -23.6550  -15.8137   31.1340 O   0  0  0  0  0  0  0  0  0  0  0  0
  -23.9295  -20.1293   29.1795 O   0  0  0  0  0  0  0  0  0  0  0  0
  -31.8582  -14.9345   20.1886 O   0  0  0  0  0  0  0  0  0  0  0  0
  -21.6121   -7.0172   21.7050 O   0  0  0  0  0  0  0  0  0  0  0  0
  -30.7196  -19.8558   28.7652 O   0  0  0  0  0  0  0  0  0  1  0  0
  -18.6206   -6.8580   26.3342 F   0  0  0  0  0  0  0  0  0  0  0  0
  -22.0616   -5.0728   23.6180 F   0  0  0  0  0  0  0  0  0  0  0  0
  1  2  1  0  0  0  0
  1  6  2  0  0  0  0
  2  7  2  0  0  0  0
  3 10  2  0  0  0  0
  3 18  1  0  0  0  0
  4 11  1  0  0  0  0
  4 18  2  0  0  0  0
  5  9  2  0  0  0  0
  5 19  1  0  0  0  0
  6 21  1  0  0  0  0
  7 23  1  0  0  0  0
  8 12  2  0  0  0  0
  8 22  1  0  0  0  0
  9 26  1  0  0  0  0
 10 27  1  0  0  0  0
 11 27  2  0  0  0  0
 12 28  1  0  0  0  0
 13 14  2  0  0  0  0
 13 29  1  0  0  0  0
 14 30  1  0  0  0  0
 15 24  1  0  0  0  0
 15 28  2  0  0  0  0
 16 25  1  0  0  0  0
 16 26  2  0  0  0  0
 17 30  2  0  0  0  0
 17 31  1  0  0  0  0
 18 32  1  0  0  0  0
 19 25  2  0  0  0  0
 19 34  1  0  0  0  0
 20 32  1  0  0  0  0
 20 33  2  0  0  0  0
 20 35  1  0  0  0  0
 21 23  2  0  0  0  0
 21 40  1  0  0  0  0
 22 24  2  0  0  0  0
 22 41  1  0  0  0  0
 23 49  1  0  0  0  0
 24 42  1  0  0  0  0
 25 52  1  0  0  0  0
 26 70  1  0  0  0  0
 27 80  1  0  0  0  0
 28 81  1  0  0  0  0
 29 31  2  0  0  0  0
 29 80  1  0  0  0  0
 30 82  1  0  0  0  0
 31 83  1  0  0  0  0
 32 63  2  0  0  0  0
 33 64  1  0  0  0  0
 33 67  1  0  0  0  0
 34 68  1  0  0  0  0
 34 73  2  0  0  0  0
 35 69  1  0  0  0  0
 35 75  2  0  0  0  0
 36 50  1  0  0  0  0
 36 71  1  0  0  0  0
 36 76  2  0  0  0  0
 37 60  1  0  0  0  0
 37 65  1  0  0  0  0
 37 77  2  0  0  0  0
 38 61  1  0  0  0  0
 38 72  1  0  0  0  0
 38 78  2  0  0  0  0
 39 66  1  0  0  0  0
 39 70  1  0  0  0  0
 39 79  2  0  0  0  0
 40 43  1  0  0  0  0
 41 50  1  0  0  0  0
 42 65  1  0  0  0  0
 43 45  1  0  0  0  0
 44 46  1  0  0  0  0
 44 47  1  0  0  0  0
 45 49  1  0  0  0  0
 46 51  1  0  0  0  0
 47 66  1  0  0  0  0
 48 51  1  0  0  0  0
 48 66  1  0  0  0  0
 49 71  1  0  0  0  0
 50 65  1  0  0  0  0
 51 64  1  0  0  0  0
 53 61  1  0  0  0  0
 54 62  1  0  0  0  0
 55 62  1  0  0  0  0
 56 62  1  0  0  0  0
 57 74  1  0  0  0  0
 58 59  1  0  0  0  0
 58 73  1  0  0  0  0
 59 81  1  0  0  0  0
 60 62  1  0  0  0  0
 60 72  1  0  0  0  0
 61 74  1  0  0  0  0
 63 64  1  0  0  0  0
M  CHG  2  73   1  74   1
M  ISO  4  39 100  59 101  70 100  81 101
M  END
> <Batch ID>
0047

> <Smiles>
CNC(C)C(=O)NC(C(=O)N1Cc2cc([101O:1][101CH2:1]CNC(=N)c3ccc([100NH:0][100C:0](=O)N4CCCC(n5nc(-c6ccc(Oc7ccc(F)cc7F)cc6)c(C(N)=O)c5N)C4)cc3C)ccc2CC1C(=O)NC1CCCc2ccccc21)C(C)(C)C

> <Shape>
0.166

> <Color>
0.187

> <Negative vol penalty>
0.000

$$$$

  -OEChem-04042322263D

 86 94  0     1  0  0  0  0  0999 V2000
  -18.9619   -9.1644   17.9255 C   0  0  0  0  0  0  0  0  0  0  0  0
  -19.1116  -10.4829   17.5074 C   0  0  0  0  0  0  0  0  0  0  0  0
  -28.2821  -26.2760   18.2256 C   0  0  0  0  0  0  0  0  0  0  0  0
  -26.3242  -24.9276   18.6563 C   0  0  0  0  0  0  0  0  0  0  0  0
  -19.4381   -8.7725   19.1759 C   0  0  0  0  0  0  0  0  0  0  0  0
  -19.7367  -11.4104   18.3401 C   0  0  0  0  0  0  0  0  0  0  0  0
  -23.8934  -17.2387   18.0765 C   0  0  0  0  0  0  0  0  0  0  0  0
  -18.6911  -28.0411   21.9670 C   0  0  0  0  0  0  0  0  0  0  0  0
  -29.0891  -25.1457   18.3553 C   0  0  0  0  0  0  0  0  0  0  0  0
  -27.1312  -23.7973   18.7860 C   0  0  0  0  0  0  0  0  0  0  0  0
  -23.9450  -18.5474   18.5544 C   0  0  0  0  0  0  0  0  0  0  0  0
  -28.7250  -21.6288   16.7420 C   0  0  0  0  0  0  0  0  0  0  0  0
  -18.0773  -26.8283   21.6540 C   0  0  0  0  0  0  0  0  0  0  0  0
  -28.3104  -20.4614   16.1010 C   0  0  0  0  0  0  0  0  0  0  0  0
  -24.7990  -17.7383   20.6604 C   0  0  0  0  0  0  0  0  0  0  0  0
  -20.2071  -26.8899   23.4549 C   0  0  0  0  0  0  0  0  0  0  0  0
  -28.2255  -19.3226   18.2301 C   0  0  0  0  0  0  0  0  0  0  0  0
  -26.8997  -26.1669   18.3761 C   0  0  0  0  0  0  0  0  0  0  0  0
  -25.4695  -27.8231   17.0649 C   0  0  0  0  0  0  0  0  0  0  0  0
  -20.0780   -9.6935   20.0203 C   0  0  0  0  0  0  0  0  0  0  0  0
  -24.2847  -16.1672   18.8921 C   0  0  0  0  0  0  0  0  0  0  0  0
  -20.2207  -11.0308   19.6036 C   0  0  0  0  0  0  0  0  0  0  0  0
  -24.7539  -16.4171   20.1896 C   0  0  0  0  0  0  0  0  0  0  0  0
  -19.7560  -28.0719   22.8674 C   0  0  0  0  0  0  0  0  0  0  0  0
  -19.5932  -25.6771   23.1419 C   0  0  0  0  0  0  0  0  0  0  0  0
  -28.5137  -23.9064   18.6355 C   0  0  0  0  0  0  0  0  0  0  0  0
  -24.3950  -18.7971   19.8475 C   0  0  0  0  0  0  0  0  0  0  0  0
  -28.8899  -21.6431   18.1270 C   0  0  0  0  0  0  0  0  0  0  0  0
  -28.0606  -19.3083   16.8451 C   0  0  0  0  0  0  0  0  0  0  0  0
  -18.5283  -25.6463   22.2415 C   0  0  0  0  0  0  0  0  0  0  0  0
  -28.6401  -20.4901   18.8711 C   0  0  0  0  0  0  0  0  0  0  0  0
  -26.0656  -27.3343   18.2428 C   0  0  0  0  0  0  0  0  0  0  0  0
  -24.7848  -28.9441   17.4662 C   0  0  0  0  0  0  0  0  0  0  0  0
  -22.0240  -22.2854   21.3516 C   0  0  0  0  0  0  0  0  0  0  0  0
  -23.2328  -22.0521   20.8223 C   0  0  0  0  0  0  0  0  0  0  0  0
  -25.5294  -27.3098   15.7275 C   0  0  0  0  0  0  0  0  0  0  0  0
  -21.8416  -23.3596   22.3663 C   0  0  0  0  0  0  0  0  0  0  0  0
  -22.8269  -13.6058   20.0829 C   0  0  0  0  0  0  0  0  0  0  0  0
  -25.8166  -12.8560   21.0938 C   0  0  0  0  0  0  0  0  0  0  0  0
  -28.9452  -13.9297   21.9340 C   0  0  0  0  0  0  0  0  0  0  0  0
  -22.4823  -30.6514   22.7231 C   0  0  0  0  0  0  0  0  0  0  0  0
  -20.5340   -9.2342   21.3826 C   0  0  0  0  0  0  0  0  0  0  0  0
  -24.2484  -14.7636   18.3524 C   0  0  0  0  0  0  0  0  0  0  0  0
  -25.2045  -15.3036   21.0981 C   0  0  0  0  0  0  0  0  0  0  0  0
  -21.5187  -10.1909   22.0499 C   0  0  0  0  0  0  0  0  0  0  0  0
  -24.8796  -32.4094   20.7637 C   0  0  0  0  0  0  0  0  0  0  0  0
  -21.0256  -11.6298   21.9357 C   0  0  0  0  0  0  0  0  0  0  0  0
  -25.4016  -31.3521   19.7892 C   0  0  0  0  0  0  0  0  0  0  0  0
  -24.5904  -31.8144   22.1401 C   0  0  0  0  0  0  0  0  0  0  0  0
  -24.2171  -29.5851   21.1579 C   0  0  0  0  0  0  0  0  0  0  0  0
  -20.9153  -12.0604   20.4681 C   0  0  1  0  0  0  0  0  0  0  0  0
  -24.1851  -13.7037   19.4478 C   0  0  1  0  0  0  0  0  0  0  0  0
  -24.4702  -30.1260   19.7403 C   0  0  2  0  0  0  0  0  0  0  0  0
  -31.1613  -13.0887   22.7580 C   0  0  0  0  0  0  0  0  0  0  0  0
  -24.6585  -12.5624   23.9013 C   0  0  0  0  0  0  0  0  0  0  0  0
  -26.9928  -12.6696   24.8000 C   0  0  0  0  0  0  0  0  0  0  0  0
  -26.3299  -10.8111   23.2739 C   0  0  0  0  0  0  0  0  0  0  0  0
  -30.3410  -14.8820   19.5043 C   0  0  0  0  0  0  0  0  0  0  0  0
  -20.4124  -29.3687   23.2017 C   0  0  0  0  0  0  0  0  0  0  0  0
  -20.0800  -24.4065   23.7765 C   0  0  0  0  0  0  0  0  0  0  0  0
  -23.4883  -20.9951   19.7967 C   0  0  0  0  0  0  0  0  0  1  0  0
  -26.6280  -13.1395   22.3348 C   0  0  1  0  0  0  0  0  0  0  0  0
  -30.3223  -13.4298   21.5364 C   0  0  2  0  0  0  0  0  0  0  0  0
  -26.1421  -12.3167   23.5613 C   0  0  0  0  0  0  0  0  0  0  0  0
  -25.7843  -28.0834   19.3123 N   0  0  0  0  0  0  0  0  0  0  0  0
  -25.0041  -29.0544   18.8078 N   0  0  0  0  0  0  0  0  0  0  0  0
  -25.1444  -13.9481   20.5268 N   0  0  0  0  0  0  0  0  0  0  0  0
  -23.7005  -30.6566   22.0238 N   0  0  0  0  0  0  0  0  0  0  0  0
  -24.0226  -29.8363   16.7989 N   0  0  0  0  0  0  0  0  0  0  0  0
  -26.2778  -26.1488   15.4903 N   0  0  0  0  0  0  0  0  0  0  0  0
  -20.5271  -23.4467   22.7920 N   0  0  0  0  0  0  0  0  0  0  0  0
  -22.2234  -12.3718   19.9331 N   0  0  0  0  0  0  0  0  0  0  0  0
  -28.0220  -12.9062   21.9732 N   0  0  0  0  0  0  0  0  0  0  0  0
  -21.6957  -29.5187   22.5526 N   0  0  0  0  0  0  0  0  0  0  0  0
  -31.0424  -14.4686   20.7469 N   0  3  0  0  0  0  0  0  0  0  0  0
  -24.9503  -27.8736   14.7681 O   0  0  0  0  0  0  0  0  0  0  0  0
  -22.7686  -24.0622   22.7560 O   0  0  0  0  0  0  0  0  0  0  0  0
  -22.3616  -14.5774   20.6670 O   0  0  0  0  0  0  0  0  0  0  0  0
  -25.7863  -11.7094   20.6398 O   0  0  0  0  0  0  0  0  0  0  0  0
  -28.7126  -15.1094   22.1883 O   0  0  0  0  0  0  0  0  0  0  0  0
  -22.1200  -31.5891   23.4416 O   0  0  0  0  0  0  0  0  0  0  0  0
  -29.3008  -22.8032   18.7619 O   0  0  0  0  0  0  0  0  0  0  0  0
  -24.4457  -20.0735   20.3167 O   0  0  0  0  0  0  0  0  0  1  0  0
  -27.6610  -18.1877   16.2296 F   0  0  0  0  0  0  0  0  0  0  0  0
  -17.9311  -24.4859   21.9356 F   0  0  0  0  0  0  0  0  0  0  0  0
  -28.7956  -20.4981   20.2021 F   0  0  0  0  0  0  0  0  0  0  0  0
  1  2  1  0  0  0  0
  1  5  2  0  0  0  0
  2  6  2  0  0  0  0
  3  9  2  0  0  0  0
  3 18  1  0  0  0  0
  4 10  1  0  0  0  0
  4 18  2  0  0  0  0
  5 20  1  0  0  0  0
  6 22  1  0  0  0  0
  7 11  2  0  0  0  0
  7 21  1  0  0  0  0
  8 13  2  0  0  0  0
  8 24  1  0  0  0  0
  9 26  1  0  0  0  0
 10 26  2  0  0  0  0
 11 27  1  0  0  0  0
 12 14  2  0  0  0  0
 12 28  1  0  0  0  0
 13 30  1  0  0  0  0
 14 29  1  0  0  0  0
 15 23  1  0  0  0  0
 15 27  2  0  0  0  0
 16 24  2  0  0  0  0
 16 25  1  0  0  0  0
 17 29  2  0  0  0  0
 17 31  1  0  0  0  0
 18 32  1  0  0  0  0
 19 32  1  0  0  0  0
 19 33  2  0  0  0  0
 19 36  1  0  0  0  0
 20 22  2  0  0  0  0
 20 42  1  0  0  0  0
 21 23  2  0  0  0  0
 21 43  1  0  0  0  0
 22 51  1  0  0  0  0
 23 44  1  0  0  0  0
 24 59  1  0  0  0  0
 25 30  2  0  0  0  0
 25 60  1  0  0  0  0
 26 82  1  0  0  0  0
 27 83  1  0  0  0  0
 28 31  2  0  0  0  0
 28 82  1  0  0  0  0
 29 84  1  0  0  0  0
 30 85  1  0  0  0  0
 31 86  1  0  0  0  0
 32 65  2  0  0  0  0
 33 66  1  0  0  0  0
 33 69  1  0  0  0  0
 34 35  2  0  0  0  0
 34 37  1  0  0  0  0
 35 61  1  0  0  0  0
 36 70  1  0  0  0  0
 36 76  2  0  0  0  0
 37 71  1  0  0  0  0
 37 77  2  0  0  0  0
 38 52  1  0  0  0  0
 38 72  1  0  0  0  0
 38 78  2  0  0  0  0
 39 62  1  0  0  0  0
 39 67  1  0  0  0  0
 39 79  2  0  0  0  0
 40 63  1  0  0  0  0
 40 73  1  0  0  0  0
 40 80  2  0  0  0  0
 41 68  1  0  0  0  0
 41 74  1  0  0  0  0
 41 81  2  0  0  0  0
 42 45  1  0  0  0  0
 43 52  1  0  0  0  0
 44 67  1  0  0  0  0
 45 47  1  0  0  0  0
 46 48  1  0  0  0  0
 46 49  1  0  0  0  0
 47 51  1  0  0  0  0
 48 53  1  0  0  0  0
 49 68  1  0  0  0  0
 50 53  1  0  0  0  0
 50 68  1  0  0  0  0
 51 72  1  0  0  0  0
 52 67  1  0  0  0  0
 53 66  1  0  0  0  0
 54 63  1  0  0  0  0
 55 64  1  0  0  0  0
 56 64  1  0  0  0  0
 57 64  1  0  0  0  0
 58 75  1  0  0  0  0
 59 74  1  0  0  0  0
 60 71  1  0  0  0  0
 61 83  1  0  0  0  0
 62 64  1  0  0  0  0
 62 73  1  0  0  0  0
 63 75  1  0  0  0  0
 65 66  1  0  0  0  0
M  CHG  1  75   1
M  ISO  4  41 100  61 101  74 100  83 101
M  END
> <Batch ID>
0047

> <Smiles>
CNC(C)C(=O)NC(C(=O)N1Cc2cc([101O:1][101CH2:1]C=CC(=O)NCc3cc(C[100NH:0][100C:0](=O)N4CCCC(n5nc(-c6ccc(Oc7ccc(F)cc7F)cc6)c(C(N)=O)c5N)C4)ccc3F)ccc2CC1C(=O)NC1CCCc2ccccc21)C(C)(C)C

> <Shape>
0.210

> <Color>
0.094

> <Negative vol penalty>
0.000

$$$$

  -OEChem-04042322263D

 90 99  0     1  0  0  0  0  0999 V2000
  -19.1373  -24.4090   22.1011 C   0  0  0  0  0  0  0  0  0  0  0  0
  -20.3622  -24.6938   21.5062 C   0  0  0  0  0  0  0  0  0  0  0  0
  -22.5688  -11.0756   22.0545 C   0  0  0  0  0  0  0  0  0  0  0  0
  -22.5641  -13.4916   22.0623 C   0  0  0  0  0  0  0  0  0  0  0  0
  -18.3149  -25.4488   22.5330 C   0  0  0  0  0  0  0  0  0  0  0  0
  -20.7651  -26.0186   21.3420 C   0  0  0  0  0  0  0  0  0  0  0  0
  -25.6014  -26.7550   22.6507 C   0  0  0  0  0  0  0  0  0  0  0  0
  -29.7037  -20.5643   21.6838 C   0  0  0  0  0  0  0  0  0  0  0  0
  -29.7296  -19.1697   21.6793 C   0  0  0  0  0  0  0  0  0  0  0  0
  -21.3468  -11.0710   22.7270 C   0  0  0  0  0  0  0  0  0  0  0  0
  -21.3420  -13.4870   22.7348 C   0  0  0  0  0  0  0  0  0  0  0  0
  -26.5761  -26.3531   21.7384 C   0  0  0  0  0  0  0  0  0  0  0  0
  -18.0826  -11.5152   21.9650 C   0  0  0  0  0  0  0  0  0  0  0  0
  -17.0946  -10.6430   21.5083 C   0  0  0  0  0  0  0  0  0  0  0  0
  -26.8149  -28.6362   20.9970 C   0  0  0  0  0  0  0  0  0  0  0  0
  -27.8054  -20.5339   20.1896 C   0  0  0  0  0  0  0  0  0  0  0  0
  -17.0622   -9.5512   23.6633 C   0  0  0  0  0  0  0  0  0  0  0  0
  -23.1775  -12.2859   21.7222 C   0  0  0  0  0  0  0  0  0  0  0  0
  -24.7182  -11.7350   19.7651 C   0  0  0  0  0  0  0  0  0  0  0  0
  -18.7122  -26.7868   22.3828 C   0  0  0  0  0  0  0  0  0  0  0  0
  -25.2177  -28.1011   22.7355 C   0  0  0  0  0  0  0  0  0  0  0  0
  -19.9467  -27.0773   21.7712 C   0  0  0  0  0  0  0  0  0  0  0  0
  -25.8369  -29.0530   21.9129 C   0  0  0  0  0  0  0  0  0  0  0  0
  -28.7416  -21.2464   20.9390 C   0  0  0  0  0  0  0  0  0  0  0  0
  -27.8313  -19.1393   20.1850 C   0  0  0  0  0  0  0  0  0  0  0  0
  -28.7934  -18.4572   20.9299 C   0  0  0  0  0  0  0  0  0  0  0  0
  -20.7334  -12.2767   23.0671 C   0  0  0  0  0  0  0  0  0  0  0  0
  -27.1810  -27.2933   20.9094 C   0  0  0  0  0  0  0  0  0  0  0  0
  -18.5604  -11.4054   23.2709 C   0  0  0  0  0  0  0  0  0  0  0  0
  -16.5843   -9.6610   22.3574 C   0  0  0  0  0  0  0  0  0  0  0  0
  -18.0502  -10.4234   24.1200 C   0  0  0  0  0  0  0  0  0  0  0  0
  -24.4401  -12.2912   21.0280 C   0  0  0  0  0  0  0  0  0  0  0  0
  -26.0490  -12.0037   19.5570 C   0  0  0  0  0  0  0  0  0  0  0  0
  -31.5355  -24.0110   20.5411 C   0  0  0  0  0  0  0  0  0  0  0  0
  -31.4182  -25.2887   20.9425 C   0  0  0  0  0  0  0  0  0  0  0  0
  -30.6882  -23.2809   19.6193 C   0  0  0  0  0  0  0  0  0  0  0  0
  -23.8511  -11.0378   18.8607 C   0  0  0  0  0  0  0  0  0  0  0  0
  -31.2239  -22.3964   18.7601 C   0  0  0  0  0  0  0  0  0  0  0  0
  -22.5069  -29.6944   22.2701 C   0  0  0  0  0  0  0  0  0  0  0  0
  -24.2388  -32.1954   23.3961 C   0  0  0  0  0  0  0  0  0  0  0  0
  -27.3073  -33.6022   23.8978 C   0  0  0  0  0  0  0  0  0  0  0  0
  -29.7333  -16.2270   21.6295 C   0  0  0  0  0  0  0  0  0  0  0  0
  -17.7684  -27.8780   22.8224 C   0  0  0  0  0  0  0  0  0  0  0  0
  -24.1838  -28.5225   23.7434 C   0  0  0  0  0  0  0  0  0  0  0  0
  -25.4752  -30.5135   21.9789 C   0  0  0  0  0  0  0  0  0  0  0  0
  -30.3716  -26.2666   20.4766 C   0  0  0  0  0  0  0  0  0  0  0  0
  -18.4356  -29.2449   22.9513 C   0  0  0  0  0  0  0  0  0  0  0  0
  -30.1447  -12.7039   21.9380 C   0  0  0  0  0  0  0  0  0  0  0  0
  -19.3031  -29.5329   21.7301 C   0  0  0  0  0  0  0  0  0  0  0  0
  -28.7554  -12.1472   21.6188 C   0  0  0  0  0  0  0  0  0  0  0  0
  -30.0650  -14.0166   22.7153 C   0  0  0  0  0  0  0  0  0  0  0  0
  -27.8368  -14.4961   21.7803 C   0  0  0  0  0  0  0  0  0  0  0  0
  -28.7085  -24.7002   19.3089 C   0  0  0  0  0  0  0  0  0  0  0  0
  -20.4297  -28.5009   21.5980 C   0  0  1  0  0  0  0  0  0  0  0  0
  -23.5029  -29.8400   23.3857 C   0  0  1  0  0  0  0  0  0  0  0  0
  -27.8653  -13.2079   20.9416 C   0  0  2  0  0  0  0  0  0  0  0  0
  -28.9328  -25.7674   20.3719 C   0  0  2  0  0  0  0  0  0  1  0  0
  -26.8181  -18.4019   19.3707 C   0  0  0  0  0  0  0  0  0  0  0  0
  -32.4458  -25.8735   21.8785 C   0  0  0  0  0  0  0  0  0  0  0  0
  -30.3797  -21.6237   17.7932 C   0  0  0  0  0  0  0  0  0  0  0  0
  -32.6976  -22.1295   18.7180 C   0  0  0  0  0  0  0  0  0  0  0  0
  -28.4018  -35.6698   24.8060 C   0  0  0  0  0  0  0  0  0  0  0  0
  -23.4351  -33.7230   20.8801 C   0  0  0  0  0  0  0  0  0  0  0  0
  -25.2715  -35.3534   21.3676 C   0  0  0  0  0  0  0  0  0  0  0  0
  -23.3900  -35.0774   22.9820 C   0  0  0  0  0  0  0  0  0  0  0  0
  -28.7662  -32.0634   25.9624 C   0  0  0  0  0  0  0  0  0  0  0  0
  -28.7154  -22.7465   20.9420 C   0  0  0  0  0  0  0  0  0  0  0  0
  -25.1237  -33.2489   22.7748 C   0  0  1  0  0  0  0  0  0  0  0  0
  -27.9269  -34.2592   25.1181 C   0  0  2  0  0  0  0  0  0  0  0  0
  -24.3107  -34.3230   21.9983 C   0  0  0  0  0  0  0  0  0  0  0  0
  -25.5084  -12.8695   21.5833 N   0  0  0  0  0  0  0  0  0  0  0  0
  -26.4707  -12.6780   20.6650 N   0  0  0  0  0  0  0  0  0  0  0  0
  -24.4543  -30.8751   22.9762 N   0  0  0  0  0  0  0  0  0  0  0  0
  -29.2088  -14.9742   22.0119 N   0  0  0  0  0  0  0  0  0  0  0  0
  -26.8879  -11.7266   18.5363 N   0  0  0  0  0  0  0  0  0  0  0  0
  -22.5127  -10.8484   19.2308 N   0  0  0  0  0  0  0  0  0  0  0  0
  -28.8364  -17.0409   20.9383 N   0  0  0  0  0  0  0  0  0  0  0  0
  -21.4941  -28.7922   22.5342 N   0  0  0  0  0  0  0  0  0  0  0  0
  -25.9413  -33.7855   23.8574 N   0  0  0  0  0  0  0  0  0  0  0  0
  -29.2494  -23.3486   19.6691 N   0  3  2  0  0  0  0  0  0  0  0  0
  -29.0938  -33.4656   25.5972 N   0  3  0  0  0  0  0  0  0  0  0  0
  -24.2554  -10.5815   17.7644 O   0  0  0  0  0  0  0  0  0  0  0  0
  -22.6461  -30.3530   21.2461 O   0  0  0  0  0  0  0  0  0  0  0  0
  -23.3926  -32.5305   24.2287 O   0  0  0  0  0  0  0  0  0  0  0  0
  -27.9695  -32.9910   23.0620 O   0  0  0  0  0  0  0  0  0  0  0  0
  -30.9009  -16.5430   21.8718 O   0  0  0  0  0  0  0  0  0  0  0  0
  -19.5408  -12.2726   23.7231 O   0  0  0  0  0  0  0  0  0  0  0  0
  -28.1322  -26.9036   20.0177 O   0  0  0  0  0  0  0  0  0  1  0  0
  -15.6344   -8.8244   21.9191 F   0  0  0  0  0  0  0  0  0  0  0  0
  -18.5045  -10.3139   25.3760 F   0  0  0  0  0  0  0  0  0  0  0  0
  1  2  1  0  0  0  0
  1  5  2  0  0  0  0
  2  6  2  0  0  0  0
  3 10  2  0  0  0  0
  3 18  1  0  0  0  0
  4 11  1  0  0  0  0
  4 18  2  0  0  0  0
  5 20  1  0  0  0  0
  6 22  1  0  0  0  0
  7 12  2  0  0  0  0
  7 21  1  0  0  0  0
  8  9  2  0  0  0  0
  8 24  1  0  0  0  0
  9 26  1  0  0  0  0
 10 27  1  0  0  0  0
 11 27  2  0  0  0  0
 12 28  1  0  0  0  0
 13 14  2  0  0  0  0
 13 29  1  0  0  0  0
 14 30  1  0  0  0  0
 15 23  1  0  0  0  0
 15 28  2  0  0  0  0
 16 24  2  0  0  0  0
 16 25  1  0  0  0  0
 17 30  2  0  0  0  0
 17 31  1  0  0  0  0
 18 32  1  0  0  0  0
 19 32  1  0  0  0  0
 19 33  2  0  0  0  0
 19 37  1  0  0  0  0
 20 22  2  0  0  0  0
 20 43  1  0  0  0  0
 21 23  2  0  0  0  0
 21 44  1  0  0  0  0
 22 54  1  0  0  0  0
 23 45  1  0  0  0  0
 24 67  1  0  0  0  0
 25 26  2  0  0  0  0
 25 58  1  0  0  0  0
 26 77  1  0  0  0  0
 27 87  1  0  0  0  0
 28 88  1  0  0  0  0
 29 31  2  0  0  0  0
 29 87  1  0  0  0  0
 30 89  1  0  0  0  0
 31 90  1  0  0  0  0
 32 71  2  0  0  0  0
 33 72  1  0  0  0  0
 33 75  1  0  0  0  0
 34 35  2  0  0  0  0
 34 36  1  0  0  0  0
 35 46  1  0  0  0  0
 35 59  1  0  0  0  0
 36 38  2  0  0  0  0
 36 80  1  0  0  0  0
 37 76  1  0  0  0  0
 37 82  2  0  0  0  0
 38 60  1  0  0  0  0
 38 61  1  0  0  0  0
 39 55  1  0  0  0  0
 39 78  1  0  0  0  0
 39 83  2  0  0  0  0
 40 68  1  0  0  0  0
 40 73  1  0  0  0  0
 40 84  2  0  0  0  0
 41 69  1  0  0  0  0
 41 79  1  0  0  0  0
 41 85  2  0  0  0  0
 42 74  1  0  0  0  0
 42 77  1  0  0  0  0
 42 86  2  0  0  0  0
 43 47  1  0  0  0  0
 44 55  1  0  0  0  0
 45 73  1  0  0  0  0
 46 57  1  0  0  0  0
 47 49  1  0  0  0  0
 48 50  1  0  0  0  0
 48 51  1  0  0  0  0
 49 54  1  0  0  0  0
 50 56  1  0  0  0  0
 51 74  1  0  0  0  0
 52 56  1  0  0  0  0
 52 74  1  0  0  0  0
 53 57  1  0  0  0  0
 53 80  1  0  0  0  0
 54 78  1  0  0  0  0
 55 73  1  0  0  0  0
 56 72  1  0  0  0  0
 57 88  1  0  0  0  0
 62 69  1  0  0  0  0
 63 70  1  0  0  0  0
 64 70  1  0  0  0  0
 65 70  1  0  0  0  0
 66 81  1  0  0  0  0
 67 80  1  0  0  0  0
 68 70  1  0  0  0  0
 68 79  1  0  0  0  0
 69 81  1  0  0  0  0
 71 72  1  0  0  0  0
M  CHG  2  80   1  81   1
M  ISO  4  42 100  57 101  77 100  88 101
M  END
> <Batch ID>
0047

> <Smiles>
CNC(C)C(=O)NC(C(=O)N1Cc2cc([101O:1][101CH:1]3CC(C)=CC(=C(C)C)N(Cc4ccc([100NH:0][100C:0](=O)N5CCCC(n6nc(-c7ccc(Oc8ccc(F)cc8F)cc7)c(C(N)=O)c6N)C5)c(C)c4)C3)ccc2CC1C(=O)NC1CCCc2ccccc21)C(C)(C)C

> <Shape>
0.330

> <Color>
0.089

> <Negative vol penalty>
0.000

$$$$

  -OEChem-04042322263D

 84 92  0     1  0  0  0  0  0999 V2000
  -23.6953  -11.6771   24.0652 C   0  0  0  0  0  0  0  0  0  0  0  0
  -23.7917  -13.0549   24.2319 C   0  0  0  0  0  0  0  0  0  0  0  0
  -29.4973  -21.4868   26.2472 C   0  0  0  0  0  0  0  0  0  0  0  0
  -24.5224  -28.7736   19.9840 C   0  0  0  0  0  0  0  0  0  0  0  0
  -24.4753  -27.8249   22.2055 C   0  0  0  0  0  0  0  0  0  0  0  0
  -28.1699  -21.4067   26.6679 C   0  0  0  0  0  0  0  0  0  0  0  0
  -24.1313  -11.0874   22.8794 C   0  0  0  0  0  0  0  0  0  0  0  0
  -24.3252  -13.8437   23.2132 C   0  0  0  0  0  0  0  0  0  0  0  0
  -21.5974  -18.0246   22.3625 C   0  0  0  0  0  0  0  0  0  0  0  0
  -29.8265  -21.2086   24.9205 C   0  0  0  0  0  0  0  0  0  0  0  0
  -23.1979  -29.1854   20.1317 C   0  0  0  0  0  0  0  0  0  0  0  0
  -23.1508  -28.2368   22.3533 C   0  0  0  0  0  0  0  0  0  0  0  0
  -21.7582  -19.0826   23.2561 C   0  0  0  0  0  0  0  0  0  0  0  0
  -20.0922  -27.1955   21.3574 C   0  0  0  0  0  0  0  0  0  0  0  0
  -19.1861  -26.2825   21.8969 C   0  0  0  0  0  0  0  0  0  0  0  0
  -23.2340  -20.1730   21.6901 C   0  0  0  0  0  0  0  0  0  0  0  0
  -18.7361  -27.8053   23.7179 C   0  0  0  0  0  0  0  0  0  0  0  0
  -25.1610  -28.0933   21.0209 C   0  0  0  0  0  0  0  0  0  0  0  0
  -27.1716  -21.0483   25.7620 C   0  0  0  0  0  0  0  0  0  0  0  0
  -27.6878  -28.3931   21.2034 C   0  0  0  0  0  0  0  0  0  0  0  0
  -24.6615  -11.8704   21.8419 C   0  0  0  0  0  0  0  0  0  0  0  0
  -22.2634  -18.0277   21.1284 C   0  0  0  0  0  0  0  0  0  0  0  0
  -24.7700  -13.2637   22.0130 C   0  0  0  0  0  0  0  0  0  0  0  0
  -23.0779  -19.1151   20.7815 C   0  0  0  0  0  0  0  0  0  0  0  0
  -28.8283  -20.8502   24.0147 C   0  0  0  0  0  0  0  0  0  0  0  0
  -27.5008  -20.7701   24.4354 C   0  0  0  0  0  0  0  0  0  0  0  0
  -22.5121  -28.9170   21.3164 C   0  0  0  0  0  0  0  0  0  0  0  0
  -22.5789  -20.1557   22.9212 C   0  0  0  0  0  0  0  0  0  0  0  0
  -20.3204  -28.4133   21.9982 C   0  0  0  0  0  0  0  0  0  0  0  0
  -18.5080  -26.5874   23.0771 C   0  0  0  0  0  0  0  0  0  0  0  0
  -19.6423  -28.7182   23.1784 C   0  0  0  0  0  0  0  0  0  0  0  0
  -26.5290  -27.6672   20.8687 C   0  0  0  0  0  0  0  0  0  0  0  0
  -28.7251  -27.5571   20.8694 C   0  0  0  0  0  0  0  0  0  0  0  0
  -25.7668  -20.9728   26.2396 C   0  0  0  0  0  0  0  0  0  0  0  0
  -27.8151  -29.7057   21.7662 C   0  0  0  0  0  0  0  0  0  0  0  0
  -24.4355  -16.1630   19.7470 C   0  0  0  0  0  0  0  0  0  0  0  0
  -23.8876  -18.0814   17.1893 C   0  0  0  0  0  0  0  0  0  0  0  0
  -22.8235  -21.1011   16.0077 C   0  0  0  0  0  0  0  0  0  0  0  0
  -29.1626  -21.6082   20.3504 C   0  0  0  0  0  0  0  0  0  0  0  0
  -25.1634  -11.1825   20.5971 C   0  0  0  0  0  0  0  0  0  0  0  0
  -22.0583  -16.8915   20.1644 C   0  0  0  0  0  0  0  0  0  0  0  0
  -23.7990  -19.1762   19.4606 C   0  0  0  0  0  0  0  0  0  0  0  0
  -25.3703  -12.1306   19.4187 C   0  0  0  0  0  0  0  0  0  0  0  0
  -29.8683  -24.0337   17.8413 C   0  0  0  0  0  0  0  0  0  0  0  0
  -26.1192  -13.3821   19.8656 C   0  0  0  0  0  0  0  0  0  0  0  0
  -29.1971  -25.3054   18.3629 C   0  0  0  0  0  0  0  0  0  0  0  0
  -29.0516  -22.7871   18.1746 C   0  0  0  0  0  0  0  0  0  0  0  0
  -28.0379  -23.9059   20.1225 C   0  0  0  0  0  0  0  0  0  0  0  0
  -25.3201  -14.1557   20.9213 C   0  0  1  0  0  0  0  0  0  0  0  0
  -23.1904  -16.7562   19.1507 C   0  0  1  0  0  0  0  0  0  0  0  0
  -28.8523  -25.1841   19.8594 C   0  0  2  0  0  0  0  0  0  0  0  0
  -26.4323  -20.3857   23.4607 C   0  0  0  0  0  0  0  0  0  0  0  0
  -22.5276  -22.3882   13.8739 C   0  0  0  0  0  0  0  0  0  0  0  0
  -26.8967  -18.5725   17.0710 C   0  0  0  0  0  0  0  0  0  0  0  0
  -26.4468  -20.5421   15.5923 C   0  0  0  0  0  0  0  0  0  0  0  0
  -25.8039  -18.2507   14.8446 C   0  0  0  0  0  0  0  0  0  0  0  0
  -19.9031  -21.3430   16.4227 C   0  0  0  0  0  0  0  0  0  0  0  0
  -29.2070  -20.5593   22.5992 C   0  0  0  0  0  0  0  0  0  0  0  0
  -23.4714  -21.8769   25.9759 C   0  0  0  0  0  0  0  0  0  0  0  0
  -22.6352  -20.8885   25.1830 C   0  0  0  0  0  0  0  0  0  1  0  0
  -24.4744  -19.3749   16.6778 C   0  0  1  0  0  0  0  0  0  0  0  0
  -21.8680  -21.4636   14.8852 C   0  0  2  0  0  0  0  0  0  0  0  0
  -25.8935  -19.1833   16.0722 C   0  0  0  0  0  0  0  0  0  0  0  0
  -26.8038  -26.4628   20.3607 N   0  0  0  0  0  0  0  0  0  0  0  0
  -28.1471  -26.4255   20.3738 N   0  0  0  0  0  0  0  0  0  0  0  0
  -23.5715  -18.0383   18.5546 N   0  0  0  0  0  0  0  0  0  0  0  0
  -28.7598  -22.7311   19.6090 N   0  0  0  0  0  0  0  0  0  0  0  0
  -30.0662  -27.6870   20.9541 N   0  0  0  0  0  0  0  0  0  0  0  0
  -26.6475  -30.4276   22.0489 N   0  0  0  0  0  0  0  0  0  0  0  0
  -24.8614  -21.8169   25.6090 N   0  0  0  0  0  0  0  0  0  0  0  0
  -24.2534  -14.9083   20.2966 N   0  0  0  0  0  0  0  0  0  0  0  0
  -23.4966  -19.9265   15.7461 N   0  0  0  0  0  0  0  0  0  0  0  0
  -28.8524  -21.6385   21.7045 N   0  0  0  0  0  0  0  0  0  0  0  0
  -20.6625  -22.1484   15.4319 N   0  3  0  0  0  0  0  0  0  0  0  0
  -25.4852  -20.2053   27.1562 O   0  0  0  0  0  0  0  0  0  0  0  0
  -28.9315  -30.2295   21.9958 O   0  0  0  0  0  0  0  0  0  0  0  0
  -25.4841  -16.7961   19.7097 O   0  0  0  0  0  0  0  0  0  0  0  0
  -23.7094  -17.1463   16.4048 O   0  0  0  0  0  0  0  0  0  0  0  0
  -22.9618  -21.7928   17.0142 O   0  0  0  0  0  0  0  0  0  0  0  0
  -29.7595  -20.6519   19.8442 O   0  0  0  0  0  0  0  0  0  0  0  0
  -21.2198  -29.3189   21.4610 O   0  0  0  0  0  0  0  0  0  0  0  0
  -22.7381  -21.1893   23.7919 O   0  0  0  0  0  0  0  0  0  1  0  0
  -17.6366  -25.7113   23.5942 F   0  0  0  0  0  0  0  0  0  0  0  0
  -19.8565  -29.8870   23.7979 F   0  0  0  0  0  0  0  0  0  0  0  0
  1  2  1  0  0  0  0
  1  7  2  0  0  0  0
  2  8  2  0  0  0  0
  3  6  2  0  0  0  0
  3 10  1  0  0  0  0
  4 11  2  0  0  0  0
  4 18  1  0  0  0  0
  5 12  1  0  0  0  0
  5 18  2  0  0  0  0
  6 19  1  0  0  0  0
  7 21  1  0  0  0  0
  8 23  1  0  0  0  0
  9 13  2  0  0  0  0
  9 22  1  0  0  0  0
 10 25  2  0  0  0  0
 11 27  1  0  0  0  0
 12 27  2  0  0  0  0
 13 28  1  0  0  0  0
 14 15  2  0  0  0  0
 14 29  1  0  0  0  0
 15 30  1  0  0  0  0
 16 24  1  0  0  0  0
 16 28  2  0  0  0  0
 17 30  2  0  0  0  0
 17 31  1  0  0  0  0
 18 32  1  0  0  0  0
 19 26  2  0  0  0  0
 19 34  1  0  0  0  0
 20 32  1  0  0  0  0
 20 33  2  0  0  0  0
 20 35  1  0  0  0  0
 21 23  2  0  0  0  0
 21 40  1  0  0  0  0
 22 24  2  0  0  0  0
 22 41  1  0  0  0  0
 23 49  1  0  0  0  0
 24 42  1  0  0  0  0
 25 26  1  0  0  0  0
 25 58  1  0  0  0  0
 26 52  1  0  0  0  0
 27 81  1  0  0  0  0
 28 82  1  0  0  0  0
 29 31  2  0  0  0  0
 29 81  1  0  0  0  0
 30 83  1  0  0  0  0
 31 84  1  0  0  0  0
 32 64  2  0  0  0  0
 33 65  1  0  0  0  0
 33 68  1  0  0  0  0
 34 70  1  0  0  0  0
 34 75  2  0  0  0  0
 35 69  1  0  0  0  0
 35 76  2  0  0  0  0
 36 50  1  0  0  0  0
 36 71  1  0  0  0  0
 36 77  2  0  0  0  0
 37 61  1  0  0  0  0
 37 66  1  0  0  0  0
 37 78  2  0  0  0  0
 38 62  1  0  0  0  0
 38 72  1  0  0  0  0
 38 79  2  0  0  0  0
 39 67  1  0  0  0  0
 39 73  1  0  0  0  0
 39 80  2  0  0  0  0
 40 43  1  0  0  0  0
 41 50  1  0  0  0  0
 42 66  1  0  0  0  0
 43 45  1  0  0  0  0
 44 46  1  0  0  0  0
 44 47  1  0  0  0  0
 45 49  1  0  0  0  0
 46 51  1  0  0  0  0
 47 67  1  0  0  0  0
 48 51  1  0  0  0  0
 48 67  1  0  0  0  0
 49 71  1  0  0  0  0
 50 66  1  0  0  0  0
 51 65  1  0  0  0  0
 53 62  1  0  0  0  0
 54 63  1  0  0  0  0
 55 63  1  0  0  0  0
 56 63  1  0  0  0  0
 57 74  1  0  0  0  0
 58 73  1  0  0  0  0
 59 60  1  0  0  0  0
 59 70  1  0  0  0  0
 60 82  1  0  0  0  0
 61 63  1  0  0  0  0
 61 72  1  0  0  0  0
 62 74  1  0  0  0  0
 64 65  1  0  0  0  0
M  CHG  1  74   1
M  ISO  4  39 100  60 101  73 100  82 101
M  END
> <Batch ID>
0047

> <Smiles>
CNC(C)C(=O)NC(C(=O)N1Cc2cc([101O:1][101CH2:1]CNC(=O)c3cccc(C[100NH:0][100C:0](=O)N4CCCC(n5nc(-c6ccc(Oc7ccc(F)cc7F)cc6)c(C(N)=O)c5N)C4)c3C)ccc2CC1C(=O)NC1CCCc2ccccc21)C(C)(C)C

> <Shape>
0.196

> <Color>
0.060

> <Negative vol penalty>
0.000

$$$$

  -OEChem-04042322263D

 93102  0     1  0  0  0  0  0999 V2000
  -16.8913  -25.9915   26.5993 C   0  0  0  0  0  0  0  0  0  0  0  0
  -17.6364  -25.0914   25.8443 C   0  0  0  0  0  0  0  0  0  0  0  0
  -23.2461  -10.0259   21.8410 C   0  0  0  0  0  0  0  0  0  0  0  0
  -23.5443  -12.2049   22.8410 C   0  0  0  0  0  0  0  0  0  0  0  0
  -16.6896  -27.2903   26.1342 C   0  0  0  0  0  0  0  0  0  0  0  0
  -18.1793  -25.4893   24.6231 C   0  0  0  0  0  0  0  0  0  0  0  0
  -25.5909  -25.3410   22.1587 C   0  0  0  0  0  0  0  0  0  0  0  0
  -30.5105  -19.8317   20.3070 C   0  0  0  0  0  0  0  0  0  0  0  0
  -30.3559  -18.4456   20.2851 C   0  0  0  0  0  0  0  0  0  0  0  0
  -22.4855   -9.6257   22.9396 C   0  0  0  0  0  0  0  0  0  0  0  0
  -22.7838  -11.8047   23.9397 C   0  0  0  0  0  0  0  0  0  0  0  0
  -26.8858  -25.5114   21.6685 C   0  0  0  0  0  0  0  0  0  0  0  0
  -19.3236  -10.0393   24.0639 C   0  0  0  0  0  0  0  0  0  0  0  0
  -18.1372   -9.3496   23.8144 C   0  0  0  0  0  0  0  0  0  0  0  0
  -26.1287  -27.3349   20.2722 C   0  0  0  0  0  0  0  0  0  0  0  0
  -18.9736   -7.4587   25.0644 C   0  0  0  0  0  0  0  0  0  0  0  0
  -23.7755  -11.3154   21.7917 C   0  0  0  0  0  0  0  0  0  0  0  0
  -24.1510  -11.7811   19.3118 C   0  0  0  0  0  0  0  0  0  0  0  0
  -17.2384  -27.7072   24.9112 C   0  0  0  0  0  0  0  0  0  0  0  0
  -24.5618  -26.1779   21.7185 C   0  0  0  0  0  0  0  0  0  0  0  0
  -17.9836  -26.7945   24.1405 C   0  0  0  0  0  0  0  0  0  0  0  0
  -24.8321  -27.1771   20.7690 C   0  0  0  0  0  0  0  0  0  0  0  0
  -29.4068  -20.6531   20.5373 C   0  0  0  0  0  0  0  0  0  0  0  0
  -28.1485  -20.0883   20.7455 C   0  0  0  0  0  0  0  0  0  0  0  0
  -27.9939  -18.7022   20.7235 C   0  0  0  0  0  0  0  0  0  0  0  0
  -29.0976  -17.8809   20.4933 C   0  0  0  0  0  0  0  0  0  0  0  0
  -22.2544  -10.5151   23.9890 C   0  0  0  0  0  0  0  0  0  0  0  0
  -27.1539  -26.5058   20.7274 C   0  0  0  0  0  0  0  0  0  0  0  0
  -20.3351   -9.4387   24.8136 C   0  0  0  0  0  0  0  0  0  0  0  0
  -17.9621   -8.0593   24.3147 C   0  0  0  0  0  0  0  0  0  0  0  0
  -20.1600   -8.1485   25.3138 C   0  0  0  0  0  0  0  0  0  0  0  0
  -24.5617  -11.7292   20.6573 C   0  0  0  0  0  0  0  0  0  0  0  0
  -25.2550  -12.2358   18.6330 C   0  0  0  0  0  0  0  0  0  0  0  0
  -30.1587  -25.0699   20.0840 C   0  0  0  0  0  0  0  0  0  0  0  0
  -29.0170  -25.6018   19.6032 C   0  0  0  0  0  0  0  0  0  1  0  0
  -30.8226  -23.9426   19.4348 C   0  0  0  0  0  0  0  0  0  0  0  0
  -32.0936  -24.0137   19.0028 C   0  0  0  0  0  0  0  0  0  0  0  0
  -32.7692  -22.9157   18.3600 C   0  0  0  0  0  0  0  0  0  0  0  0
  -34.0378  -22.9910   17.9305 C   0  0  0  0  0  0  0  0  0  0  0  0
  -22.8846  -11.4481   18.7277 C   0  0  0  0  0  0  0  0  0  0  0  0
  -20.9322  -27.1027   21.9351 C   0  0  0  0  0  0  0  0  0  0  0  0
  -22.5129  -29.7274   21.7837 C   0  0  0  0  0  0  0  0  0  0  0  0
  -24.6403  -32.3835   22.0218 C   0  0  0  0  0  0  0  0  0  0  0  0
  -29.9706  -15.5303   20.2503 C   0  0  0  0  0  0  0  0  0  0  0  0
  -16.9536  -29.1070   24.4274 C   0  0  0  0  0  0  0  0  0  0  0  0
  -23.1398  -25.9908   22.1732 C   0  0  0  0  0  0  0  0  0  0  0  0
  -23.6870  -28.0315   20.2984 C   0  0  0  0  0  0  0  0  0  0  0  0
  -28.3182  -25.1348   18.3509 C   0  0  0  0  0  0  0  0  0  0  0  0
  -17.8778  -29.5619   23.3007 C   0  0  0  0  0  0  0  0  0  0  0  0
  -27.9672  -23.6468   18.3339 C   0  0  0  0  0  0  0  0  0  0  0  0
  -30.0390  -12.2569   18.8512 C   0  0  0  0  0  0  0  0  0  0  0  0
  -17.9982  -28.4749   22.2374 C   0  0  0  0  0  0  0  0  0  0  0  0
  -28.6033  -11.7572   19.0276 C   0  0  0  0  0  0  0  0  0  0  0  0
  -30.4919  -13.1102   20.0346 C   0  0  0  0  0  0  0  0  0  0  0  0
  -28.1628  -13.7254   20.5504 C   0  0  0  0  0  0  0  0  0  0  0  0
  -29.1565  -22.7167   18.1169 C   0  0  0  0  0  0  0  0  0  0  0  0
  -18.6095  -27.1960   22.8225 C   0  0  1  0  0  0  0  0  0  0  0  0
  -22.3698  -27.3167   22.3079 C   0  0  1  0  0  0  0  0  0  0  0  0
  -27.6395  -12.9150   19.3533 C   0  0  2  0  0  0  0  0  0  0  0  0
  -26.9667  -20.9718   20.9922 C   0  0  0  0  0  0  0  0  0  0  0  0
  -26.6426  -18.0983   20.9473 C   0  0  0  0  0  0  0  0  0  0  0  0
  -30.8319  -25.5780   21.3356 C   0  0  0  0  0  0  0  0  0  0  0  0
  -24.6536  -34.8863   22.2037 C   0  0  0  0  0  0  0  0  0  0  0  0
  -21.8298  -29.9427   18.8187 C   0  0  0  0  0  0  0  0  0  0  0  0
  -22.7707  -32.2627   18.8432 C   0  0  0  0  0  0  0  0  0  0  0  0
  -20.7940  -31.7054   20.2590 C   0  0  0  0  0  0  0  0  0  0  0  0
  -26.0238  -32.3020   24.6368 C   0  0  0  0  0  0  0  0  0  0  0  0
  -29.6009  -22.1407   20.5557 C   0  0  0  0  0  0  0  0  0  0  0  0
  -34.7535  -21.8573   17.2718 C   0  0  0  0  0  0  0  0  0  0  0  0
  -23.0716  -30.8187   20.9060 C   0  0  1  0  0  0  0  0  0  0  0  0
  -24.6673  -33.5711   22.9670 C   0  0  2  0  0  0  0  0  0  0  0  0
  -22.1324  -31.1602   19.7149 C   0  0  0  0  0  0  0  0  0  0  0  0
  -25.8279  -12.1196   20.8253 N   0  0  0  0  0  0  0  0  0  0  0  0
  -26.2224  -12.4211   19.5765 N   0  0  0  0  0  0  0  0  0  0  0  0
  -22.8400  -28.4099   21.4403 N   0  0  0  0  0  0  0  0  0  0  0  0
  -29.5330  -14.1893   20.2815 N   0  0  0  0  0  0  0  0  0  0  0  0
  -25.4831  -12.4912   17.3272 N   0  0  0  0  0  0  0  0  0  0  0  0
  -21.8588  -10.9965   19.5692 N   0  0  0  0  0  0  0  0  0  0  0  0
  -28.9638  -16.4705   20.4669 N   0  0  0  0  0  0  0  0  0  0  0  0
  -20.0425  -27.3403   22.9654 N   0  0  0  0  0  0  0  0  0  0  0  0
  -23.3536  -31.9468   21.7871 N   0  0  0  0  0  0  0  0  0  0  0  0
  -30.1381  -22.6815   19.2577 N   0  3  2  0  0  0  0  0  0  0  0  0
  -25.8933  -33.5316   23.8134 N   0  3  0  0  0  0  0  0  0  0  0  0
  -22.6742  -11.5324   17.4939 O   0  0  0  0  0  0  0  0  0  0  0  0
  -20.6495  -26.7495   20.7963 O   0  0  0  0  0  0  0  0  0  0  0  0
  -21.8009  -30.0315   22.7449 O   0  0  0  0  0  0  0  0  0  0  0  0
  -25.6584  -31.8946   21.5371 O   0  0  0  0  0  0  0  0  0  0  0  0
  -31.1463  -15.8241   20.0193 O   0  0  0  0  0  0  0  0  0  0  0  0
  -21.5121  -10.1251   25.0611 O   0  0  0  0  0  0  0  0  0  0  0  0
  -28.4212  -26.6696   20.2563 O   0  0  0  0  0  0  0  0  0  1  0  0
  -16.8221   -7.3977   24.0763 F   0  0  0  0  0  0  0  0  0  0  0  0
  -21.1277   -7.5668   26.0357 F   0  0  0  0  0  0  0  0  0  0  0  0
  -35.2885  -22.3408   15.6483 Cl  0  0  0  0  0  0  0  0  0  0  0  0
  1  2  1  0  0  0  0
  1  5  2  0  0  0  0
  2  6  2  0  0  0  0
  3 10  2  0  0  0  0
  3 17  1  0  0  0  0
  4 11  1  0  0  0  0
  4 17  2  0  0  0  0
  5 19  1  0  0  0  0
  6 21  1  0  0  0  0
  7 12  2  0  0  0  0
  7 20  1  0  0  0  0
  8  9  2  0  0  0  0
  8 23  1  0  0  0  0
  9 26  1  0  0  0  0
 10 27  1  0  0  0  0
 11 27  2  0  0  0  0
 12 28  1  0  0  0  0
 13 14  2  0  0  0  0
 13 29  1  0  0  0  0
 14 30  1  0  0  0  0
 15 22  1  0  0  0  0
 15 28  2  0  0  0  0
 16 30  2  0  0  0  0
 16 31  1  0  0  0  0
 17 32  1  0  0  0  0
 18 32  1  0  0  0  0
 18 33  2  0  0  0  0
 18 40  1  0  0  0  0
 19 21  2  0  0  0  0
 19 45  1  0  0  0  0
 20 22  2  0  0  0  0
 20 46  1  0  0  0  0
 21 57  1  0  0  0  0
 22 47  1  0  0  0  0
 23 24  2  0  0  0  0
 23 68  1  0  0  0  0
 24 25  1  0  0  0  0
 24 60  1  0  0  0  0
 25 26  2  0  0  0  0
 25 61  1  0  0  0  0
 26 79  1  0  0  0  0
 27 89  1  0  0  0  0
 28 90  1  0  0  0  0
 29 31  2  0  0  0  0
 29 89  1  0  0  0  0
 30 91  1  0  0  0  0
 31 92  1  0  0  0  0
 32 73  2  0  0  0  0
 33 74  1  0  0  0  0
 33 77  1  0  0  0  0
 34 35  2  0  0  0  0
 34 36  1  0  0  0  0
 34 62  1  0  0  0  0
 35 48  1  0  0  0  0
 35 90  1  0  0  0  0
 36 37  2  0  0  0  0
 36 82  1  0  0  0  0
 37 38  1  0  0  0  0
 38 39  2  0  0  0  0
 39 69  1  0  0  0  0
 40 78  1  0  0  0  0
 40 84  2  0  0  0  0
 41 58  1  0  0  0  0
 41 80  1  0  0  0  0
 41 85  2  0  0  0  0
 42 70  1  0  0  0  0
 42 75  1  0  0  0  0
 42 86  2  0  0  0  0
 43 71  1  0  0  0  0
 43 81  1  0  0  0  0
 43 87  2  0  0  0  0
 44 76  1  0  0  0  0
 44 79  1  0  0  0  0
 44 88  2  0  0  0  0
 45 49  1  0  0  0  0
 46 58  1  0  0  0  0
 47 75  1  0  0  0  0
 48 50  1  0  0  0  0
 49 52  1  0  0  0  0
 50 56  1  0  0  0  0
 51 53  1  0  0  0  0
 51 54  1  0  0  0  0
 52 57  1  0  0  0  0
 53 59  1  0  0  0  0
 54 76  1  0  0  0  0
 55 59  1  0  0  0  0
 55 76  1  0  0  0  0
 56 82  1  0  0  0  0
 57 80  1  0  0  0  0
 58 75  1  0  0  0  0
 59 74  1  0  0  0  0
 63 71  1  0  0  0  0
 64 72  1  0  0  0  0
 65 72  1  0  0  0  0
 66 72  1  0  0  0  0
 67 83  1  0  0  0  0
 68 82  1  0  0  0  0
 69 93  1  0  0  0  0
 70 72  1  0  0  0  0
 70 81  1  0  0  0  0
 71 83  1  0  0  0  0
 73 74  1  0  0  0  0
M  CHG  2  82   1  83   1
M  ISO  4  35 101  44 100  79 100  90 101
M  END
> <Batch ID>
0047

> <Smiles>
CNC(C)C(=O)NC(C(=O)N1Cc2cc([101O:1][101C:1]3=C(C)C(=CC=CCCl)N(Cc4ccc([100NH:0][100C:0](=O)N5CCCC(n6nc(-c7ccc(Oc8ccc(F)cc8F)cc7)c(C(N)=O)c6N)C5)c(C)c4C)CCC3)ccc2CC1C(=O)NC1CCCc2ccccc21)C(C)(C)C

> <Shape>
0.304

> <Color>
0.077

> <Negative vol penalty>
0.000

$$$$

  -OEChem-04042322263D

 86 95  0     1  0  0  0  0  0999 V2000
  -16.5498  -29.8484   23.4268 C   0  0  0  0  0  0  0  0  0  0  0  0
  -17.6183  -30.6954   23.6986 C   0  0  0  0  0  0  0  0  0  0  0  0
  -20.1233  -24.4213   12.1099 C   0  0  0  0  0  0  0  0  0  0  0  0
  -20.9343  -23.2725   14.0745 C   0  0  0  0  0  0  0  0  0  0  0  0
  -16.7904  -28.5425   23.0048 C   0  0  0  0  0  0  0  0  0  0  0  0
  -18.9275  -30.2406   23.5369 C   0  0  0  0  0  0  0  0  0  0  0  0
  -27.0797  -29.3289   22.0832 C   0  0  0  0  0  0  0  0  0  0  0  0
  -29.5010  -20.6909   16.0141 C   0  0  0  0  0  0  0  0  0  0  0  0
  -18.8575  -23.8709   12.3105 C   0  0  0  0  0  0  0  0  0  0  0  0
  -19.6684  -22.7220   14.2752 C   0  0  0  0  0  0  0  0  0  0  0  0
  -27.8675  -28.3350   21.5043 C   0  0  0  0  0  0  0  0  0  0  0  0
  -16.1812  -24.4377   14.2978 C   0  0  0  0  0  0  0  0  0  0  0  0
  -29.9364  -20.0408   17.1688 C   0  0  0  0  0  0  0  0  0  0  0  0
  -15.0794  -25.2842   14.1755 C   0  0  0  0  0  0  0  0  0  0  0  0
  -26.1787  -27.9877   19.8170 C   0  0  0  0  0  0  0  0  0  0  0  0
  -28.0626  -22.0997   17.3496 C   0  0  0  0  0  0  0  0  0  0  0  0
  -14.2167  -23.9036   12.3904 C   0  0  0  0  0  0  0  0  0  0  0  0
  -21.1617  -24.1221   12.9918 C   0  0  0  0  0  0  0  0  0  0  0  0
  -22.8083  -26.0560   12.7542 C   0  0  0  0  0  0  0  0  0  0  0  0
  -18.1035  -28.0685   22.8502 C   0  0  0  0  0  0  0  0  0  0  0  0
  -25.8286  -29.6527   21.5388 C   0  0  0  0  0  0  0  0  0  0  0  0
  -19.1908  -28.9335   23.0890 C   0  0  0  0  0  0  0  0  0  0  0  0
  -25.3781  -28.9879   20.3894 C   0  0  0  0  0  0  0  0  0  0  0  0
  -28.4980  -21.4496   18.5043 C   0  0  0  0  0  0  0  0  0  0  0  0
  -28.5641  -21.7204   16.1045 C   0  0  0  0  0  0  0  0  0  0  0  0
  -18.6300  -23.0213   13.3932 C   0  0  0  0  0  0  0  0  0  0  0  0
  -27.4158  -27.6622   20.3727 C   0  0  0  0  0  0  0  0  0  0  0  0
  -16.3008  -23.3241   13.4663 C   0  0  0  0  0  0  0  0  0  0  0  0
  -14.0971  -25.0172   13.2219 C   0  0  0  0  0  0  0  0  0  0  0  0
  -29.4349  -20.4202   18.4139 C   0  0  0  0  0  0  0  0  0  0  0  0
  -15.3185  -23.0571   12.5126 C   0  0  0  0  0  0  0  0  0  0  0  0
  -22.4697  -24.6899   12.7848 C   0  0  0  0  0  0  0  0  0  0  0  0
  -24.1631  -26.0690   12.5290 C   0  0  0  0  0  0  0  0  0  0  0  0
  -27.8952  -24.3182   20.0080 C   0  0  0  0  0  0  0  0  0  0  0  0
  -21.9728  -27.2100   12.9150 C   0  0  0  0  0  0  0  0  0  0  0  0
  -22.8296  -29.5410   22.5865 C   0  0  0  0  0  0  0  0  0  0  0  0
  -22.2029  -31.0291   19.7731 C   0  0  0  0  0  0  0  0  0  0  0  0
  -23.2940  -30.7486   16.3455 C   0  0  0  0  0  0  0  0  0  0  0  0
  -28.5205  -22.1281   13.6189 C   0  0  0  0  0  0  0  0  0  0  0  0
  -18.3065  -26.6486   22.3833 C   0  0  0  0  0  0  0  0  0  0  0  0
  -25.0026  -30.7459   22.1594 C   0  0  0  0  0  0  0  0  0  0  0  0
  -24.0515  -29.3122   19.7544 C   0  0  0  0  0  0  0  0  0  0  0  0
  -19.7101  -26.1241   22.6677 C   0  0  0  0  0  0  0  0  0  0  0  0
  -30.3844  -24.2722   21.5537 C   0  0  0  0  0  0  0  0  0  0  0  0
  -27.6397  -23.5086   10.4573 C   0  0  0  0  0  0  0  0  0  0  0  0
  -20.7474  -27.1271   22.1854 C   0  0  0  0  0  0  0  0  0  0  0  0
  -30.0180  -25.5045   20.7533 C   0  0  0  0  0  0  0  0  0  0  0  0
  -26.2473  -24.0979   10.6942 C   0  0  0  0  0  0  0  0  0  0  0  0
  -29.9028  -23.0294   20.8269 C   0  0  0  0  0  0  0  0  0  0  0  0
  -27.8432  -22.2062   11.2292 C   0  0  0  0  0  0  0  0  0  0  0  0
  -26.1652  -22.8751   12.9044 C   0  0  0  0  0  0  0  0  0  0  0  0
  -20.6234  -28.4513   22.9496 C   0  0  1  0  0  0  0  0  0  0  0  0
  -28.5099  -25.5732   20.6147 C   0  0  1  0  0  0  0  0  0  1  0  0
  -23.5184  -30.6372   21.8238 C   0  0  1  0  0  0  0  0  0  0  0  0
  -25.9363  -24.2217   12.1987 C   0  0  2  0  0  0  0  0  0  0  0  0
  -23.3878  -32.4653   14.5176 C   0  0  0  0  0  0  0  0  0  0  0  0
  -19.4522  -29.9487   19.0136 C   0  0  0  0  0  0  0  0  0  0  0  0
  -20.0885  -30.2166   16.6070 C   0  0  0  0  0  0  0  0  0  0  0  0
  -19.9728  -32.2156   18.0947 C   0  0  0  0  0  0  0  0  0  0  0  0
  -26.1738  -30.2567   15.8726 C   0  0  0  0  0  0  0  0  0  0  0  0
  -27.9579  -21.8603   19.8436 C   0  0  0  0  0  0  0  0  0  0  0  0
  -21.8741  -30.5725   18.3722 C   0  0  1  0  0  0  0  0  0  0  0  0
  -24.1746  -31.7269   15.5892 C   0  0  2  0  0  0  0  0  0  0  0  0
  -20.3628  -30.7225   18.0394 C   0  0  0  0  0  0  0  0  0  0  0  0
  -23.5244  -23.8929   12.5941 N   0  0  0  0  0  0  0  0  0  0  0  0
  -24.5390  -24.7609   12.4415 N   0  0  0  0  0  0  0  0  0  0  0  0
  -28.5381  -23.1148   20.3040 N   0  0  0  0  0  0  0  0  0  0  0  0
  -23.2775  -30.3843   20.4017 N   0  0  0  0  0  0  0  0  0  0  0  0
  -27.5340  -22.4007   12.6475 N   0  0  0  0  0  0  0  0  0  0  0  0
  -25.0576  -27.0717   12.3992 N   0  0  0  0  0  0  0  0  0  0  0  0
  -20.6028  -27.0170   13.1394 N   0  0  0  0  0  0  0  0  0  0  0  0
  -28.1227  -22.3811   14.9312 N   0  0  0  0  0  0  0  0  0  0  0  0
  -21.4766  -29.4383   22.3254 N   0  0  0  0  0  0  0  0  0  0  0  0
  -22.7587  -31.3167   17.4822 N   0  0  0  0  0  0  0  0  0  0  0  0
  -25.3025  -31.0076   14.9324 N   0  3  0  0  0  0  0  0  0  0  0  0
  -26.8515  -24.3990   19.3552 O   0  0  0  0  0  0  0  0  0  0  0  0
  -22.4248  -28.3780   12.8449 O   0  0  0  0  0  0  0  0  0  0  0  0
  -23.4781  -28.8394   23.3539 O   0  0  0  0  0  0  0  0  0  0  0  0
  -21.5354  -31.9297   20.2879 O   0  0  0  0  0  0  0  0  0  0  0  0
  -23.0974  -29.5970   15.9640 O   0  0  0  0  0  0  0  0  0  0  0  0
  -29.6449  -21.7276   13.3072 O   0  0  0  0  0  0  0  0  0  0  0  0
  -17.3949  -22.4841   13.5894 O   0  0  0  0  0  0  0  0  0  0  0  0
  -28.1824  -26.6911   19.8060 O   0  0  0  0  0  0  0  0  0  1  0  0
  -13.0383  -25.8294   13.1056 F   0  0  0  0  0  0  0  0  0  0  0  0
  -29.8585  -19.7887   19.5176 F   0  0  0  0  0  0  0  0  0  0  0  0
  -15.4274  -21.9881   11.7118 F   0  0  0  0  0  0  0  0  0  0  0  0
  1  2  1  0  0  0  0
  1  5  2  0  0  0  0
  2  6  2  0  0  0  0
  3  9  2  0  0  0  0
  3 18  1  0  0  0  0
  4 10  1  0  0  0  0
  4 18  2  0  0  0  0
  5 20  1  0  0  0  0
  6 22  1  0  0  0  0
  7 11  2  0  0  0  0
  7 21  1  0  0  0  0
  8 13  2  0  0  0  0
  8 25  1  0  0  0  0
  9 26  1  0  0  0  0
 10 26  2  0  0  0  0
 11 27  1  0  0  0  0
 12 14  2  0  0  0  0
 12 28  1  0  0  0  0
 13 30  1  0  0  0  0
 14 29  1  0  0  0  0
 15 23  1  0  0  0  0
 15 27  2  0  0  0  0
 16 24  1  0  0  0  0
 16 25  2  0  0  0  0
 17 29  2  0  0  0  0
 17 31  1  0  0  0  0
 18 32  1  0  0  0  0
 19 32  1  0  0  0  0
 19 33  2  0  0  0  0
 19 35  1  0  0  0  0
 20 22  2  0  0  0  0
 20 40  1  0  0  0  0
 21 23  2  0  0  0  0
 21 41  1  0  0  0  0
 22 52  1  0  0  0  0
 23 42  1  0  0  0  0
 24 30  2  0  0  0  0
 24 61  1  0  0  0  0
 25 72  1  0  0  0  0
 26 82  1  0  0  0  0
 27 83  1  0  0  0  0
 28 31  2  0  0  0  0
 28 82  1  0  0  0  0
 29 84  1  0  0  0  0
 30 85  1  0  0  0  0
 31 86  1  0  0  0  0
 32 65  2  0  0  0  0
 33 66  1  0  0  0  0
 33 70  1  0  0  0  0
 34 53  1  0  0  0  0
 34 67  1  0  0  0  0
 34 76  2  0  0  0  0
 35 71  1  0  0  0  0
 35 77  2  0  0  0  0
 36 54  1  0  0  0  0
 36 73  1  0  0  0  0
 36 78  2  0  0  0  0
 37 62  1  0  0  0  0
 37 68  1  0  0  0  0
 37 79  2  0  0  0  0
 38 63  1  0  0  0  0
 38 74  1  0  0  0  0
 38 80  2  0  0  0  0
 39 69  1  0  0  0  0
 39 72  1  0  0  0  0
 39 81  2  0  0  0  0
 40 43  1  0  0  0  0
 41 54  1  0  0  0  0
 42 68  1  0  0  0  0
 43 46  1  0  0  0  0
 44 47  1  0  0  0  0
 44 49  1  0  0  0  0
 45 48  1  0  0  0  0
 45 50  1  0  0  0  0
 46 52  1  0  0  0  0
 47 53  1  0  0  0  0
 48 55  1  0  0  0  0
 49 67  1  0  0  0  0
 50 69  1  0  0  0  0
 51 55  1  0  0  0  0
 51 69  1  0  0  0  0
 52 73  1  0  0  0  0
 53 83  1  0  0  0  0
 54 68  1  0  0  0  0
 55 66  1  0  0  0  0
 56 63  1  0  0  0  0
 57 64  1  0  0  0  0
 58 64  1  0  0  0  0
 59 64  1  0  0  0  0
 60 75  1  0  0  0  0
 61 67  1  0  0  0  0
 62 64  1  0  0  0  0
 62 74  1  0  0  0  0
 63 75  1  0  0  0  0
 65 66  1  0  0  0  0
M  CHG  1  75   1
M  ISO  4  39 100  53 101  72 100  83 101
M  END
> <Batch ID>
0047

> <Smiles>
CNC(C)C(=O)NC(C(=O)N1Cc2cc([101O:1][101CH:1]3CCCN(Cc4cc([100NH:0][100C:0](=O)N5CCCC(n6nc(-c7ccc(Oc8ccc(F)cc8F)cc7)c(C(N)=O)c6N)C5)ccc4F)C3=O)ccc2CC1C(=O)NC1CCCc2ccccc21)C(C)(C)C

> <Shape>
0.172

> <Color>
0.122

> <Negative vol penalty>
0.000

$$$$

  -OEChem-04042322263D

 85 93  0     1  0  0  0  0  0999 V2000
  -32.8414  -30.6345   21.6584 C   0  0  0  0  0  0  0  0  0  0  0  0
  -32.2071  -29.4658   21.2495 C   0  0  0  0  0  0  0  0  0  0  0  0
  -23.9518   -9.7700   21.9967 C   0  0  0  0  0  0  0  0  0  0  0  0
  -22.1910  -10.3711   20.4555 C   0  0  0  0  0  0  0  0  0  0  0  0
  -32.2929  -31.4012   22.6857 C   0  0  0  0  0  0  0  0  0  0  0  0
  -31.0244  -29.0625   21.8684 C   0  0  0  0  0  0  0  0  0  0  0  0
  -27.5133  -27.5471   18.5486 C   0  0  0  0  0  0  0  0  0  0  0  0
  -23.4677   -8.4626   22.0399 C   0  0  0  0  0  0  0  0  0  0  0  0
  -21.7068   -9.0637   20.4988 C   0  0  0  0  0  0  0  0  0  0  0  0
  -27.6574  -26.2702   18.0079 C   0  0  0  0  0  0  0  0  0  0  0  0
  -20.9551   -6.7864   23.5569 C   0  0  0  0  0  0  0  0  0  0  0  0
  -20.8506   -6.1758   24.8067 C   0  0  0  0  0  0  0  0  0  0  0  0
  -26.0158  -25.4325   19.5644 C   0  0  0  0  0  0  0  0  0  0  0  0
  -22.1504  -21.9892   18.1128 C   0  0  0  0  0  0  0  0  0  0  0  0
  -21.9782  -20.9955   20.3083 C   0  0  0  0  0  0  0  0  0  0  0  0
  -22.3747   -4.4444   24.0882 C   0  0  0  0  0  0  0  0  0  0  0  0
  -23.3134  -10.7243   21.2045 C   0  0  0  0  0  0  0  0  0  0  0  0
  -24.7699  -12.5987   20.2701 C   0  0  0  0  0  0  0  0  0  0  0  0
  -31.0977  -31.0122   23.3110 C   0  0  0  0  0  0  0  0  0  0  0  0
  -26.6260  -27.7746   19.6104 C   0  0  0  0  0  0  0  0  0  0  0  0
  -30.4601  -29.8240   22.9059 C   0  0  0  0  0  0  0  0  0  0  0  0
  -25.8605  -26.7138   20.1151 C   0  0  0  0  0  0  0  0  0  0  0  0
  -22.9394  -20.9193   17.6904 C   0  0  0  0  0  0  0  0  0  0  0  0
  -23.2478  -19.8875   18.5769 C   0  0  0  0  0  0  0  0  0  0  0  0
  -22.7672  -19.9255   19.8859 C   0  0  0  0  0  0  0  0  0  0  0  0
  -22.3452   -8.1094   21.2910 C   0  0  0  0  0  0  0  0  0  0  0  0
  -26.9107  -25.2120   18.5177 C   0  0  0  0  0  0  0  0  0  0  0  0
  -21.7693   -6.2259   22.5728 C   0  0  0  0  0  0  0  0  0  0  0  0
  -21.5604   -5.0049   25.0724 C   0  0  0  0  0  0  0  0  0  0  0  0
  -22.4792   -5.0549   22.8384 C   0  0  0  0  0  0  0  0  0  0  0  0
  -21.6698  -22.0273   19.4218 C   0  0  0  0  0  0  0  0  0  0  0  0
  -23.8127  -12.0752   21.1598 C   0  0  0  0  0  0  0  0  0  0  0  0
  -24.8964  -13.9159   20.6380 C   0  0  0  0  0  0  0  0  0  0  0  0
  -25.4810  -11.9522   19.2061 C   0  0  0  0  0  0  0  0  0  0  0  0
  -26.9291  -28.7760   22.6118 C   0  0  0  0  0  0  0  0  0  0  0  0
  -23.6866  -28.7051   22.5518 C   0  0  0  0  0  0  0  0  0  0  0  0
  -25.3072  -22.5464   16.0859 C   0  0  0  0  0  0  0  0  0  0  0  0
  -20.8418  -27.4319   21.1616 C   0  0  0  0  0  0  0  0  0  0  0  0
  -22.6618  -18.7919   22.1331 C   0  0  0  0  0  0  0  0  0  0  0  0
  -30.5682  -31.8484   24.4489 C   0  0  0  0  0  0  0  0  0  0  0  0
  -26.4625  -29.1632   20.1647 C   0  0  0  0  0  0  0  0  0  0  0  0
  -24.8791  -26.9094   21.2408 C   0  0  0  0  0  0  0  0  0  0  0  0
  -29.1128  -31.5491   24.7989 C   0  0  0  0  0  0  0  0  0  0  0  0
  -23.1629  -16.3811   24.7049 C   0  0  0  0  0  0  0  0  0  0  0  0
  -28.8827  -30.0435   24.8831 C   0  0  0  0  0  0  0  0  0  0  0  0
  -23.4554  -15.0890   23.9387 C   0  0  0  0  0  0  0  0  0  0  0  0
  -22.1168  -17.2377   23.9939 C   0  0  0  0  0  0  0  0  0  0  0  0
  -22.7008  -16.2394   21.8187 C   0  0  0  0  0  0  0  0  0  0  0  0
  -29.1625  -29.3665   23.5360 C   0  0  1  0  0  0  0  0  0  0  0  0
  -25.9076  -29.1778   21.5858 C   0  0  1  0  0  0  0  0  0  0  0  0
  -23.7961  -15.3739   22.4628 C   0  0  2  0  0  0  0  0  0  0  0  0
  -24.0946  -18.7415   18.1193 C   0  0  0  0  0  0  0  0  0  0  0  0
  -18.3414  -27.5350   21.3480 C   0  0  0  0  0  0  0  0  0  0  0  0
  -23.8032  -26.9573   25.0501 C   0  0  0  0  0  0  0  0  0  0  0  0
  -21.4171  -26.3241   24.6337 C   0  0  0  0  0  0  0  0  0  0  0  0
  -22.0140  -28.7044   25.0817 C   0  0  0  0  0  0  0  0  0  0  0  0
  -20.5615  -28.4483   18.3962 C   0  0  0  0  0  0  0  0  0  0  0  0
  -23.4439  -20.9027   16.2765 C   0  0  0  0  0  0  0  0  0  0  0  0
  -26.8258  -22.5971   16.0249 C   0  0  0  0  0  0  0  0  0  0  0  0
  -27.4014  -23.8766   16.6120 C   0  0  0  0  0  0  0  0  0  1  0  0
  -22.6340  -27.6680   22.8606 C   0  0  1  0  0  0  0  0  0  0  0  0
  -19.5749  -28.1048   20.6650 C   0  0  2  0  0  0  0  0  0  0  0  0
  -22.4869  -27.4090   24.3866 C   0  0  0  0  0  0  0  0  0  0  0  0
  -23.3632  -12.9855   22.0277 N   0  0  0  0  0  0  0  0  0  0  0  0
  -24.0409  -14.0943   21.6852 N   0  0  0  0  0  0  0  0  0  0  0  0
  -24.7597  -28.2843   21.7535 N   0  0  0  0  0  0  0  0  0  0  0  0
  -22.5087  -17.4699   22.6020 N   0  0  0  0  0  0  0  0  0  0  0  0
  -25.6549  -14.9275   20.1648 N   0  0  0  0  0  0  0  0  0  0  0  0
  -25.2309  -10.5946   18.9636 N   0  0  0  0  0  0  0  0  0  0  0  0
  -23.0688  -18.8882   20.8028 N   0  0  0  0  0  0  0  0  0  0  0  0
  -28.0565  -29.5749   22.6262 N   0  0  0  0  0  0  0  0  0  0  0  0
  -24.8465  -21.2424   16.1986 N   0  0  0  0  0  0  0  0  0  0  0  0
  -21.4096  -28.1231   22.2109 N   0  0  0  0  0  0  0  0  0  0  0  0
  -19.4287  -27.9128   19.1944 N   0  3  0  0  0  0  0  0  0  0  0  0
  -26.3256  -12.5561   18.5023 O   0  0  0  0  0  0  0  0  0  0  0  0
  -26.7100  -27.8134   23.3378 O   0  0  0  0  0  0  0  0  0  0  0  0
  -23.5577  -29.8485   22.9964 O   0  0  0  0  0  0  0  0  0  0  0  0
  -24.5974  -23.5473   16.0395 O   0  0  0  0  0  0  0  0  0  0  0  0
  -21.2815  -26.3947   20.6704 O   0  0  0  0  0  0  0  0  0  0  0  0
  -22.4740  -19.7663   22.8660 O   0  0  0  0  0  0  0  0  0  0  0  0
  -21.8726   -6.8337   21.3328 O   0  0  0  0  0  0  0  0  0  0  0  0
  -27.0498  -23.9645   17.9922 O   0  0  0  0  0  0  0  0  0  1  0  0
  -21.4612   -4.4195   26.2730 F   0  0  0  0  0  0  0  0  0  0  0  0
  -23.2640   -4.5125   21.8974 F   0  0  0  0  0  0  0  0  0  0  0  0
  -20.6974  -23.3480   19.9430 Cl  0  0  0  0  0  0  0  0  0  0  0  0
  1  2  1  0  0  0  0
  1  5  2  0  0  0  0
  2  6  2  0  0  0  0
  3  8  2  0  0  0  0
  3 17  1  0  0  0  0
  4  9  1  0  0  0  0
  4 17  2  0  0  0  0
  5 19  1  0  0  0  0
  6 21  1  0  0  0  0
  7 10  2  0  0  0  0
  7 20  1  0  0  0  0
  8 26  1  0  0  0  0
  9 26  2  0  0  0  0
 10 27  1  0  0  0  0
 11 12  2  0  0  0  0
 11 28  1  0  0  0  0
 12 29  1  0  0  0  0
 13 22  1  0  0  0  0
 13 27  2  0  0  0  0
 14 23  1  0  0  0  0
 14 31  2  0  0  0  0
 15 25  2  0  0  0  0
 15 31  1  0  0  0  0
 16 29  2  0  0  0  0
 16 30  1  0  0  0  0
 17 32  1  0  0  0  0
 18 32  1  0  0  0  0
 18 33  2  0  0  0  0
 18 34  1  0  0  0  0
 19 21  2  0  0  0  0
 19 40  1  0  0  0  0
 20 22  2  0  0  0  0
 20 41  1  0  0  0  0
 21 49  1  0  0  0  0
 22 42  1  0  0  0  0
 23 24  2  0  0  0  0
 23 58  1  0  0  0  0
 24 25  1  0  0  0  0
 24 52  1  0  0  0  0
 25 70  1  0  0  0  0
 26 81  1  0  0  0  0
 27 82  1  0  0  0  0
 28 30  2  0  0  0  0
 28 81  1  0  0  0  0
 29 83  1  0  0  0  0
 30 84  1  0  0  0  0
 31 85  1  0  0  0  0
 32 64  2  0  0  0  0
 33 65  1  0  0  0  0
 33 68  1  0  0  0  0
 34 69  1  0  0  0  0
 34 75  2  0  0  0  0
 35 50  1  0  0  0  0
 35 71  1  0  0  0  0
 35 76  2  0  0  0  0
 36 61  1  0  0  0  0
 36 66  1  0  0  0  0
 36 77  2  0  0  0  0
 37 59  1  0  0  0  0
 37 72  1  0  0  0  0
 37 78  2  0  0  0  0
 38 62  1  0  0  0  0
 38 73  1  0  0  0  0
 38 79  2  0  0  0  0
 39 67  1  0  0  0  0
 39 70  1  0  0  0  0
 39 80  2  0  0  0  0
 40 43  1  0  0  0  0
 41 50  1  0  0  0  0
 42 66  1  0  0  0  0
 43 45  1  0  0  0  0
 44 46  1  0  0  0  0
 44 47  1  0  0  0  0
 45 49  1  0  0  0  0
 46 51  1  0  0  0  0
 47 67  1  0  0  0  0
 48 51  1  0  0  0  0
 48 67  1  0  0  0  0
 49 71  1  0  0  0  0
 50 66  1  0  0  0  0
 51 65  1  0  0  0  0
 53 62  1  0  0  0  0
 54 63  1  0  0  0  0
 55 63  1  0  0  0  0
 56 63  1  0  0  0  0
 57 74  1  0  0  0  0
 58 72  1  0  0  0  0
 59 60  1  0  0  0  0
 60 82  1  0  0  0  0
 61 63  1  0  0  0  0
 61 73  1  0  0  0  0
 62 74  1  0  0  0  0
 64 65  1  0  0  0  0
M  CHG  1  74   1
M  ISO  4  39 100  60 101  70 100  82 101
M  END
> <Batch ID>
0047

> <Smiles>
CNC(C)C(=O)NC(C(=O)N1Cc2cc([101O:1][101CH2:1]CC(=O)NCc3cc(Cl)cc([100NH:0][100C:0](=O)N4CCCC(n5nc(-c6ccc(Oc7ccc(F)cc7F)cc6)c(C(N)=O)c5N)C4)c3C)ccc2CC1C(=O)NC1CCCc2ccccc21)C(C)(C)C

> <Shape>
0.192

> <Color>
0.111

> <Negative vol penalty>
0.000

$$$$

  -OEChem-04042322263D

 89 98  0     1  0  0  0  0  0999 V2000
  -28.0999  -31.7978   24.8565 C   0  0  0  0  0  0  0  0  0  0  0  0
  -28.2278  -30.4253   24.6684 C   0  0  0  0  0  0  0  0  0  0  0  0
  -22.8852  -10.0008   20.0178 C   0  0  0  0  0  0  0  0  0  0  0  0
  -24.3444   -9.4058   21.8492 C   0  0  0  0  0  0  0  0  0  0  0  0
  -28.1060  -32.6545   23.7565 C   0  0  0  0  0  0  0  0  0  0  0  0
  -28.3606  -29.9087   23.3800 C   0  0  0  0  0  0  0  0  0  0  0  0
  -31.9866  -26.3877   23.0632 C   0  0  0  0  0  0  0  0  0  0  0  0
  -22.2131   -8.7867   20.1590 C   0  0  0  0  0  0  0  0  0  0  0  0
  -23.6722   -8.1918   21.9904 C   0  0  0  0  0  0  0  0  0  0  0  0
  -31.6787  -25.1125   23.5350 C   0  0  0  0  0  0  0  0  0  0  0  0
  -20.7804   -7.0910   23.3490 C   0  0  0  0  0  0  0  0  0  0  0  0
  -20.4410   -6.6862   24.6399 C   0  0  0  0  0  0  0  0  0  0  0  0
  -31.2819  -24.3775   21.2719 C   0  0  0  0  0  0  0  0  0  0  0  0
  -32.7453  -15.3723   23.6958 C   0  0  0  0  0  0  0  0  0  0  0  0
  -21.7692   -4.6872   24.3622 C   0  0  0  0  0  0  0  0  0  0  0  0
  -23.9510  -10.3103   20.8629 C   0  0  0  0  0  0  0  0  0  0  0  0
  -24.1007  -12.8567   20.8319 C   0  0  0  0  0  0  0  0  0  0  0  0
  -28.2487  -32.1490   22.4547 C   0  0  0  0  0  0  0  0  0  0  0  0
  -31.9337  -26.6708   21.6908 C   0  0  0  0  0  0  0  0  0  0  0  0
  -28.3672  -30.7594   22.2615 C   0  0  0  0  0  0  0  0  0  0  0  0
  -31.5920  -25.6565   20.7850 C   0  0  0  0  0  0  0  0  0  0  0  0
  -32.7829  -16.7124   24.0810 C   0  0  0  0  0  0  0  0  0  0  0  0
  -31.6846  -14.5605   24.0978 C   0  0  0  0  0  0  0  0  0  0  0  0
  -31.7598  -17.2407   24.8683 C   0  0  0  0  0  0  0  0  0  0  0  0
  -30.6991  -16.4289   25.2704 C   0  0  0  0  0  0  0  0  0  0  0  0
  -22.6065   -7.8823   21.1452 C   0  0  0  0  0  0  0  0  0  0  0  0
  -31.3235  -24.1079   22.6397 C   0  0  0  0  0  0  0  0  0  0  0  0
  -21.6141   -6.2939   22.5646 C   0  0  0  0  0  0  0  0  0  0  0  0
  -20.9355   -5.4843   25.1465 C   0  0  0  0  0  0  0  0  0  0  0  0
  -22.1085   -5.0921   23.0712 C   0  0  0  0  0  0  0  0  0  0  0  0
  -30.6615  -15.0888   24.8851 C   0  0  0  0  0  0  0  0  0  0  0  0
  -24.6461  -11.5640   20.7172 C   0  0  0  0  0  0  0  0  0  0  0  0
  -25.1629  -13.6985   20.6092 C   0  0  0  0  0  0  0  0  0  0  0  0
  -30.5477  -20.7554   25.2396 C   0  0  0  0  0  0  0  0  0  0  0  0
  -29.3622  -20.8428   25.8617 C   0  0  0  0  0  0  0  0  0  0  0  0
  -22.7543  -13.2605   21.1144 C   0  0  0  0  0  0  0  0  0  0  0  0
  -30.2356  -28.6490   19.8723 C   0  0  0  0  0  0  0  0  0  0  0  0
  -32.2147  -27.5768   17.5365 C   0  0  0  0  0  0  0  0  0  0  0  0
  -33.6307  -24.4144   16.5309 C   0  0  0  0  0  0  0  0  0  0  0  0
  -31.0806  -13.0550   21.2557 C   0  0  0  0  0  0  0  0  0  0  0  0
  -28.2020  -33.1102   21.2935 C   0  0  0  0  0  0  0  0  0  0  0  0
  -32.2947  -28.0445   21.1955 C   0  0  0  0  0  0  0  0  0  0  0  0
  -31.5401  -25.9036   19.3002 C   0  0  0  0  0  0  0  0  0  0  0  0
  -31.5583  -21.8732   25.2382 C   0  0  0  0  0  0  0  0  0  0  0  0
  -28.7235  -32.5145   19.9883 C   0  0  0  0  0  0  0  0  0  0  0  0
  -29.3346  -13.9273   18.2779 C   0  0  0  0  0  0  0  0  0  0  0  0
  -28.1314  -31.1273   19.7606 C   0  0  0  0  0  0  0  0  0  0  0  0
  -27.8858  -13.5372   18.5757 C   0  0  0  0  0  0  0  0  0  0  0  0
  -32.3978  -20.8905   23.0636 C   0  0  0  0  0  0  0  0  0  0  0  0
  -30.3233  -12.9435   18.8997 C   0  0  0  0  0  0  0  0  0  0  0  0
  -28.6951  -12.3260   20.6437 C   0  0  0  0  0  0  0  0  0  0  0  0
  -31.2664  -19.8642   23.1014 C   0  0  0  0  0  0  0  0  0  0  0  0
  -28.5383  -30.1629   20.8813 C   0  0  1  0  0  0  0  0  0  0  0  0
  -31.7088  -28.3575   19.8221 C   0  0  1  0  0  0  0  0  0  0  0  0
  -27.6625  -13.3196   20.0844 C   0  0  2  0  0  0  0  0  0  0  0  0
  -32.0412  -22.1709   23.8185 C   0  0  1  0  0  0  0  0  0  1  0  0
  -33.9297  -17.5599   23.6374 C   0  0  0  0  0  0  0  0  0  0  0  0
  -29.6096  -17.0149   26.1145 C   0  0  0  0  0  0  0  0  0  0  0  0
  -35.7538  -23.8958   15.2976 C   0  0  0  0  0  0  0  0  0  0  0  0
  -30.4382  -27.6002   15.0559 C   0  0  0  0  0  0  0  0  0  0  0  0
  -31.7697  -25.6741   14.1696 C   0  0  0  0  0  0  0  0  0  0  0  0
  -32.8812  -27.8670   14.5920 C   0  0  0  0  0  0  0  0  0  0  0  0
  -34.5706  -22.6037   18.6750 C   0  0  0  0  0  0  0  0  0  0  0  0
  -31.6865  -13.1305   23.6611 C   0  0  0  0  0  0  0  0  0  0  0  0
  -31.8042  -18.6831   25.2788 C   0  0  0  0  0  0  0  0  0  0  0  0
  -32.1864  -26.4313   16.5537 C   0  0  1  0  0  0  0  0  0  0  0  0
  -35.0816  -23.9866   16.6587 C   0  0  2  0  0  0  0  0  0  0  0  0
  -31.8059  -26.8914   15.1181 C   0  0  0  0  0  0  0  0  0  0  0  0
  -25.9532  -11.5783   20.4429 N   0  0  0  0  0  0  0  0  0  0  0  0
  -26.2380  -12.8903   20.3832 N   0  0  0  0  0  0  0  0  0  0  0  0
  -31.8954  -27.2646   18.8655 N   0  0  0  0  0  0  0  0  0  0  0  0
  -30.0583  -12.7832   20.3315 N   0  0  0  0  0  0  0  0  0  0  0  0
  -25.2728  -15.0438   20.5866 N   0  0  0  0  0  0  0  0  0  0  0  0
  -22.3799  -13.4485   22.4519 N   0  0  0  0  0  0  0  0  0  0  0  0
  -29.8999  -29.7113   20.6898 N   0  0  0  0  0  0  0  0  0  0  0  0
  -33.4890  -25.7810   16.6472 N   0  0  0  0  0  0  0  0  0  0  0  0
  -30.7438  -12.8840   22.5928 N   0  0  0  0  0  0  0  0  0  0  0  0
  -30.8368  -19.5434   24.5139 N   0  3  1  0  0  0  0  0  0  0  0  0
  -35.1723  -22.6529   17.3176 N   0  3  0  0  0  0  0  0  0  0  0  0
  -21.9038  -13.4332   20.2087 O   0  0  0  0  0  0  0  0  0  0  0  0
  -29.4611  -27.9621   19.2166 O   0  0  0  0  0  0  0  0  0  0  0  0
  -32.5162  -28.7057   17.1409 O   0  0  0  0  0  0  0  0  0  0  0  0
  -32.7151  -23.6164   16.3428 O   0  0  0  0  0  0  0  0  0  0  0  0
  -32.2082  -13.4280   20.9146 O   0  0  0  0  0  0  0  0  0  0  0  0
  -21.9507   -6.6976   21.2834 O   0  0  0  0  0  0  0  0  0  0  0  0
  -31.0219  -22.8624   23.0976 O   0  0  0  0  0  0  0  0  0  1  0  0
  -20.6107   -5.0964   26.3868 F   0  0  0  0  0  0  0  0  0  0  0  0
  -22.9109   -4.3227   22.3228 F   0  0  0  0  0  0  0  0  0  0  0  0
  -29.3462  -14.0773   25.3832 Cl  0  0  0  0  0  0  0  0  0  0  0  0
  1  2  1  0  0  0  0
  1  5  2  0  0  0  0
  2  6  2  0  0  0  0
  3  8  2  0  0  0  0
  3 16  1  0  0  0  0
  4  9  1  0  0  0  0
  4 16  2  0  0  0  0
  5 18  1  0  0  0  0
  6 20  1  0  0  0  0
  7 10  2  0  0  0  0
  7 19  1  0  0  0  0
  8 26  1  0  0  0  0
  9 26  2  0  0  0  0
 10 27  1  0  0  0  0
 11 12  2  0  0  0  0
 11 28  1  0  0  0  0
 12 29  1  0  0  0  0
 13 21  1  0  0  0  0
 13 27  2  0  0  0  0
 14 22  2  0  0  0  0
 14 23  1  0  0  0  0
 15 29  2  0  0  0  0
 15 30  1  0  0  0  0
 16 32  1  0  0  0  0
 17 32  1  0  0  0  0
 17 33  2  0  0  0  0
 17 36  1  0  0  0  0
 18 20  2  0  0  0  0
 18 41  1  0  0  0  0
 19 21  2  0  0  0  0
 19 42  1  0  0  0  0
 20 53  1  0  0  0  0
 21 43  1  0  0  0  0
 22 24  1  0  0  0  0
 22 57  1  0  0  0  0
 23 31  2  0  0  0  0
 23 64  1  0  0  0  0
 24 25  2  0  0  0  0
 24 65  1  0  0  0  0
 25 31  1  0  0  0  0
 25 58  1  0  0  0  0
 26 85  1  0  0  0  0
 27 86  1  0  0  0  0
 28 30  2  0  0  0  0
 28 85  1  0  0  0  0
 29 87  1  0  0  0  0
 30 88  1  0  0  0  0
 31 89  1  0  0  0  0
 32 69  2  0  0  0  0
 33 70  1  0  0  0  0
 33 73  1  0  0  0  0
 34 35  2  0  0  0  0
 34 44  1  0  0  0  0
 34 78  1  0  0  0  0
 36 74  1  0  0  0  0
 36 80  2  0  0  0  0
 37 54  1  0  0  0  0
 37 75  1  0  0  0  0
 37 81  2  0  0  0  0
 38 66  1  0  0  0  0
 38 71  1  0  0  0  0
 38 82  2  0  0  0  0
 39 67  1  0  0  0  0
 39 76  1  0  0  0  0
 39 83  2  0  0  0  0
 40 72  1  0  0  0  0
 40 77  1  0  0  0  0
 40 84  2  0  0  0  0
 41 45  1  0  0  0  0
 42 54  1  0  0  0  0
 43 71  1  0  0  0  0
 44 56  1  0  0  0  0
 45 47  1  0  0  0  0
 46 48  1  0  0  0  0
 46 50  1  0  0  0  0
 47 53  1  0  0  0  0
 48 55  1  0  0  0  0
 49 52  1  0  0  0  0
 49 56  1  0  0  0  0
 50 72  1  0  0  0  0
 51 55  1  0  0  0  0
 51 72  1  0  0  0  0
 52 78  1  0  0  0  0
 53 75  1  0  0  0  0
 54 71  1  0  0  0  0
 55 70  1  0  0  0  0
 56 86  1  0  0  0  0
 59 67  1  0  0  0  0
 60 68  1  0  0  0  0
 61 68  1  0  0  0  0
 62 68  1  0  0  0  0
 63 79  1  0  0  0  0
 64 77  1  0  0  0  0
 65 78  1  0  0  0  0
 66 68  1  0  0  0  0
 66 76  1  0  0  0  0
 67 79  1  0  0  0  0
 69 70  1  0  0  0  0
M  CHG  2  78   1  79   1
M  ISO  4  40 100  56 101  77 100  86 101
M  END
> <Batch ID>
0047

> <Smiles>
C=C1C[101CH:1]([101O:1]c2ccc3c(c2)CN(C(=O)C(NC(=O)C(C)NC)C(C)(C)C)C(C(=O)NC2CCCc4ccccc42)C3)CCN1Cc1c(C)cc(C[100NH:0][100C:0](=O)N2CCCC(n3nc(-c4ccc(Oc5ccc(F)cc5F)cc4)c(C(N)=O)c3N)C2)c(Cl)c1C

> <Shape>
0.208

> <Color>
0.158

> <Negative vol penalty>
0.000

$$$$

  -OEChem-04042322263D

 84 92  0     1  0  0  0  0  0999 V2000
  -27.6170  -33.1892   24.7411 C   0  0  0  0  0  0  0  0  0  0  0  0
  -27.9256  -31.8611   24.4649 C   0  0  0  0  0  0  0  0  0  0  0  0
  -32.6581  -17.4365   23.4278 C   0  0  0  0  0  0  0  0  0  0  0  0
  -22.9992   -9.8913   19.9853 C   0  0  0  0  0  0  0  0  0  0  0  0
  -23.7153   -9.9571   22.2918 C   0  0  0  0  0  0  0  0  0  0  0  0
  -26.4172  -33.5074   25.3760 C   0  0  0  0  0  0  0  0  0  0  0  0
  -27.0349  -30.8502   24.8246 C   0  0  0  0  0  0  0  0  0  0  0  0
  -25.9518  -25.6448   21.7855 C   0  0  0  0  0  0  0  0  0  0  0  0
  -31.8797  -18.3478   24.1415 C   0  0  0  0  0  0  0  0  0  0  0  0
  -32.0521  -16.5428   22.5448 C   0  0  0  0  0  0  0  0  0  0  0  0
  -22.2308   -8.7591   20.2562 C   0  0  0  0  0  0  0  0  0  0  0  0
  -22.9469   -8.8249   22.5627 C   0  0  0  0  0  0  0  0  0  0  0  0
  -26.4222  -24.3435   21.9565 C   0  0  0  0  0  0  0  0  0  0  0  0
  -23.1909   -5.4827   22.1139 C   0  0  0  0  0  0  0  0  0  0  0  0
  -23.7748   -4.4702   22.8751 C   0  0  0  0  0  0  0  0  0  0  0  0
  -24.4434  -23.8015   23.2252 C   0  0  0  0  0  0  0  0  0  0  0  0
  -22.0445   -4.7253   24.5418 C   0  0  0  0  0  0  0  0  0  0  0  0
  -23.7414  -10.4903   21.0032 C   0  0  0  0  0  0  0  0  0  0  0  0
  -24.1291  -13.0044   20.8120 C   0  0  0  0  0  0  0  0  0  0  0  0
  -25.5070  -32.5008   25.7350 C   0  0  0  0  0  0  0  0  0  0  0  0
  -24.7267  -26.0379   22.3433 C   0  0  0  0  0  0  0  0  0  0  0  0
  -25.8224  -31.1552   25.4661 C   0  0  0  0  0  0  0  0  0  0  0  0
  -23.9585  -25.1076   23.0577 C   0  0  0  0  0  0  0  0  0  0  0  0
  -30.4952  -18.3652   23.9723 C   0  0  0  0  0  0  0  0  0  0  0  0
  -29.8892  -17.4714   23.0893 C   0  0  0  0  0  0  0  0  0  0  0  0
  -30.6676  -16.5602   22.3756 C   0  0  0  0  0  0  0  0  0  0  0  0
  -22.2047   -8.2259   21.5448 C   0  0  0  0  0  0  0  0  0  0  0  0
  -25.6693  -23.4224   22.6789 C   0  0  0  0  0  0  0  0  0  0  0  0
  -22.0338   -6.1167   22.5667 C   0  0  0  0  0  0  0  0  0  0  0  0
  -23.2016   -4.0914   24.0890 C   0  0  0  0  0  0  0  0  0  0  0  0
  -21.4606   -5.7379   23.7807 C   0  0  0  0  0  0  0  0  0  0  0  0
  -24.5358  -11.6595   20.7239 C   0  0  0  0  0  0  0  0  0  0  0  0
  -25.2408  -13.7238   20.4472 C   0  0  0  0  0  0  0  0  0  0  0  0
  -22.8600  -13.5542   21.1899 C   0  0  0  0  0  0  0  0  0  0  0  0
  -23.8333  -28.1948   24.5004 C   0  0  0  0  0  0  0  0  0  0  0  0
  -20.8520  -27.2661   23.6221 C   0  0  0  0  0  0  0  0  0  0  0  0
  -27.8810  -20.7862   23.7629 C   0  0  0  0  0  0  0  0  0  0  0  0
  -18.8470  -24.8527   22.2797 C   0  0  0  0  0  0  0  0  0  0  0  0
  -30.7199  -14.6830   20.6964 C   0  0  0  0  0  0  0  0  0  0  0  0
  -24.2442  -32.8895   26.4621 C   0  0  0  0  0  0  0  0  0  0  0  0
  -24.2208  -27.4378   22.1270 C   0  0  0  0  0  0  0  0  0  0  0  0
  -22.6272  -25.4737   23.6593 C   0  0  0  0  0  0  0  0  0  0  0  0
  -23.1849  -31.7904   26.4734 C   0  0  0  0  0  0  0  0  0  0  0  0
  -29.6092  -12.2154   18.3824 C   0  0  0  0  0  0  0  0  0  0  0  0
  -23.8107  -30.4498   26.8449 C   0  0  0  0  0  0  0  0  0  0  0  0
  -28.1568  -11.9615   18.7925 C   0  0  0  0  0  0  0  0  0  0  0  0
  -30.5051  -12.4663   19.5941 C   0  0  0  0  0  0  0  0  0  0  0  0
  -28.5850  -13.2652   20.9148 C   0  0  0  0  0  0  0  0  0  0  0  0
  -24.8708  -30.0325   25.8185 C   0  0  1  0  0  0  0  0  0  0  0  0
  -23.2017  -27.8734   23.1755 C   0  0  1  0  0  0  0  0  0  0  0  0
  -27.6319  -13.0716   19.7241 C   0  0  2  0  0  0  0  0  0  0  0  0
  -28.4034  -17.4940   22.9110 C   0  0  0  0  0  0  0  0  0  0  0  0
  -16.4477  -24.3681   21.7264 C   0  0  0  0  0  0  0  0  0  0  0  0
  -20.2765  -26.7563   26.5749 C   0  0  0  0  0  0  0  0  0  0  0  0
  -18.2803  -25.4133   25.8822 C   0  0  0  0  0  0  0  0  0  0  0  0
  -18.4049  -27.8403   25.3193 C   0  0  0  0  0  0  0  0  0  0  0  0
  -30.2925  -21.2245   23.2681 C   0  0  0  0  0  0  0  0  0  0  0  0
  -19.4482  -24.5703   19.3956 C   0  0  0  0  0  0  0  0  0  0  0  0
  -29.6811  -19.3562   24.7528 C   0  0  0  0  0  0  0  0  0  0  0  0
  -27.5413  -21.9697   22.8816 C   0  0  0  0  0  0  0  0  0  1  0  0
  -19.8837  -26.2038   24.0836 C   0  0  1  0  0  0  0  0  0  0  0  0
  -17.7695  -24.9172   21.2123 C   0  0  2  0  0  0  0  0  0  0  0  0
  -19.2373  -26.5468   25.4554 C   0  0  0  0  0  0  0  0  0  0  0  0
  -25.8065  -11.5296   20.3336 N   0  0  0  0  0  0  0  0  0  0  0  0
  -26.2079  -12.8021   20.1731 N   0  0  0  0  0  0  0  0  0  0  0  0
  -22.1784  -26.8563   23.4258 N   0  0  0  0  0  0  0  0  0  0  0  0
  -29.9474  -13.5332   20.4281 N   0  0  0  0  0  0  0  0  0  0  0  0
  -25.4755  -15.0487   20.3373 N   0  0  0  0  0  0  0  0  0  0  0  0
  -21.8263  -12.6730   21.5352 N   0  0  0  0  0  0  0  0  0  0  0  0
  -30.0732  -15.6438   21.4731 N   0  0  0  0  0  0  0  0  0  0  0  0
  -24.2407  -29.5093   24.6253 N   0  0  0  0  0  0  0  0  0  0  0  0
  -18.9245  -26.0267   22.9987 N   0  0  0  0  0  0  0  0  0  0  0  0
  -29.2304  -20.4691   23.9210 N   0  0  0  0  0  0  0  0  0  0  0  0
  -18.1753  -24.1236   20.0180 N   0  3  0  0  0  0  0  0  0  0  0  0
  -22.6440  -14.7897   21.2046 O   0  0  0  0  0  0  0  0  0  0  0  0
  -23.9417  -27.3157   25.3472 O   0  0  0  0  0  0  0  0  0  0  0  0
  -20.4449  -28.4155   23.4355 O   0  0  0  0  0  0  0  0  0  0  0  0
  -26.9602  -20.1651   24.3027 O   0  0  0  0  0  0  0  0  0  0  0  0
  -19.5471  -23.8588   22.4602 O   0  0  0  0  0  0  0  0  0  0  0  0
  -31.8604  -14.8182   20.2460 O   0  0  0  0  0  0  0  0  0  0  0  0
  -21.4549   -7.1212   21.8095 O   0  0  0  0  0  0  0  0  0  0  0  0
  -26.1264  -22.1519   22.8479 O   0  0  0  0  0  0  0  0  0  1  0  0
  -23.7615   -3.1180   24.8191 F   0  0  0  0  0  0  0  0  0  0  0  0
  -20.3483   -6.3424   24.2203 F   0  0  0  0  0  0  0  0  0  0  0  0
  1  2  1  0  0  0  0
  1  6  2  0  0  0  0
  2  7  2  0  0  0  0
  3  9  2  0  0  0  0
  3 10  1  0  0  0  0
  4 11  2  0  0  0  0
  4 18  1  0  0  0  0
  5 12  1  0  0  0  0
  5 18  2  0  0  0  0
  6 20  1  0  0  0  0
  7 22  1  0  0  0  0
  8 13  2  0  0  0  0
  8 21  1  0  0  0  0
  9 24  1  0  0  0  0
 10 26  2  0  0  0  0
 11 27  1  0  0  0  0
 12 27  2  0  0  0  0
 13 28  1  0  0  0  0
 14 15  2  0  0  0  0
 14 29  1  0  0  0  0
 15 30  1  0  0  0  0
 16 23  1  0  0  0  0
 16 28  2  0  0  0  0
 17 30  2  0  0  0  0
 17 31  1  0  0  0  0
 18 32  1  0  0  0  0
 19 32  1  0  0  0  0
 19 33  2  0  0  0  0
 19 34  1  0  0  0  0
 20 22  2  0  0  0  0
 20 40  1  0  0  0  0
 21 23  2  0  0  0  0
 21 41  1  0  0  0  0
 22 49  1  0  0  0  0
 23 42  1  0  0  0  0
 24 25  2  0  0  0  0
 24 59  1  0  0  0  0
 25 26  1  0  0  0  0
 25 52  1  0  0  0  0
 26 70  1  0  0  0  0
 27 81  1  0  0  0  0
 28 82  1  0  0  0  0
 29 31  2  0  0  0  0
 29 81  1  0  0  0  0
 30 83  1  0  0  0  0
 31 84  1  0  0  0  0
 32 64  2  0  0  0  0
 33 65  1  0  0  0  0
 33 68  1  0  0  0  0
 34 69  1  0  0  0  0
 34 75  2  0  0  0  0
 35 50  1  0  0  0  0
 35 71  1  0  0  0  0
 35 76  2  0  0  0  0
 36 61  1  0  0  0  0
 36 66  1  0  0  0  0
 36 77  2  0  0  0  0
 37 60  1  0  0  0  0
 37 73  1  0  0  0  0
 37 78  2  0  0  0  0
 38 62  1  0  0  0  0
 38 72  1  0  0  0  0
 38 79  2  0  0  0  0
 39 67  1  0  0  0  0
 39 70  1  0  0  0  0
 39 80  2  0  0  0  0
 40 43  1  0  0  0  0
 41 50  1  0  0  0  0
 42 66  1  0  0  0  0
 43 45  1  0  0  0  0
 44 46  1  0  0  0  0
 44 47  1  0  0  0  0
 45 49  1  0  0  0  0
 46 51  1  0  0  0  0
 47 67  1  0  0  0  0
 48 51  1  0  0  0  0
 48 67  1  0  0  0  0
 49 71  1  0  0  0  0
 50 66  1  0  0  0  0
 51 65  1  0  0  0  0
 53 62  1  0  0  0  0
 54 63  1  0  0  0  0
 55 63  1  0  0  0  0
 56 63  1  0  0  0  0
 57 73  1  0  0  0  0
 58 74  1  0  0  0  0
 59 73  1  0  0  0  0
 60 82  1  0  0  0  0
 61 63  1  0  0  0  0
 61 72  1  0  0  0  0
 62 74  1  0  0  0  0
 64 65  1  0  0  0  0
M  CHG  1  74   1
M  ISO  4  39 100  60 101  70 100  82 101
M  END
> <Batch ID>
0047

> <Smiles>
CNC(C)C(=O)NC(C(=O)N1Cc2cc([101O:1][101CH2:1]C(=O)N(C)Cc3cccc([100NH:0][100C:0](=O)N4CCCC(n5nc(-c6ccc(Oc7ccc(F)cc7F)cc6)c(C(N)=O)c5N)C4)c3C)ccc2CC1C(=O)NC1CCCc2ccccc21)C(C)(C)C

> <Shape>
0.278

> <Color>
0.202

> <Negative vol penalty>
0.000

$$$$

  -OEChem-04042322263D

 87 95  0     1  0  0  0  0  0999 V2000
  -18.8732  -30.8562   23.6433 C   0  0  0  0  0  0  0  0  0  0  0  0
  -20.2340  -30.6539   23.4366 C   0  0  0  0  0  0  0  0  0  0  0  0
  -24.8065  -14.1050   21.8828 C   0  0  0  0  0  0  0  0  0  0  0  0
  -26.9234  -13.7730   20.7667 C   0  0  0  0  0  0  0  0  0  0  0  0
  -17.9791  -29.7999   23.4741 C   0  0  0  0  0  0  0  0  0  0  0  0
  -20.7016  -29.3949   23.0614 C   0  0  0  0  0  0  0  0  0  0  0  0
  -25.4056  -28.1749   19.3345 C   0  0  0  0  0  0  0  0  0  0  0  0
  -24.2743  -13.0123   21.1984 C   0  0  0  0  0  0  0  0  0  0  0  0
  -26.3912  -12.6803   20.0823 C   0  0  0  0  0  0  0  0  0  0  0  0
  -26.7345  -27.8337   19.5822 C   0  0  0  0  0  0  0  0  0  0  0  0
  -22.4657  -10.0895   20.0146 C   0  0  0  0  0  0  0  0  0  0  0  0
  -21.7090   -9.1730   20.7446 C   0  0  0  0  0  0  0  0  0  0  0  0
  -26.1739  -25.4998   19.3410 C   0  0  0  0  0  0  0  0  0  0  0  0
  -31.4680  -22.3702   20.0869 C   0  0  0  0  0  0  0  0  0  0  0  0
  -31.9618  -20.1472   19.2797 C   0  0  0  0  0  0  0  0  0  0  0  0
  -23.6168   -8.7228   22.1569 C   0  0  0  0  0  0  0  0  0  0  0  0
  -26.1311  -14.4854   21.6669 C   0  0  0  0  0  0  0  0  0  0  0  0
  -27.3362  -15.6007   23.6192 C   0  0  0  0  0  0  0  0  0  0  0  0
  -18.4348  -28.5297   23.0872 C   0  0  0  0  0  0  0  0  0  0  0  0
  -24.4471  -27.1788   19.0986 C   0  0  0  0  0  0  0  0  0  0  0  0
  -19.8128  -28.3203   22.8881 C   0  0  0  0  0  0  0  0  0  0  0  0
  -24.8340  -25.8312   19.0881 C   0  0  0  0  0  0  0  0  0  0  0  0
  -32.8201  -22.7019   20.0006 C   0  0  0  0  0  0  0  0  0  0  0  0
  -33.3139  -20.4789   19.1934 C   0  0  0  0  0  0  0  0  0  0  0  0
  -33.7430  -21.7563   19.5538 C   0  0  0  0  0  0  0  0  0  0  0  0
  -31.0389  -21.0928   19.7265 C   0  0  0  0  0  0  0  0  0  0  0  0
  -25.0667  -12.2999   20.2982 C   0  0  0  0  0  0  0  0  0  0  0  0
  -27.1183  -26.4959   19.5884 C   0  0  0  0  0  0  0  0  0  0  0  0
  -23.7980  -10.3227   20.3556 C   0  0  0  0  0  0  0  0  0  0  0  0
  -22.2845   -8.4897   21.8158 C   0  0  0  0  0  0  0  0  0  0  0  0
  -24.3735   -9.6393   21.4268 C   0  0  0  0  0  0  0  0  0  0  0  0
  -26.6812  -15.6144   22.3731 C   0  0  0  0  0  0  0  0  0  0  0  0
  -27.6644  -16.9144   23.8490 C   0  0  0  0  0  0  0  0  0  0  0  0
  -27.6225  -14.4989   24.4908 C   0  0  0  0  0  0  0  0  0  0  0  0
  -21.7834  -26.2389   20.5563 C   0  0  0  0  0  0  0  0  0  0  0  0
  -21.5110  -24.3059   17.9656 C   0  0  0  0  0  0  0  0  0  0  0  0
  -31.2252  -25.5486   20.5125 C   0  0  0  0  0  0  0  0  0  0  0  0
  -23.0509  -22.6707   15.3962 C   0  0  0  0  0  0  0  0  0  0  0  0
  -28.6193  -21.5760   20.2348 C   0  0  0  0  0  0  0  0  0  0  0  0
  -17.4356  -27.4069   22.9626 C   0  0  0  0  0  0  0  0  0  0  0  0
  -23.0229  -27.5648   18.8066 C   0  0  0  0  0  0  0  0  0  0  0  0
  -23.8475  -24.7250   18.8203 C   0  0  0  0  0  0  0  0  0  0  0  0
  -17.9702  -26.1977   22.1995 C   0  0  0  0  0  0  0  0  0  0  0  0
  -26.2119  -21.3671   22.8498 C   0  0  0  0  0  0  0  0  0  0  0  0
  -19.3654  -25.8288   22.6935 C   0  0  0  0  0  0  0  0  0  0  0  0
  -26.1232  -19.8675   23.1419 C   0  0  0  0  0  0  0  0  0  0  0  0
  -26.4047  -21.6443   21.3599 C   0  0  0  0  0  0  0  0  0  0  0  0
  -27.4389  -19.4330   21.0283 C   0  0  0  0  0  0  0  0  0  0  0  0
  -20.3557  -26.9754   22.4564 C   0  0  1  0  0  0  0  0  0  0  0  0
  -22.0298  -26.4415   19.0880 C   0  0  1  0  0  0  0  0  0  0  0  0
  -27.3096  -19.1018   22.5241 C   0  0  2  0  0  0  0  0  0  0  0  0
  -35.1928  -22.1123   19.4608 C   0  0  0  0  0  0  0  0  0  0  0  0
  -22.5713  -21.1392   13.4670 C   0  0  0  0  0  0  0  0  0  0  0  0
  -21.2247  -21.9633   19.8996 C   0  0  0  0  0  0  0  0  0  0  0  0
  -21.7033  -20.4178   17.9889 C   0  0  0  0  0  0  0  0  0  0  0  0
  -19.6860  -21.8839   17.9297 C   0  0  0  0  0  0  0  0  0  0  0  0
  -32.2954  -24.6522   22.5915 C   0  0  0  0  0  0  0  0  0  0  0  0
  -24.0431  -24.6476   13.4298 C   0  0  0  0  0  0  0  0  0  0  0  0
  -33.2562  -24.0834   20.3951 C   0  0  0  0  0  0  0  0  0  0  0  0
  -34.2817  -19.4481   18.7118 C   0  0  0  0  0  0  0  0  0  0  0  0
  -30.2142  -26.2268   21.4314 C   0  0  0  0  0  0  0  0  0  0  0  0
  -29.1644  -27.0317   20.6757 C   0  0  0  0  0  0  0  0  0  1  0  0
  -21.9747  -22.9118   17.6184 C   0  0  1  0  0  0  0  0  0  0  0  0
  -22.7225  -22.5841   13.9166 C   0  0  2  0  0  0  0  0  0  0  0  0
  -21.1656  -21.8147   18.3662 C   0  0  0  0  0  0  0  0  0  0  0  0
  -26.5972  -16.8397   21.8482 N   0  0  0  0  0  0  0  0  0  0  0  0
  -27.2036  -17.6082   22.7689 N   0  0  0  0  0  0  0  0  0  0  0  0
  -22.4657  -25.1527   18.5464 N   0  0  0  0  0  0  0  0  0  0  0  0
  -27.5486  -20.8887   20.8447 N   0  0  0  0  0  0  0  0  0  0  0  0
  -28.2992  -17.5323   24.8677 N   0  0  0  0  0  0  0  0  0  0  0  0
  -27.2151  -13.2156   24.1015 N   0  0  0  0  0  0  0  0  0  0  0  0
  -29.6653  -20.7559   19.8130 N   0  0  0  0  0  0  0  0  0  0  0  0
  -20.7604  -27.0146   21.0674 N   0  0  0  0  0  0  0  0  0  0  0  0
  -21.9144  -22.8120   16.1642 N   0  0  0  0  0  0  0  0  0  0  0  0
  -32.2193  -24.7915   21.1424 N   0  0  0  0  0  0  0  0  0  0  0  0
  -23.8027  -23.2172   13.1084 N   0  3  0  0  0  0  0  0  0  0  0  0
  -28.2072  -14.6503   25.5903 O   0  0  0  0  0  0  0  0  0  0  0  0
  -22.4696  -25.4370   21.1791 O   0  0  0  0  0  0  0  0  0  0  0  0
  -20.3467  -24.6338   17.7236 O   0  0  0  0  0  0  0  0  0  0  0  0
  -31.1451  -25.6777   19.2881 O   0  0  0  0  0  0  0  0  0  0  0  0
  -24.2003  -22.6147   15.8278 O   0  0  0  0  0  0  0  0  0  0  0  0
  -28.6212  -22.8045   20.1213 O   0  0  0  0  0  0  0  0  0  0  0  0
  -24.5477  -11.2335   19.6304 O   0  0  0  0  0  0  0  0  0  0  0  0
  -28.4146  -26.1600   19.8305 O   0  0  0  0  0  0  0  0  0  1  0  0
  -21.5573   -7.6107   22.5177 F   0  0  0  0  0  0  0  0  0  0  0  0
  -25.6526   -9.8600   21.7600 F   0  0  0  0  0  0  0  0  0  0  0  0
  -33.7123  -18.2111   18.7423 F   0  0  0  0  0  0  0  0  0  0  0  0
  1  2  1  0  0  0  0
  1  5  2  0  0  0  0
  2  6  2  0  0  0  0
  3  8  2  0  0  0  0
  3 17  1  0  0  0  0
  4  9  1  0  0  0  0
  4 17  2  0  0  0  0
  5 19  1  0  0  0  0
  6 21  1  0  0  0  0
  7 10  2  0  0  0  0
  7 20  1  0  0  0  0
  8 27  1  0  0  0  0
  9 27  2  0  0  0  0
 10 28  1  0  0  0  0
 11 12  2  0  0  0  0
 11 29  1  0  0  0  0
 12 30  1  0  0  0  0
 13 22  1  0  0  0  0
 13 28  2  0  0  0  0
 14 23  1  0  0  0  0
 14 26  2  0  0  0  0
 15 24  2  0  0  0  0
 15 26  1  0  0  0  0
 16 30  2  0  0  0  0
 16 31  1  0  0  0  0
 17 32  1  0  0  0  0
 18 32  1  0  0  0  0
 18 33  2  0  0  0  0
 18 34  1  0  0  0  0
 19 21  2  0  0  0  0
 19 40  1  0  0  0  0
 20 22  2  0  0  0  0
 20 41  1  0  0  0  0
 21 49  1  0  0  0  0
 22 42  1  0  0  0  0
 23 25  2  0  0  0  0
 23 59  1  0  0  0  0
 24 25  1  0  0  0  0
 24 60  1  0  0  0  0
 25 52  1  0  0  0  0
 26 72  1  0  0  0  0
 27 83  1  0  0  0  0
 28 84  1  0  0  0  0
 29 31  2  0  0  0  0
 29 83  1  0  0  0  0
 30 85  1  0  0  0  0
 31 86  1  0  0  0  0
 32 66  2  0  0  0  0
 33 67  1  0  0  0  0
 33 70  1  0  0  0  0
 34 71  1  0  0  0  0
 34 77  2  0  0  0  0
 35 50  1  0  0  0  0
 35 73  1  0  0  0  0
 35 78  2  0  0  0  0
 36 63  1  0  0  0  0
 36 68  1  0  0  0  0
 36 79  2  0  0  0  0
 37 61  1  0  0  0  0
 37 75  1  0  0  0  0
 37 80  2  0  0  0  0
 38 64  1  0  0  0  0
 38 74  1  0  0  0  0
 38 81  2  0  0  0  0
 39 69  1  0  0  0  0
 39 72  1  0  0  0  0
 39 82  2  0  0  0  0
 40 43  1  0  0  0  0
 41 50  1  0  0  0  0
 42 68  1  0  0  0  0
 43 45  1  0  0  0  0
 44 46  1  0  0  0  0
 44 47  1  0  0  0  0
 45 49  1  0  0  0  0
 46 51  1  0  0  0  0
 47 69  1  0  0  0  0
 48 51  1  0  0  0  0
 48 69  1  0  0  0  0
 49 73  1  0  0  0  0
 50 68  1  0  0  0  0
 51 67  1  0  0  0  0
 53 64  1  0  0  0  0
 54 65  1  0  0  0  0
 55 65  1  0  0  0  0
 56 65  1  0  0  0  0
 57 75  1  0  0  0  0
 58 76  1  0  0  0  0
 59 75  1  0  0  0  0
 60 87  1  0  0  0  0
 61 62  1  0  0  0  0
 62 84  1  0  0  0  0
 63 65  1  0  0  0  0
 63 74  1  0  0  0  0
 64 76  1  0  0  0  0
 66 67  1  0  0  0  0
M  CHG  1  76   1
M  ISO  4  39 100  62 101  72 100  84 101
M  END
> <Batch ID>
0047

> <Smiles>
CNC(C)C(=O)NC(C(=O)N1Cc2cc([101O:1][101CH2:1]CC(=O)N(C)Cc3cc([100NH:0][100C:0](=O)N4CCCC(n5nc(-c6ccc(Oc7ccc(F)cc7F)cc6)c(C(N)=O)c5N)C4)cc(CF)c3C)ccc2CC1C(=O)NC1CCCc2ccccc21)C(C)(C)C

> <Shape>
0.218

> <Color>
0.076

> <Negative vol penalty>
0.000

$$$$

  -OEChem-04042322263D

 87 95  0     1  0  0  0  0  0999 V2000
  -30.1271  -23.9481   19.3490 C   0  0  0  0  0  0  0  0  0  0  0  0
  -28.8681  -24.0974   19.9217 C   0  0  0  0  0  0  0  0  0  0  0  0
  -26.8323  -16.9819   20.3535 C   0  0  0  0  0  0  0  0  0  0  0  0
  -24.6652  -16.0708   20.9109 C   0  0  0  0  0  0  0  0  0  0  0  0
  -31.1807  -24.7623   19.7624 C   0  0  0  0  0  0  0  0  0  0  0  0
  -28.6622  -25.0603   20.9090 C   0  0  0  0  0  0  0  0  0  0  0  0
  -24.3959  -27.6934   20.1951 C   0  0  0  0  0  0  0  0  0  0  0  0
  -27.4200  -15.7445   20.6160 C   0  0  0  0  0  0  0  0  0  0  0  0
  -25.2529  -14.8334   21.1733 C   0  0  0  0  0  0  0  0  0  0  0  0
  -23.1990  -27.0768   20.5571 C   0  0  0  0  0  0  0  0  0  0  0  0
  -29.4423  -12.7288   20.7914 C   0  0  0  0  0  0  0  0  0  0  0  0
  -30.3832  -12.2512   19.8792 C   0  0  0  0  0  0  0  0  0  0  0  0
  -23.1869  -28.3255   22.6210 C   0  0  0  0  0  0  0  0  0  0  0  0
  -19.0430  -19.6459   25.3127 C   0  0  0  0  0  0  0  0  0  0  0  0
  -17.1524  -18.6243   24.2085 C   0  0  0  0  0  0  0  0  0  0  0  0
  -28.7124  -12.2915   18.1346 C   0  0  0  0  0  0  0  0  0  0  0  0
  -25.4548  -17.1451   20.5010 C   0  0  0  0  0  0  0  0  0  0  0  0
  -17.7386  -20.9179   23.7260 C   0  0  0  0  0  0  0  0  0  0  0  0
  -24.3386  -18.8793   18.9996 C   0  0  0  0  0  0  0  0  0  0  0  0
  -30.9853  -25.7422   20.7484 C   0  0  0  0  0  0  0  0  0  0  0  0
  -25.0039  -28.6242   21.0498 C   0  0  0  0  0  0  0  0  0  0  0  0
  -29.7145  -25.8875   21.3370 C   0  0  0  0  0  0  0  0  0  0  0  0
  -24.3902  -28.9544   22.2665 C   0  0  0  0  0  0  0  0  0  0  0  0
  -18.2174  -18.5409   25.1055 C   0  0  0  0  0  0  0  0  0  0  0  0
  -18.8035  -20.8345   24.6229 C   0  0  0  0  0  0  0  0  0  0  0  0
  -26.6304  -14.6702   21.0259 C   0  0  0  0  0  0  0  0  0  0  0  0
  -22.5958  -27.3906   21.7715 C   0  0  0  0  0  0  0  0  0  0  0  0
  -28.1364  -12.9877   20.3752 C   0  0  0  0  0  0  0  0  0  0  0  0
  -30.0183  -12.0326   18.5508 C   0  0  0  0  0  0  0  0  0  0  0  0
  -27.7714  -12.7691   19.0468 C   0  0  0  0  0  0  0  0  0  0  0  0
  -16.9130  -19.8129   23.5188 C   0  0  0  0  0  0  0  0  0  0  0  0
  -24.8471  -18.4233   20.2305 C   0  0  0  0  0  0  0  0  0  0  0  0
  -23.8747  -20.1441   19.2671 C   0  0  0  0  0  0  0  0  0  0  0  0
  -17.5103  -22.1479   23.0282 C   0  0  0  0  0  0  0  0  0  0  0  0
  -18.0250  -22.4350   21.8217 C   0  0  0  0  0  0  0  0  0  0  0  0
  -24.2898  -18.2187   17.7280 C   0  0  0  0  0  0  0  0  0  0  0  0
  -27.7800  -28.7752   22.5907 C   0  0  0  0  0  0  0  0  0  0  0  0
  -26.7565  -31.7604   23.3411 C   0  0  0  0  0  0  0  0  0  0  0  0
  -19.5671  -25.2947   21.7316 C   0  0  0  0  0  0  0  0  0  0  0  0
  -24.1345  -33.9044   23.7597 C   0  0  0  0  0  0  0  0  0  0  0  0
  -21.9776  -22.8160   24.2784 C   0  0  0  0  0  0  0  0  0  0  0  0
  -32.1660  -26.5668   21.1964 C   0  0  0  0  0  0  0  0  0  0  0  0
  -26.2811  -29.3003   20.6327 C   0  0  0  0  0  0  0  0  0  0  0  0
  -24.9919  -29.9620   23.2104 C   0  0  0  0  0  0  0  0  0  0  0  0
  -31.7738  -27.8159   21.9814 C   0  0  0  0  0  0  0  0  0  0  0  0
  -24.6360  -23.8773   22.1610 C   0  0  0  0  0  0  0  0  0  0  0  0
  -30.7283  -27.4756   23.0387 C   0  0  0  0  0  0  0  0  0  0  0  0
  -24.9456  -22.6410   21.3151 C   0  0  0  0  0  0  0  0  0  0  0  0
  -24.2568  -23.5016   23.5918 C   0  0  0  0  0  0  0  0  0  0  0  0
  -23.4718  -21.2834   22.8590 C   0  0  0  0  0  0  0  0  0  0  0  0
  -29.4457  -26.9374   22.3931 C   0  0  1  0  0  0  0  0  0  0  0  0
  -27.0781  -29.8511   21.8112 C   0  0  1  0  0  0  0  0  0  0  0  0
  -23.8051  -21.6083   21.3928 C   0  0  2  0  0  0  0  0  0  0  0  0
  -18.4737  -17.2701   25.8430 C   0  0  0  0  0  0  0  0  0  0  0  0
  -23.6088  -36.2695   24.4132 C   0  0  0  0  0  0  0  0  0  0  0  0
  -27.2530  -31.0592   26.2688 C   0  0  0  0  0  0  0  0  0  0  0  0
  -25.8522  -33.0338   26.9069 C   0  0  0  0  0  0  0  0  0  0  0  0
  -27.9596  -33.3673   25.6146 C   0  0  0  0  0  0  0  0  0  0  0  0
  -22.9099  -34.4820   21.1280 C   0  0  0  0  0  0  0  0  0  0  0  0
  -19.7129  -21.9949   24.8750 C   0  0  0  0  0  0  0  0  0  0  0  0
  -17.7504  -23.7172   21.1019 C   0  0  0  0  0  0  0  0  0  0  0  0
  -20.8758  -25.8475   21.2089 C   0  0  0  0  0  0  0  0  0  1  0  0
  -25.9456  -32.3620   24.4634 C   0  0  1  0  0  0  0  0  0  0  0  0
  -23.9011  -35.3195   23.2623 C   0  0  2  0  0  0  0  0  0  0  0  0
  -26.7420  -32.4351   25.7967 C   0  0  0  0  0  0  0  0  0  0  0  0
  -24.7187  -19.3250   21.2074 N   0  0  0  0  0  0  0  0  0  0  0  0
  -24.1242  -20.3605   20.5904 N   0  0  0  0  0  0  0  0  0  0  0  0
  -26.2445  -30.5913   22.7606 N   0  0  0  0  0  0  0  0  0  0  0  0
  -23.1689  -22.5206   23.5954 N   0  0  0  0  0  0  0  0  0  0  0  0
  -23.2819  -21.0812   18.4972 N   0  0  0  0  0  0  0  0  0  0  0  0
  -24.8105  -16.9213   17.6287 N   0  0  0  0  0  0  0  0  0  0  0  0
  -28.6639  -28.0229   21.8408 N   0  0  0  0  0  0  0  0  0  0  0  0
  -19.0027  -24.3903   20.8458 N   0  0  0  0  0  0  0  0  0  0  0  0
  -25.4727  -33.6540   23.9782 N   0  0  0  0  0  0  0  0  0  0  0  0
  -20.9953  -21.8346   24.2265 N   0  0  0  0  0  0  0  0  0  0  0  0
  -22.7470  -35.3536   22.3200 N   0  3  0  0  0  0  0  0  0  0  0  0
  -23.8138  -18.7690   16.7062 O   0  0  0  0  0  0  0  0  0  0  0  0
  -27.5386  -28.6386   23.7843 O   0  0  0  0  0  0  0  0  0  0  0  0
  -27.8019  -32.3116   22.9875 O   0  0  0  0  0  0  0  0  0  0  0  0
  -19.0895  -25.6283   22.8126 O   0  0  0  0  0  0  0  0  0  0  0  0
  -23.2207  -33.1026   23.9402 O   0  0  0  0  0  0  0  0  0  0  0  0
  -21.8004  -23.8780   24.8848 O   0  0  0  0  0  0  0  0  0  0  0  0
  -27.2036  -13.4625   21.2819 O   0  0  0  0  0  0  0  0  0  0  0  0
  -21.4278  -26.7898   22.1275 O   0  0  0  0  0  0  0  0  0  1  0  0
  -30.9224  -11.5754   17.6745 F   0  0  0  0  0  0  0  0  0  0  0  0
  -26.5186  -13.0171   18.6409 F   0  0  0  0  0  0  0  0  0  0  0  0
  -15.5776  -19.8563   22.4195 Cl  0  0  0  0  0  0  0  0  0  0  0  0
  1  2  1  0  0  0  0
  1  5  2  0  0  0  0
  2  6  2  0  0  0  0
  3  8  2  0  0  0  0
  3 17  1  0  0  0  0
  4  9  1  0  0  0  0
  4 17  2  0  0  0  0
  5 20  1  0  0  0  0
  6 22  1  0  0  0  0
  7 10  2  0  0  0  0
  7 21  1  0  0  0  0
  8 26  1  0  0  0  0
  9 26  2  0  0  0  0
 10 27  1  0  0  0  0
 11 12  2  0  0  0  0
 11 28  1  0  0  0  0
 12 29  1  0  0  0  0
 13 23  1  0  0  0  0
 13 27  2  0  0  0  0
 14 24  2  0  0  0  0
 14 25  1  0  0  0  0
 15 24  1  0  0  0  0
 15 31  2  0  0  0  0
 16 29  2  0  0  0  0
 16 30  1  0  0  0  0
 17 32  1  0  0  0  0
 18 25  2  0  0  0  0
 18 31  1  0  0  0  0
 18 34  1  0  0  0  0
 19 32  1  0  0  0  0
 19 33  2  0  0  0  0
 19 36  1  0  0  0  0
 20 22  2  0  0  0  0
 20 42  1  0  0  0  0
 21 23  2  0  0  0  0
 21 43  1  0  0  0  0
 22 51  1  0  0  0  0
 23 44  1  0  0  0  0
 24 54  1  0  0  0  0
 25 60  1  0  0  0  0
 26 83  1  0  0  0  0
 27 84  1  0  0  0  0
 28 30  2  0  0  0  0
 28 83  1  0  0  0  0
 29 85  1  0  0  0  0
 30 86  1  0  0  0  0
 31 87  1  0  0  0  0
 32 66  2  0  0  0  0
 33 67  1  0  0  0  0
 33 70  1  0  0  0  0
 34 35  2  0  0  0  0
 35 61  1  0  0  0  0
 36 71  1  0  0  0  0
 36 77  2  0  0  0  0
 37 52  1  0  0  0  0
 37 72  1  0  0  0  0
 37 78  2  0  0  0  0
 38 63  1  0  0  0  0
 38 68  1  0  0  0  0
 38 79  2  0  0  0  0
 39 62  1  0  0  0  0
 39 73  1  0  0  0  0
 39 80  2  0  0  0  0
 40 64  1  0  0  0  0
 40 74  1  0  0  0  0
 40 81  2  0  0  0  0
 41 69  1  0  0  0  0
 41 75  1  0  0  0  0
 41 82  2  0  0  0  0
 42 45  1  0  0  0  0
 43 52  1  0  0  0  0
 44 68  1  0  0  0  0
 45 47  1  0  0  0  0
 46 48  1  0  0  0  0
 46 49  1  0  0  0  0
 47 51  1  0  0  0  0
 48 53  1  0  0  0  0
 49 69  1  0  0  0  0
 50 53  1  0  0  0  0
 50 69  1  0  0  0  0
 51 72  1  0  0  0  0
 52 68  1  0  0  0  0
 53 67  1  0  0  0  0
 55 64  1  0  0  0  0
 56 65  1  0  0  0  0
 57 65  1  0  0  0  0
 58 65  1  0  0  0  0
 59 76  1  0  0  0  0
 60 75  1  0  0  0  0
 61 73  1  0  0  0  0
 62 84  1  0  0  0  0
 63 65  1  0  0  0  0
 63 74  1  0  0  0  0
 64 76  1  0  0  0  0
 66 67  1  0  0  0  0
M  CHG  1  76   1
M  ISO  4  41 100  62 101  75 100  84 101
M  END
> <Batch ID>
0047

> <Smiles>
CNC(C)C(=O)NC(C(=O)N1Cc2cc([101O:1][101CH2:1]C(=O)NCC=Cc3c(Cl)cc(C)cc3C[100NH:0][100C:0](=O)N3CCCC(n4nc(-c5ccc(Oc6ccc(F)cc6F)cc5)c(C(N)=O)c4N)C3)ccc2CC1C(=O)NC1CCCc2ccccc21)C(C)(C)C

> <Shape>
0.225

> <Color>
0.046

> <Negative vol penalty>
0.000

$$$$

  -OEChem-04042322263D

 84 92  0     1  0  0  0  0  0999 V2000
  -22.5837  -25.8432   24.9080 C   0  0  0  0  0  0  0  0  0  0  0  0
  -22.6823  -24.5019   24.5520 C   0  0  0  0  0  0  0  0  0  0  0  0
  -27.3843  -11.9501   18.1388 C   0  0  0  0  0  0  0  0  0  0  0  0
  -28.9964  -26.7447   17.9587 C   0  0  0  0  0  0  0  0  0  0  0  0
  -28.6386  -26.2770   20.3018 C   0  0  0  0  0  0  0  0  0  0  0  0
  -21.8225  -26.7153   24.1308 C   0  0  0  0  0  0  0  0  0  0  0  0
  -22.0189  -24.0317   23.4192 C   0  0  0  0  0  0  0  0  0  0  0  0
  -24.9238  -21.0052   20.5826 C   0  0  0  0  0  0  0  0  0  0  0  0
  -27.2842  -12.3398   19.4744 C   0  0  0  0  0  0  0  0  0  0  0  0
  -28.3793  -27.9861   18.1122 C   0  0  0  0  0  0  0  0  0  0  0  0
  -28.0215  -27.5184   20.4554 C   0  0  0  0  0  0  0  0  0  0  0  0
  -25.0927  -19.6922   21.0198 C   0  0  0  0  0  0  0  0  0  0  0  0
  -25.0029  -28.8970   19.8086 C   0  0  0  0  0  0  0  0  0  0  0  0
  -23.8134  -28.9439   20.5356 C   0  0  0  0  0  0  0  0  0  0  0  0
  -28.1880  -12.6753   17.2591 C   0  0  0  0  0  0  0  0  0  0  0  0
  -23.4257  -18.9576   19.4386 C   0  0  0  0  0  0  0  0  0  0  0  0
  -24.8376  -30.4597   22.1136 C   0  0  0  0  0  0  0  0  0  0  0  0
  -29.1261  -25.8901   19.0535 C   0  0  0  0  0  0  0  0  0  0  0  0
  -31.1315  -24.3134   19.0459 C   0  0  0  0  0  0  0  0  0  0  0  0
  -21.1573  -26.2576   22.9825 C   0  0  0  0  0  0  0  0  0  0  0  0
  -23.9952  -21.3063   19.5760 C   0  0  0  0  0  0  0  0  0  0  0  0
  -21.2470  -24.8983   22.6267 C   0  0  0  0  0  0  0  0  0  0  0  0
  -23.2487  -20.2749   18.9886 C   0  0  0  0  0  0  0  0  0  0  0  0
  -27.9878  -13.4546   19.9303 C   0  0  0  0  0  0  0  0  0  0  0  0
  -28.7915  -14.1798   19.0505 C   0  0  0  0  0  0  0  0  0  0  0  0
  -27.8918  -28.3730   19.3606 C   0  0  0  0  0  0  0  0  0  0  0  0
  -24.3415  -18.6685   20.4499 C   0  0  0  0  0  0  0  0  0  0  0  0
  -26.1098  -29.6314   20.2341 C   0  0  0  0  0  0  0  0  0  0  0  0
  -23.7307  -29.7252   21.6881 C   0  0  0  0  0  0  0  0  0  0  0  0
  -26.0271  -30.4128   21.3866 C   0  0  0  0  0  0  0  0  0  0  0  0
  -28.8916  -13.7901   17.7149 C   0  0  0  0  0  0  0  0  0  0  0  0
  -29.7630  -24.6073   18.8954 C   0  0  0  0  0  0  0  0  0  0  0  0
  -31.2234  -22.9667   18.7919 C   0  0  0  0  0  0  0  0  0  0  0  0
  -32.2221  -25.1802   19.3850 C   0  0  0  0  0  0  0  0  0  0  0  0
  -21.3689  -23.0890   19.4073 C   0  0  0  0  0  0  0  0  0  0  0  0
  -21.5205  -22.3222   16.2591 C   0  0  0  0  0  0  0  0  0  0  0  0
  -26.0810  -15.5621   21.0757 C   0  0  0  0  0  0  0  0  0  0  0  0
  -22.6118  -20.1626   13.8525 C   0  0  0  0  0  0  0  0  0  0  0  0
  -29.4245  -17.8523   19.5361 C   0  0  0  0  0  0  0  0  0  0  0  0
  -20.3078  -27.2279   22.2004 C   0  0  0  0  0  0  0  0  0  0  0  0
  -23.8441  -22.7241   19.0969 C   0  0  0  0  0  0  0  0  0  0  0  0
  -22.2532  -20.5426   17.8906 C   0  0  0  0  0  0  0  0  0  0  0  0
  -19.9408  -26.7288   20.8052 C   0  0  0  0  0  0  0  0  0  0  0  0
  -27.8299  -19.7341   16.8878 C   0  0  0  0  0  0  0  0  0  0  0  0
  -19.4596  -25.2825   20.8651 C   0  0  0  0  0  0  0  0  0  0  0  0
  -28.3098  -21.1543   17.1924 C   0  0  0  0  0  0  0  0  0  0  0  0
  -27.5514  -18.9575   18.1713 C   0  0  0  0  0  0  0  0  0  0  0  0
  -29.1826  -20.3163   19.4230 C   0  0  0  0  0  0  0  0  0  0  0  0
  -20.5621  -24.3556   21.3912 C   0  0  1  0  0  0  0  0  0  0  0  0
  -22.5004  -22.9874   18.4240 C   0  0  1  0  0  0  0  0  0  0  0  0
  -29.5029  -21.1459   18.1663 C   0  0  2  0  0  0  0  0  0  0  0  0
  -22.5476  -19.7801   11.3732 C   0  0  0  0  0  0  0  0  0  0  0  0
  -18.6395  -21.3438   16.4871 C   0  0  0  0  0  0  0  0  0  0  0  0
  -18.9515  -20.1356   14.3165 C   0  0  0  0  0  0  0  0  0  0  0  0
  -19.1451  -22.6213   14.3974 C   0  0  0  0  0  0  0  0  0  0  0  0
  -25.5572  -20.3480   13.6306 C   0  0  0  0  0  0  0  0  0  0  0  0
  -27.8613  -13.8510   21.3728 C   0  0  0  0  0  0  0  0  0  0  0  0
  -29.5399  -15.3737   19.5560 C   0  0  0  0  0  0  0  0  0  0  0  0
  -25.7955  -17.0213   21.3600 C   0  0  0  0  0  0  0  0  0  1  0  0
  -20.9790  -21.2019   15.4043 C   0  0  1  0  0  0  0  0  0  0  0  0
  -23.3161  -20.4014   12.5291 C   0  0  2  0  0  0  0  0  0  0  0  0
  -19.4460  -21.3205   15.1733 C   0  0  0  0  0  0  0  0  0  0  0  0
  -29.0377  -23.5338   18.5708 N   0  0  0  0  0  0  0  0  0  0  0  0
  -29.9538  -22.5521   18.5152 N   0  0  0  0  0  0  0  0  0  0  0  0
  -22.1369  -21.9460   17.4609 N   0  0  0  0  0  0  0  0  0  0  0  0
  -28.7324  -18.9722   19.0460 N   0  0  0  0  0  0  0  0  0  0  0  0
  -32.2655  -22.1086   18.7805 N   0  0  0  0  0  0  0  0  0  0  0  0
  -31.9516  -26.5362   19.6136 N   0  0  0  0  0  0  0  0  0  0  0  0
  -21.5323  -24.0839   20.3523 N   0  0  0  0  0  0  0  0  0  0  0  0
  -27.3394  -15.1899   21.5218 N   0  0  0  0  0  0  0  0  0  0  0  0
  -21.7700  -21.2049   14.1785 N   0  0  0  0  0  0  0  0  0  0  0  0
  -28.9301  -16.6164   19.1377 N   0  0  0  0  0  0  0  0  0  0  0  0
  -24.6838  -19.8101   12.5560 N   0  3  0  0  0  0  0  0  0  0  0  0
  -33.4039  -24.7676   19.4663 O   0  0  0  0  0  0  0  0  0  0  0  0
  -20.4172  -22.3225   19.3146 O   0  0  0  0  0  0  0  0  0  0  0  0
  -21.4073  -23.4877   15.8713 O   0  0  0  0  0  0  0  0  0  0  0  0
  -25.2751  -14.8245   20.5149 O   0  0  0  0  0  0  0  0  0  0  0  0
  -22.7878  -19.1507   14.5276 O   0  0  0  0  0  0  0  0  0  0  0  0
  -30.4139  -17.9468   20.2704 O   0  0  0  0  0  0  0  0  0  0  0  0
  -27.2897  -29.5844   19.5109 O   0  0  0  0  0  0  0  0  0  0  0  0
  -24.5040  -17.3861   20.8752 O   0  0  0  0  0  0  0  0  0  1  0  0
  -22.5879  -29.7714   22.3852 F   0  0  0  0  0  0  0  0  0  0  0  0
  -27.0868  -31.1214   21.7997 F   0  0  0  0  0  0  0  0  0  0  0  0
  -29.8752  -14.6603   16.5941 Cl  0  0  0  0  0  0  0  0  0  0  0  0
  1  2  1  0  0  0  0
  1  6  2  0  0  0  0
  2  7  2  0  0  0  0
  3  9  2  0  0  0  0
  3 15  1  0  0  0  0
  4 10  2  0  0  0  0
  4 18  1  0  0  0  0
  5 11  1  0  0  0  0
  5 18  2  0  0  0  0
  6 20  1  0  0  0  0
  7 22  1  0  0  0  0
  8 12  2  0  0  0  0
  8 21  1  0  0  0  0
  9 24  1  0  0  0  0
 10 26  1  0  0  0  0
 11 26  2  0  0  0  0
 12 27  1  0  0  0  0
 13 14  2  0  0  0  0
 13 28  1  0  0  0  0
 14 29  1  0  0  0  0
 15 31  2  0  0  0  0
 16 23  1  0  0  0  0
 16 27  2  0  0  0  0
 17 29  2  0  0  0  0
 17 30  1  0  0  0  0
 18 32  1  0  0  0  0
 19 32  1  0  0  0  0
 19 33  2  0  0  0  0
 19 34  1  0  0  0  0
 20 22  2  0  0  0  0
 20 40  1  0  0  0  0
 21 23  2  0  0  0  0
 21 41  1  0  0  0  0
 22 49  1  0  0  0  0
 23 42  1  0  0  0  0
 24 25  2  0  0  0  0
 24 57  1  0  0  0  0
 25 31  1  0  0  0  0
 25 58  1  0  0  0  0
 26 80  1  0  0  0  0
 27 81  1  0  0  0  0
 28 30  2  0  0  0  0
 28 80  1  0  0  0  0
 29 82  1  0  0  0  0
 30 83  1  0  0  0  0
 31 84  1  0  0  0  0
 32 63  2  0  0  0  0
 33 64  1  0  0  0  0
 33 67  1  0  0  0  0
 34 68  1  0  0  0  0
 34 74  2  0  0  0  0
 35 50  1  0  0  0  0
 35 69  1  0  0  0  0
 35 75  2  0  0  0  0
 36 60  1  0  0  0  0
 36 65  1  0  0  0  0
 36 76  2  0  0  0  0
 37 59  1  0  0  0  0
 37 70  1  0  0  0  0
 37 77  2  0  0  0  0
 38 61  1  0  0  0  0
 38 71  1  0  0  0  0
 38 78  2  0  0  0  0
 39 66  1  0  0  0  0
 39 72  1  0  0  0  0
 39 79  2  0  0  0  0
 40 43  1  0  0  0  0
 41 50  1  0  0  0  0
 42 65  1  0  0  0  0
 43 45  1  0  0  0  0
 44 46  1  0  0  0  0
 44 47  1  0  0  0  0
 45 49  1  0  0  0  0
 46 51  1  0  0  0  0
 47 66  1  0  0  0  0
 48 51  1  0  0  0  0
 48 66  1  0  0  0  0
 49 69  1  0  0  0  0
 50 65  1  0  0  0  0
 51 64  1  0  0  0  0
 52 61  1  0  0  0  0
 53 62  1  0  0  0  0
 54 62  1  0  0  0  0
 55 62  1  0  0  0  0
 56 73  1  0  0  0  0
 57 70  1  0  0  0  0
 58 72  1  0  0  0  0
 59 81  1  0  0  0  0
 60 62  1  0  0  0  0
 60 71  1  0  0  0  0
 61 73  1  0  0  0  0
 63 64  1  0  0  0  0
M  CHG  1  73   1
M  ISO  4  39 100  59 101  72 100  81 101
M  END
> <Batch ID>
0047

> <Smiles>
CNC(C)C(=O)NC(C(=O)N1Cc2cc([101O:1][101CH2:1]C(=O)NCc3cccc(Cl)c3C[100NH:0][100C:0](=O)N3CCCC(n4nc(-c5ccc(Oc6ccc(F)cc6F)cc5)c(C(N)=O)c4N)C3)ccc2CC1C(=O)NC1CCCc2ccccc21)C(C)(C)C

> <Shape>
0.216

> <Color>
0.064

> <Negative vol penalty>
0.000

$$$$

  -OEChem-04042322263D

 85 93  0     1  0  0  0  0  0999 V2000
  -19.7640  -23.1126   23.5131 C   0  0  0  0  0  0  0  0  0  0  0  0
  -20.5079  -23.7266   22.5105 C   0  0  0  0  0  0  0  0  0  0  0  0
  -25.3089  -13.1878   21.9621 C   0  0  0  0  0  0  0  0  0  0  0  0
  -26.3387  -13.3481   19.7824 C   0  0  0  0  0  0  0  0  0  0  0  0
  -19.5720  -23.7601   24.7328 C   0  0  0  0  0  0  0  0  0  0  0  0
  -21.0593  -24.9889   22.7268 C   0  0  0  0  0  0  0  0  0  0  0  0
  -25.8584  -25.3101   21.1423 C   0  0  0  0  0  0  0  0  0  0  0  0
  -29.3569  -20.9582   15.6874 C   0  0  0  0  0  0  0  0  0  0  0  0
  -29.2671  -20.3912   16.9586 C   0  0  0  0  0  0  0  0  0  0  0  0
  -24.3831  -12.2746   21.4576 C   0  0  0  0  0  0  0  0  0  0  0  0
  -25.4129  -12.4348   19.2779 C   0  0  0  0  0  0  0  0  0  0  0  0
  -26.0678  -25.4613   19.7723 C   0  0  0  0  0  0  0  0  0  0  0  0
  -24.2990   -8.9852   20.6794 C   0  0  0  0  0  0  0  0  0  0  0  0
  -24.0349   -7.8442   21.4371 C   0  0  0  0  0  0  0  0  0  0  0  0
  -28.2396  -22.4143   17.7883 C   0  0  0  0  0  0  0  0  0  0  0  0
  -26.4033  -27.8288   20.0910 C   0  0  0  0  0  0  0  0  0  0  0  0
  -21.7096   -8.4825   21.5878 C   0  0  0  0  0  0  0  0  0  0  0  0
  -26.2867  -13.7246   21.1245 C   0  0  0  0  0  0  0  0  0  0  0  0
  -28.3295  -22.9813   16.5171 C   0  0  0  0  0  0  0  0  0  0  0  0
  -28.4970  -14.3807   22.2161 C   0  0  0  0  0  0  0  0  0  0  0  0
  -20.1294  -25.0268   24.9677 C   0  0  0  0  0  0  0  0  0  0  0  0
  -25.9092  -26.4207   21.9970 C   0  0  0  0  0  0  0  0  0  0  0  0
  -20.8734  -25.6545   23.9504 C   0  0  0  0  0  0  0  0  0  0  0  0
  -26.1967  -27.6886   21.4718 C   0  0  0  0  0  0  0  0  0  0  0  0
  -28.8882  -22.2533   15.4666 C   0  0  0  0  0  0  0  0  0  0  0  0
  -28.7084  -21.1193   18.0091 C   0  0  0  0  0  0  0  0  0  0  0  0
  -24.4351  -11.8981   20.1155 C   0  0  0  0  0  0  0  0  0  0  0  0
  -26.3374  -26.7212   19.2460 C   0  0  0  0  0  0  0  0  0  0  0  0
  -23.2684   -9.8749   20.3760 C   0  0  0  0  0  0  0  0  0  0  0  0
  -22.7402   -7.5929   21.8913 C   0  0  0  0  0  0  0  0  0  0  0  0
  -21.9737   -9.6235   20.8301 C   0  0  0  0  0  0  0  0  0  0  0  0
  -27.2429  -14.6685   21.6449 C   0  0  0  0  0  0  0  0  0  0  0  0
  -29.0127  -15.6094   22.5491 C   0  0  0  0  0  0  0  0  0  0  0  0
  -27.8286  -24.3502   16.3045 C   0  0  0  0  0  0  0  0  0  0  0  0
  -29.1385  -13.1159   22.4266 C   0  0  0  0  0  0  0  0  0  0  0  0
  -23.8350  -27.8640   23.9253 C   0  0  0  0  0  0  0  0  0  0  0  0
  -26.4317  -29.6165   24.7667 C   0  0  0  0  0  0  0  0  0  0  0  0
  -29.5224  -30.7997   23.9334 C   0  0  0  0  0  0  0  0  0  0  0  0
  -28.0911  -21.1280   20.4515 C   0  0  0  0  0  0  0  0  0  0  0  0
  -19.8550  -25.7078   26.2851 C   0  0  0  0  0  0  0  0  0  0  0  0
  -25.7075  -26.2367   23.4761 C   0  0  0  0  0  0  0  0  0  0  0  0
  -26.2823  -28.9097   22.3494 C   0  0  0  0  0  0  0  0  0  0  0  0
  -20.7875  -26.8825   26.5694 C   0  0  0  0  0  0  0  0  0  0  0  0
  -27.6525  -20.0251   23.8083 C   0  0  0  0  0  0  0  0  0  0  0  0
  -20.9073  -27.7785   25.3408 C   0  0  0  0  0  0  0  0  0  0  0  0
  -27.6179  -18.4999   23.6872 C   0  0  0  0  0  0  0  0  0  0  0  0
  -26.9643  -20.7037   22.6252 C   0  0  0  0  0  0  0  0  0  0  0  0
  -27.4100  -18.7577   21.1817 C   0  0  0  0  0  0  0  0  0  0  0  0
  -21.5084  -27.0127   24.1560 C   0  0  1  0  0  0  0  0  0  0  0  0
  -25.2738  -27.5167   24.1838 C   0  0  1  0  0  0  0  0  0  0  0  0
  -28.1480  -18.0311   22.3179 C   0  0  2  0  0  0  0  0  0  0  0  0
  -28.9947  -22.8381   14.0964 C   0  0  0  0  0  0  0  0  0  0  0  0
  -31.3831  -32.2379   24.8091 C   0  0  0  0  0  0  0  0  0  0  0  0
  -24.5404  -27.6730   16.8290 C   0  0  0  0  0  0  0  0  0  0  0  0
  -24.7950  -32.1133   24.1368 C   0  0  0  0  0  0  0  0  0  0  0  0
  -26.9303  -33.4200   24.1037 C   0  0  0  0  0  0  0  0  0  0  0  0
  -26.2001  -32.2799   26.1989 C   0  0  0  0  0  0  0  0  0  0  0  0
  -25.5743  -23.4746   15.7359 C   0  0  0  0  0  0  0  0  0  0  0  0
  -31.4473  -28.5527   23.8650 C   0  0  0  0  0  0  0  0  0  0  0  0
  -26.0642  -25.9517   15.7442 C   0  0  0  0  0  0  0  0  0  0  0  0
  -27.0664  -30.8932   24.2705 C   0  0  1  0  0  0  0  0  0  0  0  0
  -30.8320  -30.8246   24.7008 C   0  0  2  0  0  0  0  0  0  0  0  0
  -25.4745  -26.4897   17.0420 C   0  0  1  0  0  0  0  0  0  1  0  0
  -26.2445  -32.1541   24.6604 C   0  0  0  0  0  0  0  0  0  0  0  0
  -26.9779  -15.9772   21.6154 N   0  0  0  0  0  0  0  0  0  0  0  0
  -28.0726  -16.5228   22.1722 N   0  0  0  0  0  0  0  0  0  0  0  0
  -26.0713  -28.6793   23.7881 N   0  0  0  0  0  0  0  0  0  0  0  0
  -27.5208  -20.2137   21.3623 N   0  0  0  0  0  0  0  0  0  0  0  0
  -30.1740  -15.9867   23.1247 N   0  0  0  0  0  0  0  0  0  0  0  0
  -28.4687  -11.9520   22.0254 N   0  0  0  0  0  0  0  0  0  0  0  0
  -28.6173  -20.5428   19.3003 N   0  0  0  0  0  0  0  0  0  0  0  0
  -22.9413  -26.8836   24.3123 N   0  0  0  0  0  0  0  0  0  0  0  0
  -28.4349  -30.8920   24.7760 N   0  0  0  0  0  0  0  0  0  0  0  0
  -26.5408  -24.5837   15.9393 N   0  0  0  0  0  0  0  0  0  0  0  0
  -28.7267  -25.3224   16.4817 N   0  3  0  0  0  0  0  0  0  0  0  0
  -31.8484  -29.9748   24.0184 N   0  3  0  0  0  0  0  0  0  0  0  0
  -30.2651  -13.0195   22.9699 O   0  0  0  0  0  0  0  0  0  0  0  0
  -23.5561  -28.9422   23.4140 O   0  0  0  0  0  0  0  0  0  0  0  0
  -26.2684  -29.4536   25.9785 O   0  0  0  0  0  0  0  0  0  0  0  0
  -29.4695  -30.7111   22.7087 O   0  0  0  0  0  0  0  0  0  0  0  0
  -28.1356  -22.3379   20.6886 O   0  0  0  0  0  0  0  0  0  0  0  0
  -23.5321  -11.0068   19.6230 O   0  0  0  0  0  0  0  0  0  0  0  0
  -26.5416  -26.8717   17.9090 O   0  0  0  0  0  0  0  0  0  1  0  0
  -22.4865   -6.4964   22.6175 F   0  0  0  0  0  0  0  0  0  0  0  0
  -20.9793  -10.4740   20.5407 F   0  0  0  0  0  0  0  0  0  0  0  0
  1  2  1  0  0  0  0
  1  5  2  0  0  0  0
  2  6  2  0  0  0  0
  3 10  2  0  0  0  0
  3 18  1  0  0  0  0
  4 11  1  0  0  0  0
  4 18  2  0  0  0  0
  5 21  1  0  0  0  0
  6 23  1  0  0  0  0
  7 12  2  0  0  0  0
  7 22  1  0  0  0  0
  8  9  2  0  0  0  0
  8 25  1  0  0  0  0
  9 26  1  0  0  0  0
 10 27  1  0  0  0  0
 11 27  2  0  0  0  0
 12 28  1  0  0  0  0
 13 14  2  0  0  0  0
 13 29  1  0  0  0  0
 14 30  1  0  0  0  0
 15 19  1  0  0  0  0
 15 26  2  0  0  0  0
 16 24  1  0  0  0  0
 16 28  2  0  0  0  0
 17 30  2  0  0  0  0
 17 31  1  0  0  0  0
 18 32  1  0  0  0  0
 19 25  2  0  0  0  0
 19 34  1  0  0  0  0
 20 32  1  0  0  0  0
 20 33  2  0  0  0  0
 20 35  1  0  0  0  0
 21 23  2  0  0  0  0
 21 40  1  0  0  0  0
 22 24  2  0  0  0  0
 22 41  1  0  0  0  0
 23 49  1  0  0  0  0
 24 42  1  0  0  0  0
 25 52  1  0  0  0  0
 26 71  1  0  0  0  0
 27 82  1  0  0  0  0
 28 83  1  0  0  0  0
 29 31  2  0  0  0  0
 29 82  1  0  0  0  0
 30 84  1  0  0  0  0
 31 85  1  0  0  0  0
 32 65  2  0  0  0  0
 33 66  1  0  0  0  0
 33 69  1  0  0  0  0
 34 74  1  0  0  0  0
 34 75  2  0  0  0  0
 35 70  1  0  0  0  0
 35 77  2  0  0  0  0
 36 50  1  0  0  0  0
 36 72  1  0  0  0  0
 36 78  2  0  0  0  0
 37 61  1  0  0  0  0
 37 67  1  0  0  0  0
 37 79  2  0  0  0  0
 38 62  1  0  0  0  0
 38 73  1  0  0  0  0
 38 80  2  0  0  0  0
 39 68  1  0  0  0  0
 39 71  1  0  0  0  0
 39 81  2  0  0  0  0
 40 43  1  0  0  0  0
 41 50  1  0  0  0  0
 42 67  1  0  0  0  0
 43 45  1  0  0  0  0
 44 46  1  0  0  0  0
 44 47  1  0  0  0  0
 45 49  1  0  0  0  0
 46 51  1  0  0  0  0
 47 68  1  0  0  0  0
 48 51  1  0  0  0  0
 48 68  1  0  0  0  0
 49 72  1  0  0  0  0
 50 67  1  0  0  0  0
 51 66  1  0  0  0  0
 53 62  1  0  0  0  0
 54 63  1  0  0  0  0
 55 64  1  0  0  0  0
 56 64  1  0  0  0  0
 57 64  1  0  0  0  0
 58 74  1  0  0  0  0
 59 76  1  0  0  0  0
 60 63  1  0  0  0  0
 60 74  1  0  0  0  0
 61 64  1  0  0  0  0
 61 73  1  0  0  0  0
 62 76  1  0  0  0  0
 63 83  1  0  0  0  0
 65 66  1  0  0  0  0
M  CHG  2  75   1  76   1
M  ISO  4  39 100  63 101  71 100  83 101
M  END
> <Batch ID>
0047

> <Smiles>
CNC(C)C(=O)NC(C(=O)N1Cc2cc([101O:1][101CH:1](C)CN(C)C(=N)c3cc([100NH:0][100C:0](=O)N4CCCC(n5nc(-c6ccc(Oc7ccc(F)cc7F)cc6)c(C(N)=O)c5N)C4)ccc3C)ccc2CC1C(=O)NC1CCCc2ccccc21)C(C)(C)C

> <Shape>
0.206

> <Color>
0.055

> <Negative vol penalty>
0.000

$$$$

  -OEChem-04042322263D

 88 97  0     1  0  0  0  0  0999 V2000
  -28.9900  -36.6303   25.6579 C   0  0  0  0  0  0  0  0  0  0  0  0
  -28.8712  -35.2650   25.8974 C   0  0  0  0  0  0  0  0  0  0  0  0
  -23.8958  -11.2282   23.7093 C   0  0  0  0  0  0  0  0  0  0  0  0
  -24.9361   -9.8242   22.0408 C   0  0  0  0  0  0  0  0  0  0  0  0
  -27.9047  -37.3454   25.1533 C   0  0  0  0  0  0  0  0  0  0  0  0
  -27.6665  -34.6143   25.6333 C   0  0  0  0  0  0  0  0  0  0  0  0
  -28.3254  -30.2111   23.2203 C   0  0  0  0  0  0  0  0  0  0  0  0
  -29.9302  -21.3401   21.9556 C   0  0  0  0  0  0  0  0  0  0  0  0
  -29.8666  -20.0093   21.5426 C   0  0  0  0  0  0  0  0  0  0  0  0
  -23.5119  -10.0939   24.4245 C   0  0  0  0  0  0  0  0  0  0  0  0
  -24.5522   -8.6898   22.7561 C   0  0  0  0  0  0  0  0  0  0  0  0
  -28.7381  -29.1212   23.9856 C   0  0  0  0  0  0  0  0  0  0  0  0
  -21.7473   -6.8549   23.1988 C   0  0  0  0  0  0  0  0  0  0  0  0
  -21.1926   -5.7942   22.4827 C   0  0  0  0  0  0  0  0  0  0  0  0
  -26.4645  -28.3181   24.0570 C   0  0  0  0  0  0  0  0  0  0  0  0
  -27.5176  -21.4646   21.9260 C   0  0  0  0  0  0  0  0  0  0  0  0
  -22.9770   -4.3511   23.2381 C   0  0  0  0  0  0  0  0  0  0  0  0
  -24.6079  -11.0934   22.5174 C   0  0  0  0  0  0  0  0  0  0  0  0
  -24.1613  -13.2518   21.2332 C   0  0  0  0  0  0  0  0  0  0  0  0
  -26.6891  -36.7012   24.8738 C   0  0  0  0  0  0  0  0  0  0  0  0
  -26.9751  -30.3687   22.8763 C   0  0  0  0  0  0  0  0  0  0  0  0
  -26.5635  -35.3217   25.1257 C   0  0  0  0  0  0  0  0  0  0  0  0
  -26.0377  -29.4095   23.2851 C   0  0  0  0  0  0  0  0  0  0  0  0
  -28.7557  -22.0677   22.1474 C   0  0  0  0  0  0  0  0  0  0  0  0
  -27.4540  -20.1338   21.5129 C   0  0  0  0  0  0  0  0  0  0  0  0
  -28.6286  -19.4062   21.3212 C   0  0  0  0  0  0  0  0  0  0  0  0
  -23.8401   -8.8247   23.9479 C   0  0  0  0  0  0  0  0  0  0  0  0
  -27.8072  -28.1760   24.4065 C   0  0  0  0  0  0  0  0  0  0  0  0
  -22.9168   -6.6638   23.9345 C   0  0  0  0  0  0  0  0  0  0  0  0
  -21.8075   -4.5423   22.5023 C   0  0  0  0  0  0  0  0  0  0  0  0
  -23.5317   -5.4119   23.9542 C   0  0  0  0  0  0  0  0  0  0  0  0
  -25.0043  -12.2647   21.7779 C   0  0  0  0  0  0  0  0  0  0  0  0
  -25.0180  -14.1425   20.6340 C   0  0  0  0  0  0  0  0  0  0  0  0
  -29.2607  -25.0490   24.4078 C   0  0  0  0  0  0  0  0  0  0  0  0
  -32.9228  -25.3032   24.5054 C   0  0  0  0  0  0  0  0  0  0  0  0
  -30.4936  -25.5601   24.5599 C   0  0  0  0  0  0  0  0  0  0  0  0
  -31.6953  -24.7937   24.3538 C   0  0  0  0  0  0  0  0  0  0  0  0
  -22.7315  -13.3544   21.2660 C   0  0  0  0  0  0  0  0  0  0  0  0
  -24.7517  -32.5626   23.4652 C   0  0  0  0  0  0  0  0  0  0  0  0
  -22.9941  -30.7702   21.4107 C   0  0  0  0  0  0  0  0  0  0  0  0
  -22.4386  -27.2596   20.7909 C   0  0  0  0  0  0  0  0  0  0  0  0
  -29.6677  -17.2055   20.6703 C   0  0  0  0  0  0  0  0  0  0  0  0
  -25.5291  -37.5252   24.3737 C   0  0  0  0  0  0  0  0  0  0  0  0
  -26.5503  -31.5357   22.0277 C   0  0  0  0  0  0  0  0  0  0  0  0
  -24.5795  -29.5220   22.9252 C   0  0  0  0  0  0  0  0  0  0  0  0
  -24.4046  -36.6893   23.7678 C   0  0  0  0  0  0  0  0  0  0  0  0
  -29.9749  -13.8033   19.6667 C   0  0  0  0  0  0  0  0  0  0  0  0
  -26.8986  -23.5915   25.1256 C   0  0  0  0  0  0  0  0  0  0  0  0
  -24.0724  -35.5062   24.6716 C   0  0  0  0  0  0  0  0  0  0  0  0
  -27.0460  -25.0472   25.5539 C   0  0  0  0  0  0  0  0  0  0  0  0
  -28.6398  -13.1809   20.0816 C   0  0  0  0  0  0  0  0  0  0  0  0
  -30.4516  -14.8474   20.6747 C   0  0  0  0  0  0  0  0  0  0  0  0
  -28.1383  -15.2733   21.4073 C   0  0  0  0  0  0  0  0  0  0  0  0
  -28.2565  -22.9107   24.9890 C   0  0  0  0  0  0  0  0  0  0  0  0
  -25.2809  -34.5755   24.8286 C   0  0  1  0  0  0  0  0  0  0  0  0
  -27.9733  -25.8152   24.6132 C   0  0  1  0  0  0  0  0  0  1  0  0
  -25.0686  -31.8699   22.1700 C   0  0  1  0  0  0  0  0  0  0  0  0
  -27.5855  -14.2622   20.3896 C   0  0  2  0  0  0  0  0  0  0  0  0
  -26.1141  -19.5142   21.2804 C   0  0  0  0  0  0  0  0  0  0  0  0
  -21.7720  -26.0592   18.6904 C   0  0  0  0  0  0  0  0  0  0  0  0
  -20.1558  -31.0552   22.4935 C   0  0  0  0  0  0  0  0  0  0  0  0
  -19.6661  -28.7613   21.6182 C   0  0  0  0  0  0  0  0  0  0  0  0
  -20.2945  -30.5885   20.0405 C   0  0  0  0  0  0  0  0  0  0  0  0
  -24.7892  -25.4668   20.9313 C   0  0  0  0  0  0  0  0  0  0  0  0
  -28.8243  -23.4998   22.5894 C   0  0  0  0  0  0  0  0  0  0  0  0
  -22.0613  -29.5914   21.5492 C   0  0  1  0  0  0  0  0  0  0  0  0
  -22.9259  -26.4594   19.5965 C   0  0  2  0  0  0  0  0  0  0  0  0
  -20.5658  -30.0033   21.4436 C   0  0  0  0  0  0  0  0  0  0  0  0
  -26.2974  -12.5053   21.5452 N   0  0  0  0  0  0  0  0  0  0  0  0
  -26.2732  -13.6537   20.8475 N   0  0  0  0  0  0  0  0  0  0  0  0
  -24.2124  -30.6841   22.0993 N   0  0  0  0  0  0  0  0  0  0  0  0
  -29.4027  -15.8412   20.9137 N   0  0  0  0  0  0  0  0  0  0  0  0
  -24.8125  -15.2884   19.9504 N   0  0  0  0  0  0  0  0  0  0  0  0
  -22.0047  -12.3529   21.9242 N   0  0  0  0  0  0  0  0  0  0  0  0
  -28.5851  -18.0534   20.9018 N   0  0  0  0  0  0  0  0  0  0  0  0
  -25.4375  -33.7476   23.6519 N   0  0  0  0  0  0  0  0  0  0  0  0
  -22.4845  -28.6164   20.5497 N   0  0  0  0  0  0  0  0  0  0  0  0
  -29.1745  -23.6514   24.0442 N   0  3  1  0  0  0  0  0  0  0  0  0
  -23.6184  -25.2204   20.0507 N   0  3  0  0  0  0  0  0  0  0  0  0
  -22.1158  -14.2974   20.7136 O   0  0  0  0  0  0  0  0  0  0  0  0
  -23.9436  -32.0599   24.2372 O   0  0  0  0  0  0  0  0  0  0  0  0
  -22.6573  -31.7290   20.7114 O   0  0  0  0  0  0  0  0  0  0  0  0
  -22.0521  -26.7335   21.8322 O   0  0  0  0  0  0  0  0  0  0  0  0
  -30.7653  -17.5900   20.2588 O   0  0  0  0  0  0  0  0  0  0  0  0
  -23.4658   -7.7176   24.6456 O   0  0  0  0  0  0  0  0  0  0  0  0
  -28.2072  -27.1116   25.1540 O   0  0  0  0  0  0  0  0  0  1  0  0
  -21.2739   -3.5234   21.8158 F   0  0  0  0  0  0  0  0  0  0  0  0
  -24.6548   -5.2219   24.6601 F   0  0  0  0  0  0  0  0  0  0  0  0
  1  2  1  0  0  0  0
  1  5  2  0  0  0  0
  2  6  2  0  0  0  0
  3 10  2  0  0  0  0
  3 18  1  0  0  0  0
  4 11  1  0  0  0  0
  4 18  2  0  0  0  0
  5 20  1  0  0  0  0
  6 22  1  0  0  0  0
  7 12  2  0  0  0  0
  7 21  1  0  0  0  0
  8  9  2  0  0  0  0
  8 24  1  0  0  0  0
  9 26  1  0  0  0  0
 10 27  1  0  0  0  0
 11 27  2  0  0  0  0
 12 28  1  0  0  0  0
 13 14  2  0  0  0  0
 13 29  1  0  0  0  0
 14 30  1  0  0  0  0
 15 23  1  0  0  0  0
 15 28  2  0  0  0  0
 16 24  2  0  0  0  0
 16 25  1  0  0  0  0
 17 30  2  0  0  0  0
 17 31  1  0  0  0  0
 18 32  1  0  0  0  0
 19 32  1  0  0  0  0
 19 33  2  0  0  0  0
 19 38  1  0  0  0  0
 20 22  2  0  0  0  0
 20 43  1  0  0  0  0
 21 23  2  0  0  0  0
 21 44  1  0  0  0  0
 22 55  1  0  0  0  0
 23 45  1  0  0  0  0
 24 65  1  0  0  0  0
 25 26  2  0  0  0  0
 25 59  1  0  0  0  0
 26 75  1  0  0  0  0
 27 85  1  0  0  0  0
 28 86  1  0  0  0  0
 29 31  2  0  0  0  0
 29 85  1  0  0  0  0
 30 87  1  0  0  0  0
 31 88  1  0  0  0  0
 32 69  2  0  0  0  0
 33 70  1  0  0  0  0
 33 73  1  0  0  0  0
 34 36  2  0  0  0  0
 34 56  1  0  0  0  0
 34 78  1  0  0  0  0
 35 37  2  0  0  0  0
 36 37  1  0  0  0  0
 38 74  1  0  0  0  0
 38 80  2  0  0  0  0
 39 57  1  0  0  0  0
 39 76  1  0  0  0  0
 39 81  2  0  0  0  0
 40 66  1  0  0  0  0
 40 71  1  0  0  0  0
 40 82  2  0  0  0  0
 41 67  1  0  0  0  0
 41 77  1  0  0  0  0
 41 83  2  0  0  0  0
 42 72  1  0  0  0  0
 42 75  1  0  0  0  0
 42 84  2  0  0  0  0
 43 46  1  0  0  0  0
 44 57  1  0  0  0  0
 45 71  1  0  0  0  0
 46 49  1  0  0  0  0
 47 51  1  0  0  0  0
 47 52  1  0  0  0  0
 48 50  1  0  0  0  0
 48 54  1  0  0  0  0
 49 55  1  0  0  0  0
 50 56  1  0  0  0  0
 51 58  1  0  0  0  0
 52 72  1  0  0  0  0
 53 58  1  0  0  0  0
 53 72  1  0  0  0  0
 54 78  1  0  0  0  0
 55 76  1  0  0  0  0
 56 86  1  0  0  0  0
 57 71  1  0  0  0  0
 58 70  1  0  0  0  0
 60 67  1  0  0  0  0
 61 68  1  0  0  0  0
 62 68  1  0  0  0  0
 63 68  1  0  0  0  0
 64 79  1  0  0  0  0
 65 78  1  0  0  0  0
 66 68  1  0  0  0  0
 66 77  1  0  0  0  0
 67 79  1  0  0  0  0
 69 70  1  0  0  0  0
M  CHG  2  78   1  79   1
M  ISO  4  42 100  56 101  75 100  86 101
M  END
> <Batch ID>
0047

> <Smiles>
C=CC=C1N(Cc2ccc([100NH:0][100C:0](=O)N3CCCC(n4nc(-c5ccc(Oc6ccc(F)cc6F)cc5)c(C(N)=O)c4N)C3)c(C)c2)CCC[101CH:1]1[101O:1]c1ccc2c(c1)CN(C(=O)C(NC(=O)C(C)NC)C(C)(C)C)C(C(=O)NC1CCCc3ccccc31)C2

> <Shape>
0.296

> <Color>
0.119

> <Negative vol penalty>
0.000

$$$$

  -OEChem-04042322263D

 81 89  0     1  0  0  0  0  0999 V2000
  -18.3039  -29.5332   26.2897 C   0  0  0  0  0  0  0  0  0  0  0  0
  -19.2223  -28.5396   25.9661 C   0  0  0  0  0  0  0  0  0  0  0  0
  -26.4676  -12.7682   21.6457 C   0  0  0  0  0  0  0  0  0  0  0  0
  -25.9779  -13.8307   19.5319 C   0  0  0  0  0  0  0  0  0  0  0  0
  -17.9578  -30.4961   25.3426 C   0  0  0  0  0  0  0  0  0  0  0  0
  -19.7944  -28.5077   24.6949 C   0  0  0  0  0  0  0  0  0  0  0  0
  -25.8847  -26.7538   21.3559 C   0  0  0  0  0  0  0  0  0  0  0  0
  -29.2236  -23.7717   17.2412 C   0  0  0  0  0  0  0  0  0  0  0  0
  -30.4256  -23.3501   17.8095 C   0  0  0  0  0  0  0  0  0  0  0  0
  -25.2310  -12.1240   21.6085 C   0  0  0  0  0  0  0  0  0  0  0  0
  -24.7412  -13.1865   19.4946 C   0  0  0  0  0  0  0  0  0  0  0  0
  -26.3447  -25.9832   20.2890 C   0  0  0  0  0  0  0  0  0  0  0  0
  -23.8640   -9.4436   20.0658 C   0  0  0  0  0  0  0  0  0  0  0  0
  -23.8298   -8.0870   20.3882 C   0  0  0  0  0  0  0  0  0  0  0  0
  -25.7311  -27.7451   18.7598 C   0  0  0  0  0  0  0  0  0  0  0  0
  -22.3208   -8.5593   22.2150 C   0  0  0  0  0  0  0  0  0  0  0  0
  -26.8411  -13.6216   20.6075 C   0  0  0  0  0  0  0  0  0  0  0  0
  -29.3386  -13.8165   20.1258 C   0  0  0  0  0  0  0  0  0  0  0  0
  -18.5332  -30.4817   24.0622 C   0  0  0  0  0  0  0  0  0  0  0  0
  -25.3335  -28.0235   21.1313 C   0  0  0  0  0  0  0  0  0  0  0  0
  -19.4547  -29.4706   23.7293 C   0  0  0  0  0  0  0  0  0  0  0  0
  -25.2672  -28.5309   19.8258 C   0  0  0  0  0  0  0  0  0  0  0  0
  -28.0266  -23.1530   17.6020 C   0  0  0  0  0  0  0  0  0  0  0  0
  -30.4306  -22.3098   18.7387 C   0  0  0  0  0  0  0  0  0  0  0  0
  -28.0317  -22.1127   18.5312 C   0  0  0  0  0  0  0  0  0  0  0  0
  -29.2337  -21.6911   19.0996 C   0  0  0  0  0  0  0  0  0  0  0  0
  -24.3678  -12.3332   20.5329 C   0  0  0  0  0  0  0  0  0  0  0  0
  -26.2653  -26.4776   18.9904 C   0  0  0  0  0  0  0  0  0  0  0  0
  -23.1267  -10.3581   20.8180 C   0  0  0  0  0  0  0  0  0  0  0  0
  -23.0582   -7.6448   21.4628 C   0  0  0  0  0  0  0  0  0  0  0  0
  -22.3551   -9.9159   21.8926 C   0  0  0  0  0  0  0  0  0  0  0  0
  -28.1181  -14.2877   20.6457 C   0  0  0  0  0  0  0  0  0  0  0  0
  -30.2415  -14.8103   20.4152 C   0  0  0  0  0  0  0  0  0  0  0  0
  -29.6300  -12.5903   19.4424 C   0  0  0  0  0  0  0  0  0  0  0  0
  -22.4884  -29.3528   21.6233 C   0  0  0  0  0  0  0  0  0  0  0  0
  -24.0142  -32.0475   20.6573 C   0  0  0  0  0  0  0  0  0  0  0  0
  -26.5856  -33.4519   18.9073 C   0  0  0  0  0  0  0  0  0  0  0  0
  -29.6834  -20.6833   21.3642 C   0  0  0  0  0  0  0  0  0  0  0  0
  -18.0924  -31.5157   23.0566 C   0  0  0  0  0  0  0  0  0  0  0  0
  -24.8663  -28.8533   22.2956 C   0  0  0  0  0  0  0  0  0  0  0  0
  -24.7027  -29.8963   19.5333 C   0  0  0  0  0  0  0  0  0  0  0  0
  -19.0258  -31.6329   21.8544 C   0  0  0  0  0  0  0  0  0  0  0  0
  -31.0894  -18.2901   23.5942 C   0  0  0  0  0  0  0  0  0  0  0  0
  -19.3769  -30.2501   21.3144 C   0  0  0  0  0  0  0  0  0  0  0  0
  -30.6031  -16.9489   23.0403 C   0  0  0  0  0  0  0  0  0  0  0  0
  -30.0290  -19.3805   23.4519 C   0  0  0  0  0  0  0  0  0  0  0  0
  -29.0046  -18.2088   21.5422 C   0  0  0  0  0  0  0  0  0  0  0  0
  -20.1155  -29.4172   22.3690 C   0  0  1  0  0  0  0  0  0  0  0  0
  -23.8516  -29.9213   21.8992 C   0  0  1  0  0  0  0  0  0  0  0  0
  -30.0624  -17.0949   21.6043 C   0  0  2  0  0  0  0  0  0  0  0  0
  -31.7346  -21.8804   19.3297 C   0  0  0  0  0  0  0  0  0  0  0  0
  -26.7436  -21.4524   18.9127 C   0  0  0  0  0  0  0  0  0  0  0  0
  -27.5494  -35.6793   18.2695 C   0  0  0  0  0  0  0  0  0  0  0  0
  -21.7959  -32.4141   18.5946 C   0  0  0  0  0  0  0  0  0  0  0  0
  -23.2701  -34.0492   17.4024 C   0  0  0  0  0  0  0  0  0  0  0  0
  -22.5190  -34.5195   19.7342 C   0  0  0  0  0  0  0  0  0  0  0  0
  -29.1410  -32.8700   20.2822 C   0  0  0  0  0  0  0  0  0  0  0  0
  -26.7438  -23.6278   16.9728 C   0  0  0  0  0  0  0  0  0  0  0  0
  -24.2518  -32.7237   19.3286 C   0  0  1  0  0  0  0  0  0  0  0  0
  -27.5791  -34.5390   19.2752 C   0  0  2  0  0  0  0  0  0  0  0  0
  -22.9681  -33.4001   18.7700 C   0  0  0  0  0  0  0  0  0  0  0  0
  -28.2319  -15.4874   21.2218 N   0  0  0  0  0  0  0  0  0  0  0  0
  -29.5346  -15.7784   21.0657 N   0  0  0  0  0  0  0  0  0  0  0  0
  -24.2532  -30.6668   20.7045 N   0  0  0  0  0  0  0  0  0  0  0  0
  -29.5669  -19.4641   22.0647 N   0  0  0  0  0  0  0  0  0  0  0  0
  -31.5633  -14.9416   20.1741 N   0  0  0  0  0  0  0  0  0  0  0  0
  -28.5857  -11.6805   19.2279 N   0  0  0  0  0  0  0  0  0  0  0  0
  -29.2413  -20.6335   20.0426 N   0  0  0  0  0  0  0  0  0  0  0  0
  -21.4993  -29.8309   22.4614 N   0  0  0  0  0  0  0  0  0  0  0  0
  -25.3699  -33.6388   19.5305 N   0  0  0  0  0  0  0  0  0  0  0  0
  -25.9736  -24.4671   17.8795 N   0  0  0  0  0  0  0  0  0  1  0  0
  -28.9619  -33.9846   19.3165 N   0  3  0  0  0  0  0  0  0  0  0  0
  -30.7857  -12.3024   19.0486 O   0  0  0  0  0  0  0  0  0  0  0  0
  -22.3443  -28.5417   20.7161 O   0  0  0  0  0  0  0  0  0  0  0  0
  -23.6375  -32.7209   21.6197 O   0  0  0  0  0  0  0  0  0  0  0  0
  -26.8592  -32.5311   18.1405 O   0  0  0  0  0  0  0  0  0  0  0  0
  -30.1669  -21.6896   21.8891 O   0  0  0  0  0  0  0  0  0  0  0  0
  -23.1611  -11.7046   20.4961 O   0  0  0  0  0  0  0  0  0  0  0  0
  -26.7130  -25.7272   17.9471 O   0  0  0  0  0  0  0  0  0  1  0  0
  -23.0242   -6.3418   21.7714 F   0  0  0  0  0  0  0  0  0  0  0  0
  -21.6437  -10.7896   22.6181 F   0  0  0  0  0  0  0  0  0  0  0  0
  1  2  1  0  0  0  0
  1  5  2  0  0  0  0
  2  6  2  0  0  0  0
  3 10  2  0  0  0  0
  3 17  1  0  0  0  0
  4 11  1  0  0  0  0
  4 17  2  0  0  0  0
  5 19  1  0  0  0  0
  6 21  1  0  0  0  0
  7 12  2  0  0  0  0
  7 20  1  0  0  0  0
  8  9  2  0  0  0  0
  8 23  1  0  0  0  0
  9 24  1  0  0  0  0
 10 27  1  0  0  0  0
 11 27  2  0  0  0  0
 12 28  1  0  0  0  0
 13 14  2  0  0  0  0
 13 29  1  0  0  0  0
 14 30  1  0  0  0  0
 15 22  1  0  0  0  0
 15 28  2  0  0  0  0
 16 30  2  0  0  0  0
 16 31  1  0  0  0  0
 17 32  1  0  0  0  0
 18 32  1  0  0  0  0
 18 33  2  0  0  0  0
 18 34  1  0  0  0  0
 19 21  2  0  0  0  0
 19 39  1  0  0  0  0
 20 22  2  0  0  0  0
 20 40  1  0  0  0  0
 21 48  1  0  0  0  0
 22 41  1  0  0  0  0
 23 25  2  0  0  0  0
 23 58  1  0  0  0  0
 24 26  2  0  0  0  0
 24 51  1  0  0  0  0
 25 26  1  0  0  0  0
 25 52  1  0  0  0  0
 26 68  1  0  0  0  0
 27 78  1  0  0  0  0
 28 79  1  0  0  0  0
 29 31  2  0  0  0  0
 29 78  1  0  0  0  0
 30 80  1  0  0  0  0
 31 81  1  0  0  0  0
 32 62  2  0  0  0  0
 33 63  1  0  0  0  0
 33 66  1  0  0  0  0
 34 67  1  0  0  0  0
 34 73  2  0  0  0  0
 35 49  1  0  0  0  0
 35 69  1  0  0  0  0
 35 74  2  0  0  0  0
 36 59  1  0  0  0  0
 36 64  1  0  0  0  0
 36 75  2  0  0  0  0
 37 60  1  0  0  0  0
 37 70  1  0  0  0  0
 37 76  2  0  0  0  0
 38 65  1  0  0  0  0
 38 68  1  0  0  0  0
 38 77  2  0  0  0  0
 39 42  1  0  0  0  0
 40 49  1  0  0  0  0
 41 64  1  0  0  0  0
 42 44  1  0  0  0  0
 43 45  1  0  0  0  0
 43 46  1  0  0  0  0
 44 48  1  0  0  0  0
 45 50  1  0  0  0  0
 46 65  1  0  0  0  0
 47 50  1  0  0  0  0
 47 65  1  0  0  0  0
 48 69  1  0  0  0  0
 49 64  1  0  0  0  0
 50 63  1  0  0  0  0
 53 60  1  0  0  0  0
 54 61  1  0  0  0  0
 55 61  1  0  0  0  0
 56 61  1  0  0  0  0
 57 72  1  0  0  0  0
 58 71  1  0  0  0  0
 59 61  1  0  0  0  0
 59 70  1  0  0  0  0
 60 72  1  0  0  0  0
 62 63  1  0  0  0  0
 71 79  1  0  0  0  0
M  CHG  1  72   1
M  ISO  4  38 100  68 100  71 101  79 101
M  END
> <Batch ID>
0047

> <Smiles>
CNC(C)C(=O)NC(C(=O)N1Cc2cc([101O:1][101NH:1]Cc3ccc(C)c([100NH:0][100C:0](=O)N4CCCC(n5nc(-c6ccc(Oc7ccc(F)cc7F)cc6)c(C(N)=O)c5N)C4)c3C)ccc2CC1C(=O)NC1CCCc2ccccc21)C(C)(C)C

> <Shape>
0.274

> <Color>
0.090

> <Negative vol penalty>
0.000

$$$$

  -OEChem-04042322263D

 87 95  0     1  0  0  0  0  0999 V2000
  -31.2650  -14.0972   22.3908 C   0  0  0  0  0  0  0  0  0  0  0  0
  -30.0425  -14.5687   22.8558 C   0  0  0  0  0  0  0  0  0  0  0  0
  -18.5904  -29.2465   24.2464 C   0  0  0  0  0  0  0  0  0  0  0  0
  -28.4354  -24.6142   19.2551 C   0  0  0  0  0  0  0  0  0  0  0  0
  -26.3464  -23.4587   19.6266 C   0  0  0  0  0  0  0  0  0  0  0  0
  -31.3307  -13.4251   21.1722 C   0  0  0  0  0  0  0  0  0  0  0  0
  -28.8835  -14.3577   22.1081 C   0  0  0  0  0  0  0  0  0  0  0  0
  -23.1691  -16.2571   23.0380 C   0  0  0  0  0  0  0  0  0  0  0  0
  -17.6946  -28.4377   23.5472 C   0  0  0  0  0  0  0  0  0  0  0  0
  -19.9112  -29.3612   23.8127 C   0  0  0  0  0  0  0  0  0  0  0  0
  -29.1361  -23.4655   19.6224 C   0  0  0  0  0  0  0  0  0  0  0  0
  -27.0472  -22.3099   19.9938 C   0  0  0  0  0  0  0  0  0  0  0  0
  -22.3745  -17.3444   22.6773 C   0  0  0  0  0  0  0  0  0  0  0  0
  -28.6815  -19.7895   18.4456 C   0  0  0  0  0  0  0  0  0  0  0  0
  -28.2506  -18.5727   17.9172 C   0  0  0  0  0  0  0  0  0  0  0  0
  -21.4592  -16.0619   20.8507 C   0  0  0  0  0  0  0  0  0  0  0  0
  -27.8531  -17.7432   20.1512 C   0  0  0  0  0  0  0  0  0  0  0  0
  -27.0405  -24.6109   19.2573 C   0  0  0  0  0  0  0  0  0  0  0  0
  -25.8878  -26.1557   17.5862 C   0  0  0  0  0  0  0  0  0  0  0  0
  -30.1734  -13.2171   20.4039 C   0  0  0  0  0  0  0  0  0  0  0  0
  -23.1226  -15.0657   22.2999 C   0  0  0  0  0  0  0  0  0  0  0  0
  -28.9255  -13.6605   20.8871 C   0  0  0  0  0  0  0  0  0  0  0  0
  -22.2522  -14.9601   21.2057 C   0  0  0  0  0  0  0  0  0  0  0  0
  -18.1195  -27.7435   22.4144 C   0  0  0  0  0  0  0  0  0  0  0  0
  -19.4403  -27.8582   21.9807 C   0  0  0  0  0  0  0  0  0  0  0  0
  -20.3361  -28.6670   22.6799 C   0  0  0  0  0  0  0  0  0  0  0  0
  -28.4421  -22.3133   19.9917 C   0  0  0  0  0  0  0  0  0  0  0  0
  -21.5215  -17.2480   21.5818 C   0  0  0  0  0  0  0  0  0  0  0  0
  -28.6983  -19.9832   19.8269 C   0  0  0  0  0  0  0  0  0  0  0  0
  -27.8364  -17.5495   18.7700 C   0  0  0  0  0  0  0  0  0  0  0  0
  -28.2840  -18.9601   20.6797 C   0  0  0  0  0  0  0  0  0  0  0  0
  -26.3160  -25.7974   18.8785 C   0  0  0  0  0  0  0  0  0  0  0  0
  -25.2508  -27.3605   17.7574 C   0  0  0  0  0  0  0  0  0  0  0  0
  -20.0776  -22.2971   19.7812 C   0  0  0  0  0  0  0  0  0  0  0  0
  -20.1744  -23.3635   20.5873 C   0  0  0  0  0  0  0  0  0  0  0  0
  -20.3011  -20.9443   20.2443 C   0  0  0  0  0  0  0  0  0  0  0  0
  -20.2060  -19.8716   19.4434 C   0  0  0  0  0  0  0  0  0  0  0  0
  -26.0510  -25.4616   16.3424 C   0  0  0  0  0  0  0  0  0  0  0  0
  -19.9334  -24.7319   20.0508 C   0  0  0  0  0  0  0  0  0  0  0  0
  -25.2231  -13.4042   20.5879 C   0  0  0  0  0  0  0  0  0  0  0  0
  -22.7971  -11.2578   20.4154 C   0  0  0  0  0  0  0  0  0  0  0  0
  -19.4398  -10.6622   20.5600 C   0  0  0  0  0  0  0  0  0  0  0  0
  -22.5145  -29.9053   22.4202 C   0  0  0  0  0  0  0  0  0  0  0  0
  -30.3005  -12.4766   19.0959 C   0  0  0  0  0  0  0  0  0  0  0  0
  -23.9663  -13.8928   22.7181 C   0  0  0  0  0  0  0  0  0  0  0  0
  -22.1501  -13.6963   20.3927 C   0  0  0  0  0  0  0  0  0  0  0  0
  -29.1053  -12.6907   18.1729 C   0  0  0  0  0  0  0  0  0  0  0  0
  -25.2561  -31.2321   20.5760 C   0  0  0  0  0  0  0  0  0  0  0  0
  -27.8104  -12.4552   18.9360 C   0  0  0  0  0  0  0  0  0  0  0  0
  -25.7963  -30.0229   19.8092 C   0  0  0  0  0  0  0  0  0  0  0  0
  -24.7700  -30.8473   21.9722 C   0  0  0  0  0  0  0  0  0  0  0  0
  -24.3441  -28.5327   21.2437 C   0  0  0  0  0  0  0  0  0  0  0  0
  -27.6564  -13.4696   20.0763 C   0  0  1  0  0  0  0  0  0  0  0  0
  -24.2169  -12.9027   21.5848 C   0  0  1  0  0  0  0  0  0  0  0  0
  -24.7857  -28.8591   19.8077 C   0  0  2  0  0  0  0  0  0  0  0  0
  -17.1397  -26.8844   21.6842 C   0  0  0  0  0  0  0  0  0  0  0  0
  -17.7558   -8.8145   20.3426 C   0  0  0  0  0  0  0  0  0  0  0  0
  -23.1262  -11.3179   17.3825 C   0  0  0  0  0  0  0  0  0  0  0  0
  -20.8741  -10.2419   17.1866 C   0  0  0  0  0  0  0  0  0  0  0  0
  -22.7306   -9.0434   18.3440 C   0  0  0  0  0  0  0  0  0  0  0  0
  -18.4956  -11.0387   23.3395 C   0  0  0  0  0  0  0  0  0  0  0  0
  -19.8929  -27.1092   20.7608 C   0  0  0  0  0  0  0  0  0  0  0  0
  -20.4221  -18.4423   19.8438 C   0  0  0  0  0  0  0  0  0  1  0  0
  -21.6404  -11.0252   19.4736 C   0  0  1  0  0  0  0  0  0  0  0  0
  -18.6348   -9.6074   21.2973 C   0  0  2  0  0  0  0  0  0  0  0  0
  -22.0960  -10.4317   18.1106 C   0  0  0  0  0  0  0  0  0  0  0  0
  -25.9796  -26.7014   19.8024 N   0  0  0  0  0  0  0  0  0  0  0  0
  -25.3333  -27.6398   19.0898 N   0  0  0  0  0  0  0  0  0  0  0  0
  -22.9999  -12.5793   20.8374 N   0  0  0  0  0  0  0  0  0  0  0  0
  -23.8126  -29.7419   21.8920 N   0  0  0  0  0  0  0  0  0  0  0  0
  -24.6338  -28.1976   16.8966 N   0  0  0  0  0  0  0  0  0  0  0  0
  -26.7305  -24.2357   16.3455 N   0  0  0  0  0  0  0  0  0  0  0  0
  -21.6821  -28.7986   22.2570 N   0  0  0  0  0  0  0  0  0  0  0  0
  -20.0783  -25.7014   21.0285 N   0  0  0  0  0  0  0  0  0  0  0  0
  -26.5311  -13.0864   20.9002 N   0  0  0  0  0  0  0  0  0  0  0  0
  -20.6851  -10.1938   20.1979 N   0  0  0  0  0  0  0  0  0  0  0  0
  -17.7601  -10.2453   22.3214 N   0  3  0  0  0  0  0  0  0  0  0  0
  -25.6219  -25.9228   15.2577 O   0  0  0  0  0  0  0  0  0  0  0  0
  -19.6402  -24.9395   18.8779 O   0  0  0  0  0  0  0  0  0  0  0  0
  -24.8409  -14.0316   19.6071 O   0  0  0  0  0  0  0  0  0  0  0  0
  -23.4906  -10.3010   20.7693 O   0  0  0  0  0  0  0  0  0  0  0  0
  -19.0059  -11.7879   20.3252 O   0  0  0  0  0  0  0  0  0  0  0  0
  -22.1584  -30.9600   22.9521 O   0  0  0  0  0  0  0  0  0  0  0  0
  -29.1256  -21.1921   20.3499 O   0  0  0  0  0  0  0  0  0  0  0  0
  -20.7454  -18.3080   21.2272 O   0  0  0  0  0  0  0  0  0  1  0  0
  -27.4212  -16.3816   18.2623 F   0  0  0  0  0  0  0  0  0  0  0  0
  -28.2968  -19.1407   22.0075 F   0  0  0  0  0  0  0  0  0  0  0  0
  1  2  1  0  0  0  0
  1  6  2  0  0  0  0
  2  7  2  0  0  0  0
  3  9  1  0  0  0  0
  3 10  2  0  0  0  0
  4 11  2  0  0  0  0
  4 18  1  0  0  0  0
  5 12  1  0  0  0  0
  5 18  2  0  0  0  0
  6 20  1  0  0  0  0
  7 22  1  0  0  0  0
  8 13  2  0  0  0  0
  8 21  1  0  0  0  0
  9 24  2  0  0  0  0
 10 26  1  0  0  0  0
 11 27  1  0  0  0  0
 12 27  2  0  0  0  0
 13 28  1  0  0  0  0
 14 15  2  0  0  0  0
 14 29  1  0  0  0  0
 15 30  1  0  0  0  0
 16 23  1  0  0  0  0
 16 28  2  0  0  0  0
 17 30  2  0  0  0  0
 17 31  1  0  0  0  0
 18 32  1  0  0  0  0
 19 32  1  0  0  0  0
 19 33  2  0  0  0  0
 19 38  1  0  0  0  0
 20 22  2  0  0  0  0
 20 44  1  0  0  0  0
 21 23  2  0  0  0  0
 21 45  1  0  0  0  0
 22 53  1  0  0  0  0
 23 46  1  0  0  0  0
 24 25  1  0  0  0  0
 24 56  1  0  0  0  0
 25 26  2  0  0  0  0
 25 62  1  0  0  0  0
 26 73  1  0  0  0  0
 27 84  1  0  0  0  0
 28 85  1  0  0  0  0
 29 31  2  0  0  0  0
 29 84  1  0  0  0  0
 30 86  1  0  0  0  0
 31 87  1  0  0  0  0
 32 67  2  0  0  0  0
 33 68  1  0  0  0  0
 33 71  1  0  0  0  0
 34 35  2  0  0  0  0
 34 36  1  0  0  0  0
 35 39  1  0  0  0  0
 36 37  2  0  0  0  0
 37 63  1  0  0  0  0
 38 72  1  0  0  0  0
 38 78  2  0  0  0  0
 39 74  1  0  0  0  0
 39 79  2  0  0  0  0
 40 54  1  0  0  0  0
 40 75  1  0  0  0  0
 40 80  2  0  0  0  0
 41 64  1  0  0  0  0
 41 69  1  0  0  0  0
 41 81  2  0  0  0  0
 42 65  1  0  0  0  0
 42 76  1  0  0  0  0
 42 82  2  0  0  0  0
 43 70  1  0  0  0  0
 43 73  1  0  0  0  0
 43 83  2  0  0  0  0
 44 47  1  0  0  0  0
 45 54  1  0  0  0  0
 46 69  1  0  0  0  0
 47 49  1  0  0  0  0
 48 50  1  0  0  0  0
 48 51  1  0  0  0  0
 49 53  1  0  0  0  0
 50 55  1  0  0  0  0
 51 70  1  0  0  0  0
 52 55  1  0  0  0  0
 52 70  1  0  0  0  0
 53 75  1  0  0  0  0
 54 69  1  0  0  0  0
 55 68  1  0  0  0  0
 57 65  1  0  0  0  0
 58 66  1  0  0  0  0
 59 66  1  0  0  0  0
 60 66  1  0  0  0  0
 61 77  1  0  0  0  0
 62 74  1  0  0  0  0
 63 85  1  0  0  0  0
 64 66  1  0  0  0  0
 64 76  1  0  0  0  0
 65 77  1  0  0  0  0
 67 68  1  0  0  0  0
M  CHG  1  77   1
M  ISO  4  43 100  63 101  73 100  85 101
M  END
> <Batch ID>
0047

> <Smiles>
CNC(C)C(=O)NC(C(=O)N1Cc2cc([101O:1][101CH2:1]C=CC=CC(=O)NCc3c(C)cccc3[100NH:0][100C:0](=O)N3CCCC(n4nc(-c5ccc(Oc6ccc(F)cc6F)cc5)c(C(N)=O)c4N)C3)ccc2CC1C(=O)NC1CCCc2ccccc21)C(C)(C)C

> <Shape>
0.285

> <Color>
0.068

> <Negative vol penalty>
0.000

$$$$

  -OEChem-04042322263D

 89 98  0     1  0  0  0  0  0999 V2000
  -27.5647  -34.7016   23.6012 C   0  0  0  0  0  0  0  0  0  0  0  0
  -27.8279  -33.3650   23.3189 C   0  0  0  0  0  0  0  0  0  0  0  0
  -22.5910  -12.6705   22.7224 C   0  0  0  0  0  0  0  0  0  0  0  0
  -23.0657  -14.9820   22.2040 C   0  0  0  0  0  0  0  0  0  0  0  0
  -26.3061  -35.0798   24.0670 C   0  0  0  0  0  0  0  0  0  0  0  0
  -26.8330  -32.4056   23.5034 C   0  0  0  0  0  0  0  0  0  0  0  0
  -26.5260  -29.1559   19.6316 C   0  0  0  0  0  0  0  0  0  0  0  0
  -29.0569  -20.1326   17.9969 C   0  0  0  0  0  0  0  0  0  0  0  0
  -28.8239  -18.7912   18.2999 C   0  0  0  0  0  0  0  0  0  0  0  0
  -21.5598  -13.0727   23.5712 C   0  0  0  0  0  0  0  0  0  0  0  0
  -22.0345  -15.3842   23.0528 C   0  0  0  0  0  0  0  0  0  0  0  0
  -27.4821  -28.1429   19.5733 C   0  0  0  0  0  0  0  0  0  0  0  0
  -18.3622  -14.1320   23.2781 C   0  0  0  0  0  0  0  0  0  0  0  0
  -17.1482  -13.4507   23.1913 C   0  0  0  0  0  0  0  0  0  0  0  0
  -25.8906  -26.5949   20.5168 C   0  0  0  0  0  0  0  0  0  0  0  0
  -30.9650  -18.6707   19.4127 C   0  0  0  0  0  0  0  0  0  0  0  0
  -17.3507  -12.7949   25.5078 C   0  0  0  0  0  0  0  0  0  0  0  0
  -23.3440  -13.6252   22.0388 C   0  0  0  0  0  0  0  0  0  0  0  0
  -24.3028  -12.3906   20.0228 C   0  0  0  0  0  0  0  0  0  0  0  0
  -25.2923  -34.1258   24.2481 C   0  0  0  0  0  0  0  0  0  0  0  0
  -25.2463  -28.8983   20.1439 C   0  0  0  0  0  0  0  0  0  0  0  0
  -25.5601  -32.7711   23.9734 C   0  0  0  0  0  0  0  0  0  0  0  0
  -24.9193  -27.6058   20.5782 C   0  0  0  0  0  0  0  0  0  0  0  0
  -30.2440  -20.7431   18.4017 C   0  0  0  0  0  0  0  0  0  0  0  0
  -31.1980  -20.0121   19.1096 C   0  0  0  0  0  0  0  0  0  0  0  0
  -29.7779  -18.0602   19.0079 C   0  0  0  0  0  0  0  0  0  0  0  0
  -21.2816  -14.4295   23.7364 C   0  0  0  0  0  0  0  0  0  0  0  0
  -27.1654  -26.8628   20.0186 C   0  0  0  0  0  0  0  0  0  0  0  0
  -19.0705  -14.1447   24.4797 C   0  0  0  0  0  0  0  0  0  0  0  0
  -16.6424  -12.7822   24.3061 C   0  0  0  0  0  0  0  0  0  0  0  0
  -18.5647  -13.4762   25.5945 C   0  0  0  0  0  0  0  0  0  0  0  0
  -24.4097  -13.2104   21.1622 C   0  0  0  0  0  0  0  0  0  0  0  0
  -25.5872  -12.2972   19.5453 C   0  0  0  0  0  0  0  0  0  0  0  0
  -30.5652  -24.4704   18.8705 C   0  0  0  0  0  0  0  0  0  0  0  0
  -31.7331  -25.0089   19.2525 C   0  0  0  0  0  0  0  0  0  0  0  0
  -23.1459  -11.7692   19.4474 C   0  0  0  0  0  0  0  0  0  0  0  0
  -23.5565  -29.9829   22.6080 C   0  0  0  0  0  0  0  0  0  0  0  0
  -21.2051  -28.1795   21.2884 C   0  0  0  0  0  0  0  0  0  0  0  0
  -20.9279  -24.9236   19.7589 C   0  0  0  0  0  0  0  0  0  0  0  0
  -30.3831  -15.8307   20.0125 C   0  0  0  0  0  0  0  0  0  0  0  0
  -23.9622  -34.5757   24.7988 C   0  0  0  0  0  0  0  0  0  0  0  0
  -24.2179  -29.9955   20.1752 C   0  0  0  0  0  0  0  0  0  0  0  0
  -23.5533  -27.2725   21.1180 C   0  0  0  0  0  0  0  0  0  0  0  0
  -29.5162  -25.2401   18.1103 C   0  0  0  0  0  0  0  0  0  0  0  0
  -22.8470  -33.5505   24.6108 C   0  0  0  0  0  0  0  0  0  0  0  0
  -30.1451  -12.4210   21.0097 C   0  0  0  0  0  0  0  0  0  0  0  0
  -23.3266  -32.1598   25.0143 C   0  0  0  0  0  0  0  0  0  0  0  0
  -28.6377  -12.1601   21.0524 C   0  0  0  0  0  0  0  0  0  0  0  0
  -27.8420  -23.6348   19.1201 C   0  0  0  0  0  0  0  0  0  0  0  0
  -30.4903  -13.8314   21.4844 C   0  0  0  0  0  0  0  0  0  0  0  0
  -28.2558  -14.6499   20.8467 C   0  0  0  0  0  0  0  0  0  0  0  0
  -28.9637  -22.9919   19.9345 C   0  0  0  0  0  0  0  0  0  0  0  0
  -24.4991  -31.7045   24.1371 C   0  0  1  0  0  0  0  0  0  0  0  0
  -23.1092  -29.7463   21.1932 C   0  0  1  0  0  0  0  0  0  0  0  0
  -27.8537  -13.2641   20.3161 C   0  0  2  0  0  0  0  0  0  0  0  0
  -28.1449  -25.0915   18.7698 C   0  0  1  0  0  0  0  0  0  1  0  0
  -19.3016  -24.0535   18.0573 C   0  0  0  0  0  0  0  0  0  0  0  0
  -19.6344  -27.2025   23.7149 C   0  0  0  0  0  0  0  0  0  0  0  0
  -19.0657  -25.1328   22.4262 C   0  0  0  0  0  0  0  0  0  0  0  0
  -18.3020  -27.3609   21.6045 C   0  0  0  0  0  0  0  0  0  0  0  0
  -23.1042  -24.0900   17.9346 C   0  0  0  0  0  0  0  0  0  0  0  0
  -30.4724  -22.1868   18.0633 C   0  0  0  0  0  0  0  0  0  0  0  0
  -20.7486  -26.7476   21.4307 C   0  0  1  0  0  0  0  0  0  0  0  0
  -20.6908  -24.6273   18.2890 C   0  0  2  0  0  0  0  0  0  0  0  0
  -32.4752  -20.6453   19.5550 C   0  0  0  0  0  0  0  0  0  0  0  0
  -19.4648  -26.6184   22.2983 C   0  0  0  0  0  0  0  0  0  0  0  0
  -25.6630  -13.6093   21.3947 N   0  0  0  0  0  0  0  0  0  0  0  0
  -26.3555  -13.0376   20.3948 N   0  0  0  0  0  0  0  0  0  0  0  0
  -22.5841  -28.3807   21.1341 N   0  0  0  0  0  0  0  0  0  0  0  0
  -29.7129  -14.8244   20.7397 N   0  0  0  0  0  0  0  0  0  0  0  0
  -26.1231  -11.6547   18.4858 N   0  0  0  0  0  0  0  0  0  0  0  0
  -21.9036  -11.9688   20.0648 N   0  0  0  0  0  0  0  0  0  0  0  0
  -29.5408  -16.6980   19.3177 N   0  0  0  0  0  0  0  0  0  0  0  0
  -24.0214  -31.2625   22.8445 N   0  0  0  0  0  0  0  0  0  0  0  0
  -20.6086  -26.2272   20.0750 N   0  0  0  0  0  0  0  0  0  0  0  0
  -30.3029  -23.1026   19.2440 N   0  3  1  0  0  0  0  0  0  0  0  0
  -21.6943  -23.6448   17.7902 N   0  3  0  0  0  0  0  0  0  0  0  0
  -23.2143  -11.0446   18.4258 O   0  0  0  0  0  0  0  0  0  0  0  0
  -23.4836  -29.0725   23.4250 O   0  0  0  0  0  0  0  0  0  0  0  0
  -20.3683  -29.0857   21.3061 O   0  0  0  0  0  0  0  0  0  0  0  0
  -21.3504  -24.0818   20.5484 O   0  0  0  0  0  0  0  0  0  0  0  0
  -31.6146  -15.9003   19.9847 O   0  0  0  0  0  0  0  0  0  0  0  0
  -20.2753  -14.8223   24.5645 O   0  0  0  0  0  0  0  0  0  0  0  0
  -28.0969  -25.8723   19.9635 O   0  0  0  0  0  0  0  0  0  1  0  0
  -15.4758  -12.1292   24.2231 F   0  0  0  0  0  0  0  0  0  0  0  0
  -19.2401  -13.4859   26.7519 F   0  0  0  0  0  0  0  0  0  0  0  0
  -33.2972  -19.7945   20.2362 F   0  0  0  0  0  0  0  0  0  0  0  0
  -33.2321  -21.1270   18.5262 F   0  0  0  0  0  0  0  0  0  0  0  0
  -32.2705  -21.7053   20.3889 F   0  0  0  0  0  0  0  0  0  0  0  0
  1  2  1  0  0  0  0
  1  5  2  0  0  0  0
  2  6  2  0  0  0  0
  3 10  2  0  0  0  0
  3 18  1  0  0  0  0
  4 11  1  0  0  0  0
  4 18  2  0  0  0  0
  5 20  1  0  0  0  0
  6 22  1  0  0  0  0
  7 12  2  0  0  0  0
  7 21  1  0  0  0  0
  8  9  2  0  0  0  0
  8 24  1  0  0  0  0
  9 26  1  0  0  0  0
 10 27  1  0  0  0  0
 11 27  2  0  0  0  0
 12 28  1  0  0  0  0
 13 14  2  0  0  0  0
 13 29  1  0  0  0  0
 14 30  1  0  0  0  0
 15 23  1  0  0  0  0
 15 28  2  0  0  0  0
 16 25  1  0  0  0  0
 16 26  2  0  0  0  0
 17 30  2  0  0  0  0
 17 31  1  0  0  0  0
 18 32  1  0  0  0  0
 19 32  1  0  0  0  0
 19 33  2  0  0  0  0
 19 36  1  0  0  0  0
 20 22  2  0  0  0  0
 20 41  1  0  0  0  0
 21 23  2  0  0  0  0
 21 42  1  0  0  0  0
 22 53  1  0  0  0  0
 23 43  1  0  0  0  0
 24 25  2  0  0  0  0
 24 62  1  0  0  0  0
 25 65  1  0  0  0  0
 26 73  1  0  0  0  0
 27 83  1  0  0  0  0
 28 84  1  0  0  0  0
 29 31  2  0  0  0  0
 29 83  1  0  0  0  0
 30 85  1  0  0  0  0
 31 86  1  0  0  0  0
 32 67  2  0  0  0  0
 33 68  1  0  0  0  0
 33 71  1  0  0  0  0
 34 35  2  0  0  0  0
 34 44  1  0  0  0  0
 34 76  1  0  0  0  0
 36 72  1  0  0  0  0
 36 78  2  0  0  0  0
 37 54  1  0  0  0  0
 37 74  1  0  0  0  0
 37 79  2  0  0  0  0
 38 63  1  0  0  0  0
 38 69  1  0  0  0  0
 38 80  2  0  0  0  0
 39 64  1  0  0  0  0
 39 75  1  0  0  0  0
 39 81  2  0  0  0  0
 40 70  1  0  0  0  0
 40 73  1  0  0  0  0
 40 82  2  0  0  0  0
 41 45  1  0  0  0  0
 42 54  1  0  0  0  0
 43 69  1  0  0  0  0
 44 56  1  0  0  0  0
 45 47  1  0  0  0  0
 46 48  1  0  0  0  0
 46 50  1  0  0  0  0
 47 53  1  0  0  0  0
 48 55  1  0  0  0  0
 49 52  1  0  0  0  0
 49 56  1  0  0  0  0
 50 70  1  0  0  0  0
 51 55  1  0  0  0  0
 51 70  1  0  0  0  0
 52 76  1  0  0  0  0
 53 74  1  0  0  0  0
 54 69  1  0  0  0  0
 55 68  1  0  0  0  0
 56 84  1  0  0  0  0
 57 64  1  0  0  0  0
 58 66  1  0  0  0  0
 59 66  1  0  0  0  0
 60 66  1  0  0  0  0
 61 77  1  0  0  0  0
 62 76  1  0  0  0  0
 63 66  1  0  0  0  0
 63 75  1  0  0  0  0
 64 77  1  0  0  0  0
 65 87  1  0  0  0  0
 65 88  1  0  0  0  0
 65 89  1  0  0  0  0
 67 68  1  0  0  0  0
M  CHG  2  76   1  77   1
M  ISO  4  40 100  56 101  73 100  84 101
M  END
> <Batch ID>
0047

> <Smiles>
C=C1C[101CH:1]([101O:1]c2ccc3c(c2)CN(C(=O)C(NC(=O)C(C)NC)C(C)(C)C)C(C(=O)NC2CCCc4ccccc42)C3)CCN1Cc1ccc([100NH:0][100C:0](=O)N2CCCC(n3nc(-c4ccc(Oc5ccc(F)cc5F)cc4)c(C(N)=O)c3N)C2)cc1C(F)(F)F

> <Shape>
0.295

> <Color>
0.067

> <Negative vol penalty>
0.000

$$$$

  -OEChem-04042322263D

 85 93  0     1  0  0  0  0  0999 V2000
  -28.4322  -23.4711   27.2831 C   0  0  0  0  0  0  0  0  0  0  0  0
  -27.3571  -23.3795   26.4050 C   0  0  0  0  0  0  0  0  0  0  0  0
  -28.9298  -26.0038   20.5295 C   0  0  0  0  0  0  0  0  0  0  0  0
  -27.1155  -26.0154   18.9341 C   0  0  0  0  0  0  0  0  0  0  0  0
  -29.5473  -22.6532   27.1059 C   0  0  0  0  0  0  0  0  0  0  0  0
  -27.3969  -22.4705   25.3483 C   0  0  0  0  0  0  0  0  0  0  0  0
  -23.0607  -19.9074   24.8259 C   0  0  0  0  0  0  0  0  0  0  0  0
  -29.3043  -24.7326   20.0944 C   0  0  0  0  0  0  0  0  0  0  0  0
  -27.4900  -24.7442   18.4990 C   0  0  0  0  0  0  0  0  0  0  0  0
  -22.0007  -20.5689   24.2074 C   0  0  0  0  0  0  0  0  0  0  0  0
  -27.7475  -21.3535   17.2157 C   0  0  0  0  0  0  0  0  0  0  0  0
  -26.7387  -20.4080   17.0315 C   0  0  0  0  0  0  0  0  0  0  0  0
  -22.4969  -19.4220   22.1440 C   0  0  0  0  0  0  0  0  0  0  0  0
  -19.4390  -27.7510   21.7367 C   0  0  0  0  0  0  0  0  0  0  0  0
  -18.2020  -29.0996   23.3140 C   0  0  0  0  0  0  0  0  0  0  0  0
  -26.1312  -20.6022   19.3618 C   0  0  0  0  0  0  0  0  0  0  0  0
  -27.8354  -26.6452   19.9494 C   0  0  0  0  0  0  0  0  0  0  0  0
  -27.8960  -29.1950   19.8977 C   0  0  0  0  0  0  0  0  0  0  0  0
  -29.5968  -21.7269   26.0522 C   0  0  0  0  0  0  0  0  0  0  0  0
  -23.8549  -19.0050   24.1040 C   0  0  0  0  0  0  0  0  0  0  0  0
  -28.5143  -21.6403   25.1560 C   0  0  0  0  0  0  0  0  0  0  0  0
  -23.5648  -18.7485   22.7563 C   0  0  0  0  0  0  0  0  0  0  0  0
  -19.2486  -28.9619   22.4023 C   0  0  0  0  0  0  0  0  0  0  0  0
  -18.5826  -26.6777   21.9828 C   0  0  0  0  0  0  0  0  0  0  0  0
  -17.5361  -26.8154   22.8946 C   0  0  0  0  0  0  0  0  0  0  0  0
  -28.5844  -24.1028   19.0791 C   0  0  0  0  0  0  0  0  0  0  0  0
  -21.7204  -20.3284   22.8655 C   0  0  0  0  0  0  0  0  0  0  0  0
  -27.9483  -21.9233   18.4730 C   0  0  0  0  0  0  0  0  0  0  0  0
  -25.9305  -20.0324   18.1045 C   0  0  0  0  0  0  0  0  0  0  0  0
  -27.1401  -21.5476   19.5460 C   0  0  0  0  0  0  0  0  0  0  0  0
  -17.3457  -28.0263   23.5602 C   0  0  0  0  0  0  0  0  0  0  0  0
  -27.4477  -27.9582   20.3988 C   0  0  0  0  0  0  0  0  0  0  0  0
  -27.2355  -30.1318   20.6544 C   0  0  0  0  0  0  0  0  0  0  0  0
  -28.8263  -29.4723   18.8425 C   0  0  0  0  0  0  0  0  0  0  0  0
  -26.9284  -18.8630   23.3055 C   0  0  0  0  0  0  0  0  0  0  0  0
  -26.0957  -15.9425   22.1655 C   0  0  0  0  0  0  0  0  0  0  0  0
  -19.7534  -23.1193   21.6448 C   0  0  0  0  0  0  0  0  0  0  0  0
  -23.6417  -13.8838   20.9882 C   0  0  0  0  0  0  0  0  0  0  0  0
  -22.0863  -30.0131   23.7077 C   0  0  0  0  0  0  0  0  0  0  0  0
  -30.8434  -20.8972   25.8730 C   0  0  0  0  0  0  0  0  0  0  0  0
  -24.9781  -18.2795   24.7928 C   0  0  0  0  0  0  0  0  0  0  0  0
  -24.3746  -17.7737   21.9424 C   0  0  0  0  0  0  0  0  0  0  0  0
  -30.6489  -19.6971   24.9499 C   0  0  0  0  0  0  0  0  0  0  0  0
  -25.3201  -30.7671   24.9925 C   0  0  0  0  0  0  0  0  0  0  0  0
  -29.9079  -20.1127   23.6829 C   0  0  0  0  0  0  0  0  0  0  0  0
  -26.2725  -30.2443   23.9156 C   0  0  0  0  0  0  0  0  0  0  0  0
  -24.0961  -29.8673   25.1484 C   0  0  0  0  0  0  0  0  0  0  0  0
  -24.3100  -29.0816   22.8224 C   0  0  0  0  0  0  0  0  0  0  0  0
  -28.5097  -20.6492   24.0124 C   0  0  1  0  0  0  0  0  0  0  0  0
  -26.0409  -17.7676   23.8254 C   0  0  1  0  0  0  0  0  0  0  0  0
  -25.5322  -29.9862   22.5895 C   0  0  2  0  0  0  0  0  0  0  0  0
  -16.6258  -25.6539   23.1467 C   0  0  0  0  0  0  0  0  0  0  0  0
  -23.2729  -11.5660   20.0997 C   0  0  0  0  0  0  0  0  0  0  0  0
  -27.3229  -16.7723   19.4980 C   0  0  0  0  0  0  0  0  0  0  0  0
  -26.1077  -14.8645   18.4248 C   0  0  0  0  0  0  0  0  0  0  0  0
  -27.8168  -14.4193   20.1865 C   0  0  0  0  0  0  0  0  0  0  0  0
  -21.7861  -13.2088   23.1927 C   0  0  0  0  0  0  0  0  0  0  0  0
  -20.1653  -30.1087   22.1393 C   0  0  0  0  0  0  0  0  0  0  0  0
  -18.8105  -25.3867   21.2509 C   0  0  0  0  0  0  0  0  0  0  0  0
  -20.3576  -22.2738   22.7455 C   0  0  0  0  0  0  0  0  0  1  0  0
  -25.5882  -15.4151   20.8451 C   0  0  1  0  0  0  0  0  0  0  0  0
  -23.2752  -12.4522   21.3356 C   0  0  2  0  0  0  0  0  0  0  0  0
  -26.6946  -15.3877   19.7532 C   0  0  0  0  0  0  0  0  0  0  0  0
  -26.5704  -28.0936   21.3968 N   0  0  0  0  0  0  0  0  0  0  0  0
  -26.4622  -29.4266   21.5290 N   0  0  0  0  0  0  0  0  0  0  0  0
  -25.4663  -17.0939   22.6591 N   0  0  0  0  0  0  0  0  0  0  0  0
  -23.4388  -29.6637   23.8552 N   0  0  0  0  0  0  0  0  0  0  0  0
  -27.2467  -31.4817   20.6505 N   0  0  0  0  0  0  0  0  0  0  0  0
  -29.4132  -28.3927   18.1684 N   0  0  0  0  0  0  0  0  0  0  0  0
  -27.6023  -19.5571   24.2922 N   0  0  0  0  0  0  0  0  0  0  0  0
  -19.4083  -24.3823   22.0998 N   0  0  0  0  0  0  0  0  0  0  0  0
  -24.9943  -14.1127   21.1269 N   0  0  0  0  0  0  0  0  0  0  0  0
  -21.5423  -29.7937   22.4480 N   0  0  0  0  0  0  0  0  0  0  0  0
  -21.9202  -12.3999   21.9539 N   0  3  0  0  0  0  0  0  0  0  0  0
  -29.1406  -30.6426   18.5184 O   0  0  0  0  0  0  0  0  0  0  0  0
  -26.9977  -19.0627   22.0984 O   0  0  0  0  0  0  0  0  0  0  0  0
  -27.0120  -15.3503   22.7412 O   0  0  0  0  0  0  0  0  0  0  0  0
  -19.5997  -22.7066   20.4985 O   0  0  0  0  0  0  0  0  0  0  0  0
  -22.8117  -14.7147   20.6260 O   0  0  0  0  0  0  0  0  0  0  0  0
  -21.4149  -30.4906   24.6286 O   0  0  0  0  0  0  0  0  0  0  0  0
  -28.9497  -22.8624   18.6541 O   0  0  0  0  0  0  0  0  0  0  0  0
  -20.6867  -20.9732   22.2592 O   0  0  0  0  0  0  0  0  0  1  0  0
  -24.9608  -19.1255   17.9270 F   0  0  0  0  0  0  0  0  0  0  0  0
  -27.3273  -22.0924   20.7560 F   0  0  0  0  0  0  0  0  0  0  0  0
  -16.0633  -28.2360   24.6971 Cl  0  0  0  0  0  0  0  0  0  0  0  0
  1  2  1  0  0  0  0
  1  5  2  0  0  0  0
  2  6  2  0  0  0  0
  3  8  2  0  0  0  0
  3 17  1  0  0  0  0
  4  9  1  0  0  0  0
  4 17  2  0  0  0  0
  5 19  1  0  0  0  0
  6 21  1  0  0  0  0
  7 10  2  0  0  0  0
  7 20  1  0  0  0  0
  8 26  1  0  0  0  0
  9 26  2  0  0  0  0
 10 27  1  0  0  0  0
 11 12  2  0  0  0  0
 11 28  1  0  0  0  0
 12 29  1  0  0  0  0
 13 22  1  0  0  0  0
 13 27  2  0  0  0  0
 14 23  2  0  0  0  0
 14 24  1  0  0  0  0
 15 23  1  0  0  0  0
 15 31  2  0  0  0  0
 16 29  2  0  0  0  0
 16 30  1  0  0  0  0
 17 32  1  0  0  0  0
 18 32  1  0  0  0  0
 18 33  2  0  0  0  0
 18 34  1  0  0  0  0
 19 21  2  0  0  0  0
 19 40  1  0  0  0  0
 20 22  2  0  0  0  0
 20 41  1  0  0  0  0
 21 49  1  0  0  0  0
 22 42  1  0  0  0  0
 23 58  1  0  0  0  0
 24 25  2  0  0  0  0
 24 59  1  0  0  0  0
 25 31  1  0  0  0  0
 25 52  1  0  0  0  0
 26 81  1  0  0  0  0
 27 82  1  0  0  0  0
 28 30  2  0  0  0  0
 28 81  1  0  0  0  0
 29 83  1  0  0  0  0
 30 84  1  0  0  0  0
 31 85  1  0  0  0  0
 32 64  2  0  0  0  0
 33 65  1  0  0  0  0
 33 68  1  0  0  0  0
 34 69  1  0  0  0  0
 34 75  2  0  0  0  0
 35 50  1  0  0  0  0
 35 70  1  0  0  0  0
 35 76  2  0  0  0  0
 36 61  1  0  0  0  0
 36 66  1  0  0  0  0
 36 77  2  0  0  0  0
 37 60  1  0  0  0  0
 37 71  1  0  0  0  0
 37 78  2  0  0  0  0
 38 62  1  0  0  0  0
 38 72  1  0  0  0  0
 38 79  2  0  0  0  0
 39 67  1  0  0  0  0
 39 73  1  0  0  0  0
 39 80  2  0  0  0  0
 40 43  1  0  0  0  0
 41 50  1  0  0  0  0
 42 66  1  0  0  0  0
 43 45  1  0  0  0  0
 44 46  1  0  0  0  0
 44 47  1  0  0  0  0
 45 49  1  0  0  0  0
 46 51  1  0  0  0  0
 47 67  1  0  0  0  0
 48 51  1  0  0  0  0
 48 67  1  0  0  0  0
 49 70  1  0  0  0  0
 50 66  1  0  0  0  0
 51 65  1  0  0  0  0
 53 62  1  0  0  0  0
 54 63  1  0  0  0  0
 55 63  1  0  0  0  0
 56 63  1  0  0  0  0
 57 74  1  0  0  0  0
 58 73  1  0  0  0  0
 59 71  1  0  0  0  0
 60 82  1  0  0  0  0
 61 63  1  0  0  0  0
 61 72  1  0  0  0  0
 62 74  1  0  0  0  0
 64 65  1  0  0  0  0
M  CHG  1  74   1
M  ISO  4  39 100  60 101  73 100  82 101
M  END
> <Batch ID>
0047

> <Smiles>
CNC(C)C(=O)NC(C(=O)N1Cc2cc([101O:1][101CH2:1]C(=O)NCc3cc(C[100NH:0][100C:0](=O)N4CCCC(n5nc(-c6ccc(Oc7ccc(F)cc7F)cc6)c(C(N)=O)c5N)C4)cc(Cl)c3C)ccc2CC1C(=O)NC1CCCc2ccccc21)C(C)(C)C

> <Shape>
0.193

> <Color>
0.079

> <Negative vol penalty>
0.000

$$$$

  -OEChem-04042322263D

 89 98  0     1  0  0  0  0  0999 V2000
  -27.3599  -34.0156   25.9805 C   0  0  0  0  0  0  0  0  0  0  0  0
  -27.6654  -32.8236   25.3314 C   0  0  0  0  0  0  0  0  0  0  0  0
  -24.0180   -8.8484   22.0503 C   0  0  0  0  0  0  0  0  0  0  0  0
  -21.8682   -9.3639   21.0757 C   0  0  0  0  0  0  0  0  0  0  0  0
  -26.0426  -34.2923   26.3441 C   0  0  0  0  0  0  0  0  0  0  0  0
  -26.6538  -31.9071   25.0465 C   0  0  0  0  0  0  0  0  0  0  0  0
  -26.9762  -30.0577   20.3433 C   0  0  0  0  0  0  0  0  0  0  0  0
  -25.8608  -21.4929   19.5165 C   0  0  0  0  0  0  0  0  0  0  0  0
  -24.9184  -20.5747   19.9795 C   0  0  0  0  0  0  0  0  0  0  0  0
  -24.0756   -7.6729   21.3017 C   0  0  0  0  0  0  0  0  0  0  0  0
  -21.9258   -8.1884   20.3270 C   0  0  0  0  0  0  0  0  0  0  0  0
  -27.9292  -29.0666   20.1127 C   0  0  0  0  0  0  0  0  0  0  0  0
  -24.6227   -4.3560   19.9152 C   0  0  0  0  0  0  0  0  0  0  0  0
  -25.0304   -3.1910   20.5647 C   0  0  0  0  0  0  0  0  0  0  0  0
  -26.2065  -27.3843   20.2595 C   0  0  0  0  0  0  0  0  0  0  0  0
  -26.5543  -18.8058   19.8014 C   0  0  0  0  0  0  0  0  0  0  0  0
  -23.1719   -3.3936   22.0950 C   0  0  0  0  0  0  0  0  0  0  0  0
  -22.9143   -9.6939   21.9374 C   0  0  0  0  0  0  0  0  0  0  0  0
  -22.8757  -11.0243   24.1137 C   0  0  0  0  0  0  0  0  0  0  0  0
  -25.0129  -33.3830   26.0548 C   0  0  0  0  0  0  0  0  0  0  0  0
  -25.6306  -29.7181   20.5448 C   0  0  0  0  0  0  0  0  0  0  0  0
  -25.3218  -32.1713   25.4078 C   0  0  0  0  0  0  0  0  0  0  0  0
  -25.2379  -28.3732   20.4898 C   0  0  0  0  0  0  0  0  0  0  0  0
  -27.1500  -21.0675   19.1959 C   0  0  0  0  0  0  0  0  0  0  0  0
  -27.4968  -19.7240   19.3384 C   0  0  0  0  0  0  0  0  0  0  0  0
  -25.2651  -19.2311   20.1220 C   0  0  0  0  0  0  0  0  0  0  0  0
  -23.0295   -7.3429   20.4400 C   0  0  0  0  0  0  0  0  0  0  0  0
  -27.5449  -27.7294   20.0737 C   0  0  0  0  0  0  0  0  0  0  0  0
  -23.4895   -5.0400   20.3556 C   0  0  0  0  0  0  0  0  0  0  0  0
  -24.3051   -2.7098   21.6546 C   0  0  0  0  0  0  0  0  0  0  0  0
  -22.7641   -4.5587   21.4455 C   0  0  0  0  0  0  0  0  0  0  0  0
  -22.8539  -10.9080   22.7109 C   0  0  0  0  0  0  0  0  0  0  0  0
  -22.7957  -12.3753   24.3475 C   0  0  0  0  0  0  0  0  0  0  0  0
  -28.0619  -24.4549   19.3290 C   0  0  0  0  0  0  0  0  0  0  0  0
  -22.9608  -10.0023   25.1157 C   0  0  0  0  0  0  0  0  0  0  0  0
  -23.5651  -30.0593   22.9366 C   0  0  0  0  0  0  0  0  0  0  0  0
  -21.4578  -28.8844   20.7684 C   0  0  0  0  0  0  0  0  0  0  0  0
  -20.9322  -27.0519   17.9378 C   0  0  0  0  0  0  0  0  0  0  0  0
  -24.4800  -16.9262   20.7966 C   0  0  0  0  0  0  0  0  0  0  0  0
  -23.6114  -33.7047   26.5096 C   0  0  0  0  0  0  0  0  0  0  0  0
  -24.6104  -30.8011   20.7657 C   0  0  0  0  0  0  0  0  0  0  0  0
  -23.8027  -27.9577   20.6798 C   0  0  0  0  0  0  0  0  0  0  0  0
  -22.5412  -32.8489   25.8369 C   0  0  0  0  0  0  0  0  0  0  0  0
  -29.1647  -23.7910   21.9616 C   0  0  0  0  0  0  0  0  0  0  0  0
  -20.8836  -15.9687   21.7310 C   0  0  0  0  0  0  0  0  0  0  0  0
  -22.9496  -31.3792   25.8454 C   0  0  0  0  0  0  0  0  0  0  0  0
  -29.3704  -25.1770   21.3870 C   0  0  0  0  0  0  0  0  0  0  0  0
  -21.1706  -14.9338   22.8164 C   0  0  0  0  0  0  0  0  0  0  0  0
  -29.1710  -22.7674   20.8404 C   0  0  0  0  0  0  0  0  0  0  0  0
  -22.0410  -16.9406   21.5392 C   0  0  0  0  0  0  0  0  0  0  0  0
  -23.3689  -14.8211   21.5182 C   0  0  0  0  0  0  0  0  0  0  0  0
  -24.2484  -31.1630   25.0593 C   0  0  1  0  0  0  0  0  0  0  0  0
  -28.2342  -25.4900   20.4334 C   0  0  1  0  0  0  0  0  0  1  0  0
  -23.3521  -30.3021   21.4692 C   0  0  1  0  0  0  0  0  0  0  0  0
  -22.6333  -14.4470   22.8144 C   0  0  2  0  0  0  0  0  0  0  0  0
  -19.0986  -26.2371   16.4307 C   0  0  0  0  0  0  0  0  0  0  0  0
  -20.7017  -26.7707   22.8351 C   0  0  0  0  0  0  0  0  0  0  0  0
  -19.6188  -25.4608   20.9967 C   0  0  0  0  0  0  0  0  0  0  0  0
  -18.7693  -27.7342   21.5733 C   0  0  0  0  0  0  0  0  0  0  0  0
  -22.0428  -28.5029   15.6096 C   0  0  0  0  0  0  0  0  0  0  0  0
  -28.1468  -22.0742   18.6988 C   0  0  0  0  0  0  0  0  0  0  0  0
  -20.9844  -27.5056   20.3762 C   0  0  1  0  0  0  0  0  0  0  0  0
  -20.1159  -27.3373   16.6901 C   0  0  2  0  0  0  0  0  0  0  0  0
  -28.8715  -19.2461   19.0033 C   0  0  0  0  0  0  0  0  0  0  0  0
  -20.0460  -26.8752   21.4436 C   0  0  0  0  0  0  0  0  0  0  0  0
  -22.7667  -12.0909   22.0968 N   0  0  0  0  0  0  0  0  0  0  0  0
  -22.7329  -12.9633   23.1185 N   0  0  0  0  0  0  0  0  0  0  0  0
  -28.3771  -23.1376   19.6675 N   0  0  0  0  0  0  0  0  0  0  0  0
  -22.8435  -29.0529   20.8991 N   0  0  0  0  0  0  0  0  0  0  0  0
  -23.3225  -16.2684   21.2802 N   0  0  0  0  0  0  0  0  0  0  0  0
  -22.7735  -13.1059   25.4826 N   0  0  0  0  0  0  0  0  0  0  0  0
  -21.7711   -9.4488   25.6082 N   0  0  0  0  0  0  0  0  0  0  0  0
  -24.3084  -18.2981   20.5942 N   0  0  0  0  0  0  0  0  0  0  0  0
  -23.9856  -31.1743   23.6362 N   0  0  0  0  0  0  0  0  0  0  0  0
  -20.3804  -27.6418   19.0552 N   0  0  0  0  0  0  0  0  0  0  0  0
  -21.0075  -27.4430   15.5007 N   0  3  0  0  0  0  0  0  0  0  0  0
  -27.6039  -24.7940   18.2348 O   0  0  0  0  0  0  0  0  0  0  0  0
  -24.0587   -9.6038   25.5730 O   0  0  0  0  0  0  0  0  0  0  0  0
  -23.3614  -28.9433   23.4002 O   0  0  0  0  0  0  0  0  0  0  0  0
  -20.6290  -29.7807   20.9452 O   0  0  0  0  0  0  0  0  0  0  0  0
  -21.9549  -26.3704   17.9232 O   0  0  0  0  0  0  0  0  0  0  0  0
  -25.5336  -16.3186   20.5945 O   0  0  0  0  0  0  0  0  0  0  0  0
  -23.0855   -6.1961   19.7091 O   0  0  0  0  0  0  0  0  0  0  0  0
  -28.4733  -26.7600   19.8495 O   0  0  0  0  0  0  0  0  0  1  0  0
  -24.6959   -1.5901   22.2773 F   0  0  0  0  0  0  0  0  0  0  0  0
  -21.6740   -5.2108   21.8724 F   0  0  0  0  0  0  0  0  0  0  0  0
  -29.0464  -17.9066   19.2001 F   0  0  0  0  0  0  0  0  0  0  0  0
  -29.2223  -19.4654   17.7024 F   0  0  0  0  0  0  0  0  0  0  0  0
  -29.8344  -19.8567   19.7521 F   0  0  0  0  0  0  0  0  0  0  0  0
  1  2  1  0  0  0  0
  1  5  2  0  0  0  0
  2  6  2  0  0  0  0
  3 10  2  0  0  0  0
  3 18  1  0  0  0  0
  4 11  1  0  0  0  0
  4 18  2  0  0  0  0
  5 20  1  0  0  0  0
  6 22  1  0  0  0  0
  7 12  2  0  0  0  0
  7 21  1  0  0  0  0
  8  9  2  0  0  0  0
  8 24  1  0  0  0  0
  9 26  1  0  0  0  0
 10 27  1  0  0  0  0
 11 27  2  0  0  0  0
 12 28  1  0  0  0  0
 13 14  2  0  0  0  0
 13 29  1  0  0  0  0
 14 30  1  0  0  0  0
 15 23  1  0  0  0  0
 15 28  2  0  0  0  0
 16 25  1  0  0  0  0
 16 26  2  0  0  0  0
 17 30  2  0  0  0  0
 17 31  1  0  0  0  0
 18 32  1  0  0  0  0
 19 32  1  0  0  0  0
 19 33  2  0  0  0  0
 19 35  1  0  0  0  0
 20 22  2  0  0  0  0
 20 40  1  0  0  0  0
 21 23  2  0  0  0  0
 21 41  1  0  0  0  0
 22 52  1  0  0  0  0
 23 42  1  0  0  0  0
 24 25  2  0  0  0  0
 24 61  1  0  0  0  0
 25 64  1  0  0  0  0
 26 73  1  0  0  0  0
 27 83  1  0  0  0  0
 28 84  1  0  0  0  0
 29 31  2  0  0  0  0
 29 83  1  0  0  0  0
 30 85  1  0  0  0  0
 31 86  1  0  0  0  0
 32 66  2  0  0  0  0
 33 67  1  0  0  0  0
 33 71  1  0  0  0  0
 34 53  1  0  0  0  0
 34 68  1  0  0  0  0
 34 77  2  0  0  0  0
 35 72  1  0  0  0  0
 35 78  2  0  0  0  0
 36 54  1  0  0  0  0
 36 74  1  0  0  0  0
 36 79  2  0  0  0  0
 37 62  1  0  0  0  0
 37 69  1  0  0  0  0
 37 80  2  0  0  0  0
 38 63  1  0  0  0  0
 38 75  1  0  0  0  0
 38 81  2  0  0  0  0
 39 70  1  0  0  0  0
 39 73  1  0  0  0  0
 39 82  2  0  0  0  0
 40 43  1  0  0  0  0
 41 54  1  0  0  0  0
 42 69  1  0  0  0  0
 43 46  1  0  0  0  0
 44 47  1  0  0  0  0
 44 49  1  0  0  0  0
 45 48  1  0  0  0  0
 45 50  1  0  0  0  0
 46 52  1  0  0  0  0
 47 53  1  0  0  0  0
 48 55  1  0  0  0  0
 49 68  1  0  0  0  0
 50 70  1  0  0  0  0
 51 55  1  0  0  0  0
 51 70  1  0  0  0  0
 52 74  1  0  0  0  0
 53 84  1  0  0  0  0
 54 69  1  0  0  0  0
 55 67  1  0  0  0  0
 56 63  1  0  0  0  0
 57 65  1  0  0  0  0
 58 65  1  0  0  0  0
 59 65  1  0  0  0  0
 60 76  1  0  0  0  0
 61 68  1  0  0  0  0
 62 65  1  0  0  0  0
 62 75  1  0  0  0  0
 63 76  1  0  0  0  0
 64 87  1  0  0  0  0
 64 88  1  0  0  0  0
 64 89  1  0  0  0  0
 66 67  1  0  0  0  0
M  CHG  1  76   1
M  ISO  4  39 100  53 101  73 100  84 101
M  END
> <Batch ID>
0047

> <Smiles>
CNC(C)C(=O)NC(C(=O)N1Cc2cc([101O:1][101CH:1]3CCCN(Cc4ccc([100NH:0][100C:0](=O)N5CCCC(n6nc(-c7ccc(Oc8ccc(F)cc8F)cc7)c(C(N)=O)c6N)C5)cc4C(F)(F)F)C3=O)ccc2CC1C(=O)NC1CCCc2ccccc21)C(C)(C)C

> <Shape>
0.259

> <Color>
0.073

> <Negative vol penalty>
0.000

$$$$

  -OEChem-04042322263D

 84 93  0     1  0  0  0  0  0999 V2000
  -21.4312  -31.8868   22.1365 C   0  0  0  0  0  0  0  0  0  0  0  0
  -20.9860  -30.6648   21.6428 C   0  0  0  0  0  0  0  0  0  0  0  0
  -23.0308  -10.2049   19.9463 C   0  0  0  0  0  0  0  0  0  0  0  0
  -23.8755   -9.5390   22.1097 C   0  0  0  0  0  0  0  0  0  0  0  0
  -22.7718  -32.2453   22.0014 C   0  0  0  0  0  0  0  0  0  0  0  0
  -21.8810  -29.8009   21.0127 C   0  0  0  0  0  0  0  0  0  0  0  0
  -23.1802  -22.8186   20.0765 C   0  0  0  0  0  0  0  0  0  0  0  0
  -22.1927   -9.0901   19.9304 C   0  0  0  0  0  0  0  0  0  0  0  0
  -23.0374   -8.4242   22.0938 C   0  0  0  0  0  0  0  0  0  0  0  0
  -23.4069  -21.8921   19.0597 C   0  0  0  0  0  0  0  0  0  0  0  0
  -22.9955   -5.3591   20.6673 C   0  0  0  0  0  0  0  0  0  0  0  0
  -23.5397   -4.1337   21.0516 C   0  0  0  0  0  0  0  0  0  0  0  0
  -25.7159  -22.5825   18.9537 C   0  0  0  0  0  0  0  0  0  0  0  0
  -26.1003  -15.1464   14.6119 C   0  0  0  0  0  0  0  0  0  0  0  0
  -27.9992  -14.5217   15.9607 C   0  0  0  0  0  0  0  0  0  0  0  0
  -21.9287   -3.9808   22.8456 C   0  0  0  0  0  0  0  0  0  0  0  0
  -23.8722  -10.4294   21.0360 C   0  0  0  0  0  0  0  0  0  0  0  0
  -27.0794  -16.7568   16.1537 C   0  0  0  0  0  0  0  0  0  0  0  0
  -24.4433  -12.8594   21.5620 C   0  0  0  0  0  0  0  0  0  0  0  0
  -23.6857  -31.3811   21.3779 C   0  0  0  0  0  0  0  0  0  0  0  0
  -24.2188  -23.6430   20.5328 C   0  0  0  0  0  0  0  0  0  0  0  0
  -23.2348  -30.1487   20.8679 C   0  0  0  0  0  0  0  0  0  0  0  0
  -25.5004  -23.5168   19.9782 C   0  0  0  0  0  0  0  0  0  0  0  0
  -27.0429  -14.2021   14.9958 C   0  0  0  0  0  0  0  0  0  0  0  0
  -26.1239  -16.4192   15.1784 C   0  0  0  0  0  0  0  0  0  0  0  0
  -28.0179  -15.7872   16.5752 C   0  0  0  0  0  0  0  0  0  0  0  0
  -22.1960   -8.1997   21.0041 C   0  0  0  0  0  0  0  0  0  0  0  0
  -24.6742  -21.7759   18.4961 C   0  0  0  0  0  0  0  0  0  0  0  0
  -21.9179   -5.8955   21.3722 C   0  0  0  0  0  0  0  0  0  0  0  0
  -23.0063   -3.4445   22.1407 C   0  0  0  0  0  0  0  0  0  0  0  0
  -21.3845   -5.2063   22.4613 C   0  0  0  0  0  0  0  0  0  0  0  0
  -24.7386  -11.5806   21.0528 C   0  0  0  0  0  0  0  0  0  0  0  0
  -25.5859  -13.5891   21.3414 C   0  0  0  0  0  0  0  0  0  0  0  0
  -27.1675  -18.1292   16.6895 C   0  0  0  0  0  0  0  0  0  0  0  0
  -26.1099  -18.9350   16.8688 C   0  0  0  0  0  0  0  0  0  0  0  0
  -23.2435  -13.3444   22.1792 C   0  0  0  0  0  0  0  0  0  0  0  0
  -24.7285  -26.7798   20.5990 C   0  0  0  0  0  0  0  0  0  0  0  0
  -27.3531  -25.9239   22.3024 C   0  0  0  0  0  0  0  0  0  0  0  0
  -29.6536  -23.5223   23.0684 C   0  0  0  0  0  0  0  0  0  0  0  0
  -29.8301  -15.1562   18.2027 C   0  0  0  0  0  0  0  0  0  0  0  0
  -25.1153  -31.8326   21.2131 C   0  0  0  0  0  0  0  0  0  0  0  0
  -23.9644  -24.6188   21.6489 C   0  0  0  0  0  0  0  0  0  0  0  0
  -26.6541  -24.3642   20.4466 C   0  0  0  0  0  0  0  0  0  0  0  0
  -28.5620  -18.5316   17.0620 C   0  0  0  0  0  0  0  0  0  0  0  0
  -26.0760  -30.6983   20.8660 C   0  0  0  0  0  0  0  0  0  0  0  0
  -30.2073  -12.1370   19.9044 C   0  0  0  0  0  0  0  0  0  0  0  0
  -25.4949  -29.8270   19.7569 C   0  0  0  0  0  0  0  0  0  0  0  0
  -28.7968  -11.8166   20.3994 C   0  0  0  0  0  0  0  0  0  0  0  0
  -29.1641  -17.5006   18.0019 C   0  0  0  0  0  0  0  0  0  0  0  0
  -30.1751  -12.7181   18.4952 C   0  0  0  0  0  0  0  0  0  0  0  0
  -27.9007  -13.6223   18.8517 C   0  0  0  0  0  0  0  0  0  0  0  0
  -24.1803  -29.1738   20.2002 C   0  0  1  0  0  0  0  0  0  0  0  0
  -24.9702  -25.7654   21.6808 C   0  0  1  0  0  0  0  0  0  0  0  0
  -27.8759  -13.0442   20.2802 C   0  0  1  0  0  0  0  0  0  0  0  0
  -27.0328  -12.8441   14.3779 C   0  0  0  0  0  0  0  0  0  0  0  0
  -25.1402  -17.3804   14.5909 C   0  0  0  0  0  0  0  0  0  0  0  0
  -31.7010  -23.1297   24.4653 C   0  0  0  0  0  0  0  0  0  0  0  0
  -29.0142  -27.5397   20.3176 C   0  0  0  0  0  0  0  0  0  0  0  0
  -31.0516  -26.3595   21.1685 C   0  0  0  0  0  0  0  0  0  0  0  0
  -29.7081  -27.7916   22.7070 C   0  0  0  0  0  0  0  0  0  0  0  0
  -28.3379  -21.3551   24.5953 C   0  0  0  0  0  0  0  0  0  0  0  0
  -26.2078  -20.3184   17.4100 C   0  0  0  0  0  0  0  0  0  1  0  0
  -28.7783  -25.5622   21.9606 C   0  0  1  0  0  0  0  0  0  0  0  0
  -30.1852  -23.0250   24.4005 C   0  0  2  0  0  0  0  0  0  0  0  0
  -29.6161  -26.7985   21.5280 C   0  0  0  0  0  0  0  0  0  0  0  0
  -25.9720  -11.4993   20.5468 N   0  0  0  0  0  0  0  0  0  0  0  0
  -26.4618  -12.7362   20.7368 N   0  0  0  0  0  0  0  0  0  0  0  0
  -28.9890  -16.1050   17.5923 N   0  0  0  0  0  0  0  0  0  0  0  0
  -26.3537  -25.3080   21.5359 N   0  0  0  0  0  0  0  0  0  0  0  0
  -29.2866  -13.8785   18.4271 N   0  0  0  0  0  0  0  0  0  0  0  0
  -25.9166  -14.8705   21.6075 N   0  0  0  0  0  0  0  0  0  0  0  0
  -22.1649  -12.4619   22.3279 N   0  0  0  0  0  0  0  0  0  0  0  0
  -24.4437  -28.0473   21.0698 N   0  0  0  0  0  0  0  0  0  0  0  0
  -29.3100  -24.8566   23.1216 N   0  0  0  0  0  0  0  0  0  0  0  0
  -29.8031  -21.6000   24.6113 N   0  3  0  0  0  0  0  0  0  0  0  0
  -23.1255  -14.5298   22.5720 O   0  0  0  0  0  0  0  0  0  0  0  0
  -24.7970  -26.4381   19.4242 O   0  0  0  0  0  0  0  0  0  0  0  0
  -27.1343  -26.7181   23.2206 O   0  0  0  0  0  0  0  0  0  0  0  0
  -29.5565  -22.8003   22.0785 O   0  0  0  0  0  0  0  0  0  0  0  0
  -30.9678  -15.4596   18.5824 O   0  0  0  0  0  0  0  0  0  0  0  0
  -21.3782   -7.1118   20.9889 O   0  0  0  0  0  0  0  0  0  0  0  0
  -24.8997  -20.8662   17.4956 O   0  0  0  0  0  0  0  0  0  1  0  0
  -23.5281   -2.2670   22.5087 F   0  0  0  0  0  0  0  0  0  0  0  0
  -20.3485   -5.7159   23.1416 F   0  0  0  0  0  0  0  0  0  0  0  0
  1  2  1  0  0  0  0
  1  5  2  0  0  0  0
  2  6  2  0  0  0  0
  3  8  2  0  0  0  0
  3 17  1  0  0  0  0
  4  9  1  0  0  0  0
  4 17  2  0  0  0  0
  5 20  1  0  0  0  0
  6 22  1  0  0  0  0
  7 10  2  0  0  0  0
  7 21  1  0  0  0  0
  8 27  1  0  0  0  0
  9 27  2  0  0  0  0
 10 28  1  0  0  0  0
 11 12  2  0  0  0  0
 11 29  1  0  0  0  0
 12 30  1  0  0  0  0
 13 23  1  0  0  0  0
 13 28  2  0  0  0  0
 14 24  1  0  0  0  0
 14 25  2  0  0  0  0
 15 24  2  0  0  0  0
 15 26  1  0  0  0  0
 16 30  2  0  0  0  0
 16 31  1  0  0  0  0
 17 32  1  0  0  0  0
 18 25  1  0  0  0  0
 18 26  2  0  0  0  0
 18 34  1  0  0  0  0
 19 32  1  0  0  0  0
 19 33  2  0  0  0  0
 19 36  1  0  0  0  0
 20 22  2  0  0  0  0
 20 41  1  0  0  0  0
 21 23  2  0  0  0  0
 21 42  1  0  0  0  0
 22 52  1  0  0  0  0
 23 43  1  0  0  0  0
 24 55  1  0  0  0  0
 25 56  1  0  0  0  0
 26 68  1  0  0  0  0
 27 81  1  0  0  0  0
 28 82  1  0  0  0  0
 29 31  2  0  0  0  0
 29 81  1  0  0  0  0
 30 83  1  0  0  0  0
 31 84  1  0  0  0  0
 32 66  2  0  0  0  0
 33 67  1  0  0  0  0
 33 71  1  0  0  0  0
 34 35  2  0  0  0  0
 34 44  1  0  0  0  0
 35 62  1  0  0  0  0
 36 72  1  0  0  0  0
 36 76  2  0  0  0  0
 37 53  1  0  0  0  0
 37 73  1  0  0  0  0
 37 77  2  0  0  0  0
 38 63  1  0  0  0  0
 38 69  1  0  0  0  0
 38 78  2  0  0  0  0
 39 64  1  0  0  0  0
 39 74  1  0  0  0  0
 39 79  2  0  0  0  0
 40 68  1  0  0  0  0
 40 70  1  0  0  0  0
 40 80  2  0  0  0  0
 41 45  1  0  0  0  0
 42 53  1  0  0  0  0
 43 69  1  0  0  0  0
 44 49  1  0  0  0  0
 45 47  1  0  0  0  0
 46 48  1  0  0  0  0
 46 50  1  0  0  0  0
 47 52  1  0  0  0  0
 48 54  1  0  0  0  0
 49 68  1  0  0  0  0
 50 70  1  0  0  0  0
 51 54  1  0  0  0  0
 51 70  1  0  0  0  0
 52 73  1  0  0  0  0
 53 69  1  0  0  0  0
 54 67  1  0  0  0  0
 57 64  1  0  0  0  0
 58 65  1  0  0  0  0
 59 65  1  0  0  0  0
 60 65  1  0  0  0  0
 61 75  1  0  0  0  0
 62 82  1  0  0  0  0
 63 65  1  0  0  0  0
 63 74  1  0  0  0  0
 64 75  1  0  0  0  0
 66 67  1  0  0  0  0
M  CHG  1  75   1
M  ISO  4  40 100  62 101  68 100  82 101
M  END
> <Batch ID>
0047

> <Smiles>
CNC(C)C(=O)NC(C(=O)N1Cc2cc([101O:1][101CH2:1]C=C3CC[100N:0]([100C:0](=O)N4CCCC(n5nc(-c6ccc(Oc7ccc(F)cc7F)cc6)c(C(N)=O)c5N)C4)c4cc(C)cc(C)c43)ccc2CC1C(=O)NC1CCCc2ccccc21)C(C)(C)C

> <Shape>
0.226

> <Color>
0.133

> <Negative vol penalty>
0.000

$$$$

  -OEChem-04042322263D

 89 98  0     1  0  0  0  0  0999 V2000
  -26.0655  -35.9864   16.4646 C   0  0  0  0  0  0  0  0  0  0  0  0
  -26.4840  -34.6598   16.4841 C   0  0  0  0  0  0  0  0  0  0  0  0
  -32.6424  -18.4066   21.7805 C   0  0  0  0  0  0  0  0  0  0  0  0
  -22.8730  -11.6599   22.6670 C   0  0  0  0  0  0  0  0  0  0  0  0
  -23.3385  -10.0216   20.9535 C   0  0  0  0  0  0  0  0  0  0  0  0
  -25.8516  -36.6663   17.6629 C   0  0  0  0  0  0  0  0  0  0  0  0
  -26.6899  -34.0126   17.7020 C   0  0  0  0  0  0  0  0  0  0  0  0
  -25.6469  -28.1098   18.9568 C   0  0  0  0  0  0  0  0  0  0  0  0
  -31.8663  -19.5493   21.9738 C   0  0  0  0  0  0  0  0  0  0  0  0
  -32.0574  -17.2422   21.2826 C   0  0  0  0  0  0  0  0  0  0  0  0
  -22.0123  -10.7592   23.2943 C   0  0  0  0  0  0  0  0  0  0  0  0
  -22.4779   -9.1208   21.5809 C   0  0  0  0  0  0  0  0  0  0  0  0
  -26.4883  -26.9995   19.0111 C   0  0  0  0  0  0  0  0  0  0  0  0
  -22.5666   -7.0290   24.2336 C   0  0  0  0  0  0  0  0  0  0  0  0
  -23.0033   -5.7123   24.3798 C   0  0  0  0  0  0  0  0  0  0  0  0
  -26.6971  -27.2820   21.3977 C   0  0  0  0  0  0  0  0  0  0  0  0
  -21.1207   -4.9431   23.0755 C   0  0  0  0  0  0  0  0  0  0  0  0
  -23.5360  -11.2911   21.4965 C   0  0  0  0  0  0  0  0  0  0  0  0
  -24.0995  -13.4914   20.3351 C   0  0  0  0  0  0  0  0  0  0  0  0
  -26.0456  -36.0242   18.8961 C   0  0  0  0  0  0  0  0  0  0  0  0
  -25.3324  -28.8223   20.1229 C   0  0  0  0  0  0  0  0  0  0  0  0
  -26.4797  -34.6850   18.9179 C   0  0  0  0  0  0  0  0  0  0  0  0
  -25.8493  -28.3995   21.3558 C   0  0  0  0  0  0  0  0  0  0  0  0
  -30.5053  -19.5278   21.6693 C   0  0  0  0  0  0  0  0  0  0  0  0
  -29.9203  -18.3635   21.1714 C   0  0  0  0  0  0  0  0  0  0  0  0
  -30.6964  -17.2207   20.9781 C   0  0  0  0  0  0  0  0  0  0  0  0
  -21.8147   -9.4897   22.7513 C   0  0  0  0  0  0  0  0  0  0  0  0
  -27.0159  -26.5872   20.2312 C   0  0  0  0  0  0  0  0  0  0  0  0
  -21.4070   -7.3027   23.5083 C   0  0  0  0  0  0  0  0  0  0  0  0
  -22.2804   -4.6694   23.8007 C   0  0  0  0  0  0  0  0  0  0  0  0
  -20.6840   -6.2598   22.9293 C   0  0  0  0  0  0  0  0  0  0  0  0
  -24.4248  -12.2213   20.8476 C   0  0  0  0  0  0  0  0  0  0  0  0
  -25.2821  -13.9693   19.8257 C   0  0  0  0  0  0  0  0  0  0  0  0
  -28.5430  -22.6556   20.8675 C   0  0  0  0  0  0  0  0  0  0  0  0
  -25.3421  -21.2409   19.7550 C   0  0  0  0  0  0  0  0  0  0  0  0
  -27.2364  -22.5490   20.5725 C   0  0  0  0  0  0  0  0  0  0  0  0
  -26.6429  -21.3464   20.0485 C   0  0  0  0  0  0  0  0  0  0  0  0
  -22.8408  -14.1779   20.3208 C   0  0  0  0  0  0  0  0  0  0  0  0
  -25.8021  -31.8015   21.1267 C   0  0  0  0  0  0  0  0  0  0  0  0
  -23.9612  -30.8381   23.6178 C   0  0  0  0  0  0  0  0  0  0  0  0
  -22.7807  -28.2643   25.5227 C   0  0  0  0  0  0  0  0  0  0  0  0
  -30.7705  -14.8165   20.2291 C   0  0  0  0  0  0  0  0  0  0  0  0
  -25.8472  -36.8146   20.1652 C   0  0  0  0  0  0  0  0  0  0  0  0
  -24.4018  -30.0018   20.0513 C   0  0  0  0  0  0  0  0  0  0  0  0
  -25.5262  -29.1179   22.6396 C   0  0  0  0  0  0  0  0  0  0  0  0
  -25.7269  -35.9432   21.4128 C   0  0  0  0  0  0  0  0  0  0  0  0
  -29.7042  -11.6399   19.0252 C   0  0  0  0  0  0  0  0  0  0  0  0
  -31.3355  -23.0128   20.3310 C   0  0  0  0  0  0  0  0  0  0  0  0
  -26.8178  -34.8772   21.4267 C   0  0  0  0  0  0  0  0  0  0  0  0
  -30.4458  -24.2339   20.5498 C   0  0  0  0  0  0  0  0  0  0  0  0
  -28.2089  -11.6125   19.3498 C   0  0  0  0  0  0  0  0  0  0  0  0
  -30.5081  -12.3481   20.1142 C   0  0  0  0  0  0  0  0  0  0  0  0
  -28.5380  -13.6665   20.7850 C   0  0  0  0  0  0  0  0  0  0  0  0
  -30.5480  -21.8431   19.7538 C   0  0  0  0  0  0  0  0  0  0  0  0
  -26.6899  -33.9412   20.2189 C   0  0  1  0  0  0  0  0  0  0  0  0
  -29.2277  -23.8952   21.4221 C   0  0  1  0  0  0  0  0  0  0  0  0
  -24.5609  -30.9606   21.2272 C   0  0  1  0  0  0  0  0  0  0  0  0
  -27.6791  -13.0204   19.6856 C   0  0  2  0  0  0  0  0  0  0  0  0
  -28.4596  -18.3453   20.8460 C   0  0  0  0  0  0  0  0  0  0  0  0
  -21.3246  -27.7919   27.5112 C   0  0  0  0  0  0  0  0  0  0  0  0
  -26.1836  -31.8045   25.4716 C   0  0  0  0  0  0  0  0  0  0  0  0
  -25.1304  -30.4749   27.3131 C   0  0  0  0  0  0  0  0  0  0  0  0
  -23.8686  -32.3448   26.2483 C   0  0  0  0  0  0  0  0  0  0  0  0
  -20.9127  -26.6284   23.9122 C   0  0  0  0  0  0  0  0  0  0  0  0
  -29.6938  -20.7708   21.8866 C   0  0  0  0  0  0  0  0  0  0  0  0
  -28.3428  -25.1373   21.5703 C   0  0  0  0  0  0  0  0  0  1  0  0
  -24.2272  -30.1994   24.9595 C   0  0  1  0  0  0  0  0  0  0  0  0
  -21.3798  -27.9223   25.9971 C   0  0  2  0  0  0  0  0  0  0  0  0
  -24.8603  -31.1933   25.9739 C   0  0  0  0  0  0  0  0  0  0  0  0
  -25.7131  -11.9117   20.6791 N   0  0  0  0  0  0  0  0  0  0  0  0
  -26.2077  -12.9942   20.0548 N   0  0  0  0  0  0  0  0  0  0  0  0
  -24.6168  -30.2692   22.5167 N   0  0  0  0  0  0  0  0  0  0  0  0
  -29.9513  -13.6772   20.3759 N   0  0  0  0  0  0  0  0  0  0  0  0
  -25.6100  -15.1243   19.2085 N   0  0  0  0  0  0  0  0  0  0  0  0
  -21.9896  -13.9898   19.2233 N   0  0  0  0  0  0  0  0  0  0  0  0
  -30.1232  -16.0274   20.4729 N   0  0  0  0  0  0  0  0  0  0  0  0
  -25.6264  -32.9832   20.4323 N   0  0  0  0  0  0  0  0  0  0  0  0
  -22.9592  -29.6258   25.3971 N   0  0  0  0  0  0  0  0  0  0  0  0
  -29.3553  -21.4849   20.6070 N   0  3  1  0  0  0  0  0  0  0  0  0
  -20.9300  -26.6341   25.3977 N   0  3  0  0  0  0  0  0  0  0  0  0
  -22.4887  -14.9485   21.2458 O   0  0  0  0  0  0  0  0  0  0  0  0
  -26.8418  -31.4080   21.6424 O   0  0  0  0  0  0  0  0  0  0  0  0
  -23.1941  -31.8017   23.5481 O   0  0  0  0  0  0  0  0  0  0  0  0
  -23.6326  -27.4094   25.2906 O   0  0  0  0  0  0  0  0  0  0  0  0
  -31.9515  -14.7266   19.8841 O   0  0  0  0  0  0  0  0  0  0  0  0
  -20.9752   -8.6105   23.3634 O   0  0  0  0  0  0  0  0  0  0  0  0
  -27.8380  -25.5042   20.2870 O   0  0  0  0  0  0  0  0  0  1  0  0
  -22.7006   -3.4052   23.9399 F   0  0  0  0  0  0  0  0  0  0  0  0
  -19.5698   -6.5167   22.2304 F   0  0  0  0  0  0  0  0  0  0  0  0
  1  2  1  0  0  0  0
  1  6  2  0  0  0  0
  2  7  2  0  0  0  0
  3  9  2  0  0  0  0
  3 10  1  0  0  0  0
  4 11  2  0  0  0  0
  4 18  1  0  0  0  0
  5 12  1  0  0  0  0
  5 18  2  0  0  0  0
  6 20  1  0  0  0  0
  7 22  1  0  0  0  0
  8 13  2  0  0  0  0
  8 21  1  0  0  0  0
  9 24  1  0  0  0  0
 10 26  2  0  0  0  0
 11 27  1  0  0  0  0
 12 27  2  0  0  0  0
 13 28  1  0  0  0  0
 14 15  2  0  0  0  0
 14 29  1  0  0  0  0
 15 30  1  0  0  0  0
 16 23  1  0  0  0  0
 16 28  2  0  0  0  0
 17 30  2  0  0  0  0
 17 31  1  0  0  0  0
 18 32  1  0  0  0  0
 19 32  1  0  0  0  0
 19 33  2  0  0  0  0
 19 38  1  0  0  0  0
 20 22  2  0  0  0  0
 20 43  1  0  0  0  0
 21 23  2  0  0  0  0
 21 44  1  0  0  0  0
 22 55  1  0  0  0  0
 23 45  1  0  0  0  0
 24 25  2  0  0  0  0
 24 65  1  0  0  0  0
 25 26  1  0  0  0  0
 25 59  1  0  0  0  0
 26 76  1  0  0  0  0
 27 86  1  0  0  0  0
 28 87  1  0  0  0  0
 29 31  2  0  0  0  0
 29 86  1  0  0  0  0
 30 88  1  0  0  0  0
 31 89  1  0  0  0  0
 32 70  2  0  0  0  0
 33 71  1  0  0  0  0
 33 74  1  0  0  0  0
 34 36  2  0  0  0  0
 34 56  1  0  0  0  0
 34 79  1  0  0  0  0
 35 37  2  0  0  0  0
 36 37  1  0  0  0  0
 38 75  1  0  0  0  0
 38 81  2  0  0  0  0
 39 57  1  0  0  0  0
 39 77  1  0  0  0  0
 39 82  2  0  0  0  0
 40 67  1  0  0  0  0
 40 72  1  0  0  0  0
 40 83  2  0  0  0  0
 41 68  1  0  0  0  0
 41 78  1  0  0  0  0
 41 84  2  0  0  0  0
 42 73  1  0  0  0  0
 42 76  1  0  0  0  0
 42 85  2  0  0  0  0
 43 46  1  0  0  0  0
 44 57  1  0  0  0  0
 45 72  1  0  0  0  0
 46 49  1  0  0  0  0
 47 51  1  0  0  0  0
 47 52  1  0  0  0  0
 48 50  1  0  0  0  0
 48 54  1  0  0  0  0
 49 55  1  0  0  0  0
 50 56  1  0  0  0  0
 51 58  1  0  0  0  0
 52 73  1  0  0  0  0
 53 58  1  0  0  0  0
 53 73  1  0  0  0  0
 54 79  1  0  0  0  0
 55 77  1  0  0  0  0
 56 66  1  0  0  0  0
 57 72  1  0  0  0  0
 58 71  1  0  0  0  0
 60 68  1  0  0  0  0
 61 69  1  0  0  0  0
 62 69  1  0  0  0  0
 63 69  1  0  0  0  0
 64 80  1  0  0  0  0
 65 79  1  0  0  0  0
 66 87  1  0  0  0  0
 67 69  1  0  0  0  0
 67 78  1  0  0  0  0
 68 80  1  0  0  0  0
 70 71  1  0  0  0  0
M  CHG  2  79   1  80   1
M  ISO  4  42 100  66 101  76 100  87 101
M  END
> <Batch ID>
0047

> <Smiles>
C=CC=C1C([101CH2:1][101O:1]c2ccc3c(c2)CN(C(=O)C(NC(=O)C(C)NC)C(C)(C)C)C(C(=O)NC2CCCc4ccccc42)C3)CCCN1Cc1cccc([100NH:0][100C:0](=O)N2CCCC(n3nc(-c4ccc(Oc5ccc(F)cc5F)cc4)c(C(N)=O)c3N)C2)c1C

> <Shape>
0.316

> <Color>
0.149

> <Negative vol penalty>
0.000

$$$$

  -OEChem-04042322263D

 86 95  0     1  0  0  0  0  0999 V2000
  -23.0382  -32.7902   19.9457 C   0  0  0  0  0  0  0  0  0  0  0  0
  -24.2727  -32.1517   19.8842 C   0  0  0  0  0  0  0  0  0  0  0  0
  -23.1156   -9.8825   19.9250 C   0  0  0  0  0  0  0  0  0  0  0  0
  -23.8770   -9.8831   22.2178 C   0  0  0  0  0  0  0  0  0  0  0  0
  -21.9187  -32.0977   20.4052 C   0  0  0  0  0  0  0  0  0  0  0  0
  -24.3886  -30.8206   20.2832 C   0  0  0  0  0  0  0  0  0  0  0  0
  -28.0767  -26.5641   17.8779 C   0  0  0  0  0  0  0  0  0  0  0  0
  -22.3912   -8.7151   20.1658 C   0  0  0  0  0  0  0  0  0  0  0  0
  -23.1526   -8.7158   22.4588 C   0  0  0  0  0  0  0  0  0  0  0  0
  -29.3201  -26.0702   18.2701 C   0  0  0  0  0  0  0  0  0  0  0  0
  -19.9386   -7.8595   23.0566 C   0  0  0  0  0  0  0  0  0  0  0  0
  -19.1832   -7.7973   24.2276 C   0  0  0  0  0  0  0  0  0  0  0  0
  -28.2302  -24.2325   19.3899 C   0  0  0  0  0  0  0  0  0  0  0  0
  -31.0680  -17.8091   20.6286 C   0  0  0  0  0  0  0  0  0  0  0  0
  -29.6103  -19.3997   22.3971 C   0  0  0  0  0  0  0  0  0  0  0  0
  -20.4572   -5.8747   24.9473 C   0  0  0  0  0  0  0  0  0  0  0  0
  -23.8586  -10.4665   20.9510 C   0  0  0  0  0  0  0  0  0  0  0  0
  -24.1583  -12.9979   20.8516 C   0  0  0  0  0  0  0  0  0  0  0  0
  -22.0190  -30.7546   20.8009 C   0  0  0  0  0  0  0  0  0  0  0  0
  -26.8982  -25.9007   18.2486 C   0  0  0  0  0  0  0  0  0  0  0  0
  -23.2696  -30.1100   20.7497 C   0  0  0  0  0  0  0  0  0  0  0  0
  -26.9732  -24.7186   18.9990 C   0  0  0  0  0  0  0  0  0  0  0  0
  -31.2362  -19.1937   20.6219 C   0  0  0  0  0  0  0  0  0  0  0  0
  -30.5074  -19.9891   21.5062 C   0  0  0  0  0  0  0  0  0  0  0  0
  -30.1709  -17.2197   21.5195 C   0  0  0  0  0  0  0  0  0  0  0  0
  -22.4096   -8.1317   21.4327 C   0  0  0  0  0  0  0  0  0  0  0  0
  -29.3969  -24.9059   19.0287 C   0  0  0  0  0  0  0  0  0  0  0  0
  -20.9532   -6.9292   22.8309 C   0  0  0  0  0  0  0  0  0  0  0  0
  -19.4426   -6.8049   25.1729 C   0  0  0  0  0  0  0  0  0  0  0  0
  -21.2125   -5.9369   23.7762 C   0  0  0  0  0  0  0  0  0  0  0  0
  -29.4421  -18.0151   22.4037 C   0  0  0  0  0  0  0  0  0  0  0  0
  -24.6076  -11.6721   20.7026 C   0  0  0  0  0  0  0  0  0  0  0  0
  -25.2376  -13.7684   20.4939 C   0  0  0  0  0  0  0  0  0  0  0  0
  -30.3998  -22.2192   20.3821 C   0  0  0  0  0  0  0  0  0  0  0  0
  -22.8798  -13.4890   21.2756 C   0  0  0  0  0  0  0  0  0  0  0  0
  -24.3508  -26.6589   19.9921 C   0  0  0  0  0  0  0  0  0  0  0  0
  -23.2640  -23.7875   18.9450 C   0  0  0  0  0  0  0  0  0  0  0  0
  -23.9915  -20.6782   17.7409 C   0  0  0  0  0  0  0  0  0  0  0  0
  -30.6858  -14.9032   20.6739 C   0  0  0  0  0  0  0  0  0  0  0  0
  -20.7906  -30.0616   21.3353 C   0  0  0  0  0  0  0  0  0  0  0  0
  -25.5660  -26.4316   17.7949 C   0  0  0  0  0  0  0  0  0  0  0  0
  -25.7387  -23.9577   19.4057 C   0  0  0  0  0  0  0  0  0  0  0  0
  -20.9222  -28.5416   21.3856 C   0  0  0  0  0  0  0  0  0  0  0  0
  -32.2307  -23.0562   22.5158 C   0  0  0  0  0  0  0  0  0  0  0  0
  -29.6099  -12.4908   18.2864 C   0  0  0  0  0  0  0  0  0  0  0  0
  -22.2614  -28.1416   21.9966 C   0  0  0  0  0  0  0  0  0  0  0  0
  -32.0449  -23.8825   21.2443 C   0  0  0  0  0  0  0  0  0  0  0  0
  -28.1756  -12.1718   18.7145 C   0  0  0  0  0  0  0  0  0  0  0  0
  -31.0710  -22.0952   22.7535 C   0  0  0  0  0  0  0  0  0  0  0  0
  -30.5220  -12.7249   19.4894 C   0  0  0  0  0  0  0  0  0  0  0  0
  -28.6043  -13.4061   20.8777 C   0  0  0  0  0  0  0  0  0  0  0  0
  -23.4306  -28.6595   21.1503 C   0  0  1  0  0  0  0  0  0  0  0  0
  -30.6592  -23.7042   20.6335 C   0  0  1  0  0  0  0  0  0  1  0  0
  -24.4060  -25.9570   18.6647 C   0  0  1  0  0  0  0  0  0  0  0  0
  -27.6336  -13.2264   19.6991 C   0  0  2  0  0  0  0  0  0  0  0  0
  -32.2038  -19.7979   19.6568 C   0  0  0  0  0  0  0  0  0  0  0  0
  -22.8953  -18.5410   17.0141 C   0  0  0  0  0  0  0  0  0  0  0  0
  -22.7721  -23.0498   21.8645 C   0  0  0  0  0  0  0  0  0  0  0  0
  -22.5987  -20.6543   21.1575 C   0  0  0  0  0  0  0  0  0  0  0  0
  -20.9683  -22.3305   20.2886 C   0  0  0  0  0  0  0  0  0  0  0  0
  -25.0780  -20.9178   14.9984 C   0  0  0  0  0  0  0  0  0  0  0  0
  -23.3508  -22.3652   19.4433 C   0  0  1  0  0  0  0  0  0  0  0  0
  -23.4278  -19.8944   16.5694 C   0  0  2  0  0  0  0  0  0  0  0  0
  -22.4458  -22.1151   20.6826 C   0  0  0  0  0  0  0  0  0  0  0  0
  -25.8736  -11.6007   20.2828 N   0  0  0  0  0  0  0  0  0  0  0  0
  -26.2290  -12.8914   20.1648 N   0  0  0  0  0  0  0  0  0  0  0  0
  -30.6667  -21.4182   21.5149 N   0  0  0  0  0  0  0  0  0  0  0  0
  -24.4592  -24.5204   18.9432 N   0  0  0  0  0  0  0  0  0  0  0  0
  -29.9466  -13.7390   20.3756 N   0  0  0  0  0  0  0  0  0  0  0  0
  -25.4258  -15.1037   20.4318 N   0  0  0  0  0  0  0  0  0  0  0  0
  -21.8833  -12.5604   21.6059 N   0  0  0  0  0  0  0  0  0  0  0  0
  -30.0238  -15.8106   21.5003 N   0  0  0  0  0  0  0  0  0  0  0  0
  -23.6146  -27.8282   19.9800 N   0  0  0  0  0  0  0  0  0  0  0  0
  -23.0463  -21.5125   18.2993 N   0  0  0  0  0  0  0  0  0  0  0  0
  -24.4826  -19.6696   15.5410 N   0  3  0  0  0  0  0  0  0  0  0  0
  -30.0381  -21.8292   19.2733 O   0  0  0  0  0  0  0  0  0  0  0  0
  -22.6231  -14.7150   21.3432 O   0  0  0  0  0  0  0  0  0  0  0  0
  -24.9318  -26.1746   20.9562 O   0  0  0  0  0  0  0  0  0  0  0  0
  -22.1771  -24.2297   18.5644 O   0  0  0  0  0  0  0  0  0  0  0  0
  -25.1530  -20.5594   18.1247 O   0  0  0  0  0  0  0  0  0  0  0  0
  -31.8116  -15.0945   20.2070 O   0  0  0  0  0  0  0  0  0  0  0  0
  -21.7027   -6.9927   21.6682 O   0  0  0  0  0  0  0  0  0  0  0  0
  -30.6092  -24.4221   19.4134 O   0  0  0  0  0  0  0  0  0  1  0  0
  -18.7182   -6.7463   26.2981 F   0  0  0  0  0  0  0  0  0  0  0  0
  -22.1867   -5.0412   23.5655 F   0  0  0  0  0  0  0  0  0  0  0  0
  -28.3201  -17.3261   23.5224 Cl  0  0  0  0  0  0  0  0  0  0  0  0
  1  2  1  0  0  0  0
  1  5  2  0  0  0  0
  2  6  2  0  0  0  0
  3  8  2  0  0  0  0
  3 17  1  0  0  0  0
  4  9  1  0  0  0  0
  4 17  2  0  0  0  0
  5 19  1  0  0  0  0
  6 21  1  0  0  0  0
  7 10  2  0  0  0  0
  7 20  1  0  0  0  0
  8 26  1  0  0  0  0
  9 26  2  0  0  0  0
 10 27  1  0  0  0  0
 11 12  2  0  0  0  0
 11 28  1  0  0  0  0
 12 29  1  0  0  0  0
 13 22  1  0  0  0  0
 13 27  2  0  0  0  0
 14 23  1  0  0  0  0
 14 25  2  0  0  0  0
 15 24  1  0  0  0  0
 15 31  2  0  0  0  0
 16 29  2  0  0  0  0
 16 30  1  0  0  0  0
 17 32  1  0  0  0  0
 18 32  1  0  0  0  0
 18 33  2  0  0  0  0
 18 35  1  0  0  0  0
 19 21  2  0  0  0  0
 19 40  1  0  0  0  0
 20 22  2  0  0  0  0
 20 41  1  0  0  0  0
 21 52  1  0  0  0  0
 22 42  1  0  0  0  0
 23 24  2  0  0  0  0
 23 56  1  0  0  0  0
 24 67  1  0  0  0  0
 25 31  1  0  0  0  0
 25 72  1  0  0  0  0
 26 82  1  0  0  0  0
 27 83  1  0  0  0  0
 28 30  2  0  0  0  0
 28 82  1  0  0  0  0
 29 84  1  0  0  0  0
 30 85  1  0  0  0  0
 31 86  1  0  0  0  0
 32 65  2  0  0  0  0
 33 66  1  0  0  0  0
 33 70  1  0  0  0  0
 34 53  1  0  0  0  0
 34 67  1  0  0  0  0
 34 76  2  0  0  0  0
 35 71  1  0  0  0  0
 35 77  2  0  0  0  0
 36 54  1  0  0  0  0
 36 73  1  0  0  0  0
 36 78  2  0  0  0  0
 37 62  1  0  0  0  0
 37 68  1  0  0  0  0
 37 79  2  0  0  0  0
 38 63  1  0  0  0  0
 38 74  1  0  0  0  0
 38 80  2  0  0  0  0
 39 69  1  0  0  0  0
 39 72  1  0  0  0  0
 39 81  2  0  0  0  0
 40 43  1  0  0  0  0
 41 54  1  0  0  0  0
 42 68  1  0  0  0  0
 43 46  1  0  0  0  0
 44 47  1  0  0  0  0
 44 49  1  0  0  0  0
 45 48  1  0  0  0  0
 45 50  1  0  0  0  0
 46 52  1  0  0  0  0
 47 53  1  0  0  0  0
 48 55  1  0  0  0  0
 49 67  1  0  0  0  0
 50 69  1  0  0  0  0
 51 55  1  0  0  0  0
 51 69  1  0  0  0  0
 52 73  1  0  0  0  0
 53 83  1  0  0  0  0
 54 68  1  0  0  0  0
 55 66  1  0  0  0  0
 57 63  1  0  0  0  0
 58 64  1  0  0  0  0
 59 64  1  0  0  0  0
 60 64  1  0  0  0  0
 61 75  1  0  0  0  0
 62 64  1  0  0  0  0
 62 74  1  0  0  0  0
 63 75  1  0  0  0  0
 65 66  1  0  0  0  0
M  CHG  1  75   1
M  ISO  4  39 100  53 101  72 100  83 101
M  END
> <Batch ID>
0047

> <Smiles>
CNC(C)C(=O)NC(C(=O)N1Cc2cc([101O:1][101CH:1]3CCCN(c4cc(Cl)c([100NH:0][100C:0](=O)N5CCCC(n6nc(-c7ccc(Oc8ccc(F)cc8F)cc7)c(C(N)=O)c6N)C5)cc4C)C3=O)ccc2CC1C(=O)NC1CCCc2ccccc21)C(C)(C)C

> <Shape>
0.281

> <Color>
0.205

> <Negative vol penalty>
0.000

$$$$

  -OEChem-04042322263D

 90 99  0     1  0  0  0  0  0999 V2000
  -24.7058  -29.8901   22.0297 C   0  0  0  0  0  0  0  0  0  0  0  0
  -25.6438  -28.9359   22.4104 C   0  0  0  0  0  0  0  0  0  0  0  0
  -33.3000  -15.2077   24.4785 C   0  0  0  0  0  0  0  0  0  0  0  0
  -23.2243   -9.8184   19.9869 C   0  0  0  0  0  0  0  0  0  0  0  0
  -23.8988   -9.9629   22.3024 C   0  0  0  0  0  0  0  0  0  0  0  0
  -32.6534  -15.7285   25.5994 C   0  0  0  0  0  0  0  0  0  0  0  0
  -23.3444  -29.6057   22.1280 C   0  0  0  0  0  0  0  0  0  0  0  0
  -25.2209  -27.6970   22.8908 C   0  0  0  0  0  0  0  0  0  0  0  0
  -27.1353  -20.7946   22.9807 C   0  0  0  0  0  0  0  0  0  0  0  0
  -32.5615  -14.8513   23.3501 C   0  0  0  0  0  0  0  0  0  0  0  0
  -22.5348   -8.6374   20.2614 C   0  0  0  0  0  0  0  0  0  0  0  0
  -23.2092   -8.7818   22.5769 C   0  0  0  0  0  0  0  0  0  0  0  0
  -27.3390  -19.7449   23.8754 C   0  0  0  0  0  0  0  0  0  0  0  0
  -20.0087   -7.8329   23.1032 C   0  0  0  0  0  0  0  0  0  0  0  0
  -19.2129   -7.8001   24.2483 C   0  0  0  0  0  0  0  0  0  0  0  0
  -24.9622  -19.3357   23.9270 C   0  0  0  0  0  0  0  0  0  0  0  0
  -20.5288   -5.9665   25.1103 C   0  0  0  0  0  0  0  0  0  0  0  0
  -23.9064  -10.4811   21.0074 C   0  0  0  0  0  0  0  0  0  0  0  0
  -31.2683  -15.8928   25.5919 C   0  0  0  0  0  0  0  0  0  0  0  0
  -24.1163  -13.0141   20.7892 C   0  0  0  0  0  0  0  0  0  0  0  0
  -22.9047  -28.3592   22.6007 C   0  0  0  0  0  0  0  0  0  0  0  0
  -25.8404  -21.1303   22.5602 C   0  0  0  0  0  0  0  0  0  0  0  0
  -23.8523  -27.3962   22.9968 C   0  0  0  0  0  0  0  0  0  0  0  0
  -24.7450  -20.3884   23.0249 C   0  0  0  0  0  0  0  0  0  0  0  0
  -31.1763  -15.0156   23.3427 C   0  0  0  0  0  0  0  0  0  0  0  0
  -22.5272   -8.1191   21.5564 C   0  0  0  0  0  0  0  0  0  0  0  0
  -26.2521  -19.0172   24.3509 C   0  0  0  0  0  0  0  0  0  0  0  0
  -21.0646   -6.9325   22.9617 C   0  0  0  0  0  0  0  0  0  0  0  0
  -19.4729   -6.8669   25.2518 C   0  0  0  0  0  0  0  0  0  0  0  0
  -21.3247   -5.9993   23.9652 C   0  0  0  0  0  0  0  0  0  0  0  0
  -30.5297  -15.5364   24.4635 C   0  0  0  0  0  0  0  0  0  0  0  0
  -24.6193  -11.7009   20.7244 C   0  0  0  0  0  0  0  0  0  0  0  0
  -25.1792  -13.8069   20.4311 C   0  0  0  0  0  0  0  0  0  0  0  0
  -25.7880  -17.7362   28.5933 C   0  0  0  0  0  0  0  0  0  0  0  0
  -25.9704  -17.1182   27.4101 C   0  0  0  0  0  0  0  0  0  0  0  0
  -26.7468  -15.8741   27.3194 C   0  0  0  0  0  0  0  0  0  0  0  0
  -26.7811  -15.0965   26.2228 C   0  0  0  0  0  0  0  0  0  0  0  0
  -30.5870  -16.4451   26.7799 C   0  0  0  0  0  0  0  0  0  0  0  0
  -22.8056  -13.4761   21.1417 C   0  0  0  0  0  0  0  0  0  0  0  0
  -23.9985  -23.7088   22.8102 C   0  0  0  0  0  0  0  0  0  0  0  0
  -22.0244  -22.0073   20.8788 C   0  0  0  0  0  0  0  0  0  0  0  0
  -21.0216  -18.9556   19.7262 C   0  0  0  0  0  0  0  0  0  0  0  0
  -30.9181  -14.1240   21.0007 C   0  0  0  0  0  0  0  0  0  0  0  0
  -21.4223  -28.1151   22.7337 C   0  0  0  0  0  0  0  0  0  0  0  0
  -25.6399  -22.2482   21.5740 C   0  0  0  0  0  0  0  0  0  0  0  0
  -23.3366  -20.6956   22.5885 C   0  0  0  0  0  0  0  0  0  0  0  0
  -26.2911  -17.2207   29.9087 C   0  0  0  0  0  0  0  0  0  0  0  0
  -21.0603  -26.6414   22.8999 C   0  0  0  0  0  0  0  0  0  0  0  0
  -26.7413  -15.7632   29.8327 C   0  0  0  0  0  0  0  0  0  0  0  0
  -29.4007  -13.0677   17.9579 C   0  0  0  0  0  0  0  0  0  0  0  0
  -21.9643  -25.9833   23.9374 C   0  0  0  0  0  0  0  0  0  0  0  0
  -27.9635  -12.7356   18.3657 C   0  0  0  0  0  0  0  0  0  0  0  0
  -30.4023  -12.6809   19.0446 C   0  0  0  0  0  0  0  0  0  0  0  0
  -28.6727  -12.8880   20.7866 C   0  0  0  0  0  0  0  0  0  0  0  0
  -23.4331  -26.0317   23.4994 C   0  0  1  0  0  0  0  0  0  0  0  0
  -27.5385  -15.4633   28.5554 C   0  0  2  0  0  0  0  0  0  0  0  0
  -24.2314  -22.8329   21.6117 C   0  0  1  0  0  0  0  0  0  0  0  0
  -27.6216  -13.3190   19.7508 C   0  0  2  0  0  0  0  0  0  0  0  0
  -19.3603  -17.8818   18.1822 C   0  0  0  0  0  0  0  0  0  0  0  0
  -19.8170  -22.4745   22.9329 C   0  0  0  0  0  0  0  0  0  0  0  0
  -18.5113  -20.6362   21.8447 C   0  0  0  0  0  0  0  0  0  0  0  0
  -19.0875  -22.6894   20.5504 C   0  0  0  0  0  0  0  0  0  0  0  0
  -23.1615  -17.7898   18.0468 C   0  0  0  0  0  0  0  0  0  0  0  0
  -25.3996  -17.7222   26.1543 C   0  0  0  0  0  0  0  0  0  1  0  0
  -28.9181  -16.1322   28.5725 C   0  0  0  0  0  0  0  0  0  0  0  0
  -20.9046  -21.0191   21.0985 C   0  0  1  0  0  0  0  0  0  0  0  0
  -20.7665  -18.4441   18.3199 C   0  0  2  0  0  0  0  0  0  0  0  0
  -19.6064  -21.7000   21.6166 C   0  0  0  0  0  0  0  0  0  0  0  0
  -25.9019  -11.6576   20.3541 N   0  0  0  0  0  0  0  0  0  0  0  0
  -26.2138  -12.9536   20.1828 N   0  0  0  0  0  0  0  0  0  0  0  0
  -23.1917  -21.8019   21.6279 N   0  0  0  0  0  0  0  0  0  0  0  0
  -30.0165  -13.2728   20.3274 N   0  0  0  0  0  0  0  0  0  0  0  0
  -25.3204  -15.1438   20.3073 N   0  0  0  0  0  0  0  0  0  0  0  0
  -30.9283  -17.6674   27.1881 N   0  0  0  0  0  0  0  0  0  0  0  0
  -21.8323  -12.5273   21.4836 N   0  0  0  0  0  0  0  0  0  0  0  0
  -30.4291  -14.6534   22.1945 N   0  0  0  0  0  0  0  0  0  0  0  0
  -23.6955  -25.0204   22.4981 N   0  0  0  0  0  0  0  0  0  0  0  0
  -20.7410  -20.3009   19.8392 N   0  0  0  0  0  0  0  0  0  0  0  0
  -29.6594  -15.6953   27.3961 N   0  3  0  0  0  0  0  0  0  0  0  0
  -21.7387  -17.3684   17.9757 N   0  3  0  0  0  0  0  0  0  0  0  0
  -22.5017  -14.6931   21.1373 O   0  0  0  0  0  0  0  0  0  0  0  0
  -24.0858  -23.2298   23.9347 O   0  0  0  0  0  0  0  0  0  0  0  0
  -21.8718  -22.9235   20.0670 O   0  0  0  0  0  0  0  0  0  0  0  0
  -21.4256  -18.2332   20.6348 O   0  0  0  0  0  0  0  0  0  0  0  0
  -32.0310  -14.3871   20.5378 O   0  0  0  0  0  0  0  0  0  0  0  0
  -21.8543   -6.9668   21.8246 O   0  0  0  0  0  0  0  0  0  0  0  0
  -26.4481  -17.9925   25.2248 O   0  0  0  0  0  0  0  0  0  1  0  0
  -18.7096   -6.8365   26.3521 F   0  0  0  0  0  0  0  0  0  0  0  0
  -22.3383   -5.1325   23.8354 F   0  0  0  0  0  0  0  0  0  0  0  0
  -29.1975  -15.6953   24.4579 F   0  0  0  0  0  0  0  0  0  0  0  0
  1  2  1  0  0  0  0
  1  7  2  0  0  0  0
  2  8  2  0  0  0  0
  3  6  2  0  0  0  0
  3 10  1  0  0  0  0
  4 11  2  0  0  0  0
  4 18  1  0  0  0  0
  5 12  1  0  0  0  0
  5 18  2  0  0  0  0
  6 19  1  0  0  0  0
  7 21  1  0  0  0  0
  8 23  1  0  0  0  0
  9 13  2  0  0  0  0
  9 22  1  0  0  0  0
 10 25  2  0  0  0  0
 11 26  1  0  0  0  0
 12 26  2  0  0  0  0
 13 27  1  0  0  0  0
 14 15  2  0  0  0  0
 14 28  1  0  0  0  0
 15 29  1  0  0  0  0
 16 24  1  0  0  0  0
 16 27  2  0  0  0  0
 17 29  2  0  0  0  0
 17 30  1  0  0  0  0
 18 32  1  0  0  0  0
 19 31  2  0  0  0  0
 19 38  1  0  0  0  0
 20 32  1  0  0  0  0
 20 33  2  0  0  0  0
 20 39  1  0  0  0  0
 21 23  2  0  0  0  0
 21 44  1  0  0  0  0
 22 24  2  0  0  0  0
 22 45  1  0  0  0  0
 23 55  1  0  0  0  0
 24 46  1  0  0  0  0
 25 31  1  0  0  0  0
 25 76  1  0  0  0  0
 26 86  1  0  0  0  0
 27 87  1  0  0  0  0
 28 30  2  0  0  0  0
 28 86  1  0  0  0  0
 29 88  1  0  0  0  0
 30 89  1  0  0  0  0
 31 90  1  0  0  0  0
 32 69  2  0  0  0  0
 33 70  1  0  0  0  0
 33 73  1  0  0  0  0
 34 35  2  0  0  0  0
 34 47  1  0  0  0  0
 35 36  1  0  0  0  0
 35 64  1  0  0  0  0
 36 37  2  0  0  0  0
 36 56  1  0  0  0  0
 38 74  1  0  0  0  0
 38 79  2  0  0  0  0
 39 75  1  0  0  0  0
 39 81  2  0  0  0  0
 40 57  1  0  0  0  0
 40 77  1  0  0  0  0
 40 82  2  0  0  0  0
 41 66  1  0  0  0  0
 41 71  1  0  0  0  0
 41 83  2  0  0  0  0
 42 67  1  0  0  0  0
 42 78  1  0  0  0  0
 42 84  2  0  0  0  0
 43 72  1  0  0  0  0
 43 76  1  0  0  0  0
 43 85  2  0  0  0  0
 44 48  1  0  0  0  0
 45 57  1  0  0  0  0
 46 71  1  0  0  0  0
 47 49  1  0  0  0  0
 48 51  1  0  0  0  0
 49 56  1  0  0  0  0
 50 52  1  0  0  0  0
 50 53  1  0  0  0  0
 51 55  1  0  0  0  0
 52 58  1  0  0  0  0
 53 72  1  0  0  0  0
 54 58  1  0  0  0  0
 54 72  1  0  0  0  0
 55 77  1  0  0  0  0
 56 65  1  0  0  0  0
 57 71  1  0  0  0  0
 58 70  1  0  0  0  0
 59 67  1  0  0  0  0
 60 68  1  0  0  0  0
 61 68  1  0  0  0  0
 62 68  1  0  0  0  0
 63 80  1  0  0  0  0
 64 87  1  0  0  0  0
 65 79  1  0  0  0  0
 66 68  1  0  0  0  0
 66 78  1  0  0  0  0
 67 80  1  0  0  0  0
 69 70  1  0  0  0  0
M  CHG  2  79   1  80   1
M  ISO  4  43 100  64 101  76 100  87 101
M  END
> <Batch ID>
0047

> <Smiles>
C=C1C([101CH2:1][101O:1]c2ccc3c(c2)CN(C(=O)C(NC(=O)C(C)NC)C(C)(C)C)C(C(=O)NC2CCCc4ccccc42)C3)=CCCC1CNC(=N)c1cccc([100NH:0][100C:0](=O)N2CCCC(n3nc(-c4ccc(Oc5ccc(F)cc5F)cc4)c(C(N)=O)c3N)C2)c1F

> <Shape>
0.186

> <Color>
0.177

> <Negative vol penalty>
0.000

$$$$

  -OEChem-04042322263D

 84 92  0     1  0  0  0  0  0999 V2000
  -26.8041  -37.6688   22.1246 C   0  0  0  0  0  0  0  0  0  0  0  0
  -27.4397  -36.4896   21.7493 C   0  0  0  0  0  0  0  0  0  0  0  0
  -26.4437   -9.2039   19.8522 C   0  0  0  0  0  0  0  0  0  0  0  0
  -27.7348  -10.3399   21.5491 C   0  0  0  0  0  0  0  0  0  0  0  0
  -25.7108  -37.6255   22.9888 C   0  0  0  0  0  0  0  0  0  0  0  0
  -26.9830  -35.2664   22.2388 C   0  0  0  0  0  0  0  0  0  0  0  0
  -26.9557  -29.8994   19.2892 C   0  0  0  0  0  0  0  0  0  0  0  0
  -27.4560   -8.2537   19.7181 C   0  0  0  0  0  0  0  0  0  0  0  0
  -28.7471   -9.3896   21.4151 C   0  0  0  0  0  0  0  0  0  0  0  0
  -27.8207  -28.8065   19.3222 C   0  0  0  0  0  0  0  0  0  0  0  0
  -28.5315   -5.5093   21.3748 C   0  0  0  0  0  0  0  0  0  0  0  0
  -28.1569   -4.1670   21.3172 C   0  0  0  0  0  0  0  0  0  0  0  0
  -26.3825  -27.7244   20.9284 C   0  0  0  0  0  0  0  0  0  0  0  0
  -27.8034  -18.4527   22.1360 C   0  0  0  0  0  0  0  0  0  0  0  0
  -27.4043  -19.6994   20.1054 C   0  0  0  0  0  0  0  0  0  0  0  0
  -29.1667   -3.9791   19.1304 C   0  0  0  0  0  0  0  0  0  0  0  0
  -26.5832  -10.2471   20.7676 C   0  0  0  0  0  0  0  0  0  0  0  0
  -24.4349  -11.1795   21.7792 C   0  0  0  0  0  0  0  0  0  0  0  0
  -25.2345  -36.4003   23.4815 C   0  0  0  0  0  0  0  0  0  0  0  0
  -25.8013  -29.9177   20.0850 C   0  0  0  0  0  0  0  0  0  0  0  0
  -25.8831  -35.2067   23.1114 C   0  0  0  0  0  0  0  0  0  0  0  0
  -25.5032  -28.8176   20.9017 C   0  0  0  0  0  0  0  0  0  0  0  0
  -28.7675  -19.3851   22.5191 C   0  0  0  0  0  0  0  0  0  0  0  0
  -28.3684  -20.6319   20.4884 C   0  0  0  0  0  0  0  0  0  0  0  0
  -29.0499  -20.4748   21.6953 C   0  0  0  0  0  0  0  0  0  0  0  0
  -27.1218  -18.6098   20.9291 C   0  0  0  0  0  0  0  0  0  0  0  0
  -28.6076   -8.3465   20.4996 C   0  0  0  0  0  0  0  0  0  0  0  0
  -27.5357  -27.7200   20.1441 C   0  0  0  0  0  0  0  0  0  0  0  0
  -29.2236   -6.0866   20.3102 C   0  0  0  0  0  0  0  0  0  0  0  0
  -28.4745   -3.4018   20.1950 C   0  0  0  0  0  0  0  0  0  0  0  0
  -29.5412   -5.3215   19.1880 C   0  0  0  0  0  0  0  0  0  0  0  0
  -25.5382  -11.2294   20.9061 C   0  0  0  0  0  0  0  0  0  0  0  0
  -23.7454  -12.3405   21.5278 C   0  0  0  0  0  0  0  0  0  0  0  0
  -24.0664  -10.1737   22.7322 C   0  0  0  0  0  0  0  0  0  0  0  0
  -24.7333  -31.7589   22.4458 C   0  0  0  0  0  0  0  0  0  0  0  0
  -22.0607  -29.9486   22.1257 C   0  0  0  0  0  0  0  0  0  0  0  0
  -28.6070  -24.2721   19.8086 C   0  0  0  0  0  0  0  0  0  0  0  0
  -20.6580  -27.0072   21.1124 C   0  0  0  0  0  0  0  0  0  0  0  0
  -25.3746  -17.6715   19.3758 C   0  0  0  0  0  0  0  0  0  0  0  0
  -24.0788  -36.4076   24.4506 C   0  0  0  0  0  0  0  0  0  0  0  0
  -24.8645  -31.0926   20.0178 C   0  0  0  0  0  0  0  0  0  0  0  0
  -24.2662  -28.7793   21.7601 C   0  0  0  0  0  0  0  0  0  0  0  0
  -23.4240  -35.0401   24.6279 C   0  0  0  0  0  0  0  0  0  0  0  0
  -22.8864  -15.5048   18.0373 C   0  0  0  0  0  0  0  0  0  0  0  0
  -24.4848  -33.9620   24.8263 C   0  0  0  0  0  0  0  0  0  0  0  0
  -23.1799  -14.1594   18.7052 C   0  0  0  0  0  0  0  0  0  0  0  0
  -24.1689  -16.2699   17.7154 C   0  0  0  0  0  0  0  0  0  0  0  0
  -25.3796  -15.1033   19.5160 C   0  0  0  0  0  0  0  0  0  0  0  0
  -25.4019  -33.8584   23.6017 C   0  0  1  0  0  0  0  0  0  0  0  0
  -23.9845  -31.2267   21.2568 C   0  0  1  0  0  0  0  0  0  0  0  0
  -24.1163  -14.3248   19.9182 C   0  0  2  0  0  0  0  0  0  0  0  0
  -29.4836  -19.1937   23.8159 C   0  0  0  0  0  0  0  0  0  0  0  0
  -30.0834  -21.4749   22.1064 C   0  0  0  0  0  0  0  0  0  0  0  0
  -18.4575  -25.8048   21.0144 C   0  0  0  0  0  0  0  0  0  0  0  0
  -22.2485  -29.3662   25.1150 C   0  0  0  0  0  0  0  0  0  0  0  0
  -20.6565  -27.4643   24.7736 C   0  0  0  0  0  0  0  0  0  0  0  0
  -19.9312  -29.7996   24.2802 C   0  0  0  0  0  0  0  0  0  0  0  0
  -20.7467  -26.8444   18.1586 C   0  0  0  0  0  0  0  0  0  0  0  0
  -28.6534  -21.7957   19.5837 C   0  0  0  0  0  0  0  0  0  0  0  0
  -27.8010  -25.3774   20.4569 C   0  0  0  0  0  0  0  0  0  1  0  0
  -21.5668  -28.6556   22.7283 C   0  0  1  0  0  0  0  0  0  0  0  0
  -19.4262  -26.7144   20.2748 C   0  0  2  0  0  0  0  0  0  0  0  0
  -21.1251  -28.8227   24.2097 C   0  0  0  0  0  0  0  0  0  0  0  0
  -25.5526  -12.3344   20.1561 N   0  0  0  0  0  0  0  0  0  0  0  0
  -24.4499  -12.9897   20.5570 N   0  0  0  0  0  0  0  0  0  0  0  0
  -23.3846  -29.9546   21.6644 N   0  0  0  0  0  0  0  0  0  0  0  0
  -25.0040  -16.3914   18.9124 N   0  0  0  0  0  0  0  0  0  0  0  0
  -22.6112  -12.8591   22.0446 N   0  0  0  0  0  0  0  0  0  0  0  0
  -24.8865   -9.0447   22.8630 N   0  0  0  0  0  0  0  0  0  0  0  0
  -26.1416  -17.6634   20.5403 N   0  0  0  0  0  0  0  0  0  0  0  0
  -24.7408  -33.1378   22.5347 N   0  0  0  0  0  0  0  0  0  0  0  0
  -28.0742  -23.0220   20.0815 N   0  0  0  0  0  0  0  0  0  0  0  0
  -20.5150  -28.1680   21.8426 N   0  0  0  0  0  0  0  0  0  0  0  0
  -19.8137  -26.0499   18.9984 N   0  3  0  0  0  0  0  0  0  0  0  0
  -23.0314  -10.2655   23.4350 O   0  0  0  0  0  0  0  0  0  0  0  0
  -25.2636  -30.9764   23.2256 O   0  0  0  0  0  0  0  0  0  0  0  0
  -21.2975  -30.9156   22.0601 O   0  0  0  0  0  0  0  0  0  0  0  0
  -29.6075  -24.4895   19.1305 O   0  0  0  0  0  0  0  0  0  0  0  0
  -21.6465  -26.2769   21.1210 O   0  0  0  0  0  0  0  0  0  0  0  0
  -25.0135  -18.7003   18.7985 O   0  0  0  0  0  0  0  0  0  0  0  0
  -29.5954   -7.4192   20.3693 O   0  0  0  0  0  0  0  0  0  0  0  0
  -28.3787  -26.6523   20.1787 O   0  0  0  0  0  0  0  0  0  1  0  0
  -28.1161   -2.1123   20.1405 F   0  0  0  0  0  0  0  0  0  0  0  0
  -30.2070   -5.8702   18.1626 F   0  0  0  0  0  0  0  0  0  0  0  0
  1  2  1  0  0  0  0
  1  5  2  0  0  0  0
  2  6  2  0  0  0  0
  3  8  2  0  0  0  0
  3 17  1  0  0  0  0
  4  9  1  0  0  0  0
  4 17  2  0  0  0  0
  5 19  1  0  0  0  0
  6 21  1  0  0  0  0
  7 10  2  0  0  0  0
  7 20  1  0  0  0  0
  8 27  1  0  0  0  0
  9 27  2  0  0  0  0
 10 28  1  0  0  0  0
 11 12  2  0  0  0  0
 11 29  1  0  0  0  0
 12 30  1  0  0  0  0
 13 22  1  0  0  0  0
 13 28  2  0  0  0  0
 14 23  2  0  0  0  0
 14 26  1  0  0  0  0
 15 24  1  0  0  0  0
 15 26  2  0  0  0  0
 16 30  2  0  0  0  0
 16 31  1  0  0  0  0
 17 32  1  0  0  0  0
 18 32  1  0  0  0  0
 18 33  2  0  0  0  0
 18 34  1  0  0  0  0
 19 21  2  0  0  0  0
 19 40  1  0  0  0  0
 20 22  2  0  0  0  0
 20 41  1  0  0  0  0
 21 49  1  0  0  0  0
 22 42  1  0  0  0  0
 23 25  1  0  0  0  0
 23 52  1  0  0  0  0
 24 25  2  0  0  0  0
 24 59  1  0  0  0  0
 25 53  1  0  0  0  0
 26 70  1  0  0  0  0
 27 81  1  0  0  0  0
 28 82  1  0  0  0  0
 29 31  2  0  0  0  0
 29 81  1  0  0  0  0
 30 83  1  0  0  0  0
 31 84  1  0  0  0  0
 32 64  2  0  0  0  0
 33 65  1  0  0  0  0
 33 68  1  0  0  0  0
 34 69  1  0  0  0  0
 34 75  2  0  0  0  0
 35 50  1  0  0  0  0
 35 71  1  0  0  0  0
 35 76  2  0  0  0  0
 36 61  1  0  0  0  0
 36 66  1  0  0  0  0
 36 77  2  0  0  0  0
 37 60  1  0  0  0  0
 37 72  1  0  0  0  0
 37 78  2  0  0  0  0
 38 62  1  0  0  0  0
 38 73  1  0  0  0  0
 38 79  2  0  0  0  0
 39 67  1  0  0  0  0
 39 70  1  0  0  0  0
 39 80  2  0  0  0  0
 40 43  1  0  0  0  0
 41 50  1  0  0  0  0
 42 66  1  0  0  0  0
 43 45  1  0  0  0  0
 44 46  1  0  0  0  0
 44 47  1  0  0  0  0
 45 49  1  0  0  0  0
 46 51  1  0  0  0  0
 47 67  1  0  0  0  0
 48 51  1  0  0  0  0
 48 67  1  0  0  0  0
 49 71  1  0  0  0  0
 50 66  1  0  0  0  0
 51 65  1  0  0  0  0
 54 62  1  0  0  0  0
 55 63  1  0  0  0  0
 56 63  1  0  0  0  0
 57 63  1  0  0  0  0
 58 74  1  0  0  0  0
 59 72  1  0  0  0  0
 60 82  1  0  0  0  0
 61 63  1  0  0  0  0
 61 73  1  0  0  0  0
 62 74  1  0  0  0  0
 64 65  1  0  0  0  0
M  CHG  1  74   1
M  ISO  4  39 100  60 101  70 100  82 101
M  END
> <Batch ID>
0047

> <Smiles>
CNC(C)C(=O)NC(C(=O)N1Cc2cc([101O:1][101CH2:1]C(=O)NCc3cc([100NH:0][100C:0](=O)N4CCCC(n5nc(-c6ccc(Oc7ccc(F)cc7F)cc6)c(C(N)=O)c5N)C4)cc(C)c3C)ccc2CC1C(=O)NC1CCCc2ccccc21)C(C)(C)C

> <Shape>
0.263

> <Color>
0.085

> <Negative vol penalty>
0.000

$$$$

  -OEChem-04042322263D

 85 93  0     1  0  0  0  0  0999 V2000
  -24.4496  -20.5377   19.0803 C   0  0  0  0  0  0  0  0  0  0  0  0
  -24.2965  -21.7646   19.7181 C   0  0  0  0  0  0  0  0  0  0  0  0
  -19.2892  -25.8871   24.4292 C   0  0  0  0  0  0  0  0  0  0  0  0
  -24.2859  -15.0641   20.7807 C   0  0  0  0  0  0  0  0  0  0  0  0
  -23.9372  -13.8314   22.8291 C   0  0  0  0  0  0  0  0  0  0  0  0
  -19.8824  -27.0819   24.0218 C   0  0  0  0  0  0  0  0  0  0  0  0
  -25.7140  -19.9591   18.9786 C   0  0  0  0  0  0  0  0  0  0  0  0
  -25.4078  -22.4131   20.2556 C   0  0  0  0  0  0  0  0  0  0  0  0
  -25.4894  -27.3570   19.1620 C   0  0  0  0  0  0  0  0  0  0  0  0
  -20.0767  -24.7572   24.6503 C   0  0  0  0  0  0  0  0  0  0  0  0
  -25.1468  -14.0652   20.3261 C   0  0  0  0  0  0  0  0  0  0  0  0
  -24.7980  -12.8325   22.3744 C   0  0  0  0  0  0  0  0  0  0  0  0
  -24.6533  -28.1878   19.9068 C   0  0  0  0  0  0  0  0  0  0  0  0
  -27.7179  -12.0113   18.7786 C   0  0  0  0  0  0  0  0  0  0  0  0
  -28.9195  -12.4067   18.1910 C   0  0  0  0  0  0  0  0  0  0  0  0
  -26.5295  -28.8373   21.2770 C   0  0  0  0  0  0  0  0  0  0  0  0
  -29.5569  -13.5158   20.2405 C   0  0  0  0  0  0  0  0  0  0  0  0
  -23.6811  -14.9472   22.0322 C   0  0  0  0  0  0  0  0  0  0  0  0
  -21.2632  -27.1469   23.8353 C   0  0  0  0  0  0  0  0  0  0  0  0
  -21.3995  -16.0538   22.3107 C   0  0  0  0  0  0  0  0  0  0  0  0
  -26.8428  -20.6055   19.5067 C   0  0  0  0  0  0  0  0  0  0  0  0
  -26.8519  -27.2517   19.4765 C   0  0  0  0  0  0  0  0  0  0  0  0
  -26.6884  -21.8420   20.1621 C   0  0  0  0  0  0  0  0  0  0  0  0
  -27.3812  -28.0065   20.5331 C   0  0  0  0  0  0  0  0  0  0  0  0
  -22.0508  -26.0170   24.0563 C   0  0  0  0  0  0  0  0  0  0  0  0
  -25.4028  -12.9494   21.1229 C   0  0  0  0  0  0  0  0  0  0  0  0
  -25.1727  -28.9258   20.9663 C   0  0  0  0  0  0  0  0  0  0  0  0
  -21.4575  -24.8222   24.4638 C   0  0  0  0  0  0  0  0  0  0  0  0
  -27.4357  -12.3683   20.0972 C   0  0  0  0  0  0  0  0  0  0  0  0
  -29.8390  -13.1589   18.9219 C   0  0  0  0  0  0  0  0  0  0  0  0
  -28.3552  -13.1205   20.8281 C   0  0  0  0  0  0  0  0  0  0  0  0
  -22.7922  -15.9790   22.5026 C   0  0  0  0  0  0  0  0  0  0  0  0
  -21.0272  -17.2132   22.9460 C   0  0  0  0  0  0  0  0  0  0  0  0
  -21.8692  -28.4223   23.4032 C   0  0  0  0  0  0  0  0  0  0  0  0
  -20.5210  -15.1555   21.6201 C   0  0  0  0  0  0  0  0  0  0  0  0
  -28.7610  -24.8903   20.4161 C   0  0  0  0  0  0  0  0  0  0  0  0
  -31.0733  -27.1351   20.0458 C   0  0  0  0  0  0  0  0  0  0  0  0
  -31.9105  -30.4418   19.9394 C   0  0  0  0  0  0  0  0  0  0  0  0
  -21.8907  -22.5902   23.8814 C   0  0  0  0  0  0  0  0  0  0  0  0
  -28.1823  -19.9185   19.4141 C   0  0  0  0  0  0  0  0  0  0  0  0
  -27.7457  -26.3715   18.6466 C   0  0  0  0  0  0  0  0  0  0  0  0
  -28.8410  -27.9444   20.8986 C   0  0  0  0  0  0  0  0  0  0  0  0
  -29.3633  -20.8483   19.6804 C   0  0  0  0  0  0  0  0  0  0  0  0
  -23.5898  -20.2370   26.0747 C   0  0  0  0  0  0  0  0  0  0  0  0
  -29.1062  -21.6956   20.9226 C   0  0  0  0  0  0  0  0  0  0  0  0
  -23.4487  -18.9294   25.2962 C   0  0  0  0  0  0  0  0  0  0  0  0
  -23.7539  -21.4323   25.1402 C   0  0  0  0  0  0  0  0  0  0  0  0
  -22.5162  -20.2476   23.3456 C   0  0  0  0  0  0  0  0  0  0  0  0
  -27.8733  -22.5881   20.7361 C   0  0  1  0  0  0  0  0  0  0  0  0
  -29.0149  -25.9481   19.3796 C   0  0  1  0  0  0  0  0  0  0  0  0
  -22.3178  -19.0251   24.2569 C   0  0  1  0  0  0  0  0  0  0  0  0
  -23.5318  -26.0801   23.8575 C   0  0  0  0  0  0  0  0  0  0  0  0
  -22.5698  -31.2189   26.0543 C   0  0  0  0  0  0  0  0  0  0  0  0
  -33.8841  -31.9661   19.6588 C   0  0  0  0  0  0  0  0  0  0  0  0
  -31.9451  -26.5287   22.9062 C   0  0  0  0  0  0  0  0  0  0  0  0
  -33.2379  -28.6727   22.8926 C   0  0  0  0  0  0  0  0  0  0  0  0
  -33.8251  -26.8540   21.2894 C   0  0  0  0  0  0  0  0  0  0  0  0
  -30.7655  -31.6655   17.5000 C   0  0  0  0  0  0  0  0  0  0  0  0
  -23.7973  -30.9650   25.1899 C   0  0  0  0  0  0  0  0  0  0  0  0
  -24.7009  -29.9380   23.0660 C   0  0  0  0  0  0  0  0  0  1  0  0
  -31.7015  -28.1797   20.9363 C   0  0  1  0  0  0  0  0  0  0  0  0
  -32.7495  -31.2373   18.9557 C   0  0  2  0  0  0  0  0  0  0  0  0
  -23.4505  -30.2580   23.8791 C   0  0  1  0  0  0  0  0  0  0  0  0
  -32.6495  -27.5587   22.0007 C   0  0  0  0  0  0  0  0  0  0  0  0
  -23.2720  -17.0090   23.2047 N   0  0  0  0  0  0  0  0  0  0  0  0
  -22.1748  -17.7420   23.4595 N   0  0  0  0  0  0  0  0  0  0  0  0
  -29.6730  -27.0646   20.0612 N   0  0  0  0  0  0  0  0  0  0  0  0
  -22.6847  -21.4675   24.1374 N   0  0  0  0  0  0  0  0  0  0  0  0
  -19.8334  -17.8218   23.1099 N   0  0  0  0  0  0  0  0  0  0  0  0
  -21.4765  -28.9421   22.2401 N   0  0  0  0  0  0  0  0  0  0  0  0
  -21.0690  -14.0115   21.0240 N   0  0  0  0  0  0  0  0  0  0  0  0
  -28.1981  -23.7331   19.9127 N   0  0  0  0  0  0  0  0  0  0  0  0
  -32.3481  -29.1387   20.0471 N   0  0  0  0  0  0  0  0  0  0  0  0
  -22.7806  -28.9884   24.1982 N   0  3  0  0  0  0  0  0  0  0  0  0
  -31.9069  -32.2460   18.2532 N   0  3  0  0  0  0  0  0  0  0  0  0
  -19.2891  -15.3697   21.5200 O   0  0  0  0  0  0  0  0  0  0  0  0
  -29.0556  -25.1074   21.5856 O   0  0  0  0  0  0  0  0  0  0  0  0
  -31.7979  -26.4131   19.3563 O   0  0  0  0  0  0  0  0  0  0  0  0
  -30.9639  -30.9288   20.5537 O   0  0  0  0  0  0  0  0  0  0  0  0
  -20.9922  -22.6255   23.0413 O   0  0  0  0  0  0  0  0  0  0  0  0
  -26.2426  -11.9744   20.6795 O   0  0  0  0  0  0  0  0  0  0  0  0
  -22.2301  -23.6785   24.6901 O   0  0  0  0  0  0  0  0  0  0  0  0
  -24.3588  -29.7370   21.6953 O   0  0  0  0  0  0  0  0  0  1  0  0
  -30.9936  -13.5372   18.3579 F   0  0  0  0  0  0  0  0  0  0  0  0
  -28.0903  -13.4655   22.0957 F   0  0  0  0  0  0  0  0  0  0  0  0
  1  2  1  0  0  0  0
  1  7  2  0  0  0  0
  2  8  2  0  0  0  0
  3  6  2  0  0  0  0
  3 10  1  0  0  0  0
  4 11  2  0  0  0  0
  4 18  1  0  0  0  0
  5 12  1  0  0  0  0
  5 18  2  0  0  0  0
  6 19  1  0  0  0  0
  7 21  1  0  0  0  0
  8 23  1  0  0  0  0
  9 13  2  0  0  0  0
  9 22  1  0  0  0  0
 10 28  2  0  0  0  0
 11 26  1  0  0  0  0
 12 26  2  0  0  0  0
 13 27  1  0  0  0  0
 14 15  2  0  0  0  0
 14 29  1  0  0  0  0
 15 30  1  0  0  0  0
 16 24  1  0  0  0  0
 16 27  2  0  0  0  0
 17 30  2  0  0  0  0
 17 31  1  0  0  0  0
 18 32  1  0  0  0  0
 19 25  2  0  0  0  0
 19 34  1  0  0  0  0
 20 32  1  0  0  0  0
 20 33  2  0  0  0  0
 20 35  1  0  0  0  0
 21 23  2  0  0  0  0
 21 40  1  0  0  0  0
 22 24  2  0  0  0  0
 22 41  1  0  0  0  0
 23 49  1  0  0  0  0
 24 42  1  0  0  0  0
 25 28  1  0  0  0  0
 25 52  1  0  0  0  0
 26 81  1  0  0  0  0
 27 83  1  0  0  0  0
 28 82  1  0  0  0  0
 29 31  2  0  0  0  0
 29 81  1  0  0  0  0
 30 84  1  0  0  0  0
 31 85  1  0  0  0  0
 32 65  2  0  0  0  0
 33 66  1  0  0  0  0
 33 69  1  0  0  0  0
 34 70  1  0  0  0  0
 34 74  2  0  0  0  0
 35 71  1  0  0  0  0
 35 76  2  0  0  0  0
 36 50  1  0  0  0  0
 36 72  1  0  0  0  0
 36 77  2  0  0  0  0
 37 61  1  0  0  0  0
 37 67  1  0  0  0  0
 37 78  2  0  0  0  0
 38 62  1  0  0  0  0
 38 73  1  0  0  0  0
 38 79  2  0  0  0  0
 39 68  1  0  0  0  0
 39 80  2  0  0  0  0
 39 82  1  0  0  0  0
 40 43  1  0  0  0  0
 41 50  1  0  0  0  0
 42 67  1  0  0  0  0
 43 45  1  0  0  0  0
 44 46  1  0  0  0  0
 44 47  1  0  0  0  0
 45 49  1  0  0  0  0
 46 51  1  0  0  0  0
 47 68  1  0  0  0  0
 48 51  1  0  0  0  0
 48 68  1  0  0  0  0
 49 72  1  0  0  0  0
 50 67  1  0  0  0  0
 51 66  1  0  0  0  0
 53 59  1  0  0  0  0
 54 62  1  0  0  0  0
 55 64  1  0  0  0  0
 56 64  1  0  0  0  0
 57 64  1  0  0  0  0
 58 75  1  0  0  0  0
 59 63  1  0  0  0  0
 60 63  1  0  0  0  0
 60 83  1  0  0  0  0
 61 64  1  0  0  0  0
 61 73  1  0  0  0  0
 62 75  1  0  0  0  0
 63 74  1  0  0  0  0
 65 66  1  0  0  0  0
M  CHG  2  74   1  75   1
M  ISO  4  39 100  60 101  82 100  83 101
M  END
> <Batch ID>
0047

> <Smiles>
CCC(NC(=N)c1cccc([100O:0][100C:0](=O)N2CCCC(n3nc(-c4ccc(Oc5ccc(F)cc5F)cc4)c(C(N)=O)c3N)C2)c1C)[101CH2:1][101O:1]c1ccc2c(c1)CN(C(=O)C(NC(=O)C(C)NC)C(C)(C)C)C(C(=O)NC1CCCc3ccccc31)C2

> <Shape>
0.219

> <Color>
0.069

> <Negative vol penalty>
0.000

$$$$

  -OEChem-04042322263D

 86 95  0     1  0  0  0  0  0999 V2000
  -21.7902  -11.1785   19.3730 C   0  0  0  0  0  0  0  0  0  0  0  0
  -21.4933  -12.5370   19.3296 C   0  0  0  0  0  0  0  0  0  0  0  0
  -30.1063  -28.5984   24.3160 C   0  0  0  0  0  0  0  0  0  0  0  0
  -28.1107  -27.5636   25.2014 C   0  0  0  0  0  0  0  0  0  0  0  0
  -22.9888  -10.7459   19.9387 C   0  0  0  0  0  0  0  0  0  0  0  0
  -22.3945  -13.4635   19.8528 C   0  0  0  0  0  0  0  0  0  0  0  0
  -23.5174  -19.1026   17.7442 C   0  0  0  0  0  0  0  0  0  0  0  0
  -19.4609  -28.6394   22.4163 C   0  0  0  0  0  0  0  0  0  0  0  0
  -30.7343  -28.4448   25.5520 C   0  0  0  0  0  0  0  0  0  0  0  0
  -28.7387  -27.4100   26.4374 C   0  0  0  0  0  0  0  0  0  0  0  0
  -23.0598  -20.3594   18.1375 C   0  0  0  0  0  0  0  0  0  0  0  0
  -32.9865  -27.9984   28.3704 C   0  0  0  0  0  0  0  0  0  0  0  0
  -34.2964  -27.5193   28.3771 C   0  0  0  0  0  0  0  0  0  0  0  0
  -18.3219  -28.0295   22.9419 C   0  0  0  0  0  0  0  0  0  0  0  0
  -25.0474  -20.6591   19.4713 C   0  0  0  0  0  0  0  0  0  0  0  0
  -19.5270  -25.9444   23.1342 C   0  0  0  0  0  0  0  0  0  0  0  0
  -33.5596  -25.4894   27.2938 C   0  0  0  0  0  0  0  0  0  0  0  0
  -28.7944  -28.1578   24.1408 C   0  0  0  0  0  0  0  0  0  0  0  0
  -28.5546  -27.7793   21.6294 C   0  0  0  0  0  0  0  0  0  0  0  0
  -23.9095  -11.6682   20.4605 C   0  0  0  0  0  0  0  0  0  0  0  0
  -24.7404  -18.6091   18.2210 C   0  0  0  0  0  0  0  0  0  0  0  0
  -23.6060  -13.0427   20.4272 C   0  0  0  0  0  0  0  0  0  0  0  0
  -25.5195  -19.3967   19.0805 C   0  0  0  0  0  0  0  0  0  0  0  0
  -20.6660  -26.5542   22.6085 C   0  0  0  0  0  0  0  0  0  0  0  0
  -20.6330  -27.9017   22.2496 C   0  0  0  0  0  0  0  0  0  0  0  0
  -30.0505  -27.8506   26.6127 C   0  0  0  0  0  0  0  0  0  0  0  0
  -23.8234  -21.1367   19.0034 C   0  0  0  0  0  0  0  0  0  0  0  0
  -31.9630  -27.2230   27.8254 C   0  0  0  0  0  0  0  0  0  0  0  0
  -34.5830  -26.2648   27.8388 C   0  0  0  0  0  0  0  0  0  0  0  0
  -32.2496  -25.9685   27.2871 C   0  0  0  0  0  0  0  0  0  0  0  0
  -18.3549  -26.6820   23.3009 C   0  0  0  0  0  0  0  0  0  0  0  0
  -28.1449  -28.3166   22.8644 C   0  0  0  0  0  0  0  0  0  0  0  0
  -27.6092  -28.2166   20.7342 C   0  0  0  0  0  0  0  0  0  0  0  0
  -23.5769  -25.0400   20.8213 C   0  0  0  0  0  0  0  0  0  0  0  0
  -24.3531  -25.9482   20.2109 C   0  0  0  0  0  0  0  0  0  0  0  0
  -29.6883  -26.9582   21.3192 C   0  0  0  0  0  0  0  0  0  0  0  0
  -25.6199  -16.1071   19.9732 C   0  0  0  0  0  0  0  0  0  0  0  0
  -28.6072  -17.1463   19.2532 C   0  0  0  0  0  0  0  0  0  0  0  0
  -30.3092  -20.3198   19.0314 C   0  0  0  0  0  0  0  0  0  0  0  0
  -21.8961  -29.8693   21.3118 C   0  0  0  0  0  0  0  0  0  0  0  0
  -25.1708  -11.1497   21.1046 C   0  0  0  0  0  0  0  0  0  0  0  0
  -25.2326  -17.2625   17.7661 C   0  0  0  0  0  0  0  0  0  0  0  0
  -26.8491  -18.9213   19.6046 C   0  0  0  0  0  0  0  0  0  0  0  0
  -24.0876  -23.6977   21.2778 C   0  0  0  0  0  0  0  0  0  0  0  0
  -26.2404  -12.2214   21.2990 C   0  0  0  0  0  0  0  0  0  0  0  0
  -24.5546  -31.8266   19.9782 C   0  0  0  0  0  0  0  0  0  0  0  0
  -25.6284  -13.4841   21.8972 C   0  0  0  0  0  0  0  0  0  0  0  0
  -25.8142  -31.0963   20.4494 C   0  0  0  0  0  0  0  0  0  0  0  0
  -21.7028  -22.8905   21.0314 C   0  0  0  0  0  0  0  0  0  0  0  0
  -23.4493  -31.7888   21.0320 C   0  0  0  0  0  0  0  0  0  0  0  0
  -24.3699  -29.7187   21.9996 C   0  0  0  0  0  0  0  0  0  0  0  0
  -21.3078  -24.2570   20.4734 C   0  0  0  0  0  0  0  0  0  0  0  0
  -24.5692  -14.0801   20.9621 C   0  0  1  0  0  0  0  0  0  0  0  0
  -26.2506  -16.6450   18.7199 C   0  0  1  0  0  0  0  0  0  0  0  0
  -25.4885  -29.6740   20.9459 C   0  0  2  0  0  0  0  0  0  0  0  0
  -23.1776  -22.5715   20.7869 C   0  0  1  0  0  0  0  0  0  1  0  0
  -32.2949  -21.0141   17.6631 C   0  0  0  0  0  0  0  0  0  0  0  0
  -30.2118  -16.4302   21.7477 C   0  0  0  0  0  0  0  0  0  0  0  0
  -31.6799  -18.4048   21.2853 C   0  0  0  0  0  0  0  0  0  0  0  0
  -31.5526  -16.5348   19.6392 C   0  0  0  0  0  0  0  0  0  0  0  0
  -28.8277  -22.5736   17.8130 C   0  0  0  0  0  0  0  0  0  0  0  0
  -21.9130  -25.7372   22.4400 C   0  0  0  0  0  0  0  0  0  0  0  0
  -29.5868  -18.1055   19.8852 C   0  0  1  0  0  0  0  0  0  0  0  0
  -30.7776  -21.0133   17.7648 C   0  0  2  0  0  0  0  0  0  0  0  0
  -30.7297  -17.3721   20.6424 C   0  0  0  0  0  0  0  0  0  0  0  0
  -27.0265  -29.0402   22.7664 N   0  0  0  0  0  0  0  0  0  0  0  0
  -26.7254  -28.9606   21.4591 N   0  0  0  0  0  0  0  0  0  0  0  0
  -27.2841  -17.5952   19.1360 N   0  0  0  0  0  0  0  0  0  0  0  0
  -23.1920  -30.4094   21.4516 N   0  0  0  0  0  0  0  0  0  0  0  0
  -27.4561  -28.0336   19.4055 N   0  0  0  0  0  0  0  0  0  0  0  0
  -30.5589  -26.6012   22.3579 N   0  0  0  0  0  0  0  0  0  0  0  0
  -21.7794  -28.5391   21.7136 N   0  0  0  0  0  0  0  0  0  0  0  0
  -25.2006  -14.7943   19.8732 N   0  0  0  0  0  0  0  0  0  0  0  0
  -30.0466  -18.9837   18.8148 N   0  0  0  0  0  0  0  0  0  0  0  0
  -22.1845  -25.3648   21.0087 N   0  3  1  0  0  0  0  0  0  0  0  0
  -30.3043  -22.4263   17.7427 N   0  3  0  0  0  0  0  0  0  0  0  0
  -29.9313  -26.5667   20.1525 O   0  0  0  0  0  0  0  0  0  0  0  0
  -25.5224  -16.8293   20.9584 O   0  0  0  0  0  0  0  0  0  0  0  0
  -29.0030  -16.0423   18.8709 O   0  0  0  0  0  0  0  0  0  0  0  0
  -30.1920  -20.9041   20.1063 O   0  0  0  0  0  0  0  0  0  0  0  0
  -20.9651  -30.5293   20.8430 O   0  0  0  0  0  0  0  0  0  0  0  0
  -30.6631  -27.7004   27.8188 O   0  0  0  0  0  0  0  0  0  0  0  0
  -23.3788  -22.3636   19.3894 O   0  0  0  0  0  0  0  0  0  1  0  0
  -35.8412  -25.8055   27.8439 F   0  0  0  0  0  0  0  0  0  0  0  0
  -31.2707  -25.2195   26.7611 F   0  0  0  0  0  0  0  0  0  0  0  0
  -16.9493  -25.9304   23.9504 Cl  0  0  0  0  0  0  0  0  0  0  0  0
  1  2  1  0  0  0  0
  1  5  2  0  0  0  0
  2  6  2  0  0  0  0
  3  9  2  0  0  0  0
  3 18  1  0  0  0  0
  4 10  1  0  0  0  0
  4 18  2  0  0  0  0
  5 20  1  0  0  0  0
  6 22  1  0  0  0  0
  7 11  2  0  0  0  0
  7 21  1  0  0  0  0
  8 14  2  0  0  0  0
  8 25  1  0  0  0  0
  9 26  1  0  0  0  0
 10 26  2  0  0  0  0
 11 27  1  0  0  0  0
 12 13  2  0  0  0  0
 12 28  1  0  0  0  0
 13 29  1  0  0  0  0
 14 31  1  0  0  0  0
 15 23  1  0  0  0  0
 15 27  2  0  0  0  0
 16 24  1  0  0  0  0
 16 31  2  0  0  0  0
 17 29  2  0  0  0  0
 17 30  1  0  0  0  0
 18 32  1  0  0  0  0
 19 32  1  0  0  0  0
 19 33  2  0  0  0  0
 19 36  1  0  0  0  0
 20 22  2  0  0  0  0
 20 41  1  0  0  0  0
 21 23  2  0  0  0  0
 21 42  1  0  0  0  0
 22 53  1  0  0  0  0
 23 43  1  0  0  0  0
 24 25  2  0  0  0  0
 24 62  1  0  0  0  0
 25 72  1  0  0  0  0
 26 82  1  0  0  0  0
 27 83  1  0  0  0  0
 28 30  2  0  0  0  0
 28 82  1  0  0  0  0
 29 84  1  0  0  0  0
 30 85  1  0  0  0  0
 31 86  1  0  0  0  0
 32 66  2  0  0  0  0
 33 67  1  0  0  0  0
 33 70  1  0  0  0  0
 34 35  2  0  0  0  0
 34 44  1  0  0  0  0
 34 75  1  0  0  0  0
 36 71  1  0  0  0  0
 36 77  2  0  0  0  0
 37 54  1  0  0  0  0
 37 73  1  0  0  0  0
 37 78  2  0  0  0  0
 38 63  1  0  0  0  0
 38 68  1  0  0  0  0
 38 79  2  0  0  0  0
 39 64  1  0  0  0  0
 39 74  1  0  0  0  0
 39 80  2  0  0  0  0
 40 69  1  0  0  0  0
 40 72  1  0  0  0  0
 40 81  2  0  0  0  0
 41 45  1  0  0  0  0
 42 54  1  0  0  0  0
 43 68  1  0  0  0  0
 44 56  1  0  0  0  0
 45 47  1  0  0  0  0
 46 48  1  0  0  0  0
 46 50  1  0  0  0  0
 47 53  1  0  0  0  0
 48 55  1  0  0  0  0
 49 52  1  0  0  0  0
 49 56  1  0  0  0  0
 50 69  1  0  0  0  0
 51 55  1  0  0  0  0
 51 69  1  0  0  0  0
 52 75  1  0  0  0  0
 53 73  1  0  0  0  0
 54 68  1  0  0  0  0
 55 67  1  0  0  0  0
 56 83  1  0  0  0  0
 57 64  1  0  0  0  0
 58 65  1  0  0  0  0
 59 65  1  0  0  0  0
 60 65  1  0  0  0  0
 61 76  1  0  0  0  0
 62 75  1  0  0  0  0
 63 65  1  0  0  0  0
 63 74  1  0  0  0  0
 64 76  1  0  0  0  0
 66 67  1  0  0  0  0
M  CHG  2  75   1  76   1
M  ISO  4  40 100  56 101  72 100  83 101
M  END
> <Batch ID>
0047

> <Smiles>
C=C1C[101CH:1]([101O:1]c2ccc3c(c2)CN(C(=O)C(NC(=O)C(C)NC)C(C)(C)C)C(C(=O)NC2CCCc4ccccc42)C3)CCN1Cc1cc(Cl)ccc1[100NH:0][100C:0](=O)N1CCCC(n2nc(-c3ccc(Oc4ccc(F)cc4F)cc3)c(C(N)=O)c2N)C1

> <Shape>
0.224

> <Color>
0.071

> <Negative vol penalty>
0.000

$$$$

  -OEChem-04042322263D

 85 93  0     1  0  0  0  0  0999 V2000
  -26.8371  -22.3104   17.7620 C   0  0  0  0  0  0  0  0  0  0  0  0
  -25.7094  -22.8084   18.4067 C   0  0  0  0  0  0  0  0  0  0  0  0
  -26.4908  -13.0817   20.9858 C   0  0  0  0  0  0  0  0  0  0  0  0
  -25.0559  -14.4520   19.6072 C   0  0  0  0  0  0  0  0  0  0  0  0
  -28.1087  -22.6690   18.2074 C   0  0  0  0  0  0  0  0  0  0  0  0
  -25.8527  -23.6645   19.4980 C   0  0  0  0  0  0  0  0  0  0  0  0
  -22.7298  -27.6445   19.2682 C   0  0  0  0  0  0  0  0  0  0  0  0
  -21.6552  -23.1780   24.0496 C   0  0  0  0  0  0  0  0  0  0  0  0
  -22.8047  -22.4094   24.2329 C   0  0  0  0  0  0  0  0  0  0  0  0
  -25.7596  -11.9507   20.6227 C   0  0  0  0  0  0  0  0  0  0  0  0
  -24.3247  -13.3209   19.2440 C   0  0  0  0  0  0  0  0  0  0  0  0
  -21.3980  -27.4300   19.6205 C   0  0  0  0  0  0  0  0  0  0  0  0
  -24.0479   -8.7548   20.3407 C   0  0  0  0  0  0  0  0  0  0  0  0
  -23.6938   -7.8583   21.3490 C   0  0  0  0  0  0  0  0  0  0  0  0
  -21.8309  -28.3644   21.8020 C   0  0  0  0  0  0  0  0  0  0  0  0
  -22.8826  -21.9602   21.8603 C   0  0  0  0  0  0  0  0  0  0  0  0
  -22.4663   -9.6088   22.4742 C   0  0  0  0  0  0  0  0  0  0  0  0
  -26.1389  -14.3324   20.4781 C   0  0  0  0  0  0  0  0  0  0  0  0
  -28.0238  -16.0288   20.2008 C   0  0  0  0  0  0  0  0  0  0  0  0
  -28.2676  -23.5376   19.2987 C   0  0  0  0  0  0  0  0  0  0  0  0
  -23.6262  -28.2115   20.1854 C   0  0  0  0  0  0  0  0  0  0  0  0
  -27.1276  -24.0340   19.9593 C   0  0  0  0  0  0  0  0  0  0  0  0
  -23.1729  -28.5874   21.4579 C   0  0  0  0  0  0  0  0  0  0  0  0
  -21.1194  -23.3376   22.7717 C   0  0  0  0  0  0  0  0  0  0  0  0
  -21.7331  -22.7288   21.6770 C   0  0  0  0  0  0  0  0  0  0  0  0
  -23.4184  -21.8005   23.1383 C   0  0  0  0  0  0  0  0  0  0  0  0
  -24.6766  -12.0703   19.7518 C   0  0  0  0  0  0  0  0  0  0  0  0
  -20.9491  -27.7873   20.8885 C   0  0  0  0  0  0  0  0  0  0  0  0
  -23.6113  -10.0783   20.3993 C   0  0  0  0  0  0  0  0  0  0  0  0
  -22.9030   -8.2853   22.4157 C   0  0  0  0  0  0  0  0  0  0  0  0
  -22.8205  -10.5053   21.4660 C   0  0  0  0  0  0  0  0  0  0  0  0
  -26.8934  -15.5011   20.8532 C   0  0  0  0  0  0  0  0  0  0  0  0
  -28.3641  -17.1333   20.9429 C   0  0  0  0  0  0  0  0  0  0  0  0
  -28.7052  -15.5623   19.0287 C   0  0  0  0  0  0  0  0  0  0  0  0
  -26.3026  -27.2408   21.5991 C   0  0  0  0  0  0  0  0  0  0  0  0
  -26.3627  -30.2894   22.7057 C   0  0  0  0  0  0  0  0  0  0  0  0
  -24.6304  -33.1284   23.4711 C   0  0  0  0  0  0  0  0  0  0  0  0
  -25.2491  -20.7635   24.5238 C   0  0  0  0  0  0  0  0  0  0  0  0
  -19.2504  -26.4195   21.8079 C   0  0  0  0  0  0  0  0  0  1  0  0
  -29.6625  -23.8591   19.7734 C   0  0  0  0  0  0  0  0  0  0  0  0
  -25.0533  -28.4609   19.7808 C   0  0  0  0  0  0  0  0  0  0  0  0
  -24.0904  -29.2182   22.4722 C   0  0  0  0  0  0  0  0  0  0  0  0
  -29.7260  -25.0686   20.7026 C   0  0  0  0  0  0  0  0  0  0  0  0
  -28.1314  -18.8662   25.4013 C   0  0  0  0  0  0  0  0  0  0  0  0
  -28.6372  -24.9817   21.7673 C   0  0  0  0  0  0  0  0  0  0  0  0
  -28.2474  -17.8399   24.2720 C   0  0  0  0  0  0  0  0  0  0  0  0
  -26.6744  -19.1488   25.7633 C   0  0  0  0  0  0  0  0  0  0  0  0
  -25.9326  -18.5031   23.5045 C   0  0  0  0  0  0  0  0  0  0  0  0
  -27.2419  -24.9848   21.1311 C   0  0  1  0  0  0  0  0  0  0  0  0
  -26.0012  -28.5720   20.9709 C   0  0  1  0  0  0  0  0  0  0  0  0
  -27.3798  -18.2343   23.0606 C   0  0  2  0  0  0  0  0  0  0  0  0
  -24.9468  -35.4410   24.3927 C   0  0  0  0  0  0  0  0  0  0  0  0
  -26.6188  -29.1314   25.5169 C   0  0  0  0  0  0  0  0  0  0  0  0
  -25.9793  -31.3755   26.4243 C   0  0  0  0  0  0  0  0  0  0  0  0
  -28.0621  -31.1252   25.0746 C   0  0  0  0  0  0  0  0  0  0  0  0
  -16.9522  -27.3186   21.8446 C   0  0  0  0  0  0  0  0  0  0  0  0
  -23.6504  -34.3824   20.9759 C   0  0  0  0  0  0  0  0  0  0  0  0
  -19.8810  -24.1689   22.5995 C   0  0  0  0  0  0  0  0  0  0  0  0
  -21.1786  -22.8875   20.2994 C   0  0  0  0  0  0  0  0  0  0  0  0
  -25.8155  -30.9962   23.9222 C   0  0  1  0  0  0  0  0  0  0  0  0
  -24.8876  -34.5865   23.1361 C   0  0  2  0  0  0  0  0  0  0  0  0
  -26.6018  -30.6434   25.2163 C   0  0  0  0  0  0  0  0  0  0  0  0
  -26.5394  -16.2118   21.9272 N   0  0  0  0  0  0  0  0  0  0  0  0
  -27.4527  -17.1974   21.9555 N   0  0  0  0  0  0  0  0  0  0  0  0
  -25.4781  -29.4359   22.0313 N   0  0  0  0  0  0  0  0  0  0  0  0
  -25.9149  -19.5203   24.5675 N   0  0  0  0  0  0  0  0  0  0  0  0
  -29.3512  -18.0462   20.8216 N   0  0  0  0  0  0  0  0  0  0  0  0
  -28.2230  -14.4123   18.3888 N   0  0  0  0  0  0  0  0  0  0  0  0
  -24.5872  -21.0213   23.3237 N   0  0  0  0  0  0  0  0  0  0  0  0
  -26.8708  -26.3259   20.7333 N   0  0  0  0  0  0  0  0  0  0  0  0
  -25.8057  -32.4186   23.5980 N   0  0  0  0  0  0  0  0  0  0  0  0
  -20.1784  -25.4830   22.0225 N   0  0  0  0  0  0  0  0  0  0  0  0
  -17.9517  -26.2773   22.0887 N   0  3  0  0  0  0  0  0  0  0  0  0
  -23.8050  -35.1152   22.2589 N   0  3  0  0  0  0  0  0  0  0  0  0
  -29.7216  -16.1385   18.5721 O   0  0  0  0  0  0  0  0  0  0  0  0
  -26.0405  -27.0577   22.7821 O   0  0  0  0  0  0  0  0  0  0  0  0
  -27.5299  -30.4929   22.3621 O   0  0  0  0  0  0  0  0  0  0  0  0
  -23.5001  -32.6663   23.6102 O   0  0  0  0  0  0  0  0  0  0  0  0
  -25.2876  -21.5539   25.4703 O   0  0  0  0  0  0  0  0  0  0  0  0
  -23.9631  -10.9669   19.3971 O   0  0  0  0  0  0  0  0  0  0  0  0
  -19.6498  -27.5785   21.2352 O   0  0  0  0  0  0  0  0  0  1  0  0
  -22.5617   -7.4239   23.3831 F   0  0  0  0  0  0  0  0  0  0  0  0
  -22.3970  -11.7752   21.5271 F   0  0  0  0  0  0  0  0  0  0  0  0
  -21.9477  -22.2316   19.3922 F   0  0  0  0  0  0  0  0  0  0  0  0
  -21.1746  -24.1945   19.9302 F   0  0  0  0  0  0  0  0  0  0  0  0
  1  2  1  0  0  0  0
  1  5  2  0  0  0  0
  2  6  2  0  0  0  0
  3 10  2  0  0  0  0
  3 18  1  0  0  0  0
  4 11  1  0  0  0  0
  4 18  2  0  0  0  0
  5 20  1  0  0  0  0
  6 22  1  0  0  0  0
  7 12  2  0  0  0  0
  7 21  1  0  0  0  0
  8  9  2  0  0  0  0
  8 24  1  0  0  0  0
  9 26  1  0  0  0  0
 10 27  1  0  0  0  0
 11 27  2  0  0  0  0
 12 28  1  0  0  0  0
 13 14  2  0  0  0  0
 13 29  1  0  0  0  0
 14 30  1  0  0  0  0
 15 23  1  0  0  0  0
 15 28  2  0  0  0  0
 16 25  1  0  0  0  0
 16 26  2  0  0  0  0
 17 30  2  0  0  0  0
 17 31  1  0  0  0  0
 18 32  1  0  0  0  0
 19 32  1  0  0  0  0
 19 33  2  0  0  0  0
 19 34  1  0  0  0  0
 20 22  2  0  0  0  0
 20 40  1  0  0  0  0
 21 23  2  0  0  0  0
 21 41  1  0  0  0  0
 22 49  1  0  0  0  0
 23 42  1  0  0  0  0
 24 25  2  0  0  0  0
 24 58  1  0  0  0  0
 25 59  1  0  0  0  0
 26 69  1  0  0  0  0
 27 80  1  0  0  0  0
 28 81  1  0  0  0  0
 29 31  2  0  0  0  0
 29 80  1  0  0  0  0
 30 82  1  0  0  0  0
 31 83  1  0  0  0  0
 32 63  2  0  0  0  0
 33 64  1  0  0  0  0
 33 67  1  0  0  0  0
 34 68  1  0  0  0  0
 34 75  2  0  0  0  0
 35 50  1  0  0  0  0
 35 70  1  0  0  0  0
 35 76  2  0  0  0  0
 36 60  1  0  0  0  0
 36 65  1  0  0  0  0
 36 77  2  0  0  0  0
 37 61  1  0  0  0  0
 37 71  1  0  0  0  0
 37 78  2  0  0  0  0
 38 66  1  0  0  0  0
 38 69  1  0  0  0  0
 38 79  2  0  0  0  0
 39 72  1  0  0  0  0
 39 73  2  0  0  0  0
 39 81  1  0  0  0  0
 40 43  1  0  0  0  0
 41 50  1  0  0  0  0
 42 65  1  0  0  0  0
 43 45  1  0  0  0  0
 44 46  1  0  0  0  0
 44 47  1  0  0  0  0
 45 49  1  0  0  0  0
 46 51  1  0  0  0  0
 47 66  1  0  0  0  0
 48 51  1  0  0  0  0
 48 66  1  0  0  0  0
 49 70  1  0  0  0  0
 50 65  1  0  0  0  0
 51 64  1  0  0  0  0
 52 61  1  0  0  0  0
 53 62  1  0  0  0  0
 54 62  1  0  0  0  0
 55 62  1  0  0  0  0
 56 73  1  0  0  0  0
 57 74  1  0  0  0  0
 58 72  1  0  0  0  0
 59 84  1  0  0  0  0
 59 85  1  0  0  0  0
 60 62  1  0  0  0  0
 60 71  1  0  0  0  0
 61 74  1  0  0  0  0
 63 64  1  0  0  0  0
M  CHG  2  73   1  74   1
M  ISO  4  38 100  39 101  69 100  81 101
M  END
> <Batch ID>
0047

> <Smiles>
CNC(C)C(=O)NC(C(=O)N1Cc2cc([101O:1][101C:1](=NCc3ccc([100NH:0][100C:0](=O)N4CCCC(n5nc(-c6ccc(Oc7ccc(F)cc7F)cc6)c(C(N)=O)c5N)C4)cc3C(F)F)NC)ccc2CC1C(=O)NC1CCCc2ccccc21)C(C)(C)C

> <Shape>
0.251

> <Color>
0.058

> <Negative vol penalty>
0.000

$$$$

  -OEChem-04042322263D

 87 96  0     1  0  0  0  0  0999 V2000
  -28.3695  -37.4920   21.9577 C   0  0  0  0  0  0  0  0  0  0  0  0
  -28.7543  -36.2413   21.4854 C   0  0  0  0  0  0  0  0  0  0  0  0
  -22.3585  -14.0406   22.2397 C   0  0  0  0  0  0  0  0  0  0  0  0
  -23.8297  -12.9462   23.8129 C   0  0  0  0  0  0  0  0  0  0  0  0
  -27.4453  -37.5893   22.9971 C   0  0  0  0  0  0  0  0  0  0  0  0
  -28.2159  -35.0871   22.0530 C   0  0  0  0  0  0  0  0  0  0  0  0
  -26.9090  -29.8377   19.1821 C   0  0  0  0  0  0  0  0  0  0  0  0
  -21.4831  -14.3570   23.2785 C   0  0  0  0  0  0  0  0  0  0  0  0
  -22.9543  -13.2626   24.8517 C   0  0  0  0  0  0  0  0  0  0  0  0
  -27.5996  -28.6316   19.0722 C   0  0  0  0  0  0  0  0  0  0  0  0
  -19.1049  -12.7872   25.0963 C   0  0  0  0  0  0  0  0  0  0  0  0
  -17.7429  -12.5756   24.8822 C   0  0  0  0  0  0  0  0  0  0  0  0
  -26.3157  -27.7361   20.9076 C   0  0  0  0  0  0  0  0  0  0  0  0
  -30.3438  -18.8411   18.8007 C   0  0  0  0  0  0  0  0  0  0  0  0
  -28.0325  -18.9034   18.1000 C   0  0  0  0  0  0  0  0  0  0  0  0
  -17.3201  -14.9259   25.2489 C   0  0  0  0  0  0  0  0  0  0  0  0
  -23.5318  -13.3352   22.5069 C   0  0  0  0  0  0  0  0  0  0  0  0
  -24.1569  -12.2304   20.2941 C   0  0  0  0  0  0  0  0  0  0  0  0
  -26.8880  -36.4358   23.5712 C   0  0  0  0  0  0  0  0  0  0  0  0
  -25.9225  -30.0060   20.1643 C   0  0  0  0  0  0  0  0  0  0  0  0
  -27.2844  -35.1689   23.1019 C   0  0  0  0  0  0  0  0  0  0  0  0
  -25.6122  -28.9444   21.0263 C   0  0  0  0  0  0  0  0  0  0  0  0
  -30.4644  -20.2029   18.5242 C   0  0  0  0  0  0  0  0  0  0  0  0
  -29.3690  -20.9150   18.0357 C   0  0  0  0  0  0  0  0  0  0  0  0
  -29.1279  -18.1913   18.5885 C   0  0  0  0  0  0  0  0  0  0  0  0
  -21.7809  -13.9680   24.5845 C   0  0  0  0  0  0  0  0  0  0  0  0
  -27.3051  -27.5815   19.9369 C   0  0  0  0  0  0  0  0  0  0  0  0
  -19.5745  -14.0681   25.3868 C   0  0  0  0  0  0  0  0  0  0  0  0
  -16.8505  -13.6449   24.9584 C   0  0  0  0  0  0  0  0  0  0  0  0
  -28.1530  -20.2653   17.8236 C   0  0  0  0  0  0  0  0  0  0  0  0
  -18.6821  -15.1375   25.4631 C   0  0  0  0  0  0  0  0  0  0  0  0
  -24.4363  -13.0076   21.4341 C   0  0  0  0  0  0  0  0  0  0  0  0
  -25.3360  -12.2178   19.5897 C   0  0  0  0  0  0  0  0  0  0  0  0
  -30.0801  -24.5241   18.6909 C   0  0  0  0  0  0  0  0  0  0  0  0
  -31.3292  -24.7461   19.1272 C   0  0  0  0  0  0  0  0  0  0  0  0
  -22.9403  -11.5783   19.9063 C   0  0  0  0  0  0  0  0  0  0  0  0
  -25.5512  -31.9353   22.6631 C   0  0  0  0  0  0  0  0  0  0  0  0
  -22.6298  -30.5338   22.8172 C   0  0  0  0  0  0  0  0  0  0  0  0
  -21.2827  -27.2068   22.4517 C   0  0  0  0  0  0  0  0  0  0  0  0
  -29.9933  -15.9543   19.3589 C   0  0  0  0  0  0  0  0  0  0  0  0
  -25.9283  -36.5900   24.7244 C   0  0  0  0  0  0  0  0  0  0  0  0
  -25.1680  -31.3042   20.2525 C   0  0  0  0  0  0  0  0  0  0  0  0
  -24.5477  -29.0674   22.0846 C   0  0  0  0  0  0  0  0  0  0  0  0
  -29.2669  -25.5651   17.9655 C   0  0  0  0  0  0  0  0  0  0  0  0
  -25.1225  -35.3274   25.0192 C   0  0  0  0  0  0  0  0  0  0  0  0
  -30.0754  -12.4995   20.2162 C   0  0  0  0  0  0  0  0  0  0  0  0
  -26.0343  -34.1047   25.0385 C   0  0  0  0  0  0  0  0  0  0  0  0
  -28.6123  -12.1655   20.5161 C   0  0  0  0  0  0  0  0  0  0  0  0
  -27.2301  -24.3451   18.8388 C   0  0  0  0  0  0  0  0  0  0  0  0
  -30.4449  -13.9044   20.6890 C   0  0  0  0  0  0  0  0  0  0  0  0
  -28.1012  -14.6405   20.5033 C   0  0  0  0  0  0  0  0  0  0  0  0
  -28.1420  -23.4066   19.6278 C   0  0  0  0  0  0  0  0  0  0  0  0
  -26.7039  -33.8943   23.6751 C   0  0  1  0  0  0  0  0  0  0  0  0
  -24.5413  -31.5392   21.6234 C   0  0  1  0  0  0  0  0  0  0  0  0
  -27.6646  -13.2598   19.9870 C   0  0  2  0  0  0  0  0  0  0  0  0
  -27.8789  -25.7067   18.5905 C   0  0  1  0  0  0  0  0  0  1  0  0
  -31.7759  -20.8774   18.7597 C   0  0  0  0  0  0  0  0  0  0  0  0
  -18.9991  -26.4393   21.7491 C   0  0  0  0  0  0  0  0  0  0  0  0
  -22.0475  -30.4691   25.8116 C   0  0  0  0  0  0  0  0  0  0  0  0
  -20.7089  -28.3870   25.4356 C   0  0  0  0  0  0  0  0  0  0  0  0
  -20.0156  -30.5256   24.3547 C   0  0  0  0  0  0  0  0  0  0  0  0
  -22.3885  -25.5242   20.2825 C   0  0  0  0  0  0  0  0  0  0  0  0
  -29.4774  -22.3806   17.7333 C   0  0  0  0  0  0  0  0  0  0  0  0
  -22.0643  -29.3135   23.5029 C   0  0  1  0  0  0  0  0  0  0  0  0
  -20.4315  -26.6919   21.3050 C   0  0  2  0  0  0  0  0  0  0  0  0
  -21.2363  -29.6751   24.7682 C   0  0  0  0  0  0  0  0  0  0  0  0
  -25.6942  -13.4560   21.4569 N   0  0  0  0  0  0  0  0  0  0  0  0
  -26.2158  -12.9590   20.3224 N   0  0  0  0  0  0  0  0  0  0  0  0
  -23.8422  -30.3586   22.1352 N   0  0  0  0  0  0  0  0  0  0  0  0
  -29.5065  -14.8885   20.1450 N   0  0  0  0  0  0  0  0  0  0  0  0
  -25.6956  -11.6451   18.4214 N   0  0  0  0  0  0  0  0  0  0  0  0
  -21.8238  -11.6933   20.7457 N   0  0  0  0  0  0  0  0  0  0  0  0
  -29.0051  -16.8079   18.8694 N   0  0  0  0  0  0  0  0  0  0  0  0
  -25.7732  -33.2969   22.7417 N   0  0  0  0  0  0  0  0  0  0  0  0
  -21.3138  -28.5848   22.4859 N   0  0  0  0  0  0  0  0  0  0  0  0
  -29.4910  -23.2377   18.9688 N   0  3  1  0  0  0  0  0  0  0  0  0
  -20.9916  -25.4160   20.7764 N   0  3  0  0  0  0  0  0  0  0  0  0
  -22.8508  -10.8998   18.8551 O   0  0  0  0  0  0  0  0  0  0  0  0
  -26.0880  -31.0698   23.3446 O   0  0  0  0  0  0  0  0  0  0  0  0
  -22.0147  -31.6013   22.8782 O   0  0  0  0  0  0  0  0  0  0  0  0
  -21.8590  -26.4611   23.2405 O   0  0  0  0  0  0  0  0  0  0  0  0
  -31.1954  -16.0836   19.1138 O   0  0  0  0  0  0  0  0  0  0  0  0
  -20.9270  -14.2768   25.5984 O   0  0  0  0  0  0  0  0  0  0  0  0
  -27.9781  -26.4034   19.8322 O   0  0  0  0  0  0  0  0  0  1  0  0
  -15.5429  -13.4418   24.7512 F   0  0  0  0  0  0  0  0  0  0  0  0
  -27.0936  -20.9410   17.3569 F   0  0  0  0  0  0  0  0  0  0  0  0
  -19.1274  -16.3705   25.7406 F   0  0  0  0  0  0  0  0  0  0  0  0
  1  2  1  0  0  0  0
  1  5  2  0  0  0  0
  2  6  2  0  0  0  0
  3  8  2  0  0  0  0
  3 17  1  0  0  0  0
  4  9  1  0  0  0  0
  4 17  2  0  0  0  0
  5 19  1  0  0  0  0
  6 21  1  0  0  0  0
  7 10  2  0  0  0  0
  7 20  1  0  0  0  0
  8 26  1  0  0  0  0
  9 26  2  0  0  0  0
 10 27  1  0  0  0  0
 11 12  2  0  0  0  0
 11 28  1  0  0  0  0
 12 29  1  0  0  0  0
 13 22  1  0  0  0  0
 13 27  2  0  0  0  0
 14 23  2  0  0  0  0
 14 25  1  0  0  0  0
 15 25  2  0  0  0  0
 15 30  1  0  0  0  0
 16 29  2  0  0  0  0
 16 31  1  0  0  0  0
 17 32  1  0  0  0  0
 18 32  1  0  0  0  0
 18 33  2  0  0  0  0
 18 36  1  0  0  0  0
 19 21  2  0  0  0  0
 19 41  1  0  0  0  0
 20 22  2  0  0  0  0
 20 42  1  0  0  0  0
 21 53  1  0  0  0  0
 22 43  1  0  0  0  0
 23 24  1  0  0  0  0
 23 57  1  0  0  0  0
 24 30  2  0  0  0  0
 24 63  1  0  0  0  0
 25 73  1  0  0  0  0
 26 83  1  0  0  0  0
 27 84  1  0  0  0  0
 28 31  2  0  0  0  0
 28 83  1  0  0  0  0
 29 85  1  0  0  0  0
 30 86  1  0  0  0  0
 31 87  1  0  0  0  0
 32 67  2  0  0  0  0
 33 68  1  0  0  0  0
 33 71  1  0  0  0  0
 34 35  2  0  0  0  0
 34 44  1  0  0  0  0
 34 76  1  0  0  0  0
 36 72  1  0  0  0  0
 36 78  2  0  0  0  0
 37 54  1  0  0  0  0
 37 74  1  0  0  0  0
 37 79  2  0  0  0  0
 38 64  1  0  0  0  0
 38 69  1  0  0  0  0
 38 80  2  0  0  0  0
 39 65  1  0  0  0  0
 39 75  1  0  0  0  0
 39 81  2  0  0  0  0
 40 70  1  0  0  0  0
 40 73  1  0  0  0  0
 40 82  2  0  0  0  0
 41 45  1  0  0  0  0
 42 54  1  0  0  0  0
 43 69  1  0  0  0  0
 44 56  1  0  0  0  0
 45 47  1  0  0  0  0
 46 48  1  0  0  0  0
 46 50  1  0  0  0  0
 47 53  1  0  0  0  0
 48 55  1  0  0  0  0
 49 52  1  0  0  0  0
 49 56  1  0  0  0  0
 50 70  1  0  0  0  0
 51 55  1  0  0  0  0
 51 70  1  0  0  0  0
 52 76  1  0  0  0  0
 53 74  1  0  0  0  0
 54 69  1  0  0  0  0
 55 68  1  0  0  0  0
 56 84  1  0  0  0  0
 58 65  1  0  0  0  0
 59 66  1  0  0  0  0
 60 66  1  0  0  0  0
 61 66  1  0  0  0  0
 62 77  1  0  0  0  0
 63 76  1  0  0  0  0
 64 66  1  0  0  0  0
 64 75  1  0  0  0  0
 65 77  1  0  0  0  0
 67 68  1  0  0  0  0
M  CHG  2  76   1  77   1
M  ISO  4  40 100  56 101  73 100  84 101
M  END
> <Batch ID>
0047

> <Smiles>
C=C1C[101CH:1]([101O:1]c2ccc3c(c2)CN(C(=O)C(NC(=O)C(C)NC)C(C)(C)C)C(C(=O)NC2CCCc4ccccc42)C3)CCN1Cc1c(C)cc([100NH:0][100C:0](=O)N2CCCC(n3nc(-c4ccc(Oc5ccc(F)cc5F)cc4)c(C(N)=O)c3N)C2)cc1F

> <Shape>
0.305

> <Color>
0.081

> <Negative vol penalty>
0.000

$$$$

  -OEChem-04042322263D

 85 93  0     1  0  0  0  0  0999 V2000
  -32.1321  -16.0286   19.9511 C   0  0  0  0  0  0  0  0  0  0  0  0
  -31.0421  -16.8922   19.9883 C   0  0  0  0  0  0  0  0  0  0  0  0
  -28.4389  -25.9676   18.3628 C   0  0  0  0  0  0  0  0  0  0  0  0
  -26.2799  -24.9228   18.6530 C   0  0  0  0  0  0  0  0  0  0  0  0
  -31.9271  -14.6529   19.8547 C   0  0  0  0  0  0  0  0  0  0  0  0
  -29.7463  -16.3806   19.9281 C   0  0  0  0  0  0  0  0  0  0  0  0
  -26.6504  -18.5284   23.3115 C   0  0  0  0  0  0  0  0  0  0  0  0
  -29.0528  -24.7168   18.4267 C   0  0  0  0  0  0  0  0  0  0  0  0
  -26.8938  -23.6720   18.7168 C   0  0  0  0  0  0  0  0  0  0  0  0
  -26.1562  -19.7962   23.0076 C   0  0  0  0  0  0  0  0  0  0  0  0
  -28.1906  -21.4223   16.5540 C   0  0  0  0  0  0  0  0  0  0  0  0
  -27.6179  -20.3828   15.8211 C   0  0  0  0  0  0  0  0  0  0  0  0
  -24.0781  -18.8064   22.2858 C   0  0  0  0  0  0  0  0  0  0  0  0
  -20.3984  -27.5031   23.4534 C   0  0  0  0  0  0  0  0  0  0  0  0
  -18.5871  -26.6269   22.1162 C   0  0  0  0  0  0  0  0  0  0  0  0
  -19.1317  -28.9787   22.0198 C   0  0  0  0  0  0  0  0  0  0  0  0
  -27.2857  -19.1288   17.8594 C   0  0  0  0  0  0  0  0  0  0  0  0
  -27.0524  -26.0707   18.4760 C   0  0  0  0  0  0  0  0  0  0  0  0
  -25.9446  -28.0200   17.2593 C   0  0  0  0  0  0  0  0  0  0  0  0
  -30.6280  -14.1235   19.8030 C   0  0  0  0  0  0  0  0  0  0  0  0
  -25.8648  -17.3873   23.0943 C   0  0  0  0  0  0  0  0  0  0  0  0
  -29.5237  -14.9966   19.8296 C   0  0  0  0  0  0  0  0  0  0  0  0
  -24.5637  -17.5256   22.5902 C   0  0  0  0  0  0  0  0  0  0  0  0
  -19.6131  -26.4271   23.0398 C   0  0  0  0  0  0  0  0  0  0  0  0
  -20.1577  -28.7790   22.9434 C   0  0  0  0  0  0  0  0  0  0  0  0
  -28.2803  -23.5690   18.6037 C   0  0  0  0  0  0  0  0  0  0  0  0
  -24.8710  -19.9351   22.4919 C   0  0  0  0  0  0  0  0  0  0  0  0
  -28.3109  -21.3150   17.9396 C   0  0  0  0  0  0  0  0  0  0  0  0
  -27.1654  -19.2361   16.4738 C   0  0  0  0  0  0  0  0  0  0  0  0
  -27.8584  -20.1683   18.5922 C   0  0  0  0  0  0  0  0  0  0  0  0
  -18.3464  -27.9027   21.6062 C   0  0  0  0  0  0  0  0  0  0  0  0
  -26.4177  -27.3626   18.4107 C   0  0  0  0  0  0  0  0  0  0  0  0
  -25.4327  -29.2057   17.7268 C   0  0  0  0  0  0  0  0  0  0  0  0
  -22.7054  -22.7879   22.6183 C   0  0  0  0  0  0  0  0  0  0  0  0
  -23.2587  -21.5934   22.8402 C   0  0  0  0  0  0  0  0  0  1  0  0
  -25.9659  -27.5967   15.8896 C   0  0  0  0  0  0  0  0  0  0  0  0
  -21.4776  -23.1849   23.3570 C   0  0  0  0  0  0  0  0  0  0  0  0
  -26.1268  -14.7976   21.2699 C   0  0  0  0  0  0  0  0  0  0  0  0
  -23.4643  -13.8734   22.8759 C   0  0  0  0  0  0  0  0  0  0  0  0
  -20.6970  -14.7743   24.6583 C   0  0  0  0  0  0  0  0  0  0  0  0
  -23.2601  -30.8939   23.0448 C   0  0  0  0  0  0  0  0  0  0  0  0
  -30.4571  -12.6327   19.6515 C   0  0  0  0  0  0  0  0  0  0  0  0
  -26.4027  -16.0291   23.4524 C   0  0  0  0  0  0  0  0  0  0  0  0
  -23.6726  -16.3338   22.3576 C   0  0  0  0  0  0  0  0  0  0  0  0
  -29.0458  -12.1458   19.9702 C   0  0  0  0  0  0  0  0  0  0  0  0
  -25.9667  -32.3768   21.2694 C   0  0  0  0  0  0  0  0  0  0  0  0
  -28.0086  -13.0326   19.2886 C   0  0  0  0  0  0  0  0  0  0  0  0
  -26.3465  -31.3192   20.2315 C   0  0  0  0  0  0  0  0  0  0  0  0
  -25.5430  -31.7426   22.5924 C   0  0  0  0  0  0  0  0  0  0  0  0
  -24.8545  -29.6743   21.4427 C   0  0  0  0  0  0  0  0  0  0  0  0
  -28.1025  -14.4781   19.7916 C   0  0  1  0  0  0  0  0  0  0  0  0
  -25.7044  -14.8948   22.7086 C   0  0  1  0  0  0  0  0  0  0  0  0
  -25.2354  -30.2638   20.0739 C   0  0  2  0  0  0  0  0  0  0  0  0
  -18.6895  -13.7994   25.8059 C   0  0  0  0  0  0  0  0  0  0  0  0
  -22.1401  -13.4156   20.1653 C   0  0  0  0  0  0  0  0  0  0  0  0
  -19.9253  -13.3763   21.3321 C   0  0  0  0  0  0  0  0  0  0  0  0
  -21.6502  -11.6582   21.8759 C   0  0  0  0  0  0  0  0  0  0  0  0
  -21.5304  -15.8529   27.2853 C   0  0  0  0  0  0  0  0  0  0  0  0
  -19.8737  -25.0539   23.5879 C   0  0  0  0  0  0  0  0  0  0  0  0
  -20.9993  -29.9284   23.3852 C   0  0  0  0  0  0  0  0  0  0  0  0
  -21.9783  -14.0373   22.6660 C   0  0  1  0  0  0  0  0  0  0  0  0
  -20.1304  -14.2576   25.9685 C   0  0  2  0  0  0  0  0  0  0  0  0
  -21.4407  -13.1443   21.5123 C   0  0  0  0  0  0  0  0  0  0  0  0
  -26.2238  -28.0718   19.5257 N   0  0  0  0  0  0  0  0  0  0  0  0
  -25.6233  -29.1872   19.0772 N   0  0  0  0  0  0  0  0  0  0  0  0
  -24.2461  -15.0265   22.7175 N   0  0  0  0  0  0  0  0  0  0  0  0
  -24.4857  -30.7525   22.3734 N   0  0  0  0  0  0  0  0  0  0  0  0
  -24.8428  -30.2519   17.1104 N   0  0  0  0  0  0  0  0  0  0  0  0
  -26.5289  -26.3501   15.5841 N   0  0  0  0  0  0  0  0  0  0  0  0
  -21.0470  -24.4512   23.0003 N   0  0  0  0  0  0  0  0  0  0  0  0
  -27.4833  -14.6014   21.0938 N   0  0  0  0  0  0  0  0  0  0  0  0
  -21.3530  -13.7831   23.9593 N   0  0  0  0  0  0  0  0  0  0  0  0
  -22.3105  -29.9158   22.7758 N   0  0  0  0  0  0  0  0  0  0  0  0
  -20.1697  -15.3259   27.0069 N   0  3  0  0  0  0  0  0  0  0  0  0
  -25.5142  -28.3102   14.9620 O   0  0  0  0  0  0  0  0  0  0  0  0
  -20.9360  -22.4544   24.1806 O   0  0  0  0  0  0  0  0  0  0  0  0
  -25.2842  -14.8921   20.3851 O   0  0  0  0  0  0  0  0  0  0  0  0
  -23.9139  -12.7648   23.1765 O   0  0  0  0  0  0  0  0  0  0  0  0
  -20.5671  -15.9396   24.2899 O   0  0  0  0  0  0  0  0  0  0  0  0
  -23.0272  -31.8259   23.8220 O   0  0  0  0  0  0  0  0  0  0  0  0
  -28.8790  -22.3482   18.6658 O   0  0  0  0  0  0  0  0  0  0  0  0
  -24.3864  -21.1713   22.1938 O   0  0  0  0  0  0  0  0  0  1  0  0
  -26.6140  -18.2386   15.7701 F   0  0  0  0  0  0  0  0  0  0  0  0
  -27.9702  -20.0600   19.9232 F   0  0  0  0  0  0  0  0  0  0  0  0
  -17.0796  -28.1495   20.4676 Cl  0  0  0  0  0  0  0  0  0  0  0  0
  1  2  1  0  0  0  0
  1  5  2  0  0  0  0
  2  6  2  0  0  0  0
  3  8  2  0  0  0  0
  3 18  1  0  0  0  0
  4  9  1  0  0  0  0
  4 18  2  0  0  0  0
  5 20  1  0  0  0  0
  6 22  1  0  0  0  0
  7 10  2  0  0  0  0
  7 21  1  0  0  0  0
  8 26  1  0  0  0  0
  9 26  2  0  0  0  0
 10 27  1  0  0  0  0
 11 12  2  0  0  0  0
 11 28  1  0  0  0  0
 12 29  1  0  0  0  0
 13 23  1  0  0  0  0
 13 27  2  0  0  0  0
 14 24  2  0  0  0  0
 14 25  1  0  0  0  0
 15 24  1  0  0  0  0
 15 31  2  0  0  0  0
 16 25  2  0  0  0  0
 16 31  1  0  0  0  0
 17 29  2  0  0  0  0
 17 30  1  0  0  0  0
 18 32  1  0  0  0  0
 19 32  1  0  0  0  0
 19 33  2  0  0  0  0
 19 36  1  0  0  0  0
 20 22  2  0  0  0  0
 20 42  1  0  0  0  0
 21 23  2  0  0  0  0
 21 43  1  0  0  0  0
 22 51  1  0  0  0  0
 23 44  1  0  0  0  0
 24 59  1  0  0  0  0
 25 60  1  0  0  0  0
 26 81  1  0  0  0  0
 27 82  1  0  0  0  0
 28 30  2  0  0  0  0
 28 81  1  0  0  0  0
 29 83  1  0  0  0  0
 30 84  1  0  0  0  0
 31 85  1  0  0  0  0
 32 64  2  0  0  0  0
 33 65  1  0  0  0  0
 33 68  1  0  0  0  0
 34 35  2  0  0  0  0
 34 37  1  0  0  0  0
 35 82  1  0  0  0  0
 36 69  1  0  0  0  0
 36 75  2  0  0  0  0
 37 70  1  0  0  0  0
 37 76  2  0  0  0  0
 38 52  1  0  0  0  0
 38 71  1  0  0  0  0
 38 77  2  0  0  0  0
 39 61  1  0  0  0  0
 39 66  1  0  0  0  0
 39 78  2  0  0  0  0
 40 62  1  0  0  0  0
 40 72  1  0  0  0  0
 40 79  2  0  0  0  0
 41 67  1  0  0  0  0
 41 73  1  0  0  0  0
 41 80  2  0  0  0  0
 42 45  1  0  0  0  0
 43 52  1  0  0  0  0
 44 66  1  0  0  0  0
 45 47  1  0  0  0  0
 46 48  1  0  0  0  0
 46 49  1  0  0  0  0
 47 51  1  0  0  0  0
 48 53  1  0  0  0  0
 49 67  1  0  0  0  0
 50 53  1  0  0  0  0
 50 67  1  0  0  0  0
 51 71  1  0  0  0  0
 52 66  1  0  0  0  0
 53 65  1  0  0  0  0
 54 62  1  0  0  0  0
 55 63  1  0  0  0  0
 56 63  1  0  0  0  0
 57 63  1  0  0  0  0
 58 74  1  0  0  0  0
 59 70  1  0  0  0  0
 60 73  1  0  0  0  0
 61 63  1  0  0  0  0
 61 72  1  0  0  0  0
 62 74  1  0  0  0  0
 64 65  1  0  0  0  0
M  CHG  1  74   1
M  ISO  4  35 101  41 100  73 100  82 101
M  END
> <Batch ID>
0047

> <Smiles>
CNC(C)C(=O)NC(C(=O)N1Cc2cc([101O:1][101CH:1]=CC(=O)NCc3cc(Cl)cc(C[100NH:0][100C:0](=O)N4CCCC(n5nc(-c6ccc(Oc7ccc(F)cc7F)cc6)c(C(N)=O)c5N)C4)c3)ccc2CC1C(=O)NC1CCCc2ccccc21)C(C)(C)C

> <Shape>
0.211

> <Color>
0.083

> <Negative vol penalty>
0.000

$$$$

  -OEChem-04042322263D

 89 98  0     1  0  0  0  0  0999 V2000
  -26.0028  -18.5364   25.6415 C   0  0  0  0  0  0  0  0  0  0  0  0
  -26.3198  -19.8847   25.5208 C   0  0  0  0  0  0  0  0  0  0  0  0
  -26.0151  -14.2946   21.3601 C   0  0  0  0  0  0  0  0  0  0  0  0
  -25.7090  -16.2236   19.9381 C   0  0  0  0  0  0  0  0  0  0  0  0
  -24.8832  -18.0263   24.9877 C   0  0  0  0  0  0  0  0  0  0  0  0
  -25.5107  -20.7258   24.7561 C   0  0  0  0  0  0  0  0  0  0  0  0
  -26.5229  -25.5380   24.9000 C   0  0  0  0  0  0  0  0  0  0  0  0
  -24.6354  -14.0904   21.3802 C   0  0  0  0  0  0  0  0  0  0  0  0
  -24.3293  -16.0195   19.9581 C   0  0  0  0  0  0  0  0  0  0  0  0
  -27.6447  -26.0910   24.2841 C   0  0  0  0  0  0  0  0  0  0  0  0
  -22.2821  -12.7742   19.3400 C   0  0  0  0  0  0  0  0  0  0  0  0
  -21.8167  -11.4724   19.1553 C   0  0  0  0  0  0  0  0  0  0  0  0
  -30.4067  -22.0262   17.2617 C   0  0  0  0  0  0  0  0  0  0  0  0
  -26.2499  -26.9142   22.4963 C   0  0  0  0  0  0  0  0  0  0  0  0
  -31.1647  -23.5166   19.0056 C   0  0  0  0  0  0  0  0  0  0  0  0
  -20.7549  -11.5443   21.3243 C   0  0  0  0  0  0  0  0  0  0  0  0
  -26.5519  -15.3612   20.6391 C   0  0  0  0  0  0  0  0  0  0  0  0
  -30.2047  -23.1175   16.4168 C   0  0  0  0  0  0  0  0  0  0  0  0
  -28.9620  -14.6823   20.1511 C   0  0  0  0  0  0  0  0  0  0  0  0
  -24.0675  -18.8597   24.2047 C   0  0  0  0  0  0  0  0  0  0  0  0
  -25.2555  -25.6598   24.3122 C   0  0  0  0  0  0  0  0  0  0  0  0
  -24.3628  -20.2348   24.1080 C   0  0  0  0  0  0  0  0  0  0  0  0
  -25.1132  -26.3640   23.1081 C   0  0  0  0  0  0  0  0  0  0  0  0
  -30.9627  -24.6079   18.1607 C   0  0  0  0  0  0  0  0  0  0  0  0
  -30.4827  -24.4084   16.8663 C   0  0  0  0  0  0  0  0  0  0  0  0
  -30.8867  -22.2258   18.5561 C   0  0  0  0  0  0  0  0  0  0  0  0
  -23.7925  -14.9529   20.6792 C   0  0  0  0  0  0  0  0  0  0  0  0
  -27.5088  -26.7767   23.0806 C   0  0  0  0  0  0  0  0  0  0  0  0
  -21.9840  -13.4611   20.5168 C   0  0  0  0  0  0  0  0  0  0  0  0
  -21.0530  -10.8574   20.1474 C   0  0  0  0  0  0  0  0  0  0  0  0
  -21.2204  -12.8462   21.5090 C   0  0  0  0  0  0  0  0  0  0  0  0
  -27.9770  -15.5729   20.6184 C   0  0  0  0  0  0  0  0  0  0  0  0
  -30.1474  -15.3477   20.3475 C   0  0  0  0  0  0  0  0  0  0  0  0
  -29.8000  -26.4352   20.5949 C   0  0  0  0  0  0  0  0  0  0  0  0
  -29.7025  -22.8783   15.0704 C   0  0  0  0  0  0  0  0  0  0  0  0
  -28.8183  -13.3709   19.5897 C   0  0  0  0  0  0  0  0  0  0  0  0
  -23.0988  -23.6137   23.1872 C   0  0  0  0  0  0  0  0  0  0  0  0
  -21.2967  -26.2920   22.8681 C   0  0  0  0  0  0  0  0  0  0  0  0
  -21.8053  -29.6938   21.7789 C   0  0  0  0  0  0  0  0  0  0  0  0
  -31.5629  -21.1406   20.7267 C   0  0  0  0  0  0  0  0  0  0  0  0
  -22.8634  -18.2568   23.5251 C   0  0  0  0  0  0  0  0  0  0  0  0
  -24.0514  -25.0806   25.0029 C   0  0  0  0  0  0  0  0  0  0  0  0
  -23.7717  -26.5403   22.4463 C   0  0  0  0  0  0  0  0  0  0  0  0
  -22.3268  -19.1215   22.3890 C   0  0  0  0  0  0  0  0  0  0  0  0
  -32.0403  -25.9277   22.4144 C   0  0  0  0  0  0  0  0  0  0  0  0
  -32.1719  -18.6346   23.1816 C   0  0  0  0  0  0  0  0  0  0  0  0
  -22.1611  -20.5577   22.8627 C   0  0  0  0  0  0  0  0  0  0  0  0
  -30.9026  -26.8257   22.8533 C   0  0  0  0  0  0  0  0  0  0  0  0
  -31.2594  -17.4817   22.7569 C   0  0  0  0  0  0  0  0  0  0  0  0
  -32.2775  -26.0954   20.9243 C   0  0  0  0  0  0  0  0  0  0  0  0
  -31.5219  -19.9942   22.9311 C   0  0  0  0  0  0  0  0  0  0  0  0
  -30.1189  -19.0523   21.1384 C   0  0  0  0  0  0  0  0  0  0  0  0
  -23.5146  -21.1624   23.2568 C   0  0  1  0  0  0  0  0  0  0  0  0
  -29.6430  -26.4263   22.1102 C   0  0  1  0  0  0  0  0  0  1  0  0
  -22.8851  -24.8223   24.0540 C   0  0  1  0  0  0  0  0  0  0  0  0
  -30.7566  -17.6641   21.3114 C   0  0  2  0  0  0  0  0  0  0  0  0
  -30.2660  -25.5811   15.9623 C   0  0  0  0  0  0  0  0  0  0  0  0
  -30.5302  -22.0122   14.1678 C   0  0  0  0  0  0  0  0  0  0  0  0
  -20.5915  -31.8024   22.3936 C   0  0  0  0  0  0  0  0  0  0  0  0
  -19.6309  -25.7156   20.3775 C   0  0  0  0  0  0  0  0  0  0  0  0
  -19.6116  -28.1745   19.9065 C   0  0  0  0  0  0  0  0  0  0  0  0
  -18.5714  -27.2988   21.9978 C   0  0  0  0  0  0  0  0  0  0  0  0
  -24.3100  -31.0286   22.6176 C   0  0  0  0  0  0  0  0  0  0  0  0
  -31.2697  -25.9871   18.6684 C   0  0  0  0  0  0  0  0  0  0  0  0
  -21.0902  -27.3183   21.7804 C   0  0  1  0  0  0  0  0  0  0  0  0
  -21.8142  -30.9357   22.6517 C   0  0  2  0  0  0  0  0  0  0  0  0
  -19.7506  -27.1128   21.0183 C   0  0  0  0  0  0  0  0  0  0  0  0
  -28.4918  -16.7168   21.0772 N   0  0  0  0  0  0  0  0  0  0  0  0
  -29.8134  -16.5494   20.8993 N   0  0  0  0  0  0  0  0  0  0  0  0
  -31.0634  -26.0971   20.1064 N   0  0  0  0  0  0  0  0  0  0  0  0
  -22.6254  -25.9504   23.1573 N   0  0  0  0  0  0  0  0  0  0  0  0
  -31.0742  -20.0966   21.5404 N   0  0  0  0  0  0  0  0  0  0  0  0
  -31.4325  -15.0162   20.1004 N   0  0  0  0  0  0  0  0  0  0  0  0
  -27.5288  -12.8376   19.4591 N   0  0  0  0  0  0  0  0  0  0  0  0
  -31.0925  -21.1171   19.4142 N   0  0  0  0  0  0  0  0  0  0  0  0
  -23.2926  -22.4419   23.8934 N   0  0  0  0  0  0  0  0  0  0  0  0
  -21.2195  -28.6229   22.4203 N   0  0  0  0  0  0  0  0  0  0  0  0
  -23.0329  -31.7499   22.3816 N   0  3  0  0  0  0  0  0  0  0  0  0
  -28.8237  -26.6678   19.8773 O   0  0  0  0  0  0  0  0  0  0  0  0
  -28.6532  -23.3379   14.6184 O   0  0  0  0  0  0  0  0  0  0  0  0
  -29.8054  -12.6855   19.2300 O   0  0  0  0  0  0  0  0  0  0  0  0
  -23.0871  -23.7351   21.9678 O   0  0  0  0  0  0  0  0  0  0  0  0
  -20.3155  -25.8163   23.4449 O   0  0  0  0  0  0  0  0  0  0  0  0
  -22.2680  -29.6764   20.6404 O   0  0  0  0  0  0  0  0  0  0  0  0
  -32.3626  -21.9768   21.1546 O   0  0  0  0  0  0  0  0  0  0  0  0
  -22.4462  -14.7538   20.6984 O   0  0  0  0  0  0  0  0  0  0  0  0
  -28.6022  -27.3169   22.4769 O   0  0  0  0  0  0  0  0  0  1  0  0
  -20.6048   -9.6078   19.9693 F   0  0  0  0  0  0  0  0  0  0  0  0
  -20.9298  -13.5015   22.6412 F   0  0  0  0  0  0  0  0  0  0  0  0
  1  2  1  0  0  0  0
  1  5  2  0  0  0  0
  2  6  2  0  0  0  0
  3  8  2  0  0  0  0
  3 17  1  0  0  0  0
  4  9  1  0  0  0  0
  4 17  2  0  0  0  0
  5 20  1  0  0  0  0
  6 22  1  0  0  0  0
  7 10  2  0  0  0  0
  7 21  1  0  0  0  0
  8 27  1  0  0  0  0
  9 27  2  0  0  0  0
 10 28  1  0  0  0  0
 11 12  2  0  0  0  0
 11 29  1  0  0  0  0
 12 30  1  0  0  0  0
 13 18  2  0  0  0  0
 13 26  1  0  0  0  0
 14 23  1  0  0  0  0
 14 28  2  0  0  0  0
 15 24  1  0  0  0  0
 15 26  2  0  0  0  0
 16 30  2  0  0  0  0
 16 31  1  0  0  0  0
 17 32  1  0  0  0  0
 18 25  1  0  0  0  0
 18 35  1  0  0  0  0
 19 32  1  0  0  0  0
 19 33  2  0  0  0  0
 19 36  1  0  0  0  0
 20 22  2  0  0  0  0
 20 41  1  0  0  0  0
 21 23  2  0  0  0  0
 21 42  1  0  0  0  0
 22 53  1  0  0  0  0
 23 43  1  0  0  0  0
 24 25  2  0  0  0  0
 24 64  1  0  0  0  0
 25 57  1  0  0  0  0
 26 75  1  0  0  0  0
 27 86  1  0  0  0  0
 28 87  1  0  0  0  0
 29 31  2  0  0  0  0
 29 86  1  0  0  0  0
 30 88  1  0  0  0  0
 31 89  1  0  0  0  0
 32 68  2  0  0  0  0
 33 69  1  0  0  0  0
 33 73  1  0  0  0  0
 34 54  1  0  0  0  0
 34 70  1  0  0  0  0
 34 79  2  0  0  0  0
 35 58  1  0  0  0  0
 35 80  2  0  0  0  0
 36 74  1  0  0  0  0
 36 81  2  0  0  0  0
 37 55  1  0  0  0  0
 37 76  1  0  0  0  0
 37 82  2  0  0  0  0
 38 65  1  0  0  0  0
 38 71  1  0  0  0  0
 38 83  2  0  0  0  0
 39 66  1  0  0  0  0
 39 77  1  0  0  0  0
 39 84  2  0  0  0  0
 40 72  1  0  0  0  0
 40 75  1  0  0  0  0
 40 85  2  0  0  0  0
 41 44  1  0  0  0  0
 42 55  1  0  0  0  0
 43 71  1  0  0  0  0
 44 47  1  0  0  0  0
 45 48  1  0  0  0  0
 45 50  1  0  0  0  0
 46 49  1  0  0  0  0
 46 51  1  0  0  0  0
 47 53  1  0  0  0  0
 48 54  1  0  0  0  0
 49 56  1  0  0  0  0
 50 70  1  0  0  0  0
 51 72  1  0  0  0  0
 52 56  1  0  0  0  0
 52 72  1  0  0  0  0
 53 76  1  0  0  0  0
 54 87  1  0  0  0  0
 55 71  1  0  0  0  0
 56 69  1  0  0  0  0
 59 66  1  0  0  0  0
 60 67  1  0  0  0  0
 61 67  1  0  0  0  0
 62 67  1  0  0  0  0
 63 78  1  0  0  0  0
 64 70  1  0  0  0  0
 65 67  1  0  0  0  0
 65 77  1  0  0  0  0
 66 78  1  0  0  0  0
 68 69  1  0  0  0  0
M  CHG  1  78   1
M  ISO  4  40 100  54 101  75 100  87 101
M  END
> <Batch ID>
0047

> <Smiles>
CNC(C)C(=O)NC(C(=O)N1Cc2cc([101O:1][101CH:1]3CCCN(Cc4cc([100NH:0][100C:0](=O)N5CCCC(n6nc(-c7ccc(Oc8ccc(F)cc8F)cc7)c(C(N)=O)c6N)C5)cc(C(C)=O)c4C)C3=O)ccc2CC1C(=O)NC1CCCc2ccccc21)C(C)(C)C

> <Shape>
0.228

> <Color>
0.058

> <Negative vol penalty>
0.000

$$$$

  -OEChem-04042322263D

 87 95  0     1  0  0  0  0  0999 V2000
  -23.2007  -10.3977   18.5681 C   0  0  0  0  0  0  0  0  0  0  0  0
  -22.4561  -11.5714   18.6265 C   0  0  0  0  0  0  0  0  0  0  0  0
  -28.9411  -26.5709   19.1464 C   0  0  0  0  0  0  0  0  0  0  0  0
  -28.4502  -26.4289   21.5077 C   0  0  0  0  0  0  0  0  0  0  0  0
  -24.4047  -10.3020   19.2646 C   0  0  0  0  0  0  0  0  0  0  0  0
  -22.9146  -12.6498   19.3823 C   0  0  0  0  0  0  0  0  0  0  0  0
  -22.9088  -19.8129   19.4655 C   0  0  0  0  0  0  0  0  0  0  0  0
  -18.7271  -26.6885   24.1080 C   0  0  0  0  0  0  0  0  0  0  0  0
  -30.2871  -26.7902   19.4393 C   0  0  0  0  0  0  0  0  0  0  0  0
  -29.7963  -26.6482   21.8007 C   0  0  0  0  0  0  0  0  0  0  0  0
  -22.5975  -20.8800   20.3070 C   0  0  0  0  0  0  0  0  0  0  0  0
  -33.1636  -26.8115   23.1618 C   0  0  0  0  0  0  0  0  0  0  0  0
  -33.7574  -26.0025   24.1305 C   0  0  0  0  0  0  0  0  0  0  0  0
  -17.4454  -27.0504   23.6936 C   0  0  0  0  0  0  0  0  0  0  0  0
  -24.7309  -20.6287   21.4047 C   0  0  0  0  0  0  0  0  0  0  0  0
  -18.2746  -29.2180   23.0219 C   0  0  0  0  0  0  0  0  0  0  0  0
  -33.2571  -24.0464   22.8037 C   0  0  0  0  0  0  0  0  0  0  0  0
  -28.0227  -26.3903   20.1806 C   0  0  0  0  0  0  0  0  0  0  0  0
  -25.9975  -24.9247   19.6723 C   0  0  0  0  0  0  0  0  0  0  0  0
  -24.8830  -11.3832   20.0215 C   0  0  0  0  0  0  0  0  0  0  0  0
  -24.1309  -19.1375   19.5947 C   0  0  0  0  0  0  0  0  0  0  0  0
  -24.1255  -12.5680   20.0906 C   0  0  0  0  0  0  0  0  0  0  0  0
  -25.0563  -19.5550   20.5619 C   0  0  0  0  0  0  0  0  0  0  0  0
  -19.7826  -27.5913   23.9795 C   0  0  0  0  0  0  0  0  0  0  0  0
  -19.5564  -28.8560   23.4365 C   0  0  0  0  0  0  0  0  0  0  0  0
  -30.7147  -26.8288   20.7664 C   0  0  0  0  0  0  0  0  0  0  0  0
  -23.5074  -21.2862   21.2787 C   0  0  0  0  0  0  0  0  0  0  0  0
  -32.6165  -26.2380   22.0139 C   0  0  0  0  0  0  0  0  0  0  0  0
  -33.8042  -24.6200   23.9515 C   0  0  0  0  0  0  0  0  0  0  0  0
  -32.6633  -24.8555   21.8349 C   0  0  0  0  0  0  0  0  0  0  0  0
  -17.2191  -28.3151   23.1505 C   0  0  0  0  0  0  0  0  0  0  0  0
  -26.6320  -26.1643   19.8786 C   0  0  0  0  0  0  0  0  0  0  0  0
  -24.6866  -25.2477   19.4201 C   0  0  0  0  0  0  0  0  0  0  0  0
  -21.1404  -24.3099   24.0220 C   0  0  0  0  0  0  0  0  0  0  0  0
  -21.7223  -23.1279   23.7751 C   0  0  0  0  0  0  0  0  0  0  0  0
  -26.5441  -23.5996   19.7058 C   0  0  0  0  0  0  0  0  0  0  0  0
  -21.0954  -24.8410   25.4151 C   0  0  0  0  0  0  0  0  0  0  0  0
  -24.9834  -16.1563   20.2941 C   0  0  0  0  0  0  0  0  0  0  0  0
  -27.9535  -17.2546   19.5910 C   0  0  0  0  0  0  0  0  0  0  0  0
  -30.0728  -19.9174   19.3366 C   0  0  0  0  0  0  0  0  0  0  0  0
  -21.2919  -29.9557   20.8905 C   0  0  0  0  0  0  0  0  0  0  0  0
  -26.1667  -11.2160   20.7954 C   0  0  0  0  0  0  0  0  0  0  0  0
  -24.4628  -18.0055   18.6615 C   0  0  0  0  0  0  0  0  0  0  0  0
  -26.3905  -18.8762   20.7280 C   0  0  0  0  0  0  0  0  0  0  0  0
  -26.7677  -12.5363   21.2706 C   0  0  0  0  0  0  0  0  0  0  0  0
  -21.9745  -28.7495   17.6109 C   0  0  0  0  0  0  0  0  0  0  0  0
  -25.6923  -13.4170   21.8990 C   0  0  0  0  0  0  0  0  0  0  0  0
  -23.1883  -27.8383   17.8016 C   0  0  0  0  0  0  0  0  0  0  0  0
  -22.0351  -29.9695   18.5275 C   0  0  0  0  0  0  0  0  0  0  0  0
  -23.4346  -28.7497   20.1484 C   0  0  0  0  0  0  0  0  0  0  0  0
  -24.6019  -13.7683   20.8796 C   0  0  1  0  0  0  0  0  0  0  0  0
  -25.5214  -17.0604   19.2214 C   0  0  1  0  0  0  0  0  0  0  0  0
  -23.3907  -27.4770   19.2854 C   0  0  2  0  0  0  0  0  0  0  0  0
  -32.4491  -20.4973   18.7759 C   0  0  0  0  0  0  0  0  0  0  0  0
  -28.8485  -16.2094   22.3143 C   0  0  0  0  0  0  0  0  0  0  0  0
  -30.9046  -17.6223   22.1032 C   0  0  0  0  0  0  0  0  0  0  0  0
  -30.4707  -15.8003   20.4554 C   0  0  0  0  0  0  0  0  0  0  0  0
  -21.0886  -26.8266   26.8759 C   0  0  0  0  0  0  0  0  0  0  0  0
  -29.2431  -21.6175   17.0605 C   0  0  0  0  0  0  0  0  0  0  0  0
  -21.1534  -27.1799   24.4333 C   0  0  0  0  0  0  0  0  0  0  0  0
  -20.6707  -29.8398   23.2905 C   0  0  0  0  0  0  0  0  0  0  0  0
  -21.8275  -22.5359   22.4066 C   0  0  0  0  0  0  0  0  0  1  0  0
  -29.0678  -17.9021   20.3772 C   0  0  1  0  0  0  0  0  0  0  0  0
  -31.0348  -20.3380   18.2401 C   0  0  2  0  0  0  0  0  0  0  0  0
  -29.7970  -16.8953   21.3109 C   0  0  0  0  0  0  0  0  0  0  0  0
  -25.7933  -27.1978   19.7669 N   0  0  0  0  0  0  0  0  0  0  0  0
  -24.6183  -26.6082   19.4876 N   0  0  0  0  0  0  0  0  0  0  0  0
  -26.6660  -17.7705   19.7958 N   0  0  0  0  0  0  0  0  0  0  0  0
  -22.2265  -29.5579   19.9203 N   0  0  0  0  0  0  0  0  0  0  0  0
  -23.5971  -24.4979   19.1493 N   0  0  0  0  0  0  0  0  0  0  0  0
  -27.9101  -23.4471   19.9799 N   0  0  0  0  0  0  0  0  0  0  0  0
  -25.0612  -14.8112   19.9874 N   0  0  0  0  0  0  0  0  0  0  0  0
  -29.9368  -18.5467   19.3986 N   0  0  0  0  0  0  0  0  0  0  0  0
  -21.5448  -29.5175   22.1847 N   0  0  0  0  0  0  0  0  0  0  0  0
  -21.1001  -26.2327   25.5453 N   0  0  0  0  0  0  0  0  0  0  0  0
  -30.6080  -21.6367   17.6467 N   0  3  0  0  0  0  0  0  0  0  0  0
  -25.8454  -22.5820   19.4827 O   0  0  0  0  0  0  0  0  0  0  0  0
  -21.0818  -24.0592   26.3671 O   0  0  0  0  0  0  0  0  0  0  0  0
  -24.5324  -16.6430   21.3244 O   0  0  0  0  0  0  0  0  0  0  0  0
  -28.2169  -16.3300   18.8181 O   0  0  0  0  0  0  0  0  0  0  0  0
  -29.5022  -20.7240   20.0676 O   0  0  0  0  0  0  0  0  0  0  0  0
  -20.3024  -30.6456   20.6223 O   0  0  0  0  0  0  0  0  0  0  0  0
  -32.0280  -27.0426   21.0527 O   0  0  0  0  0  0  0  0  0  0  0  0
  -23.2059  -22.3271   22.1018 O   0  0  0  0  0  0  0  0  0  1  0  0
  -34.3758  -23.8434   24.8812 F   0  0  0  0  0  0  0  0  0  0  0  0
  -32.1405  -24.2988   20.7337 F   0  0  0  0  0  0  0  0  0  0  0  0
  -15.6375  -28.7618   22.6410 Cl  0  0  0  0  0  0  0  0  0  0  0  0
  1  2  1  0  0  0  0
  1  5  2  0  0  0  0
  2  6  2  0  0  0  0
  3  9  2  0  0  0  0
  3 18  1  0  0  0  0
  4 10  1  0  0  0  0
  4 18  2  0  0  0  0
  5 20  1  0  0  0  0
  6 22  1  0  0  0  0
  7 11  2  0  0  0  0
  7 21  1  0  0  0  0
  8 14  2  0  0  0  0
  8 24  1  0  0  0  0
  9 26  1  0  0  0  0
 10 26  2  0  0  0  0
 11 27  1  0  0  0  0
 12 13  2  0  0  0  0
 12 28  1  0  0  0  0
 13 29  1  0  0  0  0
 14 31  1  0  0  0  0
 15 23  1  0  0  0  0
 15 27  2  0  0  0  0
 16 25  1  0  0  0  0
 16 31  2  0  0  0  0
 17 29  2  0  0  0  0
 17 30  1  0  0  0  0
 18 32  1  0  0  0  0
 19 32  1  0  0  0  0
 19 33  2  0  0  0  0
 19 36  1  0  0  0  0
 20 22  2  0  0  0  0
 20 42  1  0  0  0  0
 21 23  2  0  0  0  0
 21 43  1  0  0  0  0
 22 51  1  0  0  0  0
 23 44  1  0  0  0  0
 24 25  2  0  0  0  0
 24 60  1  0  0  0  0
 25 61  1  0  0  0  0
 26 83  1  0  0  0  0
 27 84  1  0  0  0  0
 28 30  2  0  0  0  0
 28 83  1  0  0  0  0
 29 85  1  0  0  0  0
 30 86  1  0  0  0  0
 31 87  1  0  0  0  0
 32 66  2  0  0  0  0
 33 67  1  0  0  0  0
 33 70  1  0  0  0  0
 34 35  2  0  0  0  0
 34 37  1  0  0  0  0
 35 62  1  0  0  0  0
 36 71  1  0  0  0  0
 36 77  2  0  0  0  0
 37 75  1  0  0  0  0
 37 78  2  0  0  0  0
 38 52  1  0  0  0  0
 38 72  1  0  0  0  0
 38 79  2  0  0  0  0
 39 63  1  0  0  0  0
 39 68  1  0  0  0  0
 39 80  2  0  0  0  0
 40 64  1  0  0  0  0
 40 73  1  0  0  0  0
 40 81  2  0  0  0  0
 41 69  1  0  0  0  0
 41 74  1  0  0  0  0
 41 82  2  0  0  0  0
 42 45  1  0  0  0  0
 43 52  1  0  0  0  0
 44 68  1  0  0  0  0
 45 47  1  0  0  0  0
 46 48  1  0  0  0  0
 46 49  1  0  0  0  0
 47 51  1  0  0  0  0
 48 53  1  0  0  0  0
 49 69  1  0  0  0  0
 50 53  1  0  0  0  0
 50 69  1  0  0  0  0
 51 72  1  0  0  0  0
 52 68  1  0  0  0  0
 53 67  1  0  0  0  0
 54 64  1  0  0  0  0
 55 65  1  0  0  0  0
 56 65  1  0  0  0  0
 57 65  1  0  0  0  0
 58 75  1  0  0  0  0
 59 76  1  0  0  0  0
 60 75  1  0  0  0  0
 61 74  1  0  0  0  0
 62 84  1  0  0  0  0
 63 65  1  0  0  0  0
 63 73  1  0  0  0  0
 64 76  1  0  0  0  0
 66 67  1  0  0  0  0
M  CHG  1  76   1
M  ISO  4  41 100  62 101  74 100  84 101
M  END
> <Batch ID>
0047

> <Smiles>
CNC(C)C(=O)NC(C(=O)N1Cc2cc([101O:1][101CH2:1]C=CC(=O)N(C)Cc3ccc(Cl)cc3C[100NH:0][100C:0](=O)N3CCCC(n4nc(-c5ccc(Oc6ccc(F)cc6F)cc5)c(C(N)=O)c4N)C3)ccc2CC1C(=O)NC1CCCc2ccccc21)C(C)(C)C

> <Shape>
0.212

> <Color>
0.071

> <Negative vol penalty>
0.000

$$$$

  -OEChem-04042322263D

 90 99  0     1  0  0  0  0  0999 V2000
  -26.5739  -33.0648   27.5243 C   0  0  0  0  0  0  0  0  0  0  0  0
  -27.1047  -32.1051   26.6684 C   0  0  0  0  0  0  0  0  0  0  0  0
  -22.7760  -12.2156   22.7456 C   0  0  0  0  0  0  0  0  0  0  0  0
  -23.3361  -10.2519   21.4543 C   0  0  0  0  0  0  0  0  0  0  0  0
  -25.1997  -33.1066   27.7563 C   0  0  0  0  0  0  0  0  0  0  0  0
  -26.2617  -31.1859   26.0448 C   0  0  0  0  0  0  0  0  0  0  0  0
  -26.9064  -28.8160   20.4346 C   0  0  0  0  0  0  0  0  0  0  0  0
  -31.0437  -19.3751   17.5263 C   0  0  0  0  0  0  0  0  0  0  0  0
  -21.8881  -11.4593   23.5106 C   0  0  0  0  0  0  0  0  0  0  0  0
  -22.4482   -9.4956   22.2193 C   0  0  0  0  0  0  0  0  0  0  0  0
  -27.4261  -27.6039   19.9824 C   0  0  0  0  0  0  0  0  0  0  0  0
  -22.4094   -8.0305   25.2644 C   0  0  0  0  0  0  0  0  0  0  0  0
  -31.3191  -18.0723   17.1110 C   0  0  0  0  0  0  0  0  0  0  0  0
  -22.8436   -6.7838   25.7147 C   0  0  0  0  0  0  0  0  0  0  0  0
  -25.1989  -26.6794   19.9194 C   0  0  0  0  0  0  0  0  0  0  0  0
  -21.0339   -5.7212   24.5177 C   0  0  0  0  0  0  0  0  0  0  0  0
  -23.5000  -11.6119   21.7174 C   0  0  0  0  0  0  0  0  0  0  0  0
  -24.1129  -13.5163   20.1346 C   0  0  0  0  0  0  0  0  0  0  0  0
  -24.3384  -32.1936   27.1277 C   0  0  0  0  0  0  0  0  0  0  0  0
  -25.5278  -28.9657   20.6433 C   0  0  0  0  0  0  0  0  0  0  0  0
  -24.8749  -31.2147   26.2696 C   0  0  0  0  0  0  0  0  0  0  0  0
  -24.6639  -27.8952   20.3718 C   0  0  0  0  0  0  0  0  0  0  0  0
  -30.4573  -19.6008   18.7717 C   0  0  0  0  0  0  0  0  0  0  0  0
  -30.1461  -18.5238   19.6016 C   0  0  0  0  0  0  0  0  0  0  0  0
  -30.4214  -17.2210   19.1863 C   0  0  0  0  0  0  0  0  0  0  0  0
  -21.7242  -10.0993   23.2475 C   0  0  0  0  0  0  0  0  0  0  0  0
  -26.5727  -26.5345   19.7275 C   0  0  0  0  0  0  0  0  0  0  0  0
  -21.2874   -8.1226   24.4408 C   0  0  0  0  0  0  0  0  0  0  0  0
  -22.1559   -5.6291   25.3413 C   0  0  0  0  0  0  0  0  0  0  0  0
  -31.0079  -16.9952   17.9409 C   0  0  0  0  0  0  0  0  0  0  0  0
  -20.5997   -6.9679   24.0674 C   0  0  0  0  0  0  0  0  0  0  0  0
  -24.4169  -12.3927   20.9264 C   0  0  0  0  0  0  0  0  0  0  0  0
  -25.3181  -13.8904   19.5924 C   0  0  0  0  0  0  0  0  0  0  0  0
  -28.4878  -22.7266   19.5637 C   0  0  0  0  0  0  0  0  0  0  0  0
  -27.0728  -21.8827   22.8455 C   0  0  0  0  0  0  0  0  0  0  0  0
  -27.9436  -22.8636   20.7846 C   0  0  0  0  0  0  0  0  0  0  0  0
  -27.6146  -21.7456   21.6301 C   0  0  0  0  0  0  0  0  0  0  0  0
  -22.8537  -14.1639   19.9094 C   0  0  0  0  0  0  0  0  0  0  0  0
  -23.6963  -29.5983   23.1630 C   0  0  0  0  0  0  0  0  0  0  0  0
  -21.3411  -29.7035   20.9349 C   0  0  0  0  0  0  0  0  0  0  0  0
  -20.2208  -28.7482   17.8561 C   0  0  0  0  0  0  0  0  0  0  0  0
  -30.7748  -14.8892   20.0718 C   0  0  0  0  0  0  0  0  0  0  0  0
  -22.8652  -32.2479   27.4463 C   0  0  0  0  0  0  0  0  0  0  0  0
  -24.9801  -30.2880   21.1059 C   0  0  0  0  0  0  0  0  0  0  0  0
  -23.1741  -28.0108   20.5604 C   0  0  0  0  0  0  0  0  0  0  0  0
  -21.9987  -31.4758   26.4547 C   0  0  0  0  0  0  0  0  0  0  0  0
  -29.7855  -11.5111   19.5363 C   0  0  0  0  0  0  0  0  0  0  0  0
  -28.5188  -22.2019   16.7463 C   0  0  0  0  0  0  0  0  0  0  0  0
  -22.5961  -30.0987   26.1832 C   0  0  0  0  0  0  0  0  0  0  0  0
  -28.2234  -23.6128   17.2490 C   0  0  0  0  0  0  0  0  0  0  0  0
  -28.2756  -11.5317   19.7850 C   0  0  0  0  0  0  0  0  0  0  0  0
  -30.5293  -12.4509   20.4835 C   0  0  0  0  0  0  0  0  0  0  0  0
  -28.5217  -13.8529   20.7538 C   0  0  0  0  0  0  0  0  0  0  0  0
  -28.0880  -21.1464   17.7571 C   0  0  0  0  0  0  0  0  0  0  0  0
  -23.9902  -30.2162   25.5552 C   0  0  1  0  0  0  0  0  0  0  0  0
  -28.8569  -23.8652   18.6255 C   0  0  1  0  0  0  0  0  0  0  0  0
  -23.6144  -30.1680   21.7751 C   0  0  1  0  0  0  0  0  0  0  0  0
  -27.7233  -12.9707   19.7802 C   0  0  2  0  0  0  0  0  0  0  0  0
  -29.5185  -18.7715   20.9375 C   0  0  0  0  0  0  0  0  0  0  0  0
  -18.2421  -28.9591   16.3272 C   0  0  0  0  0  0  0  0  0  0  0  0
  -19.8172  -27.6764   22.6315 C   0  0  0  0  0  0  0  0  0  0  0  0
  -18.3568  -27.2202   20.6498 C   0  0  0  0  0  0  0  0  0  0  0  0
  -18.4042  -29.4989   21.6637 C   0  0  0  0  0  0  0  0  0  0  0  0
  -21.8317  -30.0889   15.7666 C   0  0  0  0  0  0  0  0  0  0  0  0
  -30.1727  -21.0121   19.1939 C   0  0  0  0  0  0  0  0  0  0  0  0
  -28.4910  -25.2730   19.1071 C   0  0  0  0  0  0  0  0  0  1  0  0
  -20.3957  -28.6939   20.3302 C   0  0  1  0  0  0  0  0  0  0  0  0
  -19.5911  -29.5387   16.7234 C   0  0  2  0  0  0  0  0  0  0  0  0
  -19.2717  -28.2692   21.3170 C   0  0  0  0  0  0  0  0  0  0  0  0
  -25.7135  -12.0738   20.8929 N   0  0  0  0  0  0  0  0  0  0  0  0
  -26.2350  -13.0026   20.0734 N   0  0  0  0  0  0  0  0  0  0  0  0
  -22.6876  -29.3221   21.0203 N   0  0  0  0  0  0  0  0  0  0  0  0
  -29.9540  -13.7963   20.4223 N   0  0  0  0  0  0  0  0  0  0  0  0
  -25.6724  -14.8889   18.7558 N   0  0  0  0  0  0  0  0  0  0  0  0
  -22.0609  -13.7292   18.8385 N   0  0  0  0  0  0  0  0  0  0  0  0
  -30.1107  -16.1140   20.0144 N   0  0  0  0  0  0  0  0  0  0  0  0
  -23.8853  -30.5466   24.1502 N   0  0  0  0  0  0  0  0  0  0  0  0
  -19.9087  -29.2837   19.0878 N   0  0  0  0  0  0  0  0  0  0  0  0
  -28.7140  -21.3687   19.1127 N   0  3  1  0  0  0  0  0  0  0  0  0
  -20.4785  -29.5249   15.5263 N   0  3  0  0  0  0  0  0  0  0  0  0
  -22.4512  -15.1113   20.6264 O   0  0  0  0  0  0  0  0  0  0  0  0
  -23.5939  -28.3882   23.3265 O   0  0  0  0  0  0  0  0  0  0  0  0
  -20.9024  -30.7934   21.3109 O   0  0  0  0  0  0  0  0  0  0  0  0
  -20.9166  -27.7529   17.6673 O   0  0  0  0  0  0  0  0  0  0  0  0
  -31.9724  -14.7446   19.8132 O   0  0  0  0  0  0  0  0  0  0  0  0
  -20.8580   -9.3610   23.9940 O   0  0  0  0  0  0  0  0  0  0  0  0
  -27.0774  -25.3501   19.2867 O   0  0  0  0  0  0  0  0  0  1  0  0
  -22.5739   -4.4318   25.7726 F   0  0  0  0  0  0  0  0  0  0  0  0
  -31.2753  -15.7475   17.5293 F   0  0  0  0  0  0  0  0  0  0  0  0
  -19.5218   -7.0499   23.2754 F   0  0  0  0  0  0  0  0  0  0  0  0
  1  2  1  0  0  0  0
  1  5  2  0  0  0  0
  2  6  2  0  0  0  0
  3  9  2  0  0  0  0
  3 17  1  0  0  0  0
  4 10  1  0  0  0  0
  4 17  2  0  0  0  0
  5 19  1  0  0  0  0
  6 21  1  0  0  0  0
  7 11  2  0  0  0  0
  7 20  1  0  0  0  0
  8 13  2  0  0  0  0
  8 23  1  0  0  0  0
  9 26  1  0  0  0  0
 10 26  2  0  0  0  0
 11 27  1  0  0  0  0
 12 14  2  0  0  0  0
 12 28  1  0  0  0  0
 13 30  1  0  0  0  0
 14 29  1  0  0  0  0
 15 22  1  0  0  0  0
 15 27  2  0  0  0  0
 16 29  2  0  0  0  0
 16 31  1  0  0  0  0
 17 32  1  0  0  0  0
 18 32  1  0  0  0  0
 18 33  2  0  0  0  0
 18 38  1  0  0  0  0
 19 21  2  0  0  0  0
 19 43  1  0  0  0  0
 20 22  2  0  0  0  0
 20 44  1  0  0  0  0
 21 55  1  0  0  0  0
 22 45  1  0  0  0  0
 23 24  2  0  0  0  0
 23 65  1  0  0  0  0
 24 25  1  0  0  0  0
 24 59  1  0  0  0  0
 25 30  2  0  0  0  0
 25 76  1  0  0  0  0
 26 86  1  0  0  0  0
 27 87  1  0  0  0  0
 28 31  2  0  0  0  0
 28 86  1  0  0  0  0
 29 88  1  0  0  0  0
 30 89  1  0  0  0  0
 31 90  1  0  0  0  0
 32 70  2  0  0  0  0
 33 71  1  0  0  0  0
 33 74  1  0  0  0  0
 34 36  2  0  0  0  0
 34 56  1  0  0  0  0
 34 79  1  0  0  0  0
 35 37  2  0  0  0  0
 36 37  1  0  0  0  0
 38 75  1  0  0  0  0
 38 81  2  0  0  0  0
 39 57  1  0  0  0  0
 39 77  1  0  0  0  0
 39 82  2  0  0  0  0
 40 67  1  0  0  0  0
 40 72  1  0  0  0  0
 40 83  2  0  0  0  0
 41 68  1  0  0  0  0
 41 78  1  0  0  0  0
 41 84  2  0  0  0  0
 42 73  1  0  0  0  0
 42 76  1  0  0  0  0
 42 85  2  0  0  0  0
 43 46  1  0  0  0  0
 44 57  1  0  0  0  0
 45 72  1  0  0  0  0
 46 49  1  0  0  0  0
 47 51  1  0  0  0  0
 47 52  1  0  0  0  0
 48 50  1  0  0  0  0
 48 54  1  0  0  0  0
 49 55  1  0  0  0  0
 50 56  1  0  0  0  0
 51 58  1  0  0  0  0
 52 73  1  0  0  0  0
 53 58  1  0  0  0  0
 53 73  1  0  0  0  0
 54 79  1  0  0  0  0
 55 77  1  0  0  0  0
 56 66  1  0  0  0  0
 57 72  1  0  0  0  0
 58 71  1  0  0  0  0
 60 68  1  0  0  0  0
 61 69  1  0  0  0  0
 62 69  1  0  0  0  0
 63 69  1  0  0  0  0
 64 80  1  0  0  0  0
 65 79  1  0  0  0  0
 66 87  1  0  0  0  0
 67 69  1  0  0  0  0
 67 78  1  0  0  0  0
 68 80  1  0  0  0  0
 70 71  1  0  0  0  0
M  CHG  2  79   1  80   1
M  ISO  4  42 100  66 101  76 100  87 101
M  END
> <Batch ID>
0047

> <Smiles>
C=CC=C1C([101CH2:1][101O:1]c2ccc3c(c2)CN(C(=O)C(NC(=O)C(C)NC)C(C)(C)C)C(C(=O)NC2CCCc4ccccc42)C3)CCCN1Cc1ccc(F)c([100NH:0][100C:0](=O)N2CCCC(n3nc(-c4ccc(Oc5ccc(F)cc5F)cc4)c(C(N)=O)c3N)C2)c1C

> <Shape>
0.308

> <Color>
0.113

> <Negative vol penalty>
0.000

$$$$

  -OEChem-04042322263D

 86 95  0     1  0  0  0  0  0999 V2000
  -25.4345  -35.1034   23.8225 C   0  0  0  0  0  0  0  0  0  0  0  0
  -26.0874  -33.9182   23.4993 C   0  0  0  0  0  0  0  0  0  0  0  0
  -32.5104  -20.0476   19.5678 C   0  0  0  0  0  0  0  0  0  0  0  0
  -23.9712  -13.8633   22.5089 C   0  0  0  0  0  0  0  0  0  0  0  0
  -25.8866  -14.2205   21.0804 C   0  0  0  0  0  0  0  0  0  0  0  0
  -24.1199  -35.0697   24.2858 C   0  0  0  0  0  0  0  0  0  0  0  0
  -25.4265  -32.6985   23.6401 C   0  0  0  0  0  0  0  0  0  0  0  0
  -26.1150  -29.6447   19.6596 C   0  0  0  0  0  0  0  0  0  0  0  0
  -32.6213  -21.1817   18.7634 C   0  0  0  0  0  0  0  0  0  0  0  0
  -31.3966  -19.8828   20.3913 C   0  0  0  0  0  0  0  0  0  0  0  0
  -23.5843  -12.7804   21.7195 C   0  0  0  0  0  0  0  0  0  0  0  0
  -25.4998  -13.1375   20.2910 C   0  0  0  0  0  0  0  0  0  0  0  0
  -27.3313  -28.9680   19.5790 C   0  0  0  0  0  0  0  0  0  0  0  0
  -24.4656   -9.5390   21.3330 C   0  0  0  0  0  0  0  0  0  0  0  0
  -24.0695   -8.3708   21.9842 C   0  0  0  0  0  0  0  0  0  0  0  0
  -26.2771  -26.9816   20.4519 C   0  0  0  0  0  0  0  0  0  0  0  0
  -30.5048  -21.9864   19.6061 C   0  0  0  0  0  0  0  0  0  0  0  0
  -21.8952   -8.5275   20.9425 C   0  0  0  0  0  0  0  0  0  0  0  0
  -25.1223  -14.5834   22.1893 C   0  0  0  0  0  0  0  0  0  0  0  0
  -25.8406  -15.6850   24.3752 C   0  0  0  0  0  0  0  0  0  0  0  0
  -23.4392  -33.8497   24.4232 C   0  0  0  0  0  0  0  0  0  0  0  0
  -24.9712  -28.9970   20.1479 C   0  0  0  0  0  0  0  0  0  0  0  0
  -24.1020  -32.6484   24.1069 C   0  0  0  0  0  0  0  0  0  0  0  0
  -25.0469  -27.6515   20.5352 C   0  0  0  0  0  0  0  0  0  0  0  0
  -31.6185  -22.1511   18.7825 C   0  0  0  0  0  0  0  0  0  0  0  0
  -30.3939  -20.8522   20.4104 C   0  0  0  0  0  0  0  0  0  0  0  0
  -24.3486  -12.4175   20.6105 C   0  0  0  0  0  0  0  0  0  0  0  0
  -27.4132  -27.6372   19.9780 C   0  0  0  0  0  0  0  0  0  0  0  0
  -23.5765  -10.2014   20.4866 C   0  0  0  0  0  0  0  0  0  0  0  0
  -22.7843   -7.8650   21.7890 C   0  0  0  0  0  0  0  0  0  0  0  0
  -22.2913   -9.6957   20.2913 C   0  0  0  0  0  0  0  0  0  0  0  0
  -25.5221  -15.7025   23.0041 C   0  0  0  0  0  0  0  0  0  0  0  0
  -26.1534  -16.9891   24.6717 C   0  0  0  0  0  0  0  0  0  0  0  0
  -30.7322  -25.5560   18.5407 C   0  0  0  0  0  0  0  0  0  0  0  0
  -25.8526  -14.5880   25.2983 C   0  0  0  0  0  0  0  0  0  0  0  0
  -23.0303  -29.4371   22.6265 C   0  0  0  0  0  0  0  0  0  0  0  0
  -21.3311  -27.0585   21.2202 C   0  0  0  0  0  0  0  0  0  0  0  0
  -21.3077  -24.3564   19.1358 C   0  0  0  0  0  0  0  0  0  0  0  0
  -28.1781  -21.5501   21.3849 C   0  0  0  0  0  0  0  0  0  0  0  0
  -22.0347  -33.8599   24.9727 C   0  0  0  0  0  0  0  0  0  0  0  0
  -23.6606  -29.7330   20.2034 C   0  0  0  0  0  0  0  0  0  0  0  0
  -23.8434  -26.9048   21.0476 C   0  0  0  0  0  0  0  0  0  0  0  0
  -21.2792  -32.5544   24.7378 C   0  0  0  0  0  0  0  0  0  0  0  0
  -32.5219  -25.4556   20.8855 C   0  0  0  0  0  0  0  0  0  0  0  0
  -25.1826  -21.4761   23.3082 C   0  0  0  0  0  0  0  0  0  0  0  0
  -22.1540  -31.3586   25.1007 C   0  0  0  0  0  0  0  0  0  0  0  0
  -31.2835  -26.3522   20.8343 C   0  0  0  0  0  0  0  0  0  0  0  0
  -24.9620  -19.9859   23.5784 C   0  0  0  0  0  0  0  0  0  0  0  0
  -32.9025  -24.8755   19.5275 C   0  0  0  0  0  0  0  0  0  0  0  0
  -25.7560  -21.7207   21.9135 C   0  0  0  0  0  0  0  0  0  0  0  0
  -26.7494  -19.4668   21.8687 C   0  0  0  0  0  0  0  0  0  0  0  0
  -23.4102  -31.3074   24.2228 C   0  0  1  0  0  0  0  0  0  0  0  0
  -30.9469  -26.7966   19.4092 C   0  0  2  0  0  0  0  0  0  0  0  0
  -22.6766  -29.1269   21.1994 C   0  0  1  0  0  0  0  0  0  0  0  0
  -26.2337  -19.1658   23.2855 C   0  0  2  0  0  0  0  0  0  0  0  0
  -19.7787  -22.5935   18.2130 C   0  0  0  0  0  0  0  0  0  0  0  0
  -21.4252  -25.5832   23.8894 C   0  0  0  0  0  0  0  0  0  0  0  0
  -20.7517  -23.4967   22.6806 C   0  0  0  0  0  0  0  0  0  0  0  0
  -19.2226  -25.4674   22.7105 C   0  0  0  0  0  0  0  0  0  0  0  0
  -21.7553  -25.2600   16.3533 C   0  0  0  0  0  0  0  0  0  0  0  0
  -31.7384  -23.3717   17.9165 C   0  0  0  0  0  0  0  0  0  0  0  0
  -29.7197  -27.7040   19.4020 C   0  0  0  0  0  0  0  0  0  1  0  0
  -21.3256  -25.5515   21.3097 C   0  0  1  0  0  0  0  0  0  0  0  0
  -20.3826  -23.9721   17.9952 C   0  0  2  0  0  0  0  0  0  0  0  0
  -20.7046  -25.0391   22.6397 C   0  0  0  0  0  0  0  0  0  0  0  0
  -25.6232  -16.9212   22.4668 N   0  0  0  0  0  0  0  0  0  0  0  0
  -26.0086  -17.6816   23.5057 N   0  0  0  0  0  0  0  0  0  0  0  0
  -31.7362  -24.5964   18.6993 N   0  0  0  0  0  0  0  0  0  0  0  0
  -22.5861  -27.6696   21.0890 N   0  0  0  0  0  0  0  0  0  0  0  0
  -26.9611  -20.9140   21.7091 N   0  0  0  0  0  0  0  0  0  0  0  0
  -26.5354  -17.5996   25.8136 N   0  0  0  0  0  0  0  0  0  0  0  0
  -25.5047  -13.3147   24.8273 N   0  0  0  0  0  0  0  0  0  0  0  0
  -29.2623  -20.6842   21.2466 N   0  0  0  0  0  0  0  0  0  0  0  0
  -23.0891  -30.7881   22.9107 N   0  0  0  0  0  0  0  0  0  0  0  0
  -20.6465  -25.0739   20.1101 N   0  0  0  0  0  0  0  0  0  0  0  0
  -21.1285  -23.9599   16.7050 N   0  3  0  0  0  0  0  0  0  0  0  0
  -29.7790  -25.4508   17.7705 O   0  0  0  0  0  0  0  0  0  0  0  0
  -26.1468  -14.7356   26.5088 O   0  0  0  0  0  0  0  0  0  0  0  0
  -23.2332  -28.5186   23.4119 O   0  0  0  0  0  0  0  0  0  0  0  0
  -20.2607  -27.6704   21.2580 O   0  0  0  0  0  0  0  0  0  0  0  0
  -22.4970  -24.0476   19.1618 O   0  0  0  0  0  0  0  0  0  0  0  0
  -28.2586  -22.7755   21.2674 O   0  0  0  0  0  0  0  0  0  0  0  0
  -23.9716  -11.3606   19.8401 O   0  0  0  0  0  0  0  0  0  0  0  0
  -28.5993  -26.9745   19.9010 O   0  0  0  0  0  0  0  0  0  1  0  0
  -22.4045   -6.7424   22.4132 F   0  0  0  0  0  0  0  0  0  0  0  0
  -21.4332  -10.3270   19.4784 F   0  0  0  0  0  0  0  0  0  0  0  0
  1  2  1  0  0  0  0
  1  6  2  0  0  0  0
  2  7  2  0  0  0  0
  3  9  2  0  0  0  0
  3 10  1  0  0  0  0
  4 11  2  0  0  0  0
  4 19  1  0  0  0  0
  5 12  1  0  0  0  0
  5 19  2  0  0  0  0
  6 21  1  0  0  0  0
  7 23  1  0  0  0  0
  8 13  2  0  0  0  0
  8 22  1  0  0  0  0
  9 25  1  0  0  0  0
 10 26  2  0  0  0  0
 11 27  1  0  0  0  0
 12 27  2  0  0  0  0
 13 28  1  0  0  0  0
 14 15  2  0  0  0  0
 14 29  1  0  0  0  0
 15 30  1  0  0  0  0
 16 24  1  0  0  0  0
 16 28  2  0  0  0  0
 17 25  2  0  0  0  0
 17 26  1  0  0  0  0
 18 30  2  0  0  0  0
 18 31  1  0  0  0  0
 19 32  1  0  0  0  0
 20 32  1  0  0  0  0
 20 33  2  0  0  0  0
 20 35  1  0  0  0  0
 21 23  2  0  0  0  0
 21 40  1  0  0  0  0
 22 24  2  0  0  0  0
 22 41  1  0  0  0  0
 23 52  1  0  0  0  0
 24 42  1  0  0  0  0
 25 61  1  0  0  0  0
 26 73  1  0  0  0  0
 27 83  1  0  0  0  0
 28 84  1  0  0  0  0
 29 31  2  0  0  0  0
 29 83  1  0  0  0  0
 30 85  1  0  0  0  0
 31 86  1  0  0  0  0
 32 66  2  0  0  0  0
 33 67  1  0  0  0  0
 33 71  1  0  0  0  0
 34 53  1  0  0  0  0
 34 68  1  0  0  0  0
 34 77  2  0  0  0  0
 35 72  1  0  0  0  0
 35 78  2  0  0  0  0
 36 54  1  0  0  0  0
 36 74  1  0  0  0  0
 36 79  2  0  0  0  0
 37 63  1  0  0  0  0
 37 69  1  0  0  0  0
 37 80  2  0  0  0  0
 38 64  1  0  0  0  0
 38 75  1  0  0  0  0
 38 81  2  0  0  0  0
 39 70  1  0  0  0  0
 39 73  1  0  0  0  0
 39 82  2  0  0  0  0
 40 43  1  0  0  0  0
 41 54  1  0  0  0  0
 42 69  1  0  0  0  0
 43 46  1  0  0  0  0
 44 47  1  0  0  0  0
 44 49  1  0  0  0  0
 45 48  1  0  0  0  0
 45 50  1  0  0  0  0
 46 52  1  0  0  0  0
 47 53  1  0  0  0  0
 48 55  1  0  0  0  0
 49 68  1  0  0  0  0
 50 70  1  0  0  0  0
 51 55  1  0  0  0  0
 51 70  1  0  0  0  0
 52 74  1  0  0  0  0
 53 62  1  0  0  0  0
 54 69  1  0  0  0  0
 55 67  1  0  0  0  0
 56 64  1  0  0  0  0
 57 65  1  0  0  0  0
 58 65  1  0  0  0  0
 59 65  1  0  0  0  0
 60 76  1  0  0  0  0
 61 68  1  0  0  0  0
 62 84  1  0  0  0  0
 63 65  1  0  0  0  0
 63 75  1  0  0  0  0
 64 76  1  0  0  0  0
 66 67  1  0  0  0  0
M  CHG  1  76   1
M  ISO  4  39 100  62 101  73 100  84 101
M  END
> <Batch ID>
0047

> <Smiles>
CNC(C)C(=O)NC(C(=O)N1Cc2cc([101O:1][101CH2:1]C3CCCN(Cc4cccc([100NH:0][100C:0](=O)N5CCCC(n6nc(-c7ccc(Oc8ccc(F)cc8F)cc7)c(C(N)=O)c6N)C5)c4)C3=O)ccc2CC1C(=O)NC1CCCc2ccccc21)C(C)(C)C

> <Shape>
0.255

> <Color>
0.076

> <Negative vol penalty>
0.000

$$$$

  -OEChem-04042322263D

 85 93  0     1  0  0  0  0  0999 V2000
  -32.2360  -14.5461   21.2673 C   0  0  0  0  0  0  0  0  0  0  0  0
  -31.3379  -15.5843   21.4933 C   0  0  0  0  0  0  0  0  0  0  0  0
  -21.5332  -29.7531   26.9537 C   0  0  0  0  0  0  0  0  0  0  0  0
  -27.8016  -24.7480   18.5677 C   0  0  0  0  0  0  0  0  0  0  0  0
  -25.9903  -23.7192   19.7915 C   0  0  0  0  0  0  0  0  0  0  0  0
  -31.8125  -13.3894   20.6142 C   0  0  0  0  0  0  0  0  0  0  0  0
  -30.0160  -15.4667   21.0654 C   0  0  0  0  0  0  0  0  0  0  0  0
  -25.0350  -17.6991   23.8424 C   0  0  0  0  0  0  0  0  0  0  0  0
  -20.7148  -28.6295   27.0687 C   0  0  0  0  0  0  0  0  0  0  0  0
  -22.1849  -30.0211   25.7498 C   0  0  0  0  0  0  0  0  0  0  0  0
  -28.5781  -23.6047   18.7556 C   0  0  0  0  0  0  0  0  0  0  0  0
  -26.7668  -22.5758   19.9795 C   0  0  0  0  0  0  0  0  0  0  0  0
  -24.2776  -18.8497   23.6275 C   0  0  0  0  0  0  0  0  0  0  0  0
  -29.2910  -21.5825   21.9976 C   0  0  0  0  0  0  0  0  0  0  0  0
  -29.3109  -21.0149   23.2715 C   0  0  0  0  0  0  0  0  0  0  0  0
  -22.7335  -17.5747   22.2824 C   0  0  0  0  0  0  0  0  0  0  0  0
  -28.4218  -18.9578   22.3688 C   0  0  0  0  0  0  0  0  0  0  0  0
  -26.5077  -24.8053   19.0856 C   0  0  0  0  0  0  0  0  0  0  0  0
  -24.8302  -26.2538   17.8224 C   0  0  0  0  0  0  0  0  0  0  0  0
  -30.4823  -13.2536   20.1866 C   0  0  0  0  0  0  0  0  0  0  0  0
  -24.6527  -16.4779   23.2690 C   0  0  0  0  0  0  0  0  0  0  0  0
  -29.5746  -14.3077   20.4047 C   0  0  0  0  0  0  0  0  0  0  0  0
  -23.4864  -16.4096   22.4936 C   0  0  0  0  0  0  0  0  0  0  0  0
  -20.5481  -27.7738   25.9798 C   0  0  0  0  0  0  0  0  0  0  0  0
  -21.1997  -28.0417   24.7760 C   0  0  0  0  0  0  0  0  0  0  0  0
  -22.0181  -29.1654   24.6610 C   0  0  0  0  0  0  0  0  0  0  0  0
  -28.0607  -22.5185   19.4615 C   0  0  0  0  0  0  0  0  0  0  0  0
  -23.1282  -18.7883   22.8450 C   0  0  0  0  0  0  0  0  0  0  0  0
  -28.8364  -20.8378   20.9092 C   0  0  0  0  0  0  0  0  0  0  0  0
  -28.8763  -19.7025   23.4572 C   0  0  0  0  0  0  0  0  0  0  0  0
  -28.4019  -19.5255   21.0948 C   0  0  0  0  0  0  0  0  0  0  0  0
  -25.7053  -25.9864   18.8923 C   0  0  0  0  0  0  0  0  0  0  0  0
  -24.3138  -27.4951   18.1033 C   0  0  0  0  0  0  0  0  0  0  0  0
  -24.5126  -25.4518   16.6772 C   0  0  0  0  0  0  0  0  0  0  0  0
  -25.9666  -14.4695   21.1848 C   0  0  0  0  0  0  0  0  0  0  0  0
  -23.4063  -12.6261   21.9393 C   0  0  0  0  0  0  0  0  0  0  0  0
  -21.3620  -24.6996   23.1807 C   0  0  0  0  0  0  0  0  0  0  0  0
  -20.2087  -12.4518   23.1190 C   0  0  0  0  0  0  0  0  0  0  0  0
  -23.5327  -30.5366   23.1871 C   0  0  0  0  0  0  0  0  0  0  0  0
  -30.0828  -12.0039   19.4428 C   0  0  0  0  0  0  0  0  0  0  0  0
  -25.4658  -15.2402   23.5324 C   0  0  0  0  0  0  0  0  0  0  0  0
  -23.0217  -15.1187   21.8723 C   0  0  0  0  0  0  0  0  0  0  0  0
  -28.5720  -11.8045   19.3542 C   0  0  0  0  0  0  0  0  0  0  0  0
  -25.4033  -31.5846   20.3446 C   0  0  0  0  0  0  0  0  0  0  0  0
  -27.8855  -13.1027   18.9416 C   0  0  0  0  0  0  0  0  0  0  0  0
  -25.6081  -30.2933   19.5492 C   0  0  0  0  0  0  0  0  0  0  0  0
  -25.4681  -31.3391   21.8510 C   0  0  0  0  0  0  0  0  0  0  0  0
  -24.7804  -28.9925   21.5516 C   0  0  0  0  0  0  0  0  0  0  0  0
  -28.1263  -14.2075   19.9775 C   0  0  1  0  0  0  0  0  0  0  0  0
  -25.2652  -14.1575   22.4765 C   0  0  1  0  0  0  0  0  0  0  0  0
  -24.6589  -29.1785   20.0303 C   0  0  2  0  0  0  0  0  0  0  0  0
  -19.6661  -26.5777   26.1299 C   0  0  0  0  0  0  0  0  0  0  0  0
  -18.3674  -10.8116   23.5844 C   0  0  0  0  0  0  0  0  0  0  0  0
  -22.8076  -12.4544   18.9523 C   0  0  0  0  0  0  0  0  0  0  0  0
  -20.5087  -11.6488   19.5303 C   0  0  0  0  0  0  0  0  0  0  0  0
  -22.5032  -10.3098   20.2022 C   0  0  0  0  0  0  0  0  0  0  0  0
  -20.1898  -13.1146   26.0033 C   0  0  0  0  0  0  0  0  0  0  0  0
  -21.0171  -27.1178   23.6067 C   0  0  0  0  0  0  0  0  0  0  0  0
  -22.3216  -23.5680   23.5028 C   0  0  0  0  0  0  0  0  0  0  0  0
  -21.8988  -22.2471   22.8699 C   0  0  0  0  0  0  0  0  0  0  0  0
  -22.8461  -21.1160   23.2428 C   0  0  0  0  0  0  0  0  0  1  0  0
  -22.0023  -12.4763   21.4052 C   0  0  1  0  0  0  0  0  0  0  0  0
  -19.5661  -11.5509   24.1581 C   0  0  2  0  0  0  0  0  0  0  0  0
  -21.9650  -11.7472   20.0325 C   0  0  0  0  0  0  0  0  0  0  0  0
  -25.7452  -26.9781   19.7861 N   0  0  0  0  0  0  0  0  0  0  0  0
  -24.8888  -27.8809   19.2784 N   0  0  0  0  0  0  0  0  0  0  0  0
  -23.8540  -13.9374   22.1537 N   0  0  0  0  0  0  0  0  0  0  0  0
  -24.5395  -30.2735   22.2342 N   0  0  0  0  0  0  0  0  0  0  0  0
  -23.4286  -28.2835   17.4573 N   0  0  0  0  0  0  0  0  0  0  0  0
  -25.1331  -24.2023   16.5436 N   0  0  0  0  0  0  0  0  0  0  0  0
  -22.6891  -29.4572   23.4476 N   0  0  0  0  0  0  0  0  0  0  0  0
  -27.2706  -14.0160   21.1288 N   0  0  0  0  0  0  0  0  0  0  0  0
  -21.7633  -25.8921   23.7649 N   0  0  0  0  0  0  0  0  0  0  0  0
  -21.2349  -11.8141   22.4546 N   0  0  0  0  0  0  0  0  0  0  0  0
  -19.1079  -12.3534   25.3273 N   0  3  0  0  0  0  0  0  0  0  0  0
  -23.7149  -25.8391   15.7899 O   0  0  0  0  0  0  0  0  0  0  0  0
  -25.3683  -15.0755   20.3035 O   0  0  0  0  0  0  0  0  0  0  0  0
  -24.0785  -11.6166   22.1648 O   0  0  0  0  0  0  0  0  0  0  0  0
  -20.3595  -24.5570   22.4860 O   0  0  0  0  0  0  0  0  0  0  0  0
  -19.8351  -13.6047   22.9144 O   0  0  0  0  0  0  0  0  0  0  0  0
  -23.4098  -31.6463   23.7118 O   0  0  0  0  0  0  0  0  0  0  0  0
  -28.8180  -21.4026   19.6449 O   0  0  0  0  0  0  0  0  0  0  0  0
  -22.3875  -19.9100   22.6331 O   0  0  0  0  0  0  0  0  0  1  0  0
  -28.8969  -19.1570   24.6803 F   0  0  0  0  0  0  0  0  0  0  0  0
  -27.9652  -18.8047   20.0529 F   0  0  0  0  0  0  0  0  0  0  0  0
  1  2  1  0  0  0  0
  1  6  2  0  0  0  0
  2  7  2  0  0  0  0
  3  9  1  0  0  0  0
  3 10  2  0  0  0  0
  4 11  2  0  0  0  0
  4 18  1  0  0  0  0
  5 12  1  0  0  0  0
  5 18  2  0  0  0  0
  6 20  1  0  0  0  0
  7 22  1  0  0  0  0
  8 13  2  0  0  0  0
  8 21  1  0  0  0  0
  9 24  2  0  0  0  0
 10 26  1  0  0  0  0
 11 27  1  0  0  0  0
 12 27  2  0  0  0  0
 13 28  1  0  0  0  0
 14 15  2  0  0  0  0
 14 29  1  0  0  0  0
 15 30  1  0  0  0  0
 16 23  1  0  0  0  0
 16 28  2  0  0  0  0
 17 30  2  0  0  0  0
 17 31  1  0  0  0  0
 18 32  1  0  0  0  0
 19 32  1  0  0  0  0
 19 33  2  0  0  0  0
 19 34  1  0  0  0  0
 20 22  2  0  0  0  0
 20 40  1  0  0  0  0
 21 23  2  0  0  0  0
 21 41  1  0  0  0  0
 22 49  1  0  0  0  0
 23 42  1  0  0  0  0
 24 25  1  0  0  0  0
 24 52  1  0  0  0  0
 25 26  2  0  0  0  0
 25 58  1  0  0  0  0
 26 71  1  0  0  0  0
 27 82  1  0  0  0  0
 28 83  1  0  0  0  0
 29 31  2  0  0  0  0
 29 82  1  0  0  0  0
 30 84  1  0  0  0  0
 31 85  1  0  0  0  0
 32 65  2  0  0  0  0
 33 66  1  0  0  0  0
 33 69  1  0  0  0  0
 34 70  1  0  0  0  0
 34 76  2  0  0  0  0
 35 50  1  0  0  0  0
 35 72  1  0  0  0  0
 35 77  2  0  0  0  0
 36 62  1  0  0  0  0
 36 67  1  0  0  0  0
 36 78  2  0  0  0  0
 37 59  1  0  0  0  0
 37 73  1  0  0  0  0
 37 79  2  0  0  0  0
 38 63  1  0  0  0  0
 38 74  1  0  0  0  0
 38 80  2  0  0  0  0
 39 68  1  0  0  0  0
 39 71  1  0  0  0  0
 39 81  2  0  0  0  0
 40 43  1  0  0  0  0
 41 50  1  0  0  0  0
 42 67  1  0  0  0  0
 43 45  1  0  0  0  0
 44 46  1  0  0  0  0
 44 47  1  0  0  0  0
 45 49  1  0  0  0  0
 46 51  1  0  0  0  0
 47 68  1  0  0  0  0
 48 51  1  0  0  0  0
 48 68  1  0  0  0  0
 49 72  1  0  0  0  0
 50 67  1  0  0  0  0
 51 66  1  0  0  0  0
 53 63  1  0  0  0  0
 54 64  1  0  0  0  0
 55 64  1  0  0  0  0
 56 64  1  0  0  0  0
 57 75  1  0  0  0  0
 58 73  1  0  0  0  0
 59 60  1  0  0  0  0
 60 61  1  0  0  0  0
 61 83  1  0  0  0  0
 62 64  1  0  0  0  0
 62 74  1  0  0  0  0
 63 75  1  0  0  0  0
 65 66  1  0  0  0  0
M  CHG  1  75   1
M  ISO  4  39 100  61 101  71 100  83 101
M  END
> <Batch ID>
0047

> <Smiles>
CNC(C)C(=O)NC(C(=O)N1Cc2cc([101O:1][101CH2:1]CCC(=O)NCc3c(C)cccc3[100NH:0][100C:0](=O)N3CCCC(n4nc(-c5ccc(Oc6ccc(F)cc6F)cc5)c(C(N)=O)c4N)C3)ccc2CC1C(=O)NC1CCCc2ccccc21)C(C)(C)C

> <Shape>
0.222

> <Color>
0.077

> <Negative vol penalty>
0.000

$$$$

  -OEChem-04042322263D

 84 92  0     1  0  0  0  0  0999 V2000
  -21.4702  -13.8247   19.2376 C   0  0  0  0  0  0  0  0  0  0  0  0
  -21.6164  -15.0993   19.7757 C   0  0  0  0  0  0  0  0  0  0  0  0
  -30.0032  -26.7162   19.1182 C   0  0  0  0  0  0  0  0  0  0  0  0
  -29.3034  -26.1367   21.3568 C   0  0  0  0  0  0  0  0  0  0  0  0
  -22.5147  -12.9059   19.3311 C   0  0  0  0  0  0  0  0  0  0  0  0
  -22.8068  -15.4554   20.4086 C   0  0  0  0  0  0  0  0  0  0  0  0
  -24.4374  -20.0494   19.0369 C   0  0  0  0  0  0  0  0  0  0  0  0
  -18.1621  -26.2531   22.5948 C   0  0  0  0  0  0  0  0  0  0  0  0
  -31.3117  -26.8848   19.5709 C   0  0  0  0  0  0  0  0  0  0  0  0
  -30.6119  -26.3052   21.8096 C   0  0  0  0  0  0  0  0  0  0  0  0
  -23.8075  -21.1486   19.6189 C   0  0  0  0  0  0  0  0  0  0  0  0
  -33.6976  -26.9324   23.6248 C   0  0  0  0  0  0  0  0  0  0  0  0
  -17.9354  -27.5908   22.2710 C   0  0  0  0  0  0  0  0  0  0  0  0
  -33.8869  -27.6408   24.8114 C   0  0  0  0  0  0  0  0  0  0  0  0
  -25.6398  -21.3683   21.1725 C   0  0  0  0  0  0  0  0  0  0  0  0
  -20.4445  -26.7825   23.1842 C   0  0  0  0  0  0  0  0  0  0  0  0
  -32.8427  -29.5808   23.8199 C   0  0  0  0  0  0  0  0  0  0  0  0
  -28.9990  -26.3422   20.0112 C   0  0  0  0  0  0  0  0  0  0  0  0
  -27.0620  -24.9851   19.0552 C   0  0  0  0  0  0  0  0  0  0  0  0
  -23.7221  -13.2541   19.9569 C   0  0  0  0  0  0  0  0  0  0  0  0
  -25.6701  -19.5939   19.5262 C   0  0  0  0  0  0  0  0  0  0  0  0
  -23.8679  -14.5399   20.5117 C   0  0  0  0  0  0  0  0  0  0  0  0
  -26.2845  -20.2646   20.5933 C   0  0  0  0  0  0  0  0  0  0  0  0
  -19.4166  -25.8490   23.0515 C   0  0  0  0  0  0  0  0  0  0  0  0
  -20.2178  -28.1202   22.8603 C   0  0  0  0  0  0  0  0  0  0  0  0
  -31.6161  -26.6793   20.9166 C   0  0  0  0  0  0  0  0  0  0  0  0
  -24.4073  -21.8065   20.6887 C   0  0  0  0  0  0  0  0  0  0  0  0
  -33.0809  -27.5483   22.5357 C   0  0  0  0  0  0  0  0  0  0  0  0
  -33.4595  -28.9650   24.9089 C   0  0  0  0  0  0  0  0  0  0  0  0
  -18.9632  -28.5243   22.4037 C   0  0  0  0  0  0  0  0  0  0  0  0
  -32.6534  -28.8724   22.6333 C   0  0  0  0  0  0  0  0  0  0  0  0
  -27.6470  -26.1685   19.5443 C   0  0  0  0  0  0  0  0  0  0  0  0
  -25.7724  -25.3422   18.7454 C   0  0  0  0  0  0  0  0  0  0  0  0
  -27.6331  -23.6798   18.8954 C   0  0  0  0  0  0  0  0  0  0  0  0
  -26.7010  -16.8891   20.8396 C   0  0  0  0  0  0  0  0  0  0  0  0
  -29.5922  -18.3447   20.6281 C   0  0  0  0  0  0  0  0  0  0  0  0
  -21.8201  -23.6766   22.4084 C   0  0  0  0  0  0  0  0  0  0  0  0
  -31.3627  -21.2554   20.4280 C   0  0  0  0  0  0  0  0  0  0  0  0
  -22.1527  -29.6779   20.7331 C   0  0  0  0  0  0  0  0  0  0  0  0
  -24.8054  -12.2115   20.0754 C   0  0  0  0  0  0  0  0  0  0  0  0
  -26.3493  -18.4232   18.8701 C   0  0  0  0  0  0  0  0  0  0  0  0
  -27.6170  -19.8277   21.1427 C   0  0  0  0  0  0  0  0  0  0  0  0
  -26.1721  -12.7909   20.4315 C   0  0  0  0  0  0  0  0  0  0  0  0
  -23.1573  -29.1037   17.3659 C   0  0  0  0  0  0  0  0  0  0  0  0
  -26.0464  -13.7894   21.5778 C   0  0  0  0  0  0  0  0  0  0  0  0
  -24.3691  -28.1796   17.4982 C   0  0  0  0  0  0  0  0  0  0  0  0
  -23.1069  -30.1331   18.4928 C   0  0  0  0  0  0  0  0  0  0  0  0
  -24.3807  -28.6418   19.9852 C   0  0  0  0  0  0  0  0  0  0  0  0
  -25.1530  -14.9719   21.1840 C   0  0  1  0  0  0  0  0  0  0  0  0
  -27.3574  -17.7298   19.7812 C   0  0  1  0  0  0  0  0  0  0  0  0
  -24.4440  -27.5508   18.9026 C   0  0  2  0  0  0  0  0  0  0  0  0
  -33.3587  -22.7532   20.1631 C   0  0  0  0  0  0  0  0  0  0  0  0
  -29.9499  -17.7892   23.6069 C   0  0  0  0  0  0  0  0  0  0  0  0
  -31.8055  -19.4699   23.6264 C   0  0  0  0  0  0  0  0  0  0  0  0
  -31.9993  -17.4169   22.2228 C   0  0  0  0  0  0  0  0  0  0  0  0
  -31.0969  -21.2820   17.4805 C   0  0  0  0  0  0  0  0  0  0  0  0
  -19.6603  -24.4092   23.4003 C   0  0  0  0  0  0  0  0  0  0  0  0
  -21.3190  -29.1161   23.0021 C   0  0  0  0  0  0  0  0  0  0  0  0
  -22.3680  -22.9055   21.2265 C   0  0  0  0  0  0  0  0  0  1  0  0
  -30.4022  -19.2487   21.5257 C   0  0  1  0  0  0  0  0  0  0  0  0
  -32.4939  -21.6854   19.5114 C   0  0  2  0  0  0  0  0  0  0  0  0
  -31.0132  -18.4885   22.7366 C   0  0  0  0  0  0  0  0  0  0  0  0
  -26.7987  -27.2002   19.5467 N   0  0  0  0  0  0  0  0  0  0  0  0
  -25.6676  -26.6663   19.0554 N   0  0  0  0  0  0  0  0  0  0  0  0
  -28.2384  -18.6741   20.4715 N   0  0  0  0  0  0  0  0  0  0  0  0
  -23.1803  -29.4718   19.7978 N   0  0  0  0  0  0  0  0  0  0  0  0
  -24.7293  -24.6497   18.2408 N   0  0  0  0  0  0  0  0  0  0  0  0
  -28.9717  -23.4866   19.2630 N   0  0  0  0  0  0  0  0  0  0  0  0
  -25.8804  -15.8958   20.3403 N   0  0  0  0  0  0  0  0  0  0  0  0
  -20.4353  -23.7311   22.3871 N   0  0  0  0  0  0  0  0  0  0  0  0
  -31.3882  -19.8979   20.6686 N   0  0  0  0  0  0  0  0  0  0  0  0
  -22.2969  -29.0089   21.9424 N   0  0  0  0  0  0  0  0  0  0  0  0
  -31.9483  -22.2349   18.2381 N   0  3  0  0  0  0  0  0  0  0  0  0
  -26.9808  -22.7173   18.4246 O   0  0  0  0  0  0  0  0  0  0  0  0
  -26.9238  -17.1234   22.0216 O   0  0  0  0  0  0  0  0  0  0  0  0
  -30.1421  -17.3860   20.0802 O   0  0  0  0  0  0  0  0  0  0  0  0
  -22.5416  -24.1817   23.2642 O   0  0  0  0  0  0  0  0  0  0  0  0
  -30.5411  -22.0453   20.8878 O   0  0  0  0  0  0  0  0  0  0  0  0
  -21.1763  -30.4001   20.5051 O   0  0  0  0  0  0  0  0  0  0  0  0
  -32.8929  -26.8434   21.3586 O   0  0  0  0  0  0  0  0  0  0  0  0
  -23.7944  -22.8792   21.2591 O   0  0  0  0  0  0  0  0  0  1  0  0
  -33.6400  -29.6446   26.0490 F   0  0  0  0  0  0  0  0  0  0  0  0
  -18.7363  -29.8072   22.0886 F   0  0  0  0  0  0  0  0  0  0  0  0
  -32.0592  -29.4690   21.5907 F   0  0  0  0  0  0  0  0  0  0  0  0
  1  2  1  0  0  0  0
  1  5  2  0  0  0  0
  2  6  2  0  0  0  0
  3  9  2  0  0  0  0
  3 18  1  0  0  0  0
  4 10  1  0  0  0  0
  4 18  2  0  0  0  0
  5 20  1  0  0  0  0
  6 22  1  0  0  0  0
  7 11  2  0  0  0  0
  7 21  1  0  0  0  0
  8 13  2  0  0  0  0
  8 24  1  0  0  0  0
  9 26  1  0  0  0  0
 10 26  2  0  0  0  0
 11 27  1  0  0  0  0
 12 14  2  0  0  0  0
 12 28  1  0  0  0  0
 13 30  1  0  0  0  0
 14 29  1  0  0  0  0
 15 23  1  0  0  0  0
 15 27  2  0  0  0  0
 16 24  2  0  0  0  0
 16 25  1  0  0  0  0
 17 29  2  0  0  0  0
 17 31  1  0  0  0  0
 18 32  1  0  0  0  0
 19 32  1  0  0  0  0
 19 33  2  0  0  0  0
 19 34  1  0  0  0  0
 20 22  2  0  0  0  0
 20 40  1  0  0  0  0
 21 23  2  0  0  0  0
 21 41  1  0  0  0  0
 22 49  1  0  0  0  0
 23 42  1  0  0  0  0
 24 57  1  0  0  0  0
 25 30  2  0  0  0  0
 25 58  1  0  0  0  0
 26 80  1  0  0  0  0
 27 81  1  0  0  0  0
 28 31  2  0  0  0  0
 28 80  1  0  0  0  0
 29 82  1  0  0  0  0
 30 83  1  0  0  0  0
 31 84  1  0  0  0  0
 32 63  2  0  0  0  0
 33 64  1  0  0  0  0
 33 67  1  0  0  0  0
 34 68  1  0  0  0  0
 34 74  2  0  0  0  0
 35 50  1  0  0  0  0
 35 69  1  0  0  0  0
 35 75  2  0  0  0  0
 36 60  1  0  0  0  0
 36 65  1  0  0  0  0
 36 76  2  0  0  0  0
 37 59  1  0  0  0  0
 37 70  1  0  0  0  0
 37 77  2  0  0  0  0
 38 61  1  0  0  0  0
 38 71  1  0  0  0  0
 38 78  2  0  0  0  0
 39 66  1  0  0  0  0
 39 72  1  0  0  0  0
 39 79  2  0  0  0  0
 40 43  1  0  0  0  0
 41 50  1  0  0  0  0
 42 65  1  0  0  0  0
 43 45  1  0  0  0  0
 44 46  1  0  0  0  0
 44 47  1  0  0  0  0
 45 49  1  0  0  0  0
 46 51  1  0  0  0  0
 47 66  1  0  0  0  0
 48 51  1  0  0  0  0
 48 66  1  0  0  0  0
 49 69  1  0  0  0  0
 50 65  1  0  0  0  0
 51 64  1  0  0  0  0
 52 61  1  0  0  0  0
 53 62  1  0  0  0  0
 54 62  1  0  0  0  0
 55 62  1  0  0  0  0
 56 73  1  0  0  0  0
 57 70  1  0  0  0  0
 58 72  1  0  0  0  0
 59 81  1  0  0  0  0
 60 62  1  0  0  0  0
 60 71  1  0  0  0  0
 61 73  1  0  0  0  0
 63 64  1  0  0  0  0
M  CHG  1  73   1
M  ISO  4  39 100  59 101  72 100  81 101
M  END
> <Batch ID>
0047

> <Smiles>
CNC(C)C(=O)NC(C(=O)N1Cc2cc([101O:1][101CH2:1]C(=O)NCc3ccc(F)c(C[100NH:0][100C:0](=O)N4CCCC(n5nc(-c6ccc(Oc7ccc(F)cc7F)cc6)c(C(N)=O)c5N)C4)c3)ccc2CC1C(=O)NC1CCCc2ccccc21)C(C)(C)C

> <Shape>
0.219

> <Color>
0.055

> <Negative vol penalty>
0.000

$$$$

  -OEChem-04042322263D

 88 97  0     1  0  0  0  0  0999 V2000
  -30.4204  -11.8885   19.5003 C   0  0  0  0  0  0  0  0  0  0  0  0
  -30.3026  -13.2718   19.5895 C   0  0  0  0  0  0  0  0  0  0  0  0
  -28.8017  -26.2782   19.0745 C   0  0  0  0  0  0  0  0  0  0  0  0
  -26.7461  -25.0111   19.1519 C   0  0  0  0  0  0  0  0  0  0  0  0
  -29.2762  -11.0919   19.4886 C   0  0  0  0  0  0  0  0  0  0  0  0
  -29.0403  -13.8595   19.6659 C   0  0  0  0  0  0  0  0  0  0  0  0
  -25.6599  -19.4687   22.5687 C   0  0  0  0  0  0  0  0  0  0  0  0
  -29.4690  -25.1645   18.5647 C   0  0  0  0  0  0  0  0  0  0  0  0
  -27.4134  -23.8973   18.6421 C   0  0  0  0  0  0  0  0  0  0  0  0
  -24.8296  -20.5295   22.2097 C   0  0  0  0  0  0  0  0  0  0  0  0
  -29.4728  -21.4800   19.8023 C   0  0  0  0  0  0  0  0  0  0  0  0
  -29.2308  -20.2465   20.4070 C   0  0  0  0  0  0  0  0  0  0  0  0
  -22.9258  -19.0489   22.2609 C   0  0  0  0  0  0  0  0  0  0  0  0
  -18.2614  -29.2987   22.3867 C   0  0  0  0  0  0  0  0  0  0  0  0
  -17.6930  -26.9563   22.5499 C   0  0  0  0  0  0  0  0  0  0  0  0
  -28.4118  -19.3775   18.3067 C   0  0  0  0  0  0  0  0  0  0  0  0
  -27.4402  -26.2015   19.3682 C   0  0  0  0  0  0  0  0  0  0  0  0
  -26.6096  -28.6120   19.2847 C   0  0  0  0  0  0  0  0  0  0  0  0
  -27.9996  -11.6695   19.5746 C   0  0  0  0  0  0  0  0  0  0  0  0
  -25.1301  -18.1854   22.7661 C   0  0  0  0  0  0  0  0  0  0  0  0
  -27.8779  -13.0699   19.6539 C   0  0  0  0  0  0  0  0  0  0  0  0
  -23.7512  -17.9740   22.6248 C   0  0  0  0  0  0  0  0  0  0  0  0
  -17.3193  -28.2747   22.2898 C   0  0  0  0  0  0  0  0  0  0  0  0
  -19.5773  -29.0043   22.7437 C   0  0  0  0  0  0  0  0  0  0  0  0
  -19.0088  -26.6618   22.9070 C   0  0  0  0  0  0  0  0  0  0  0  0
  -19.9510  -27.6858   23.0039 C   0  0  0  0  0  0  0  0  0  0  0  0
  -28.7749  -23.9741   18.3484 C   0  0  0  0  0  0  0  0  0  0  0  0
  -23.4628  -20.3192   22.0530 C   0  0  0  0  0  0  0  0  0  0  0  0
  -29.1842  -21.6622   18.4498 C   0  0  0  0  0  0  0  0  0  0  0  0
  -28.7004  -19.1953   19.6592 C   0  0  0  0  0  0  0  0  0  0  0  0
  -28.6538  -20.6110   17.7020 C   0  0  0  0  0  0  0  0  0  0  0  0
  -26.7505  -27.3514   19.8953 C   0  0  0  0  0  0  0  0  0  0  0  0
  -25.8772  -29.3488   20.1832 C   0  0  0  0  0  0  0  0  0  0  0  0
  -21.4136  -24.1275   22.3318 C   0  0  0  0  0  0  0  0  0  0  0  0
  -27.0971  -29.0755   18.0185 C   0  0  0  0  0  0  0  0  0  0  0  0
  -25.5457  -15.3508   21.3893 C   0  0  0  0  0  0  0  0  0  0  0  0
  -23.6222  -14.3352   23.7958 C   0  0  0  0  0  0  0  0  0  0  0  0
  -21.2205  -15.0900   26.0999 C   0  0  0  0  0  0  0  0  0  0  0  0
  -21.9903  -27.8649   24.4721 C   0  0  0  0  0  0  0  0  0  0  0  0
  -26.7903  -10.7705   19.5105 C   0  0  0  0  0  0  0  0  0  0  0  0
  -26.0353  -17.0574   23.1792 C   0  0  0  0  0  0  0  0  0  0  0  0
  -23.1298  -16.6198   22.8452 C   0  0  0  0  0  0  0  0  0  0  0  0
  -25.5027  -11.4478   19.9728 C   0  0  0  0  0  0  0  0  0  0  0  0
  -20.2488  -24.0856   19.6431 C   0  0  0  0  0  0  0  0  0  0  0  0
  -24.9951  -29.7320   24.8746 C   0  0  0  0  0  0  0  0  0  0  0  0
  -25.3699  -12.8298   19.3409 C   0  0  0  0  0  0  0  0  0  0  0  0
  -21.2963  -23.0580   20.0244 C   0  0  0  0  0  0  0  0  0  0  0  0
  -25.7708  -29.4530   23.5852 C   0  0  0  0  0  0  0  0  0  0  0  0
  -19.3916  -24.4128   20.8505 C   0  0  0  0  0  0  0  0  0  0  0  0
  -24.2257  -28.5013   25.3512 C   0  0  0  0  0  0  0  0  0  0  0  0
  -24.1225  -27.6117   23.0562 C   0  0  0  0  0  0  0  0  0  0  0  0
  -26.5270  -13.7431   19.7635 C   0  0  1  0  0  0  0  0  0  0  0  0
  -22.1944  -23.6405   21.1089 C   0  0  2  0  0  0  0  0  0  0  0  0
  -25.4627  -15.6816   22.8526 C   0  0  1  0  0  0  0  0  0  0  0  0
  -24.8614  -28.8406   22.5018 C   0  0  2  0  0  0  0  0  0  0  0  0
  -15.9126  -28.5895   21.9078 C   0  0  0  0  0  0  0  0  0  0  0  0
  -20.5641  -30.1228   22.8387 C   0  0  0  0  0  0  0  0  0  0  0  0
  -19.8195  -14.0438   27.8999 C   0  0  0  0  0  0  0  0  0  0  0  0
  -21.8403  -13.0670   21.6683 C   0  0  0  0  0  0  0  0  0  0  0  0
  -20.0323  -12.8851   23.3906 C   0  0  0  0  0  0  0  0  0  0  0  0
  -22.1848  -11.6659   23.7111 C   0  0  0  0  0  0  0  0  0  0  0  0
  -22.3764  -16.8472   28.1820 C   0  0  0  0  0  0  0  0  0  0  0  0
  -19.3806  -25.2333   23.1813 C   0  0  0  0  0  0  0  0  0  0  0  0
  -23.2650  -22.6262   21.5103 C   0  0  0  0  0  0  0  0  0  1  0  0
  -22.1320  -14.1793   23.9799 C   0  0  1  0  0  0  0  0  0  0  0  0
  -21.1127  -14.7780   27.5816 C   0  0  2  0  0  0  0  0  0  0  0  0
  -21.5590  -12.9746   23.1814 C   0  0  0  0  0  0  0  0  0  0  0  0
  -26.1555  -27.2875   21.0895 N   0  0  0  0  0  0  0  0  0  0  0  0
  -25.6337  -28.5173   21.2365 N   0  0  0  0  0  0  0  0  0  0  0  0
  -20.1407  -24.6474   22.0848 N   0  0  0  0  0  0  0  0  0  0  0  0
  -24.0574  -15.5474   23.2416 N   0  0  0  0  0  0  0  0  0  0  0  0
  -23.3826  -27.9785   24.2738 N   0  0  0  0  0  0  0  0  0  0  0  0
  -25.4242  -30.6204   20.1671 N   0  0  0  0  0  0  0  0  0  0  0  0
  -26.2828  -28.9139   16.8893 N   0  0  0  0  0  0  0  0  0  0  0  0
  -21.2876  -27.3864   23.3667 N   0  0  0  0  0  0  0  0  0  0  0  0
  -26.3153  -14.2384   21.1067 N   0  0  0  0  0  0  0  0  0  0  0  0
  -21.9041  -14.1049   25.4190 N   0  0  0  0  0  0  0  0  0  0  0  0
  -21.1475  -16.0361   28.3797 N   0  3  0  0  0  0  0  0  0  0  0  0
  -21.9454  -24.1342   23.4455 O   0  0  0  0  0  0  0  0  0  0  0  0
  -28.2283  -29.6020   17.8894 O   0  0  0  0  0  0  0  0  0  0  0  0
  -24.9541  -16.0519   20.5768 O   0  0  0  0  0  0  0  0  0  0  0  0
  -24.3730  -13.4182   24.1378 O   0  0  0  0  0  0  0  0  0  0  0  0
  -20.7427  -16.1041   25.5962 O   0  0  0  0  0  0  0  0  0  0  0  0
  -21.4569  -28.1954   25.5343 O   0  0  0  0  0  0  0  0  0  0  0  0
  -29.4257  -22.8872   17.8508 O   0  0  0  0  0  0  0  0  0  0  0  0
  -22.6501  -21.3528   21.7020 O   0  0  0  0  0  0  0  0  0  1  0  0
  -28.4695  -18.0104   20.2397 F   0  0  0  0  0  0  0  0  0  0  0  0
  -28.3756  -20.7798   16.4021 F   0  0  0  0  0  0  0  0  0  0  0  0
  1  2  1  0  0  0  0
  1  5  2  0  0  0  0
  2  6  2  0  0  0  0
  3  8  2  0  0  0  0
  3 17  1  0  0  0  0
  4  9  1  0  0  0  0
  4 17  2  0  0  0  0
  5 19  1  0  0  0  0
  6 21  1  0  0  0  0
  7 10  2  0  0  0  0
  7 20  1  0  0  0  0
  8 27  1  0  0  0  0
  9 27  2  0  0  0  0
 10 28  1  0  0  0  0
 11 12  2  0  0  0  0
 11 29  1  0  0  0  0
 12 30  1  0  0  0  0
 13 22  1  0  0  0  0
 13 28  2  0  0  0  0
 14 23  1  0  0  0  0
 14 24  2  0  0  0  0
 15 23  2  0  0  0  0
 15 25  1  0  0  0  0
 16 30  2  0  0  0  0
 16 31  1  0  0  0  0
 17 32  1  0  0  0  0
 18 32  1  0  0  0  0
 18 33  2  0  0  0  0
 18 35  1  0  0  0  0
 19 21  2  0  0  0  0
 19 40  1  0  0  0  0
 20 22  2  0  0  0  0
 20 41  1  0  0  0  0
 21 52  1  0  0  0  0
 22 42  1  0  0  0  0
 23 56  1  0  0  0  0
 24 26  1  0  0  0  0
 24 57  1  0  0  0  0
 25 26  2  0  0  0  0
 25 63  1  0  0  0  0
 26 75  1  0  0  0  0
 27 85  1  0  0  0  0
 28 86  1  0  0  0  0
 29 31  2  0  0  0  0
 29 85  1  0  0  0  0
 30 87  1  0  0  0  0
 31 88  1  0  0  0  0
 32 68  2  0  0  0  0
 33 69  1  0  0  0  0
 33 73  1  0  0  0  0
 34 53  1  0  0  0  0
 34 70  1  0  0  0  0
 34 79  2  0  0  0  0
 35 74  1  0  0  0  0
 35 80  2  0  0  0  0
 36 54  1  0  0  0  0
 36 76  1  0  0  0  0
 36 81  2  0  0  0  0
 37 65  1  0  0  0  0
 37 71  1  0  0  0  0
 37 82  2  0  0  0  0
 38 66  1  0  0  0  0
 38 77  1  0  0  0  0
 38 83  2  0  0  0  0
 39 72  1  0  0  0  0
 39 75  1  0  0  0  0
 39 84  2  0  0  0  0
 40 43  1  0  0  0  0
 41 54  1  0  0  0  0
 42 71  1  0  0  0  0
 43 46  1  0  0  0  0
 44 47  1  0  0  0  0
 44 49  1  0  0  0  0
 45 48  1  0  0  0  0
 45 50  1  0  0  0  0
 46 52  1  0  0  0  0
 47 53  1  0  0  0  0
 48 55  1  0  0  0  0
 49 70  1  0  0  0  0
 50 72  1  0  0  0  0
 51 55  1  0  0  0  0
 51 72  1  0  0  0  0
 52 76  1  0  0  0  0
 53 64  1  0  0  0  0
 54 71  1  0  0  0  0
 55 69  1  0  0  0  0
 58 66  1  0  0  0  0
 59 67  1  0  0  0  0
 60 67  1  0  0  0  0
 61 67  1  0  0  0  0
 62 78  1  0  0  0  0
 63 70  1  0  0  0  0
 64 86  1  0  0  0  0
 65 67  1  0  0  0  0
 65 77  1  0  0  0  0
 66 78  1  0  0  0  0
 68 69  1  0  0  0  0
M  CHG  1  78   1
M  ISO  4  39 100  64 101  75 100  86 101
M  END
> <Batch ID>
0047

> <Smiles>
CNC(C)C(=O)NC(C(=O)N1Cc2cc([101O:1][101CH2:1]C3CCCN(Cc4cc(C)cc(C)c4[100NH:0][100C:0](=O)N4CCCC(n5nc(-c6ccc(Oc7ccc(F)cc7F)cc6)c(C(N)=O)c5N)C4)C3=O)ccc2CC1C(=O)NC1CCCc2ccccc21)C(C)(C)C

> <Shape>
0.232

> <Color>
0.061

> <Negative vol penalty>
0.000

$$$$
